ligand
 OpenBabel02271912143D
libRbt.so/2013.1/901 2013/11/27
 22 23  0  0  0  0  0  0  0  0999 V2000
  -29.4341    3.3695  -10.5492 N   0  0  0  0  0  0  0  0  0  0  0  0
  -26.3353    4.4486  -11.3770 C   0  0  1  0  0  0  0  0  0  0  0  0
  -27.1808    3.8271  -10.3677 O   0  0  0  0  0  0  0  0  0  0  0  0
  -26.1676    7.8641   -9.7568 P   0  0  1  0  0  0  0  0  0  0  0  0
  -28.1855    3.0539  -11.0437 C   0  0  2  0  0  0  0  0  0  0  0  0
  -31.0735    4.4967   -9.6815 N   0  0  0  0  0  0  0  0  0  0  0  0
  -28.6672    2.5304  -13.3218 O   0  0  0  0  0  0  0  0  0  0  0  0
  -28.1548    3.5381  -12.4421 C   0  0  2  0  0  0  0  0  0  0  0  0
  -33.8363    3.6106   -9.1565 N   0  0  0  0  0  0  0  0  0  0  0  0
  -25.9877    2.6447  -12.8329 O   0  0  0  0  0  0  0  0  0  0  0  0
  -26.7491    3.8525  -12.6661 C   0  0  2  0  0  0  0  0  0  0  0  0
  -31.5262    3.2731   -9.9953 C   0  0  0  0  0  0  0  0  0  0  0  0
  -30.5638    1.2325  -11.0313 N   0  0  0  0  0  0  0  0  0  0  0  0
  -26.2011    6.3295  -10.0769 O   0  0  0  0  0  0  0  0  0  0  0  0
  -26.6111    5.9124  -11.3385 C   0  0  0  0  0  0  0  0  0  0  0  0
  -25.0588    8.4094  -10.7283 O   0  0  0  0  0  0  0  0  0  0  0  0
  -29.7715    4.5518  -10.0211 C   0  0  0  0  0  0  0  0  0  0  0  0
  -33.2216    1.6471  -10.1325 O   0  0  0  0  0  0  0  0  0  0  0  0
  -32.9000    2.7819   -9.7807 C   0  0  0  0  0  0  0  0  0  0  0  0
  -30.5003    2.5584  -10.5450 C   0  0  0  0  0  0  0  0  0  0  0  0
  -27.5229    8.4516   -9.9710 O   0  5  0  0  0  0  0  0  0  0  0  0
  -25.9718    8.0927   -8.3139 O   0  0  0  0  0  0  0  0  0  0  0  0
  1 17  1  0  0  0  0
  1 20  1  0  0  0  0
  2 15  1  6  0  0  0
  2  3  1  0  0  0  0
  2 11  1  0  0  0  0
  3  5  1  0  0  0  0
  4 16  1  6  0  0  0
  4 21  1  0  0  0  0
  4 22  2  0  0  0  0
  4 14  1  0  0  0  0
  5  1  1  1  0  0  0
  5  8  1  0  0  0  0
  6 17  2  0  0  0  0
  6 12  1  0  0  0  0
  8  7  1  6  0  0  0
  8 11  1  0  0  0  0
  9 19  1  0  0  0  0
 11 10  1  1  0  0  0
 12 20  2  0  0  0  0
 12 19  1  0  0  0  0
 13 20  1  0  0  0  0
 14 15  1  0  0  0  0
 18 19  2  0  0  0  0
M  CHG  1  21  -1
M  END
>  <CHROM.1>
28.15905657,63.79695729,-65.02402132,171.80656844,-2.41783723,-28.47557352
4.64069133,-10.64150861,-2.55439637,0.39962867,0.57266745

>  <Name>
ligand

>  <RI>
0

>  <Rbt.Current_Directory>
/home/itssahil/PROJECTS/Mol_Feturizer/Test_systems_manuscript/rnas/4xwf

>  <Rbt.Executable>
rbdock ($Id: //depot/dev/client3/rdock/2013.1/src/exe/rbdock.cxx#4 $)

>  <Rbt.Library>
libRbt.so (2013.1, Build901 2013/11/27)

>  <Rbt.Parameter_File>
/export/apps/rDock/src/rDock_2013.1_src/data/scripts/dock_solv.prm

>  <Rbt.Receptor>
prm/pocket_docking_2.prm

>  <SCORE>
-1.60084

>  <SCORE.INTER>
-0.597153

>  <SCORE.INTER.CONST>
1

>  <SCORE.INTER.POLAR>
0

>  <SCORE.INTER.ROT>
5

>  <SCORE.INTER.SOLV>
11.3745

>  <SCORE.INTER.VDW>
-11.1229

>  <SCORE.INTER.norm>
-0.0271433

>  <SCORE.INTRA>
-1.00369

>  <SCORE.INTRA.DIHEDRAL>
-1.56867

>  <SCORE.INTRA.DIHEDRAL.0>
3.49807

>  <SCORE.INTRA.POLAR>
0

>  <SCORE.INTRA.POLAR.0>
0

>  <SCORE.INTRA.REPUL>
0

>  <SCORE.INTRA.REPUL.0>
0

>  <SCORE.INTRA.SOLV>
0.0604567

>  <SCORE.INTRA.SOLV.lig_0>
-73.062

>  <SCORE.INTRA.VDW>
-0.249579

>  <SCORE.INTRA.VDW.0>
-1.83782

>  <SCORE.INTRA.norm>
-0.0456221

>  <SCORE.RESTR>
0

>  <SCORE.RESTR.CAVITY>
0

>  <SCORE.RESTR.norm>
0

>  <SCORE.SYSTEM>
0

>  <SCORE.SYSTEM.CONST>
0

>  <SCORE.SYSTEM.DIHEDRAL>
0

>  <SCORE.SYSTEM.SOLV>
0

>  <SCORE.SYSTEM.norm>
0

>  <SCORE.heavy>
22

>  <SCORE.norm>
-0.0727655

>  <RMSD>
0.952

$$$$
ligand
 OpenBabel02271912143D
libRbt.so/2013.1/901 2013/11/27
 22 23  0  0  0  0  0  0  0  0999 V2000
  -29.4317    3.3394  -10.4814 N   0  0  0  0  0  0  0  0  0  0  0  0
  -26.3202    4.4171  -11.2623 C   0  0  1  0  0  0  0  0  0  0  0  0
  -27.1863    3.8165  -10.2577 O   0  0  0  0  0  0  0  0  0  0  0  0
  -26.1536    7.8873   -9.7615 P   0  0  1  0  0  0  0  0  0  0  0  0
  -28.1696    3.0193  -10.9373 C   0  0  2  0  0  0  0  0  0  0  0  0
  -31.0947    4.4742   -9.6703 N   0  0  0  0  0  0  0  0  0  0  0  0
  -28.5928    2.4336  -13.2119 O   0  0  0  0  0  0  0  0  0  0  0  0
  -28.1080    3.4671  -12.3467 C   0  0  2  0  0  0  0  0  0  0  0  0
  -33.8752    3.5981   -9.2298 N   0  0  0  0  0  0  0  0  0  0  0  0
  -25.9267    2.5783  -12.6617 O   0  0  0  0  0  0  0  0  0  0  0  0
  -26.6991    3.7849  -12.5449 C   0  0  2  0  0  0  0  0  0  0  0  0
  -31.5390    3.2483   -9.9872 C   0  0  0  0  0  0  0  0  0  0  0  0
  -30.5485    1.1990  -10.9787 N   0  0  0  0  0  0  0  0  0  0  0  0
  -26.1729    6.3428  -10.0311 O   0  0  0  0  0  0  0  0  0  0  0  0
  -26.6056    5.8794  -11.2687 C   0  0  0  0  0  0  0  0  0  0  0  0
  -25.0717    8.4147  -10.7723 O   0  0  0  0  0  0  0  0  0  0  0  0
  -29.7835    4.5260   -9.9728 C   0  0  0  0  0  0  0  0  0  0  0  0
  -33.2281    1.6180  -10.1496 O   0  0  0  0  0  0  0  0  0  0  0  0
  -32.9187    2.7594   -9.8082 C   0  0  0  0  0  0  0  0  0  0  0  0
  -30.4982    2.5288  -10.5014 C   0  0  0  0  0  0  0  0  0  0  0  0
  -27.5207    8.4502   -9.9669 O   0  5  0  0  0  0  0  0  0  0  0  0
  -25.9322    8.1652   -8.3309 O   0  0  0  0  0  0  0  0  0  0  0  0
  1 17  1  0  0  0  0
  1 20  1  0  0  0  0
  2 15  1  6  0  0  0
  2  3  1  0  0  0  0
  2 11  1  0  0  0  0
  3  5  1  0  0  0  0
  4 16  1  6  0  0  0
  4 21  1  0  0  0  0
  4 22  2  0  0  0  0
  4 14  1  0  0  0  0
  5  1  1  1  0  0  0
  5  8  1  0  0  0  0
  6 17  2  0  0  0  0
  6 12  1  0  0  0  0
  8  7  1  6  0  0  0
  8 11  1  0  0  0  0
  9 19  1  0  0  0  0
 11 10  1  1  0  0  0
 12 20  2  0  0  0  0
 12 19  1  0  0  0  0
 13 20  1  0  0  0  0
 14 15  1  0  0  0  0
 18 19  2  0  0  0  0
M  CHG  1  21  -1
M  END
>  <CHROM.1>
27.02356439,66.41035929,-65.19477362,172.24305956,-1.80139067,-28.46352462
4.61991644,-10.59890627,-2.53781642,0.37954421,0.53856803

>  <Name>
ligand

>  <RI>
0

>  <Rbt.Current_Directory>
/home/itssahil/PROJECTS/Mol_Feturizer/Test_systems_manuscript/rnas/4xwf

>  <Rbt.Executable>
rbdock ($Id: //depot/dev/client3/rdock/2013.1/src/exe/rbdock.cxx#4 $)

>  <Rbt.Library>
libRbt.so (2013.1, Build901 2013/11/27)

>  <Rbt.Parameter_File>
/export/apps/rDock/src/rDock_2013.1_src/data/scripts/dock_solv.prm

>  <Rbt.Receptor>
prm/pocket_docking_2.prm

>  <SCORE>
-1.60148

>  <SCORE.INTER>
-0.639917

>  <SCORE.INTER.CONST>
1

>  <SCORE.INTER.POLAR>
0

>  <SCORE.INTER.ROT>
5

>  <SCORE.INTER.SOLV>
11.3147

>  <SCORE.INTER.VDW>
-11.1315

>  <SCORE.INTER.norm>
-0.0290871

>  <SCORE.INTRA>
-0.961565

>  <SCORE.INTRA.DIHEDRAL>
-1.50327

>  <SCORE.INTRA.DIHEDRAL.0>
3.49807

>  <SCORE.INTRA.POLAR>
0

>  <SCORE.INTRA.POLAR.0>
0

>  <SCORE.INTRA.REPUL>
0

>  <SCORE.INTRA.REPUL.0>
0

>  <SCORE.INTRA.SOLV>
0.0942641

>  <SCORE.INTRA.SOLV.lig_0>
-73.062

>  <SCORE.INTRA.VDW>
-0.257062

>  <SCORE.INTRA.VDW.0>
-1.83782

>  <SCORE.INTRA.norm>
-0.0437075

>  <SCORE.RESTR>
0

>  <SCORE.RESTR.CAVITY>
0

>  <SCORE.RESTR.norm>
0

>  <SCORE.SYSTEM>
0

>  <SCORE.SYSTEM.CONST>
0

>  <SCORE.SYSTEM.DIHEDRAL>
0

>  <SCORE.SYSTEM.SOLV>
0

>  <SCORE.SYSTEM.norm>
0

>  <SCORE.heavy>
22

>  <SCORE.norm>
-0.0727946

>  <RMSD>
0.954

$$$$
ligand
 OpenBabel02271912143D
libRbt.so/2013.1/901 2013/11/27
 22 23  0  0  0  0  0  0  0  0999 V2000
  -29.4582    3.3039  -10.5531 N   0  0  0  0  0  0  0  0  0  0  0  0
  -26.3747    4.4127  -11.3985 C   0  0  1  0  0  0  0  0  0  0  0  0
  -27.2103    3.7909  -10.3812 O   0  0  0  0  0  0  0  0  0  0  0  0
  -26.1673    7.8588   -9.8524 P   0  0  1  0  0  0  0  0  0  0  0  0
  -28.2069    2.9988  -11.0473 C   0  0  2  0  0  0  0  0  0  0  0  0
  -31.0940    4.4030   -9.6433 N   0  0  0  0  0  0  0  0  0  0  0  0
  -28.6871    2.4471  -13.3191 O   0  0  0  0  0  0  0  0  0  0  0  0
  -28.1853    3.4695  -12.4505 C   0  0  2  0  0  0  0  0  0  0  0  0
  -33.8994    3.5663   -9.2936 N   0  0  0  0  0  0  0  0  0  0  0  0
  -26.0082    2.5990  -12.8375 O   0  0  0  0  0  0  0  0  0  0  0  0
  -26.7840    3.7989  -12.6807 C   0  0  2  0  0  0  0  0  0  0  0  0
  -31.5599    3.2077  -10.0367 C   0  0  0  0  0  0  0  0  0  0  0  0
  -30.6121    1.2178  -11.1793 N   0  0  0  0  0  0  0  0  0  0  0  0
  -26.2139    6.3175  -10.1368 O   0  0  0  0  0  0  0  0  0  0  0  0
  -26.6683    5.8732  -11.3737 C   0  0  0  0  0  0  0  0  0  0  0  0
  -25.1142    8.3844  -10.8941 O   0  0  0  0  0  0  0  0  0  0  0  0
  -29.7862    4.4577   -9.9599 C   0  0  0  0  0  0  0  0  0  0  0  0
  -33.2584    1.5900  -10.2257 O   0  0  0  0  0  0  0  0  0  0  0  0
  -32.9441    2.7264   -9.8722 C   0  0  0  0  0  0  0  0  0  0  0  0
  -30.5364    2.5110  -10.6133 C   0  0  0  0  0  0  0  0  0  0  0  0
  -27.5339    8.4394  -10.0055 O   0  5  0  0  0  0  0  0  0  0  0  0
  -25.8943    8.1191   -8.4275 O   0  0  0  0  0  0  0  0  0  0  0  0
  1 17  1  0  0  0  0
  1 20  1  0  0  0  0
  2 15  1  6  0  0  0
  2  3  1  0  0  0  0
  2 11  1  0  0  0  0
  3  5  1  0  0  0  0
  4 16  1  6  0  0  0
  4 21  1  0  0  0  0
  4 22  2  0  0  0  0
  4 14  1  0  0  0  0
  5  1  1  1  0  0  0
  5  8  1  0  0  0  0
  6 17  2  0  0  0  0
  6 12  1  0  0  0  0
  8  7  1  6  0  0  0
  8 11  1  0  0  0  0
  9 19  1  0  0  0  0
 11 10  1  1  0  0  0
 12 20  2  0  0  0  0
 12 19  1  0  0  0  0
 13 20  1  0  0  0  0
 14 15  1  0  0  0  0
 18 19  2  0  0  0  0
M  CHG  1  21  -1
M  END
>  <CHROM.1>
23.74262013,66.00367136,-63.90025154,170.86819709,1.84850015,-28.49958808
4.59929425,-10.69312676,-2.54684250,0.39442266,0.56018536

>  <Name>
ligand

>  <RI>
0

>  <Rbt.Current_Directory>
/home/itssahil/PROJECTS/Mol_Feturizer/Test_systems_manuscript/rnas/4xwf

>  <Rbt.Executable>
rbdock ($Id: //depot/dev/client3/rdock/2013.1/src/exe/rbdock.cxx#4 $)

>  <Rbt.Library>
libRbt.so (2013.1, Build901 2013/11/27)

>  <Rbt.Parameter_File>
/export/apps/rDock/src/rDock_2013.1_src/data/scripts/dock_solv.prm

>  <Rbt.Receptor>
prm/pocket_docking_2.prm

>  <SCORE>
-1.61299

>  <SCORE.INTER>
-0.808327

>  <SCORE.INTER.CONST>
1

>  <SCORE.INTER.POLAR>
0

>  <SCORE.INTER.ROT>
5

>  <SCORE.INTER.SOLV>
12.1932

>  <SCORE.INTER.VDW>
-11.5366

>  <SCORE.INTER.norm>
-0.0367421

>  <SCORE.INTRA>
-0.804661

>  <SCORE.INTRA.DIHEDRAL>
-1.42839

>  <SCORE.INTRA.DIHEDRAL.0>
3.49807

>  <SCORE.INTRA.POLAR>
0

>  <SCORE.INTRA.POLAR.0>
0

>  <SCORE.INTRA.REPUL>
0

>  <SCORE.INTRA.REPUL.0>
0

>  <SCORE.INTRA.SOLV>
0.21149

>  <SCORE.INTRA.SOLV.lig_0>
-73.062

>  <SCORE.INTRA.VDW>
-0.19621

>  <SCORE.INTRA.VDW.0>
-1.83782

>  <SCORE.INTRA.norm>
-0.0365755

>  <SCORE.RESTR>
0

>  <SCORE.RESTR.CAVITY>
0

>  <SCORE.RESTR.norm>
0

>  <SCORE.SYSTEM>
0

>  <SCORE.SYSTEM.CONST>
0

>  <SCORE.SYSTEM.DIHEDRAL>
0

>  <SCORE.SYSTEM.SOLV>
0

>  <SCORE.SYSTEM.norm>
0

>  <SCORE.heavy>
22

>  <SCORE.norm>
-0.0733176

>  <RMSD>
0.973

$$$$
ligand
 OpenBabel02271912143D
libRbt.so/2013.1/901 2013/11/27
 22 23  0  0  0  0  0  0  0  0999 V2000
  -29.4039    3.3660  -10.5690 N   0  0  0  0  0  0  0  0  0  0  0  0
  -26.2026    4.3413  -11.0721 C   0  0  1  0  0  0  0  0  0  0  0  0
  -27.1347    3.6037  -10.2312 O   0  0  0  0  0  0  0  0  0  0  0  0
  -25.6676    7.3938   -8.9055 P   0  0  1  0  0  0  0  0  0  0  0  0
  -28.1591    3.0562  -11.0769 C   0  0  2  0  0  0  0  0  0  0  0  0
  -31.0287    4.4749   -9.6516 N   0  0  0  0  0  0  0  0  0  0  0  0
  -28.5719    3.0225  -13.4273 O   0  0  0  0  0  0  0  0  0  0  0  0
  -28.0309    3.7980  -12.3513 C   0  0  2  0  0  0  0  0  0  0  0  0
  -33.8057    3.6064   -9.1748 N   0  0  0  0  0  0  0  0  0  0  0  0
  -25.9161    2.8319  -12.8424 O   0  0  0  0  0  0  0  0  0  0  0  0
  -26.5979    4.0399  -12.4653 C   0  0  2  0  0  0  0  0  0  0  0  0
  -31.4977    3.2731  -10.0210 C   0  0  0  0  0  0  0  0  0  0  0  0
  -30.5621    1.2688  -11.1484 N   0  0  0  0  0  0  0  0  0  0  0  0
  -25.8648    5.9452   -9.4722 O   0  0  0  0  0  0  0  0  0  0  0  0
  -26.3767    5.7868  -10.7554 C   0  0  0  0  0  0  0  0  0  0  0  0
  -27.1012    8.0261   -9.0297 O   0  0  0  0  0  0  0  0  0  0  0  0
  -29.7257    4.5276   -9.9879 C   0  0  0  0  0  0  0  0  0  0  0  0
  -33.2134    1.6760  -10.2275 O   0  0  0  0  0  0  0  0  0  0  0  0
  -32.8783    2.7915   -9.8296 C   0  0  0  0  0  0  0  0  0  0  0  0
  -30.4811    2.5702  -10.6023 C   0  0  0  0  0  0  0  0  0  0  0  0
  -25.1412    7.3202   -7.5107 O   0  5  0  0  0  0  0  0  0  0  0  0
  -24.5647    8.0812   -9.6010 O   0  0  0  0  0  0  0  0  0  0  0  0
  1 17  1  0  0  0  0
  1 20  1  0  0  0  0
  2 15  1  1  0  0  0
  2  3  1  0  0  0  0
  2 11  1  0  0  0  0
  3  5  1  0  0  0  0
  4 16  1  6  0  0  0
  4 21  1  0  0  0  0
  4 22  2  0  0  0  0
  4 14  1  0  0  0  0
  5  1  1  1  0  0  0
  5  8  1  0  0  0  0
  6 17  2  0  0  0  0
  6 12  1  0  0  0  0
  8  7  1  6  0  0  0
  8 11  1  0  0  0  0
  9 19  1  0  0  0  0
 11 10  1  1  0  0  0
 12 20  2  0  0  0  0
 12 19  1  0  0  0  0
 13 20  1  0  0  0  0
 14 15  1  0  0  0  0
 18 19  2  0  0  0  0
M  CHG  1  21  -1
M  END
>  <CHROM.1>
37.72937686,69.89049875,56.19498719,169.92680395,-2.09362882,-28.28059384
4.53550063,-10.35778215,-2.61220037,0.34729332,0.77280705

>  <Name>
ligand

>  <RI>
0

>  <Rbt.Current_Directory>
/home/itssahil/PROJECTS/Mol_Feturizer/Test_systems_manuscript/rnas/4xwf

>  <Rbt.Executable>
rbdock ($Id: //depot/dev/client3/rdock/2013.1/src/exe/rbdock.cxx#4 $)

>  <Rbt.Library>
libRbt.so (2013.1, Build901 2013/11/27)

>  <Rbt.Parameter_File>
/export/apps/rDock/src/rDock_2013.1_src/data/scripts/dock_solv.prm

>  <Rbt.Receptor>
prm/pocket_docking_2.prm

>  <SCORE>
-1.12341

>  <SCORE.INTER>
-0.194904

>  <SCORE.INTER.CONST>
1

>  <SCORE.INTER.POLAR>
0

>  <SCORE.INTER.ROT>
5

>  <SCORE.INTER.SOLV>
11.2758

>  <SCORE.INTER.VDW>
-10.8219

>  <SCORE.INTER.norm>
-0.00885929

>  <SCORE.INTRA>
-0.9297

>  <SCORE.INTRA.DIHEDRAL>
-1.12985

>  <SCORE.INTRA.DIHEDRAL.0>
3.49807

>  <SCORE.INTRA.POLAR>
0

>  <SCORE.INTRA.POLAR.0>
0

>  <SCORE.INTRA.REPUL>
0

>  <SCORE.INTRA.REPUL.0>
0

>  <SCORE.INTRA.SOLV>
-0.341022

>  <SCORE.INTRA.SOLV.lig_0>
-73.062

>  <SCORE.INTRA.VDW>
-0.194264

>  <SCORE.INTRA.VDW.0>
-1.83782

>  <SCORE.INTRA.norm>
-0.0422591

>  <SCORE.RESTR>
0.00119516

>  <SCORE.RESTR.CAVITY>
0.00119516

>  <SCORE.RESTR.norm>
5.43254e-05

>  <SCORE.SYSTEM>
0

>  <SCORE.SYSTEM.CONST>
0

>  <SCORE.SYSTEM.DIHEDRAL>
0

>  <SCORE.SYSTEM.SOLV>
0

>  <SCORE.SYSTEM.norm>
0

>  <SCORE.heavy>
22

>  <SCORE.norm>
-0.051064

>  <RMSD>
1.019

$$$$
ligand
 OpenBabel02271912143D
libRbt.so/2013.1/901 2013/11/27
 22 23  0  0  0  0  0  0  0  0999 V2000
  -29.6720    3.7551  -10.0855 N   0  0  0  0  0  0  0  0  0  0  0  0
  -26.4883    4.8592   -9.7728 C   0  0  1  0  0  0  0  0  0  0  0  0
  -27.5168    3.9501   -9.2873 O   0  0  0  0  0  0  0  0  0  0  0  0
  -25.6767    8.4957   -9.0867 P   0  0  1  0  0  0  0  0  0  0  0  0
  -28.3414    3.5751  -10.4026 C   0  0  2  0  0  0  0  0  0  0  0  0
  -31.5176    4.6906   -9.4300 N   0  0  0  0  0  0  0  0  0  0  0  0
  -28.3205    4.0232  -12.7466 O   0  0  0  0  0  0  0  0  0  0  0  0
  -28.0244    4.5666  -11.4548 C   0  0  2  0  0  0  0  0  0  0  0  0
  -34.2577    3.5988   -9.5221 N   0  0  0  0  0  0  0  0  0  0  0  0
  -25.8077    3.7536  -11.7244 O   0  0  0  0  0  0  0  0  0  0  0  0
  -26.6090    4.8473  -11.2471 C   0  0  2  0  0  0  0  0  0  0  0  0
  -31.8029    3.4473   -9.8465 C   0  0  0  0  0  0  0  0  0  0  0  0
  -30.5139    1.5505  -10.7973 N   0  0  0  0  0  0  0  0  0  0  0  0
  -25.7186    7.0077   -9.5793 O   0  0  0  0  0  0  0  0  0  0  0  0
  -26.7926    6.2051   -9.2106 C   0  0  0  0  0  0  0  0  0  0  0  0
  -24.3642    9.0554   -9.7459 O   0  0  0  0  0  0  0  0  0  0  0  0
  -30.1916    4.8770   -9.5739 C   0  0  0  0  0  0  0  0  0  0  0  0
  -33.2769    1.6346  -10.1267 O   0  0  0  0  0  0  0  0  0  0  0  0
  -33.1405    2.8264   -9.8510 C   0  0  0  0  0  0  0  0  0  0  0  0
  -30.6462    2.8530  -10.2637 C   0  0  0  0  0  0  0  0  0  0  0  0
  -26.9269    9.1977   -9.5018 O   0  5  0  0  0  0  0  0  0  0  0  0
  -25.7749    8.5626   -7.6175 O   0  0  0  0  0  0  0  0  0  0  0  0
  1 17  1  0  0  0  0
  1 20  1  0  0  0  0
  2 15  1  1  0  0  0
  2  3  1  0  0  0  0
  2 11  1  0  0  0  0
  3  5  1  0  0  0  0
  4 16  1  6  0  0  0
  4 21  1  0  0  0  0
  4 22  2  0  0  0  0
  4 14  1  0  0  0  0
  5  1  1  1  0  0  0
  5  8  1  0  0  0  0
  6 17  2  0  0  0  0
  6 12  1  0  0  0  0
  8  7  1  6  0  0  0
  8 11  1  0  0  0  0
  9 19  1  0  0  0  0
 11 10  1  6  0  0  0
 12 20  2  0  0  0  0
 12 19  1  0  0  0  0
 13 20  1  0  0  0  0
 14 15  1  0  0  0  0
 18 19  2  0  0  0  0
M  CHG  1  21  -1
M  END
>  <CHROM.1>
50.76669493,173.96107883,-178.09536940,-177.05982470,6.55844533,-28.42065181
5.15308847,-9.98624573,-2.51517559,0.29414253,0.53696551

>  <Name>
ligand

>  <RI>
0

>  <Rbt.Current_Directory>
/home/itssahil/PROJECTS/Mol_Feturizer/Test_systems_manuscript/rnas/4xwf

>  <Rbt.Executable>
rbdock ($Id: //depot/dev/client3/rdock/2013.1/src/exe/rbdock.cxx#4 $)

>  <Rbt.Library>
libRbt.so (2013.1, Build901 2013/11/27)

>  <Rbt.Parameter_File>
/export/apps/rDock/src/rDock_2013.1_src/data/scripts/dock_solv.prm

>  <Rbt.Receptor>
prm/pocket_docking_2.prm

>  <SCORE>
-1.9756

>  <SCORE.INTER>
-1.19482

>  <SCORE.INTER.CONST>
1

>  <SCORE.INTER.POLAR>
0

>  <SCORE.INTER.ROT>
5

>  <SCORE.INTER.SOLV>
11.5322

>  <SCORE.INTER.VDW>
-11.5739

>  <SCORE.INTER.norm>
-0.0543099

>  <SCORE.INTRA>
-0.780782

>  <SCORE.INTRA.DIHEDRAL>
-1.78115

>  <SCORE.INTRA.DIHEDRAL.0>
3.49807

>  <SCORE.INTRA.POLAR>
0

>  <SCORE.INTRA.POLAR.0>
0

>  <SCORE.INTRA.REPUL>
0

>  <SCORE.INTRA.REPUL.0>
0

>  <SCORE.INTRA.SOLV>
0.0264953

>  <SCORE.INTRA.SOLV.lig_0>
-73.062

>  <SCORE.INTRA.VDW>
0.0965432

>  <SCORE.INTRA.VDW.0>
-1.83782

>  <SCORE.INTRA.norm>
-0.0354901

>  <SCORE.RESTR>
0

>  <SCORE.RESTR.CAVITY>
0

>  <SCORE.RESTR.norm>
0

>  <SCORE.SYSTEM>
0

>  <SCORE.SYSTEM.CONST>
0

>  <SCORE.SYSTEM.DIHEDRAL>
0

>  <SCORE.SYSTEM.SOLV>
0

>  <SCORE.SYSTEM.norm>
0

>  <SCORE.heavy>
22

>  <SCORE.norm>
-0.0898

>  <RMSD>
1.081

$$$$
ligand
 OpenBabel02271912143D
libRbt.so/2013.1/901 2013/11/27
 22 23  0  0  0  0  0  0  0  0999 V2000
  -29.4971    3.2032  -10.5722 N   0  0  0  0  0  0  0  0  0  0  0  0
  -26.2508    4.0487  -11.0187 C   0  0  1  0  0  0  0  0  0  0  0  0
  -27.2246    3.3386  -10.2018 O   0  0  0  0  0  0  0  0  0  0  0  0
  -25.6044    7.0636   -8.8195 P   0  0  1  0  0  0  0  0  0  0  0  0
  -28.2599    2.8485  -11.0691 C   0  0  2  0  0  0  0  0  0  0  0  0
  -31.0927    4.3749   -9.6821 N   0  0  0  0  0  0  0  0  0  0  0  0
  -28.6421    2.8689  -13.4248 O   0  0  0  0  0  0  0  0  0  0  0  0
  -28.0833    3.6038  -12.3297 C   0  0  2  0  0  0  0  0  0  0  0  0
  -33.9050    3.6106   -9.2366 N   0  0  0  0  0  0  0  0  0  0  0  0
  -26.0049    2.5561  -12.8093 O   0  0  0  0  0  0  0  0  0  0  0  0
  -26.6399    3.7861  -12.4215 C   0  0  2  0  0  0  0  0  0  0  0  0
  -31.5947    3.1804  -10.0314 C   0  0  0  0  0  0  0  0  0  0  0  0
  -30.7130    1.1297  -11.1179 N   0  0  0  0  0  0  0  0  0  0  0  0
  -25.7677    5.6302   -9.4339 O   0  0  0  0  0  0  0  0  0  0  0  0
  -26.3677    5.4952  -10.6811 C   0  0  0  0  0  0  0  0  0  0  0  0
  -27.0843    7.4906   -8.5062 O   0  0  0  0  0  0  0  0  0  0  0  0
  -29.7875    4.3840  -10.0138 C   0  0  0  0  0  0  0  0  0  0  0  0
  -33.3466    1.6169  -10.1848 O   0  0  0  0  0  0  0  0  0  0  0  0
  -32.9893    2.7423   -9.8370 C   0  0  0  0  0  0  0  0  0  0  0  0
  -30.5966    2.4381  -10.5954 C   0  0  0  0  0  0  0  0  0  0  0  0
  -24.7116    6.9994   -7.6251 O   0  5  0  0  0  0  0  0  0  0  0  0
  -24.8282    7.9332   -9.7216 O   0  0  0  0  0  0  0  0  0  0  0  0
  1 17  1  0  0  0  0
  1 20  1  0  0  0  0
  2 15  1  1  0  0  0
  2  3  1  0  0  0  0
  2 11  1  0  0  0  0
  3  5  1  0  0  0  0
  4 16  1  1  0  0  0
  4 21  1  0  0  0  0
  4 22  2  0  0  0  0
  4 14  1  0  0  0  0
  5  1  1  1  0  0  0
  5  8  1  0  0  0  0
  6 17  2  0  0  0  0
  6 12  1  0  0  0  0
  8  7  1  6  0  0  0
  8 11  1  0  0  0  0
  9 19  1  0  0  0  0
 11 10  1  1  0  0  0
 12 20  2  0  0  0  0
 12 19  1  0  0  0  0
 13 20  1  0  0  0  0
 14 15  1  0  0  0  0
 18 19  2  0  0  0  0
M  CHG  1  21  -1
M  END
>  <CHROM.1>
39.90611386,74.60070627,68.51429599,174.90070842,-0.22192811,-28.32025614
4.32155417,-10.32449222,-2.63758111,0.31662427,0.78973922

>  <Name>
ligand

>  <RI>
0

>  <Rbt.Current_Directory>
/home/itssahil/PROJECTS/Mol_Feturizer/Test_systems_manuscript/rnas/4xwf

>  <Rbt.Executable>
rbdock ($Id: //depot/dev/client3/rdock/2013.1/src/exe/rbdock.cxx#4 $)

>  <Rbt.Library>
libRbt.so (2013.1, Build901 2013/11/27)

>  <Rbt.Parameter_File>
/export/apps/rDock/src/rDock_2013.1_src/data/scripts/dock_solv.prm

>  <Rbt.Receptor>
prm/pocket_docking_2.prm

>  <SCORE>
-1.15833

>  <SCORE.INTER>
-0.158406

>  <SCORE.INTER.CONST>
1

>  <SCORE.INTER.POLAR>
0

>  <SCORE.INTER.ROT>
5

>  <SCORE.INTER.SOLV>
12.0712

>  <SCORE.INTER.VDW>
-11.0627

>  <SCORE.INTER.norm>
-0.00720026

>  <SCORE.INTRA>
-1.00055

>  <SCORE.INTRA.DIHEDRAL>
-1.06359

>  <SCORE.INTRA.DIHEDRAL.0>
3.49807

>  <SCORE.INTRA.POLAR>
0

>  <SCORE.INTRA.POLAR.0>
0

>  <SCORE.INTRA.REPUL>
0

>  <SCORE.INTRA.REPUL.0>
0

>  <SCORE.INTRA.SOLV>
-0.351058

>  <SCORE.INTRA.SOLV.lig_0>
-73.062

>  <SCORE.INTRA.VDW>
-0.293222

>  <SCORE.INTRA.VDW.0>
-1.83782

>  <SCORE.INTRA.norm>
-0.0454794

>  <SCORE.RESTR>
0.00061888

>  <SCORE.RESTR.CAVITY>
0.00061888

>  <SCORE.RESTR.norm>
2.81309e-05

>  <SCORE.SYSTEM>
0

>  <SCORE.SYSTEM.CONST>
0

>  <SCORE.SYSTEM.DIHEDRAL>
0

>  <SCORE.SYSTEM.SOLV>
0

>  <SCORE.SYSTEM.norm>
0

>  <SCORE.heavy>
22

>  <SCORE.norm>
-0.0526515

>  <RMSD>
1.081

$$$$
ligand
 OpenBabel02271912143D
libRbt.so/2013.1/901 2013/11/27
 22 23  0  0  0  0  0  0  0  0999 V2000
  -29.4814    3.1964  -10.5814 N   0  0  0  0  0  0  0  0  0  0  0  0
  -26.2359    4.0457  -11.0264 C   0  0  1  0  0  0  0  0  0  0  0  0
  -27.2066    3.3187  -10.2207 O   0  0  0  0  0  0  0  0  0  0  0  0
  -25.6113    6.9916   -8.7330 P   0  0  1  0  0  0  0  0  0  0  0  0
  -28.2477    2.8509  -11.0933 C   0  0  2  0  0  0  0  0  0  0  0  0
  -31.0711    4.3521   -9.6605 N   0  0  0  0  0  0  0  0  0  0  0  0
  -28.6430    2.9267  -13.4457 O   0  0  0  0  0  0  0  0  0  0  0  0
  -28.0765    3.6349  -12.3370 C   0  0  2  0  0  0  0  0  0  0  0  0
  -33.8883    3.5916   -9.2388 N   0  0  0  0  0  0  0  0  0  0  0  0
  -26.0031    2.5945  -12.8524 O   0  0  0  0  0  0  0  0  0  0  0  0
  -26.6333    3.8164  -12.4327 C   0  0  2  0  0  0  0  0  0  0  0  0
  -31.5748    3.1630  -10.0251 C   0  0  0  0  0  0  0  0  0  0  0  0
  -30.6997    1.1308  -11.1511 N   0  0  0  0  0  0  0  0  0  0  0  0
  -25.8104    5.5752   -9.3754 O   0  0  0  0  0  0  0  0  0  0  0  0
  -26.3479    5.4842  -10.6547 C   0  0  0  0  0  0  0  0  0  0  0  0
  -27.0836    7.4947   -8.5098 O   0  0  0  0  0  0  0  0  0  0  0  0
  -29.7685    4.3678  -10.0019 C   0  0  0  0  0  0  0  0  0  0  0  0
  -33.3188    1.5890  -10.1614 O   0  0  0  0  0  0  0  0  0  0  0  0
  -32.9675    2.7204   -9.8272 C   0  0  0  0  0  0  0  0  0  0  0  0
  -30.5804    2.4307  -10.6085 C   0  0  0  0  0  0  0  0  0  0  0  0
  -24.8026    6.8678   -7.4846 O   0  5  0  0  0  0  0  0  0  0  0  0
  -24.7330    7.8269   -9.5717 O   0  0  0  0  0  0  0  0  0  0  0  0
  1 17  1  0  0  0  0
  1 20  1  0  0  0  0
  2 15  1  1  0  0  0
  2  3  1  0  0  0  0
  2 11  1  0  0  0  0
  3  5  1  0  0  0  0
  4 16  1  1  0  0  0
  4 21  1  0  0  0  0
  4 22  2  0  0  0  0
  4 14  1  0  0  0  0
  5  1  1  1  0  0  0
  5  8  1  0  0  0  0
  6 17  2  0  0  0  0
  6 12  1  0  0  0  0
  8  7  1  6  0  0  0
  8 11  1  0  0  0  0
  9 19  1  0  0  0  0
 11 10  1  1  0  0  0
 12 20  2  0  0  0  0
 12 19  1  0  0  0  0
 13 20  1  0  0  0  0
 14 15  1  0  0  0  0
 18 19  2  0  0  0  0
M  CHG  1  21  -1
M  END
>  <CHROM.1>
40.36243640,71.26098844,67.82698581,172.82709878,1.50456459,-28.31235070
4.30072028,-10.30378244,-2.64117039,0.31899848,0.81676947

>  <Name>
ligand

>  <RI>
0

>  <Rbt.Current_Directory>
/home/itssahil/PROJECTS/Mol_Feturizer/Test_systems_manuscript/rnas/4xwf

>  <Rbt.Executable>
rbdock ($Id: //depot/dev/client3/rdock/2013.1/src/exe/rbdock.cxx#4 $)

>  <Rbt.Library>
libRbt.so (2013.1, Build901 2013/11/27)

>  <Rbt.Parameter_File>
/export/apps/rDock/src/rDock_2013.1_src/data/scripts/dock_solv.prm

>  <Rbt.Receptor>
prm/pocket_docking_2.prm

>  <SCORE>
-1.18462

>  <SCORE.INTER>
-0.108411

>  <SCORE.INTER.CONST>
1

>  <SCORE.INTER.POLAR>
0

>  <SCORE.INTER.ROT>
5

>  <SCORE.INTER.SOLV>
12.0379

>  <SCORE.INTER.VDW>
-11.0182

>  <SCORE.INTER.norm>
-0.00492779

>  <SCORE.INTRA>
-1.07621

>  <SCORE.INTRA.DIHEDRAL>
-1.237

>  <SCORE.INTRA.DIHEDRAL.0>
3.49807

>  <SCORE.INTRA.POLAR>
0

>  <SCORE.INTRA.POLAR.0>
0

>  <SCORE.INTRA.REPUL>
0

>  <SCORE.INTRA.REPUL.0>
0

>  <SCORE.INTRA.SOLV>
-0.352988

>  <SCORE.INTRA.SOLV.lig_0>
-73.062

>  <SCORE.INTRA.VDW>
-0.281212

>  <SCORE.INTRA.VDW.0>
-1.83782

>  <SCORE.INTRA.norm>
-0.0489185

>  <SCORE.RESTR>
0

>  <SCORE.RESTR.CAVITY>
0

>  <SCORE.RESTR.norm>
0

>  <SCORE.SYSTEM>
0

>  <SCORE.SYSTEM.CONST>
0

>  <SCORE.SYSTEM.DIHEDRAL>
0

>  <SCORE.SYSTEM.SOLV>
0

>  <SCORE.SYSTEM.norm>
0

>  <SCORE.heavy>
22

>  <SCORE.norm>
-0.0538463

>  <RMSD>
1.097

$$$$
ligand
 OpenBabel02271912143D
libRbt.so/2013.1/901 2013/11/27
 22 23  0  0  0  0  0  0  0  0999 V2000
  -29.4855    3.2079  -10.5106 N   0  0  0  0  0  0  0  0  0  0  0  0
  -26.2971    3.9690  -11.3516 C   0  0  1  0  0  0  0  0  0  0  0  0
  -27.1910    3.3874  -10.3603 O   0  0  0  0  0  0  0  0  0  0  0  0
  -25.7280    7.2419   -9.5296 P   0  0  1  0  0  0  0  0  0  0  0  0
  -28.2923    2.7811  -11.0558 C   0  0  2  0  0  0  0  0  0  0  0  0
  -31.0001    4.4956   -9.6393 N   0  0  0  0  0  0  0  0  0  0  0  0
  -28.8750    2.4633  -13.3483 O   0  0  0  0  0  0  0  0  0  0  0  0
  -28.2310    3.3463  -12.4224 C   0  0  2  0  0  0  0  0  0  0  0  0
  -33.1348    1.7164   -8.7393 N   0  0  0  0  0  0  0  0  0  0  0  0
  -26.1920    2.2332  -12.9233 O   0  0  0  0  0  0  0  0  0  0  0  0
  -26.8024    3.5084  -12.6634 C   0  0  2  0  0  0  0  0  0  0  0  0
  -31.5363    3.2783   -9.8161 C   0  0  0  0  0  0  0  0  0  0  0  0
  -30.7553    1.1068  -10.7318 N   0  0  0  0  0  0  0  0  0  0  0  0
  -25.8392    5.7434   -9.9775 O   0  0  0  0  0  0  0  0  0  0  0  0
  -26.3976    5.4495  -11.2167 C   0  0  0  0  0  0  0  0  0  0  0  0
  -24.7619    7.8661  -10.6008 O   0  0  0  0  0  0  0  0  0  0  0  0
  -29.7237    4.4473  -10.0661 C   0  0  0  0  0  0  0  0  0  0  0  0
  -33.8709    3.5720   -9.8349 O   0  0  0  0  0  0  0  0  0  0  0  0
  -32.9155    2.8865   -9.4712 C   0  0  0  0  0  0  0  0  0  0  0  0
  -30.5895    2.4626  -10.3672 C   0  0  0  0  0  0  0  0  0  0  0  0
  -27.0877    7.8562   -9.4883 O   0  5  0  0  0  0  0  0  0  0  0  0
  -25.3190    7.3358   -8.1165 O   0  0  0  0  0  0  0  0  0  0  0  0
  1 17  1  0  0  0  0
  1 20  1  0  0  0  0
  2 15  1  6  0  0  0
  2  3  1  0  0  0  0
  2 11  1  0  0  0  0
  3  5  1  0  0  0  0
  4 16  1  6  0  0  0
  4 21  1  0  0  0  0
  4 22  2  0  0  0  0
  4 14  1  0  0  0  0
  5  1  1  1  0  0  0
  5  8  1  0  0  0  0
  6 17  2  0  0  0  0
  6 12  1  0  0  0  0
  8  7  1  6  0  0  0
  8 11  1  0  0  0  0
  9 19  1  0  0  0  0
 11 10  1  1  0  0  0
 12 20  2  0  0  0  0
 12 19  1  0  0  0  0
 13 20  1  0  0  0  0
 14 15  1  0  0  0  0
 18 19  2  0  0  0  0
M  CHG  1  21  -1
M  END
>  <CHROM.1>
37.68657236,67.47682611,-62.93434815,177.58290079,-131.25821795,-28.37994382
4.34356255,-10.50368068,-2.68221534,0.38060608,0.67360109

>  <Name>
ligand

>  <RI>
0

>  <Rbt.Current_Directory>
/home/itssahil/PROJECTS/Mol_Feturizer/Test_systems_manuscript/rnas/4xwf

>  <Rbt.Executable>
rbdock ($Id: //depot/dev/client3/rdock/2013.1/src/exe/rbdock.cxx#4 $)

>  <Rbt.Library>
libRbt.so (2013.1, Build901 2013/11/27)

>  <Rbt.Parameter_File>
/export/apps/rDock/src/rDock_2013.1_src/data/scripts/dock_solv.prm

>  <Rbt.Receptor>
prm/pocket_docking_2.prm

>  <SCORE>
-1.4021

>  <SCORE.INTER>
-0.0882204

>  <SCORE.INTER.CONST>
1

>  <SCORE.INTER.POLAR>
0

>  <SCORE.INTER.ROT>
5

>  <SCORE.INTER.SOLV>
9.97515

>  <SCORE.INTER.VDW>
-10.3172

>  <SCORE.INTER.norm>
-0.00401002

>  <SCORE.INTRA>
-1.31387

>  <SCORE.INTRA.DIHEDRAL>
-1.62445

>  <SCORE.INTRA.DIHEDRAL.0>
3.49807

>  <SCORE.INTRA.POLAR>
0

>  <SCORE.INTRA.POLAR.0>
0

>  <SCORE.INTRA.REPUL>
0

>  <SCORE.INTRA.REPUL.0>
0

>  <SCORE.INTRA.SOLV>
-0.13012

>  <SCORE.INTRA.SOLV.lig_0>
-73.062

>  <SCORE.INTRA.VDW>
-0.436589

>  <SCORE.INTRA.VDW.0>
-1.83782

>  <SCORE.INTRA.norm>
-0.0597216

>  <SCORE.RESTR>
0

>  <SCORE.RESTR.CAVITY>
0

>  <SCORE.RESTR.norm>
0

>  <SCORE.SYSTEM>
0

>  <SCORE.SYSTEM.CONST>
0

>  <SCORE.SYSTEM.DIHEDRAL>
0

>  <SCORE.SYSTEM.SOLV>
0

>  <SCORE.SYSTEM.norm>
0

>  <SCORE.heavy>
22

>  <SCORE.norm>
-0.0637316

>  <RMSD>
1.112

$$$$
ligand
 OpenBabel02271912143D
libRbt.so/2013.1/901 2013/11/27
 22 23  0  0  0  0  0  0  0  0999 V2000
  -29.4405    3.3883  -10.4961 N   0  0  0  0  0  0  0  0  0  0  0  0
  -26.3502    4.5293  -11.2710 C   0  0  1  0  0  0  0  0  0  0  0  0
  -27.2040    3.9048  -10.2706 O   0  0  0  0  0  0  0  0  0  0  0  0
  -26.0929    8.0092   -9.8194 P   0  0  1  0  0  0  0  0  0  0  0  0
  -28.1732    3.0952  -10.9557 C   0  0  2  0  0  0  0  0  0  0  0  0
  -31.1175    4.4794   -9.6546 N   0  0  0  0  0  0  0  0  0  0  0  0
  -28.5879    2.5201  -13.2346 O   0  0  0  0  0  0  0  0  0  0  0  0
  -28.1213    3.5554  -12.3615 C   0  0  2  0  0  0  0  0  0  0  0  0
  -33.9081    3.5886   -9.3214 N   0  0  0  0  0  0  0  0  0  0  0  0
  -25.9244    2.7095  -12.6856 O   0  0  0  0  0  0  0  0  0  0  0  0
  -26.7187    3.9007  -12.5584 C   0  0  2  0  0  0  0  0  0  0  0  0
  -31.5497    3.2621  -10.0180 C   0  0  0  0  0  0  0  0  0  0  0  0
  -30.5365    1.2581  -11.0767 N   0  0  0  0  0  0  0  0  0  0  0  0
  -26.1754    6.4608  -10.0524 O   0  0  0  0  0  0  0  0  0  0  0  0
  -26.6625    5.9862  -11.2653 C   0  0  0  0  0  0  0  0  0  0  0  0
  -27.5817    8.4793  -10.0004 O   0  0  0  0  0  0  0  0  0  0  0  0
  -29.8051    4.5529   -9.9473 C   0  0  0  0  0  0  0  0  0  0  0  0
  -33.2112    1.6055  -10.1974 O   0  0  0  0  0  0  0  0  0  0  0  0
  -32.9262    2.7559   -9.8650 C   0  0  0  0  0  0  0  0  0  0  0  0
  -30.5000    2.5702  -10.5516 C   0  0  0  0  0  0  0  0  0  0  0  0
  -25.5156    8.2841   -8.4707 O   0  5  0  0  0  0  0  0  0  0  0  0
  -25.0815    8.6172  -10.7026 O   0  0  0  0  0  0  0  0  0  0  0  0
  1 17  1  0  0  0  0
  1 20  1  0  0  0  0
  2 15  1  6  0  0  0
  2  3  1  0  0  0  0
  2 11  1  0  0  0  0
  3  5  1  0  0  0  0
  4 16  1  6  0  0  0
  4 21  1  0  0  0  0
  4 22  2  0  0  0  0
  4 14  1  0  0  0  0
  5  1  1  1  0  0  0
  5  8  1  0  0  0  0
  6 17  2  0  0  0  0
  6 12  1  0  0  0  0
  8  7  1  6  0  0  0
  8 11  1  0  0  0  0
  9 19  1  0  0  0  0
 11 10  1  1  0  0  0
 12 20  2  0  0  0  0
 12 19  1  0  0  0  0
 13 20  1  0  0  0  0
 14 15  1  0  0  0  0
 18 19  2  0  0  0  0
M  CHG  1  21  -1
M  END
>  <CHROM.1>
25.27879095,69.35870758,58.80424577,168.71102146,1.26756542,-28.44960423
4.69577025,-10.62979655,-2.53074321,0.37861684,0.53865695

>  <Name>
ligand

>  <RI>
0

>  <Rbt.Current_Directory>
/home/itssahil/PROJECTS/Mol_Feturizer/Test_systems_manuscript/rnas/4xwf

>  <Rbt.Executable>
rbdock ($Id: //depot/dev/client3/rdock/2013.1/src/exe/rbdock.cxx#4 $)

>  <Rbt.Library>
libRbt.so (2013.1, Build901 2013/11/27)

>  <Rbt.Parameter_File>
/export/apps/rDock/src/rDock_2013.1_src/data/scripts/dock_solv.prm

>  <Rbt.Receptor>
prm/pocket_docking_2.prm

>  <SCORE>
-1.62568

>  <SCORE.INTER>
-0.942358

>  <SCORE.INTER.CONST>
1

>  <SCORE.INTER.POLAR>
0

>  <SCORE.INTER.ROT>
5

>  <SCORE.INTER.SOLV>
11.3926

>  <SCORE.INTER.VDW>
-11.3591

>  <SCORE.INTER.norm>
-0.0428345

>  <SCORE.INTRA>
-0.684088

>  <SCORE.INTRA.DIHEDRAL>
-1.07584

>  <SCORE.INTRA.DIHEDRAL.0>
3.49807

>  <SCORE.INTRA.POLAR>
0

>  <SCORE.INTRA.POLAR.0>
0

>  <SCORE.INTRA.REPUL>
0

>  <SCORE.INTRA.REPUL.0>
0

>  <SCORE.INTRA.SOLV>
0.129896

>  <SCORE.INTRA.SOLV.lig_0>
-73.062

>  <SCORE.INTRA.VDW>
-0.211115

>  <SCORE.INTRA.VDW.0>
-1.83782

>  <SCORE.INTRA.norm>
-0.0310949

>  <SCORE.RESTR>
0.000771255

>  <SCORE.RESTR.CAVITY>
0.000771255

>  <SCORE.RESTR.norm>
3.5057e-05

>  <SCORE.SYSTEM>
0

>  <SCORE.SYSTEM.CONST>
0

>  <SCORE.SYSTEM.DIHEDRAL>
0

>  <SCORE.SYSTEM.SOLV>
0

>  <SCORE.SYSTEM.norm>
0

>  <SCORE.heavy>
22

>  <SCORE.norm>
-0.0738943

>  <RMSD>
1.155

$$$$
ligand
 OpenBabel02271912143D
libRbt.so/2013.1/901 2013/11/27
 22 23  0  0  0  0  0  0  0  0999 V2000
  -29.6245    3.8520  -10.1141 N   0  0  0  0  0  0  0  0  0  0  0  0
  -26.6246    5.3223  -10.6537 C   0  0  1  0  0  0  0  0  0  0  0  0
  -27.4948    4.6387   -9.7076 O   0  0  0  0  0  0  0  0  0  0  0  0
  -25.3467    7.6324   -9.1300 P   0  0  1  0  0  0  0  0  0  0  0  0
  -28.2931    3.6945  -10.4394 C   0  0  2  0  0  0  0  0  0  0  0  0
  -31.4792    4.7525   -9.4357 N   0  0  0  0  0  0  0  0  0  0  0  0
  -28.4143    2.9894  -12.7162 O   0  0  0  0  0  0  0  0  0  0  0  0
  -28.1571    4.1047  -11.8551 C   0  0  2  0  0  0  0  0  0  0  0  0
  -34.1957    3.6057   -9.4647 N   0  0  0  0  0  0  0  0  0  0  0  0
  -25.8566    3.5142  -11.9326 O   0  0  0  0  0  0  0  0  0  0  0  0
  -26.7909    4.6065  -11.9376 C   0  0  2  0  0  0  0  0  0  0  0  0
  -31.7503    3.5128   -9.8718 C   0  0  0  0  0  0  0  0  0  0  0  0
  -30.4410    1.6489  -10.8592 N   0  0  0  0  0  0  0  0  0  0  0  0
  -26.8309    7.2931   -9.5050 O   0  0  0  0  0  0  0  0  0  0  0  0
  -27.1009    6.7309  -10.7479 C   0  0  0  0  0  0  0  0  0  0  0  0
  -24.8583    8.4997  -10.3465 O   0  0  0  0  0  0  0  0  0  0  0  0
  -30.1564    4.9584   -9.5817 C   0  0  0  0  0  0  0  0  0  0  0  0
  -33.2102    1.7039  -10.2378 O   0  0  0  0  0  0  0  0  0  0  0  0
  -33.0798    2.8748   -9.8813 C   0  0  0  0  0  0  0  0  0  0  0  0
  -30.5878    2.9405  -10.3034 C   0  0  0  0  0  0  0  0  0  0  0  0
  -25.3092    8.3346   -7.8134 O   0  5  0  0  0  0  0  0  0  0  0  0
  -24.5895    6.4037   -8.8306 O   0  0  0  0  0  0  0  0  0  0  0  0
  1 17  1  0  0  0  0
  1 20  1  0  0  0  0
  2 15  1  6  0  0  0
  2  3  1  0  0  0  0
  2 11  1  0  0  0  0
  3  5  1  0  0  0  0
  4 16  1  6  0  0  0
  4 21  1  0  0  0  0
  4 22  2  0  0  0  0
  4 14  1  0  0  0  0
  5  1  1  1  0  0  0
  5  8  1  0  0  0  0
  6 17  2  0  0  0  0
  6 12  1  0  0  0  0
  8  7  1  6  0  0  0
  8 11  1  0  0  0  0
  9 19  1  0  0  0  0
 11 10  1  1  0  0  0
 12 20  2  0  0  0  0
 12 19  1  0  0  0  0
 13 20  1  0  0  0  0
 14 15  1  0  0  0  0
 18 19  2  0  0  0  0
M  CHG  1  21  -1
M  END
>  <CHROM.1>
20.95258679,67.52636555,52.42272885,73.40191048,3.06645018,-28.34617902,4.92595778
-10.17763274,2.64014725,-0.32631370,-2.45433150

>  <Name>
ligand

>  <RI>
0

>  <Rbt.Current_Directory>
/home/itssahil/PROJECTS/Mol_Feturizer/Test_systems_manuscript/rnas/4xwf

>  <Rbt.Executable>
rbdock ($Id: //depot/dev/client3/rdock/2013.1/src/exe/rbdock.cxx#4 $)

>  <Rbt.Library>
libRbt.so (2013.1, Build901 2013/11/27)

>  <Rbt.Parameter_File>
/export/apps/rDock/src/rDock_2013.1_src/data/scripts/dock_solv.prm

>  <Rbt.Receptor>
prm/pocket_docking_2.prm

>  <SCORE>
-0.919972

>  <SCORE.INTER>
-1.84748

>  <SCORE.INTER.CONST>
1

>  <SCORE.INTER.POLAR>
0

>  <SCORE.INTER.ROT>
5

>  <SCORE.INTER.SOLV>
11.2541

>  <SCORE.INTER.VDW>
-11.9164

>  <SCORE.INTER.norm>
-0.0839765

>  <SCORE.INTRA>
0.920921

>  <SCORE.INTRA.DIHEDRAL>
-0.816216

>  <SCORE.INTRA.DIHEDRAL.0>
3.49807

>  <SCORE.INTRA.POLAR>
0

>  <SCORE.INTRA.POLAR.0>
0

>  <SCORE.INTRA.REPUL>
0

>  <SCORE.INTRA.REPUL.0>
0

>  <SCORE.INTRA.SOLV>
2.41909

>  <SCORE.INTRA.SOLV.lig_0>
-73.062

>  <SCORE.INTRA.VDW>
0.119482

>  <SCORE.INTRA.VDW.0>
-1.83782

>  <SCORE.INTRA.norm>
0.0418601

>  <SCORE.RESTR>
0.00658958

>  <SCORE.RESTR.CAVITY>
0.00658958

>  <SCORE.RESTR.norm>
0.000299526

>  <SCORE.SYSTEM>
0

>  <SCORE.SYSTEM.CONST>
0

>  <SCORE.SYSTEM.DIHEDRAL>
0

>  <SCORE.SYSTEM.SOLV>
0

>  <SCORE.SYSTEM.norm>
0

>  <SCORE.heavy>
22

>  <SCORE.norm>
-0.0418169

>  <RMSD>
1.198

$$$$
ligand
 OpenBabel02271912143D
libRbt.so/2013.1/901 2013/11/27
 22 23  0  0  0  0  0  0  0  0999 V2000
  -29.5288    3.3891  -10.4915 N   0  0  0  0  0  0  0  0  0  0  0  0
  -26.4252    4.4823  -11.2820 C   0  0  1  0  0  0  0  0  0  0  0  0
  -27.2769    3.8445  -10.2882 O   0  0  0  0  0  0  0  0  0  0  0  0
  -26.2783    7.8770   -9.6105 P   0  0  1  0  0  0  0  0  0  0  0  0
  -28.2769    3.0819  -10.9829 C   0  0  2  0  0  0  0  0  0  0  0  0
  -31.1726    4.5000   -9.6111 N   0  0  0  0  0  0  0  0  0  0  0  0
  -28.7438    2.5948  -13.2722 O   0  0  0  0  0  0  0  0  0  0  0  0
  -28.2375    3.5883  -12.3732 C   0  0  2  0  0  0  0  0  0  0  0  0
  -33.9326    3.5953   -9.0992 N   0  0  0  0  0  0  0  0  0  0  0  0
  -26.0676    2.7021  -12.7643 O   0  0  0  0  0  0  0  0  0  0  0  0
  -26.8305    3.9068  -12.5830 C   0  0  2  0  0  0  0  0  0  0  0  0
  -31.6257    3.2854   -9.9574 C   0  0  0  0  0  0  0  0  0  0  0  0
  -30.6599    1.2671  -11.0331 N   0  0  0  0  0  0  0  0  0  0  0  0
  -26.2626    6.3499   -9.9660 O   0  0  0  0  0  0  0  0  0  0  0  0
  -26.7018    5.9451  -11.2218 C   0  0  0  0  0  0  0  0  0  0  0  0
  -25.8990    7.8944   -8.0852 O   0  0  0  0  0  0  0  0  0  0  0  0
  -29.8677    4.5596   -9.9386 C   0  0  0  0  0  0  0  0  0  0  0  0
  -33.3320    1.6795  -10.1738 O   0  0  0  0  0  0  0  0  0  0  0  0
  -33.0025    2.7930   -9.7657 C   0  0  0  0  0  0  0  0  0  0  0  0
  -30.5971    2.5810  -10.5152 C   0  0  0  0  0  0  0  0  0  0  0  0
  -25.3241    8.6085  -10.4950 O   0  5  0  0  0  0  0  0  0  0  0  0
  -27.5635    8.4892   -9.9929 O   0  0  0  0  0  0  0  0  0  0  0  0
  1 17  1  0  0  0  0
  1 20  1  0  0  0  0
  2 15  1  6  0  0  0
  2  3  1  0  0  0  0
  2 11  1  0  0  0  0
  3  5  1  0  0  0  0
  4 16  1  1  0  0  0
  4 21  1  0  0  0  0
  4 22  2  0  0  0  0
  4 14  1  0  0  0  0
  5  1  1  1  0  0  0
  5  8  1  0  0  0  0
  6 17  2  0  0  0  0
  6 12  1  0  0  0  0
  8  7  1  6  0  0  0
  8 11  1  0  0  0  0
  9 19  1  0  0  0  0
 11 10  1  1  0  0  0
 12 20  2  0  0  0  0
 12 19  1  0  0  0  0
 13 20  1  0  0  0  0
 14 15  1  0  0  0  0
 18 19  2  0  0  0  0
M  CHG  1  21  -1
M  END
>  <CHROM.1>
27.68384849,65.55126162,172.97704662,174.25619447,-4.07124815,-28.56634604
4.66481965,-10.56235347,-2.54793296,0.39304806,0.58711806

>  <Name>
ligand

>  <RI>
0

>  <Rbt.Current_Directory>
/home/itssahil/PROJECTS/Mol_Feturizer/Test_systems_manuscript/rnas/4xwf

>  <Rbt.Executable>
rbdock ($Id: //depot/dev/client3/rdock/2013.1/src/exe/rbdock.cxx#4 $)

>  <Rbt.Library>
libRbt.so (2013.1, Build901 2013/11/27)

>  <Rbt.Parameter_File>
/export/apps/rDock/src/rDock_2013.1_src/data/scripts/dock_solv.prm

>  <Rbt.Receptor>
prm/pocket_docking_2.prm

>  <SCORE>
-1.38703

>  <SCORE.INTER>
-0.694249

>  <SCORE.INTER.CONST>
1

>  <SCORE.INTER.POLAR>
0

>  <SCORE.INTER.ROT>
5

>  <SCORE.INTER.SOLV>
11.8606

>  <SCORE.INTER.VDW>
-11.3497

>  <SCORE.INTER.norm>
-0.0315568

>  <SCORE.INTRA>
-0.692782

>  <SCORE.INTRA.DIHEDRAL>
-1.61686

>  <SCORE.INTRA.DIHEDRAL.0>
3.49807

>  <SCORE.INTRA.POLAR>
0

>  <SCORE.INTRA.POLAR.0>
0

>  <SCORE.INTRA.REPUL>
0

>  <SCORE.INTRA.REPUL.0>
0

>  <SCORE.INTRA.SOLV>
0.716124

>  <SCORE.INTRA.SOLV.lig_0>
-73.062

>  <SCORE.INTRA.VDW>
-0.242415

>  <SCORE.INTRA.VDW.0>
-1.83782

>  <SCORE.INTRA.norm>
-0.0314901

>  <SCORE.RESTR>
0

>  <SCORE.RESTR.CAVITY>
0

>  <SCORE.RESTR.norm>
0

>  <SCORE.SYSTEM>
0

>  <SCORE.SYSTEM.CONST>
0

>  <SCORE.SYSTEM.DIHEDRAL>
0

>  <SCORE.SYSTEM.SOLV>
0

>  <SCORE.SYSTEM.norm>
0

>  <SCORE.heavy>
22

>  <SCORE.norm>
-0.0630468

>  <RMSD>
1.212

$$$$
ligand
 OpenBabel02271912143D
libRbt.so/2013.1/901 2013/11/27
 22 23  0  0  0  0  0  0  0  0999 V2000
  -29.5063    3.3474  -10.4246 N   0  0  0  0  0  0  0  0  0  0  0  0
  -26.3819    4.4366  -11.1347 C   0  0  1  0  0  0  0  0  0  0  0  0
  -27.2680    3.8316  -10.1504 O   0  0  0  0  0  0  0  0  0  0  0  0
  -26.2939    7.8996   -9.6096 P   0  0  1  0  0  0  0  0  0  0  0  0
  -28.2333    3.0322  -10.8529 C   0  0  2  0  0  0  0  0  0  0  0  0
  -31.1912    4.4760   -9.6510 N   0  0  0  0  0  0  0  0  0  0  0  0
  -28.6039    2.4485  -13.1371 O   0  0  0  0  0  0  0  0  0  0  0  0
  -28.1419    3.4823  -12.2599 C   0  0  2  0  0  0  0  0  0  0  0  0
  -33.9864    3.6031   -9.3099 N   0  0  0  0  0  0  0  0  0  0  0  0
  -25.9512    2.6012  -12.5277 O   0  0  0  0  0  0  0  0  0  0  0  0
  -26.7301    3.8051  -12.4263 C   0  0  2  0  0  0  0  0  0  0  0  0
  -31.6233    3.2478   -9.9758 C   0  0  0  0  0  0  0  0  0  0  0  0
  -30.6030    1.2016  -10.9431 N   0  0  0  0  0  0  0  0  0  0  0  0
  -26.2898    6.3568   -9.8894 O   0  0  0  0  0  0  0  0  0  0  0  0
  -26.6720    5.8980  -11.1453 C   0  0  0  0  0  0  0  0  0  0  0  0
  -25.8867    7.9906   -8.0942 O   0  0  0  0  0  0  0  0  0  0  0  0
  -29.8740    4.5331   -9.9252 C   0  0  0  0  0  0  0  0  0  0  0  0
  -33.2933    1.5979  -10.1370 O   0  0  0  0  0  0  0  0  0  0  0  0
  -33.0044    2.7533   -9.8260 C   0  0  0  0  0  0  0  0  0  0  0  0
  -30.5686    2.5322  -10.4666 C   0  0  0  0  0  0  0  0  0  0  0  0
  -25.3537    8.5826  -10.5463 O   0  5  0  0  0  0  0  0  0  0  0  0
  -27.5838    8.4976   -9.9984 O   0  0  0  0  0  0  0  0  0  0  0  0
  1 17  1  0  0  0  0
  1 20  1  0  0  0  0
  2 15  1  6  0  0  0
  2  3  1  0  0  0  0
  2 11  1  0  0  0  0
  3  5  1  0  0  0  0
  4 16  1  1  0  0  0
  4 21  1  0  0  0  0
  4 22  2  0  0  0  0
  4 14  1  0  0  0  0
  5  1  1  1  0  0  0
  5  8  1  0  0  0  0
  6 17  2  0  0  0  0
  6 12  1  0  0  0  0
  8  7  1  6  0  0  0
  8 11  1  0  0  0  0
  9 19  1  0  0  0  0
 11 10  1  1  0  0  0
 12 20  2  0  0  0  0
 12 19  1  0  0  0  0
 13 20  1  0  0  0  0
 14 15  1  0  0  0  0
 18 19  2  0  0  0  0
M  CHG  1  21  -1
M  END
>  <CHROM.1>
27.19095838,65.41250584,177.06520600,172.56349562,0.28094410,-28.54259390
4.62967924,-10.51487837,-2.51875064,0.36044506,0.53311267

>  <Name>
ligand

>  <RI>
0

>  <Rbt.Current_Directory>
/home/itssahil/PROJECTS/Mol_Feturizer/Test_systems_manuscript/rnas/4xwf

>  <Rbt.Executable>
rbdock ($Id: //depot/dev/client3/rdock/2013.1/src/exe/rbdock.cxx#4 $)

>  <Rbt.Library>
libRbt.so (2013.1, Build901 2013/11/27)

>  <Rbt.Parameter_File>
/export/apps/rDock/src/rDock_2013.1_src/data/scripts/dock_solv.prm

>  <Rbt.Receptor>
prm/pocket_docking_2.prm

>  <SCORE>
-1.48485

>  <SCORE.INTER>
-0.799501

>  <SCORE.INTER.CONST>
1

>  <SCORE.INTER.POLAR>
0

>  <SCORE.INTER.ROT>
5

>  <SCORE.INTER.SOLV>
11.7941

>  <SCORE.INTER.VDW>
-11.3977

>  <SCORE.INTER.norm>
-0.0363409

>  <SCORE.INTRA>
-0.68676

>  <SCORE.INTRA.DIHEDRAL>
-1.60899

>  <SCORE.INTRA.DIHEDRAL.0>
3.49807

>  <SCORE.INTRA.POLAR>
0

>  <SCORE.INTRA.POLAR.0>
0

>  <SCORE.INTRA.REPUL>
0

>  <SCORE.INTRA.REPUL.0>
0

>  <SCORE.INTRA.SOLV>
0.736645

>  <SCORE.INTRA.SOLV.lig_0>
-73.062

>  <SCORE.INTRA.VDW>
-0.250588

>  <SCORE.INTRA.VDW.0>
-1.83782

>  <SCORE.INTRA.norm>
-0.0312164

>  <SCORE.RESTR>
0.00140724

>  <SCORE.RESTR.CAVITY>
0.00140724

>  <SCORE.RESTR.norm>
6.39654e-05

>  <SCORE.SYSTEM>
0

>  <SCORE.SYSTEM.CONST>
0

>  <SCORE.SYSTEM.DIHEDRAL>
0

>  <SCORE.SYSTEM.SOLV>
0

>  <SCORE.SYSTEM.norm>
0

>  <SCORE.heavy>
22

>  <SCORE.norm>
-0.0674934

>  <RMSD>
1.216

$$$$
ligand
 OpenBabel02271912143D
libRbt.so/2013.1/901 2013/11/27
 22 23  0  0  0  0  0  0  0  0999 V2000
  -29.6512    3.7713  -10.0518 N   0  0  0  0  0  0  0  0  0  0  0  0
  -26.4485    4.8421   -9.8313 C   0  0  1  0  0  0  0  0  0  0  0  0
  -27.4702    3.9393   -9.3205 O   0  0  0  0  0  0  0  0  0  0  0  0
  -25.6040    8.4787   -9.1847 P   0  0  1  0  0  0  0  0  0  0  0  0
  -28.3331    3.5809  -10.4119 C   0  0  2  0  0  0  0  0  0  0  0  0
  -31.4796    4.7357   -9.3900 N   0  0  0  0  0  0  0  0  0  0  0  0
  -28.3814    4.0468  -12.7521 O   0  0  0  0  0  0  0  0  0  0  0  0
  -28.0395    4.5774  -11.4663 C   0  0  2  0  0  0  0  0  0  0  0  0
  -33.1989    1.5289   -9.0919 N   0  0  0  0  0  0  0  0  0  0  0  0
  -25.8406    3.7451  -11.8116 O   0  0  0  0  0  0  0  0  0  0  0  0
  -26.6156    4.8428  -11.3011 C   0  0  2  0  0  0  0  0  0  0  0  0
  -31.7657    3.4612   -9.6971 C   0  0  0  0  0  0  0  0  0  0  0  0
  -30.4929    1.5099  -10.5550 N   0  0  0  0  0  0  0  0  0  0  0  0
  -25.6649    6.9881   -9.6675 O   0  0  0  0  0  0  0  0  0  0  0  0
  -26.7217    6.1865   -9.2499 C   0  0  0  0  0  0  0  0  0  0  0  0
  -24.3234    9.0372   -9.9050 O   0  0  0  0  0  0  0  0  0  0  0  0
  -30.1637    4.9240   -9.6055 C   0  0  0  0  0  0  0  0  0  0  0  0
  -34.1034    3.4282   -9.9636 O   0  0  0  0  0  0  0  0  0  0  0  0
  -33.0937    2.8282   -9.5956 C   0  0  0  0  0  0  0  0  0  0  0  0
  -30.6199    2.8482  -10.1176 C   0  0  0  0  0  0  0  0  0  0  0  0
  -26.8729    9.1763   -9.5468 O   0  5  0  0  0  0  0  0  0  0  0  0
  -25.6363    8.5529   -7.7130 O   0  0  0  0  0  0  0  0  0  0  0  0
  1 17  1  0  0  0  0
  1 20  1  0  0  0  0
  2 15  1  1  0  0  0
  2  3  1  0  0  0  0
  2 11  1  0  0  0  0
  3  5  1  0  0  0  0
  4 16  1  6  0  0  0
  4 21  1  0  0  0  0
  4 22  2  0  0  0  0
  4 14  1  0  0  0  0
  5  1  1  1  0  0  0
  5  8  1  0  0  0  0
  6 17  2  0  0  0  0
  6 12  1  0  0  0  0
  8  7  1  6  0  0  0
  8 11  1  0  0  0  0
  9 19  1  0  0  0  0
 11 10  1  6  0  0  0
 12 20  2  0  0  0  0
 12 19  1  0  0  0  0
 13 20  1  0  0  0  0
 14 15  1  0  0  0  0
 18 19  2  0  0  0  0
M  CHG  1  21  -1
M  END
>  <CHROM.1>
55.81451773,175.06276433,-177.92393793,-177.73204599,-138.51341933,-28.38476020
5.14945397,-9.96876104,-2.53896801,0.32440787,0.53041143

>  <Name>
ligand

>  <RI>
0

>  <Rbt.Current_Directory>
/home/itssahil/PROJECTS/Mol_Feturizer/Test_systems_manuscript/rnas/4xwf

>  <Rbt.Executable>
rbdock ($Id: //depot/dev/client3/rdock/2013.1/src/exe/rbdock.cxx#4 $)

>  <Rbt.Library>
libRbt.so (2013.1, Build901 2013/11/27)

>  <Rbt.Parameter_File>
/export/apps/rDock/src/rDock_2013.1_src/data/scripts/dock_solv.prm

>  <Rbt.Receptor>
prm/pocket_docking_2.prm

>  <SCORE>
-1.34633

>  <SCORE.INTER>
-0.701809

>  <SCORE.INTER.CONST>
1

>  <SCORE.INTER.POLAR>
0

>  <SCORE.INTER.ROT>
5

>  <SCORE.INTER.SOLV>
9.18905

>  <SCORE.INTER.VDW>
-10.4642

>  <SCORE.INTER.norm>
-0.0319004

>  <SCORE.INTRA>
-0.644517

>  <SCORE.INTRA.DIHEDRAL>
-1.54135

>  <SCORE.INTRA.DIHEDRAL.0>
3.49807

>  <SCORE.INTRA.POLAR>
0

>  <SCORE.INTRA.POLAR.0>
0

>  <SCORE.INTRA.REPUL>
0

>  <SCORE.INTRA.REPUL.0>
0

>  <SCORE.INTRA.SOLV>
0.0989019

>  <SCORE.INTRA.SOLV.lig_0>
-73.062

>  <SCORE.INTRA.VDW>
0.076707

>  <SCORE.INTRA.VDW.0>
-1.83782

>  <SCORE.INTRA.norm>
-0.0292962

>  <SCORE.RESTR>
0

>  <SCORE.RESTR.CAVITY>
0

>  <SCORE.RESTR.norm>
0

>  <SCORE.SYSTEM>
0

>  <SCORE.SYSTEM.CONST>
0

>  <SCORE.SYSTEM.DIHEDRAL>
0

>  <SCORE.SYSTEM.SOLV>
0

>  <SCORE.SYSTEM.norm>
0

>  <SCORE.heavy>
22

>  <SCORE.norm>
-0.0611966

>  <RMSD>
1.221

$$$$
ligand
 OpenBabel02271912143D
libRbt.so/2013.1/901 2013/11/27
 22 23  0  0  0  0  0  0  0  0999 V2000
  -29.6392    3.6093  -10.1404 N   0  0  0  0  0  0  0  0  0  0  0  0
  -26.4714    4.7986  -10.1971 C   0  0  1  0  0  0  0  0  0  0  0  0
  -27.4584    3.9917   -9.4939 O   0  0  0  0  0  0  0  0  0  0  0  0
  -25.7233    8.5119  -10.3015 P   0  0  1  0  0  0  0  0  0  0  0  0
  -28.3188    3.3879  -10.4734 C   0  0  2  0  0  0  0  0  0  0  0  0
  -31.4433    4.5962   -9.4460 N   0  0  0  0  0  0  0  0  0  0  0  0
  -28.4031    3.3542  -12.8582 O   0  0  0  0  0  0  0  0  0  0  0  0
  -28.0673    4.1511  -11.7164 C   0  0  2  0  0  0  0  0  0  0  0  0
  -34.2176    3.5962   -9.4971 N   0  0  0  0  0  0  0  0  0  0  0  0
  -25.8455    3.3318  -11.9150 O   0  0  0  0  0  0  0  0  0  0  0  0
  -26.6515    4.4879  -11.6321 C   0  0  2  0  0  0  0  0  0  0  0  0
  -31.7782    3.3751   -9.8902 C   0  0  0  0  0  0  0  0  0  0  0  0
  -30.5684    1.4557  -10.8982 N   0  0  0  0  0  0  0  0  0  0  0  0
  -25.7246    6.9501  -10.4409 O   0  0  0  0  0  0  0  0  0  0  0  0
  -26.7832    6.2258   -9.9038 C   0  0  0  0  0  0  0  0  0  0  0  0
  -27.0501    8.9383  -11.0284 O   0  0  0  0  0  0  0  0  0  0  0  0
  -30.1125    4.7368   -9.5970 C   0  0  0  0  0  0  0  0  0  0  0  0
  -33.3256    1.6370  -10.2396 O   0  0  0  0  0  0  0  0  0  0  0  0
  -33.1380    2.8046   -9.8981 C   0  0  0  0  0  0  0  0  0  0  0  0
  -30.6478    2.7486  -10.3319 C   0  0  0  0  0  0  0  0  0  0  0  0
  -25.6590    8.8873   -8.8582 O   0  5  0  0  0  0  0  0  0  0  0  0
  -24.4625    9.0808  -10.8107 O   0  0  0  0  0  0  0  0  0  0  0  0
  1 17  1  0  0  0  0
  1 20  1  0  0  0  0
  2 15  1  6  0  0  0
  2  3  1  0  0  0  0
  2 11  1  0  0  0  0
  3  5  1  0  0  0  0
  4 16  1  6  0  0  0
  4 21  1  0  0  0  0
  4 22  2  0  0  0  0
  4 14  1  0  0  0  0
  5  1  1  1  0  0  0
  5  8  1  0  0  0  0
  6 17  2  0  0  0  0
  6 12  1  0  0  0  0
  8  7  1  6  0  0  0
  8 11  1  0  0  0  0
  9 19  1  0  0  0  0
 11 10  1  1  0  0  0
 12 20  2  0  0  0  0
 12 19  1  0  0  0  0
 13 20  1  0  0  0  0
 14 15  1  0  0  0  0
 18 19  2  0  0  0  0
M  CHG  1  21  -1
M  END
>  <CHROM.1>
37.21179228,172.34815783,-59.39607922,-179.57708810,4.39923279,-28.42949988
5.03904627,-10.44653641,-2.51650340,0.30746219,0.35823546

>  <Name>
ligand

>  <RI>
0

>  <Rbt.Current_Directory>
/home/itssahil/PROJECTS/Mol_Feturizer/Test_systems_manuscript/rnas/4xwf

>  <Rbt.Executable>
rbdock ($Id: //depot/dev/client3/rdock/2013.1/src/exe/rbdock.cxx#4 $)

>  <Rbt.Library>
libRbt.so (2013.1, Build901 2013/11/27)

>  <Rbt.Parameter_File>
/export/apps/rDock/src/rDock_2013.1_src/data/scripts/dock_solv.prm

>  <Rbt.Receptor>
prm/pocket_docking_2.prm

>  <SCORE>
-2.45578

>  <SCORE.INTER>
-1.36898

>  <SCORE.INTER.CONST>
1

>  <SCORE.INTER.POLAR>
0

>  <SCORE.INTER.ROT>
5

>  <SCORE.INTER.SOLV>
11.8165

>  <SCORE.INTER.VDW>
-11.7848

>  <SCORE.INTER.norm>
-0.0622263

>  <SCORE.INTRA>
-1.0868

>  <SCORE.INTRA.DIHEDRAL>
-1.79625

>  <SCORE.INTRA.DIHEDRAL.0>
3.49807

>  <SCORE.INTRA.POLAR>
0

>  <SCORE.INTRA.POLAR.0>
0

>  <SCORE.INTRA.REPUL>
0

>  <SCORE.INTRA.REPUL.0>
0

>  <SCORE.INTRA.SOLV>
-0.214797

>  <SCORE.INTRA.SOLV.lig_0>
-73.062

>  <SCORE.INTRA.VDW>
-0.0812796

>  <SCORE.INTRA.VDW.0>
-1.83782

>  <SCORE.INTRA.norm>
-0.0494001

>  <SCORE.RESTR>
0

>  <SCORE.RESTR.CAVITY>
0

>  <SCORE.RESTR.norm>
0

>  <SCORE.SYSTEM>
0

>  <SCORE.SYSTEM.CONST>
0

>  <SCORE.SYSTEM.DIHEDRAL>
0

>  <SCORE.SYSTEM.SOLV>
0

>  <SCORE.SYSTEM.norm>
0

>  <SCORE.heavy>
22

>  <SCORE.norm>
-0.111626

>  <RMSD>
1.246

$$$$
ligand
 OpenBabel02271912143D
libRbt.so/2013.1/901 2013/11/27
 22 23  0  0  0  0  0  0  0  0999 V2000
  -29.7075    3.6632  -10.1030 N   0  0  0  0  0  0  0  0  0  0  0  0
  -26.5087    4.7406   -9.8596 C   0  0  1  0  0  0  0  0  0  0  0  0
  -27.5476    3.8739   -9.3217 O   0  0  0  0  0  0  0  0  0  0  0  0
  -25.6912    8.4188   -9.4573 P   0  0  1  0  0  0  0  0  0  0  0  0
  -28.3804    3.4480  -10.4124 C   0  0  2  0  0  0  0  0  0  0  0  0
  -31.5309    4.6462   -9.4552 N   0  0  0  0  0  0  0  0  0  0  0  0
  -28.3604    3.7637  -12.7779 O   0  0  0  0  0  0  0  0  0  0  0  0
  -28.0533    4.3746  -11.5193 C   0  0  2  0  0  0  0  0  0  0  0  0
  -34.2842    3.5922   -9.4488 N   0  0  0  0  0  0  0  0  0  0  0  0
  -25.8484    3.5184  -11.7477 O   0  0  0  0  0  0  0  0  0  0  0  0
  -26.6339    4.6477  -11.3307 C   0  0  2  0  0  0  0  0  0  0  0  0
  -31.8476    3.4130   -9.8789 C   0  0  0  0  0  0  0  0  0  0  0  0
  -30.6050    1.4855  -10.8298 N   0  0  0  0  0  0  0  0  0  0  0  0
  -25.7174    6.8892   -9.8015 O   0  0  0  0  0  0  0  0  0  0  0  0
  -26.7936    6.1198   -9.3731 C   0  0  0  0  0  0  0  0  0  0  0  0
  -26.9892    8.9659  -10.1547 O   0  0  0  0  0  0  0  0  0  0  0  0
  -30.1995    4.7968   -9.5898 C   0  0  0  0  0  0  0  0  0  0  0  0
  -33.3816    1.6747  -10.2820 O   0  0  0  0  0  0  0  0  0  0  0  0
  -33.2017    2.8291   -9.8947 C   0  0  0  0  0  0  0  0  0  0  0  0
  -30.7049    2.7889  -10.2914 C   0  0  0  0  0  0  0  0  0  0  0  0
  -25.6599    8.5999   -7.9761 O   0  5  0  0  0  0  0  0  0  0  0  0
  -24.4064    9.0218   -9.8554 O   0  0  0  0  0  0  0  0  0  0  0  0
  1 17  1  0  0  0  0
  1 20  1  0  0  0  0
  2 15  1  1  0  0  0
  2  3  1  0  0  0  0
  2 11  1  0  0  0  0
  3  5  1  0  0  0  0
  4 16  1  6  0  0  0
  4 21  1  0  0  0  0
  4 22  2  0  0  0  0
  4 14  1  0  0  0  0
  5  1  1  1  0  0  0
  5  8  1  0  0  0  0
  6 17  2  0  0  0  0
  6 12  1  0  0  0  0
  8  7  1  6  0  0  0
  8 11  1  0  0  0  0
  9 19  1  0  0  0  0
 11 10  1  1  0  0  0
 12 20  2  0  0  0  0
 12 19  1  0  0  0  0
 13 20  1  0  0  0  0
 14 15  1  0  0  0  0
 18 19  2  0  0  0  0
M  CHG  1  21  -1
M  END
>  <CHROM.1>
47.17513686,174.60672559,-60.39495928,179.94760709,0.55045169,-28.44983647
5.05908838,-10.11934307,-2.52403434,0.27945321,0.47950104

>  <Name>
ligand

>  <RI>
0

>  <Rbt.Current_Directory>
/home/itssahil/PROJECTS/Mol_Feturizer/Test_systems_manuscript/rnas/4xwf

>  <Rbt.Executable>
rbdock ($Id: //depot/dev/client3/rdock/2013.1/src/exe/rbdock.cxx#4 $)

>  <Rbt.Library>
libRbt.so (2013.1, Build901 2013/11/27)

>  <Rbt.Parameter_File>
/export/apps/rDock/src/rDock_2013.1_src/data/scripts/dock_solv.prm

>  <Rbt.Receptor>
prm/pocket_docking_2.prm

>  <SCORE>
-2.31447

>  <SCORE.INTER>
-1.1579

>  <SCORE.INTER.CONST>
1

>  <SCORE.INTER.POLAR>
0

>  <SCORE.INTER.ROT>
5

>  <SCORE.INTER.SOLV>
11.956

>  <SCORE.INTER.VDW>
-11.6906

>  <SCORE.INTER.norm>
-0.0526318

>  <SCORE.INTRA>
-1.15657

>  <SCORE.INTRA.DIHEDRAL>
-1.90534

>  <SCORE.INTRA.DIHEDRAL.0>
3.49807

>  <SCORE.INTRA.POLAR>
0

>  <SCORE.INTRA.POLAR.0>
0

>  <SCORE.INTRA.REPUL>
0

>  <SCORE.INTRA.REPUL.0>
0

>  <SCORE.INTRA.SOLV>
-0.504453

>  <SCORE.INTRA.SOLV.lig_0>
-73.062

>  <SCORE.INTRA.VDW>
0.0483276

>  <SCORE.INTRA.VDW.0>
-1.83782

>  <SCORE.INTRA.norm>
-0.0525714

>  <SCORE.RESTR>
0

>  <SCORE.RESTR.CAVITY>
0

>  <SCORE.RESTR.norm>
0

>  <SCORE.SYSTEM>
0

>  <SCORE.SYSTEM.CONST>
0

>  <SCORE.SYSTEM.DIHEDRAL>
0

>  <SCORE.SYSTEM.SOLV>
0

>  <SCORE.SYSTEM.norm>
0

>  <SCORE.heavy>
22

>  <SCORE.norm>
-0.105203

>  <RMSD>
1.248

$$$$
ligand
 OpenBabel02271912143D
libRbt.so/2013.1/901 2013/11/27
 22 23  0  0  0  0  0  0  0  0999 V2000
  -29.6611    3.7294  -10.1178 N   0  0  0  0  0  0  0  0  0  0  0  0
  -26.4666    4.8061   -9.8205 C   0  0  1  0  0  0  0  0  0  0  0  0
  -27.4982    3.9005   -9.3352 O   0  0  0  0  0  0  0  0  0  0  0  0
  -25.6698    8.4566   -9.1896 P   0  0  1  0  0  0  0  0  0  0  0  0
  -28.3346    3.5421  -10.4472 C   0  0  2  0  0  0  0  0  0  0  0  0
  -31.4972    4.6775   -9.4539 N   0  0  0  0  0  0  0  0  0  0  0  0
  -28.3288    4.0117  -12.7871 O   0  0  0  0  0  0  0  0  0  0  0  0
  -28.0182    4.5408  -11.4928 C   0  0  2  0  0  0  0  0  0  0  0  0
  -34.2411    3.5922   -9.5052 N   0  0  0  0  0  0  0  0  0  0  0  0
  -25.8101    3.7134  -11.7876 O   0  0  0  0  0  0  0  0  0  0  0  0
  -26.5991    4.8088  -11.2938 C   0  0  2  0  0  0  0  0  0  0  0  0
  -31.7900    3.4298   -9.8516 C   0  0  0  0  0  0  0  0  0  0  0  0
  -30.5159    1.5181  -10.7926 N   0  0  0  0  0  0  0  0  0  0  0  0
  -25.6891    6.9522   -9.6313 O   0  0  0  0  0  0  0  0  0  0  0  0
  -26.7560    6.1490   -9.2435 C   0  0  0  0  0  0  0  0  0  0  0  0
  -26.9538    9.0488   -9.8759 O   0  0  0  0  0  0  0  0  0  0  0  0
  -30.1725    4.8589   -9.6147 C   0  0  0  0  0  0  0  0  0  0  0  0
  -33.2709    1.6167  -10.0900 O   0  0  0  0  0  0  0  0  0  0  0  0
  -33.1290    2.8122   -9.8336 C   0  0  0  0  0  0  0  0  0  0  0  0
  -30.6393    2.8275  -10.2740 C   0  0  0  0  0  0  0  0  0  0  0  0
  -25.6677    8.5426   -7.6994 O   0  5  0  0  0  0  0  0  0  0  0  0
  -24.3775    9.0823   -9.5228 O   0  0  0  0  0  0  0  0  0  0  0  0
  1 17  1  0  0  0  0
  1 20  1  0  0  0  0
  2 15  1  1  0  0  0
  2  3  1  0  0  0  0
  2 11  1  0  0  0  0
  3  5  1  0  0  0  0
  4 16  1  6  0  0  0
  4 21  1  0  0  0  0
  4 22  2  0  0  0  0
  4 14  1  0  0  0  0
  5  1  1  1  0  0  0
  5  8  1  0  0  0  0
  6 17  2  0  0  0  0
  6 12  1  0  0  0  0
  8  7  1  6  0  0  0
  8 11  1  0  0  0  0
  9 19  1  0  0  0  0
 11 10  1  6  0  0  0
 12 20  2  0  0  0  0
 12 19  1  0  0  0  0
 13 20  1  0  0  0  0
 14 15  1  0  0  0  0
 18 19  2  0  0  0  0
M  CHG  1  21  -1
M  END
>  <CHROM.1>
52.06197362,174.87250414,-62.11859140,179.94672895,6.71098317,-28.40752693
5.11959876,-10.02665639,-2.52054878,0.29401474,0.52992035

>  <Name>
ligand

>  <RI>
0

>  <Rbt.Current_Directory>
/home/itssahil/PROJECTS/Mol_Feturizer/Test_systems_manuscript/rnas/4xwf

>  <Rbt.Executable>
rbdock ($Id: //depot/dev/client3/rdock/2013.1/src/exe/rbdock.cxx#4 $)

>  <Rbt.Library>
libRbt.so (2013.1, Build901 2013/11/27)

>  <Rbt.Parameter_File>
/export/apps/rDock/src/rDock_2013.1_src/data/scripts/dock_solv.prm

>  <Rbt.Receptor>
prm/pocket_docking_2.prm

>  <SCORE>
-2.30249

>  <SCORE.INTER>
-1.18574

>  <SCORE.INTER.CONST>
1

>  <SCORE.INTER.POLAR>
0

>  <SCORE.INTER.ROT>
5

>  <SCORE.INTER.SOLV>
11.4474

>  <SCORE.INTER.VDW>
-11.5396

>  <SCORE.INTER.norm>
-0.0538973

>  <SCORE.INTRA>
-1.11675

>  <SCORE.INTRA.DIHEDRAL>
-1.83526

>  <SCORE.INTRA.DIHEDRAL.0>
3.49807

>  <SCORE.INTRA.POLAR>
0

>  <SCORE.INTRA.POLAR.0>
0

>  <SCORE.INTRA.REPUL>
0

>  <SCORE.INTRA.REPUL.0>
0

>  <SCORE.INTRA.SOLV>
-0.63602

>  <SCORE.INTRA.SOLV.lig_0>
-73.062

>  <SCORE.INTRA.VDW>
0.118892

>  <SCORE.INTRA.VDW.0>
-1.83782

>  <SCORE.INTRA.norm>
-0.0507613

>  <SCORE.RESTR>
0

>  <SCORE.RESTR.CAVITY>
0

>  <SCORE.RESTR.norm>
0

>  <SCORE.SYSTEM>
0

>  <SCORE.SYSTEM.CONST>
0

>  <SCORE.SYSTEM.DIHEDRAL>
0

>  <SCORE.SYSTEM.SOLV>
0

>  <SCORE.SYSTEM.norm>
0

>  <SCORE.heavy>
22

>  <SCORE.norm>
-0.104659

>  <RMSD>
1.267

$$$$
ligand
 OpenBabel02271912143D
libRbt.so/2013.1/901 2013/11/27
 22 23  0  0  0  0  0  0  0  0999 V2000
  -29.7324    3.6404  -10.1065 N   0  0  0  0  0  0  0  0  0  0  0  0
  -26.5504    4.7882  -10.0066 C   0  0  1  0  0  0  0  0  0  0  0  0
  -27.5653    3.9524   -9.3812 O   0  0  0  0  0  0  0  0  0  0  0  0
  -25.8117    8.5044   -9.9572 P   0  0  1  0  0  0  0  0  0  0  0  0
  -28.4064    3.4225  -10.4186 C   0  0  2  0  0  0  0  0  0  0  0  0
  -31.5544    4.6306   -9.4651 N   0  0  0  0  0  0  0  0  0  0  0  0
  -28.4276    3.5390  -12.8022 O   0  0  0  0  0  0  0  0  0  0  0  0
  -28.1129    4.2584  -11.6043 C   0  0  2  0  0  0  0  0  0  0  0  0
  -34.3073    3.5759   -9.4388 N   0  0  0  0  0  0  0  0  0  0  0  0
  -25.8964    3.4233  -11.7965 O   0  0  0  0  0  0  0  0  0  0  0  0
  -26.6960    4.5703  -11.4625 C   0  0  2  0  0  0  0  0  0  0  0  0
  -31.8712    3.3908   -9.8692 C   0  0  0  0  0  0  0  0  0  0  0  0
  -30.6301    1.4511  -10.7969 N   0  0  0  0  0  0  0  0  0  0  0  0
  -25.8236    6.9530  -10.1842 O   0  0  0  0  0  0  0  0  0  0  0  0
  -26.8531    6.1984   -9.6325 C   0  0  0  0  0  0  0  0  0  0  0  0
  -25.6719    8.6379   -8.3973 O   0  0  0  0  0  0  0  0  0  0  0  0
  -30.2237    4.7809   -9.6080 C   0  0  0  0  0  0  0  0  0  0  0  0
  -33.4035    1.6423  -10.2325 O   0  0  0  0  0  0  0  0  0  0  0  0
  -33.2245    2.8049   -9.8702 C   0  0  0  0  0  0  0  0  0  0  0  0
  -30.7295    2.7621  -10.2774 C   0  0  0  0  0  0  0  0  0  0  0  0
  -24.6945    9.1174  -10.7344 O   0  5  0  0  0  0  0  0  0  0  0  0
  -26.9877    9.1333  -10.5851 O   0  0  0  0  0  0  0  0  0  0  0  0
  1 17  1  0  0  0  0
  1 20  1  0  0  0  0
  2 15  1  6  0  0  0
  2  3  1  0  0  0  0
  2 11  1  0  0  0  0
  3  5  1  0  0  0  0
  4 16  1  1  0  0  0
  4 21  1  0  0  0  0
  4 22  2  0  0  0  0
  4 14  1  0  0  0  0
  5  1  1  1  0  0  0
  5  8  1  0  0  0  0
  6 17  2  0  0  0  0
  6 12  1  0  0  0  0
  8  7  1  6  0  0  0
  8 11  1  0  0  0  0
  9 19  1  0  0  0  0
 11 10  1  1  0  0  0
 12 20  2  0  0  0  0
 12 19  1  0  0  0  0
 13 20  1  0  0  0  0
 14 15  1  0  0  0  0
 18 19  2  0  0  0  0
M  CHG  1  21  -1
M  END
>  <CHROM.1>
43.06270577,176.76197041,62.53985643,-178.83907381,0.95575501,-28.50600701
5.06109330,-10.29650148,-2.51435769,0.29714289,0.39179812

>  <Name>
ligand

>  <RI>
0

>  <Rbt.Current_Directory>
/home/itssahil/PROJECTS/Mol_Feturizer/Test_systems_manuscript/rnas/4xwf

>  <Rbt.Executable>
rbdock ($Id: //depot/dev/client3/rdock/2013.1/src/exe/rbdock.cxx#4 $)

>  <Rbt.Library>
libRbt.so (2013.1, Build901 2013/11/27)

>  <Rbt.Parameter_File>
/export/apps/rDock/src/rDock_2013.1_src/data/scripts/dock_solv.prm

>  <Rbt.Receptor>
prm/pocket_docking_2.prm

>  <SCORE>
-2.39494

>  <SCORE.INTER>
-1.23405

>  <SCORE.INTER.CONST>
1

>  <SCORE.INTER.POLAR>
0

>  <SCORE.INTER.ROT>
5

>  <SCORE.INTER.SOLV>
12.12

>  <SCORE.INTER.VDW>
-11.796

>  <SCORE.INTER.norm>
-0.0560932

>  <SCORE.INTRA>
-1.16089

>  <SCORE.INTRA.DIHEDRAL>
-1.96742

>  <SCORE.INTRA.DIHEDRAL.0>
3.49807

>  <SCORE.INTRA.POLAR>
0

>  <SCORE.INTRA.POLAR.0>
0

>  <SCORE.INTRA.REPUL>
0

>  <SCORE.INTRA.REPUL.0>
0

>  <SCORE.INTRA.SOLV>
-0.380124

>  <SCORE.INTRA.SOLV.lig_0>
-73.062

>  <SCORE.INTRA.VDW>
0.0128813

>  <SCORE.INTRA.VDW.0>
-1.83782

>  <SCORE.INTRA.norm>
-0.0527678

>  <SCORE.RESTR>
0

>  <SCORE.RESTR.CAVITY>
0

>  <SCORE.RESTR.norm>
0

>  <SCORE.SYSTEM>
0

>  <SCORE.SYSTEM.CONST>
0

>  <SCORE.SYSTEM.DIHEDRAL>
0

>  <SCORE.SYSTEM.SOLV>
0

>  <SCORE.SYSTEM.norm>
0

>  <SCORE.heavy>
22

>  <SCORE.norm>
-0.108861

>  <RMSD>
1.268

$$$$
ligand
 OpenBabel02271912143D
libRbt.so/2013.1/901 2013/11/27
 22 23  0  0  0  0  0  0  0  0999 V2000
  -29.6673    3.7316  -10.0962 N   0  0  0  0  0  0  0  0  0  0  0  0
  -26.4767    4.8210   -9.8033 C   0  0  1  0  0  0  0  0  0  0  0  0
  -27.5072    3.9187   -9.3096 O   0  0  0  0  0  0  0  0  0  0  0  0
  -25.6708    8.4707   -9.1795 P   0  0  1  0  0  0  0  0  0  0  0  0
  -28.3393    3.5439  -10.4193 C   0  0  2  0  0  0  0  0  0  0  0  0
  -31.5038    4.6766   -9.4290 N   0  0  0  0  0  0  0  0  0  0  0  0
  -28.3279    3.9838  -12.7650 O   0  0  0  0  0  0  0  0  0  0  0  0
  -28.0226    4.5302  -11.4766 C   0  0  2  0  0  0  0  0  0  0  0  0
  -34.2498    3.5999   -9.4993 N   0  0  0  0  0  0  0  0  0  0  0  0
  -25.8114    3.7052  -11.7545 O   0  0  0  0  0  0  0  0  0  0  0  0
  -26.6049    4.8046  -11.2769 C   0  0  2  0  0  0  0  0  0  0  0  0
  -31.7994    3.4374   -9.8505 C   0  0  0  0  0  0  0  0  0  0  0  0
  -30.5273    1.5364  -10.8155 N   0  0  0  0  0  0  0  0  0  0  0  0
  -25.6887    6.9628   -9.6092 O   0  0  0  0  0  0  0  0  0  0  0  0
  -26.7715    6.1703   -9.2443 C   0  0  0  0  0  0  0  0  0  0  0  0
  -26.9351    9.0644   -9.9001 O   0  0  0  0  0  0  0  0  0  0  0  0
  -30.1772    4.8545   -9.5771 C   0  0  0  0  0  0  0  0  0  0  0  0
  -33.2887    1.6400  -10.1482 O   0  0  0  0  0  0  0  0  0  0  0  0
  -33.1413    2.8258   -9.8528 C   0  0  0  0  0  0  0  0  0  0  0  0
  -30.6484    2.8371  -10.2751 C   0  0  0  0  0  0  0  0  0  0  0  0
  -25.7026    8.5691   -7.6904 O   0  5  0  0  0  0  0  0  0  0  0  0
  -24.3675    9.0863   -9.4879 O   0  0  0  0  0  0  0  0  0  0  0  0
  1 17  1  0  0  0  0
  1 20  1  0  0  0  0
  2 15  1  1  0  0  0
  2  3  1  0  0  0  0
  2 11  1  0  0  0  0
  3  5  1  0  0  0  0
  4 16  1  6  0  0  0
  4 21  1  0  0  0  0
  4 22  2  0  0  0  0
  4 14  1  0  0  0  0
  5  1  1  1  0  0  0
  5  8  1  0  0  0  0
  6 17  2  0  0  0  0
  6 12  1  0  0  0  0
  8  7  1  6  0  0  0
  8 11  1  0  0  0  0
  9 19  1  0  0  0  0
 11 10  1  6  0  0  0
 12 20  2  0  0  0  0
 12 19  1  0  0  0  0
 13 20  1  0  0  0  0
 14 15  1  0  0  0  0
 18 19  2  0  0  0  0
M  CHG  1  21  -1
M  END
>  <CHROM.1>
50.26816828,173.35719858,-61.85979202,179.88729350,5.74944393,-28.41355880
5.12705577,-10.01758305,-2.51815895,0.28972295,0.52810870

>  <Name>
ligand

>  <RI>
0

>  <Rbt.Current_Directory>
/home/itssahil/PROJECTS/Mol_Feturizer/Test_systems_manuscript/rnas/4xwf

>  <Rbt.Executable>
rbdock ($Id: //depot/dev/client3/rdock/2013.1/src/exe/rbdock.cxx#4 $)

>  <Rbt.Library>
libRbt.so (2013.1, Build901 2013/11/27)

>  <Rbt.Parameter_File>
/export/apps/rDock/src/rDock_2013.1_src/data/scripts/dock_solv.prm

>  <Rbt.Receptor>
prm/pocket_docking_2.prm

>  <SCORE>
-2.34559

>  <SCORE.INTER>
-1.21862

>  <SCORE.INTER.CONST>
1

>  <SCORE.INTER.POLAR>
0

>  <SCORE.INTER.ROT>
5

>  <SCORE.INTER.SOLV>
11.5646

>  <SCORE.INTER.VDW>
-11.6006

>  <SCORE.INTER.norm>
-0.0553919

>  <SCORE.INTRA>
-1.12697

>  <SCORE.INTRA.DIHEDRAL>
-1.79588

>  <SCORE.INTRA.DIHEDRAL.0>
3.49807

>  <SCORE.INTRA.POLAR>
0

>  <SCORE.INTRA.POLAR.0>
0

>  <SCORE.INTRA.REPUL>
0

>  <SCORE.INTRA.REPUL.0>
0

>  <SCORE.INTRA.SOLV>
-0.592884

>  <SCORE.INTRA.SOLV.lig_0>
-73.062

>  <SCORE.INTRA.VDW>
0.0674145

>  <SCORE.INTRA.VDW.0>
-1.83782

>  <SCORE.INTRA.norm>
-0.0512258

>  <SCORE.RESTR>
0

>  <SCORE.RESTR.CAVITY>
0

>  <SCORE.RESTR.norm>
0

>  <SCORE.SYSTEM>
0

>  <SCORE.SYSTEM.CONST>
0

>  <SCORE.SYSTEM.DIHEDRAL>
0

>  <SCORE.SYSTEM.SOLV>
0

>  <SCORE.SYSTEM.norm>
0

>  <SCORE.heavy>
22

>  <SCORE.norm>
-0.106618

>  <RMSD>
1.280

$$$$
ligand
 OpenBabel02271912143D
libRbt.so/2013.1/901 2013/11/27
 22 23  0  0  0  0  0  0  0  0999 V2000
  -29.6974    3.7003  -10.0756 N   0  0  0  0  0  0  0  0  0  0  0  0
  -26.5049    4.7874   -9.7957 C   0  0  1  0  0  0  0  0  0  0  0  0
  -27.5412    3.9030   -9.2822 O   0  0  0  0  0  0  0  0  0  0  0  0
  -25.7004    8.4558   -9.2909 P   0  0  1  0  0  0  0  0  0  0  0  0
  -28.3682    3.4992  -10.3855 C   0  0  2  0  0  0  0  0  0  0  0  0
  -31.5302    4.6629   -9.4234 N   0  0  0  0  0  0  0  0  0  0  0  0
  -28.3421    3.8714  -12.7428 O   0  0  0  0  0  0  0  0  0  0  0  0
  -28.0423    4.4536  -11.4688 C   0  0  2  0  0  0  0  0  0  0  0  0
  -34.2785    3.5956   -9.4580 N   0  0  0  0  0  0  0  0  0  0  0  0
  -25.8323    3.6139  -11.7102 O   0  0  0  0  0  0  0  0  0  0  0  0
  -26.6248    4.7291  -11.2690 C   0  0  2  0  0  0  0  0  0  0  0  0
  -31.8352    3.4291   -9.8537 C   0  0  0  0  0  0  0  0  0  0  0  0
  -30.5742    1.5182  -10.8141 N   0  0  0  0  0  0  0  0  0  0  0  0
  -25.7217    6.9366   -9.6785 O   0  0  0  0  0  0  0  0  0  0  0  0
  -26.7983    6.1532   -9.2774 C   0  0  0  0  0  0  0  0  0  0  0  0
  -26.9924    9.0215   -9.9847 O   0  0  0  0  0  0  0  0  0  0  0  0
  -30.2002    4.8266   -9.5567 C   0  0  0  0  0  0  0  0  0  0  0  0
  -33.3485    1.6682  -10.2364 O   0  0  0  0  0  0  0  0  0  0  0  0
  -33.1837    2.8326   -9.8731 C   0  0  0  0  0  0  0  0  0  0  0  0
  -30.6866    2.8178  -10.2689 C   0  0  0  0  0  0  0  0  0  0  0  0
  -25.6832    8.5949   -7.8049 O   0  5  0  0  0  0  0  0  0  0  0  0
  -24.4126    9.0710   -9.6596 O   0  0  0  0  0  0  0  0  0  0  0  0
  1 17  1  0  0  0  0
  1 20  1  0  0  0  0
  2 15  1  1  0  0  0
  2  3  1  0  0  0  0
  2 11  1  0  0  0  0
  3  5  1  0  0  0  0
  4 16  1  6  0  0  0
  4 21  1  0  0  0  0
  4 22  2  0  0  0  0
  4 14  1  0  0  0  0
  5  1  1  1  0  0  0
  5  8  1  0  0  0  0
  6 17  2  0  0  0  0
  6 12  1  0  0  0  0
  8  7  1  6  0  0  0
  8 11  1  0  0  0  0
  9 19  1  0  0  0  0
 11 10  1  1  0  0  0
 12 20  2  0  0  0  0
 12 19  1  0  0  0  0
 13 20  1  0  0  0  0
 14 15  1  0  0  0  0
 18 19  2  0  0  0  0
M  CHG  1  21  -1
M  END
>  <CHROM.1>
48.28629464,174.34815184,-60.66397522,-179.78151147,2.28747886,-28.44393092
5.09903477,-10.04529699,-2.51797915,0.28034470,0.50097363

>  <Name>
ligand

>  <RI>
0

>  <Rbt.Current_Directory>
/home/itssahil/PROJECTS/Mol_Feturizer/Test_systems_manuscript/rnas/4xwf

>  <Rbt.Executable>
rbdock ($Id: //depot/dev/client3/rdock/2013.1/src/exe/rbdock.cxx#4 $)

>  <Rbt.Library>
libRbt.so (2013.1, Build901 2013/11/27)

>  <Rbt.Parameter_File>
/export/apps/rDock/src/rDock_2013.1_src/data/scripts/dock_solv.prm

>  <Rbt.Receptor>
prm/pocket_docking_2.prm

>  <SCORE>
-2.34009

>  <SCORE.INTER>
-1.18902

>  <SCORE.INTER.CONST>
1

>  <SCORE.INTER.POLAR>
0

>  <SCORE.INTER.ROT>
5

>  <SCORE.INTER.SOLV>
11.7376

>  <SCORE.INTER.VDW>
-11.6386

>  <SCORE.INTER.norm>
-0.0540464

>  <SCORE.INTRA>
-1.15107

>  <SCORE.INTRA.DIHEDRAL>
-1.88468

>  <SCORE.INTRA.DIHEDRAL.0>
3.49807

>  <SCORE.INTRA.POLAR>
0

>  <SCORE.INTRA.POLAR.0>
0

>  <SCORE.INTRA.REPUL>
0

>  <SCORE.INTRA.REPUL.0>
0

>  <SCORE.INTRA.SOLV>
-0.536389

>  <SCORE.INTRA.SOLV.lig_0>
-73.062

>  <SCORE.INTRA.VDW>
0.0594696

>  <SCORE.INTRA.VDW.0>
-1.83782

>  <SCORE.INTRA.norm>
-0.0523212

>  <SCORE.RESTR>
0

>  <SCORE.RESTR.CAVITY>
0

>  <SCORE.RESTR.norm>
0

>  <SCORE.SYSTEM>
0

>  <SCORE.SYSTEM.CONST>
0

>  <SCORE.SYSTEM.DIHEDRAL>
0

>  <SCORE.SYSTEM.SOLV>
0

>  <SCORE.SYSTEM.norm>
0

>  <SCORE.heavy>
22

>  <SCORE.norm>
-0.106368

>  <RMSD>
1.281

$$$$
ligand
 OpenBabel02271912143D
libRbt.so/2013.1/901 2013/11/27
 22 23  0  0  0  0  0  0  0  0999 V2000
  -29.6548    3.7812  -10.0898 N   0  0  0  0  0  0  0  0  0  0  0  0
  -26.6376    5.2223  -10.6116 C   0  0  1  0  0  0  0  0  0  0  0  0
  -27.5200    4.5471   -9.6706 O   0  0  0  0  0  0  0  0  0  0  0  0
  -25.4660    7.6064   -9.0067 P   0  0  1  0  0  0  0  0  0  0  0  0
  -28.3231    3.6108  -10.4073 C   0  0  2  0  0  0  0  0  0  0  0  0
  -31.5085    4.7058   -9.4417 N   0  0  0  0  0  0  0  0  0  0  0  0
  -28.4378    2.9070  -12.6849 O   0  0  0  0  0  0  0  0  0  0  0  0
  -28.1748    4.0197  -11.8221 C   0  0  2  0  0  0  0  0  0  0  0  0
  -34.2373    3.5846   -9.5117 N   0  0  0  0  0  0  0  0  0  0  0  0
  -25.8797    3.4069  -11.8861 O   0  0  0  0  0  0  0  0  0  0  0  0
  -26.8034    4.5083  -11.8965 C   0  0  2  0  0  0  0  0  0  0  0  0
  -31.7822    3.4549   -9.8430 C   0  0  0  0  0  0  0  0  0  0  0  0
  -30.4759    1.5600  -10.7739 N   0  0  0  0  0  0  0  0  0  0  0  0
  -26.9089    7.1714   -9.4395 O   0  0  0  0  0  0  0  0  0  0  0  0
  -27.0997    6.6355  -10.7084 C   0  0  0  0  0  0  0  0  0  0  0  0
  -25.6928    8.2389   -7.5858 O   0  0  0  0  0  0  0  0  0  0  0  0
  -30.1848    4.9038   -9.5904 C   0  0  0  0  0  0  0  0  0  0  0  0
  -33.2388    1.6251  -10.1023 O   0  0  0  0  0  0  0  0  0  0  0  0
  -33.1134    2.8206   -9.8376 C   0  0  0  0  0  0  0  0  0  0  0  0
  -30.6203    2.8673  -10.2554 C   0  0  0  0  0  0  0  0  0  0  0  0
  -24.5587    6.4212   -9.0200 O   0  5  0  0  0  0  0  0  0  0  0  0
  -24.8479    8.4625  -10.0351 O   0  0  0  0  0  0  0  0  0  0  0  0
  1 17  1  0  0  0  0
  1 20  1  0  0  0  0
  2 15  1  6  0  0  0
  2  3  1  0  0  0  0
  2 11  1  0  0  0  0
  3  5  1  0  0  0  0
  4 16  1  1  0  0  0
  4 21  1  0  0  0  0
  4 22  2  0  0  0  0
  4 14  1  0  0  0  0
  5  1  1  1  0  0  0
  5  8  1  0  0  0  0
  6 17  2  0  0  0  0
  6 12  1  0  0  0  0
  8  7  1  6  0  0  0
  8 11  1  0  0  0  0
  9 19  1  0  0  0  0
 11 10  1  1  0  0  0
 12 20  2  0  0  0  0
 12 19  1  0  0  0  0
 13 20  1  0  0  0  0
 14 15  1  0  0  0  0
 18 19  2  0  0  0  0
M  CHG  1  21  -1
M  END
>  <CHROM.1>
22.64761915,63.91842381,176.11080492,78.51013206,6.36914757,-28.39597412
4.85749453,-10.11966035,-2.62925007,0.31995583,0.67994755

>  <Name>
ligand

>  <RI>
0

>  <Rbt.Current_Directory>
/home/itssahil/PROJECTS/Mol_Feturizer/Test_systems_manuscript/rnas/4xwf

>  <Rbt.Executable>
rbdock ($Id: //depot/dev/client3/rdock/2013.1/src/exe/rbdock.cxx#4 $)

>  <Rbt.Library>
libRbt.so (2013.1, Build901 2013/11/27)

>  <Rbt.Parameter_File>
/export/apps/rDock/src/rDock_2013.1_src/data/scripts/dock_solv.prm

>  <Rbt.Receptor>
prm/pocket_docking_2.prm

>  <SCORE>
-0.481104

>  <SCORE.INTER>
-1.88514

>  <SCORE.INTER.CONST>
1

>  <SCORE.INTER.POLAR>
0

>  <SCORE.INTER.ROT>
5

>  <SCORE.INTER.SOLV>
11.1

>  <SCORE.INTER.VDW>
-11.8901

>  <SCORE.INTER.norm>
-0.0856883

>  <SCORE.INTRA>
1.40404

>  <SCORE.INTRA.DIHEDRAL>
-0.298136

>  <SCORE.INTRA.DIHEDRAL.0>
3.49807

>  <SCORE.INTRA.POLAR>
0

>  <SCORE.INTRA.POLAR.0>
0

>  <SCORE.INTRA.REPUL>
0

>  <SCORE.INTRA.REPUL.0>
0

>  <SCORE.INTRA.SOLV>
3.18511

>  <SCORE.INTRA.SOLV.lig_0>
-73.062

>  <SCORE.INTRA.VDW>
-0.0394495

>  <SCORE.INTRA.VDW.0>
-1.83782

>  <SCORE.INTRA.norm>
0.0638199

>  <SCORE.RESTR>
0

>  <SCORE.RESTR.CAVITY>
0

>  <SCORE.RESTR.norm>
0

>  <SCORE.SYSTEM>
0

>  <SCORE.SYSTEM.CONST>
0

>  <SCORE.SYSTEM.DIHEDRAL>
0

>  <SCORE.SYSTEM.SOLV>
0

>  <SCORE.SYSTEM.norm>
0

>  <SCORE.heavy>
22

>  <SCORE.norm>
-0.0218684

>  <RMSD>
1.300

$$$$
ligand
 OpenBabel02271912143D
libRbt.so/2013.1/901 2013/11/27
 22 23  0  0  0  0  0  0  0  0999 V2000
  -29.7001    3.7234  -10.0711 N   0  0  0  0  0  0  0  0  0  0  0  0
  -26.5155    4.8288   -9.7728 C   0  0  1  0  0  0  0  0  0  0  0  0
  -27.5491    3.9371   -9.2665 O   0  0  0  0  0  0  0  0  0  0  0  0
  -25.7084    8.4874   -9.2061 P   0  0  1  0  0  0  0  0  0  0  0  0
  -28.3682    3.5308  -10.3748 C   0  0  2  0  0  0  0  0  0  0  0  0
  -31.5437    4.6770   -9.4364 N   0  0  0  0  0  0  0  0  0  0  0  0
  -28.3324    3.9084  -12.7311 O   0  0  0  0  0  0  0  0  0  0  0  0
  -28.0425    4.4895  -11.4544 C   0  0  2  0  0  0  0  0  0  0  0  0
  -34.2799    3.5791   -9.4518 N   0  0  0  0  0  0  0  0  0  0  0  0
  -25.8264    3.6635  -11.6864 O   0  0  0  0  0  0  0  0  0  0  0  0
  -26.6277    4.7730  -11.2468 C   0  0  2  0  0  0  0  0  0  0  0  0
  -31.8358    3.4349   -9.8516 C   0  0  0  0  0  0  0  0  0  0  0  0
  -30.5543    1.5238  -10.7838 N   0  0  0  0  0  0  0  0  0  0  0  0
  -25.7332    6.9763   -9.6241 O   0  0  0  0  0  0  0  0  0  0  0  0
  -26.8196    6.1916   -9.2530 C   0  0  0  0  0  0  0  0  0  0  0  0
  -26.9923    9.0726   -9.8986 O   0  0  0  0  0  0  0  0  0  0  0  0
  -30.2149    4.8515   -9.5682 C   0  0  0  0  0  0  0  0  0  0  0  0
  -33.3330    1.6587  -10.2270 O   0  0  0  0  0  0  0  0  0  0  0  0
  -33.1787    2.8256   -9.8670 C   0  0  0  0  0  0  0  0  0  0  0  0
  -30.6804    2.8291  -10.2557 C   0  0  0  0  0  0  0  0  0  0  0  0
  -25.7025    8.5968   -7.7175 O   0  5  0  0  0  0  0  0  0  0  0  0
  -24.4150    9.1039   -9.5522 O   0  0  0  0  0  0  0  0  0  0  0  0
  1 17  1  0  0  0  0
  1 20  1  0  0  0  0
  2 15  1  1  0  0  0
  2  3  1  0  0  0  0
  2 11  1  0  0  0  0
  3  5  1  0  0  0  0
  4 16  1  6  0  0  0
  4 21  1  0  0  0  0
  4 22  2  0  0  0  0
  4 14  1  0  0  0  0
  5  1  1  1  0  0  0
  5  8  1  0  0  0  0
  6 17  2  0  0  0  0
  6 12  1  0  0  0  0
  8  7  1  6  0  0  0
  8 11  1  0  0  0  0
  9 19  1  0  0  0  0
 11 10  1  1  0  0  0
 12 20  2  0  0  0  0
 12 19  1  0  0  0  0
 13 20  1  0  0  0  0
 14 15  1  0  0  0  0
 18 19  2  0  0  0  0
M  CHG  1  21  -1
M  END
>  <CHROM.1>
49.18268344,173.20342483,-60.33982117,-178.77711977,1.63585913,-28.44665847
5.12358603,-10.01270668,-2.51250680,0.28146731,0.51117369

>  <Name>
ligand

>  <RI>
0

>  <Rbt.Current_Directory>
/home/itssahil/PROJECTS/Mol_Feturizer/Test_systems_manuscript/rnas/4xwf

>  <Rbt.Executable>
rbdock ($Id: //depot/dev/client3/rdock/2013.1/src/exe/rbdock.cxx#4 $)

>  <Rbt.Library>
libRbt.so (2013.1, Build901 2013/11/27)

>  <Rbt.Parameter_File>
/export/apps/rDock/src/rDock_2013.1_src/data/scripts/dock_solv.prm

>  <Rbt.Receptor>
prm/pocket_docking_2.prm

>  <SCORE>
-2.34961

>  <SCORE.INTER>
-1.21463

>  <SCORE.INTER.CONST>
1

>  <SCORE.INTER.POLAR>
0

>  <SCORE.INTER.ROT>
5

>  <SCORE.INTER.SOLV>
11.5973

>  <SCORE.INTER.VDW>
-11.6088

>  <SCORE.INTER.norm>
-0.0552106

>  <SCORE.INTRA>
-1.13497

>  <SCORE.INTRA.DIHEDRAL>
-1.83354

>  <SCORE.INTRA.DIHEDRAL.0>
3.49807

>  <SCORE.INTRA.POLAR>
0

>  <SCORE.INTRA.POLAR.0>
0

>  <SCORE.INTRA.REPUL>
0

>  <SCORE.INTRA.REPUL.0>
0

>  <SCORE.INTRA.SOLV>
-0.566678

>  <SCORE.INTRA.SOLV.lig_0>
-73.062

>  <SCORE.INTRA.VDW>
0.0651338

>  <SCORE.INTRA.VDW.0>
-1.83782

>  <SCORE.INTRA.norm>
-0.0515897

>  <SCORE.RESTR>
0

>  <SCORE.RESTR.CAVITY>
0

>  <SCORE.RESTR.norm>
0

>  <SCORE.SYSTEM>
0

>  <SCORE.SYSTEM.CONST>
0

>  <SCORE.SYSTEM.DIHEDRAL>
0

>  <SCORE.SYSTEM.SOLV>
0

>  <SCORE.SYSTEM.norm>
0

>  <SCORE.heavy>
22

>  <SCORE.norm>
-0.1068

>  <RMSD>
1.303

$$$$
ligand
 OpenBabel02271912143D
libRbt.so/2013.1/901 2013/11/27
 22 23  0  0  0  0  0  0  0  0999 V2000
  -29.6879    3.7548  -10.0560 N   0  0  0  0  0  0  0  0  0  0  0  0
  -26.5209    4.9167   -9.7866 C   0  0  1  0  0  0  0  0  0  0  0  0
  -27.5394    4.0194   -9.2599 O   0  0  0  0  0  0  0  0  0  0  0  0
  -25.7879    8.6060   -9.3292 P   0  0  1  0  0  0  0  0  0  0  0  0
  -28.3535    3.5772  -10.3581 C   0  0  2  0  0  0  0  0  0  0  0  0
  -31.5438    4.6893   -9.4290 N   0  0  0  0  0  0  0  0  0  0  0  0
  -28.3275    3.9063  -12.7217 O   0  0  0  0  0  0  0  0  0  0  0  0
  -28.0449    4.5183  -11.4579 C   0  0  2  0  0  0  0  0  0  0  0  0
  -34.2697    3.5650   -9.4649 N   0  0  0  0  0  0  0  0  0  0  0  0
  -25.8162    3.7231  -11.6769 O   0  0  0  0  0  0  0  0  0  0  0  0
  -26.6344    4.8286  -11.2589 C   0  0  2  0  0  0  0  0  0  0  0  0
  -31.8197    3.4401   -9.8341 C   0  0  0  0  0  0  0  0  0  0  0  0
  -30.5132    1.5384  -10.7507 N   0  0  0  0  0  0  0  0  0  0  0  0
  -25.7887    7.0857   -9.7129 O   0  0  0  0  0  0  0  0  0  0  0  0
  -26.8459    6.2850   -9.2946 C   0  0  0  0  0  0  0  0  0  0  0  0
  -25.6992    8.5802   -7.7601 O   0  0  0  0  0  0  0  0  0  0  0  0
  -30.2174    4.8801   -9.5622 C   0  0  0  0  0  0  0  0  0  0  0  0
  -33.2900    1.6336  -10.1691 O   0  0  0  0  0  0  0  0  0  0  0  0
  -33.1544    2.8132   -9.8444 C   0  0  0  0  0  0  0  0  0  0  0  0
  -30.6564    2.8463  -10.2333 C   0  0  0  0  0  0  0  0  0  0  0  0
  -24.6475    9.2937  -10.0034 O   0  5  0  0  0  0  0  0  0  0  0  0
  -26.9443    9.2966   -9.9280 O   0  0  0  0  0  0  0  0  0  0  0  0
  1 17  1  0  0  0  0
  1 20  1  0  0  0  0
  2 15  1  1  0  0  0
  2  3  1  0  0  0  0
  2 11  1  0  0  0  0
  3  5  1  0  0  0  0
  4 16  1  1  0  0  0
  4 21  1  0  0  0  0
  4 22  2  0  0  0  0
  4 14  1  0  0  0  0
  5  1  1  1  0  0  0
  5  8  1  0  0  0  0
  6 17  2  0  0  0  0
  6 12  1  0  0  0  0
  8  7  1  6  0  0  0
  8 11  1  0  0  0  0
  9 19  1  0  0  0  0
 11 10  1  1  0  0  0
 12 20  2  0  0  0  0
 12 19  1  0  0  0  0
 13 20  1  0  0  0  0
 14 15  1  0  0  0  0
 18 19  2  0  0  0  0
M  CHG  1  21  -1
M  END
>  <CHROM.1>
48.43564683,174.64677221,63.66964592,-178.50258571,3.11017162,-28.45851793
5.18086580,-10.04794263,-2.49797638,0.29307254,0.47839911

>  <Name>
ligand

>  <RI>
0

>  <Rbt.Current_Directory>
/home/itssahil/PROJECTS/Mol_Feturizer/Test_systems_manuscript/rnas/4xwf

>  <Rbt.Executable>
rbdock ($Id: //depot/dev/client3/rdock/2013.1/src/exe/rbdock.cxx#4 $)

>  <Rbt.Library>
libRbt.so (2013.1, Build901 2013/11/27)

>  <Rbt.Parameter_File>
/export/apps/rDock/src/rDock_2013.1_src/data/scripts/dock_solv.prm

>  <Rbt.Receptor>
prm/pocket_docking_2.prm

>  <SCORE>
-2.42592

>  <SCORE.INTER>
-1.25513

>  <SCORE.INTER.CONST>
1

>  <SCORE.INTER.POLAR>
0

>  <SCORE.INTER.ROT>
5

>  <SCORE.INTER.SOLV>
11.3307

>  <SCORE.INTER.VDW>
-11.547

>  <SCORE.INTER.norm>
-0.0570514

>  <SCORE.INTRA>
-1.17079

>  <SCORE.INTRA.DIHEDRAL>
-1.87524

>  <SCORE.INTRA.DIHEDRAL.0>
3.49807

>  <SCORE.INTRA.POLAR>
0

>  <SCORE.INTRA.POLAR.0>
0

>  <SCORE.INTRA.REPUL>
0

>  <SCORE.INTRA.REPUL.0>
0

>  <SCORE.INTRA.SOLV>
-0.551089

>  <SCORE.INTRA.SOLV.lig_0>
-73.062

>  <SCORE.INTRA.VDW>
0.0423795

>  <SCORE.INTRA.VDW.0>
-1.83782

>  <SCORE.INTRA.norm>
-0.0532176

>  <SCORE.RESTR>
0

>  <SCORE.RESTR.CAVITY>
0

>  <SCORE.RESTR.norm>
0

>  <SCORE.SYSTEM>
0

>  <SCORE.SYSTEM.CONST>
0

>  <SCORE.SYSTEM.DIHEDRAL>
0

>  <SCORE.SYSTEM.SOLV>
0

>  <SCORE.SYSTEM.norm>
0

>  <SCORE.heavy>
22

>  <SCORE.norm>
-0.110269

>  <RMSD>
1.327

$$$$
ligand
 OpenBabel02271912143D
libRbt.so/2013.1/901 2013/11/27
 22 23  0  0  0  0  0  0  0  0999 V2000
  -29.6846    3.7726  -10.0699 N   0  0  0  0  0  0  0  0  0  0  0  0
  -26.5155    4.9256   -9.7877 C   0  0  1  0  0  0  0  0  0  0  0  0
  -27.5343    4.0214   -9.2736 O   0  0  0  0  0  0  0  0  0  0  0  0
  -25.7803    8.6078   -9.2787 P   0  0  1  0  0  0  0  0  0  0  0  0
  -28.3511    3.5980  -10.3772 C   0  0  2  0  0  0  0  0  0  0  0  0
  -31.5411    4.7043   -9.4402 N   0  0  0  0  0  0  0  0  0  0  0  0
  -28.3288    3.9649  -12.7353 O   0  0  0  0  0  0  0  0  0  0  0  0
  -28.0430    4.5563  -11.4624 C   0  0  2  0  0  0  0  0  0  0  0  0
  -34.2636    3.5713   -9.4611 N   0  0  0  0  0  0  0  0  0  0  0  0
  -25.8160    3.7615  -11.6982 O   0  0  0  0  0  0  0  0  0  0  0  0
  -26.6318    4.8613  -11.2610 C   0  0  2  0  0  0  0  0  0  0  0  0
  -31.8142    3.4515   -9.8357 C   0  0  0  0  0  0  0  0  0  0  0  0
  -30.5049    1.5487  -10.7461 N   0  0  0  0  0  0  0  0  0  0  0  0
  -25.7778    7.0911   -9.6765 O   0  0  0  0  0  0  0  0  0  0  0  0
  -26.8377    6.2863   -9.2732 C   0  0  0  0  0  0  0  0  0  0  0  0
  -25.7376    8.5671   -7.7080 O   0  0  0  0  0  0  0  0  0  0  0  0
  -30.2161    4.8991   -9.5810 C   0  0  0  0  0  0  0  0  0  0  0  0
  -33.2786    1.6361  -10.1471 O   0  0  0  0  0  0  0  0  0  0  0  0
  -33.1466    2.8195   -9.8356 C   0  0  0  0  0  0  0  0  0  0  0  0
  -30.6506    2.8594  -10.2366 C   0  0  0  0  0  0  0  0  0  0  0  0
  -24.6171    9.2954   -9.9128 O   0  5  0  0  0  0  0  0  0  0  0  0
  -26.9150    9.3102   -9.9045 O   0  0  0  0  0  0  0  0  0  0  0  0
  1 17  1  0  0  0  0
  1 20  1  0  0  0  0
  2 15  1  1  0  0  0
  2  3  1  0  0  0  0
  2 11  1  0  0  0  0
  3  5  1  0  0  0  0
  4 16  1  1  0  0  0
  4 21  1  0  0  0  0
  4 22  2  0  0  0  0
  4 14  1  0  0  0  0
  5  1  1  1  0  0  0
  5  8  1  0  0  0  0
  6 17  2  0  0  0  0
  6 12  1  0  0  0  0
  8  7  1  6  0  0  0
  8 11  1  0  0  0  0
  9 19  1  0  0  0  0
 11 10  1  1  0  0  0
 12 20  2  0  0  0  0
 12 19  1  0  0  0  0
 13 20  1  0  0  0  0
 14 15  1  0  0  0  0
 18 19  2  0  0  0  0
M  CHG  1  21  -1
M  END
>  <CHROM.1>
49.77503937,174.44474883,62.36411551,-179.07064335,3.37859296,-28.45304179
5.19428892,-10.03604683,-2.50004083,0.29705362,0.49174370

>  <Name>
ligand

>  <RI>
0

>  <Rbt.Current_Directory>
/home/itssahil/PROJECTS/Mol_Feturizer/Test_systems_manuscript/rnas/4xwf

>  <Rbt.Executable>
rbdock ($Id: //depot/dev/client3/rdock/2013.1/src/exe/rbdock.cxx#4 $)

>  <Rbt.Library>
libRbt.so (2013.1, Build901 2013/11/27)

>  <Rbt.Parameter_File>
/export/apps/rDock/src/rDock_2013.1_src/data/scripts/dock_solv.prm

>  <Rbt.Receptor>
prm/pocket_docking_2.prm

>  <SCORE>
-2.38705

>  <SCORE.INTER>
-1.22255

>  <SCORE.INTER.CONST>
1

>  <SCORE.INTER.POLAR>
0

>  <SCORE.INTER.ROT>
5

>  <SCORE.INTER.SOLV>
11.3091

>  <SCORE.INTER.VDW>
-11.5181

>  <SCORE.INTER.norm>
-0.0555704

>  <SCORE.INTRA>
-1.1645

>  <SCORE.INTRA.DIHEDRAL>
-1.8774

>  <SCORE.INTRA.DIHEDRAL.0>
3.49807

>  <SCORE.INTRA.POLAR>
0

>  <SCORE.INTRA.POLAR.0>
0

>  <SCORE.INTRA.REPUL>
0

>  <SCORE.INTRA.REPUL.0>
0

>  <SCORE.INTRA.SOLV>
-0.590901

>  <SCORE.INTRA.SOLV.lig_0>
-73.062

>  <SCORE.INTRA.VDW>
0.0696542

>  <SCORE.INTRA.VDW.0>
-1.83782

>  <SCORE.INTRA.norm>
-0.0529317

>  <SCORE.RESTR>
0

>  <SCORE.RESTR.CAVITY>
0

>  <SCORE.RESTR.norm>
0

>  <SCORE.SYSTEM>
0

>  <SCORE.SYSTEM.CONST>
0

>  <SCORE.SYSTEM.DIHEDRAL>
0

>  <SCORE.SYSTEM.SOLV>
0

>  <SCORE.SYSTEM.norm>
0

>  <SCORE.heavy>
22

>  <SCORE.norm>
-0.108502

>  <RMSD>
1.329

$$$$
ligand
 OpenBabel02271912143D
libRbt.so/2013.1/901 2013/11/27
 22 23  0  0  0  0  0  0  0  0999 V2000
  -29.7083    3.7791  -10.0361 N   0  0  0  0  0  0  0  0  0  0  0  0
  -26.5419    4.9402   -9.7567 C   0  0  1  0  0  0  0  0  0  0  0  0
  -27.5648    4.0489   -9.2284 O   0  0  0  0  0  0  0  0  0  0  0  0
  -25.7932    8.6266   -9.3026 P   0  0  1  0  0  0  0  0  0  0  0  0
  -28.3722    3.5973  -10.3277 C   0  0  2  0  0  0  0  0  0  0  0  0
  -31.5676    4.7218   -9.4318 N   0  0  0  0  0  0  0  0  0  0  0  0
  -28.3301    3.9041  -12.6941 O   0  0  0  0  0  0  0  0  0  0  0  0
  -28.0552    4.5278  -11.4342 C   0  0  2  0  0  0  0  0  0  0  0  0
  -34.2940    3.5990   -9.4734 N   0  0  0  0  0  0  0  0  0  0  0  0
  -25.8260    3.7282  -11.6310 O   0  0  0  0  0  0  0  0  0  0  0  0
  -26.6458    4.8384  -11.2288 C   0  0  2  0  0  0  0  0  0  0  0  0
  -31.8417    3.4682   -9.8241 C   0  0  0  0  0  0  0  0  0  0  0  0
  -30.5305    1.5553  -10.7103 N   0  0  0  0  0  0  0  0  0  0  0  0
  -25.8034    7.1073   -9.6904 O   0  0  0  0  0  0  0  0  0  0  0  0
  -26.8687    6.3134   -9.2797 C   0  0  0  0  0  0  0  0  0  0  0  0
  -25.7367    8.5958   -7.7321 O   0  0  0  0  0  0  0  0  0  0  0  0
  -30.2403    4.9103   -9.5588 C   0  0  0  0  0  0  0  0  0  0  0  0
  -33.3108    1.6584  -10.1463 O   0  0  0  0  0  0  0  0  0  0  0  0
  -33.1767    2.8419   -9.8356 C   0  0  0  0  0  0  0  0  0  0  0  0
  -30.6762    2.8691  -10.2090 C   0  0  0  0  0  0  0  0  0  0  0  0
  -24.6317    9.3029   -9.9516 O   0  5  0  0  0  0  0  0  0  0  0  0
  -26.9294    9.3317   -9.9228 O   0  0  0  0  0  0  0  0  0  0  0  0
  1 17  1  0  0  0  0
  1 20  1  0  0  0  0
  2 15  1  6  0  0  0
  2  3  1  0  0  0  0
  2 11  1  0  0  0  0
  3  5  1  0  0  0  0
  4 16  1  1  0  0  0
  4 21  1  0  0  0  0
  4 22  2  0  0  0  0
  4 14  1  0  0  0  0
  5  1  1  1  0  0  0
  5  8  1  0  0  0  0
  6 17  2  0  0  0  0
  6 12  1  0  0  0  0
  8  7  1  6  0  0  0
  8 11  1  0  0  0  0
  9 19  1  0  0  0  0
 11 10  1  1  0  0  0
 12 20  2  0  0  0  0
 12 19  1  0  0  0  0
 13 20  1  0  0  0  0
 14 15  1  0  0  0  0
 18 19  2  0  0  0  0
M  CHG  1  21  -1
M  END
>  <CHROM.1>
48.56616349,174.24799493,62.77293750,-177.70982697,3.17895231,-28.47313411
5.20183714,-10.02508504,-2.49710832,0.28737260,0.47412959

>  <Name>
ligand

>  <RI>
0

>  <Rbt.Current_Directory>
/home/itssahil/PROJECTS/Mol_Feturizer/Test_systems_manuscript/rnas/4xwf

>  <Rbt.Executable>
rbdock ($Id: //depot/dev/client3/rdock/2013.1/src/exe/rbdock.cxx#4 $)

>  <Rbt.Library>
libRbt.so (2013.1, Build901 2013/11/27)

>  <Rbt.Parameter_File>
/export/apps/rDock/src/rDock_2013.1_src/data/scripts/dock_solv.prm

>  <Rbt.Receptor>
prm/pocket_docking_2.prm

>  <SCORE>
-2.43502

>  <SCORE.INTER>
-1.26802

>  <SCORE.INTER.CONST>
1

>  <SCORE.INTER.POLAR>
0

>  <SCORE.INTER.ROT>
5

>  <SCORE.INTER.SOLV>
11.3515

>  <SCORE.INTER.VDW>
-11.5625

>  <SCORE.INTER.norm>
-0.0576374

>  <SCORE.INTRA>
-1.167

>  <SCORE.INTRA.DIHEDRAL>
-1.85051

>  <SCORE.INTRA.DIHEDRAL.0>
3.49807

>  <SCORE.INTRA.POLAR>
0

>  <SCORE.INTRA.POLAR.0>
0

>  <SCORE.INTRA.REPUL>
0

>  <SCORE.INTRA.REPUL.0>
0

>  <SCORE.INTRA.SOLV>
-0.575527

>  <SCORE.INTRA.SOLV.lig_0>
-73.062

>  <SCORE.INTRA.VDW>
0.0460164

>  <SCORE.INTRA.VDW.0>
-1.83782

>  <SCORE.INTRA.norm>
-0.0530455

>  <SCORE.RESTR>
0

>  <SCORE.RESTR.CAVITY>
0

>  <SCORE.RESTR.norm>
0

>  <SCORE.SYSTEM>
0

>  <SCORE.SYSTEM.CONST>
0

>  <SCORE.SYSTEM.DIHEDRAL>
0

>  <SCORE.SYSTEM.SOLV>
0

>  <SCORE.SYSTEM.norm>
0

>  <SCORE.heavy>
22

>  <SCORE.norm>
-0.110683

>  <RMSD>
1.354

$$$$
ligand
 OpenBabel02271912143D
libRbt.so/2013.1/901 2013/11/27
 22 23  0  0  0  0  0  0  0  0999 V2000
  -29.7137    3.7330  -10.0344 N   0  0  0  0  0  0  0  0  0  0  0  0
  -26.5258    4.8002   -9.6459 C   0  0  1  0  0  0  0  0  0  0  0  0
  -27.5755    3.9021   -9.1862 O   0  0  0  0  0  0  0  0  0  0  0  0
  -25.7493    8.4600   -9.0444 P   0  0  1  0  0  0  0  0  0  0  0  0
  -28.3783    3.5383  -10.3209 C   0  0  2  0  0  0  0  0  0  0  0  0
  -31.5657    4.6928   -9.4345 N   0  0  0  0  0  0  0  0  0  0  0  0
  -28.2979    3.9899  -12.6630 O   0  0  0  0  0  0  0  0  0  0  0  0
  -28.0257    4.5278  -11.3637 C   0  0  2  0  0  0  0  0  0  0  0  0
  -34.3006    3.5917   -9.4690 N   0  0  0  0  0  0  0  0  0  0  0  0
  -25.8128    3.6899  -11.5834 O   0  0  0  0  0  0  0  0  0  0  0  0
  -26.6124    4.7920  -11.1227 C   0  0  2  0  0  0  0  0  0  0  0  0
  -31.8511    3.4436   -9.8328 C   0  0  0  0  0  0  0  0  0  0  0  0
  -30.5561    1.5205  -10.7207 N   0  0  0  0  0  0  0  0  0  0  0  0
  -25.7561    6.9500   -9.4668 O   0  0  0  0  0  0  0  0  0  0  0  0
  -26.8277    6.1485   -9.0884 C   0  0  0  0  0  0  0  0  0  0  0  0
  -27.0384    9.0326   -9.7378 O   0  0  0  0  0  0  0  0  0  0  0  0
  -30.2359    4.8679   -9.5551 C   0  0  0  0  0  0  0  0  0  0  0  0
  -33.3400    1.6564  -10.1886 O   0  0  0  0  0  0  0  0  0  0  0  0
  -33.1925    2.8314   -9.8526 C   0  0  0  0  0  0  0  0  0  0  0  0
  -30.6903    2.8339  -10.2150 C   0  0  0  0  0  0  0  0  0  0  0  0
  -25.7476    8.5650   -7.5555 O   0  5  0  0  0  0  0  0  0  0  0  0
  -24.4624    9.0922   -9.3861 O   0  0  0  0  0  0  0  0  0  0  0  0
  1 17  1  0  0  0  0
  1 20  1  0  0  0  0
  2 15  1  1  0  0  0
  2  3  1  0  0  0  0
  2 11  1  0  0  0  0
  3  5  1  0  0  0  0
  4 16  1  6  0  0  0
  4 21  1  0  0  0  0
  4 22  2  0  0  0  0
  4 14  1  0  0  0  0
  5  1  1  1  0  0  0
  5  8  1  0  0  0  0
  6 17  2  0  0  0  0
  6 12  1  0  0  0  0
  8  7  1  6  0  0  0
  8 11  1  0  0  0  0
  9 19  1  0  0  0  0
 11 10  1  6  0  0  0
 12 20  2  0  0  0  0
 12 19  1  0  0  0  0
 13 20  1  0  0  0  0
 14 15  1  0  0  0  0
 18 19  2  0  0  0  0
M  CHG  1  21  -1
M  END
>  <CHROM.1>
52.01131652,175.77747218,-60.99803146,179.78285712,2.02837967,-28.46218688
5.12147723,-9.92254745,-2.50752613,0.26717918,0.51656088

>  <Name>
ligand

>  <RI>
0

>  <Rbt.Current_Directory>
/home/itssahil/PROJECTS/Mol_Feturizer/Test_systems_manuscript/rnas/4xwf

>  <Rbt.Executable>
rbdock ($Id: //depot/dev/client3/rdock/2013.1/src/exe/rbdock.cxx#4 $)

>  <Rbt.Library>
libRbt.so (2013.1, Build901 2013/11/27)

>  <Rbt.Parameter_File>
/export/apps/rDock/src/rDock_2013.1_src/data/scripts/dock_solv.prm

>  <Rbt.Receptor>
prm/pocket_docking_2.prm

>  <SCORE>
-2.30864

>  <SCORE.INTER>
-1.17401

>  <SCORE.INTER.CONST>
1

>  <SCORE.INTER.POLAR>
0

>  <SCORE.INTER.ROT>
5

>  <SCORE.INTER.SOLV>
11.4572

>  <SCORE.INTER.VDW>
-11.5351

>  <SCORE.INTER.norm>
-0.0533641

>  <SCORE.INTRA>
-1.13463

>  <SCORE.INTRA.DIHEDRAL>
-1.92413

>  <SCORE.INTRA.DIHEDRAL.0>
3.49807

>  <SCORE.INTRA.POLAR>
0

>  <SCORE.INTRA.POLAR.0>
0

>  <SCORE.INTRA.REPUL>
0

>  <SCORE.INTRA.REPUL.0>
0

>  <SCORE.INTRA.SOLV>
-0.632566

>  <SCORE.INTRA.SOLV.lig_0>
-73.062

>  <SCORE.INTRA.VDW>
0.143713

>  <SCORE.INTRA.VDW.0>
-1.83782

>  <SCORE.INTRA.norm>
-0.0515743

>  <SCORE.RESTR>
0

>  <SCORE.RESTR.CAVITY>
0

>  <SCORE.RESTR.norm>
0

>  <SCORE.SYSTEM>
0

>  <SCORE.SYSTEM.CONST>
0

>  <SCORE.SYSTEM.DIHEDRAL>
0

>  <SCORE.SYSTEM.SOLV>
0

>  <SCORE.SYSTEM.norm>
0

>  <SCORE.heavy>
22

>  <SCORE.norm>
-0.104938

>  <RMSD>
1.356

$$$$
ligand
 OpenBabel02271912143D
libRbt.so/2013.1/901 2013/11/27
 22 23  0  0  0  0  0  0  0  0999 V2000
  -29.7199    3.7576  -10.0069 N   0  0  0  0  0  0  0  0  0  0  0  0
  -26.5526    4.9118   -9.7094 C   0  0  1  0  0  0  0  0  0  0  0  0
  -27.5806    4.0232   -9.1866 O   0  0  0  0  0  0  0  0  0  0  0  0
  -25.8222    8.6070   -9.2989 P   0  0  1  0  0  0  0  0  0  0  0  0
  -28.3825    3.5726  -10.2904 C   0  0  2  0  0  0  0  0  0  0  0  0
  -31.5789    4.7019   -9.4044 N   0  0  0  0  0  0  0  0  0  0  0  0
  -28.3257    3.8778  -12.6567 O   0  0  0  0  0  0  0  0  0  0  0  0
  -28.0568    4.5016  -11.3957 C   0  0  2  0  0  0  0  0  0  0  0  0
  -34.3065    3.5834   -9.4481 N   0  0  0  0  0  0  0  0  0  0  0  0
  -25.8283    3.6969  -11.5787 O   0  0  0  0  0  0  0  0  0  0  0  0
  -26.6480    4.8092  -11.1821 C   0  0  2  0  0  0  0  0  0  0  0  0
  -31.8565    3.4552   -9.8159 C   0  0  0  0  0  0  0  0  0  0  0  0
  -30.5484    1.5476  -10.7178 N   0  0  0  0  0  0  0  0  0  0  0  0
  -25.8279    7.0843   -9.6730 O   0  0  0  0  0  0  0  0  0  0  0  0
  -26.8791    6.2860   -9.2353 C   0  0  0  0  0  0  0  0  0  0  0  0
  -25.7227    8.5909   -7.7303 O   0  0  0  0  0  0  0  0  0  0  0  0
  -30.2496    4.8850   -9.5184 C   0  0  0  0  0  0  0  0  0  0  0  0
  -33.3360    1.6672  -10.2044 O   0  0  0  0  0  0  0  0  0  0  0  0
  -33.1946    2.8363   -9.8464 C   0  0  0  0  0  0  0  0  0  0  0  0
  -30.6911    2.8552  -10.1998 C   0  0  0  0  0  0  0  0  0  0  0  0
  -24.6855    9.2887   -9.9853 O   0  5  0  0  0  0  0  0  0  0  0  0
  -26.9817    9.2955   -9.8940 O   0  0  0  0  0  0  0  0  0  0  0  0
  1 17  1  0  0  0  0
  1 20  1  0  0  0  0
  2 15  1  6  0  0  0
  2  3  1  0  0  0  0
  2 11  1  0  0  0  0
  3  5  1  0  0  0  0
  4 16  1  1  0  0  0
  4 21  1  0  0  0  0
  4 22  2  0  0  0  0
  4 14  1  0  0  0  0
  5  1  1  1  0  0  0
  5  8  1  0  0  0  0
  6 17  2  0  0  0  0
  6 12  1  0  0  0  0
  8  7  1  6  0  0  0
  8 11  1  0  0  0  0
  9 19  1  0  0  0  0
 11 10  1  1  0  0  0
 12 20  2  0  0  0  0
 12 19  1  0  0  0  0
 13 20  1  0  0  0  0
 14 15  1  0  0  0  0
 18 19  2  0  0  0  0
M  CHG  1  21  -1
M  END
>  <CHROM.1>
47.72194772,175.88129878,63.26861228,-177.86065567,1.45996280,-28.48919589
5.18224389,-10.00697261,-2.49462003,0.27938157,0.46571782

>  <Name>
ligand

>  <RI>
0

>  <Rbt.Current_Directory>
/home/itssahil/PROJECTS/Mol_Feturizer/Test_systems_manuscript/rnas/4xwf

>  <Rbt.Executable>
rbdock ($Id: //depot/dev/client3/rdock/2013.1/src/exe/rbdock.cxx#4 $)

>  <Rbt.Library>
libRbt.so (2013.1, Build901 2013/11/27)

>  <Rbt.Parameter_File>
/export/apps/rDock/src/rDock_2013.1_src/data/scripts/dock_solv.prm

>  <Rbt.Receptor>
prm/pocket_docking_2.prm

>  <SCORE>
-2.44942

>  <SCORE.INTER>
-1.27771

>  <SCORE.INTER.CONST>
1

>  <SCORE.INTER.POLAR>
0

>  <SCORE.INTER.ROT>
5

>  <SCORE.INTER.SOLV>
11.3849

>  <SCORE.INTER.VDW>
-11.5801

>  <SCORE.INTER.norm>
-0.0580776

>  <SCORE.INTRA>
-1.17171

>  <SCORE.INTRA.DIHEDRAL>
-1.91714

>  <SCORE.INTRA.DIHEDRAL.0>
3.49807

>  <SCORE.INTRA.POLAR>
0

>  <SCORE.INTRA.POLAR.0>
0

>  <SCORE.INTRA.REPUL>
0

>  <SCORE.INTRA.REPUL.0>
0

>  <SCORE.INTRA.SOLV>
-0.534201

>  <SCORE.INTRA.SOLV.lig_0>
-73.062

>  <SCORE.INTRA.VDW>
0.0539558

>  <SCORE.INTRA.VDW.0>
-1.83782

>  <SCORE.INTRA.norm>
-0.0532598

>  <SCORE.RESTR>
0

>  <SCORE.RESTR.CAVITY>
0

>  <SCORE.RESTR.norm>
0

>  <SCORE.SYSTEM>
0

>  <SCORE.SYSTEM.CONST>
0

>  <SCORE.SYSTEM.DIHEDRAL>
0

>  <SCORE.SYSTEM.SOLV>
0

>  <SCORE.SYSTEM.norm>
0

>  <SCORE.heavy>
22

>  <SCORE.norm>
-0.111337

>  <RMSD>
1.367

$$$$
ligand
 OpenBabel02271912143D
libRbt.so/2013.1/901 2013/11/27
 22 23  0  0  0  0  0  0  0  0999 V2000
  -29.6969    3.7897  -10.0445 N   0  0  0  0  0  0  0  0  0  0  0  0
  -26.5307    4.9428   -9.7320 C   0  0  1  0  0  0  0  0  0  0  0  0
  -27.5522    4.0339   -9.2318 O   0  0  0  0  0  0  0  0  0  0  0  0
  -25.8333    8.6354   -9.2455 P   0  0  1  0  0  0  0  0  0  0  0  0
  -28.3612    3.6184  -10.3441 C   0  0  2  0  0  0  0  0  0  0  0  0
  -31.5583    4.7150   -9.4201 N   0  0  0  0  0  0  0  0  0  0  0  0
  -28.3232    4.0035  -12.6992 O   0  0  0  0  0  0  0  0  0  0  0  0
  -28.0466    4.5852  -11.4198 C   0  0  2  0  0  0  0  0  0  0  0  0
  -34.2782    3.5769   -9.4573 N   0  0  0  0  0  0  0  0  0  0  0  0
  -25.8173    3.7940  -11.6466 O   0  0  0  0  0  0  0  0  0  0  0  0
  -26.6370    4.8898  -11.2065 C   0  0  2  0  0  0  0  0  0  0  0  0
  -31.8278    3.4652   -9.8274 C   0  0  0  0  0  0  0  0  0  0  0  0
  -30.5109    1.5706  -10.7439 N   0  0  0  0  0  0  0  0  0  0  0  0
  -25.8223    7.1193   -9.6451 O   0  0  0  0  0  0  0  0  0  0  0  0
  -26.8575    6.2993   -9.2093 C   0  0  0  0  0  0  0  0  0  0  0  0
  -25.7025    8.5949   -7.6797 O   0  0  0  0  0  0  0  0  0  0  0  0
  -30.2325    4.9119   -9.5504 C   0  0  0  0  0  0  0  0  0  0  0  0
  -33.2899    1.6541  -10.1729 O   0  0  0  0  0  0  0  0  0  0  0  0
  -33.1597    2.8323   -9.8413 C   0  0  0  0  0  0  0  0  0  0  0  0
  -30.6610    2.8771  -10.2250 C   0  0  0  0  0  0  0  0  0  0  0  0
  -24.7213    9.3467   -9.9423 O   0  5  0  0  0  0  0  0  0  0  0  0
  -27.0151    9.3149   -9.8062 O   0  0  0  0  0  0  0  0  0  0  0  0
  1 17  1  0  0  0  0
  1 20  1  0  0  0  0
  2 15  1  1  0  0  0
  2  3  1  0  0  0  0
  2 11  1  0  0  0  0
  3  5  1  0  0  0  0
  4 16  1  1  0  0  0
  4 21  1  0  0  0  0
  4 22  2  0  0  0  0
  4 14  1  0  0  0  0
  5  1  1  1  0  0  0
  5  8  1  0  0  0  0
  6 17  2  0  0  0  0
  6 12  1  0  0  0  0
  8  7  1  6  0  0  0
  8 11  1  0  0  0  0
  9 19  1  0  0  0  0
 11 10  1  1  0  0  0
 12 20  2  0  0  0  0
 12 19  1  0  0  0  0
 13 20  1  0  0  0  0
 14 15  1  0  0  0  0
 18 19  2  0  0  0  0
M  CHG  1  21  -1
M  END
>  <CHROM.1>
49.76037054,176.76670344,63.77193163,-178.90149081,2.82345804,-28.47590106
5.21602394,-10.00773601,-2.49307716,0.29023669,0.48517241

>  <Name>
ligand

>  <RI>
0

>  <Rbt.Current_Directory>
/home/itssahil/PROJECTS/Mol_Feturizer/Test_systems_manuscript/rnas/4xwf

>  <Rbt.Executable>
rbdock ($Id: //depot/dev/client3/rdock/2013.1/src/exe/rbdock.cxx#4 $)

>  <Rbt.Library>
libRbt.so (2013.1, Build901 2013/11/27)

>  <Rbt.Parameter_File>
/export/apps/rDock/src/rDock_2013.1_src/data/scripts/dock_solv.prm

>  <Rbt.Receptor>
prm/pocket_docking_2.prm

>  <SCORE>
-2.39308

>  <SCORE.INTER>
-1.2339

>  <SCORE.INTER.CONST>
1

>  <SCORE.INTER.POLAR>
0

>  <SCORE.INTER.ROT>
5

>  <SCORE.INTER.SOLV>
11.3594

>  <SCORE.INTER.VDW>
-11.5424

>  <SCORE.INTER.norm>
-0.0560866

>  <SCORE.INTRA>
-1.15917

>  <SCORE.INTRA.DIHEDRAL>
-1.93989

>  <SCORE.INTRA.DIHEDRAL.0>
3.49807

>  <SCORE.INTRA.POLAR>
0

>  <SCORE.INTRA.POLAR.0>
0

>  <SCORE.INTRA.REPUL>
0

>  <SCORE.INTRA.REPUL.0>
0

>  <SCORE.INTRA.SOLV>
-0.569176

>  <SCORE.INTRA.SOLV.lig_0>
-73.062

>  <SCORE.INTRA.VDW>
0.0953606

>  <SCORE.INTRA.VDW.0>
-1.83782

>  <SCORE.INTRA.norm>
-0.0526896

>  <SCORE.RESTR>
0

>  <SCORE.RESTR.CAVITY>
0

>  <SCORE.RESTR.norm>
0

>  <SCORE.SYSTEM>
0

>  <SCORE.SYSTEM.CONST>
0

>  <SCORE.SYSTEM.DIHEDRAL>
0

>  <SCORE.SYSTEM.SOLV>
0

>  <SCORE.SYSTEM.norm>
0

>  <SCORE.heavy>
22

>  <SCORE.norm>
-0.108776

>  <RMSD>
1.368

$$$$
ligand
 OpenBabel02271912143D
libRbt.so/2013.1/901 2013/11/27
 22 23  0  0  0  0  0  0  0  0999 V2000
  -29.7195    3.7614  -10.0125 N   0  0  0  0  0  0  0  0  0  0  0  0
  -26.5554    4.9245   -9.7163 C   0  0  1  0  0  0  0  0  0  0  0  0
  -27.5819    4.0357   -9.1908 O   0  0  0  0  0  0  0  0  0  0  0  0
  -25.8203    8.6175   -9.2947 P   0  0  1  0  0  0  0  0  0  0  0  0
  -28.3814    3.5784  -10.2936 C   0  0  2  0  0  0  0  0  0  0  0  0
  -31.5820    4.7047   -9.4189 N   0  0  0  0  0  0  0  0  0  0  0  0
  -28.3224    3.8732  -12.6612 O   0  0  0  0  0  0  0  0  0  0  0  0
  -28.0566    4.5033  -11.4025 C   0  0  2  0  0  0  0  0  0  0  0  0
  -34.3036    3.5714   -9.4382 N   0  0  0  0  0  0  0  0  0  0  0  0
  -25.8259    3.7031  -11.5793 O   0  0  0  0  0  0  0  0  0  0  0  0
  -26.6487    4.8152  -11.1886 C   0  0  2  0  0  0  0  0  0  0  0  0
  -31.8553    3.4539   -9.8207 C   0  0  0  0  0  0  0  0  0  0  0  0
  -30.5406    1.5432  -10.7063 N   0  0  0  0  0  0  0  0  0  0  0  0
  -25.8255    7.0950   -9.6699 O   0  0  0  0  0  0  0  0  0  0  0  0
  -26.8858    6.3001   -9.2486 C   0  0  0  0  0  0  0  0  0  0  0  0
  -25.7457    8.6000   -7.7248 O   0  0  0  0  0  0  0  0  0  0  0  0
  -30.2532    4.8911   -9.5334 C   0  0  0  0  0  0  0  0  0  0  0  0
  -33.3310    1.6630  -10.2113 O   0  0  0  0  0  0  0  0  0  0  0  0
  -33.1915    2.8305   -9.8472 C   0  0  0  0  0  0  0  0  0  0  0  0
  -30.6878    2.8545  -10.1989 C   0  0  0  0  0  0  0  0  0  0  0  0
  -24.6705    9.2956   -9.9625 O   0  5  0  0  0  0  0  0  0  0  0  0
  -26.9678    9.3105   -9.9077 O   0  0  0  0  0  0  0  0  0  0  0  0
  1 17  1  0  0  0  0
  1 20  1  0  0  0  0
  2 15  1  6  0  0  0
  2  3  1  0  0  0  0
  2 11  1  0  0  0  0
  3  5  1  0  0  0  0
  4 16  1  1  0  0  0
  4 21  1  0  0  0  0
  4 22  2  0  0  0  0
  4 14  1  0  0  0  0
  5  1  1  1  0  0  0
  5  8  1  0  0  0  0
  6 17  2  0  0  0  0
  6 12  1  0  0  0  0
  8  7  1  6  0  0  0
  8 11  1  0  0  0  0
  9 19  1  0  0  0  0
 11 10  1  1  0  0  0
 12 20  2  0  0  0  0
 12 19  1  0  0  0  0
 13 20  1  0  0  0  0
 14 15  1  0  0  0  0
 18 19  2  0  0  0  0
M  CHG  1  21  -1
M  END
>  <CHROM.1>
47.93233107,174.94883243,63.22401817,-177.74726897,0.58400172,-28.48804107
5.18689474,-10.00867035,-2.49324972,0.28084633,0.46700493

>  <Name>
ligand

>  <RI>
0

>  <Rbt.Current_Directory>
/home/itssahil/PROJECTS/Mol_Feturizer/Test_systems_manuscript/rnas/4xwf

>  <Rbt.Executable>
rbdock ($Id: //depot/dev/client3/rdock/2013.1/src/exe/rbdock.cxx#4 $)

>  <Rbt.Library>
libRbt.so (2013.1, Build901 2013/11/27)

>  <Rbt.Parameter_File>
/export/apps/rDock/src/rDock_2013.1_src/data/scripts/dock_solv.prm

>  <Rbt.Receptor>
prm/pocket_docking_2.prm

>  <SCORE>
-2.46002

>  <SCORE.INTER>
-1.28637

>  <SCORE.INTER.CONST>
1

>  <SCORE.INTER.POLAR>
0

>  <SCORE.INTER.ROT>
5

>  <SCORE.INTER.SOLV>
11.3235

>  <SCORE.INTER.VDW>
-11.5654

>  <SCORE.INTER.norm>
-0.0584712

>  <SCORE.INTRA>
-1.17369

>  <SCORE.INTRA.DIHEDRAL>
-1.88904

>  <SCORE.INTRA.DIHEDRAL.0>
3.49807

>  <SCORE.INTRA.POLAR>
0

>  <SCORE.INTRA.POLAR.0>
0

>  <SCORE.INTRA.REPUL>
0

>  <SCORE.INTRA.REPUL.0>
0

>  <SCORE.INTRA.SOLV>
-0.547216

>  <SCORE.INTRA.SOLV.lig_0>
-73.062

>  <SCORE.INTRA.VDW>
0.0444397

>  <SCORE.INTRA.VDW.0>
-1.83782

>  <SCORE.INTRA.norm>
-0.0533495

>  <SCORE.RESTR>
3.28466e-05

>  <SCORE.RESTR.CAVITY>
3.28466e-05

>  <SCORE.RESTR.norm>
1.49303e-06

>  <SCORE.SYSTEM>
0

>  <SCORE.SYSTEM.CONST>
0

>  <SCORE.SYSTEM.DIHEDRAL>
0

>  <SCORE.SYSTEM.SOLV>
0

>  <SCORE.SYSTEM.norm>
0

>  <SCORE.heavy>
22

>  <SCORE.norm>
-0.111819

>  <RMSD>
1.368

$$$$
ligand
 OpenBabel02271912143D
libRbt.so/2013.1/901 2013/11/27
 22 23  0  0  0  0  0  0  0  0999 V2000
  -29.5165    3.2225  -10.5747 N   0  0  0  0  0  0  0  0  0  0  0  0
  -26.4381    4.2556  -11.5279 C   0  0  1  0  0  0  0  0  0  0  0  0
  -27.2630    3.7013  -10.4639 O   0  0  0  0  0  0  0  0  0  0  0  0
  -26.5590    7.7338  -10.0311 P   0  0  1  0  0  0  0  0  0  0  0  0
  -28.2747    2.8791  -11.0679 C   0  0  2  0  0  0  0  0  0  0  0  0
  -31.1259    4.3802   -9.6911 N   0  0  0  0  0  0  0  0  0  0  0  0
  -28.7919    2.1982  -13.2960 O   0  0  0  0  0  0  0  0  0  0  0  0
  -28.2704    3.2661  -12.4965 C   0  0  2  0  0  0  0  0  0  0  0  0
  -33.9483    3.6130   -9.3157 N   0  0  0  0  0  0  0  0  0  0  0  0
  -26.1053    2.3575  -12.8623 O   0  0  0  0  0  0  0  0  0  0  0  0
  -26.8704    3.5706  -12.7657 C   0  0  2  0  0  0  0  0  0  0  0  0
  -31.6150    3.1800  -10.0387 C   0  0  0  0  0  0  0  0  0  0  0  0
  -30.7103    1.1356  -11.1182 N   0  0  0  0  0  0  0  0  0  0  0  0
  -26.3285    6.2155  -10.3477 O   0  0  0  0  0  0  0  0  0  0  0  0
  -26.7213    5.7173  -11.5852 C   0  0  0  0  0  0  0  0  0  0  0  0
  -28.1253    7.8568   -9.9833 O   0  0  0  0  0  0  0  0  0  0  0  0
  -29.8201    4.4017  -10.0198 C   0  0  0  0  0  0  0  0  0  0  0  0
  -33.3362    1.5782  -10.1348 O   0  0  0  0  0  0  0  0  0  0  0  0
  -33.0056    2.7283   -9.8464 C   0  0  0  0  0  0  0  0  0  0  0  0
  -30.6082    2.4464  -10.5985 C   0  0  0  0  0  0  0  0  0  0  0  0
  -25.8699    8.0914   -8.7563 O   0  5  0  0  0  0  0  0  0  0  0  0
  -25.8451    8.5839  -11.0008 O   0  0  0  0  0  0  0  0  0  0  0  0
  1 17  1  0  0  0  0
  1 20  1  0  0  0  0
  2 15  1  6  0  0  0
  2  3  1  0  0  0  0
  2 11  1  0  0  0  0
  3  5  1  0  0  0  0
  4 16  1  1  0  0  0
  4 21  1  0  0  0  0
  4 22  2  0  0  0  0
  4 14  1  0  0  0  0
  5  1  1  1  0  0  0
  5  8  1  0  0  0  0
  6 17  2  0  0  0  0
  6 12  1  0  0  0  0
  8  7  1  6  0  0  0
  8 11  1  0  0  0  0
  9 19  1  0  0  0  0
 11 10  1  1  0  0  0
 12 20  2  0  0  0  0
 12 19  1  0  0  0  0
 13 20  1  0  0  0  0
 14 15  1  0  0  0  0
 18 19  2  0  0  0  0
M  CHG  1  21  -1
M  END
>  <CHROM.1>
22.22165655,62.10631548,66.67333348,-176.81727240,3.16415893,-28.65370369
4.48788916,-10.76218146,-2.53419463,0.39220574,0.50909994

>  <Name>
ligand

>  <RI>
0

>  <Rbt.Current_Directory>
/home/itssahil/PROJECTS/Mol_Feturizer/Test_systems_manuscript/rnas/4xwf

>  <Rbt.Executable>
rbdock ($Id: //depot/dev/client3/rdock/2013.1/src/exe/rbdock.cxx#4 $)

>  <Rbt.Library>
libRbt.so (2013.1, Build901 2013/11/27)

>  <Rbt.Parameter_File>
/export/apps/rDock/src/rDock_2013.1_src/data/scripts/dock_solv.prm

>  <Rbt.Receptor>
prm/pocket_docking_3.prm

>  <SCORE>
-2.50881

>  <SCORE.INTER>
-1.3522

>  <SCORE.INTER.CONST>
1

>  <SCORE.INTER.POLAR>
0

>  <SCORE.INTER.ROT>
5

>  <SCORE.INTER.SOLV>
12.362

>  <SCORE.INTER.VDW>
-11.9555

>  <SCORE.INTER.norm>
-0.0614634

>  <SCORE.INTRA>
-1.15662

>  <SCORE.INTRA.DIHEDRAL>
-1.88446

>  <SCORE.INTRA.DIHEDRAL.0>
3.49807

>  <SCORE.INTRA.POLAR>
0

>  <SCORE.INTRA.POLAR.0>
0

>  <SCORE.INTRA.REPUL>
0

>  <SCORE.INTRA.REPUL.0>
0

>  <SCORE.INTRA.SOLV>
0.326043

>  <SCORE.INTRA.SOLV.lig_0>
-73.062

>  <SCORE.INTRA.VDW>
-0.377412

>  <SCORE.INTRA.VDW.0>
-1.83782

>  <SCORE.INTRA.norm>
-0.0525736

>  <SCORE.RESTR>
0

>  <SCORE.RESTR.CAVITY>
0

>  <SCORE.RESTR.norm>
0

>  <SCORE.SYSTEM>
0

>  <SCORE.SYSTEM.CONST>
0

>  <SCORE.SYSTEM.DIHEDRAL>
0

>  <SCORE.SYSTEM.SOLV>
0

>  <SCORE.SYSTEM.norm>
0

>  <SCORE.heavy>
22

>  <SCORE.norm>
-0.114037

>  <RMSD>
1.371

$$$$
ligand
 OpenBabel02271912143D
libRbt.so/2013.1/901 2013/11/27
 22 23  0  0  0  0  0  0  0  0999 V2000
  -29.7045    3.7858  -10.0152 N   0  0  0  0  0  0  0  0  0  0  0  0
  -26.5418    4.9491   -9.7044 C   0  0  1  0  0  0  0  0  0  0  0  0
  -27.5663    4.0503   -9.1920 O   0  0  0  0  0  0  0  0  0  0  0  0
  -25.8154    8.6374   -9.2298 P   0  0  1  0  0  0  0  0  0  0  0  0
  -28.3664    3.6095  -10.3010 C   0  0  2  0  0  0  0  0  0  0  0  0
  -31.5698    4.7200   -9.4157 N   0  0  0  0  0  0  0  0  0  0  0  0
  -28.3111    3.9428  -12.6636 O   0  0  0  0  0  0  0  0  0  0  0  0
  -28.0446    4.5528  -11.3953 C   0  0  2  0  0  0  0  0  0  0  0  0
  -34.2880    3.5786   -9.4424 N   0  0  0  0  0  0  0  0  0  0  0  0
  -25.8130    3.7592  -11.5879 O   0  0  0  0  0  0  0  0  0  0  0  0
  -26.6370    4.8635  -11.1781 C   0  0  2  0  0  0  0  0  0  0  0  0
  -31.8380    3.4674   -9.8153 C   0  0  0  0  0  0  0  0  0  0  0  0
  -30.5165    1.5627  -10.7039 N   0  0  0  0  0  0  0  0  0  0  0  0
  -25.8155    7.1198   -9.6243 O   0  0  0  0  0  0  0  0  0  0  0  0
  -26.8738    6.3164   -9.2141 C   0  0  0  0  0  0  0  0  0  0  0  0
  -25.7793    8.6000   -7.6589 O   0  0  0  0  0  0  0  0  0  0  0  0
  -30.2424    4.9132   -9.5353 C   0  0  0  0  0  0  0  0  0  0  0  0
  -33.3035    1.6633  -10.1827 O   0  0  0  0  0  0  0  0  0  0  0  0
  -33.1710    2.8370   -9.8364 C   0  0  0  0  0  0  0  0  0  0  0  0
  -30.6687    2.8737  -10.1972 C   0  0  0  0  0  0  0  0  0  0  0  0
  -24.6477    9.3203   -9.8607 O   0  5  0  0  0  0  0  0  0  0  0  0
  -26.9456    9.3416   -9.8618 O   0  0  0  0  0  0  0  0  0  0  0  0
  1 17  1  0  0  0  0
  1 20  1  0  0  0  0
  2 15  1  6  0  0  0
  2  3  1  0  0  0  0
  2 11  1  0  0  0  0
  3  5  1  0  0  0  0
  4 16  1  1  0  0  0
  4 21  1  0  0  0  0
  4 22  2  0  0  0  0
  4 14  1  0  0  0  0
  5  1  1  1  0  0  0
  5  8  1  0  0  0  0
  6 17  2  0  0  0  0
  6 12  1  0  0  0  0
  8  7  1  6  0  0  0
  8 11  1  0  0  0  0
  9 19  1  0  0  0  0
 11 10  1  1  0  0  0
 12 20  2  0  0  0  0
 12 19  1  0  0  0  0
 13 20  1  0  0  0  0
 14 15  1  0  0  0  0
 18 19  2  0  0  0  0
M  CHG  1  21  -1
M  END
>  <CHROM.1>
48.94670770,174.97134957,61.83078313,-178.00529551,1.50319058,-28.47536031
5.21134964,-9.98627601,-2.49209738,0.28460601,0.47952842

>  <Name>
ligand

>  <RI>
0

>  <Rbt.Current_Directory>
/home/itssahil/PROJECTS/Mol_Feturizer/Test_systems_manuscript/rnas/4xwf

>  <Rbt.Executable>
rbdock ($Id: //depot/dev/client3/rdock/2013.1/src/exe/rbdock.cxx#4 $)

>  <Rbt.Library>
libRbt.so (2013.1, Build901 2013/11/27)

>  <Rbt.Parameter_File>
/export/apps/rDock/src/rDock_2013.1_src/data/scripts/dock_solv.prm

>  <Rbt.Receptor>
prm/pocket_docking_2.prm

>  <SCORE>
-2.42774

>  <SCORE.INTER>
-1.25858

>  <SCORE.INTER.CONST>
1

>  <SCORE.INTER.POLAR>
0

>  <SCORE.INTER.ROT>
5

>  <SCORE.INTER.SOLV>
11.2219

>  <SCORE.INTER.VDW>
-11.513

>  <SCORE.INTER.norm>
-0.0572083

>  <SCORE.INTRA>
-1.16916

>  <SCORE.INTRA.DIHEDRAL>
-1.89598

>  <SCORE.INTRA.DIHEDRAL.0>
3.49807

>  <SCORE.INTRA.POLAR>
0

>  <SCORE.INTRA.POLAR.0>
0

>  <SCORE.INTRA.REPUL>
0

>  <SCORE.INTRA.REPUL.0>
0

>  <SCORE.INTRA.SOLV>
-0.582513

>  <SCORE.INTRA.SOLV.lig_0>
-73.062

>  <SCORE.INTRA.VDW>
0.070091

>  <SCORE.INTRA.VDW.0>
-1.83782

>  <SCORE.INTRA.norm>
-0.0531435

>  <SCORE.RESTR>
0

>  <SCORE.RESTR.CAVITY>
0

>  <SCORE.RESTR.norm>
0

>  <SCORE.SYSTEM>
0

>  <SCORE.SYSTEM.CONST>
0

>  <SCORE.SYSTEM.DIHEDRAL>
0

>  <SCORE.SYSTEM.SOLV>
0

>  <SCORE.SYSTEM.norm>
0

>  <SCORE.heavy>
22

>  <SCORE.norm>
-0.110352

>  <RMSD>
1.377

$$$$
ligand
 OpenBabel02271912143D
libRbt.so/2013.1/901 2013/11/27
 22 23  0  0  0  0  0  0  0  0999 V2000
  -29.7225    3.7688  -10.0010 N   0  0  0  0  0  0  0  0  0  0  0  0
  -26.5553    4.9115   -9.6609 C   0  0  1  0  0  0  0  0  0  0  0  0
  -27.5881    4.0146   -9.1621 O   0  0  0  0  0  0  0  0  0  0  0  0
  -25.8297    8.6002   -9.1858 P   0  0  1  0  0  0  0  0  0  0  0  0
  -28.3836    3.5871  -10.2795 C   0  0  2  0  0  0  0  0  0  0  0  0
  -31.5876    4.7114   -9.4147 N   0  0  0  0  0  0  0  0  0  0  0  0
  -28.3112    3.9383  -12.6390 O   0  0  0  0  0  0  0  0  0  0  0  0
  -28.0494    4.5369  -11.3643 C   0  0  2  0  0  0  0  0  0  0  0  0
  -34.3085    3.5763   -9.4432 N   0  0  0  0  0  0  0  0  0  0  0  0
  -25.8211    3.7321  -11.5489 O   0  0  0  0  0  0  0  0  0  0  0  0
  -26.6415    4.8379  -11.1358 C   0  0  2  0  0  0  0  0  0  0  0  0
  -31.8578    3.4577   -9.8097 C   0  0  0  0  0  0  0  0  0  0  0  0
  -30.5380    1.5450  -10.6832 N   0  0  0  0  0  0  0  0  0  0  0  0
  -25.8162    7.0770   -9.5573 O   0  0  0  0  0  0  0  0  0  0  0  0
  -26.8827    6.2768   -9.1621 C   0  0  0  0  0  0  0  0  0  0  0  0
  -25.7909    8.5869   -7.6145 O   0  0  0  0  0  0  0  0  0  0  0  0
  -30.2591    4.9000   -9.5288 C   0  0  0  0  0  0  0  0  0  0  0  0
  -33.3277    1.6580  -10.1807 O   0  0  0  0  0  0  0  0  0  0  0  0
  -33.1926    2.8314   -9.8342 C   0  0  0  0  0  0  0  0  0  0  0  0
  -30.6886    2.8588  -10.1833 C   0  0  0  0  0  0  0  0  0  0  0  0
  -24.6693    9.2844   -9.8288 O   0  5  0  0  0  0  0  0  0  0  0  0
  -26.9674    9.2842   -9.8265 O   0  0  0  0  0  0  0  0  0  0  0  0
  1 17  1  0  0  0  0
  1 20  1  0  0  0  0
  2 15  1  1  0  0  0
  2  3  1  0  0  0  0
  2 11  1  0  0  0  0
  3  5  1  0  0  0  0
  4 16  1  1  0  0  0
  4 21  1  0  0  0  0
  4 22  2  0  0  0  0
  4 14  1  0  0  0  0
  5  1  1  1  0  0  0
  5  8  1  0  0  0  0
  6 17  2  0  0  0  0
  6 12  1  0  0  0  0
  8  7  1  6  0  0  0
  8 11  1  0  0  0  0
  9 19  1  0  0  0  0
 11 10  1  1  0  0  0
 12 20  2  0  0  0  0
 12 19  1  0  0  0  0
 13 20  1  0  0  0  0
 14 15  1  0  0  0  0
 18 19  2  0  0  0  0
M  CHG  1  21  -1
M  END
>  <CHROM.1>
49.67951133,174.87316866,63.42736097,-179.74345593,1.21783743,-28.49016688
5.18784988,-9.95860916,-2.49284454,0.27758115,0.47969407

>  <Name>
ligand

>  <RI>
0

>  <Rbt.Current_Directory>
/home/itssahil/PROJECTS/Mol_Feturizer/Test_systems_manuscript/rnas/4xwf

>  <Rbt.Executable>
rbdock ($Id: //depot/dev/client3/rdock/2013.1/src/exe/rbdock.cxx#4 $)

>  <Rbt.Library>
libRbt.so (2013.1, Build901 2013/11/27)

>  <Rbt.Parameter_File>
/export/apps/rDock/src/rDock_2013.1_src/data/scripts/dock_solv.prm

>  <Rbt.Receptor>
prm/pocket_docking_2.prm

>  <SCORE>
-2.43806

>  <SCORE.INTER>
-1.27018

>  <SCORE.INTER.CONST>
1

>  <SCORE.INTER.POLAR>
0

>  <SCORE.INTER.ROT>
5

>  <SCORE.INTER.SOLV>
11.248

>  <SCORE.INTER.VDW>
-11.5295

>  <SCORE.INTER.norm>
-0.0577356

>  <SCORE.INTRA>
-1.16788

>  <SCORE.INTRA.DIHEDRAL>
-1.90469

>  <SCORE.INTRA.DIHEDRAL.0>
3.49807

>  <SCORE.INTRA.POLAR>
0

>  <SCORE.INTRA.POLAR.0>
0

>  <SCORE.INTRA.REPUL>
0

>  <SCORE.INTRA.REPUL.0>
0

>  <SCORE.INTRA.SOLV>
-0.56569

>  <SCORE.INTRA.SOLV.lig_0>
-73.062

>  <SCORE.INTRA.VDW>
0.0673065

>  <SCORE.INTRA.VDW.0>
-1.83782

>  <SCORE.INTRA.norm>
-0.0530855

>  <SCORE.RESTR>
0

>  <SCORE.RESTR.CAVITY>
0

>  <SCORE.RESTR.norm>
0

>  <SCORE.SYSTEM>
0

>  <SCORE.SYSTEM.CONST>
0

>  <SCORE.SYSTEM.DIHEDRAL>
0

>  <SCORE.SYSTEM.SOLV>
0

>  <SCORE.SYSTEM.norm>
0

>  <SCORE.heavy>
22

>  <SCORE.norm>
-0.110821

>  <RMSD>
1.387

$$$$
ligand
 OpenBabel02271912143D
libRbt.so/2013.1/901 2013/11/27
 22 23  0  0  0  0  0  0  0  0999 V2000
  -29.7158    3.7859  -10.0170 N   0  0  0  0  0  0  0  0  0  0  0  0
  -26.5531    4.9418   -9.6802 C   0  0  1  0  0  0  0  0  0  0  0  0
  -27.5820    4.0414   -9.1796 O   0  0  0  0  0  0  0  0  0  0  0  0
  -25.8143    8.6215   -9.1594 P   0  0  1  0  0  0  0  0  0  0  0  0
  -28.3764    3.6092  -10.2961 C   0  0  2  0  0  0  0  0  0  0  0  0
  -31.5854    4.7233   -9.4367 N   0  0  0  0  0  0  0  0  0  0  0  0
  -28.3067    3.9576  -12.6561 O   0  0  0  0  0  0  0  0  0  0  0  0
  -28.0466    4.5590  -11.3823 C   0  0  2  0  0  0  0  0  0  0  0  0
  -34.3001    3.5732   -9.4522 N   0  0  0  0  0  0  0  0  0  0  0  0
  -25.8152    3.7629  -11.5670 O   0  0  0  0  0  0  0  0  0  0  0  0
  -26.6398    4.8659  -11.1550 C   0  0  2  0  0  0  0  0  0  0  0  0
  -31.8490    3.4644   -9.8192 C   0  0  0  0  0  0  0  0  0  0  0  0
  -30.5196    1.5510  -10.6766 N   0  0  0  0  0  0  0  0  0  0  0  0
  -25.8157    7.1074   -9.5670 O   0  0  0  0  0  0  0  0  0  0  0  0
  -26.8857    6.3064   -9.1830 C   0  0  0  0  0  0  0  0  0  0  0  0
  -25.7442    8.5707   -7.5900 O   0  0  0  0  0  0  0  0  0  0  0  0
  -30.2582    4.9184   -9.5548 C   0  0  0  0  0  0  0  0  0  0  0  0
  -33.3089    1.6522  -10.1685 O   0  0  0  0  0  0  0  0  0  0  0  0
  -33.1802    2.8302   -9.8355 C   0  0  0  0  0  0  0  0  0  0  0  0
  -30.6770    2.8686  -10.1890 C   0  0  0  0  0  0  0  0  0  0  0  0
  -24.6638    9.3156   -9.8093 O   0  5  0  0  0  0  0  0  0  0  0  0
  -26.9613    9.3254   -9.7608 O   0  0  0  0  0  0  0  0  0  0  0  0
  1 17  1  0  0  0  0
  1 20  1  0  0  0  0
  2 15  1  6  0  0  0
  2  3  1  0  0  0  0
  2 11  1  0  0  0  0
  3  5  1  0  0  0  0
  4 16  1  1  0  0  0
  4 21  1  0  0  0  0
  4 22  2  0  0  0  0
  4 14  1  0  0  0  0
  5  1  1  1  0  0  0
  5  8  1  0  0  0  0
  6 17  2  0  0  0  0
  6 12  1  0  0  0  0
  8  7  1  6  0  0  0
  8 11  1  0  0  0  0
  9 19  1  0  0  0  0
 11 10  1  1  0  0  0
 12 20  2  0  0  0  0
 12 19  1  0  0  0  0
 13 20  1  0  0  0  0
 14 15  1  0  0  0  0
 18 19  2  0  0  0  0
M  CHG  1  21  -1
M  END
>  <CHROM.1>
50.16656124,174.23754605,64.18277897,-178.05933447,1.33508784,-28.48097354
5.20543005,-9.96028666,-2.49158900,0.28126736,0.48737507

>  <Name>
ligand

>  <RI>
0

>  <Rbt.Current_Directory>
/home/itssahil/PROJECTS/Mol_Feturizer/Test_systems_manuscript/rnas/4xwf

>  <Rbt.Executable>
rbdock ($Id: //depot/dev/client3/rdock/2013.1/src/exe/rbdock.cxx#4 $)

>  <Rbt.Library>
libRbt.so (2013.1, Build901 2013/11/27)

>  <Rbt.Parameter_File>
/export/apps/rDock/src/rDock_2013.1_src/data/scripts/dock_solv.prm

>  <Rbt.Receptor>
prm/pocket_docking_2.prm

>  <SCORE>
-2.40767

>  <SCORE.INTER>
-1.24347

>  <SCORE.INTER.CONST>
1

>  <SCORE.INTER.POLAR>
0

>  <SCORE.INTER.ROT>
5

>  <SCORE.INTER.SOLV>
11.2015

>  <SCORE.INTER.VDW>
-11.4961

>  <SCORE.INTER.norm>
-0.0565215

>  <SCORE.INTRA>
-1.1642

>  <SCORE.INTRA.DIHEDRAL>
-1.85567

>  <SCORE.INTRA.DIHEDRAL.0>
3.49807

>  <SCORE.INTRA.POLAR>
0

>  <SCORE.INTRA.POLAR.0>
0

>  <SCORE.INTRA.REPUL>
0

>  <SCORE.INTRA.REPUL.0>
0

>  <SCORE.INTRA.SOLV>
-0.603891

>  <SCORE.INTRA.SOLV.lig_0>
-73.062

>  <SCORE.INTRA.VDW>
0.0655824

>  <SCORE.INTRA.VDW.0>
-1.83782

>  <SCORE.INTRA.norm>
-0.0529181

>  <SCORE.RESTR>
0

>  <SCORE.RESTR.CAVITY>
0

>  <SCORE.RESTR.norm>
0

>  <SCORE.SYSTEM>
0

>  <SCORE.SYSTEM.CONST>
0

>  <SCORE.SYSTEM.DIHEDRAL>
0

>  <SCORE.SYSTEM.SOLV>
0

>  <SCORE.SYSTEM.norm>
0

>  <SCORE.heavy>
22

>  <SCORE.norm>
-0.10944

>  <RMSD>
1.387

$$$$
ligand
 OpenBabel02271912143D
libRbt.so/2013.1/901 2013/11/27
 22 23  0  0  0  0  0  0  0  0999 V2000
  -29.7501    3.7535   -9.9920 N   0  0  0  0  0  0  0  0  0  0  0  0
  -26.5888    4.9178   -9.6713 C   0  0  1  0  0  0  0  0  0  0  0  0
  -27.6204    4.0316   -9.1514 O   0  0  0  0  0  0  0  0  0  0  0  0
  -25.8548    8.6115   -9.2552 P   0  0  1  0  0  0  0  0  0  0  0  0
  -28.4094    3.5690  -10.2595 C   0  0  2  0  0  0  0  0  0  0  0  0
  -31.6175    4.6988   -9.4173 N   0  0  0  0  0  0  0  0  0  0  0  0
  -28.3279    3.8527  -12.6278 O   0  0  0  0  0  0  0  0  0  0  0  0
  -28.0740    4.4887  -11.3697 C   0  0  2  0  0  0  0  0  0  0  0  0
  -34.3491    3.5933   -9.5456 N   0  0  0  0  0  0  0  0  0  0  0  0
  -25.8419    3.6876  -11.5215 O   0  0  0  0  0  0  0  0  0  0  0  0
  -26.6682    4.8015  -11.1439 C   0  0  2  0  0  0  0  0  0  0  0  0
  -31.8881    3.4482   -9.8218 C   0  0  0  0  0  0  0  0  0  0  0  0
  -30.5665    1.5362  -10.6942 N   0  0  0  0  0  0  0  0  0  0  0  0
  -25.8576    7.0879   -9.6254 O   0  0  0  0  0  0  0  0  0  0  0  0
  -26.9235    6.2955   -9.2133 C   0  0  0  0  0  0  0  0  0  0  0  0
  -25.7771    8.5995   -7.6854 O   0  0  0  0  0  0  0  0  0  0  0  0
  -30.2875    4.8837   -9.5184 C   0  0  0  0  0  0  0  0  0  0  0  0
  -33.3540    1.6382  -10.1563 O   0  0  0  0  0  0  0  0  0  0  0  0
  -33.2246    2.8263   -9.8620 C   0  0  0  0  0  0  0  0  0  0  0  0
  -30.7174    2.8476  -10.1882 C   0  0  0  0  0  0  0  0  0  0  0  0
  -24.7076    9.2897   -9.9275 O   0  5  0  0  0  0  0  0  0  0  0  0
  -27.0049    9.3001   -9.8683 O   0  0  0  0  0  0  0  0  0  0  0  0
  1 17  1  0  0  0  0
  1 20  1  0  0  0  0
  2 15  1  6  0  0  0
  2  3  1  0  0  0  0
  2 11  1  0  0  0  0
  3  5  1  0  0  0  0
  4 16  1  1  0  0  0
  4 21  1  0  0  0  0
  4 22  2  0  0  0  0
  4 14  1  0  0  0  0
  5  1  1  1  0  0  0
  5  8  1  0  0  0  0
  6 17  2  0  0  0  0
  6 12  1  0  0  0  0
  8  7  1  6  0  0  0
  8 11  1  0  0  0  0
  9 19  1  0  0  0  0
 11 10  1  1  0  0  0
 12 20  2  0  0  0  0
 12 19  1  0  0  0  0
 13 20  1  0  0  0  0
 14 15  1  0  0  0  0
 18 19  2  0  0  0  0
M  CHG  1  21  -1
M  END
>  <CHROM.1>
47.65369639,174.80860886,63.99680259,-177.68728473,4.61589945,-28.51809102
5.17924222,-9.98329155,-2.48814153,0.26918523,0.45888072

>  <Name>
ligand

>  <RI>
0

>  <Rbt.Current_Directory>
/home/itssahil/PROJECTS/Mol_Feturizer/Test_systems_manuscript/rnas/4xwf

>  <Rbt.Executable>
rbdock ($Id: //depot/dev/client3/rdock/2013.1/src/exe/rbdock.cxx#4 $)

>  <Rbt.Library>
libRbt.so (2013.1, Build901 2013/11/27)

>  <Rbt.Parameter_File>
/export/apps/rDock/src/rDock_2013.1_src/data/scripts/dock_solv.prm

>  <Rbt.Receptor>
prm/pocket_docking_2.prm

>  <SCORE>
-2.45425

>  <SCORE.INTER>
-1.28951

>  <SCORE.INTER.CONST>
1

>  <SCORE.INTER.POLAR>
0

>  <SCORE.INTER.ROT>
5

>  <SCORE.INTER.SOLV>
11.5846

>  <SCORE.INTER.VDW>
-11.6545

>  <SCORE.INTER.norm>
-0.0586142

>  <SCORE.INTRA>
-1.16474

>  <SCORE.INTRA.DIHEDRAL>
-1.84967

>  <SCORE.INTRA.DIHEDRAL.0>
3.49807

>  <SCORE.INTRA.POLAR>
0

>  <SCORE.INTRA.POLAR.0>
0

>  <SCORE.INTRA.REPUL>
0

>  <SCORE.INTRA.REPUL.0>
0

>  <SCORE.INTRA.SOLV>
-0.539778

>  <SCORE.INTRA.SOLV.lig_0>
-73.062

>  <SCORE.INTRA.VDW>
0.0299828

>  <SCORE.INTRA.VDW.0>
-1.83782

>  <SCORE.INTRA.norm>
-0.0529428

>  <SCORE.RESTR>
0

>  <SCORE.RESTR.CAVITY>
0

>  <SCORE.RESTR.norm>
0

>  <SCORE.SYSTEM>
0

>  <SCORE.SYSTEM.CONST>
0

>  <SCORE.SYSTEM.DIHEDRAL>
0

>  <SCORE.SYSTEM.SOLV>
0

>  <SCORE.SYSTEM.norm>
0

>  <SCORE.heavy>
22

>  <SCORE.norm>
-0.111557

>  <RMSD>
1.395

$$$$
ligand
 OpenBabel02271912143D
libRbt.so/2013.1/901 2013/11/27
 22 23  0  0  0  0  0  0  0  0999 V2000
  -29.7347    3.7597   -9.9921 N   0  0  0  0  0  0  0  0  0  0  0  0
  -26.5759    4.9280   -9.6609 C   0  0  1  0  0  0  0  0  0  0  0  0
  -27.6021    4.0272   -9.1554 O   0  0  0  0  0  0  0  0  0  0  0  0
  -25.8696    8.6220   -9.1997 P   0  0  1  0  0  0  0  0  0  0  0  0
  -28.3946    3.5857  -10.2695 C   0  0  2  0  0  0  0  0  0  0  0  0
  -31.6031    4.6867   -9.3914 N   0  0  0  0  0  0  0  0  0  0  0  0
  -28.3250    3.9202  -12.6316 O   0  0  0  0  0  0  0  0  0  0  0  0
  -28.0674    4.5301  -11.3613 C   0  0  2  0  0  0  0  0  0  0  0  0
  -34.3381    3.5939   -9.6117 N   0  0  0  0  0  0  0  0  0  0  0  0
  -25.8333    3.7402  -11.5403 O   0  0  0  0  0  0  0  0  0  0  0  0
  -26.6617    4.8429  -11.1352 C   0  0  2  0  0  0  0  0  0  0  0  0
  -31.8705    3.4423   -9.8165 C   0  0  0  0  0  0  0  0  0  0  0  0
  -30.5453    1.5516  -10.7290 N   0  0  0  0  0  0  0  0  0  0  0  0
  -25.8567    7.1010   -9.5805 O   0  0  0  0  0  0  0  0  0  0  0  0
  -26.9132    6.2944   -9.1720 C   0  0  0  0  0  0  0  0  0  0  0  0
  -25.8033    8.5996   -7.6295 O   0  0  0  0  0  0  0  0  0  0  0  0
  -30.2744    4.8791   -9.4959 C   0  0  0  0  0  0  0  0  0  0  0  0
  -33.3245    1.6140  -10.0999 O   0  0  0  0  0  0  0  0  0  0  0  0
  -33.2045    2.8155   -9.8608 C   0  0  0  0  0  0  0  0  0  0  0  0
  -30.6992    2.8533  -10.1993 C   0  0  0  0  0  0  0  0  0  0  0  0
  -24.7233    9.3146   -9.8587 O   0  5  0  0  0  0  0  0  0  0  0  0
  -27.0210    9.3052   -9.8164 O   0  0  0  0  0  0  0  0  0  0  0  0
  1 17  1  0  0  0  0
  1 20  1  0  0  0  0
  2 15  1  6  0  0  0
  2  3  1  0  0  0  0
  2 11  1  0  0  0  0
  3  5  1  0  0  0  0
  4 16  1  1  0  0  0
  4 21  1  0  0  0  0
  4 22  2  0  0  0  0
  4 14  1  0  0  0  0
  5  1  1  1  0  0  0
  5  8  1  0  0  0  0
  6 17  2  0  0  0  0
  6 12  1  0  0  0  0
  8  7  1  6  0  0  0
  8 11  1  0  0  0  0
  9 19  1  0  0  0  0
 11 10  1  1  0  0  0
 12 20  2  0  0  0  0
 12 19  1  0  0  0  0
 13 20  1  0  0  0  0
 14 15  1  0  0  0  0
 18 19  2  0  0  0  0
M  CHG  1  21  -1
M  END
>  <CHROM.1>
47.87788697,175.23638726,63.45284872,-178.64224706,8.82437408,-28.51217245
5.19092506,-9.96594284,-2.48490012,0.27265421,0.46958737

>  <Name>
ligand

>  <RI>
0

>  <Rbt.Current_Directory>
/home/itssahil/PROJECTS/Mol_Feturizer/Test_systems_manuscript/rnas/4xwf

>  <Rbt.Executable>
rbdock ($Id: //depot/dev/client3/rdock/2013.1/src/exe/rbdock.cxx#4 $)

>  <Rbt.Library>
libRbt.so (2013.1, Build901 2013/11/27)

>  <Rbt.Parameter_File>
/export/apps/rDock/src/rDock_2013.1_src/data/scripts/dock_solv.prm

>  <Rbt.Receptor>
prm/pocket_docking_2.prm

>  <SCORE>
-2.43717

>  <SCORE.INTER>
-1.29019

>  <SCORE.INTER.CONST>
1

>  <SCORE.INTER.POLAR>
0

>  <SCORE.INTER.ROT>
5

>  <SCORE.INTER.SOLV>
11.6351

>  <SCORE.INTER.VDW>
-11.6718

>  <SCORE.INTER.norm>
-0.0586448

>  <SCORE.INTRA>
-1.14699

>  <SCORE.INTRA.DIHEDRAL>
-1.81837

>  <SCORE.INTRA.DIHEDRAL.0>
3.49807

>  <SCORE.INTRA.POLAR>
0

>  <SCORE.INTRA.POLAR.0>
0

>  <SCORE.INTRA.REPUL>
0

>  <SCORE.INTRA.REPUL.0>
0

>  <SCORE.INTRA.SOLV>
-0.542248

>  <SCORE.INTRA.SOLV.lig_0>
-73.062

>  <SCORE.INTRA.VDW>
0.0333226

>  <SCORE.INTRA.VDW.0>
-1.83782

>  <SCORE.INTRA.norm>
-0.0521358

>  <SCORE.RESTR>
0

>  <SCORE.RESTR.CAVITY>
0

>  <SCORE.RESTR.norm>
0

>  <SCORE.SYSTEM>
0

>  <SCORE.SYSTEM.CONST>
0

>  <SCORE.SYSTEM.DIHEDRAL>
0

>  <SCORE.SYSTEM.SOLV>
0

>  <SCORE.SYSTEM.norm>
0

>  <SCORE.heavy>
22

>  <SCORE.norm>
-0.110781

>  <RMSD>
1.401

$$$$
ligand
 OpenBabel02271912143D
libRbt.so/2013.1/901 2013/11/27
 22 23  0  0  0  0  0  0  0  0999 V2000
  -29.7559    3.7617   -9.9861 N   0  0  0  0  0  0  0  0  0  0  0  0
  -26.5940    4.9160   -9.6362 C   0  0  1  0  0  0  0  0  0  0  0  0
  -27.6297    4.0255   -9.1321 O   0  0  0  0  0  0  0  0  0  0  0  0
  -25.8527    8.6019   -9.1639 P   0  0  1  0  0  0  0  0  0  0  0  0
  -28.4142    3.5780  -10.2495 C   0  0  2  0  0  0  0  0  0  0  0  0
  -31.6254    4.7055   -9.4157 N   0  0  0  0  0  0  0  0  0  0  0  0
  -28.3210    3.8905  -12.6137 O   0  0  0  0  0  0  0  0  0  0  0  0
  -28.0719    4.5106  -11.3467 C   0  0  2  0  0  0  0  0  0  0  0  0
  -34.3494    3.5800   -9.4896 N   0  0  0  0  0  0  0  0  0  0  0  0
  -25.8406    3.7072  -11.4978 O   0  0  0  0  0  0  0  0  0  0  0  0
  -26.6666    4.8180  -11.1105 C   0  0  2  0  0  0  0  0  0  0  0  0
  -31.8943    3.4557   -9.8235 C   0  0  0  0  0  0  0  0  0  0  0  0
  -30.5695    1.5456  -10.6950 N   0  0  0  0  0  0  0  0  0  0  0  0
  -25.8469    7.0789   -9.5370 O   0  0  0  0  0  0  0  0  0  0  0  0
  -26.9283    6.2887   -9.1630 C   0  0  0  0  0  0  0  0  0  0  0  0
  -25.8482    8.5865   -7.5922 O   0  0  0  0  0  0  0  0  0  0  0  0
  -30.2950    4.8909   -9.5120 C   0  0  0  0  0  0  0  0  0  0  0  0
  -33.3645    1.6624  -10.2234 O   0  0  0  0  0  0  0  0  0  0  0  0
  -33.2306    2.8336   -9.8692 C   0  0  0  0  0  0  0  0  0  0  0  0
  -30.7224    2.8560  -10.1871 C   0  0  0  0  0  0  0  0  0  0  0  0
  -24.6717    9.2747   -9.7806 O   0  5  0  0  0  0  0  0  0  0  0  0
  -26.9691    9.2983   -9.8283 O   0  0  0  0  0  0  0  0  0  0  0  0
  1 17  1  0  0  0  0
  1 20  1  0  0  0  0
  2 15  1  6  0  0  0
  2  3  1  0  0  0  0
  2 11  1  0  0  0  0
  3  5  1  0  0  0  0
  4 16  1  1  0  0  0
  4 21  1  0  0  0  0
  4 22  2  0  0  0  0
  4 14  1  0  0  0  0
  5  1  1  1  0  0  0
  5  8  1  0  0  0  0
  6 17  2  0  0  0  0
  6 12  1  0  0  0  0
  8  7  1  6  0  0  0
  8 11  1  0  0  0  0
  9 19  1  0  0  0  0
 11 10  1  1  0  0  0
 12 20  2  0  0  0  0
 12 19  1  0  0  0  0
 13 20  1  0  0  0  0
 14 15  1  0  0  0  0
 18 19  2  0  0  0  0
M  CHG  1  21  -1
M  END
>  <CHROM.1>
48.26384396,173.66312952,63.25935023,-178.78105959,1.37692902,-28.51998756
5.18320280,-9.94848512,-2.48880066,0.26804319,0.47513738

>  <Name>
ligand

>  <RI>
0

>  <Rbt.Current_Directory>
/home/itssahil/PROJECTS/Mol_Feturizer/Test_systems_manuscript/rnas/4xwf

>  <Rbt.Executable>
rbdock ($Id: //depot/dev/client3/rdock/2013.1/src/exe/rbdock.cxx#4 $)

>  <Rbt.Library>
libRbt.so (2013.1, Build901 2013/11/27)

>  <Rbt.Parameter_File>
/export/apps/rDock/src/rDock_2013.1_src/data/scripts/dock_solv.prm

>  <Rbt.Receptor>
prm/pocket_docking_2.prm

>  <SCORE>
-2.46333

>  <SCORE.INTER>
-1.29172

>  <SCORE.INTER.CONST>
1

>  <SCORE.INTER.POLAR>
0

>  <SCORE.INTER.ROT>
5

>  <SCORE.INTER.SOLV>
11.5597

>  <SCORE.INTER.VDW>
-11.6477

>  <SCORE.INTER.norm>
-0.0587148

>  <SCORE.INTRA>
-1.17161

>  <SCORE.INTRA.DIHEDRAL>
-1.85424

>  <SCORE.INTRA.DIHEDRAL.0>
3.49807

>  <SCORE.INTRA.POLAR>
0

>  <SCORE.INTRA.POLAR.0>
0

>  <SCORE.INTRA.REPUL>
0

>  <SCORE.INTRA.REPUL.0>
0

>  <SCORE.INTRA.SOLV>
-0.548941

>  <SCORE.INTRA.SOLV.lig_0>
-73.062

>  <SCORE.INTRA.VDW>
0.0299859

>  <SCORE.INTRA.VDW.0>
-1.83782

>  <SCORE.INTRA.norm>
-0.0532548

>  <SCORE.RESTR>
0

>  <SCORE.RESTR.CAVITY>
0

>  <SCORE.RESTR.norm>
0

>  <SCORE.SYSTEM>
0

>  <SCORE.SYSTEM.CONST>
0

>  <SCORE.SYSTEM.DIHEDRAL>
0

>  <SCORE.SYSTEM.SOLV>
0

>  <SCORE.SYSTEM.norm>
0

>  <SCORE.heavy>
22

>  <SCORE.norm>
-0.11197

>  <RMSD>
1.409

$$$$
ligand
 OpenBabel02271912143D
libRbt.so/2013.1/901 2013/11/27
 22 23  0  0  0  0  0  0  0  0999 V2000
  -29.6335    3.7314  -10.0784 N   0  0  0  0  0  0  0  0  0  0  0  0
  -26.4414    4.8382  -10.2729 C   0  0  1  0  0  0  0  0  0  0  0  0
  -27.4166    4.0532   -9.5295 O   0  0  0  0  0  0  0  0  0  0  0  0
  -25.6288    8.5356  -10.4375 P   0  0  1  0  0  0  0  0  0  0  0  0
  -28.3358    3.4776  -10.4718 C   0  0  2  0  0  0  0  0  0  0  0  0
  -31.4051    4.7907   -9.4072 N   0  0  0  0  0  0  0  0  0  0  0  0
  -28.5285    3.4599  -12.8505 O   0  0  0  0  0  0  0  0  0  0  0  0
  -28.1207    4.2412  -11.7214 C   0  0  2  0  0  0  0  0  0  0  0  0
  -33.2270    1.7232   -8.7714 N   0  0  0  0  0  0  0  0  0  0  0  0
  -25.9324    3.3655  -12.0241 O   0  0  0  0  0  0  0  0  0  0  0  0
  -26.6942    4.5406  -11.6998 C   0  0  2  0  0  0  0  0  0  0  0  0
  -31.7432    3.5127   -9.6376 C   0  0  0  0  0  0  0  0  0  0  0  0
  -30.5657    1.4775  -10.4343 N   0  0  0  0  0  0  0  0  0  0  0  0
  -25.6807    6.9756  -10.5872 O   0  0  0  0  0  0  0  0  0  0  0  0
  -26.7021    6.2713   -9.9593 C   0  0  0  0  0  0  0  0  0  0  0  0
  -26.9846    9.0032  -11.0806 O   0  0  0  0  0  0  0  0  0  0  0  0
  -30.0921    4.9223   -9.6761 C   0  0  0  0  0  0  0  0  0  0  0  0
  -34.0791    3.4941   -9.9218 O   0  0  0  0  0  0  0  0  0  0  0  0
  -33.0868    2.9318   -9.4588 C   0  0  0  0  0  0  0  0  0  0  0  0
  -30.6335    2.8400  -10.0634 C   0  0  0  0  0  0  0  0  0  0  0  0
  -25.4682    8.8970   -8.9982 O   0  5  0  0  0  0  0  0  0  0  0  0
  -24.3858    9.0750  -11.0175 O   0  0  0  0  0  0  0  0  0  0  0  0
  1 17  1  0  0  0  0
  1 20  1  0  0  0  0
  2 15  1  6  0  0  0
  2  3  1  0  0  0  0
  2 11  1  0  0  0  0
  3  5  1  0  0  0  0
  4 16  1  6  0  0  0
  4 21  1  0  0  0  0
  4 22  2  0  0  0  0
  4 14  1  0  0  0  0
  5  1  1  1  0  0  0
  5  8  1  0  0  0  0
  6 17  2  0  0  0  0
  6 12  1  0  0  0  0
  8  7  1  6  0  0  0
  8 11  1  0  0  0  0
  9 19  1  0  0  0  0
 11 10  1  1  0  0  0
 12 20  2  0  0  0  0
 12 19  1  0  0  0  0
 13 20  1  0  0  0  0
 14 15  1  0  0  0  0
 18 19  2  0  0  0  0
M  CHG  1  21  -1
M  END
>  <CHROM.1>
46.63453049,174.74120488,-61.29090609,-178.73624869,-132.47793596,-28.39848909
5.11305979,-10.39816769,-2.54968160,0.35270698,0.33661997

>  <Name>
ligand

>  <RI>
0

>  <Rbt.Current_Directory>
/home/itssahil/PROJECTS/Mol_Feturizer/Test_systems_manuscript/rnas/4xwf

>  <Rbt.Executable>
rbdock ($Id: //depot/dev/client3/rdock/2013.1/src/exe/rbdock.cxx#4 $)

>  <Rbt.Library>
libRbt.so (2013.1, Build901 2013/11/27)

>  <Rbt.Parameter_File>
/export/apps/rDock/src/rDock_2013.1_src/data/scripts/dock_solv.prm

>  <Rbt.Receptor>
prm/pocket_docking_2.prm

>  <SCORE>
-1.9259

>  <SCORE.INTER>
-0.782143

>  <SCORE.INTER.CONST>
1

>  <SCORE.INTER.POLAR>
0

>  <SCORE.INTER.ROT>
5

>  <SCORE.INTER.SOLV>
8.82446

>  <SCORE.INTER.VDW>
-10.3962

>  <SCORE.INTER.norm>
-0.035552

>  <SCORE.INTRA>
-1.14376

>  <SCORE.INTRA.DIHEDRAL>
-1.7403

>  <SCORE.INTRA.DIHEDRAL.0>
3.49807

>  <SCORE.INTRA.POLAR>
0

>  <SCORE.INTRA.POLAR.0>
0

>  <SCORE.INTRA.REPUL>
0

>  <SCORE.INTRA.REPUL.0>
0

>  <SCORE.INTRA.SOLV>
-0.33119

>  <SCORE.INTRA.SOLV.lig_0>
-73.062

>  <SCORE.INTRA.VDW>
-0.108012

>  <SCORE.INTRA.VDW.0>
-1.83782

>  <SCORE.INTRA.norm>
-0.051989

>  <SCORE.RESTR>
0

>  <SCORE.RESTR.CAVITY>
0

>  <SCORE.RESTR.norm>
0

>  <SCORE.SYSTEM>
0

>  <SCORE.SYSTEM.CONST>
0

>  <SCORE.SYSTEM.DIHEDRAL>
0

>  <SCORE.SYSTEM.SOLV>
0

>  <SCORE.SYSTEM.norm>
0

>  <SCORE.heavy>
22

>  <SCORE.norm>
-0.087541

>  <RMSD>
1.422

$$$$
ligand
 OpenBabel02271912143D
libRbt.so/2013.1/901 2013/11/27
 22 23  0  0  0  0  0  0  0  0999 V2000
  -29.6466    3.7937  -10.0484 N   0  0  0  0  0  0  0  0  0  0  0  0
  -26.4591    4.9187   -9.8848 C   0  0  1  0  0  0  0  0  0  0  0  0
  -27.4659    4.0233   -9.3330 O   0  0  0  0  0  0  0  0  0  0  0  0
  -25.6281    8.5729   -9.3256 P   0  0  1  0  0  0  0  0  0  0  0  0
  -28.3271    3.6075  -10.4054 C   0  0  2  0  0  0  0  0  0  0  0  0
  -31.4806    4.7534   -9.3954 N   0  0  0  0  0  0  0  0  0  0  0  0
  -28.3897    3.9750  -12.7627 O   0  0  0  0  0  0  0  0  0  0  0  0
  -28.0513    4.5634  -11.5013 C   0  0  2  0  0  0  0  0  0  0  0  0
  -33.1822    1.5307   -9.1041 N   0  0  0  0  0  0  0  0  0  0  0  0
  -25.8417    3.7491  -11.8201 O   0  0  0  0  0  0  0  0  0  0  0  0
  -26.6309    4.8559  -11.3527 C   0  0  2  0  0  0  0  0  0  0  0  0
  -31.7601    3.4756   -9.6949 C   0  0  0  0  0  0  0  0  0  0  0  0
  -30.4766    1.5251  -10.5387 N   0  0  0  0  0  0  0  0  0  0  0  0
  -25.6728    7.0661   -9.7572 O   0  0  0  0  0  0  0  0  0  0  0  0
  -26.7498    6.2820   -9.3586 C   0  0  0  0  0  0  0  0  0  0  0  0
  -25.5587    8.4953   -7.7573 O   0  0  0  0  0  0  0  0  0  0  0  0
  -30.1653    4.9467   -9.6102 C   0  0  0  0  0  0  0  0  0  0  0  0
  -34.0997    3.4383   -9.9436 O   0  0  0  0  0  0  0  0  0  0  0  0
  -33.0852    2.8369   -9.5914 C   0  0  0  0  0  0  0  0  0  0  0  0
  -30.6107    2.8656  -10.1099 C   0  0  0  0  0  0  0  0  0  0  0  0
  -24.4585    9.2442   -9.9654 O   0  5  0  0  0  0  0  0  0  0  0  0
  -26.7548    9.3187   -9.9148 O   0  0  0  0  0  0  0  0  0  0  0  0
  1 17  1  0  0  0  0
  1 20  1  0  0  0  0
  2 15  1  1  0  0  0
  2  3  1  0  0  0  0
  2 11  1  0  0  0  0
  3  5  1  0  0  0  0
  4 16  1  1  0  0  0
  4 21  1  0  0  0  0
  4 22  2  0  0  0  0
  4 14  1  0  0  0  0
  5  1  1  1  0  0  0
  5  8  1  0  0  0  0
  6 17  2  0  0  0  0
  6 12  1  0  0  0  0
  8  7  1  6  0  0  0
  8 11  1  0  0  0  0
  9 19  1  0  0  0  0
 11 10  1  1  0  0  0
 12 20  2  0  0  0  0
 12 19  1  0  0  0  0
 13 20  1  0  0  0  0
 14 15  1  0  0  0  0
 18 19  2  0  0  0  0
M  CHG  1  21  -1
M  END
>  <CHROM.1>
53.70166938,172.20876805,62.70104237,-178.00365173,-139.75390072,-28.38465067
5.19043385,-10.01941058,-2.52938533,0.32926187,0.50276674

>  <Name>
ligand

>  <RI>
0

>  <Rbt.Current_Directory>
/home/itssahil/PROJECTS/Mol_Feturizer/Test_systems_manuscript/rnas/4xwf

>  <Rbt.Executable>
rbdock ($Id: //depot/dev/client3/rdock/2013.1/src/exe/rbdock.cxx#4 $)

>  <Rbt.Library>
libRbt.so (2013.1, Build901 2013/11/27)

>  <Rbt.Parameter_File>
/export/apps/rDock/src/rDock_2013.1_src/data/scripts/dock_solv.prm

>  <Rbt.Receptor>
prm/pocket_docking_2.prm

>  <SCORE>
-1.7302

>  <SCORE.INTER>
-0.765177

>  <SCORE.INTER.CONST>
1

>  <SCORE.INTER.POLAR>
0

>  <SCORE.INTER.ROT>
5

>  <SCORE.INTER.SOLV>
9.0859

>  <SCORE.INTER.VDW>
-10.4721

>  <SCORE.INTER.norm>
-0.0347808

>  <SCORE.INTRA>
-0.965025

>  <SCORE.INTRA.DIHEDRAL>
-1.38299

>  <SCORE.INTRA.DIHEDRAL.0>
3.49807

>  <SCORE.INTRA.POLAR>
0

>  <SCORE.INTRA.POLAR.0>
0

>  <SCORE.INTRA.REPUL>
0

>  <SCORE.INTRA.REPUL.0>
0

>  <SCORE.INTRA.SOLV>
-0.530214

>  <SCORE.INTRA.SOLV.lig_0>
-73.062

>  <SCORE.INTRA.VDW>
-0.00842254

>  <SCORE.INTRA.VDW.0>
-1.83782

>  <SCORE.INTRA.norm>
-0.0438648

>  <SCORE.RESTR>
0

>  <SCORE.RESTR.CAVITY>
0

>  <SCORE.RESTR.norm>
0

>  <SCORE.SYSTEM>
0

>  <SCORE.SYSTEM.CONST>
0

>  <SCORE.SYSTEM.DIHEDRAL>
0

>  <SCORE.SYSTEM.SOLV>
0

>  <SCORE.SYSTEM.norm>
0

>  <SCORE.heavy>
22

>  <SCORE.norm>
-0.0786455

>  <RMSD>
1.425

$$$$
ligand
 OpenBabel02271912143D
libRbt.so/2013.1/901 2013/11/27
 22 23  0  0  0  0  0  0  0  0999 V2000
  -29.6869    3.9321   -9.9704 N   0  0  0  0  0  0  0  0  0  0  0  0
  -26.6663    5.2853  -10.6755 C   0  0  1  0  0  0  0  0  0  0  0  0
  -27.5190    4.6614   -9.6737 O   0  0  0  0  0  0  0  0  0  0  0  0
  -25.3850    7.6259   -9.1511 P   0  0  1  0  0  0  0  0  0  0  0  0
  -28.3752    3.7207  -10.3418 C   0  0  2  0  0  0  0  0  0  0  0  0
  -31.5001    4.9311   -9.3181 N   0  0  0  0  0  0  0  0  0  0  0  0
  -28.6095    2.9467  -12.5872 O   0  0  0  0  0  0  0  0  0  0  0  0
  -28.2831    4.0803  -11.7746 C   0  0  2  0  0  0  0  0  0  0  0  0
  -33.2477    1.8046   -8.7669 N   0  0  0  0  0  0  0  0  0  0  0  0
  -26.0072    3.4126  -11.9218 O   0  0  0  0  0  0  0  0  0  0  0  0
  -26.9063    4.5342  -11.9271 C   0  0  2  0  0  0  0  0  0  0  0  0
  -31.7979    3.6482   -9.5752 C   0  0  0  0  0  0  0  0  0  0  0  0
  -30.5487    1.6594  -10.3803 N   0  0  0  0  0  0  0  0  0  0  0  0
  -26.8590    7.2718   -9.5519 O   0  0  0  0  0  0  0  0  0  0  0  0
  -27.1015    6.7049  -10.7983 C   0  0  0  0  0  0  0  0  0  0  0  0
  -24.9294    8.6083  -10.2902 O   0  0  0  0  0  0  0  0  0  0  0  0
  -30.1864    5.1033   -9.5586 C   0  0  0  0  0  0  0  0  0  0  0  0
  -34.1263    3.5696   -9.9064 O   0  0  0  0  0  0  0  0  0  0  0  0
  -33.1280    3.0275   -9.4325 C   0  0  0  0  0  0  0  0  0  0  0  0
  -30.6618    3.0134   -9.9894 C   0  0  0  0  0  0  0  0  0  0  0  0
  -25.3650    8.2149   -7.7797 O   0  5  0  0  0  0  0  0  0  0  0  0
  -24.5877    6.4013   -8.9577 O   0  0  0  0  0  0  0  0  0  0  0  0
  1 17  1  0  0  0  0
  1 20  1  0  0  0  0
  2 15  1  6  0  0  0
  2  3  1  0  0  0  0
  2 11  1  0  0  0  0
  3  5  1  0  0  0  0
  4 16  1  6  0  0  0
  4 21  1  0  0  0  0
  4 22  2  0  0  0  0
  4 14  1  0  0  0  0
  5  1  1  1  0  0  0
  5  8  1  0  0  0  0
  6 17  2  0  0  0  0
  6 12  1  0  0  0  0
  8  7  1  6  0  0  0
  8 11  1  0  0  0  0
  9 19  1  0  0  0  0
 11 10  1  1  0  0  0
 12 20  2  0  0  0  0
 12 19  1  0  0  0  0
 13 20  1  0  0  0  0
 14 15  1  0  0  0  0
 18 19  2  0  0  0  0
M  CHG  1  21  -1
M  END
>  <CHROM.1>
26.73578103,63.08392108,57.68894813,75.69991786,-132.47185321,-28.40929365
4.95635898,-10.05401214,-2.68634625,0.35464340,0.68307459

>  <Name>
ligand

>  <RI>
0

>  <Rbt.Current_Directory>
/home/itssahil/PROJECTS/Mol_Feturizer/Test_systems_manuscript/rnas/4xwf

>  <Rbt.Executable>
rbdock ($Id: //depot/dev/client3/rdock/2013.1/src/exe/rbdock.cxx#4 $)

>  <Rbt.Library>
libRbt.so (2013.1, Build901 2013/11/27)

>  <Rbt.Parameter_File>
/export/apps/rDock/src/rDock_2013.1_src/data/scripts/dock_solv.prm

>  <Rbt.Receptor>
prm/pocket_docking_2.prm

>  <SCORE>
-0.682618

>  <SCORE.INTER>
-1.38391

>  <SCORE.INTER.CONST>
1

>  <SCORE.INTER.POLAR>
0

>  <SCORE.INTER.ROT>
5

>  <SCORE.INTER.SOLV>
8.65318

>  <SCORE.INTER.VDW>
-10.7403

>  <SCORE.INTER.norm>
-0.0629049

>  <SCORE.INTRA>
0.699802

>  <SCORE.INTRA.DIHEDRAL>
-0.652418

>  <SCORE.INTRA.DIHEDRAL.0>
3.49807

>  <SCORE.INTRA.POLAR>
0

>  <SCORE.INTRA.POLAR.0>
0

>  <SCORE.INTRA.REPUL>
0

>  <SCORE.INTRA.REPUL.0>
0

>  <SCORE.INTRA.SOLV>
2.38138

>  <SCORE.INTRA.SOLV.lig_0>
-73.062

>  <SCORE.INTRA.VDW>
-0.164677

>  <SCORE.INTRA.VDW.0>
-1.83782

>  <SCORE.INTRA.norm>
0.0318092

>  <SCORE.RESTR>
0.00148656

>  <SCORE.RESTR.CAVITY>
0.00148656

>  <SCORE.RESTR.norm>
6.75709e-05

>  <SCORE.SYSTEM>
0

>  <SCORE.SYSTEM.CONST>
0

>  <SCORE.SYSTEM.DIHEDRAL>
0

>  <SCORE.SYSTEM.SOLV>
0

>  <SCORE.SYSTEM.norm>
0

>  <SCORE.heavy>
22

>  <SCORE.norm>
-0.0310281

>  <RMSD>
1.433

$$$$
ligand
 OpenBabel02271912143D
libRbt.so/2013.1/901 2013/11/27
 22 23  0  0  0  0  0  0  0  0999 V2000
  -29.8455    3.8681   -9.8226 N   0  0  0  0  0  0  0  0  0  0  0  0
  -26.6249    4.9044   -9.9029 C   0  0  1  0  0  0  0  0  0  0  0  0
  -27.6550    4.1806   -9.1715 O   0  0  0  0  0  0  0  0  0  0  0  0
  -25.7371    8.5715  -10.2484 P   0  0  1  0  0  0  0  0  0  0  0  0
  -28.5341    3.5691  -10.1294 C   0  0  2  0  0  0  0  0  0  0  0  0
  -31.6331    4.9986   -9.3350 N   0  0  0  0  0  0  0  0  0  0  0  0
  -28.5987    3.4197  -12.5105 O   0  0  0  0  0  0  0  0  0  0  0  0
  -28.2360    4.2564  -11.4059 C   0  0  2  0  0  0  0  0  0  0  0  0
  -33.5512    2.1348   -8.3696 N   0  0  0  0  0  0  0  0  0  0  0  0
  -26.0535    3.3256  -11.5386 O   0  0  0  0  0  0  0  0  0  0  0  0
  -26.8067    4.5308  -11.3226 C   0  0  2  0  0  0  0  0  0  0  0  0
  -31.9760    3.7077   -9.4645 C   0  0  0  0  0  0  0  0  0  0  0  0
  -30.7880    1.5989  -10.0169 N   0  0  0  0  0  0  0  0  0  0  0  0
  -25.8243    7.0079  -10.3274 O   0  0  0  0  0  0  0  0  0  0  0  0
  -26.8718    6.3574   -9.6844 C   0  0  0  0  0  0  0  0  0  0  0  0
  -24.4378    8.9005  -11.0695 O   0  0  0  0  0  0  0  0  0  0  0  0
  -30.3075    5.0945   -9.5521 C   0  0  0  0  0  0  0  0  0  0  0  0
  -34.2687    3.5779   -9.9784 O   0  0  0  0  0  0  0  0  0  0  0  0
  -33.3335    3.1565   -9.2979 C   0  0  0  0  0  0  0  0  0  0  0  0
  -30.8561    2.9900   -9.7746 C   0  0  0  0  0  0  0  0  0  0  0  0
  -26.9873    9.1728  -10.7990 O   0  5  0  0  0  0  0  0  0  0  0  0
  -25.7829    9.0271   -8.8473 O   0  0  0  0  0  0  0  0  0  0  0  0
  1 17  1  0  0  0  0
  1 20  1  0  0  0  0
  2 15  1  6  0  0  0
  2  3  1  0  0  0  0
  2 11  1  0  0  0  0
  3  5  1  0  0  0  0
  4 16  1  6  0  0  0
  4 21  1  0  0  0  0
  4 22  2  0  0  0  0
  4 14  1  0  0  0  0
  5  1  1  1  0  0  0
  5  8  1  0  0  0  0
  6 17  2  0  0  0  0
  6 12  1  0  0  0  0
  8  7  1  6  0  0  0
  8 11  1  0  0  0  0
  9 19  1  0  0  0  0
 11 10  1  1  0  0  0
 12 20  2  0  0  0  0
 12 19  1  0  0  0  0
 13 20  1  0  0  0  0
 14 15  1  0  0  0  0
 18 19  2  0  0  0  0
M  CHG  1  21  -1
M  END
>  <CHROM.1>
48.73208006,176.44236222,179.43257468,-177.54869011,-123.66535563,-28.57051760
5.20501080,-10.15110259,-2.55562854,0.30980066,0.27996247

>  <Name>
ligand

>  <RI>
0

>  <Rbt.Current_Directory>
/home/itssahil/PROJECTS/Mol_Feturizer/Test_systems_manuscript/rnas/4xwf

>  <Rbt.Executable>
rbdock ($Id: //depot/dev/client3/rdock/2013.1/src/exe/rbdock.cxx#4 $)

>  <Rbt.Library>
libRbt.so (2013.1, Build901 2013/11/27)

>  <Rbt.Parameter_File>
/export/apps/rDock/src/rDock_2013.1_src/data/scripts/dock_solv.prm

>  <Rbt.Receptor>
prm/pocket_docking_2.prm

>  <SCORE>
-1.63391

>  <SCORE.INTER>
-0.702228

>  <SCORE.INTER.CONST>
1

>  <SCORE.INTER.POLAR>
0

>  <SCORE.INTER.ROT>
5

>  <SCORE.INTER.SOLV>
8.79159

>  <SCORE.INTER.VDW>
-10.332

>  <SCORE.INTER.norm>
-0.0319195

>  <SCORE.INTRA>
-0.932409

>  <SCORE.INTRA.DIHEDRAL>
-1.91643

>  <SCORE.INTRA.DIHEDRAL.0>
3.49807

>  <SCORE.INTRA.POLAR>
0

>  <SCORE.INTRA.POLAR.0>
0

>  <SCORE.INTRA.REPUL>
0

>  <SCORE.INTRA.REPUL.0>
0

>  <SCORE.INTRA.SOLV>
0.204068

>  <SCORE.INTRA.SOLV.lig_0>
-73.062

>  <SCORE.INTRA.VDW>
-0.0762258

>  <SCORE.INTRA.VDW.0>
-1.83782

>  <SCORE.INTRA.norm>
-0.0423822

>  <SCORE.RESTR>
0.000722543

>  <SCORE.RESTR.CAVITY>
0.000722543

>  <SCORE.RESTR.norm>
3.28429e-05

>  <SCORE.SYSTEM>
0

>  <SCORE.SYSTEM.CONST>
0

>  <SCORE.SYSTEM.DIHEDRAL>
0

>  <SCORE.SYSTEM.SOLV>
0

>  <SCORE.SYSTEM.norm>
0

>  <SCORE.heavy>
22

>  <SCORE.norm>
-0.0742689

>  <RMSD>
1.440

$$$$
ligand
 OpenBabel02271912143D
libRbt.so/2013.1/901 2013/11/27
 22 23  0  0  0  0  0  0  0  0999 V2000
  -29.6863    3.8290   -9.9649 N   0  0  0  0  0  0  0  0  0  0  0  0
  -26.4729    4.8852   -9.8614 C   0  0  1  0  0  0  0  0  0  0  0  0
  -27.4962    4.0341   -9.2712 O   0  0  0  0  0  0  0  0  0  0  0  0
  -25.5581    8.5388   -9.4481 P   0  0  1  0  0  0  0  0  0  0  0  0
  -28.3738    3.5993  -10.3225 C   0  0  2  0  0  0  0  0  0  0  0  0
  -31.4949    4.8551   -9.3428 N   0  0  0  0  0  0  0  0  0  0  0  0
  -28.4438    3.8817  -12.6913 O   0  0  0  0  0  0  0  0  0  0  0  0
  -28.0836    4.5079  -11.4544 C   0  0  2  0  0  0  0  0  0  0  0  0
  -33.2717    1.7351   -8.7914 N   0  0  0  0  0  0  0  0  0  0  0  0
  -25.8954    3.6316  -11.7560 O   0  0  0  0  0  0  0  0  0  0  0  0
  -26.6560    4.7727  -11.3250 C   0  0  2  0  0  0  0  0  0  0  0  0
  -31.8030    3.5712   -9.5823 C   0  0  0  0  0  0  0  0  0  0  0  0
  -30.5667    1.5584  -10.3462 N   0  0  0  0  0  0  0  0  0  0  0  0
  -25.6404    7.0187   -9.8237 O   0  0  0  0  0  0  0  0  0  0  0  0
  -26.7288    6.2732   -9.3839 C   0  0  0  0  0  0  0  0  0  0  0  0
  -25.3985    8.5141   -7.8847 O   0  0  0  0  0  0  0  0  0  0  0  0
  -30.1777    5.0111   -9.5755 C   0  0  0  0  0  0  0  0  0  0  0  0
  -34.1340    3.5268   -9.9012 O   0  0  0  0  0  0  0  0  0  0  0  0
  -33.1400    2.9656   -9.4406 C   0  0  0  0  0  0  0  0  0  0  0  0
  -30.6698    2.9193   -9.9775 C   0  0  0  0  0  0  0  0  0  0  0  0
  -24.4220    9.1756  -10.1773 O   0  5  0  0  0  0  0  0  0  0  0  0
  -26.7107    9.2756   -9.9968 O   0  0  0  0  0  0  0  0  0  0  0  0
  1 17  1  0  0  0  0
  1 20  1  0  0  0  0
  2 15  1  1  0  0  0
  2  3  1  0  0  0  0
  2 11  1  0  0  0  0
  3  5  1  0  0  0  0
  4 16  1  1  0  0  0
  4 21  1  0  0  0  0
  4 22  2  0  0  0  0
  4 14  1  0  0  0  0
  5  1  1  1  0  0  0
  5  8  1  0  0  0  0
  6 17  2  0  0  0  0
  6 12  1  0  0  0  0
  8  7  1  6  0  0  0
  8 11  1  0  0  0  0
  9 19  1  0  0  0  0
 11 10  1  1  0  0  0
 12 20  2  0  0  0  0
 12 19  1  0  0  0  0
 13 20  1  0  0  0  0
 14 15  1  0  0  0  0
 18 19  2  0  0  0  0
M  CHG  1  21  -1
M  END
>  <CHROM.1>
54.20782167,172.52736944,65.40855854,-177.91263361,-134.34156007,-28.39303831
5.19590185,-9.99391963,-2.55478929,0.32654954,0.47423278

>  <Name>
ligand

>  <RI>
0

>  <Rbt.Current_Directory>
/home/itssahil/PROJECTS/Mol_Feturizer/Test_systems_manuscript/rnas/4xwf

>  <Rbt.Executable>
rbdock ($Id: //depot/dev/client3/rdock/2013.1/src/exe/rbdock.cxx#4 $)

>  <Rbt.Library>
libRbt.so (2013.1, Build901 2013/11/27)

>  <Rbt.Parameter_File>
/export/apps/rDock/src/rDock_2013.1_src/data/scripts/dock_solv.prm

>  <Rbt.Receptor>
prm/pocket_docking_2.prm

>  <SCORE>
-1.68494

>  <SCORE.INTER>
-0.60962

>  <SCORE.INTER.CONST>
1

>  <SCORE.INTER.POLAR>
0

>  <SCORE.INTER.ROT>
5

>  <SCORE.INTER.SOLV>
8.64536

>  <SCORE.INTER.VDW>
-10.2215

>  <SCORE.INTER.norm>
-0.02771

>  <SCORE.INTRA>
-1.07532

>  <SCORE.INTRA.DIHEDRAL>
-1.55001

>  <SCORE.INTRA.DIHEDRAL.0>
3.49807

>  <SCORE.INTRA.POLAR>
0

>  <SCORE.INTRA.POLAR.0>
0

>  <SCORE.INTRA.REPUL>
0

>  <SCORE.INTRA.REPUL.0>
0

>  <SCORE.INTRA.SOLV>
-0.557306

>  <SCORE.INTRA.SOLV.lig_0>
-73.062

>  <SCORE.INTRA.VDW>
-0.0216577

>  <SCORE.INTRA.VDW.0>
-1.83782

>  <SCORE.INTRA.norm>
-0.048878

>  <SCORE.RESTR>
0

>  <SCORE.RESTR.CAVITY>
0

>  <SCORE.RESTR.norm>
0

>  <SCORE.SYSTEM>
0

>  <SCORE.SYSTEM.CONST>
0

>  <SCORE.SYSTEM.DIHEDRAL>
0

>  <SCORE.SYSTEM.SOLV>
0

>  <SCORE.SYSTEM.norm>
0

>  <SCORE.heavy>
22

>  <SCORE.norm>
-0.076588

>  <RMSD>
1.445

$$$$
ligand
 OpenBabel02271912143D
libRbt.so/2013.1/901 2013/11/27
 22 23  0  0  0  0  0  0  0  0999 V2000
  -29.6754    3.7148  -10.0370 N   0  0  0  0  0  0  0  0  0  0  0  0
  -26.4892    4.8460  -10.1836 C   0  0  1  0  0  0  0  0  0  0  0  0
  -27.4714    4.0594   -9.4511 O   0  0  0  0  0  0  0  0  0  0  0  0
  -25.6953    8.5473  -10.3522 P   0  0  1  0  0  0  0  0  0  0  0  0
  -28.3688    3.4683  -10.4048 C   0  0  2  0  0  0  0  0  0  0  0  0
  -31.4690    4.7665   -9.4143 N   0  0  0  0  0  0  0  0  0  0  0  0
  -28.5182    3.4288  -12.7864 O   0  0  0  0  0  0  0  0  0  0  0  0
  -28.1372    4.2230  -11.6569 C   0  0  2  0  0  0  0  0  0  0  0  0
  -33.2642    1.6766   -8.7752 N   0  0  0  0  0  0  0  0  0  0  0  0
  -25.9368    3.3627  -11.9125 O   0  0  0  0  0  0  0  0  0  0  0  0
  -26.7138    4.5342  -11.6122 C   0  0  2  0  0  0  0  0  0  0  0  0
  -31.7895    3.4808   -9.6261 C   0  0  0  0  0  0  0  0  0  0  0  0
  -30.5771    1.4445  -10.3658 N   0  0  0  0  0  0  0  0  0  0  0  0
  -25.7310    6.9857  -10.4885 O   0  0  0  0  0  0  0  0  0  0  0  0
  -26.7671    6.2795   -9.8872 C   0  0  0  0  0  0  0  0  0  0  0  0
  -27.0466    8.9967  -11.0175 O   0  0  0  0  0  0  0  0  0  0  0  0
  -30.1533    4.9078   -9.6645 C   0  0  0  0  0  0  0  0  0  0  0  0
  -34.1231    3.4438   -9.9263 O   0  0  0  0  0  0  0  0  0  0  0  0
  -33.1294    2.8883   -9.4582 C   0  0  0  0  0  0  0  0  0  0  0  0
  -30.6657    2.8128  -10.0216 C   0  0  0  0  0  0  0  0  0  0  0  0
  -25.5572    8.9230   -8.9143 O   0  5  0  0  0  0  0  0  0  0  0  0
  -24.4496    9.0930  -10.9205 O   0  0  0  0  0  0  0  0  0  0  0  0
  1 17  1  0  0  0  0
  1 20  1  0  0  0  0
  2 15  1  6  0  0  0
  2  3  1  0  0  0  0
  2 11  1  0  0  0  0
  3  5  1  0  0  0  0
  4 16  1  6  0  0  0
  4 21  1  0  0  0  0
  4 22  2  0  0  0  0
  4 14  1  0  0  0  0
  5  1  1  1  0  0  0
  5  8  1  0  0  0  0
  6 17  2  0  0  0  0
  6 12  1  0  0  0  0
  8  7  1  6  0  0  0
  8 11  1  0  0  0  0
  9 19  1  0  0  0  0
 11 10  1  1  0  0  0
 12 20  2  0  0  0  0
 12 19  1  0  0  0  0
 13 20  1  0  0  0  0
 14 15  1  0  0  0  0
 18 19  2  0  0  0  0
M  CHG  1  21  -1
M  END
>  <CHROM.1>
47.23981406,174.01996724,-60.19602453,-178.98238184,-133.83005453,-28.44275699
5.10261075,-10.33946434,-2.53609729,0.33970433,0.32550729

>  <Name>
ligand

>  <RI>
0

>  <Rbt.Current_Directory>
/home/itssahil/PROJECTS/Mol_Feturizer/Test_systems_manuscript/rnas/4xwf

>  <Rbt.Executable>
rbdock ($Id: //depot/dev/client3/rdock/2013.1/src/exe/rbdock.cxx#4 $)

>  <Rbt.Library>
libRbt.so (2013.1, Build901 2013/11/27)

>  <Rbt.Parameter_File>
/export/apps/rDock/src/rDock_2013.1_src/data/scripts/dock_solv.prm

>  <Rbt.Receptor>
prm/pocket_docking_2.prm

>  <SCORE>
-1.95757

>  <SCORE.INTER>
-0.83961

>  <SCORE.INTER.CONST>
1

>  <SCORE.INTER.POLAR>
0

>  <SCORE.INTER.ROT>
5

>  <SCORE.INTER.SOLV>
8.78828

>  <SCORE.INTER.VDW>
-10.4225

>  <SCORE.INTER.norm>
-0.0381641

>  <SCORE.INTRA>
-1.11796

>  <SCORE.INTRA.DIHEDRAL>
-1.6859

>  <SCORE.INTRA.DIHEDRAL.0>
3.49807

>  <SCORE.INTRA.POLAR>
0

>  <SCORE.INTRA.POLAR.0>
0

>  <SCORE.INTRA.REPUL>
0

>  <SCORE.INTRA.REPUL.0>
0

>  <SCORE.INTRA.SOLV>
-0.352064

>  <SCORE.INTRA.SOLV.lig_0>
-73.062

>  <SCORE.INTRA.VDW>
-0.0989802

>  <SCORE.INTRA.VDW.0>
-1.83782

>  <SCORE.INTRA.norm>
-0.0508165

>  <SCORE.RESTR>
0

>  <SCORE.RESTR.CAVITY>
0

>  <SCORE.RESTR.norm>
0

>  <SCORE.SYSTEM>
0

>  <SCORE.SYSTEM.CONST>
0

>  <SCORE.SYSTEM.DIHEDRAL>
0

>  <SCORE.SYSTEM.SOLV>
0

>  <SCORE.SYSTEM.norm>
0

>  <SCORE.heavy>
22

>  <SCORE.norm>
-0.0889806

>  <RMSD>
1.446

$$$$
ligand
 OpenBabel02271912143D
libRbt.so/2013.1/901 2013/11/27
 22 23  0  0  0  0  0  0  0  0999 V2000
  -29.6701    3.8164   -9.9890 N   0  0  0  0  0  0  0  0  0  0  0  0
  -26.4698    4.9099   -9.8664 C   0  0  1  0  0  0  0  0  0  0  0  0
  -27.4843    4.0406   -9.2877 O   0  0  0  0  0  0  0  0  0  0  0  0
  -25.6449    8.5892   -9.4902 P   0  0  1  0  0  0  0  0  0  0  0  0
  -28.3541    3.6063  -10.3456 C   0  0  2  0  0  0  0  0  0  0  0  0
  -31.4950    4.8163   -9.3717 N   0  0  0  0  0  0  0  0  0  0  0  0
  -28.4218    3.9125  -12.7115 O   0  0  0  0  0  0  0  0  0  0  0  0
  -28.0721    4.5300  -11.4673 C   0  0  2  0  0  0  0  0  0  0  0  0
  -33.2247    1.6843   -8.7800 N   0  0  0  0  0  0  0  0  0  0  0  0
  -25.8728    3.6832  -11.7725 O   0  0  0  0  0  0  0  0  0  0  0  0
  -26.6481    4.8105  -11.3316 C   0  0  2  0  0  0  0  0  0  0  0  0
  -31.7822    3.5264   -9.6047 C   0  0  0  0  0  0  0  0  0  0  0  0
  -30.5136    1.5300  -10.3586 N   0  0  0  0  0  0  0  0  0  0  0  0
  -25.6851    7.0616   -9.8417 O   0  0  0  0  0  0  0  0  0  0  0  0
  -26.7436    6.2897   -9.3752 C   0  0  0  0  0  0  0  0  0  0  0  0
  -25.5394    8.5940   -7.9220 O   0  0  0  0  0  0  0  0  0  0  0  0
  -30.1805    4.9924   -9.6055 C   0  0  0  0  0  0  0  0  0  0  0  0
  -34.1089    3.4306   -9.9438 O   0  0  0  0  0  0  0  0  0  0  0  0
  -33.1093    2.8999   -9.4596 C   0  0  0  0  0  0  0  0  0  0  0  0
  -30.6387    2.8909   -9.9967 C   0  0  0  0  0  0  0  0  0  0  0  0
  -24.4964    9.2358  -10.1908 O   0  5  0  0  0  0  0  0  0  0  0  0
  -26.7916    9.2939  -10.0912 O   0  0  0  0  0  0  0  0  0  0  0  0
  1 17  1  0  0  0  0
  1 20  1  0  0  0  0
  2 15  1  1  0  0  0
  2  3  1  0  0  0  0
  2 11  1  0  0  0  0
  3  5  1  0  0  0  0
  4 16  1  1  0  0  0
  4 21  1  0  0  0  0
  4 22  2  0  0  0  0
  4 14  1  0  0  0  0
  5  1  1  1  0  0  0
  5  8  1  0  0  0  0
  6 17  2  0  0  0  0
  6 12  1  0  0  0  0
  8  7  1  6  0  0  0
  8 11  1  0  0  0  0
  9 19  1  0  0  0  0
 11 10  1  1  0  0  0
 12 20  2  0  0  0  0
 12 19  1  0  0  0  0
 13 20  1  0  0  0  0
 14 15  1  0  0  0  0
 18 19  2  0  0  0  0
M  CHG  1  21  -1
M  END
>  <CHROM.1>
55.13759569,174.41201421,62.53145825,-179.37915759,-133.02328855,-28.40491209
5.20309359,-10.01759015,-2.53862063,0.33253023,0.46248377

>  <Name>
ligand

>  <RI>
0

>  <Rbt.Current_Directory>
/home/itssahil/PROJECTS/Mol_Feturizer/Test_systems_manuscript/rnas/4xwf

>  <Rbt.Executable>
rbdock ($Id: //depot/dev/client3/rdock/2013.1/src/exe/rbdock.cxx#4 $)

>  <Rbt.Library>
libRbt.so (2013.1, Build901 2013/11/27)

>  <Rbt.Parameter_File>
/export/apps/rDock/src/rDock_2013.1_src/data/scripts/dock_solv.prm

>  <Rbt.Receptor>
prm/pocket_docking_2.prm

>  <SCORE>
-1.74271

>  <SCORE.INTER>
-0.634922

>  <SCORE.INTER.CONST>
1

>  <SCORE.INTER.POLAR>
0

>  <SCORE.INTER.ROT>
5

>  <SCORE.INTER.SOLV>
8.49174

>  <SCORE.INTER.VDW>
-10.1872

>  <SCORE.INTER.norm>
-0.0288601

>  <SCORE.INTRA>
-1.10779

>  <SCORE.INTRA.DIHEDRAL>
-1.71168

>  <SCORE.INTRA.DIHEDRAL.0>
3.49807

>  <SCORE.INTRA.POLAR>
0

>  <SCORE.INTRA.POLAR.0>
0

>  <SCORE.INTRA.REPUL>
0

>  <SCORE.INTRA.REPUL.0>
0

>  <SCORE.INTRA.SOLV>
-0.576086

>  <SCORE.INTRA.SOLV.lig_0>
-73.062

>  <SCORE.INTRA.VDW>
0.0360947

>  <SCORE.INTRA.VDW.0>
-1.83782

>  <SCORE.INTRA.norm>
-0.050354

>  <SCORE.RESTR>
0

>  <SCORE.RESTR.CAVITY>
0

>  <SCORE.RESTR.norm>
0

>  <SCORE.SYSTEM>
0

>  <SCORE.SYSTEM.CONST>
0

>  <SCORE.SYSTEM.DIHEDRAL>
0

>  <SCORE.SYSTEM.SOLV>
0

>  <SCORE.SYSTEM.norm>
0

>  <SCORE.heavy>
22

>  <SCORE.norm>
-0.0792141

>  <RMSD>
1.447

$$$$
ligand
 OpenBabel02271912143D
libRbt.so/2013.1/901 2013/11/27
 22 23  0  0  0  0  0  0  0  0999 V2000
  -29.6460    3.8261  -10.0374 N   0  0  0  0  0  0  0  0  0  0  0  0
  -26.4655    4.9646   -9.8367 C   0  0  1  0  0  0  0  0  0  0  0  0
  -27.4708    4.0553   -9.3055 O   0  0  0  0  0  0  0  0  0  0  0  0
  -25.6760    8.6237   -9.2509 P   0  0  1  0  0  0  0  0  0  0  0  0
  -28.3235    3.6524  -10.3894 C   0  0  2  0  0  0  0  0  0  0  0  0
  -31.4923    4.7690   -9.3947 N   0  0  0  0  0  0  0  0  0  0  0  0
  -28.3741    4.0576  -12.7409 O   0  0  0  0  0  0  0  0  0  0  0  0
  -28.0463    4.6273  -11.4682 C   0  0  2  0  0  0  0  0  0  0  0  0
  -33.1621    1.5374   -9.0723 N   0  0  0  0  0  0  0  0  0  0  0  0
  -25.8306    3.8296  -11.7869 O   0  0  0  0  0  0  0  0  0  0  0  0
  -26.6284    4.9247  -11.3065 C   0  0  2  0  0  0  0  0  0  0  0  0
  -31.7570    3.4868   -9.6887 C   0  0  0  0  0  0  0  0  0  0  0  0
  -30.4499    1.5462  -10.5189 N   0  0  0  0  0  0  0  0  0  0  0  0
  -25.7135    7.1243   -9.7083 O   0  0  0  0  0  0  0  0  0  0  0  0
  -26.7664    6.3178   -9.2904 C   0  0  0  0  0  0  0  0  0  0  0  0
  -25.5804    8.5192   -7.6855 O   0  0  0  0  0  0  0  0  0  0  0  0
  -30.1785    4.9755   -9.6064 C   0  0  0  0  0  0  0  0  0  0  0  0
  -34.0931    3.4156   -9.9618 O   0  0  0  0  0  0  0  0  0  0  0  0
  -33.0754    2.8342   -9.5860 C   0  0  0  0  0  0  0  0  0  0  0  0
  -30.5998    2.8872  -10.0971 C   0  0  0  0  0  0  0  0  0  0  0  0
  -24.5234    9.3174   -9.8975 O   0  5  0  0  0  0  0  0  0  0  0  0
  -26.8191    9.3687   -9.8086 O   0  0  0  0  0  0  0  0  0  0  0  0
  1 17  1  0  0  0  0
  1 20  1  0  0  0  0
  2 15  1  1  0  0  0
  2  3  1  0  0  0  0
  2 11  1  0  0  0  0
  3  5  1  0  0  0  0
  4 16  1  1  0  0  0
  4 21  1  0  0  0  0
  4 22  2  0  0  0  0
  4 14  1  0  0  0  0
  5  1  1  1  0  0  0
  5  8  1  0  0  0  0
  6 17  2  0  0  0  0
  6 12  1  0  0  0  0
  8  7  1  6  0  0  0
  8 11  1  0  0  0  0
  9 19  1  0  0  0  0
 11 10  1  1  0  0  0
 12 20  2  0  0  0  0
 12 19  1  0  0  0  0
 13 20  1  0  0  0  0
 14 15  1  0  0  0  0
 18 19  2  0  0  0  0
M  CHG  1  21  -1
M  END
>  <CHROM.1>
54.96201886,174.15932129,61.77916193,-177.35555322,-138.72312559,-28.39570373
5.22929302,-9.98261245,-2.52029986,0.32966340,0.50679117

>  <Name>
ligand

>  <RI>
0

>  <Rbt.Current_Directory>
/home/itssahil/PROJECTS/Mol_Feturizer/Test_systems_manuscript/rnas/4xwf

>  <Rbt.Executable>
rbdock ($Id: //depot/dev/client3/rdock/2013.1/src/exe/rbdock.cxx#4 $)

>  <Rbt.Library>
libRbt.so (2013.1, Build901 2013/11/27)

>  <Rbt.Parameter_File>
/export/apps/rDock/src/rDock_2013.1_src/data/scripts/dock_solv.prm

>  <Rbt.Receptor>
prm/pocket_docking_2.prm

>  <SCORE>
-1.7228

>  <SCORE.INTER>
-0.739006

>  <SCORE.INTER.CONST>
1

>  <SCORE.INTER.POLAR>
0

>  <SCORE.INTER.ROT>
5

>  <SCORE.INTER.SOLV>
8.9412

>  <SCORE.INTER.VDW>
-10.4064

>  <SCORE.INTER.norm>
-0.0335912

>  <SCORE.INTRA>
-0.983789

>  <SCORE.INTRA.DIHEDRAL>
-1.49472

>  <SCORE.INTRA.DIHEDRAL.0>
3.49807

>  <SCORE.INTRA.POLAR>
0

>  <SCORE.INTRA.POLAR.0>
0

>  <SCORE.INTRA.REPUL>
0

>  <SCORE.INTRA.REPUL.0>
0

>  <SCORE.INTRA.SOLV>
-0.573725

>  <SCORE.INTRA.SOLV.lig_0>
-73.062

>  <SCORE.INTRA.VDW>
0.0504327

>  <SCORE.INTRA.VDW.0>
-1.83782

>  <SCORE.INTRA.norm>
-0.0447177

>  <SCORE.RESTR>
0

>  <SCORE.RESTR.CAVITY>
0

>  <SCORE.RESTR.norm>
0

>  <SCORE.SYSTEM>
0

>  <SCORE.SYSTEM.CONST>
0

>  <SCORE.SYSTEM.DIHEDRAL>
0

>  <SCORE.SYSTEM.SOLV>
0

>  <SCORE.SYSTEM.norm>
0

>  <SCORE.heavy>
22

>  <SCORE.norm>
-0.0783089

>  <RMSD>
1.460

$$$$
ligand
 OpenBabel02271912143D
libRbt.so/2013.1/901 2013/11/27
 22 23  0  0  0  0  0  0  0  0999 V2000
  -29.7144    3.6877  -10.0657 N   0  0  0  0  0  0  0  0  0  0  0  0
  -26.5254    4.8199  -10.0337 C   0  0  1  0  0  0  0  0  0  0  0  0
  -27.5450    4.0282   -9.3603 O   0  0  0  0  0  0  0  0  0  0  0  0
  -25.7665    8.5284  -10.2051 P   0  0  1  0  0  0  0  0  0  0  0  0
  -28.3899    3.4438  -10.3648 C   0  0  2  0  0  0  0  0  0  0  0  0
  -31.5330    4.7286   -9.4996 N   0  0  0  0  0  0  0  0  0  0  0  0
  -28.4117    3.4209  -12.7512 O   0  0  0  0  0  0  0  0  0  0  0  0
  -28.0920    4.2071  -11.5973 C   0  0  2  0  0  0  0  0  0  0  0  0
  -33.4535    1.6563  -10.3791 N   0  0  0  0  0  0  0  0  0  0  0  0
  -25.8808    3.3486  -11.7409 O   0  0  0  0  0  0  0  0  0  0  0  0
  -26.6731    4.5180  -11.4744 C   0  0  2  0  0  0  0  0  0  0  0  0
  -31.8522    3.4601   -9.7990 C   0  0  0  0  0  0  0  0  0  0  0  0
  -30.6162    1.4497  -10.5699 N   0  0  0  0  0  0  0  0  0  0  0  0
  -25.7788    6.9652  -10.3270 O   0  0  0  0  0  0  0  0  0  0  0  0
  -26.8192    6.2513   -9.7426 C   0  0  0  0  0  0  0  0  0  0  0  0
  -27.0835    8.9568  -10.9484 O   0  0  0  0  0  0  0  0  0  0  0  0
  -30.2030    4.8656   -9.6603 C   0  0  0  0  0  0  0  0  0  0  0  0
  -34.1177    3.4635   -9.1630 O   0  0  0  0  0  0  0  0  0  0  0  0
  -33.2057    2.8773   -9.7458 C   0  0  0  0  0  0  0  0  0  0  0  0
  -30.7126    2.7991  -10.1594 C   0  0  0  0  0  0  0  0  0  0  0  0
  -25.7117    8.9197   -8.7658 O   0  5  0  0  0  0  0  0  0  0  0  0
  -24.4969    9.0818  -10.7097 O   0  0  0  0  0  0  0  0  0  0  0  0
  1 17  1  0  0  0  0
  1 20  1  0  0  0  0
  2 15  1  6  0  0  0
  2  3  1  0  0  0  0
  2 11  1  0  0  0  0
  3  5  1  0  0  0  0
  4 16  1  6  0  0  0
  4 21  1  0  0  0  0
  4 22  2  0  0  0  0
  4 14  1  0  0  0  0
  5  1  1  1  0  0  0
  5  8  1  0  0  0  0
  6 17  2  0  0  0  0
  6 12  1  0  0  0  0
  8  7  1  6  0  0  0
  8 11  1  0  0  0  0
  9 19  1  0  0  0  0
 11 10  1  1  0  0  0
 12 20  2  0  0  0  0
 12 19  1  0  0  0  0
 13 20  1  0  0  0  0
 14 15  1  0  0  0  0
 18 19  2  0  0  0  0
M  CHG  1  21  -1
M  END
>  <CHROM.1>
44.48062979,176.22248503,-62.04905363,-179.69143454,164.75989181,-28.48260229
5.08447887,-10.32736505,-2.52302112,0.30202646,0.34857199

>  <Name>
ligand

>  <RI>
0

>  <Rbt.Current_Directory>
/home/itssahil/PROJECTS/Mol_Feturizer/Test_systems_manuscript/rnas/4xwf

>  <Rbt.Executable>
rbdock ($Id: //depot/dev/client3/rdock/2013.1/src/exe/rbdock.cxx#4 $)

>  <Rbt.Library>
libRbt.so (2013.1, Build901 2013/11/27)

>  <Rbt.Parameter_File>
/export/apps/rDock/src/rDock_2013.1_src/data/scripts/dock_solv.prm

>  <Rbt.Receptor>
prm/pocket_docking_2.prm

>  <SCORE>
-1.50158

>  <SCORE.INTER>
-1.18447

>  <SCORE.INTER.CONST>
1

>  <SCORE.INTER.POLAR>
0

>  <SCORE.INTER.ROT>
5

>  <SCORE.INTER.SOLV>
10.5416

>  <SCORE.INTER.VDW>
-11.2368

>  <SCORE.INTER.norm>
-0.0538396

>  <SCORE.INTRA>
-0.317106

>  <SCORE.INTRA.DIHEDRAL>
-0.529787

>  <SCORE.INTRA.DIHEDRAL.0>
3.49807

>  <SCORE.INTRA.POLAR>
0

>  <SCORE.INTRA.POLAR.0>
0

>  <SCORE.INTRA.REPUL>
0

>  <SCORE.INTRA.REPUL.0>
0

>  <SCORE.INTRA.SOLV>
-0.0963848

>  <SCORE.INTRA.SOLV.lig_0>
-73.062

>  <SCORE.INTRA.VDW>
-0.00402024

>  <SCORE.INTRA.VDW.0>
-1.83782

>  <SCORE.INTRA.norm>
-0.0144139

>  <SCORE.RESTR>
0

>  <SCORE.RESTR.CAVITY>
0

>  <SCORE.RESTR.norm>
0

>  <SCORE.SYSTEM>
0

>  <SCORE.SYSTEM.CONST>
0

>  <SCORE.SYSTEM.DIHEDRAL>
0

>  <SCORE.SYSTEM.SOLV>
0

>  <SCORE.SYSTEM.norm>
0

>  <SCORE.heavy>
22

>  <SCORE.norm>
-0.0682535

>  <RMSD>
1.479

$$$$
ligand
 OpenBabel02271912143D
libRbt.so/2013.1/901 2013/11/27
 22 23  0  0  0  0  0  0  0  0999 V2000
  -29.7276    3.7550   -9.9581 N   0  0  0  0  0  0  0  0  0  0  0  0
  -26.5301    4.8588  -10.0583 C   0  0  1  0  0  0  0  0  0  0  0  0
  -27.5335    4.0930   -9.3326 O   0  0  0  0  0  0  0  0  0  0  0  0
  -25.7062    8.5507  -10.2809 P   0  0  1  0  0  0  0  0  0  0  0  0
  -28.4158    3.4919  -10.2942 C   0  0  2  0  0  0  0  0  0  0  0  0
  -31.5269    4.8326   -9.3989 N   0  0  0  0  0  0  0  0  0  0  0  0
  -28.5163    3.4111  -12.6773 O   0  0  0  0  0  0  0  0  0  0  0  0
  -28.1523    4.2223  -11.5543 C   0  0  2  0  0  0  0  0  0  0  0  0
  -33.3546    1.7883   -8.6794 N   0  0  0  0  0  0  0  0  0  0  0  0
  -25.9541    3.3406  -11.7489 O   0  0  0  0  0  0  0  0  0  0  0  0
  -26.7276    4.5233  -11.4855 C   0  0  2  0  0  0  0  0  0  0  0  0
  -31.8502    3.5430   -9.5805 C   0  0  0  0  0  0  0  0  0  0  0  0
  -30.6353    1.4807  -10.2397 N   0  0  0  0  0  0  0  0  0  0  0  0
  -25.7467    6.9865  -10.3825 O   0  0  0  0  0  0  0  0  0  0  0  0
  -26.8024    6.2994   -9.7931 C   0  0  0  0  0  0  0  0  0  0  0  0
  -27.0046    8.9940  -11.0479 O   0  0  0  0  0  0  0  0  0  0  0  0
  -30.2060    4.9604   -9.6282 C   0  0  0  0  0  0  0  0  0  0  0  0
  -34.1741    3.4933   -9.9470 O   0  0  0  0  0  0  0  0  0  0  0  0
  -33.1962    2.9620   -9.4211 C   0  0  0  0  0  0  0  0  0  0  0  0
  -30.7230    2.8586   -9.9358 C   0  0  0  0  0  0  0  0  0  0  0  0
  -25.6635    8.9600   -8.8462 O   0  5  0  0  0  0  0  0  0  0  0  0
  -24.4195    9.0731  -10.7751 O   0  0  0  0  0  0  0  0  0  0  0  0
  1 17  1  0  0  0  0
  1 20  1  0  0  0  0
  2 15  1  6  0  0  0
  2  3  1  0  0  0  0
  2 11  1  0  0  0  0
  3  5  1  0  0  0  0
  4 16  1  6  0  0  0
  4 21  1  0  0  0  0
  4 22  2  0  0  0  0
  4 14  1  0  0  0  0
  5  1  1  1  0  0  0
  5  8  1  0  0  0  0
  6 17  2  0  0  0  0
  6 12  1  0  0  0  0
  8  7  1  6  0  0  0
  8 11  1  0  0  0  0
  9 19  1  0  0  0  0
 11 10  1  1  0  0  0
 12 20  2  0  0  0  0
 12 19  1  0  0  0  0
 13 20  1  0  0  0  0
 14 15  1  0  0  0  0
 18 19  2  0  0  0  0
M  CHG  1  21  -1
M  END
>  <CHROM.1>
47.86961794,173.88837667,-62.60954560,-179.40872658,-132.27784792,-28.47825424
5.12696647,-10.25735096,-2.53734383,0.31990080,0.30752912

>  <Name>
ligand

>  <RI>
0

>  <Rbt.Current_Directory>
/home/itssahil/PROJECTS/Mol_Feturizer/Test_systems_manuscript/rnas/4xwf

>  <Rbt.Executable>
rbdock ($Id: //depot/dev/client3/rdock/2013.1/src/exe/rbdock.cxx#4 $)

>  <Rbt.Library>
libRbt.so (2013.1, Build901 2013/11/27)

>  <Rbt.Parameter_File>
/export/apps/rDock/src/rDock_2013.1_src/data/scripts/dock_solv.prm

>  <Rbt.Receptor>
prm/pocket_docking_2.prm

>  <SCORE>
-1.92403

>  <SCORE.INTER>
-0.779551

>  <SCORE.INTER.CONST>
1

>  <SCORE.INTER.POLAR>
0

>  <SCORE.INTER.ROT>
5

>  <SCORE.INTER.SOLV>
8.67568

>  <SCORE.INTER.VDW>
-10.3449

>  <SCORE.INTER.norm>
-0.0354341

>  <SCORE.INTRA>
-1.14448

>  <SCORE.INTRA.DIHEDRAL>
-1.70334

>  <SCORE.INTRA.DIHEDRAL.0>
3.49807

>  <SCORE.INTRA.POLAR>
0

>  <SCORE.INTRA.POLAR.0>
0

>  <SCORE.INTRA.REPUL>
0

>  <SCORE.INTRA.REPUL.0>
0

>  <SCORE.INTRA.SOLV>
-0.363055

>  <SCORE.INTRA.SOLV.lig_0>
-73.062

>  <SCORE.INTRA.VDW>
-0.11128

>  <SCORE.INTRA.VDW.0>
-1.83782

>  <SCORE.INTRA.norm>
-0.0520218

>  <SCORE.RESTR>
0

>  <SCORE.RESTR.CAVITY>
0

>  <SCORE.RESTR.norm>
0

>  <SCORE.SYSTEM>
0

>  <SCORE.SYSTEM.CONST>
0

>  <SCORE.SYSTEM.DIHEDRAL>
0

>  <SCORE.SYSTEM.SOLV>
0

>  <SCORE.SYSTEM.norm>
0

>  <SCORE.heavy>
22

>  <SCORE.norm>
-0.0874559

>  <RMSD>
1.495

$$$$
ligand
 OpenBabel02271912143D
libRbt.so/2013.1/901 2013/11/27
 22 23  0  0  0  0  0  0  0  0999 V2000
  -29.7503    3.7518   -9.9931 N   0  0  0  0  0  0  0  0  0  0  0  0
  -26.5570    4.8716   -9.9556 C   0  0  1  0  0  0  0  0  0  0  0  0
  -27.5910    4.1123   -9.2669 O   0  0  0  0  0  0  0  0  0  0  0  0
  -25.7670    8.5659  -10.2482 P   0  0  1  0  0  0  0  0  0  0  0  0
  -28.4223    3.4905  -10.2602 C   0  0  2  0  0  0  0  0  0  0  0  0
  -31.5689    4.8177   -9.4759 N   0  0  0  0  0  0  0  0  0  0  0  0
  -28.4057    3.3696  -12.6437 O   0  0  0  0  0  0  0  0  0  0  0  0
  -28.1010    4.2014  -11.5181 C   0  0  2  0  0  0  0  0  0  0  0  0
  -33.5131    1.7798  -10.4086 N   0  0  0  0  0  0  0  0  0  0  0  0
  -25.8917    3.3289  -11.5902 O   0  0  0  0  0  0  0  0  0  0  0  0
  -26.6828    4.5114  -11.3848 C   0  0  2  0  0  0  0  0  0  0  0  0
  -31.8960    3.5507   -9.7735 C   0  0  0  0  0  0  0  0  0  0  0  0
  -30.6664    1.5207  -10.5017 N   0  0  0  0  0  0  0  0  0  0  0  0
  -25.7969    7.0002  -10.3263 O   0  0  0  0  0  0  0  0  0  0  0  0
  -26.8488    6.3149   -9.7282 C   0  0  0  0  0  0  0  0  0  0  0  0
  -27.0848    8.9878  -10.9938 O   0  0  0  0  0  0  0  0  0  0  0  0
  -30.2341    4.9382   -9.6073 C   0  0  0  0  0  0  0  0  0  0  0  0
  -34.1681    3.5689   -9.1612 O   0  0  0  0  0  0  0  0  0  0  0  0
  -33.2571    2.9838   -9.7469 C   0  0  0  0  0  0  0  0  0  0  0  0
  -30.7564    2.8741  -10.1031 C   0  0  0  0  0  0  0  0  0  0  0  0
  -25.6974    8.9964   -8.8207 O   0  5  0  0  0  0  0  0  0  0  0  0
  -24.4953    9.0912  -10.7769 O   0  0  0  0  0  0  0  0  0  0  0  0
  1 17  1  0  0  0  0
  1 20  1  0  0  0  0
  2 15  1  6  0  0  0
  2  3  1  0  0  0  0
  2 11  1  0  0  0  0
  3  5  1  0  0  0  0
  4 16  1  6  0  0  0
  4 21  1  0  0  0  0
  4 22  2  0  0  0  0
  4 14  1  0  0  0  0
  5  1  1  1  0  0  0
  5  8  1  0  0  0  0
  6 17  2  0  0  0  0
  6 12  1  0  0  0  0
  8  7  1  6  0  0  0
  8 11  1  0  0  0  0
  9 19  1  0  0  0  0
 11 10  1  1  0  0  0
 12 20  2  0  0  0  0
 12 19  1  0  0  0  0
 13 20  1  0  0  0  0
 14 15  1  0  0  0  0
 18 19  2  0  0  0  0
M  CHG  1  21  -1
M  END
>  <CHROM.1>
42.46347353,176.31868864,-61.30957921,-178.67272519,162.98484493,-28.50619512
5.13464756,-10.29722403,-2.52365972,0.28206777,0.31611316

>  <Name>
ligand

>  <RI>
0

>  <Rbt.Current_Directory>
/home/itssahil/PROJECTS/Mol_Feturizer/Test_systems_manuscript/rnas/4xwf

>  <Rbt.Executable>
rbdock ($Id: //depot/dev/client3/rdock/2013.1/src/exe/rbdock.cxx#4 $)

>  <Rbt.Library>
libRbt.so (2013.1, Build901 2013/11/27)

>  <Rbt.Parameter_File>
/export/apps/rDock/src/rDock_2013.1_src/data/scripts/dock_solv.prm

>  <Rbt.Receptor>
prm/pocket_docking_2.prm

>  <SCORE>
-1.55941

>  <SCORE.INTER>
-1.21957

>  <SCORE.INTER.CONST>
1

>  <SCORE.INTER.POLAR>
0

>  <SCORE.INTER.ROT>
5

>  <SCORE.INTER.SOLV>
10.6066

>  <SCORE.INTER.VDW>
-11.2819

>  <SCORE.INTER.norm>
-0.0554349

>  <SCORE.INTRA>
-0.339838

>  <SCORE.INTRA.DIHEDRAL>
-0.589784

>  <SCORE.INTRA.DIHEDRAL.0>
3.49807

>  <SCORE.INTRA.POLAR>
0

>  <SCORE.INTRA.POLAR.0>
0

>  <SCORE.INTRA.REPUL>
0

>  <SCORE.INTRA.REPUL.0>
0

>  <SCORE.INTRA.SOLV>
-0.0440344

>  <SCORE.INTRA.SOLV.lig_0>
-73.062

>  <SCORE.INTRA.VDW>
-0.0229284

>  <SCORE.INTRA.VDW.0>
-1.83782

>  <SCORE.INTRA.norm>
-0.0154472

>  <SCORE.RESTR>
0

>  <SCORE.RESTR.CAVITY>
0

>  <SCORE.RESTR.norm>
0

>  <SCORE.SYSTEM>
0

>  <SCORE.SYSTEM.CONST>
0

>  <SCORE.SYSTEM.DIHEDRAL>
0

>  <SCORE.SYSTEM.SOLV>
0

>  <SCORE.SYSTEM.norm>
0

>  <SCORE.heavy>
22

>  <SCORE.norm>
-0.0708821

>  <RMSD>
1.540

$$$$
ligand
 OpenBabel02271912143D
libRbt.so/2013.1/901 2013/11/27
 22 23  0  0  0  0  0  0  0  0999 V2000
  -29.8189    3.8728   -9.8195 N   0  0  0  0  0  0  0  0  0  0  0  0
  -26.5712    4.8210   -9.7427 C   0  0  1  0  0  0  0  0  0  0  0  0
  -27.6365    4.0659   -9.0986 O   0  0  0  0  0  0  0  0  0  0  0  0
  -25.5628    8.4734   -9.7165 P   0  0  1  0  0  0  0  0  0  0  0  0
  -28.5091    3.5646  -10.1241 C   0  0  2  0  0  0  0  0  0  0  0  0
  -31.5998    5.0157   -9.3369 N   0  0  0  0  0  0  0  0  0  0  0  0
  -28.5228    3.6238  -12.5099 O   0  0  0  0  0  0  0  0  0  0  0  0
  -28.1637    4.3512  -11.3294 C   0  0  2  0  0  0  0  0  0  0  0  0
  -33.5406    2.1799   -8.3526 N   0  0  0  0  0  0  0  0  0  0  0  0
  -26.0039    3.3744  -11.4977 O   0  0  0  0  0  0  0  0  0  0  0  0
  -26.7300    4.5770  -11.1930 C   0  0  2  0  0  0  0  0  0  0  0  0
  -31.9507    3.7268   -9.4633 C   0  0  0  0  0  0  0  0  0  0  0  0
  -30.7755    1.6090  -10.0088 N   0  0  0  0  0  0  0  0  0  0  0  0
  -25.6852    6.9248   -9.9302 O   0  0  0  0  0  0  0  0  0  0  0  0
  -26.7848    6.2561   -9.4036 C   0  0  0  0  0  0  0  0  0  0  0  0
  -25.4328    8.6112   -8.1562 O   0  0  0  0  0  0  0  0  0  0  0  0
  -30.2734    5.1027   -9.5528 C   0  0  0  0  0  0  0  0  0  0  0  0
  -34.2404    3.5985   -9.9908 O   0  0  0  0  0  0  0  0  0  0  0  0
  -33.3119    3.1845   -9.2967 C   0  0  0  0  0  0  0  0  0  0  0  0
  -30.8351    3.0012   -9.7702 C   0  0  0  0  0  0  0  0  0  0  0  0
  -24.3943    8.9956  -10.4845 O   0  5  0  0  0  0  0  0  0  0  0  0
  -26.6818    9.1803  -10.3651 O   0  0  0  0  0  0  0  0  0  0  0  0
  1 17  1  0  0  0  0
  1 20  1  0  0  0  0
  2 15  1  6  0  0  0
  2  3  1  0  0  0  0
  2 11  1  0  0  0  0
  3  5  1  0  0  0  0
  4 16  1  1  0  0  0
  4 21  1  0  0  0  0
  4 22  2  0  0  0  0
  4 14  1  0  0  0  0
  5  1  1  1  0  0  0
  5  8  1  0  0  0  0
  6 17  2  0  0  0  0
  6 12  1  0  0  0  0
  8  7  1  6  0  0  0
  8 11  1  0  0  0  0
  9 19  1  0  0  0  0
 11 10  1  1  0  0  0
 12 20  2  0  0  0  0
 12 19  1  0  0  0  0
 13 20  1  0  0  0  0
 14 15  1  0  0  0  0
 18 19  2  0  0  0  0
M  CHG  1  21  -1
M  END
>  <CHROM.1>
54.13954973,174.67416438,63.55125356,-178.22346753,-122.76873586,-28.48502130
5.18771743,-9.96564904,-2.57988918,0.29726919,0.38162642

>  <Name>
ligand

>  <RI>
0

>  <Rbt.Current_Directory>
/home/itssahil/PROJECTS/Mol_Feturizer/Test_systems_manuscript/rnas/4xwf

>  <Rbt.Executable>
rbdock ($Id: //depot/dev/client3/rdock/2013.1/src/exe/rbdock.cxx#4 $)

>  <Rbt.Library>
libRbt.so (2013.1, Build901 2013/11/27)

>  <Rbt.Parameter_File>
/export/apps/rDock/src/rDock_2013.1_src/data/scripts/dock_solv.prm

>  <Rbt.Receptor>
prm/pocket_docking_2.prm

>  <SCORE>
-1.79785

>  <SCORE.INTER>
-0.547461

>  <SCORE.INTER.CONST>
1

>  <SCORE.INTER.POLAR>
0

>  <SCORE.INTER.ROT>
5

>  <SCORE.INTER.SOLV>
8.48296

>  <SCORE.INTER.VDW>
-10.126

>  <SCORE.INTER.norm>
-0.0248846

>  <SCORE.INTRA>
-1.25039

>  <SCORE.INTRA.DIHEDRAL>
-1.86997

>  <SCORE.INTRA.DIHEDRAL.0>
3.49807

>  <SCORE.INTRA.POLAR>
0

>  <SCORE.INTRA.POLAR.0>
0

>  <SCORE.INTRA.REPUL>
0

>  <SCORE.INTRA.REPUL.0>
0

>  <SCORE.INTRA.SOLV>
-0.624625

>  <SCORE.INTRA.SOLV.lig_0>
-73.062

>  <SCORE.INTRA.VDW>
-0.00308776

>  <SCORE.INTRA.VDW.0>
-1.83782

>  <SCORE.INTRA.norm>
-0.0568358

>  <SCORE.RESTR>
0

>  <SCORE.RESTR.CAVITY>
0

>  <SCORE.RESTR.norm>
0

>  <SCORE.SYSTEM>
0

>  <SCORE.SYSTEM.CONST>
0

>  <SCORE.SYSTEM.DIHEDRAL>
0

>  <SCORE.SYSTEM.SOLV>
0

>  <SCORE.SYSTEM.norm>
0

>  <SCORE.heavy>
22

>  <SCORE.norm>
-0.0817204

>  <RMSD>
1.540

$$$$
ligand
 OpenBabel02271912143D
libRbt.so/2013.1/901 2013/11/27
 22 23  0  0  0  0  0  0  0  0999 V2000
  -29.8305    3.8688   -9.8150 N   0  0  0  0  0  0  0  0  0  0  0  0
  -26.6066    4.8961   -9.8756 C   0  0  1  0  0  0  0  0  0  0  0  0
  -27.6401    4.1651   -9.1562 O   0  0  0  0  0  0  0  0  0  0  0  0
  -25.6246    8.5513  -10.0197 P   0  0  1  0  0  0  0  0  0  0  0  0
  -28.5196    3.5701  -10.1240 C   0  0  2  0  0  0  0  0  0  0  0  0
  -31.6159    4.9979   -9.3161 N   0  0  0  0  0  0  0  0  0  0  0  0
  -28.5810    3.4550  -12.5071 O   0  0  0  0  0  0  0  0  0  0  0  0
  -28.2174    4.2747  -11.3901 C   0  0  2  0  0  0  0  0  0  0  0  0
  -33.5389    2.1186   -8.3945 N   0  0  0  0  0  0  0  0  0  0  0  0
  -26.0376    3.3391  -11.5329 O   0  0  0  0  0  0  0  0  0  0  0  0
  -26.7874    4.5434  -11.3008 C   0  0  2  0  0  0  0  0  0  0  0  0
  -31.9617    3.7094   -9.4604 C   0  0  0  0  0  0  0  0  0  0  0  0
  -30.7783    1.6041  -10.0355 N   0  0  0  0  0  0  0  0  0  0  0  0
  -25.7523    6.9978  -10.1899 O   0  0  0  0  0  0  0  0  0  0  0  0
  -26.8494    6.3466   -9.6367 C   0  0  0  0  0  0  0  0  0  0  0  0
  -25.4504    8.7294   -8.4678 O   0  0  0  0  0  0  0  0  0  0  0  0
  -30.2899    5.0931   -9.5310 C   0  0  0  0  0  0  0  0  0  0  0  0
  -34.2566    3.5990   -9.9691 O   0  0  0  0  0  0  0  0  0  0  0  0
  -33.3207    3.1595   -9.3012 C   0  0  0  0  0  0  0  0  0  0  0  0
  -30.8433    2.9925   -9.7776 C   0  0  0  0  0  0  0  0  0  0  0  0
  -24.4786    9.0533  -10.8338 O   0  5  0  0  0  0  0  0  0  0  0  0
  -26.7619    9.2416  -10.6544 O   0  0  0  0  0  0  0  0  0  0  0  0
  1 17  1  0  0  0  0
  1 20  1  0  0  0  0
  2 15  1  6  0  0  0
  2  3  1  0  0  0  0
  2 11  1  0  0  0  0
  3  5  1  0  0  0  0
  4 16  1  1  0  0  0
  4 21  1  0  0  0  0
  4 22  2  0  0  0  0
  4 14  1  0  0  0  0
  5  1  1  1  0  0  0
  5  8  1  0  0  0  0
  6 17  2  0  0  0  0
  6 12  1  0  0  0  0
  8  7  1  6  0  0  0
  8 11  1  0  0  0  0
  9 19  1  0  0  0  0
 11 10  1  1  0  0  0
 12 20  2  0  0  0  0
 12 19  1  0  0  0  0
 13 20  1  0  0  0  0
 14 15  1  0  0  0  0
 18 19  2  0  0  0  0
M  CHG  1  21  -1
M  END
>  <CHROM.1>
48.91483173,172.52144903,64.75827531,-175.36477543,-124.31659279,-28.52019816
5.20176649,-10.07954366,-2.56562615,0.30841471,0.32978577

>  <Name>
ligand

>  <RI>
0

>  <Rbt.Current_Directory>
/home/itssahil/PROJECTS/Mol_Feturizer/Test_systems_manuscript/rnas/4xwf

>  <Rbt.Executable>
rbdock ($Id: //depot/dev/client3/rdock/2013.1/src/exe/rbdock.cxx#4 $)

>  <Rbt.Library>
libRbt.so (2013.1, Build901 2013/11/27)

>  <Rbt.Parameter_File>
/export/apps/rDock/src/rDock_2013.1_src/data/scripts/dock_solv.prm

>  <Rbt.Receptor>
prm/pocket_docking_2.prm

>  <SCORE>
-1.87726

>  <SCORE.INTER>
-0.653338

>  <SCORE.INTER.CONST>
1

>  <SCORE.INTER.POLAR>
0

>  <SCORE.INTER.ROT>
5

>  <SCORE.INTER.SOLV>
8.64518

>  <SCORE.INTER.VDW>
-10.2506

>  <SCORE.INTER.norm>
-0.0296972

>  <SCORE.INTRA>
-1.22392

>  <SCORE.INTRA.DIHEDRAL>
-1.67585

>  <SCORE.INTRA.DIHEDRAL.0>
3.49807

>  <SCORE.INTRA.POLAR>
0

>  <SCORE.INTRA.POLAR.0>
0

>  <SCORE.INTRA.REPUL>
0

>  <SCORE.INTRA.REPUL.0>
0

>  <SCORE.INTRA.SOLV>
-0.499943

>  <SCORE.INTRA.SOLV.lig_0>
-73.062

>  <SCORE.INTRA.VDW>
-0.136027

>  <SCORE.INTRA.VDW.0>
-1.83782

>  <SCORE.INTRA.norm>
-0.0556329

>  <SCORE.RESTR>
0

>  <SCORE.RESTR.CAVITY>
0

>  <SCORE.RESTR.norm>
0

>  <SCORE.SYSTEM>
0

>  <SCORE.SYSTEM.CONST>
0

>  <SCORE.SYSTEM.DIHEDRAL>
0

>  <SCORE.SYSTEM.SOLV>
0

>  <SCORE.SYSTEM.norm>
0

>  <SCORE.heavy>
22

>  <SCORE.norm>
-0.0853301

>  <RMSD>
1.562

$$$$
ligand
 OpenBabel02271912143D
libRbt.so/2013.1/901 2013/11/27
 22 23  0  0  0  0  0  0  0  0999 V2000
  -29.7208    3.8690   -9.9522 N   0  0  0  0  0  0  0  0  0  0  0  0
  -26.5747    5.0242  -10.4213 C   0  0  1  0  0  0  0  0  0  0  0  0
  -27.5262    4.4170   -9.5016 O   0  0  0  0  0  0  0  0  0  0  0  0
  -26.7726    8.5109   -8.9554 P   0  0  1  0  0  0  0  0  0  0  0  0
  -28.4088    3.5782  -10.2642 C   0  0  2  0  0  0  0  0  0  0  0  0
  -31.4911    4.9678   -9.3441 N   0  0  0  0  0  0  0  0  0  0  0  0
  -28.5700    2.9374  -12.5575 O   0  0  0  0  0  0  0  0  0  0  0  0
  -28.2093    4.0010  -11.6686 C   0  0  2  0  0  0  0  0  0  0  0  0
  -34.2624    3.9836   -9.0989 N   0  0  0  0  0  0  0  0  0  0  0  0
  -25.9831    3.1719  -11.7303 O   0  0  0  0  0  0  0  0  0  0  0  0
  -26.7967    4.3570  -11.7228 C   0  0  2  0  0  0  0  0  0  0  0  0
  -31.8659    3.7255   -9.6860 C   0  0  0  0  0  0  0  0  0  0  0  0
  -30.7203    1.6912  -10.5301 N   0  0  0  0  0  0  0  0  0  0  0  0
  -26.6448    6.9698   -9.2146 O   0  0  0  0  0  0  0  0  0  0  0  0
  -26.8982    6.4770  -10.4901 C   0  0  0  0  0  0  0  0  0  0  0  0
  -26.4149    8.6493   -7.4311 O   0  0  0  0  0  0  0  0  0  0  0  0
  -30.1567    5.0523   -9.5047 C   0  0  0  0  0  0  0  0  0  0  0  0
  -33.4978    2.0768  -10.0814 O   0  0  0  0  0  0  0  0  0  0  0  0
  -33.2435    3.2006   -9.6481 C   0  0  0  0  0  0  0  0  0  0  0  0
  -30.7570    3.0285  -10.0730 C   0  0  0  0  0  0  0  0  0  0  0  0
  -25.8612    9.2524   -9.8758 O   0  5  0  0  0  0  0  0  0  0  0  0
  -28.0927    9.0053   -9.3860 O   0  0  0  0  0  0  0  0  0  0  0  0
  1 17  1  0  0  0  0
  1 20  1  0  0  0  0
  2 15  1  6  0  0  0
  2  3  1  0  0  0  0
  2 11  1  0  0  0  0
  3  5  1  0  0  0  0
  4 16  1  1  0  0  0
  4 21  1  0  0  0  0
  4 22  2  0  0  0  0
  4 14  1  0  0  0  0
  5  1  1  1  0  0  0
  5  8  1  0  0  0  0
  6 17  2  0  0  0  0
  6 12  1  0  0  0  0
  8  7  1  6  0  0  0
  8 11  1  0  0  0  0
  9 19  1  0  0  0  0
 11 10  1  1  0  0  0
 12 20  2  0  0  0  0
 12 19  1  0  0  0  0
 13 20  1  0  0  0  0
 14 15  1  0  0  0  0
 18 19  2  0  0  0  0
M  CHG  1  21  -1
M  END
>  <CHROM.1>
26.72786994,64.97647872,179.95542142,175.16475912,-6.49822032,-28.80529210
5.17233191,-9.98761421,-2.44690797,0.29896226,0.49270646

>  <Name>
ligand

>  <RI>
0

>  <Rbt.Current_Directory>
/home/itssahil/PROJECTS/Mol_Feturizer/Test_systems_manuscript/rnas/4xwf

>  <Rbt.Executable>
rbdock ($Id: //depot/dev/client3/rdock/2013.1/src/exe/rbdock.cxx#4 $)

>  <Rbt.Library>
libRbt.so (2013.1, Build901 2013/11/27)

>  <Rbt.Parameter_File>
/export/apps/rDock/src/rDock_2013.1_src/data/scripts/dock_solv.prm

>  <Rbt.Receptor>
prm/pocket_docking_3.prm

>  <SCORE>
-2.46261

>  <SCORE.INTER>
-1.69691

>  <SCORE.INTER.CONST>
1

>  <SCORE.INTER.POLAR>
0

>  <SCORE.INTER.ROT>
5

>  <SCORE.INTER.SOLV>
11.1302

>  <SCORE.INTER.VDW>
-11.7747

>  <SCORE.INTER.norm>
-0.0771324

>  <SCORE.INTRA>
-0.765701

>  <SCORE.INTRA.DIHEDRAL>
-1.76529

>  <SCORE.INTRA.DIHEDRAL.0>
3.49807

>  <SCORE.INTRA.POLAR>
0

>  <SCORE.INTRA.POLAR.0>
0

>  <SCORE.INTRA.REPUL>
0

>  <SCORE.INTRA.REPUL.0>
0

>  <SCORE.INTRA.SOLV>
0.757631

>  <SCORE.INTRA.SOLV.lig_0>
-73.062

>  <SCORE.INTRA.VDW>
-0.261873

>  <SCORE.INTRA.VDW.0>
-1.83782

>  <SCORE.INTRA.norm>
-0.0348046

>  <SCORE.RESTR>
0

>  <SCORE.RESTR.CAVITY>
0

>  <SCORE.RESTR.norm>
0

>  <SCORE.SYSTEM>
0

>  <SCORE.SYSTEM.CONST>
0

>  <SCORE.SYSTEM.DIHEDRAL>
0

>  <SCORE.SYSTEM.SOLV>
0

>  <SCORE.SYSTEM.norm>
0

>  <SCORE.heavy>
22

>  <SCORE.norm>
-0.111937

>  <RMSD>
1.630

$$$$
ligand
 OpenBabel02271912143D
libRbt.so/2013.1/901 2013/11/27
 22 23  0  0  0  0  0  0  0  0999 V2000
  -29.8313    4.0509   -9.8129 N   0  0  0  0  0  0  0  0  0  0  0  0
  -26.8128    5.5791   -9.8912 C   0  0  1  0  0  0  0  0  0  0  0  0
  -27.7579    4.7853   -9.1188 O   0  0  0  0  0  0  0  0  0  0  0  0
  -26.4820    9.2821  -10.6234 P   0  0  1  0  0  0  0  0  0  0  0  0
  -28.4737    3.9354  -10.0297 C   0  0  2  0  0  0  0  0  0  0  0  0
  -31.7651    4.8998   -9.3119 N   0  0  0  0  0  0  0  0  0  0  0  0
  -28.3761    3.5100  -12.3760 O   0  0  0  0  0  0  0  0  0  0  0  0
  -28.2131    4.5135  -11.3670 C   0  0  2  0  0  0  0  0  0  0  0  0
  -34.4233    3.6343   -9.4678 N   0  0  0  0  0  0  0  0  0  0  0  0
  -25.9081    3.9394  -11.3009 O   0  0  0  0  0  0  0  0  0  0  0  0
  -26.8514    5.0233  -11.2615 C   0  0  2  0  0  0  0  0  0  0  0  0
  -31.9555    3.6359   -9.7207 C   0  0  0  0  0  0  0  0  0  0  0  0
  -30.5054    1.7927  -10.5350 N   0  0  0  0  0  0  0  0  0  0  0  0
  -26.3096    7.7283  -10.5025 O   0  0  0  0  0  0  0  0  0  0  0  0
  -27.2958    6.9883   -9.8594 C   0  0  0  0  0  0  0  0  0  0  0  0
  -25.2379    9.7158  -11.4805 O   0  0  0  0  0  0  0  0  0  0  0  0
  -30.4435    5.1530   -9.3644 C   0  0  0  0  0  0  0  0  0  0  0  0
  -33.3174    1.7683  -10.1612 O   0  0  0  0  0  0  0  0  0  0  0  0
  -33.2557    2.9456   -9.8075 C   0  0  0  0  0  0  0  0  0  0  0  0
  -30.7426    3.0958  -10.0408 C   0  0  0  0  0  0  0  0  0  0  0  0
  -27.8025    9.5942  -11.2454 O   0  5  0  0  0  0  0  0  0  0  0  0
  -26.6308    9.8964   -9.2918 O   0  0  0  0  0  0  0  0  0  0  0  0
  1 17  1  0  0  0  0
  1 20  1  0  0  0  0
  2 15  1  6  0  0  0
  2  3  1  0  0  0  0
  2 11  1  0  0  0  0
  3  5  1  0  0  0  0
  4 16  1  6  0  0  0
  4 21  1  0  0  0  0
  4 22  2  0  0  0  0
  4 14  1  0  0  0  0
  5  1  1  1  0  0  0
  5  8  1  0  0  0  0
  6 17  2  0  0  0  0
  6 12  1  0  0  0  0
  8  7  1  6  0  0  0
  8 11  1  0  0  0  0
  9 19  1  0  0  0  0
 11 10  1  1  0  0  0
 12 20  2  0  0  0  0
 12 19  1  0  0  0  0
 13 20  1  0  0  0  0
 14 15  1  0  0  0  0
 18 19  2  0  0  0  0
M  CHG  1  21  -1
M  END
>  <CHROM.1>
30.16142821,174.86202020,-176.24393480,-178.69359417,1.23852579,-28.77612276
5.55394516,-10.34370016,-2.39019761,0.26678468,0.16084339

>  <Name>
ligand

>  <RI>
0

>  <Rbt.Current_Directory>
/home/itssahil/PROJECTS/Mol_Feturizer/Test_systems_manuscript/rnas/4xwf

>  <Rbt.Executable>
rbdock ($Id: //depot/dev/client3/rdock/2013.1/src/exe/rbdock.cxx#4 $)

>  <Rbt.Library>
libRbt.so (2013.1, Build901 2013/11/27)

>  <Rbt.Parameter_File>
/export/apps/rDock/src/rDock_2013.1_src/data/scripts/dock_solv.prm

>  <Rbt.Receptor>
prm/pocket_docking_3.prm

>  <SCORE>
-2.76293

>  <SCORE.INTER>
-2.08477

>  <SCORE.INTER.CONST>
1

>  <SCORE.INTER.POLAR>
0

>  <SCORE.INTER.ROT>
5

>  <SCORE.INTER.SOLV>
11.6788

>  <SCORE.INTER.VDW>
-12.2161

>  <SCORE.INTER.norm>
-0.0947621

>  <SCORE.INTRA>
-0.678163

>  <SCORE.INTRA.DIHEDRAL>
-1.91288

>  <SCORE.INTRA.DIHEDRAL.0>
3.49807

>  <SCORE.INTRA.POLAR>
0

>  <SCORE.INTRA.POLAR.0>
0

>  <SCORE.INTRA.REPUL>
0

>  <SCORE.INTRA.REPUL.0>
0

>  <SCORE.INTRA.SOLV>
0.711024

>  <SCORE.INTRA.SOLV.lig_0>
-73.062

>  <SCORE.INTRA.VDW>
-0.0772362

>  <SCORE.INTRA.VDW.0>
-1.83782

>  <SCORE.INTRA.norm>
-0.0308256

>  <SCORE.RESTR>
0

>  <SCORE.RESTR.CAVITY>
0

>  <SCORE.RESTR.norm>
0

>  <SCORE.SYSTEM>
0

>  <SCORE.SYSTEM.CONST>
0

>  <SCORE.SYSTEM.DIHEDRAL>
0

>  <SCORE.SYSTEM.SOLV>
0

>  <SCORE.SYSTEM.norm>
0

>  <SCORE.heavy>
22

>  <SCORE.norm>
-0.125588

>  <RMSD>
1.732

$$$$
ligand
 OpenBabel02271912143D
libRbt.so/2013.1/901 2013/11/27
 22 23  0  0  0  0  0  0  0  0999 V2000
  -29.5998    2.7545  -10.7638 N   0  0  0  0  0  0  0  0  0  0  0  0
  -26.5474    2.8347  -12.2229 C   0  0  1  0  0  0  0  0  0  0  0  0
  -27.3165    2.5522  -11.0193 O   0  0  0  0  0  0  0  0  0  0  0  0
  -25.4010    6.2028  -10.9190 P   0  0  1  0  0  0  0  0  0  0  0  0
  -28.6052    2.0595  -11.4203 C   0  0  2  0  0  0  0  0  0  0  0  0
  -30.7059    4.3834   -9.8503 N   0  0  0  0  0  0  0  0  0  0  0  0
  -29.6453    1.5485  -13.5067 O   0  0  0  0  0  0  0  0  0  0  0  0
  -28.7172    2.4208  -12.8513 C   0  0  2  0  0  0  0  0  0  0  0  0
  -33.8980    2.8617  -10.0103 N   0  0  0  0  0  0  0  0  0  0  0  0
  -26.9938    0.9154  -13.4923 O   0  0  0  0  0  0  0  0  0  0  0  0
  -27.3506    2.3000  -13.3441 C   0  0  2  0  0  0  0  0  0  0  0  0
  -31.4623    3.2767   -9.7884 C   0  0  0  0  0  0  0  0  0  0  0  0
  -31.2255    0.9173  -10.5237 N   0  0  0  0  0  0  0  0  0  0  0  0
  -25.7124    4.6856  -11.1630 O   0  0  0  0  0  0  0  0  0  0  0  0
  -26.4020    4.3149  -12.3123 C   0  0  0  0  0  0  0  0  0  0  0  0
  -24.5455    6.6005  -12.1762 O   0  0  0  0  0  0  0  0  0  0  0  0
  -29.5466    4.0546  -10.4515 C   0  0  0  0  0  0  0  0  0  0  0  0
  -32.9835    3.4094   -7.9980 O   0  0  0  0  0  0  0  0  0  0  0  0
  -32.8098    3.1866   -9.1960 C   0  0  0  0  0  0  0  0  0  0  0  0
  -30.7738    2.2474  -10.3644 C   0  0  0  0  0  0  0  0  0  0  0  0
  -26.6785    6.9608  -10.7735 O   0  5  0  0  0  0  0  0  0  0  0  0
  -24.7865    6.4035   -9.5943 O   0  0  0  0  0  0  0  0  0  0  0  0
  1 17  1  0  0  0  0
  1 20  1  0  0  0  0
  2 15  1  6  0  0  0
  2  3  1  0  0  0  0
  2 11  1  0  0  0  0
  3  5  1  0  0  0  0
  4 16  1  6  0  0  0
  4 21  1  0  0  0  0
  4 22  2  0  0  0  0
  4 14  1  0  0  0  0
  5  1  1  1  0  0  0
  5  8  1  0  0  0  0
  6 17  2  0  0  0  0
  6 12  1  0  0  0  0
  8  7  1  6  0  0  0
  8 11  1  0  0  0  0
  9 19  1  0  0  0  0
 11 10  1  1  0  0  0
 12 20  2  0  0  0  0
 12 19  1  0  0  0  0
 13 20  1  0  0  0  0
 14 15  1  0  0  0  0
 18 19  2  0  0  0  0
M  CHG  1  21  -1
M  END
>  <CHROM.1>
35.34558040,61.00130695,-59.30942499,-179.10401854,116.61817999,-28.42801715
3.68610845,-11.08838313,-2.93118303,0.41724724,0.65516847

>  <Name>
ligand

>  <RI>
0

>  <Rbt.Current_Directory>
/home/itssahil/PROJECTS/Mol_Feturizer/Test_systems_manuscript/rnas/4xwf

>  <Rbt.Executable>
rbdock ($Id: //depot/dev/client3/rdock/2013.1/src/exe/rbdock.cxx#4 $)

>  <Rbt.Library>
libRbt.so (2013.1, Build901 2013/11/27)

>  <Rbt.Parameter_File>
/export/apps/rDock/src/rDock_2013.1_src/data/scripts/dock_solv.prm

>  <Rbt.Receptor>
prm/pocket_docking_3.prm

>  <SCORE>
-1.09814

>  <SCORE.INTER>
0.418381

>  <SCORE.INTER.CONST>
1

>  <SCORE.INTER.POLAR>
0

>  <SCORE.INTER.ROT>
5

>  <SCORE.INTER.SOLV>
12.0349

>  <SCORE.INTER.VDW>
-10.666

>  <SCORE.INTER.norm>
0.0190173

>  <SCORE.INTRA>
-1.51652

>  <SCORE.INTRA.DIHEDRAL>
-1.99903

>  <SCORE.INTRA.DIHEDRAL.0>
3.49807

>  <SCORE.INTRA.POLAR>
0

>  <SCORE.INTRA.POLAR.0>
0

>  <SCORE.INTRA.REPUL>
0

>  <SCORE.INTRA.REPUL.0>
0

>  <SCORE.INTRA.SOLV>
-0.125738

>  <SCORE.INTRA.SOLV.lig_0>
-73.062

>  <SCORE.INTRA.VDW>
-0.454142

>  <SCORE.INTRA.VDW.0>
-1.83782

>  <SCORE.INTRA.norm>
-0.0689329

>  <SCORE.RESTR>
0

>  <SCORE.RESTR.CAVITY>
0

>  <SCORE.RESTR.norm>
0

>  <SCORE.SYSTEM>
0

>  <SCORE.SYSTEM.CONST>
0

>  <SCORE.SYSTEM.DIHEDRAL>
0

>  <SCORE.SYSTEM.SOLV>
0

>  <SCORE.SYSTEM.norm>
0

>  <SCORE.heavy>
22

>  <SCORE.norm>
-0.0499156

>  <RMSD>
1.897

$$$$
ligand
 OpenBabel02271912143D
libRbt.so/2013.1/901 2013/11/27
 22 23  0  0  0  0  0  0  0  0999 V2000
  -30.1675    3.7258   -9.6423 N   0  0  0  0  0  0  0  0  0  0  0  0
  -26.9666    4.2315  -10.6176 C   0  0  1  0  0  0  0  0  0  0  0  0
  -27.8855    4.0324   -9.5060 O   0  0  0  0  0  0  0  0  0  0  0  0
  -26.5912    7.9695  -10.1262 P   0  0  1  0  0  0  0  0  0  0  0  0
  -28.9438    3.1694   -9.9527 C   0  0  2  0  0  0  0  0  0  0  0  0
  -31.7118    5.1992   -9.2481 N   0  0  0  0  0  0  0  0  0  0  0  0
  -29.4270    1.9928  -11.9721 O   0  0  0  0  0  0  0  0  0  0  0  0
  -28.8412    3.1819  -11.4292 C   0  0  2  0  0  0  0  0  0  0  0  0
  -34.0521    3.2280   -7.6359 N   0  0  0  0  0  0  0  0  0  0  0  0
  -26.7585    2.0375  -11.4163 O   0  0  0  0  0  0  0  0  0  0  0  0
  -27.4083    3.2938  -11.6730 C   0  0  2  0  0  0  0  0  0  0  0  0
  -32.2706    3.9806   -9.1895 C   0  0  0  0  0  0  0  0  0  0  0  0
  -31.4823    1.6462   -9.4941 N   0  0  0  0  0  0  0  0  0  0  0  0
  -26.6419    6.4087   -9.9849 O   0  0  0  0  0  0  0  0  0  0  0  0
  -27.1068    5.6495  -11.0532 C   0  0  0  0  0  0  0  0  0  0  0  0
  -28.0986    8.3596  -10.3411 O   0  0  0  0  0  0  0  0  0  0  0  0
  -30.4035    5.0376   -9.5235 C   0  0  0  0  0  0  0  0  0  0  0  0
  -34.5479    3.8541   -9.7685 O   0  0  0  0  0  0  0  0  0  0  0  0
  -33.6886    3.6964   -8.9013 C   0  0  0  0  0  0  0  0  0  0  0  0
  -31.3049    3.0477   -9.4397 C   0  0  0  0  0  0  0  0  0  0  0  0
  -25.9645    8.5640   -8.9089 O   0  5  0  0  0  0  0  0  0  0  0  0
  -25.6352    8.3684  -11.1748 O   0  0  0  0  0  0  0  0  0  0  0  0
  1 17  1  0  0  0  0
  1 20  1  0  0  0  0
  2 15  1  6  0  0  0
  2  3  1  0  0  0  0
  2 11  1  0  0  0  0
  3  5  1  0  0  0  0
  4 16  1  6  0  0  0
  4 21  1  0  0  0  0
  4 22  2  0  0  0  0
  4 14  1  0  0  0  0
  5  1  1  6  0  0  0
  5  8  1  0  0  0  0
  6 17  2  0  0  0  0
  6 12  1  0  0  0  0
  8  7  1  6  0  0  0
  8 11  1  0  0  0  0
  9 19  1  0  0  0  0
 11 10  1  1  0  0  0
 12 20  2  0  0  0  0
 12 19  1  0  0  0  0
 13 20  1  0  0  0  0
 14 15  1  0  0  0  0
 18 19  2  0  0  0  0
M  CHG  1  21  -1
M  END
>  <CHROM.1>
27.90419319,65.77442987,61.90480523,177.50300181,-103.50404416,-29.10997753
4.82225195,-10.07452680,-2.62602037,0.33155765,0.28491514

>  <Name>
ligand

>  <RI>
0

>  <Rbt.Current_Directory>
/home/itssahil/PROJECTS/Mol_Feturizer/Test_systems_manuscript/rnas/4xwf

>  <Rbt.Executable>
rbdock ($Id: //depot/dev/client3/rdock/2013.1/src/exe/rbdock.cxx#4 $)

>  <Rbt.Library>
libRbt.so (2013.1, Build901 2013/11/27)

>  <Rbt.Parameter_File>
/export/apps/rDock/src/rDock_2013.1_src/data/scripts/dock_solv.prm

>  <Rbt.Receptor>
prm/pocket_docking_3.prm

>  <SCORE>
-3.36208

>  <SCORE.INTER>
-2.10839

>  <SCORE.INTER.CONST>
1

>  <SCORE.INTER.POLAR>
0

>  <SCORE.INTER.ROT>
5

>  <SCORE.INTER.SOLV>
8.63563

>  <SCORE.INTER.VDW>
-11.2175

>  <SCORE.INTER.norm>
-0.095836

>  <SCORE.INTRA>
-1.25369

>  <SCORE.INTRA.DIHEDRAL>
-1.55657

>  <SCORE.INTRA.DIHEDRAL.0>
3.49807

>  <SCORE.INTRA.POLAR>
0

>  <SCORE.INTRA.POLAR.0>
0

>  <SCORE.INTRA.REPUL>
0

>  <SCORE.INTRA.REPUL.0>
0

>  <SCORE.INTRA.SOLV>
0.0288918

>  <SCORE.INTRA.SOLV.lig_0>
-73.062

>  <SCORE.INTRA.VDW>
-0.48985

>  <SCORE.INTRA.VDW.0>
-1.83782

>  <SCORE.INTRA.norm>
-0.0569858

>  <SCORE.RESTR>
0

>  <SCORE.RESTR.CAVITY>
0

>  <SCORE.RESTR.norm>
0

>  <SCORE.SYSTEM>
0

>  <SCORE.SYSTEM.CONST>
0

>  <SCORE.SYSTEM.DIHEDRAL>
0

>  <SCORE.SYSTEM.SOLV>
0

>  <SCORE.SYSTEM.norm>
0

>  <SCORE.heavy>
22

>  <SCORE.norm>
-0.152822

>  <RMSD>
2.022

$$$$
ligand
 OpenBabel02271912143D
libRbt.so/2013.1/901 2013/11/27
 22 23  0  0  0  0  0  0  0  0999 V2000
  -29.9160    4.2155   -9.6029 N   0  0  0  0  0  0  0  0  0  0  0  0
  -26.9011    5.7525   -9.5993 C   0  0  1  0  0  0  0  0  0  0  0  0
  -27.8929    5.0117   -8.8329 O   0  0  0  0  0  0  0  0  0  0  0  0
  -26.5248    9.3963  -10.5687 P   0  0  1  0  0  0  0  0  0  0  0  0
  -28.5472    4.0928   -9.7228 C   0  0  2  0  0  0  0  0  0  0  0  0
  -31.8793    5.0865   -9.2899 N   0  0  0  0  0  0  0  0  0  0  0  0
  -28.2975    3.4967  -12.0202 O   0  0  0  0  0  0  0  0  0  0  0  0
  -28.2015    4.5727  -11.0796 C   0  0  2  0  0  0  0  0  0  0  0  0
  -33.3518    1.7571  -10.1485 N   0  0  0  0  0  0  0  0  0  0  0  0
  -25.9047    4.0193  -10.8232 O   0  0  0  0  0  0  0  0  0  0  0  0
  -26.8502    5.0973  -10.9246 C   0  0  2  0  0  0  0  0  0  0  0  0
  -32.0412    3.7955   -9.6183 C   0  0  0  0  0  0  0  0  0  0  0  0
  -30.5391    1.9073  -10.2029 N   0  0  0  0  0  0  0  0  0  0  0  0
  -26.3540    7.8585  -10.3144 O   0  0  0  0  0  0  0  0  0  0  0  0
  -27.3872    7.1571   -9.7027 C   0  0  0  0  0  0  0  0  0  0  0  0
  -25.2201    9.7767  -11.3584 O   0  0  0  0  0  0  0  0  0  0  0  0
  -30.5574    5.3432   -9.2751 C   0  0  0  0  0  0  0  0  0  0  0  0
  -34.3882    3.6773   -9.4972 O   0  0  0  0  0  0  0  0  0  0  0  0
  -33.3322    3.0931   -9.7391 C   0  0  0  0  0  0  0  0  0  0  0  0
  -30.8094    3.2410   -9.8199 C   0  0  0  0  0  0  0  0  0  0  0  0
  -27.7945    9.6444  -11.3131 O   0  5  0  0  0  0  0  0  0  0  0  0
  -26.7799   10.1097   -9.3044 O   0  0  0  0  0  0  0  0  0  0  0  0
  1 17  1  0  0  0  0
  1 20  1  0  0  0  0
  2 15  1  6  0  0  0
  2  3  1  0  0  0  0
  2 11  1  0  0  0  0
  3  5  1  0  0  0  0
  4 16  1  6  0  0  0
  4 21  1  0  0  0  0
  4 22  2  0  0  0  0
  4 14  1  0  0  0  0
  5  1  1  6  0  0  0
  5  8  1  0  0  0  0
  6 17  2  0  0  0  0
  6 12  1  0  0  0  0
  8  7  1  6  0  0  0
  8 11  1  0  0  0  0
  9 19  1  0  0  0  0
 11 10  1  1  0  0  0
 12 20  2  0  0  0  0
 12 19  1  0  0  0  0
 13 20  1  0  0  0  0
 14 15  1  0  0  0  0
 18 19  2  0  0  0  0
M  CHG  1  21  -1
M  END
>  <CHROM.1>
30.05212807,173.93953424,-175.77587426,-179.34306713,177.15280411,-28.82952518
5.68276322,-10.17304844,-2.37841672,0.20518924,0.09012480

>  <Name>
ligand

>  <RI>
0

>  <Rbt.Current_Directory>
/home/itssahil/PROJECTS/Mol_Feturizer/Test_systems_manuscript/rnas/4xwf

>  <Rbt.Executable>
rbdock ($Id: //depot/dev/client3/rdock/2013.1/src/exe/rbdock.cxx#4 $)

>  <Rbt.Library>
libRbt.so (2013.1, Build901 2013/11/27)

>  <Rbt.Parameter_File>
/export/apps/rDock/src/rDock_2013.1_src/data/scripts/dock_solv.prm

>  <Rbt.Receptor>
prm/pocket_docking_3.prm

>  <SCORE>
-1.97701

>  <SCORE.INTER>
-2.29178

>  <SCORE.INTER.CONST>
1

>  <SCORE.INTER.POLAR>
0

>  <SCORE.INTER.ROT>
5

>  <SCORE.INTER.SOLV>
10.2332

>  <SCORE.INTER.VDW>
-11.8723

>  <SCORE.INTER.norm>
-0.104172

>  <SCORE.INTRA>
0.314772

>  <SCORE.INTRA.DIHEDRAL>
-0.238367

>  <SCORE.INTRA.DIHEDRAL.0>
3.49807

>  <SCORE.INTRA.POLAR>
0

>  <SCORE.INTRA.POLAR.0>
0

>  <SCORE.INTRA.REPUL>
0

>  <SCORE.INTRA.REPUL.0>
0

>  <SCORE.INTRA.SOLV>
1.04657

>  <SCORE.INTRA.SOLV.lig_0>
-73.062

>  <SCORE.INTRA.VDW>
-0.0893279

>  <SCORE.INTRA.VDW.0>
-1.83782

>  <SCORE.INTRA.norm>
0.0143078

>  <SCORE.RESTR>
0

>  <SCORE.RESTR.CAVITY>
0

>  <SCORE.RESTR.norm>
0

>  <SCORE.SYSTEM>
0

>  <SCORE.SYSTEM.CONST>
0

>  <SCORE.SYSTEM.DIHEDRAL>
0

>  <SCORE.SYSTEM.SOLV>
0

>  <SCORE.SYSTEM.norm>
0

>  <SCORE.heavy>
22

>  <SCORE.norm>
-0.089864

>  <RMSD>
2.048

$$$$
ligand
 OpenBabel02271912143D
libRbt.so/2013.1/901 2013/11/27
 22 23  0  0  0  0  0  0  0  0999 V2000
  -30.0836    4.2010   -9.4534 N   0  0  0  0  0  0  0  0  0  0  0  0
  -26.8490    4.8415  -10.2147 C   0  0  1  0  0  0  0  0  0  0  0  0
  -27.8248    4.5703   -9.1687 O   0  0  0  0  0  0  0  0  0  0  0  0
  -26.7633    8.5643   -9.5131 P   0  0  1  0  0  0  0  0  0  0  0  0
  -28.8265    3.6946   -9.7109 C   0  0  2  0  0  0  0  0  0  0  0  0
  -31.6898    5.6084   -9.0659 N   0  0  0  0  0  0  0  0  0  0  0  0
  -29.1516    2.5862  -11.7994 O   0  0  0  0  0  0  0  0  0  0  0  0
  -28.6376    3.7695  -11.1771 C   0  0  2  0  0  0  0  0  0  0  0  0
  -34.2684    3.2215   -9.9342 N   0  0  0  0  0  0  0  0  0  0  0  0
  -26.5233    2.6887  -11.0831 O   0  0  0  0  0  0  0  0  0  0  0  0
  -27.1973    3.9342  -11.3300 C   0  0  2  0  0  0  0  0  0  0  0  0
  -32.2206    4.3786   -9.1457 C   0  0  0  0  0  0  0  0  0  0  0  0
  -31.3531    2.0913   -9.5694 N   0  0  0  0  0  0  0  0  0  0  0  0
  -26.6826    6.9991   -9.4643 O   0  0  0  0  0  0  0  0  0  0  0  0
  -27.0092    6.2710  -10.6031 C   0  0  0  0  0  0  0  0  0  0  0  0
  -26.2998    8.9927   -8.0736 O   0  0  0  0  0  0  0  0  0  0  0  0
  -30.3609    5.4944   -9.2515 C   0  0  0  0  0  0  0  0  0  0  0  0
  -34.2989    4.4979   -8.0485 O   0  0  0  0  0  0  0  0  0  0  0  0
  -33.6487    4.0453   -8.9906 C   0  0  0  0  0  0  0  0  0  0  0  0
  -31.2157    3.4872   -9.3926 C   0  0  0  0  0  0  0  0  0  0  0  0
  -25.9031    9.0774  -10.6197 O   0  5  0  0  0  0  0  0  0  0  0  0
  -28.1002    9.0050   -9.9502 O   0  0  0  0  0  0  0  0  0  0  0  0
  1 17  1  0  0  0  0
  1 20  1  0  0  0  0
  2 15  1  6  0  0  0
  2  3  1  0  0  0  0
  2 11  1  0  0  0  0
  3  5  1  0  0  0  0
  4 16  1  1  0  0  0
  4 21  1  0  0  0  0
  4 22  2  0  0  0  0
  4 14  1  0  0  0  0
  5  1  1  6  0  0  0
  5  8  1  0  0  0  0
  6 17  2  0  0  0  0
  6 12  1  0  0  0  0
  8  7  1  6  0  0  0
  8 11  1  0  0  0  0
  9 19  1  0  0  0  0
 11 10  1  1  0  0  0
 12 20  2  0  0  0  0
 12 19  1  0  0  0  0
 13 20  1  0  0  0  0
 14 15  1  0  0  0  0
 18 19  2  0  0  0  0
M  CHG  1  21  -1
M  END
>  <CHROM.1>
25.38924930,63.53377224,-178.92450772,-179.19253577,131.53201070,-29.07892813
5.34775066,-9.78734172,-2.56618785,0.28271135,0.32358980

>  <Name>
ligand

>  <RI>
0

>  <Rbt.Current_Directory>
/home/itssahil/PROJECTS/Mol_Feturizer/Test_systems_manuscript/rnas/4xwf

>  <Rbt.Executable>
rbdock ($Id: //depot/dev/client3/rdock/2013.1/src/exe/rbdock.cxx#4 $)

>  <Rbt.Library>
libRbt.so (2013.1, Build901 2013/11/27)

>  <Rbt.Parameter_File>
/export/apps/rDock/src/rDock_2013.1_src/data/scripts/dock_solv.prm

>  <Rbt.Receptor>
prm/pocket_docking_3.prm

>  <SCORE>
-2.1361

>  <SCORE.INTER>
-1.29121

>  <SCORE.INTER.CONST>
1

>  <SCORE.INTER.POLAR>
0

>  <SCORE.INTER.ROT>
5

>  <SCORE.INTER.SOLV>
10.3187

>  <SCORE.INTER.VDW>
-11.2337

>  <SCORE.INTER.norm>
-0.0586915

>  <SCORE.INTRA>
-0.848326

>  <SCORE.INTRA.DIHEDRAL>
-1.80721

>  <SCORE.INTRA.DIHEDRAL.0>
3.49807

>  <SCORE.INTRA.POLAR>
0

>  <SCORE.INTRA.POLAR.0>
0

>  <SCORE.INTRA.REPUL>
0

>  <SCORE.INTRA.REPUL.0>
0

>  <SCORE.INTRA.SOLV>
0.974584

>  <SCORE.INTRA.SOLV.lig_0>
-73.062

>  <SCORE.INTRA.VDW>
-0.432012

>  <SCORE.INTRA.VDW.0>
-1.83782

>  <SCORE.INTRA.norm>
-0.0385603

>  <SCORE.RESTR>
0.00344125

>  <SCORE.RESTR.CAVITY>
0.00344125

>  <SCORE.RESTR.norm>
0.000156421

>  <SCORE.SYSTEM>
0

>  <SCORE.SYSTEM.CONST>
0

>  <SCORE.SYSTEM.DIHEDRAL>
0

>  <SCORE.SYSTEM.SOLV>
0

>  <SCORE.SYSTEM.norm>
0

>  <SCORE.heavy>
22

>  <SCORE.norm>
-0.0970954

>  <RMSD>
2.181

$$$$
ligand
 OpenBabel02271912143D
libRbt.so/2013.1/901 2013/11/27
 22 23  0  0  0  0  0  0  0  0999 V2000
  -30.9870    1.6345  -10.5436 N   0  0  0  0  0  0  0  0  0  0  0  0
  -27.6391    2.1202  -10.4523 C   0  0  1  0  0  0  0  0  0  0  0  0
  -28.8149    1.6004   -9.7687 O   0  0  0  0  0  0  0  0  0  0  0  0
  -26.1089    5.5720  -10.7710 P   0  0  1  0  0  0  0  0  0  0  0  0
  -29.7290    1.1130  -10.7642 C   0  0  2  0  0  0  0  0  0  0  0  0
  -33.1458    1.8594  -10.5489 N   0  0  0  0  0  0  0  0  0  0  0  0
  -29.6848    0.9014  -13.1410 O   0  0  0  0  0  0  0  0  0  0  0  0
  -29.2495    1.7009  -12.0351 C   0  0  2  0  0  0  0  0  0  0  0  0
  -32.7419    5.1617   -8.8924 N   0  0  0  0  0  0  0  0  0  0  0  0
  -27.2493    0.4179  -12.0159 O   0  0  0  0  0  0  0  0  0  0  0  0
  -27.8014    1.7373  -11.8720 C   0  0  2  0  0  0  0  0  0  0  0  0
  -32.6205    2.8750   -9.8466 C   0  0  0  0  0  0  0  0  0  0  0  0
  -30.3354    3.5866   -9.1869 N   0  0  0  0  0  0  0  0  0  0  0  0
  -26.4451    4.0411  -10.8137 O   0  0  0  0  0  0  0  0  0  0  0  0
  -27.6515    3.6002  -10.2809 C   0  0  0  0  0  0  0  0  0  0  0  0
  -26.0571    5.8853   -9.2316 O   0  0  0  0  0  0  0  0  0  0  0  0
  -32.1281    1.0935  -10.9860 C   0  0  0  0  0  0  0  0  0  0  0  0
  -34.5692    3.8029   -8.9091 O   0  0  0  0  0  0  0  0  0  0  0  0
  -33.3825    3.9576   -9.1970 C   0  0  0  0  0  0  0  0  0  0  0  0
  -31.2616    2.7386   -9.8362 C   0  0  0  0  0  0  0  0  0  0  0  0
  -24.8308    5.8262  -11.4987 O   0  5  0  0  0  0  0  0  0  0  0  0
  -27.0689    6.3406  -11.5837 O   0  0  0  0  0  0  0  0  0  0  0  0
  1 17  1  0  0  0  0
  1 20  1  0  0  0  0
  2 15  1  6  0  0  0
  2  3  1  0  0  0  0
  2 11  1  0  0  0  0
  3  5  1  0  0  0  0
  4 16  1  1  0  0  0
  4 21  1  0  0  0  0
  4 22  2  0  0  0  0
  4 14  1  0  0  0  0
  5  1  1  1  0  0  0
  5  8  1  0  0  0  0
  6 17  2  0  0  0  0
  6 12  1  0  0  0  0
  8  7  1  6  0  0  0
  8 11  1  0  0  0  0
  9 19  1  0  0  0  0
 11 10  1  1  0  0  0
 12 20  2  0  0  0  0
 12 19  1  0  0  0  0
 13 20  1  0  0  0  0
 14 15  1  0  0  0  0
 18 19  2  0  0  0  0
M  CHG  1  21  -1
M  END
>  <CHROM.1>
-157.75774540,173.55310372,62.41097097,-178.73167014,-158.67480641,-29.21982270
3.25251413,-10.58548294,-2.90396772,0.26884006,0.40730132

>  <Name>
ligand

>  <RI>
0

>  <Rbt.Current_Directory>
/home/itssahil/PROJECTS/Mol_Feturizer/Test_systems_manuscript/rnas/4xwf

>  <Rbt.Executable>
rbdock ($Id: //depot/dev/client3/rdock/2013.1/src/exe/rbdock.cxx#4 $)

>  <Rbt.Library>
libRbt.so (2013.1, Build901 2013/11/27)

>  <Rbt.Parameter_File>
/export/apps/rDock/src/rDock_2013.1_src/data/scripts/dock_solv.prm

>  <Rbt.Receptor>
prm/pocket_docking_3.prm

>  <SCORE>
-2.82063

>  <SCORE.INTER>
-4.74145

>  <SCORE.INTER.CONST>
1

>  <SCORE.INTER.POLAR>
0

>  <SCORE.INTER.ROT>
5

>  <SCORE.INTER.SOLV>
10.4571

>  <SCORE.INTER.VDW>
-13.58

>  <SCORE.INTER.norm>
-0.215521

>  <SCORE.INTRA>
1.92082

>  <SCORE.INTRA.DIHEDRAL>
-0.623175

>  <SCORE.INTRA.DIHEDRAL.0>
3.49807

>  <SCORE.INTRA.POLAR>
0

>  <SCORE.INTRA.POLAR.0>
0

>  <SCORE.INTRA.REPUL>
0

>  <SCORE.INTRA.REPUL.0>
0

>  <SCORE.INTRA.SOLV>
3.86433

>  <SCORE.INTRA.SOLV.lig_0>
-73.062

>  <SCORE.INTRA.VDW>
0.300243

>  <SCORE.INTRA.VDW.0>
-1.83782

>  <SCORE.INTRA.norm>
0.0873101

>  <SCORE.RESTR>
0

>  <SCORE.RESTR.CAVITY>
0

>  <SCORE.RESTR.norm>
0

>  <SCORE.SYSTEM>
0

>  <SCORE.SYSTEM.CONST>
0

>  <SCORE.SYSTEM.DIHEDRAL>
0

>  <SCORE.SYSTEM.SOLV>
0

>  <SCORE.SYSTEM.norm>
0

>  <SCORE.heavy>
22

>  <SCORE.norm>
-0.128211

>  <RMSD>
2.923

$$$$
ligand
 OpenBabel02271912143D
libRbt.so/2013.1/901 2013/11/27
 22 23  0  0  0  0  0  0  0  0999 V2000
  -31.1865    1.4242  -10.5759 N   0  0  0  0  0  0  0  0  0  0  0  0
  -27.8963    2.2161  -10.5939 C   0  0  1  0  0  0  0  0  0  0  0  0
  -29.0056    1.6309   -9.8543 O   0  0  0  0  0  0  0  0  0  0  0  0
  -26.6742    5.7600  -11.1183 P   0  0  1  0  0  0  0  0  0  0  0  0
  -29.8905    1.0074  -10.7990 C   0  0  2  0  0  0  0  0  0  0  0  0
  -33.3515    1.5404  -10.6770 N   0  0  0  0  0  0  0  0  0  0  0  0
  -29.8738    0.6674  -13.1612 O   0  0  0  0  0  0  0  0  0  0  0  0
  -29.4921    1.5640  -12.1114 C   0  0  2  0  0  0  0  0  0  0  0  0
  -33.7635    3.3370   -7.6317 N   0  0  0  0  0  0  0  0  0  0  0  0
  -27.3824    0.4710  -12.0721 O   0  0  0  0  0  0  0  0  0  0  0  0
  -28.0505    1.7408  -11.9863 C   0  0  2  0  0  0  0  0  0  0  0  0
  -32.9237    2.4547   -9.7929 C   0  0  0  0  0  0  0  0  0  0  0  0
  -30.7214    3.1628   -8.8917 N   0  0  0  0  0  0  0  0  0  0  0  0
  -26.8205    4.2109  -10.9247 O   0  0  0  0  0  0  0  0  0  0  0  0
  -28.0414    3.6961  -10.5027 C   0  0  0  0  0  0  0  0  0  0  0  0
  -27.2675    6.3459   -9.7860 O   0  0  0  0  0  0  0  0  0  0  0  0
  -32.2694    0.9057  -11.1666 C   0  0  0  0  0  0  0  0  0  0  0  0
  -34.5174    4.1763   -9.6098 O   0  0  0  0  0  0  0  0  0  0  0  0
  -33.7803    3.3802   -9.0285 C   0  0  0  0  0  0  0  0  0  0  0  0
  -31.5615    2.3855   -9.7215 C   0  0  0  0  0  0  0  0  0  0  0  0
  -25.2421    6.1027  -11.3626 O   0  5  0  0  0  0  0  0  0  0  0  0
  -27.3000    6.1899  -12.3817 O   0  0  0  0  0  0  0  0  0  0  0  0
  1 17  1  0  0  0  0
  1 20  1  0  0  0  0
  2 15  1  6  0  0  0
  2  3  1  0  0  0  0
  2 11  1  0  0  0  0
  3  5  1  0  0  0  0
  4 16  1  1  0  0  0
  4 21  1  0  0  0  0
  4 22  2  0  0  0  0
  4 14  1  0  0  0  0
  5  1  1  1  0  0  0
  5  8  1  0  0  0  0
  6 17  2  0  0  0  0
  6 12  1  0  0  0  0
  8  7  1  6  0  0  0
  8 11  1  0  0  0  0
  9 19  1  0  0  0  0
 11 10  1  1  0  0  0
 12 20  2  0  0  0  0
 12 19  1  0  0  0  0
 13 20  1  0  0  0  0
 14 15  1  0  0  0  0
 18 19  2  0  0  0  0
M  CHG  1  21  -1
M  END
>  <CHROM.1>
-171.06155501,165.92704183,48.73889970,172.79074284,120.06523595,-29.57518234
3.14187546,-10.68350670,-2.85798723,0.36213093,0.38464016

>  <Name>
ligand

>  <RI>
0

>  <Rbt.Current_Directory>
/home/itssahil/PROJECTS/Mol_Feturizer/Test_systems_manuscript/rnas/4xwf

>  <Rbt.Executable>
rbdock ($Id: //depot/dev/client3/rdock/2013.1/src/exe/rbdock.cxx#4 $)

>  <Rbt.Library>
libRbt.so (2013.1, Build901 2013/11/27)

>  <Rbt.Parameter_File>
/export/apps/rDock/src/rDock_2013.1_src/data/scripts/dock_solv.prm

>  <Rbt.Receptor>
prm/pocket_docking_3.prm

>  <SCORE>
-3.87615

>  <SCORE.INTER>
-5.52044

>  <SCORE.INTER.CONST>
1

>  <SCORE.INTER.POLAR>
0

>  <SCORE.INTER.ROT>
5

>  <SCORE.INTER.SOLV>
10.5231

>  <SCORE.INTER.VDW>
-14.1213

>  <SCORE.INTER.norm>
-0.250929

>  <SCORE.INTRA>
1.64429

>  <SCORE.INTRA.DIHEDRAL>
-0.812511

>  <SCORE.INTRA.DIHEDRAL.0>
3.49807

>  <SCORE.INTRA.POLAR>
0

>  <SCORE.INTRA.POLAR.0>
0

>  <SCORE.INTRA.REPUL>
0

>  <SCORE.INTRA.REPUL.0>
0

>  <SCORE.INTRA.SOLV>
3.05527

>  <SCORE.INTRA.SOLV.lig_0>
-73.062

>  <SCORE.INTRA.VDW>
0.522909

>  <SCORE.INTRA.VDW.0>
-1.83782

>  <SCORE.INTRA.norm>
0.0747404

>  <SCORE.RESTR>
0

>  <SCORE.RESTR.CAVITY>
0

>  <SCORE.RESTR.norm>
0

>  <SCORE.SYSTEM>
0

>  <SCORE.SYSTEM.CONST>
0

>  <SCORE.SYSTEM.DIHEDRAL>
0

>  <SCORE.SYSTEM.SOLV>
0

>  <SCORE.SYSTEM.norm>
0

>  <SCORE.heavy>
22

>  <SCORE.norm>
-0.176189

>  <RMSD>
3.093

$$$$
ligand
 OpenBabel02271912143D
libRbt.so/2013.1/901 2013/11/27
 22 23  0  0  0  0  0  0  0  0999 V2000
  -31.2032    1.5921  -10.5944 N   0  0  0  0  0  0  0  0  0  0  0  0
  -27.8262    1.7569  -10.7413 C   0  0  1  0  0  0  0  0  0  0  0  0
  -28.9945    1.3352   -9.9816 O   0  0  0  0  0  0  0  0  0  0  0  0
  -26.1108    5.0894  -11.2971 P   0  0  1  0  0  0  0  0  0  0  0  0
  -30.0201    0.9591  -10.9150 C   0  0  2  0  0  0  0  0  0  0  0  0
  -33.3263    1.9976  -10.3970 N   0  0  0  0  0  0  0  0  0  0  0  0
  -30.1665    0.7984  -13.2917 O   0  0  0  0  0  0  0  0  0  0  0  0
  -29.5785    1.5278  -12.2082 C   0  0  2  0  0  0  0  0  0  0  0  0
  -34.6115    4.1282   -8.7844 N   0  0  0  0  0  0  0  0  0  0  0  0
  -27.7144    0.0614  -12.3560 O   0  0  0  0  0  0  0  0  0  0  0  0
  -28.1256    1.4235  -12.1511 C   0  0  2  0  0  0  0  0  0  0  0  0
  -32.6526    2.9893   -9.7944 C   0  0  0  0  0  0  0  0  0  0  0  0
  -30.2625    3.5287   -9.3942 N   0  0  0  0  0  0  0  0  0  0  0  0
  -26.5401    3.5820  -11.2522 O   0  0  0  0  0  0  0  0  0  0  0  0
  -27.6843    3.2272  -10.5461 C   0  0  0  0  0  0  0  0  0  0  0  0
  -25.7774    5.4126   -9.7955 O   0  0  0  0  0  0  0  0  0  0  0  0
  -32.4230    1.1339  -10.8986 C   0  0  0  0  0  0  0  0  0  0  0  0
  -32.5783    5.1506   -8.8667 O   0  0  0  0  0  0  0  0  0  0  0  0
  -33.2552    4.1543   -9.1204 C   0  0  0  0  0  0  0  0  0  0  0  0
  -31.3150    2.7395   -9.9119 C   0  0  0  0  0  0  0  0  0  0  0  0
  -24.9633    5.2572  -12.2368 O   0  5  0  0  0  0  0  0  0  0  0  0
  -27.1481    5.9088  -11.9491 O   0  0  0  0  0  0  0  0  0  0  0  0
  1 17  1  0  0  0  0
  1 20  1  0  0  0  0
  2 15  1  6  0  0  0
  2  3  1  0  0  0  0
  2 11  1  0  0  0  0
  3  5  1  0  0  0  0
  4 16  1  1  0  0  0
  4 21  1  0  0  0  0
  4 22  2  0  0  0  0
  4 14  1  0  0  0  0
  5  1  1  1  0  0  0
  5  8  1  0  0  0  0
  6 17  2  0  0  0  0
  6 12  1  0  0  0  0
  8  7  1  6  0  0  0
  8 11  1  0  0  0  0
  9 19  1  0  0  0  0
 11 10  1  1  0  0  0
 12 20  2  0  0  0  0
 12 19  1  0  0  0  0
 13 20  1  0  0  0  0
 14 15  1  0  0  0  0
 18 19  2  0  0  0  0
M  CHG  1  21  -1
M  END
>  <CHROM.1>
-153.97113869,178.30400775,64.31435076,178.20882199,15.77877811,-29.32801340
3.05831221,-10.81088912,-3.02269837,0.30668128,0.41370203

>  <Name>
ligand

>  <RI>
0

>  <Rbt.Current_Directory>
/home/itssahil/PROJECTS/Mol_Feturizer/Test_systems_manuscript/rnas/4xwf

>  <Rbt.Executable>
rbdock ($Id: //depot/dev/client3/rdock/2013.1/src/exe/rbdock.cxx#4 $)

>  <Rbt.Library>
libRbt.so (2013.1, Build901 2013/11/27)

>  <Rbt.Parameter_File>
/export/apps/rDock/src/rDock_2013.1_src/data/scripts/dock_solv.prm

>  <Rbt.Receptor>
prm/pocket_docking_4.prm

>  <SCORE>
-4.29502

>  <SCORE.INTER>
-5.75482

>  <SCORE.INTER.CONST>
1

>  <SCORE.INTER.POLAR>
0

>  <SCORE.INTER.ROT>
5

>  <SCORE.INTER.SOLV>
12.2187

>  <SCORE.INTER.VDW>
-14.8428

>  <SCORE.INTER.norm>
-0.261583

>  <SCORE.INTRA>
1.4598

>  <SCORE.INTRA.DIHEDRAL>
-1.6164

>  <SCORE.INTRA.DIHEDRAL.0>
3.49807

>  <SCORE.INTRA.POLAR>
0

>  <SCORE.INTRA.POLAR.0>
0

>  <SCORE.INTRA.REPUL>
0

>  <SCORE.INTRA.REPUL.0>
0

>  <SCORE.INTRA.SOLV>
3.81717

>  <SCORE.INTRA.SOLV.lig_0>
-73.062

>  <SCORE.INTRA.VDW>
0.359415

>  <SCORE.INTRA.VDW.0>
-1.83782

>  <SCORE.INTRA.norm>
0.0663546

>  <SCORE.RESTR>
0

>  <SCORE.RESTR.CAVITY>
0

>  <SCORE.RESTR.norm>
0

>  <SCORE.SYSTEM>
0

>  <SCORE.SYSTEM.CONST>
0

>  <SCORE.SYSTEM.DIHEDRAL>
0

>  <SCORE.SYSTEM.SOLV>
0

>  <SCORE.SYSTEM.norm>
0

>  <SCORE.heavy>
22

>  <SCORE.norm>
-0.195228

>  <RMSD>
3.229

$$$$
ligand
 OpenBabel02271912143D
libRbt.so/2013.1/901 2013/11/27
 22 23  0  0  0  0  0  0  0  0999 V2000
  -31.3867    1.1806  -10.7262 N   0  0  0  0  0  0  0  0  0  0  0  0
  -28.0214    1.4240  -10.4656 C   0  0  1  0  0  0  0  0  0  0  0  0
  -29.2461    0.8397   -9.9379 O   0  0  0  0  0  0  0  0  0  0  0  0
  -26.3282    4.7893  -10.0575 P   0  0  1  0  0  0  0  0  0  0  0  0
  -30.1538    0.6437  -11.0342 C   0  0  2  0  0  0  0  0  0  0  0  0
  -33.5320    1.5085  -10.6908 N   0  0  0  0  0  0  0  0  0  0  0  0
  -30.0450    0.9631  -13.3969 O   0  0  0  0  0  0  0  0  0  0  0  0
  -29.6010    1.4682  -12.1321 C   0  0  2  0  0  0  0  0  0  0  0  0
  -33.5238    3.3273   -7.6097 N   0  0  0  0  0  0  0  0  0  0  0  0
  -27.6784    0.0907  -12.3628 O   0  0  0  0  0  0  0  0  0  0  0  0
  -28.1591    1.3770  -11.9377 C   0  0  2  0  0  0  0  0  0  0  0  0
  -32.9635    2.3617   -9.8251 C   0  0  0  0  0  0  0  0  0  0  0  0
  -30.6515    2.8368   -9.0551 N   0  0  0  0  0  0  0  0  0  0  0  0
  -26.7331    3.3170  -10.4140 O   0  0  0  0  0  0  0  0  0  0  0  0
  -27.9554    2.8267   -9.9677 C   0  0  0  0  0  0  0  0  0  0  0  0
  -24.9538    4.9729  -10.7976 O   0  0  0  0  0  0  0  0  0  0  0  0
  -32.5493    0.7800  -11.2539 C   0  0  0  0  0  0  0  0  0  0  0  0
  -34.4146    4.1889   -9.5202 O   0  0  0  0  0  0  0  0  0  0  0  0
  -33.6769    3.3528   -8.9986 C   0  0  0  0  0  0  0  0  0  0  0  0
  -31.6129    2.1591   -9.8395 C   0  0  0  0  0  0  0  0  0  0  0  0
  -27.4014    5.7269  -10.5013 O   0  5  0  0  0  0  0  0  0  0  0  0
  -26.3411    4.9958   -8.5981 O   0  0  0  0  0  0  0  0  0  0  0  0
  1 17  1  0  0  0  0
  1 20  1  0  0  0  0
  2 15  1  1  0  0  0
  2  3  1  0  0  0  0
  2 11  1  0  0  0  0
  3  5  1  0  0  0  0
  4 16  1  6  0  0  0
  4 21  1  0  0  0  0
  4 22  2  0  0  0  0
  4 14  1  0  0  0  0
  5  1  1  1  0  0  0
  5  8  1  0  0  0  0
  6 17  2  0  0  0  0
  6 12  1  0  0  0  0
  8  7  1  6  0  0  0
  8 11  1  0  0  0  0
  9 19  1  0  0  0  0
 11 10  1  1  0  0  0
 12 20  2  0  0  0  0
 12 19  1  0  0  0  0
 13 20  1  0  0  0  0
 14 15  1  0  0  0  0
 18 19  2  0  0  0  0
M  CHG  1  21  -1
M  END
>  <CHROM.1>
-154.42418066,175.98306880,-176.95764487,-179.73570951,123.37693053,-29.54676919
2.67788120,-10.40844300,-2.95307768,0.21376821,0.61745997

>  <Name>
ligand

>  <RI>
0

>  <Rbt.Current_Directory>
/home/itssahil/PROJECTS/Mol_Feturizer/Test_systems_manuscript/rnas/4xwf

>  <Rbt.Executable>
rbdock ($Id: //depot/dev/client3/rdock/2013.1/src/exe/rbdock.cxx#4 $)

>  <Rbt.Library>
libRbt.so (2013.1, Build901 2013/11/27)

>  <Rbt.Parameter_File>
/export/apps/rDock/src/rDock_2013.1_src/data/scripts/dock_solv.prm

>  <Rbt.Receptor>
prm/pocket_docking_4.prm

>  <SCORE>
-4.81106

>  <SCORE.INTER>
-6.35303

>  <SCORE.INTER.CONST>
1

>  <SCORE.INTER.POLAR>
0

>  <SCORE.INTER.ROT>
5

>  <SCORE.INTER.SOLV>
9.85018

>  <SCORE.INTER.VDW>
-14.4521

>  <SCORE.INTER.norm>
-0.288774

>  <SCORE.INTRA>
1.54198

>  <SCORE.INTRA.DIHEDRAL>
-1.86354

>  <SCORE.INTRA.DIHEDRAL.0>
3.49807

>  <SCORE.INTRA.POLAR>
0

>  <SCORE.INTRA.POLAR.0>
0

>  <SCORE.INTRA.REPUL>
0

>  <SCORE.INTRA.REPUL.0>
0

>  <SCORE.INTRA.SOLV>
4.53429

>  <SCORE.INTRA.SOLV.lig_0>
-73.062

>  <SCORE.INTRA.VDW>
0.206603

>  <SCORE.INTRA.VDW.0>
-1.83782

>  <SCORE.INTRA.norm>
0.0700899

>  <SCORE.RESTR>
0

>  <SCORE.RESTR.CAVITY>
0

>  <SCORE.RESTR.norm>
0

>  <SCORE.SYSTEM>
0

>  <SCORE.SYSTEM.CONST>
0

>  <SCORE.SYSTEM.DIHEDRAL>
0

>  <SCORE.SYSTEM.SOLV>
0

>  <SCORE.SYSTEM.norm>
0

>  <SCORE.heavy>
22

>  <SCORE.norm>
-0.218684

>  <RMSD>
3.235

$$$$
ligand
 OpenBabel02271912143D
libRbt.so/2013.1/901 2013/11/27
 22 23  0  0  0  0  0  0  0  0999 V2000
  -31.3995    1.1664  -10.7258 N   0  0  0  0  0  0  0  0  0  0  0  0
  -28.0353    1.3922  -10.4364 C   0  0  1  0  0  0  0  0  0  0  0  0
  -29.2664    0.8061   -9.9258 O   0  0  0  0  0  0  0  0  0  0  0  0
  -26.3313    4.7445   -9.9701 P   0  0  1  0  0  0  0  0  0  0  0  0
  -30.1665    0.6284  -11.0316 C   0  0  2  0  0  0  0  0  0  0  0  0
  -33.5438    1.5018  -10.7013 N   0  0  0  0  0  0  0  0  0  0  0  0
  -30.0383    0.9787  -13.3888 O   0  0  0  0  0  0  0  0  0  0  0  0
  -29.6019    1.4651  -12.1142 C   0  0  2  0  0  0  0  0  0  0  0  0
  -33.5322    3.2998   -7.6014 N   0  0  0  0  0  0  0  0  0  0  0  0
  -27.6832    0.0827  -12.3485 O   0  0  0  0  0  0  0  0  0  0  0  0
  -28.1620    1.3653  -11.9100 C   0  0  2  0  0  0  0  0  0  0  0  0
  -32.9781    2.3430   -9.8221 C   0  0  0  0  0  0  0  0  0  0  0  0
  -30.6698    2.8009   -9.0311 N   0  0  0  0  0  0  0  0  0  0  0  0
  -26.7394    3.2788  -10.3493 O   0  0  0  0  0  0  0  0  0  0  0  0
  -27.9674    2.7879   -9.9194 C   0  0  0  0  0  0  0  0  0  0  0  0
  -24.9394    4.9240  -10.6780 O   0  0  0  0  0  0  0  0  0  0  0  0
  -32.5599    0.7761  -11.2659 C   0  0  0  0  0  0  0  0  0  0  0  0
  -34.4399    4.1595   -9.5047 O   0  0  0  0  0  0  0  0  0  0  0  0
  -33.6936    3.3274   -8.9892 C   0  0  0  0  0  0  0  0  0  0  0  0
  -31.6281    2.1356   -9.8296 C   0  0  0  0  0  0  0  0  0  0  0  0
  -27.3871    5.6946  -10.4287 O   0  5  0  0  0  0  0  0  0  0  0  0
  -26.3749    4.9376   -8.5095 O   0  0  0  0  0  0  0  0  0  0  0  0
  1 17  1  0  0  0  0
  1 20  1  0  0  0  0
  2 15  1  1  0  0  0
  2  3  1  0  0  0  0
  2 11  1  0  0  0  0
  3  5  1  0  0  0  0
  4 16  1  6  0  0  0
  4 21  1  0  0  0  0
  4 22  2  0  0  0  0
  4 14  1  0  0  0  0
  5  1  1  1  0  0  0
  5  8  1  0  0  0  0
  6 17  2  0  0  0  0
  6 12  1  0  0  0  0
  8  7  1  6  0  0  0
  8 11  1  0  0  0  0
  9 19  1  0  0  0  0
 11 10  1  1  0  0  0
 12 20  2  0  0  0  0
 12 19  1  0  0  0  0
 13 20  1  0  0  0  0
 14 15  1  0  0  0  0
 18 19  2  0  0  0  0
M  CHG  1  21  -1
M  END
>  <CHROM.1>
-154.29983813,175.95628928,-177.81549501,-179.73849487,124.45089793,-29.55571473
2.65203640,-10.37455128,-2.95169329,0.20445913,0.63017112

>  <Name>
ligand

>  <RI>
0

>  <Rbt.Current_Directory>
/home/itssahil/PROJECTS/Mol_Feturizer/Test_systems_manuscript/rnas/4xwf

>  <Rbt.Executable>
rbdock ($Id: //depot/dev/client3/rdock/2013.1/src/exe/rbdock.cxx#4 $)

>  <Rbt.Library>
libRbt.so (2013.1, Build901 2013/11/27)

>  <Rbt.Parameter_File>
/export/apps/rDock/src/rDock_2013.1_src/data/scripts/dock_solv.prm

>  <Rbt.Receptor>
prm/pocket_docking_4.prm

>  <SCORE>
-4.80378

>  <SCORE.INTER>
-6.35656

>  <SCORE.INTER.CONST>
1

>  <SCORE.INTER.POLAR>
0

>  <SCORE.INTER.ROT>
5

>  <SCORE.INTER.SOLV>
9.81928

>  <SCORE.INTER.VDW>
-14.4441

>  <SCORE.INTER.norm>
-0.288935

>  <SCORE.INTRA>
1.55278

>  <SCORE.INTRA.DIHEDRAL>
-1.85596

>  <SCORE.INTRA.DIHEDRAL.0>
3.49807

>  <SCORE.INTRA.POLAR>
0

>  <SCORE.INTRA.POLAR.0>
0

>  <SCORE.INTRA.REPUL>
0

>  <SCORE.INTRA.REPUL.0>
0

>  <SCORE.INTRA.SOLV>
4.54644

>  <SCORE.INTRA.SOLV.lig_0>
-73.062

>  <SCORE.INTRA.VDW>
0.207541

>  <SCORE.INTRA.VDW.0>
-1.83782

>  <SCORE.INTRA.norm>
0.070581

>  <SCORE.RESTR>
0

>  <SCORE.RESTR.CAVITY>
0

>  <SCORE.RESTR.norm>
0

>  <SCORE.SYSTEM>
0

>  <SCORE.SYSTEM.CONST>
0

>  <SCORE.SYSTEM.DIHEDRAL>
0

>  <SCORE.SYSTEM.SOLV>
0

>  <SCORE.SYSTEM.norm>
0

>  <SCORE.heavy>
22

>  <SCORE.norm>
-0.218354

>  <RMSD>
3.252

$$$$
ligand
 OpenBabel02271912143D
libRbt.so/2013.1/901 2013/11/27
 22 23  0  0  0  0  0  0  0  0999 V2000
  -31.3545    1.2157  -10.6926 N   0  0  0  0  0  0  0  0  0  0  0  0
  -27.9897    1.5085  -10.4818 C   0  0  1  0  0  0  0  0  0  0  0  0
  -29.1995    0.9193   -9.9259 O   0  0  0  0  0  0  0  0  0  0  0  0
  -26.3925    4.9374  -10.2657 P   0  0  1  0  0  0  0  0  0  0  0  0
  -30.1187    0.6886  -11.0058 C   0  0  2  0  0  0  0  0  0  0  0  0
  -33.5016    1.5315  -10.6546 N   0  0  0  0  0  0  0  0  0  0  0  0
  -30.0448    0.9601  -13.3758 O   0  0  0  0  0  0  0  0  0  0  0  0
  -29.5912    1.4972  -12.1278 C   0  0  2  0  0  0  0  0  0  0  0  0
  -33.5729    3.2651   -7.5516 N   0  0  0  0  0  0  0  0  0  0  0  0
  -27.6535    0.1405  -12.3553 O   0  0  0  0  0  0  0  0  0  0  0  0
  -28.1459    1.4290  -11.9506 C   0  0  2  0  0  0  0  0  0  0  0  0
  -32.9379    2.3788   -9.7799 C   0  0  0  0  0  0  0  0  0  0  0  0
  -30.6288    2.8586   -9.0045 N   0  0  0  0  0  0  0  0  0  0  0  0
  -26.7459    3.4314  -10.5217 O   0  0  0  0  0  0  0  0  0  0  0  0
  -27.9360    2.9220  -10.0139 C   0  0  0  0  0  0  0  0  0  0  0  0
  -27.5908    5.7057  -10.9323 O   0  0  0  0  0  0  0  0  0  0  0  0
  -32.5148    0.8141  -11.2248 C   0  0  0  0  0  0  0  0  0  0  0  0
  -34.3394    4.2419   -9.4606 O   0  0  0  0  0  0  0  0  0  0  0  0
  -33.6570    3.3576   -8.9435 C   0  0  0  0  0  0  0  0  0  0  0  0
  -31.5862    2.1837   -9.7961 C   0  0  0  0  0  0  0  0  0  0  0  0
  -26.2418    5.1759   -8.8000 O   0  5  0  0  0  0  0  0  0  0  0  0
  -25.0371    5.2465  -10.7557 O   0  0  0  0  0  0  0  0  0  0  0  0
  1 17  1  0  0  0  0
  1 20  1  0  0  0  0
  2 15  1  6  0  0  0
  2  3  1  0  0  0  0
  2 11  1  0  0  0  0
  3  5  1  0  0  0  0
  4 16  1  6  0  0  0
  4 21  1  0  0  0  0
  4 22  2  0  0  0  0
  4 14  1  0  0  0  0
  5  1  1  1  0  0  0
  5  8  1  0  0  0  0
  6 17  2  0  0  0  0
  6 12  1  0  0  0  0
  8  7  1  6  0  0  0
  8 11  1  0  0  0  0
  9 19  1  0  0  0  0
 11 10  1  1  0  0  0
 12 20  2  0  0  0  0
 12 19  1  0  0  0  0
 13 20  1  0  0  0  0
 14 15  1  0  0  0  0
 18 19  2  0  0  0  0
M  CHG  1  21  -1
M  END
>  <CHROM.1>
-156.40988827,177.78845364,-59.71058831,177.52910823,119.26248398,-29.54490836
2.74319856,-10.44503869,-2.94945735,0.24436642,0.58929125

>  <Name>
ligand

>  <RI>
0

>  <Rbt.Current_Directory>
/home/itssahil/PROJECTS/Mol_Feturizer/Test_systems_manuscript/rnas/4xwf

>  <Rbt.Executable>
rbdock ($Id: //depot/dev/client3/rdock/2013.1/src/exe/rbdock.cxx#4 $)

>  <Rbt.Library>
libRbt.so (2013.1, Build901 2013/11/27)

>  <Rbt.Parameter_File>
/export/apps/rDock/src/rDock_2013.1_src/data/scripts/dock_solv.prm

>  <Rbt.Receptor>
prm/pocket_docking_4.prm

>  <SCORE>
-5.67403

>  <SCORE.INTER>
-6.83976

>  <SCORE.INTER.CONST>
1

>  <SCORE.INTER.POLAR>
0

>  <SCORE.INTER.ROT>
5

>  <SCORE.INTER.SOLV>
8.78316

>  <SCORE.INTER.VDW>
-14.4209

>  <SCORE.INTER.norm>
-0.310898

>  <SCORE.INTRA>
1.16572

>  <SCORE.INTRA.DIHEDRAL>
-1.89221

>  <SCORE.INTRA.DIHEDRAL.0>
3.49807

>  <SCORE.INTRA.POLAR>
0

>  <SCORE.INTRA.POLAR.0>
0

>  <SCORE.INTRA.REPUL>
0

>  <SCORE.INTRA.REPUL.0>
0

>  <SCORE.INTRA.SOLV>
3.75012

>  <SCORE.INTRA.SOLV.lig_0>
-73.062

>  <SCORE.INTRA.VDW>
0.236767

>  <SCORE.INTRA.VDW.0>
-1.83782

>  <SCORE.INTRA.norm>
0.0529875

>  <SCORE.RESTR>
0

>  <SCORE.RESTR.CAVITY>
0

>  <SCORE.RESTR.norm>
0

>  <SCORE.SYSTEM>
0

>  <SCORE.SYSTEM.CONST>
0

>  <SCORE.SYSTEM.DIHEDRAL>
0

>  <SCORE.SYSTEM.SOLV>
0

>  <SCORE.SYSTEM.norm>
0

>  <SCORE.heavy>
22

>  <SCORE.norm>
-0.257911

>  <RMSD>
3.276

$$$$
ligand
 OpenBabel02271912143D
libRbt.so/2013.1/901 2013/11/27
 22 23  0  0  0  0  0  0  0  0999 V2000
  -30.7175    1.1406  -10.6197 N   0  0  0  0  0  0  0  0  0  0  0  0
  -27.8330    2.8158  -11.1907 C   0  0  1  0  0  0  0  0  0  0  0  0
  -28.5899    1.9652  -10.2832 O   0  0  0  0  0  0  0  0  0  0  0  0
  -28.8103    5.8505   -9.1491 P   0  0  1  0  0  0  0  0  0  0  0  0
  -29.4156    1.0949  -11.0739 C   0  0  2  0  0  0  0  0  0  0  0  0
  -32.8857    1.0457  -10.5902 N   0  0  0  0  0  0  0  0  0  0  0  0
  -29.7139    0.7096  -13.4102 O   0  0  0  0  0  0  0  0  0  0  0  0
  -29.4215    1.7049  -12.4225 C   0  0  2  0  0  0  0  0  0  0  0  0
  -33.6462    2.7393   -7.7210 N   0  0  0  0  0  0  0  0  0  0  0  0
  -27.1171    1.2434  -12.7750 O   0  0  0  0  0  0  0  0  0  0  0  0
  -28.0872    2.2791  -12.5456 C   0  0  2  0  0  0  0  0  0  0  0  0
  -32.4596    1.2814   -9.3398 C   0  0  0  0  0  0  0  0  0  0  0  0
  -30.2531    1.5472   -8.2334 N   0  0  0  0  0  0  0  0  0  0  0  0
  -28.2063    4.5110   -9.6964 O   0  0  0  0  0  0  0  0  0  0  0  0
  -28.3666    4.1989  -11.0420 C   0  0  0  0  0  0  0  0  0  0  0  0
  -30.3568    5.6565   -9.3524 O   0  0  0  0  0  0  0  0  0  0  0  0
  -31.8013    0.9647  -11.3846 C   0  0  0  0  0  0  0  0  0  0  0  0
  -33.7389    0.4713   -7.5386 O   0  0  0  0  0  0  0  0  0  0  0  0
  -33.3202    1.4514   -8.1545 C   0  0  0  0  0  0  0  0  0  0  0  0
  -31.0951    1.3395   -9.3499 C   0  0  0  0  0  0  0  0  0  0  0  0
  -28.3915    6.0476   -7.7301 O   0  5  0  0  0  0  0  0  0  0  0  0
  -28.1844    7.0124   -9.8054 O   0  0  0  0  0  0  0  0  0  0  0  0
  1 17  1  0  0  0  0
  1 20  1  0  0  0  0
  2 15  1  6  0  0  0
  2  3  1  0  0  0  0
  2 11  1  0  0  0  0
  3  5  1  0  0  0  0
  4 16  1  6  0  0  0
  4 21  1  0  0  0  0
  4 22  2  0  0  0  0
  4 14  1  0  0  0  0
  5  1  1  1  0  0  0
  5  8  1  0  0  0  0
  6 17  2  0  0  0  0
  6 12  1  0  0  0  0
  8  7  1  6  0  0  0
  8 11  1  0  0  0  0
  9 19  1  0  0  0  0
 11 10  1  1  0  0  0
 12 20  2  0  0  0  0
 12 19  1  0  0  0  0
 13 20  1  0  0  0  0
 14 15  1  0  0  0  0
 18 19  2  0  0  0  0
M  CHG  1  21  -1
M  END
>  <CHROM.1>
149.51645409,57.92766853,63.71240611,-173.40187283,-97.29408446,-29.96981183
2.84348022,-10.09385150,-2.60121572,0.61737496,0.65258312

>  <Name>
ligand

>  <RI>
0

>  <Rbt.Current_Directory>
/home/itssahil/PROJECTS/Mol_Feturizer/Test_systems_manuscript/rnas/4xwf

>  <Rbt.Executable>
rbdock ($Id: //depot/dev/client3/rdock/2013.1/src/exe/rbdock.cxx#4 $)

>  <Rbt.Library>
libRbt.so (2013.1, Build901 2013/11/27)

>  <Rbt.Parameter_File>
/export/apps/rDock/src/rDock_2013.1_src/data/scripts/dock_solv.prm

>  <Rbt.Receptor>
prm/pocket_docking_4.prm

>  <SCORE>
-3.07955

>  <SCORE.INTER>
-3.89649

>  <SCORE.INTER.CONST>
1

>  <SCORE.INTER.POLAR>
0

>  <SCORE.INTER.ROT>
5

>  <SCORE.INTER.SOLV>
9.0294

>  <SCORE.INTER.VDW>
-12.5408

>  <SCORE.INTER.norm>
-0.177113

>  <SCORE.INTRA>
0.816941

>  <SCORE.INTRA.DIHEDRAL>
-1.24813

>  <SCORE.INTRA.DIHEDRAL.0>
3.49807

>  <SCORE.INTRA.POLAR>
0

>  <SCORE.INTRA.POLAR.0>
0

>  <SCORE.INTRA.REPUL>
0

>  <SCORE.INTRA.REPUL.0>
0

>  <SCORE.INTRA.SOLV>
1.11391

>  <SCORE.INTRA.SOLV.lig_0>
-73.062

>  <SCORE.INTRA.VDW>
0.884049

>  <SCORE.INTRA.VDW.0>
-1.83782

>  <SCORE.INTRA.norm>
0.0371337

>  <SCORE.RESTR>
0

>  <SCORE.RESTR.CAVITY>
0

>  <SCORE.RESTR.norm>
0

>  <SCORE.SYSTEM>
0

>  <SCORE.SYSTEM.CONST>
0

>  <SCORE.SYSTEM.DIHEDRAL>
0

>  <SCORE.SYSTEM.SOLV>
0

>  <SCORE.SYSTEM.norm>
0

>  <SCORE.heavy>
22

>  <SCORE.norm>
-0.139979

>  <RMSD>
3.335

$$$$
ligand
 OpenBabel02271912143D
libRbt.so/2013.1/901 2013/11/27
 22 23  0  0  0  0  0  0  0  0999 V2000
  -30.8805    2.7839   -9.8193 N   0  0  0  0  0  0  0  0  0  0  0  0
  -28.0427    1.3998  -11.0375 C   0  0  1  0  0  0  0  0  0  0  0  0
  -28.7896    1.8110   -9.8572 O   0  0  0  0  0  0  0  0  0  0  0  0
  -25.8218    4.4688  -10.9498 P   0  0  1  0  0  0  0  0  0  0  0  0
  -30.1886    1.6319  -10.1313 C   0  0  2  0  0  0  0  0  0  0  0  0
  -31.3663    4.8860   -9.5817 N   0  0  0  0  0  0  0  0  0  0  0  0
  -31.4558    0.7667  -11.9593 O   0  0  0  0  0  0  0  0  0  0  0  0
  -30.2674    1.4820  -11.6017 C   0  0  2  0  0  0  0  0  0  0  0  0
  -33.7973    6.0556   -8.3632 N   0  0  0  0  0  0  0  0  0  0  0  0
  -29.1323   -0.6055  -11.5724 O   0  0  0  0  0  0  0  0  0  0  0  0
  -29.0358    0.7803  -11.9421 C   0  0  2  0  0  0  0  0  0  0  0  0
  -32.4374    4.1646   -9.2172 C   0  0  0  0  0  0  0  0  0  0  0  0
  -33.0036    1.7496   -9.1134 N   0  0  0  0  0  0  0  0  0  0  0  0
  -26.6124    3.1473  -10.6546 O   0  0  0  0  0  0  0  0  0  0  0  0
  -27.4539    2.6315  -11.6342 C   0  0  0  0  0  0  0  0  0  0  0  0
  -24.9463    4.0918  -12.1995 O   0  0  0  0  0  0  0  0  0  0  0  0
  -30.3981    4.0253   -9.9497 C   0  0  0  0  0  0  0  0  0  0  0  0
  -34.7122    3.9889   -8.6414 O   0  0  0  0  0  0  0  0  0  0  0  0
  -33.7193    4.7105   -8.7340 C   0  0  0  0  0  0  0  0  0  0  0  0
  -32.1402    2.8400   -9.3669 C   0  0  0  0  0  0  0  0  0  0  0  0
  -26.7822    5.5879  -11.1804 O   0  5  0  0  0  0  0  0  0  0  0  0
  -25.1119    4.9331   -9.7443 O   0  0  0  0  0  0  0  0  0  0  0  0
  1 17  1  0  0  0  0
  1 20  1  0  0  0  0
  2 15  1  6  0  0  0
  2  3  1  0  0  0  0
  2 11  1  0  0  0  0
  3  5  1  0  0  0  0
  4 16  1  6  0  0  0
  4 21  1  0  0  0  0
  4 22  2  0  0  0  0
  4 14  1  0  0  0  0
  5  1  1  6  0  0  0
  5  8  1  0  0  0  0
  6 17  2  0  0  0  0
  6 12  1  0  0  0  0
  8  7  1  1  0  0  0
  8 11  1  0  0  0  0
  9 19  1  0  0  0  0
 11 10  1  1  0  0  0
 12 20  2  0  0  0  0
 12 19  1  0  0  0  0
 13 20  1  0  0  0  0
 14 15  1  0  0  0  0
 18 19  2  0  0  0  0
M  CHG  1  21  -1
M  END
>  <CHROM.1>
33.50150703,61.29357528,-60.21975167,-179.74371414,-13.29113566,-29.49755571
3.12809502,-10.39522407,3.06872740,0.25879002,0.35907949

>  <Name>
ligand

>  <RI>
0

>  <Rbt.Current_Directory>
/home/itssahil/PROJECTS/Mol_Feturizer/Test_systems_manuscript/rnas/4xwf

>  <Rbt.Executable>
rbdock ($Id: //depot/dev/client3/rdock/2013.1/src/exe/rbdock.cxx#4 $)

>  <Rbt.Library>
libRbt.so (2013.1, Build901 2013/11/27)

>  <Rbt.Parameter_File>
/export/apps/rDock/src/rDock_2013.1_src/data/scripts/dock_solv.prm

>  <Rbt.Receptor>
prm/pocket_docking_4.prm

>  <SCORE>
-4.86146

>  <SCORE.INTER>
-3.56889

>  <SCORE.INTER.CONST>
1

>  <SCORE.INTER.POLAR>
0

>  <SCORE.INTER.ROT>
5

>  <SCORE.INTER.SOLV>
13.1475

>  <SCORE.INTER.VDW>
-13.6951

>  <SCORE.INTER.norm>
-0.162222

>  <SCORE.INTRA>
-1.29257

>  <SCORE.INTRA.DIHEDRAL>
-1.82795

>  <SCORE.INTRA.DIHEDRAL.0>
3.49807

>  <SCORE.INTRA.POLAR>
0

>  <SCORE.INTRA.POLAR.0>
0

>  <SCORE.INTRA.REPUL>
0

>  <SCORE.INTRA.REPUL.0>
0

>  <SCORE.INTRA.SOLV>
-0.12105

>  <SCORE.INTRA.SOLV.lig_0>
-73.062

>  <SCORE.INTRA.VDW>
-0.318073

>  <SCORE.INTRA.VDW.0>
-1.83782

>  <SCORE.INTRA.norm>
-0.0587532

>  <SCORE.RESTR>
0

>  <SCORE.RESTR.CAVITY>
0

>  <SCORE.RESTR.norm>
0

>  <SCORE.SYSTEM>
0

>  <SCORE.SYSTEM.CONST>
0

>  <SCORE.SYSTEM.DIHEDRAL>
0

>  <SCORE.SYSTEM.SOLV>
0

>  <SCORE.SYSTEM.norm>
0

>  <SCORE.heavy>
22

>  <SCORE.norm>
-0.220975

>  <RMSD>
3.401

$$$$
ligand
 OpenBabel02271912143D
libRbt.so/2013.1/901 2013/11/27
 22 23  0  0  0  0  0  0  0  0999 V2000
  -30.7889    1.5100  -10.2345 N   0  0  0  0  0  0  0  0  0  0  0  0
  -27.6956    2.6205  -11.0409 C   0  0  1  0  0  0  0  0  0  0  0  0
  -28.6882    2.4311   -9.9928 O   0  0  0  0  0  0  0  0  0  0  0  0
  -27.2609    5.1483  -13.8294 P   0  0  1  0  0  0  0  0  0  0  0  0
  -29.4369    1.2435  -10.2985 C   0  0  2  0  0  0  0  0  0  0  0  0
  -32.9189    1.4285  -10.6442 N   0  0  0  0  0  0  0  0  0  0  0  0
  -29.3362   -0.4273  -11.9997 O   0  0  0  0  0  0  0  0  0  0  0  0
  -29.1327    0.9626  -11.7195 C   0  0  2  0  0  0  0  0  0  0  0  0
  -34.4159    4.0952   -9.5801 N   0  0  0  0  0  0  0  0  0  0  0  0
  -26.8610    0.4407  -11.2571 O   0  0  0  0  0  0  0  0  0  0  0  0
  -27.7480    1.3939  -11.8662 C   0  0  2  0  0  0  0  0  0  0  0  0
  -32.7196    2.2858   -9.6313 C   0  0  0  0  0  0  0  0  0  0  0  0
  -30.7535    3.1066   -8.3568 N   0  0  0  0  0  0  0  0  0  0  0  0
  -27.1691    3.9333  -12.8424 O   0  0  0  0  0  0  0  0  0  0  0  0
  -28.1061    3.8217  -11.8210 C   0  0  0  0  0  0  0  0  0  0  0  0
  -28.7328    5.0585  -14.3733 O   0  0  0  0  0  0  0  0  0  0  0  0
  -31.7168    0.9526  -11.0211 C   0  0  0  0  0  0  0  0  0  0  0  0
  -34.0678    2.7667   -7.7636 O   0  0  0  0  0  0  0  0  0  0  0  0
  -33.7693    3.0435   -8.9252 C   0  0  0  0  0  0  0  0  0  0  0  0
  -31.3810    2.3401   -9.3655 C   0  0  0  0  0  0  0  0  0  0  0  0
  -26.9452    6.4122  -13.1009 O   0  5  0  0  0  0  0  0  0  0  0  0
  -26.1713    5.0994  -14.8209 O   0  0  0  0  0  0  0  0  0  0  0  0
  1 17  1  0  0  0  0
  1 20  1  0  0  0  0
  2 15  1  6  0  0  0
  2  3  1  0  0  0  0
  2 11  1  0  0  0  0
  3  5  1  0  0  0  0
  4 16  1  6  0  0  0
  4 21  1  0  0  0  0
  4 22  2  0  0  0  0
  4 14  1  0  0  0  0
  5  1  1  6  0  0  0
  5  8  1  0  0  0  0
  6 17  2  0  0  0  0
  6 12  1  0  0  0  0
  8  7  1  1  0  0  0
  8 11  1  0  0  0  0
  9 19  1  0  0  0  0
 11 10  1  1  0  0  0
 12 20  2  0  0  0  0
 12 19  1  0  0  0  0
 13 20  1  0  0  0  0
 14 15  1  0  0  0  0
 18 19  2  0  0  0  0
M  CHG  1  21  -1
M  END
>  <CHROM.1>
145.51739984,-177.49865436,-54.67746527,-177.13850978,-71.11510381,-29.56761635
2.88950858,-11.32889236,-2.64235861,0.51367778,-0.35280426

>  <Name>
ligand

>  <RI>
0

>  <Rbt.Current_Directory>
/home/itssahil/PROJECTS/Mol_Feturizer/Test_systems_manuscript/rnas/4xwf

>  <Rbt.Executable>
rbdock ($Id: //depot/dev/client3/rdock/2013.1/src/exe/rbdock.cxx#4 $)

>  <Rbt.Library>
libRbt.so (2013.1, Build901 2013/11/27)

>  <Rbt.Parameter_File>
/export/apps/rDock/src/rDock_2013.1_src/data/scripts/dock_solv.prm

>  <Rbt.Receptor>
prm/pocket_docking_3.prm

>  <SCORE>
-3.10107

>  <SCORE.INTER>
-4.72074

>  <SCORE.INTER.CONST>
1

>  <SCORE.INTER.POLAR>
0

>  <SCORE.INTER.ROT>
5

>  <SCORE.INTER.SOLV>
11.1738

>  <SCORE.INTER.VDW>
-13.8051

>  <SCORE.INTER.norm>
-0.214579

>  <SCORE.INTRA>
1.6188

>  <SCORE.INTRA.DIHEDRAL>
-0.39819

>  <SCORE.INTRA.DIHEDRAL.0>
3.49807

>  <SCORE.INTRA.POLAR>
0

>  <SCORE.INTRA.POLAR.0>
0

>  <SCORE.INTRA.REPUL>
0

>  <SCORE.INTRA.REPUL.0>
0

>  <SCORE.INTRA.SOLV>
0.479698

>  <SCORE.INTRA.SOLV.lig_0>
-73.062

>  <SCORE.INTRA.VDW>
1.57805

>  <SCORE.INTRA.VDW.0>
-1.83782

>  <SCORE.INTRA.norm>
0.0735818

>  <SCORE.RESTR>
0.000878274

>  <SCORE.RESTR.CAVITY>
0.000878274

>  <SCORE.RESTR.norm>
3.99215e-05

>  <SCORE.SYSTEM>
0

>  <SCORE.SYSTEM.CONST>
0

>  <SCORE.SYSTEM.DIHEDRAL>
0

>  <SCORE.SYSTEM.SOLV>
0

>  <SCORE.SYSTEM.norm>
0

>  <SCORE.heavy>
22

>  <SCORE.norm>
-0.140958

>  <RMSD>
3.797

$$$$
ligand
 OpenBabel02271912143D
libRbt.so/2013.1/901 2013/11/27
 22 23  0  0  0  0  0  0  0  0999 V2000
  -30.6227    1.7766  -10.6838 N   0  0  0  0  0  0  0  0  0  0  0  0
  -27.6785    3.1181  -11.6761 C   0  0  1  0  0  0  0  0  0  0  0  0
  -28.5691    2.8197  -10.5635 O   0  0  0  0  0  0  0  0  0  0  0  0
  -27.7078    5.7085  -14.4412 P   0  0  1  0  0  0  0  0  0  0  0  0
  -29.2667    1.6007  -10.8667 C   0  0  2  0  0  0  0  0  0  0  0  0
  -32.7683    1.4788  -10.8214 N   0  0  0  0  0  0  0  0  0  0  0  0
  -29.2038    0.0156  -12.6498 O   0  0  0  0  0  0  0  0  0  0  0  0
  -29.0629    1.4022  -12.3193 C   0  0  2  0  0  0  0  0  0  0  0  0
  -33.4770    3.4585   -7.8927 N   0  0  0  0  0  0  0  0  0  0  0  0
  -26.7335    1.0081  -12.0629 O   0  0  0  0  0  0  0  0  0  0  0  0
  -27.7235    1.9278  -12.5533 C   0  0  2  0  0  0  0  0  0  0  0  0
  -32.5400    2.4983   -9.9794 C   0  0  0  0  0  0  0  0  0  0  0  0
  -30.5310    3.6500   -9.0844 N   0  0  0  0  0  0  0  0  0  0  0  0
  -27.3966    4.5241  -13.4620 O   0  0  0  0  0  0  0  0  0  0  0  0
  -28.2234    4.3232  -12.3622 C   0  0  0  0  0  0  0  0  0  0  0  0
  -29.2045    5.4541  -14.8483 O   0  0  0  0  0  0  0  0  0  0  0  0
  -31.5753    1.0361  -11.2624 C   0  0  0  0  0  0  0  0  0  0  0  0
  -34.5209    3.7655   -9.8931 O   0  0  0  0  0  0  0  0  0  0  0  0
  -33.5724    3.2816   -9.2757 C   0  0  0  0  0  0  0  0  0  0  0  0
  -31.1910    2.6899   -9.8852 C   0  0  0  0  0  0  0  0  0  0  0  0
  -27.4659    7.0089  -13.7496 O   0  5  0  0  0  0  0  0  0  0  0  0
  -26.7133    5.7631  -15.5278 O   0  0  0  0  0  0  0  0  0  0  0  0
  1 17  1  0  0  0  0
  1 20  1  0  0  0  0
  2 15  1  6  0  0  0
  2  3  1  0  0  0  0
  2 11  1  0  0  0  0
  3  5  1  0  0  0  0
  4 16  1  6  0  0  0
  4 21  1  0  0  0  0
  4 22  2  0  0  0  0
  4 14  1  0  0  0  0
  5  1  1  6  0  0  0
  5  8  1  0  0  0  0
  6 17  2  0  0  0  0
  6 12  1  0  0  0  0
  8  7  1  1  0  0  0
  8 11  1  0  0  0  0
  9 19  1  0  0  0  0
 11 10  1  1  0  0  0
 12 20  2  0  0  0  0
 12 19  1  0  0  0  0
 13 20  1  0  0  0  0
 14 15  1  0  0  0  0
 18 19  2  0  0  0  0
M  CHG  1  21  -1
M  END
>  <CHROM.1>
157.27553165,-176.38254333,-54.40531263,178.52383400,128.67175614,-29.60404856
3.30346496,-11.86823800,-2.55627980,0.55745958,-0.37733601

>  <Name>
ligand

>  <RI>
0

>  <Rbt.Current_Directory>
/home/itssahil/PROJECTS/Mol_Feturizer/Test_systems_manuscript/rnas/4xwf

>  <Rbt.Executable>
rbdock ($Id: //depot/dev/client3/rdock/2013.1/src/exe/rbdock.cxx#4 $)

>  <Rbt.Library>
libRbt.so (2013.1, Build901 2013/11/27)

>  <Rbt.Parameter_File>
/export/apps/rDock/src/rDock_2013.1_src/data/scripts/dock_solv.prm

>  <Rbt.Receptor>
prm/pocket_docking_4.prm

>  <SCORE>
-5.44484

>  <SCORE.INTER>
-6.49692

>  <SCORE.INTER.CONST>
1

>  <SCORE.INTER.POLAR>
0

>  <SCORE.INTER.ROT>
5

>  <SCORE.INTER.SOLV>
11.4123

>  <SCORE.INTER.VDW>
-15.0687

>  <SCORE.INTER.norm>
-0.295315

>  <SCORE.INTRA>
1.05208

>  <SCORE.INTRA.DIHEDRAL>
-1.83129

>  <SCORE.INTRA.DIHEDRAL.0>
3.49807

>  <SCORE.INTRA.POLAR>
0

>  <SCORE.INTRA.POLAR.0>
0

>  <SCORE.INTRA.REPUL>
0

>  <SCORE.INTRA.REPUL.0>
0

>  <SCORE.INTRA.SOLV>
1.39126

>  <SCORE.INTRA.SOLV.lig_0>
-73.062

>  <SCORE.INTRA.VDW>
1.27209

>  <SCORE.INTRA.VDW.0>
-1.83782

>  <SCORE.INTRA.norm>
0.0478216

>  <SCORE.RESTR>
0

>  <SCORE.RESTR.CAVITY>
0

>  <SCORE.RESTR.norm>
0

>  <SCORE.SYSTEM>
0

>  <SCORE.SYSTEM.CONST>
0

>  <SCORE.SYSTEM.DIHEDRAL>
0

>  <SCORE.SYSTEM.SOLV>
0

>  <SCORE.SYSTEM.norm>
0

>  <SCORE.heavy>
22

>  <SCORE.norm>
-0.247493

>  <RMSD>
3.803

$$$$
ligand
 OpenBabel02271912143D
libRbt.so/2013.1/901 2013/11/27
 22 23  0  0  0  0  0  0  0  0999 V2000
  -31.7500    1.5142  -10.3607 N   0  0  0  0  0  0  0  0  0  0  0  0
  -28.4461    0.8237  -10.1158 C   0  0  1  0  0  0  0  0  0  0  0  0
  -29.7795    0.6128   -9.5705 O   0  0  0  0  0  0  0  0  0  0  0  0
  -25.8748    3.5852   -9.7678 P   0  0  1  0  0  0  0  0  0  0  0  0
  -30.7164    0.6505  -10.6591 C   0  0  2  0  0  0  0  0  0  0  0  0
  -33.7428    2.3655  -10.2369 N   0  0  0  0  0  0  0  0  0  0  0  0
  -30.5461    0.8738  -13.0291 O   0  0  0  0  0  0  0  0  0  0  0  0
  -29.9678    1.2650  -11.7784 C   0  0  2  0  0  0  0  0  0  0  0  0
  -32.4312    5.5178   -8.9360 N   0  0  0  0  0  0  0  0  0  0  0  0
  -28.5028   -0.5951  -11.9809 O   0  0  0  0  0  0  0  0  0  0  0  0
  -28.6055    0.7833  -11.5860 C   0  0  2  0  0  0  0  0  0  0  0  0
  -32.9034    3.1635   -9.5593 C   0  0  0  0  0  0  0  0  0  0  0  0
  -30.4777    3.1535   -9.0305 N   0  0  0  0  0  0  0  0  0  0  0  0
  -26.6686    2.2676  -10.0717 O   0  0  0  0  0  0  0  0  0  0  0  0
  -27.9905    2.1646   -9.6525 C   0  0  0  0  0  0  0  0  0  0  0  0
  -25.8994    3.6652   -8.1982 O   0  0  0  0  0  0  0  0  0  0  0  0
  -33.0223    1.3445  -10.7390 C   0  0  0  0  0  0  0  0  0  0  0  0
  -34.3102    4.4662   -8.1951 O   0  0  0  0  0  0  0  0  0  0  0  0
  -33.2747    4.4064   -8.8579 C   0  0  0  0  0  0  0  0  0  0  0  0
  -31.6471    2.6324   -9.6302 C   0  0  0  0  0  0  0  0  0  0  0  0
  -24.5088    3.4973  -10.3628 O   0  5  0  0  0  0  0  0  0  0  0  0
  -26.4471    4.7228  -10.5101 O   0  0  0  0  0  0  0  0  0  0  0  0
  1 17  1  0  0  0  0
  1 20  1  0  0  0  0
  2 15  1  6  0  0  0
  2  3  1  0  0  0  0
  2 11  1  0  0  0  0
  3  5  1  0  0  0  0
  4 16  1  1  0  0  0
  4 21  1  0  0  0  0
  4 22  2  0  0  0  0
  4 14  1  0  0  0  0
  5  1  1  1  0  0  0
  5  8  1  0  0  0  0
  6 17  2  0  0  0  0
  6 12  1  0  0  0  0
  8  7  1  6  0  0  0
  8 11  1  0  0  0  0
  9 19  1  0  0  0  0
 11 10  1  1  0  0  0
 12 20  2  0  0  0  0
 12 19  1  0  0  0  0
 13 20  1  0  0  0  0
 14 15  1  0  0  0  0
 18 19  2  0  0  0  0
M  CHG  1  21  -1
M  END
>  <CHROM.1>
-145.53734763,173.86537102,60.21564559,178.94909462,-139.21653177,-29.54164811
2.47284739,-10.11492124,3.11459197,0.04520831,0.57878121

>  <Name>
ligand

>  <RI>
0

>  <Rbt.Current_Directory>
/home/itssahil/PROJECTS/Mol_Feturizer/Test_systems_manuscript/rnas/4xwf

>  <Rbt.Executable>
rbdock ($Id: //depot/dev/client3/rdock/2013.1/src/exe/rbdock.cxx#4 $)

>  <Rbt.Library>
libRbt.so (2013.1, Build901 2013/11/27)

>  <Rbt.Parameter_File>
/export/apps/rDock/src/rDock_2013.1_src/data/scripts/dock_solv.prm

>  <Rbt.Receptor>
prm/pocket_docking_3.prm

>  <SCORE>
-4.72303

>  <SCORE.INTER>
-6.471

>  <SCORE.INTER.CONST>
1

>  <SCORE.INTER.POLAR>
0

>  <SCORE.INTER.ROT>
5

>  <SCORE.INTER.SOLV>
10.2312

>  <SCORE.INTER.VDW>
-14.6577

>  <SCORE.INTER.norm>
-0.294136

>  <SCORE.INTRA>
1.74798

>  <SCORE.INTRA.DIHEDRAL>
-1.43894

>  <SCORE.INTRA.DIHEDRAL.0>
3.49807

>  <SCORE.INTRA.POLAR>
0

>  <SCORE.INTRA.POLAR.0>
0

>  <SCORE.INTRA.REPUL>
0

>  <SCORE.INTRA.REPUL.0>
0

>  <SCORE.INTRA.SOLV>
4.25408

>  <SCORE.INTRA.SOLV.lig_0>
-73.062

>  <SCORE.INTRA.VDW>
0.340407

>  <SCORE.INTRA.VDW.0>
-1.83782

>  <SCORE.INTRA.norm>
0.0794534

>  <SCORE.RESTR>
0

>  <SCORE.RESTR.CAVITY>
0

>  <SCORE.RESTR.norm>
0

>  <SCORE.SYSTEM>
0

>  <SCORE.SYSTEM.CONST>
0

>  <SCORE.SYSTEM.DIHEDRAL>
0

>  <SCORE.SYSTEM.SOLV>
0

>  <SCORE.SYSTEM.norm>
0

>  <SCORE.heavy>
22

>  <SCORE.norm>
-0.214683

>  <RMSD>
3.848

$$$$
ligand
 OpenBabel02271912143D
libRbt.so/2013.1/901 2013/11/27
 22 23  0  0  0  0  0  0  0  0999 V2000
  -31.6380    1.5094  -10.4485 N   0  0  0  0  0  0  0  0  0  0  0  0
  -28.4466    0.4229  -10.1541 C   0  0  1  0  0  0  0  0  0  0  0  0
  -29.8171    0.3257   -9.6722 O   0  0  0  0  0  0  0  0  0  0  0  0
  -25.5957    2.8288   -9.4885 P   0  0  1  0  0  0  0  0  0  0  0  0
  -30.6970    0.5580  -10.7840 C   0  0  2  0  0  0  0  0  0  0  0  0
  -33.5528    2.4878  -10.1529 N   0  0  0  0  0  0  0  0  0  0  0  0
  -30.4028    0.9471  -13.1202 O   0  0  0  0  0  0  0  0  0  0  0  0
  -29.8373    1.1682  -11.8229 C   0  0  2  0  0  0  0  0  0  0  0  0
  -34.0906    5.0163   -8.7093 N   0  0  0  0  0  0  0  0  0  0  0  0
  -28.5846   -0.8274  -12.1320 O   0  0  0  0  0  0  0  0  0  0  0  0
  -28.5474    0.5179  -11.6269 C   0  0  2  0  0  0  0  0  0  0  0  0
  -32.5909    3.3017   -9.6917 C   0  0  0  0  0  0  0  0  0  0  0  0
  -30.1176    3.2020   -9.5001 N   0  0  0  0  0  0  0  0  0  0  0  0
  -26.5228    1.6472   -9.9388 O   0  0  0  0  0  0  0  0  0  0  0  0
  -27.8623    1.6608   -9.5656 C   0  0  0  0  0  0  0  0  0  0  0  0
  -26.2701    4.0859  -10.1485 O   0  0  0  0  0  0  0  0  0  0  0  0
  -32.9574    1.3774  -10.6283 C   0  0  0  0  0  0  0  0  0  0  0  0
  -31.8599    5.4097   -8.9437 O   0  0  0  0  0  0  0  0  0  0  0  0
  -32.8028    4.6326   -9.0930 C   0  0  0  0  0  0  0  0  0  0  0  0
  -31.3824    2.6912   -9.8716 C   0  0  0  0  0  0  0  0  0  0  0  0
  -25.5267    2.8733   -7.9981 O   0  5  0  0  0  0  0  0  0  0  0  0
  -24.1910    2.5542   -9.8407 O   0  0  0  0  0  0  0  0  0  0  0  0
  1 17  1  0  0  0  0
  1 20  1  0  0  0  0
  2 15  1  1  0  0  0
  2  3  1  0  0  0  0
  2 11  1  0  0  0  0
  3  5  1  0  0  0  0
  4 16  1  6  0  0  0
  4 21  1  0  0  0  0
  4 22  2  0  0  0  0
  4 14  1  0  0  0  0
  5  1  1  1  0  0  0
  5  8  1  0  0  0  0
  6 17  2  0  0  0  0
  6 12  1  0  0  0  0
  8  7  1  6  0  0  0
  8 11  1  0  0  0  0
  9 19  1  0  0  0  0
 11 10  1  6  0  0  0
 12 20  2  0  0  0  0
 12 19  1  0  0  0  0
 13 20  1  0  0  0  0
 14 15  1  0  0  0  0
 18 19  2  0  0  0  0
M  CHG  1  21  -1
M  END
>  <CHROM.1>
-130.10676544,174.25249211,-60.49988468,179.62583053,13.67553952,-29.33397194
2.22743755,-10.11742027,3.04751683,-0.08463363,0.58235272

>  <Name>
ligand

>  <RI>
0

>  <Rbt.Current_Directory>
/home/itssahil/PROJECTS/Mol_Feturizer/Test_systems_manuscript/rnas/4xwf

>  <Rbt.Executable>
rbdock ($Id: //depot/dev/client3/rdock/2013.1/src/exe/rbdock.cxx#4 $)

>  <Rbt.Library>
libRbt.so (2013.1, Build901 2013/11/27)

>  <Rbt.Parameter_File>
/export/apps/rDock/src/rDock_2013.1_src/data/scripts/dock_solv.prm

>  <Rbt.Receptor>
prm/pocket_docking_4.prm

>  <SCORE>
-5.62769

>  <SCORE.INTER>
-7.5269

>  <SCORE.INTER.CONST>
1

>  <SCORE.INTER.POLAR>
0

>  <SCORE.INTER.ROT>
5

>  <SCORE.INTER.SOLV>
11.887

>  <SCORE.INTER.VDW>
-15.9136

>  <SCORE.INTER.norm>
-0.342132

>  <SCORE.INTRA>
1.89921

>  <SCORE.INTRA.DIHEDRAL>
-1.62546

>  <SCORE.INTRA.DIHEDRAL.0>
3.49807

>  <SCORE.INTRA.POLAR>
0

>  <SCORE.INTRA.POLAR.0>
0

>  <SCORE.INTRA.REPUL>
0

>  <SCORE.INTRA.REPUL.0>
0

>  <SCORE.INTRA.SOLV>
4.5375

>  <SCORE.INTRA.SOLV.lig_0>
-73.062

>  <SCORE.INTRA.VDW>
0.443192

>  <SCORE.INTRA.VDW.0>
-1.83782

>  <SCORE.INTRA.norm>
0.0863279

>  <SCORE.RESTR>
0

>  <SCORE.RESTR.CAVITY>
0

>  <SCORE.RESTR.norm>
0

>  <SCORE.SYSTEM>
0

>  <SCORE.SYSTEM.CONST>
0

>  <SCORE.SYSTEM.DIHEDRAL>
0

>  <SCORE.SYSTEM.SOLV>
0

>  <SCORE.SYSTEM.norm>
0

>  <SCORE.heavy>
22

>  <SCORE.norm>
-0.255804

>  <RMSD>
4.047

$$$$
ligand
 OpenBabel02271912143D
libRbt.so/2013.1/901 2013/11/27
 22 23  0  0  0  0  0  0  0  0999 V2000
  -31.6315    1.4977  -10.4317 N   0  0  0  0  0  0  0  0  0  0  0  0
  -28.4907    0.2963  -10.0515 C   0  0  1  0  0  0  0  0  0  0  0  0
  -29.8828    0.2245   -9.6312 O   0  0  0  0  0  0  0  0  0  0  0  0
  -25.5895    2.5527   -9.1293 P   0  0  1  0  0  0  0  0  0  0  0  0
  -30.7070    0.5304  -10.7676 C   0  0  2  0  0  0  0  0  0  0  0  0
  -33.5296    2.5056  -10.1280 N   0  0  0  0  0  0  0  0  0  0  0  0
  -30.3015    1.0043  -13.0713 O   0  0  0  0  0  0  0  0  0  0  0  0
  -29.7852    1.1538  -11.7436 C   0  0  2  0  0  0  0  0  0  0  0  0
  -34.0241    5.0644   -8.7283 N   0  0  0  0  0  0  0  0  0  0  0  0
  -28.5829   -0.8675  -12.0841 O   0  0  0  0  0  0  0  0  0  0  0  0
  -28.5256    0.4543  -11.5219 C   0  0  2  0  0  0  0  0  0  0  0  0
  -32.5524    3.3089   -9.6804 C   0  0  0  0  0  0  0  0  0  0  0  0
  -30.0794    3.1750   -9.5079 N   0  0  0  0  0  0  0  0  0  0  0  0
  -26.5331    1.4211   -9.6657 O   0  0  0  0  0  0  0  0  0  0  0  0
  -27.8939    1.4895   -9.3880 C   0  0  0  0  0  0  0  0  0  0  0  0
  -26.1287    3.8413   -9.8500 O   0  0  0  0  0  0  0  0  0  0  0  0
  -32.9540    1.3833  -10.5999 C   0  0  0  0  0  0  0  0  0  0  0  0
  -31.7808    5.4008   -8.9281 O   0  0  0  0  0  0  0  0  0  0  0  0
  -32.7403    4.6470   -9.0899 C   0  0  0  0  0  0  0  0  0  0  0  0
  -31.3543    2.6798   -9.8655 C   0  0  0  0  0  0  0  0  0  0  0  0
  -25.6594    2.6007   -7.6391 O   0  5  0  0  0  0  0  0  0  0  0  0
  -24.1749    2.2002   -9.3470 O   0  0  0  0  0  0  0  0  0  0  0  0
  1 17  1  0  0  0  0
  1 20  1  0  0  0  0
  2 15  1  1  0  0  0
  2  3  1  0  0  0  0
  2 11  1  0  0  0  0
  3  5  1  0  0  0  0
  4 16  1  6  0  0  0
  4 21  1  0  0  0  0
  4 22  2  0  0  0  0
  4 14  1  0  0  0  0
  5  1  1  1  0  0  0
  5  8  1  0  0  0  0
  6 17  2  0  0  0  0
  6 12  1  0  0  0  0
  8  7  1  6  0  0  0
  8 11  1  0  0  0  0
  9 19  1  0  0  0  0
 11 10  1  6  0  0  0
 12 20  2  0  0  0  0
 12 19  1  0  0  0  0
 13 20  1  0  0  0  0
 14 15  1  0  0  0  0
 18 19  2  0  0  0  0
M  CHG  1  21  -1
M  END
>  <CHROM.1>
-125.98811839,172.18034698,-62.33614683,179.02596875,12.15538326,-29.31703177
2.12885416,-9.98493928,3.04601246,-0.14922747,0.60762589

>  <Name>
ligand

>  <RI>
0

>  <Rbt.Current_Directory>
/home/itssahil/PROJECTS/Mol_Feturizer/Test_systems_manuscript/rnas/4xwf

>  <Rbt.Executable>
rbdock ($Id: //depot/dev/client3/rdock/2013.1/src/exe/rbdock.cxx#4 $)

>  <Rbt.Library>
libRbt.so (2013.1, Build901 2013/11/27)

>  <Rbt.Parameter_File>
/export/apps/rDock/src/rDock_2013.1_src/data/scripts/dock_solv.prm

>  <Rbt.Receptor>
prm/pocket_docking_6.prm

>  <SCORE>
-5.69257

>  <SCORE.INTER>
-7.55667

>  <SCORE.INTER.CONST>
1

>  <SCORE.INTER.POLAR>
0

>  <SCORE.INTER.ROT>
5

>  <SCORE.INTER.SOLV>
11.7135

>  <SCORE.INTER.VDW>
-15.8756

>  <SCORE.INTER.norm>
-0.343485

>  <SCORE.INTRA>
1.8641

>  <SCORE.INTRA.DIHEDRAL>
-1.56198

>  <SCORE.INTRA.DIHEDRAL.0>
3.49807

>  <SCORE.INTRA.POLAR>
0

>  <SCORE.INTRA.POLAR.0>
0

>  <SCORE.INTRA.REPUL>
0

>  <SCORE.INTRA.REPUL.0>
0

>  <SCORE.INTRA.SOLV>
4.58078

>  <SCORE.INTRA.SOLV.lig_0>
-73.062

>  <SCORE.INTRA.VDW>
0.354707

>  <SCORE.INTRA.VDW.0>
-1.83782

>  <SCORE.INTRA.norm>
0.084732

>  <SCORE.RESTR>
0

>  <SCORE.RESTR.CAVITY>
0

>  <SCORE.RESTR.norm>
0

>  <SCORE.SYSTEM>
0

>  <SCORE.SYSTEM.CONST>
0

>  <SCORE.SYSTEM.DIHEDRAL>
0

>  <SCORE.SYSTEM.SOLV>
0

>  <SCORE.SYSTEM.norm>
0

>  <SCORE.heavy>
22

>  <SCORE.norm>
-0.258753

>  <RMSD>
4.153

$$$$
ligand
 OpenBabel02271912143D
libRbt.so/2013.1/901 2013/11/27
 22 23  0  0  0  0  0  0  0  0999 V2000
  -31.9488    3.6106   -8.9007 N   0  0  0  0  0  0  0  0  0  0  0  0
  -29.2391    2.0370  -10.1789 C   0  0  1  0  0  0  0  0  0  0  0  0
  -29.8689    2.6190   -9.0022 O   0  0  0  0  0  0  0  0  0  0  0  0
  -26.8079    4.8569  -10.8838 P   0  0  1  0  0  0  0  0  0  0  0  0
  -31.2874    2.4185   -9.1119 C   0  0  2  0  0  0  0  0  0  0  0  0
  -32.4342    5.7256   -8.9502 N   0  0  0  0  0  0  0  0  0  0  0  0
  -32.7239    1.3181  -10.6680 O   0  0  0  0  0  0  0  0  0  0  0  0
  -31.5083    2.0634  -10.5317 C   0  0  2  0  0  0  0  0  0  0  0  0
  -34.7907    7.0963   -7.8272 N   0  0  0  0  0  0  0  0  0  0  0  0
  -30.3701   -0.0115  -10.3169 O   0  0  0  0  0  0  0  0  0  0  0  0
  -30.3137    1.3071  -10.8865 C   0  0  2  0  0  0  0  0  0  0  0  0
  -33.4294    5.0820   -8.3210 C   0  0  0  0  0  0  0  0  0  0  0  0
  -33.9310    2.7221   -7.7358 N   0  0  0  0  0  0  0  0  0  0  0  0
  -27.6173    3.6503  -10.2942 O   0  0  0  0  0  0  0  0  0  0  0  0
  -28.7144    3.1656  -10.9980 C   0  0  0  0  0  0  0  0  0  0  0  0
  -25.4634    4.8189  -10.0706 O   0  0  0  0  0  0  0  0  0  0  0  0
  -31.5126    4.8096   -9.3040 C   0  0  0  0  0  0  0  0  0  0  0  0
  -35.5056    5.0227   -7.2151 O   0  0  0  0  0  0  0  0  0  0  0  0
  -34.6394    5.7088   -7.7573 C   0  0  0  0  0  0  0  0  0  0  0  0
  -33.1324    3.7493   -8.2885 C   0  0  0  0  0  0  0  0  0  0  0  0
  -26.6464    4.6813  -12.3572 O   0  5  0  0  0  0  0  0  0  0  0  0
  -27.6000    6.0983  -10.8198 O   0  0  0  0  0  0  0  0  0  0  0  0
  1 17  1  0  0  0  0
  1 20  1  0  0  0  0
  2 15  1  6  0  0  0
  2  3  1  0  0  0  0
  2 11  1  0  0  0  0
  3  5  1  0  0  0  0
  4 16  1  1  0  0  0
  4 21  1  0  0  0  0
  4 22  2  0  0  0  0
  4 14  1  0  0  0  0
  5  1  1  6  0  0  0
  5  8  1  0  0  0  0
  6 17  2  0  0  0  0
  6 12  1  0  0  0  0
  8  7  1  1  0  0  0
  8 11  1  0  0  0  0
  9 19  1  0  0  0  0
 11 10  1  1  0  0  0
 12 20  2  0  0  0  0
 12 19  1  0  0  0  0
 13 20  1  0  0  0  0
 14 15  1  0  0  0  0
 18 19  2  0  0  0  0
M  CHG  1  21  -1
M  END
>  <CHROM.1>
36.62283589,72.02386011,-163.78614802,179.69846586,-1.91978332,-30.55496308
3.79337972,-9.67867678,3.01656388,0.36140766,0.21452842

>  <Name>
ligand

>  <RI>
0

>  <Rbt.Current_Directory>
/home/itssahil/PROJECTS/Mol_Feturizer/Test_systems_manuscript/rnas/4xwf

>  <Rbt.Executable>
rbdock ($Id: //depot/dev/client3/rdock/2013.1/src/exe/rbdock.cxx#4 $)

>  <Rbt.Library>
libRbt.so (2013.1, Build901 2013/11/27)

>  <Rbt.Parameter_File>
/export/apps/rDock/src/rDock_2013.1_src/data/scripts/dock_solv.prm

>  <Rbt.Receptor>
prm/pocket_docking_5.prm

>  <SCORE>
-4.48905

>  <SCORE.INTER>
-3.86183

>  <SCORE.INTER.CONST>
1

>  <SCORE.INTER.POLAR>
0

>  <SCORE.INTER.ROT>
5

>  <SCORE.INTER.SOLV>
14.4176

>  <SCORE.INTER.VDW>
-14.3137

>  <SCORE.INTER.norm>
-0.175538

>  <SCORE.INTRA>
-0.627219

>  <SCORE.INTRA.DIHEDRAL>
-1.15855

>  <SCORE.INTRA.DIHEDRAL.0>
3.49807

>  <SCORE.INTRA.POLAR>
0

>  <SCORE.INTRA.POLAR.0>
0

>  <SCORE.INTRA.REPUL>
0

>  <SCORE.INTRA.REPUL.0>
0

>  <SCORE.INTRA.SOLV>
0.379976

>  <SCORE.INTRA.SOLV.lig_0>
-73.062

>  <SCORE.INTRA.VDW>
-0.23793

>  <SCORE.INTRA.VDW.0>
-1.83782

>  <SCORE.INTRA.norm>
-0.02851

>  <SCORE.RESTR>
0

>  <SCORE.RESTR.CAVITY>
0

>  <SCORE.RESTR.norm>
0

>  <SCORE.SYSTEM>
0

>  <SCORE.SYSTEM.CONST>
0

>  <SCORE.SYSTEM.DIHEDRAL>
0

>  <SCORE.SYSTEM.SOLV>
0

>  <SCORE.SYSTEM.norm>
0

>  <SCORE.heavy>
22

>  <SCORE.norm>
-0.204048

>  <RMSD>
4.304

$$$$
ligand
 OpenBabel02271912143D
libRbt.so/2013.1/901 2013/11/27
 22 23  0  0  0  0  0  0  0  0999 V2000
  -29.6059    2.8996  -10.4068 N   0  0  0  0  0  0  0  0  0  0  0  0
  -27.1047    4.9081  -11.4849 C   0  0  1  0  0  0  0  0  0  0  0  0
  -28.4437    4.8248  -10.9192 O   0  0  0  0  0  0  0  0  0  0  0  0
  -28.3146    2.8638  -14.4357 P   0  0  1  0  0  0  0  0  0  0  0  0
  -28.5010    3.6589  -10.0815 C   0  0  2  0  0  0  0  0  0  0  0  0
  -30.8563    1.3865  -11.3332 N   0  0  0  0  0  0  0  0  0  0  0  0
  -26.9358    1.9948   -9.3911 O   0  0  0  0  0  0  0  0  0  0  0  0
  -27.3162    2.8601  -10.4674 C   0  0  2  0  0  0  0  0  0  0  0  0
  -33.6920    0.7731  -10.8086 N   0  0  0  0  0  0  0  0  0  0  0  0
  -25.7973    4.4637   -9.5908 O   0  0  0  0  0  0  0  0  0  0  0  0
  -26.3138    3.8673  -10.7924 C   0  0  2  0  0  0  0  0  0  0  0  0
  -31.6012    2.0566  -10.4406 C   0  0  0  0  0  0  0  0  0  0  0  0
  -31.2150    3.9139   -8.8391 N   0  0  0  0  0  0  0  0  0  0  0  0
  -28.0445    3.5013  -13.0289 O   0  0  0  0  0  0  0  0  0  0  0  0
  -27.2264    4.6224  -12.9421 C   0  0  0  0  0  0  0  0  0  0  0  0
  -29.3277    1.7053  -14.1164 O   0  0  0  0  0  0  0  0  0  0  0  0
  -29.6185    1.9165  -11.3145 C   0  0  0  0  0  0  0  0  0  0  0  0
  -33.6301    2.5113   -9.3387 O   0  0  0  0  0  0  0  0  0  0  0  0
  -33.0248    1.8077  -10.1472 C   0  0  0  0  0  0  0  0  0  0  0  0
  -30.8199    3.0091   -9.8509 C   0  0  0  0  0  0  0  0  0  0  0  0
  -28.8381    3.9060  -15.3673 O   0  5  0  0  0  0  0  0  0  0  0  0
  -27.0486    2.4908  -15.0920 O   0  0  0  0  0  0  0  0  0  0  0  0
  1 17  1  0  0  0  0
  1 20  1  0  0  0  0
  2 15  1  6  0  0  0
  2  3  1  0  0  0  0
  2 11  1  0  0  0  0
  3  5  1  0  0  0  0
  4 16  1  1  0  0  0
  4 21  1  0  0  0  0
  4 22  2  0  0  0  0
  4 14  1  0  0  0  0
  5  1  1  6  0  0  0
  5  8  1  0  0  0  0
  6 17  2  0  0  0  0
  6 12  1  0  0  0  0
  8  7  1  1  0  0  0
  8 11  1  0  0  0  0
  9 19  1  0  0  0  0
 11 10  1  1  0  0  0
 12 20  2  0  0  0  0
 12 19  1  0  0  0  0
 13 20  1  0  0  0  0
 14 15  1  0  0  0  0
 18 19  2  0  0  0  0
M  CHG  1  21  -1
M  END
>  <CHROM.1>
90.44580249,-46.00381375,-176.74374135,-176.19591880,1.63221493,-29.13060934
3.00862442,-11.59642217,-2.65303602,-0.35994429,-1.72155532

>  <Name>
ligand

>  <RI>
0

>  <Rbt.Current_Directory>
/home/itssahil/PROJECTS/Mol_Feturizer/Test_systems_manuscript/rnas/4xwf

>  <Rbt.Executable>
rbdock ($Id: //depot/dev/client3/rdock/2013.1/src/exe/rbdock.cxx#4 $)

>  <Rbt.Library>
libRbt.so (2013.1, Build901 2013/11/27)

>  <Rbt.Parameter_File>
/export/apps/rDock/src/rDock_2013.1_src/data/scripts/dock_solv.prm

>  <Rbt.Receptor>
prm/pocket_docking_3.prm

>  <SCORE>
-2.3374

>  <SCORE.INTER>
-3.56528

>  <SCORE.INTER.CONST>
1

>  <SCORE.INTER.POLAR>
0

>  <SCORE.INTER.ROT>
5

>  <SCORE.INTER.SOLV>
11.9091

>  <SCORE.INTER.VDW>
-13.2799

>  <SCORE.INTER.norm>
-0.162058

>  <SCORE.INTRA>
1.22788

>  <SCORE.INTRA.DIHEDRAL>
-1.1691

>  <SCORE.INTRA.DIHEDRAL.0>
3.49807

>  <SCORE.INTRA.POLAR>
0

>  <SCORE.INTRA.POLAR.0>
0

>  <SCORE.INTRA.REPUL>
0

>  <SCORE.INTRA.REPUL.0>
0

>  <SCORE.INTRA.SOLV>
0.579872

>  <SCORE.INTRA.SOLV.lig_0>
-73.062

>  <SCORE.INTRA.VDW>
1.5225

>  <SCORE.INTRA.VDW.0>
-1.83782

>  <SCORE.INTRA.norm>
0.0558129

>  <SCORE.RESTR>
0

>  <SCORE.RESTR.CAVITY>
0

>  <SCORE.RESTR.norm>
0

>  <SCORE.SYSTEM>
0

>  <SCORE.SYSTEM.CONST>
0

>  <SCORE.SYSTEM.DIHEDRAL>
0

>  <SCORE.SYSTEM.SOLV>
0

>  <SCORE.SYSTEM.norm>
0

>  <SCORE.heavy>
22

>  <SCORE.norm>
-0.106245

>  <RMSD>
4.387

$$$$
ligand
 OpenBabel02271912143D
libRbt.so/2013.1/901 2013/11/27
 22 23  0  0  0  0  0  0  0  0999 V2000
  -32.8206    2.9097   -9.1321 N   0  0  0  0  0  0  0  0  0  0  0  0
  -29.5812    2.2413   -9.8478 C   0  0  1  0  0  0  0  0  0  0  0  0
  -30.5762    2.4847   -8.8131 O   0  0  0  0  0  0  0  0  0  0  0  0
  -28.0315    5.6934   -9.6842 P   0  0  1  0  0  0  0  0  0  0  0  0
  -31.8320    1.9575   -9.2707 C   0  0  2  0  0  0  0  0  0  0  0  0
  -34.6364    4.0483   -9.4747 N   0  0  0  0  0  0  0  0  0  0  0  0
  -32.5591    0.7587  -11.2021 O   0  0  0  0  0  0  0  0  0  0  0  0
  -31.6472    1.7551  -10.7252 C   0  0  2  0  0  0  0  0  0  0  0  0
  -34.8483    5.4513   -6.2246 N   0  0  0  0  0  0  0  0  0  0  0  0
  -30.0601    0.0155  -10.4055 O   0  0  0  0  0  0  0  0  0  0  0  0
  -30.2456    1.3720  -10.8434 C   0  0  2  0  0  0  0  0  0  0  0  0
  -34.0316    4.5425   -8.3836 C   0  0  0  0  0  0  0  0  0  0  0  0
  -31.9750    4.0142   -7.0972 N   0  0  0  0  0  0  0  0  0  0  0  0
  -28.4821    4.2104   -9.4469 O   0  0  0  0  0  0  0  0  0  0  0  0
  -29.2230    3.5648  -10.4308 C   0  0  0  0  0  0  0  0  0  0  0  0
  -27.4470    5.6619  -11.1430 O   0  0  0  0  0  0  0  0  0  0  0  0
  -33.8785    3.0377   -9.9414 C   0  0  0  0  0  0  0  0  0  0  0  0
  -34.6485    6.7896   -8.0562 O   0  0  0  0  0  0  0  0  0  0  0  0
  -34.5180    5.6685   -7.5650 C   0  0  0  0  0  0  0  0  0  0  0  0
  -32.8890    3.8286   -8.1597 C   0  0  0  0  0  0  0  0  0  0  0  0
  -29.1973    6.6077   -9.5031 O   0  5  0  0  0  0  0  0  0  0  0  0
  -27.1324    6.1449   -8.6070 O   0  0  0  0  0  0  0  0  0  0  0  0
  1 17  1  0  0  0  0
  1 20  1  0  0  0  0
  2 15  1  6  0  0  0
  2  3  1  0  0  0  0
  2 11  1  0  0  0  0
  3  5  1  0  0  0  0
  4 16  1  6  0  0  0
  4 21  1  0  0  0  0
  4 22  2  0  0  0  0
  4 14  1  0  0  0  0
  5  1  1  6  0  0  0
  5  8  1  0  0  0  0
  6 17  2  0  0  0  0
  6 12  1  0  0  0  0
  8  7  1  1  0  0  0
  8 11  1  0  0  0  0
  9 19  1  0  0  0  0
 11 10  1  1  0  0  0
 12 20  2  0  0  0  0
 12 19  1  0  0  0  0
 13 20  1  0  0  0  0
 14 15  1  0  0  0  0
 18 19  2  0  0  0  0
M  CHG  1  21  -1
M  END
>  <CHROM.1>
147.93508825,71.41933574,-47.18783696,-175.20229652,117.74323512,-31.08403610
3.88778561,-9.31798125,3.10820770,0.27252685,0.39651064

>  <Name>
ligand

>  <RI>
0

>  <Rbt.Current_Directory>
/home/itssahil/PROJECTS/Mol_Feturizer/Test_systems_manuscript/rnas/4xwf

>  <Rbt.Executable>
rbdock ($Id: //depot/dev/client3/rdock/2013.1/src/exe/rbdock.cxx#4 $)

>  <Rbt.Library>
libRbt.so (2013.1, Build901 2013/11/27)

>  <Rbt.Parameter_File>
/export/apps/rDock/src/rDock_2013.1_src/data/scripts/dock_solv.prm

>  <Rbt.Receptor>
prm/pocket_docking_7.prm

>  <SCORE>
-6.91131

>  <SCORE.INTER>
-7.91143

>  <SCORE.INTER.CONST>
1

>  <SCORE.INTER.POLAR>
0

>  <SCORE.INTER.ROT>
5

>  <SCORE.INTER.SOLV>
10.9051

>  <SCORE.INTER.VDW>
-15.8427

>  <SCORE.INTER.norm>
-0.359611

>  <SCORE.INTRA>
1.00012

>  <SCORE.INTRA.DIHEDRAL>
-1.22825

>  <SCORE.INTRA.DIHEDRAL.0>
3.49807

>  <SCORE.INTRA.POLAR>
0

>  <SCORE.INTRA.POLAR.0>
0

>  <SCORE.INTRA.REPUL>
0

>  <SCORE.INTRA.REPUL.0>
0

>  <SCORE.INTRA.SOLV>
0.746744

>  <SCORE.INTRA.SOLV.lig_0>
-73.062

>  <SCORE.INTRA.VDW>
1.24087

>  <SCORE.INTRA.VDW.0>
-1.83782

>  <SCORE.INTRA.norm>
0.0454602

>  <SCORE.RESTR>
0

>  <SCORE.RESTR.CAVITY>
0

>  <SCORE.RESTR.norm>
0

>  <SCORE.SYSTEM>
0

>  <SCORE.SYSTEM.CONST>
0

>  <SCORE.SYSTEM.DIHEDRAL>
0

>  <SCORE.SYSTEM.SOLV>
0

>  <SCORE.SYSTEM.norm>
0

>  <SCORE.heavy>
22

>  <SCORE.norm>
-0.31415

>  <RMSD>
4.523

$$$$
ligand
 OpenBabel02271912143D
libRbt.so/2013.1/901 2013/11/27
 22 23  0  0  0  0  0  0  0  0999 V2000
  -32.7994    2.9546   -9.1410 N   0  0  0  0  0  0  0  0  0  0  0  0
  -29.5225    2.3400   -9.7208 C   0  0  1  0  0  0  0  0  0  0  0  0
  -30.5635    2.5667   -8.7286 O   0  0  0  0  0  0  0  0  0  0  0  0
  -28.2275    5.8852   -9.4382 P   0  0  1  0  0  0  0  0  0  0  0  0
  -31.7903    2.0189   -9.2378 C   0  0  2  0  0  0  0  0  0  0  0  0
  -34.6418    4.0344   -9.5297 N   0  0  0  0  0  0  0  0  0  0  0  0
  -32.4164    0.8085  -11.1971 O   0  0  0  0  0  0  0  0  0  0  0  0
  -31.5418    1.8198  -10.6833 C   0  0  2  0  0  0  0  0  0  0  0  0
  -33.7658    6.8987   -7.5900 N   0  0  0  0  0  0  0  0  0  0  0  0
  -29.9408    0.1067  -10.2968 O   0  0  0  0  0  0  0  0  0  0  0  0
  -30.1304    1.4600  -10.7428 C   0  0  2  0  0  0  0  0  0  0  0  0
  -34.0438    4.5949   -8.4672 C   0  0  0  0  0  0  0  0  0  0  0  0
  -31.9706    4.1763   -7.1671 N   0  0  0  0  0  0  0  0  0  0  0  0
  -28.5726    4.3683   -9.2415 O   0  0  0  0  0  0  0  0  0  0  0  0
  -29.1622    3.6694  -10.2892 C   0  0  0  0  0  0  0  0  0  0  0  0
  -29.6383    6.5782   -9.4310 O   0  0  0  0  0  0  0  0  0  0  0  0
  -33.8633    3.0191   -9.9501 C   0  0  0  0  0  0  0  0  0  0  0  0
  -35.6522    5.7004   -7.1526 O   0  0  0  0  0  0  0  0  0  0  0  0
  -34.5519    5.7488   -7.7024 C   0  0  0  0  0  0  0  0  0  0  0  0
  -32.8845    3.9185   -8.2145 C   0  0  0  0  0  0  0  0  0  0  0  0
  -27.3096    6.3366   -8.3512 O   0  5  0  0  0  0  0  0  0  0  0  0
  -27.3870    6.0790  -10.6334 O   0  0  0  0  0  0  0  0  0  0  0  0
  1 17  1  0  0  0  0
  1 20  1  0  0  0  0
  2 15  1  6  0  0  0
  2  3  1  0  0  0  0
  2 11  1  0  0  0  0
  3  5  1  0  0  0  0
  4 16  1  6  0  0  0
  4 21  1  0  0  0  0
  4 22  2  0  0  0  0
  4 14  1  0  0  0  0
  5  1  1  6  0  0  0
  5  8  1  0  0  0  0
  6 17  2  0  0  0  0
  6 12  1  0  0  0  0
  8  7  1  1  0  0  0
  8 11  1  0  0  0  0
  9 19  1  0  0  0  0
 11 10  1  1  0  0  0
 12 20  2  0  0  0  0
 12 19  1  0  0  0  0
 13 20  1  0  0  0  0
 14 15  1  0  0  0  0
 18 19  2  0  0  0  0
M  CHG  1  21  -1
M  END
>  <CHROM.1>
151.80718981,66.60941172,71.77396201,-172.48633195,-121.65709683,-31.10819969
3.99365772,-9.24675337,-3.11474431,0.22537733,0.38019034

>  <Name>
ligand

>  <RI>
0

>  <Rbt.Current_Directory>
/home/itssahil/PROJECTS/Mol_Feturizer/Test_systems_manuscript/rnas/4xwf

>  <Rbt.Executable>
rbdock ($Id: //depot/dev/client3/rdock/2013.1/src/exe/rbdock.cxx#4 $)

>  <Rbt.Library>
libRbt.so (2013.1, Build901 2013/11/27)

>  <Rbt.Parameter_File>
/export/apps/rDock/src/rDock_2013.1_src/data/scripts/dock_solv.prm

>  <Rbt.Receptor>
prm/pocket_docking_5.prm

>  <SCORE>
-7.71375

>  <SCORE.INTER>
-8.48316

>  <SCORE.INTER.CONST>
1

>  <SCORE.INTER.POLAR>
0

>  <SCORE.INTER.ROT>
5

>  <SCORE.INTER.SOLV>
9.63683

>  <SCORE.INTER.VDW>
-15.8011

>  <SCORE.INTER.norm>
-0.385598

>  <SCORE.INTRA>
0.76941

>  <SCORE.INTRA.DIHEDRAL>
-1.40519

>  <SCORE.INTRA.DIHEDRAL.0>
3.49807

>  <SCORE.INTRA.POLAR>
0

>  <SCORE.INTRA.POLAR.0>
0

>  <SCORE.INTRA.REPUL>
0

>  <SCORE.INTRA.REPUL.0>
0

>  <SCORE.INTRA.SOLV>
1.47335

>  <SCORE.INTRA.SOLV.lig_0>
-73.062

>  <SCORE.INTRA.VDW>
0.735327

>  <SCORE.INTRA.VDW.0>
-1.83782

>  <SCORE.INTRA.norm>
0.0349732

>  <SCORE.RESTR>
0

>  <SCORE.RESTR.CAVITY>
0

>  <SCORE.RESTR.norm>
0

>  <SCORE.SYSTEM>
0

>  <SCORE.SYSTEM.CONST>
0

>  <SCORE.SYSTEM.DIHEDRAL>
0

>  <SCORE.SYSTEM.SOLV>
0

>  <SCORE.SYSTEM.norm>
0

>  <SCORE.heavy>
22

>  <SCORE.norm>
-0.350625

>  <RMSD>
4.532

$$$$
ligand
 OpenBabel02271912143D
libRbt.so/2013.1/901 2013/11/27
 22 23  0  0  0  0  0  0  0  0999 V2000
  -32.7847    2.9848   -9.1047 N   0  0  0  0  0  0  0  0  0  0  0  0
  -29.5722    2.2359   -9.8611 C   0  0  1  0  0  0  0  0  0  0  0  0
  -30.5464    2.5099   -8.8142 O   0  0  0  0  0  0  0  0  0  0  0  0
  -28.1027    5.7201   -9.6866 P   0  0  1  0  0  0  0  0  0  0  0  0
  -31.8205    2.0088   -9.2501 C   0  0  2  0  0  0  0  0  0  0  0  0
  -34.6004    4.1366   -9.4005 N   0  0  0  0  0  0  0  0  0  0  0  0
  -32.6027    0.8133  -11.1618 O   0  0  0  0  0  0  0  0  0  0  0  0
  -31.6613    1.7916  -10.7055 C   0  0  2  0  0  0  0  0  0  0  0  0
  -35.7045    6.1505   -7.4737 N   0  0  0  0  0  0  0  0  0  0  0  0
  -30.1105    0.0179  -10.3951 O   0  0  0  0  0  0  0  0  0  0  0  0
  -30.2708    1.3752  -10.8406 C   0  0  2  0  0  0  0  0  0  0  0  0
  -33.9244    4.6762   -8.3746 C   0  0  0  0  0  0  0  0  0  0  0  0
  -31.8030    4.1787   -7.1847 N   0  0  0  0  0  0  0  0  0  0  0  0
  -28.5100    4.2239   -9.4542 O   0  0  0  0  0  0  0  0  0  0  0  0
  -29.1918    3.5465  -10.4591 C   0  0  0  0  0  0  0  0  0  0  0  0
  -29.4646    6.4904   -9.5367 O   0  0  0  0  0  0  0  0  0  0  0  0
  -33.8869    3.0894   -9.8563 C   0  0  0  0  0  0  0  0  0  0  0  0
  -33.5078    6.5776   -7.0523 O   0  0  0  0  0  0  0  0  0  0  0  0
  -34.3442    5.8522   -7.5901 C   0  0  0  0  0  0  0  0  0  0  0  0
  -32.7813    3.9544   -8.1803 C   0  0  0  0  0  0  0  0  0  0  0  0
  -27.0553    6.1149   -8.6991 O   0  5  0  0  0  0  0  0  0  0  0  0
  -27.3785    5.8724  -10.9613 O   0  0  0  0  0  0  0  0  0  0  0  0
  1 17  1  0  0  0  0
  1 20  1  0  0  0  0
  2 15  1  6  0  0  0
  2  3  1  0  0  0  0
  2 11  1  0  0  0  0
  3  5  1  0  0  0  0
  4 16  1  1  0  0  0
  4 21  1  0  0  0  0
  4 22  2  0  0  0  0
  4 14  1  0  0  0  0
  5  1  1  6  0  0  0
  5  8  1  0  0  0  0
  6 17  2  0  0  0  0
  6 12  1  0  0  0  0
  8  7  1  1  0  0  0
  8 11  1  0  0  0  0
  9 19  1  0  0  0  0
 11 10  1  1  0  0  0
 12 20  2  0  0  0  0
 12 19  1  0  0  0  0
 13 20  1  0  0  0  0
 14 15  1  0  0  0  0
 18 19  2  0  0  0  0
M  CHG  1  21  -1
M  END
>  <CHROM.1>
151.61481087,66.97333230,74.46214859,-173.02230961,27.33391450,-31.05727992
3.95209179,-9.31542647,3.10097522,0.25256881,0.39228387

>  <Name>
ligand

>  <RI>
0

>  <Rbt.Current_Directory>
/home/itssahil/PROJECTS/Mol_Feturizer/Test_systems_manuscript/rnas/4xwf

>  <Rbt.Executable>
rbdock ($Id: //depot/dev/client3/rdock/2013.1/src/exe/rbdock.cxx#4 $)

>  <Rbt.Library>
libRbt.so (2013.1, Build901 2013/11/27)

>  <Rbt.Parameter_File>
/export/apps/rDock/src/rDock_2013.1_src/data/scripts/dock_solv.prm

>  <Rbt.Receptor>
prm/pocket_docking_6.prm

>  <SCORE>
-7.07935

>  <SCORE.INTER>
-8.27736

>  <SCORE.INTER.CONST>
1

>  <SCORE.INTER.POLAR>
0

>  <SCORE.INTER.ROT>
5

>  <SCORE.INTER.SOLV>
10.649

>  <SCORE.INTER.VDW>
-16.0012

>  <SCORE.INTER.norm>
-0.376244

>  <SCORE.INTRA>
1.19801

>  <SCORE.INTRA.DIHEDRAL>
-0.599133

>  <SCORE.INTRA.DIHEDRAL.0>
3.49807

>  <SCORE.INTRA.POLAR>
0

>  <SCORE.INTRA.POLAR.0>
0

>  <SCORE.INTRA.REPUL>
0

>  <SCORE.INTRA.REPUL.0>
0

>  <SCORE.INTRA.SOLV>
1.2871

>  <SCORE.INTRA.SOLV.lig_0>
-73.062

>  <SCORE.INTRA.VDW>
0.854022

>  <SCORE.INTRA.VDW.0>
-1.83782

>  <SCORE.INTRA.norm>
0.0544548

>  <SCORE.RESTR>
0

>  <SCORE.RESTR.CAVITY>
0

>  <SCORE.RESTR.norm>
0

>  <SCORE.SYSTEM>
0

>  <SCORE.SYSTEM.CONST>
0

>  <SCORE.SYSTEM.DIHEDRAL>
0

>  <SCORE.SYSTEM.SOLV>
0

>  <SCORE.SYSTEM.norm>
0

>  <SCORE.heavy>
22

>  <SCORE.norm>
-0.321789

>  <RMSD>
4.561

$$$$
ligand
 OpenBabel02271912143D
libRbt.so/2013.1/901 2013/11/27
 22 23  0  0  0  0  0  0  0  0999 V2000
  -29.8241    4.4312   -9.8989 N   0  0  0  0  0  0  0  0  0  0  0  0
  -26.7763    4.6535  -11.3528 C   0  0  1  0  0  0  0  0  0  0  0  0
  -28.1094    5.2239  -11.2223 O   0  0  0  0  0  0  0  0  0  0  0  0
  -28.1933    1.2779  -12.2997 P   0  0  1  0  0  0  0  0  0  0  0  0
  -28.5634    4.9911   -9.8791 C   0  0  2  0  0  0  0  0  0  0  0  0
  -31.4523    3.0537  -10.3022 N   0  0  0  0  0  0  0  0  0  0  0  0
  -27.6135    4.0161   -7.9187 O   0  0  0  0  0  0  0  0  0  0  0  0
  -27.6525    3.9518   -9.3492 C   0  0  2  0  0  0  0  0  0  0  0  0
  -34.3209    3.4188   -9.6444 N   0  0  0  0  0  0  0  0  0  0  0  0
  -25.7767    5.4106   -9.3723 O   0  0  0  0  0  0  0  0  0  0  0  0
  -26.3765    4.2568   -9.9849 C   0  0  2  0  0  0  0  0  0  0  0  0
  -31.9229    4.0434   -9.5278 C   0  0  0  0  0  0  0  0  0  0  0  0
  -30.9729    6.0783   -8.4694 N   0  0  0  0  0  0  0  0  0  0  0  0
  -27.9420    2.7197  -11.7369 O   0  0  0  0  0  0  0  0  0  0  0  0
  -26.8919    3.4714  -12.2525 C   0  0  0  0  0  0  0  0  0  0  0  0
  -28.4640    1.5309  -13.8272 O   0  0  0  0  0  0  0  0  0  0  0  0
  -30.1492    3.3005  -10.5363 C   0  0  0  0  0  0  0  0  0  0  0  0
  -33.5823    4.9441   -8.1235 O   0  0  0  0  0  0  0  0  0  0  0  0
  -33.3093    4.1714   -9.0419 C   0  0  0  0  0  0  0  0  0  0  0  0
  -30.9027    4.9132   -9.2671 C   0  0  0  0  0  0  0  0  0  0  0  0
  -27.0100    0.4140  -12.0146 O   0  5  0  0  0  0  0  0  0  0  0  0
  -29.2495    0.5942  -11.5318 O   0  0  0  0  0  0  0  0  0  0  0  0
  1 17  1  0  0  0  0
  1 20  1  0  0  0  0
  2 15  1  6  0  0  0
  2  3  1  0  0  0  0
  2 11  1  0  0  0  0
  3  5  1  0  0  0  0
  4 16  1  6  0  0  0
  4 21  1  0  0  0  0
  4 22  2  0  0  0  0
  4 14  1  0  0  0  0
  5  1  1  6  0  0  0
  5  8  1  0  0  0  0
  6 17  2  0  0  0  0
  6 12  1  0  0  0  0
  8  7  1  1  0  0  0
  8 11  1  0  0  0  0
  9 19  1  0  0  0  0
 11 10  1  1  0  0  0
 12 20  2  0  0  0  0
 12 19  1  0  0  0  0
 13 20  1  0  0  0  0
 14 15  1  0  0  0  0
 18 19  2  0  0  0  0
M  CHG  1  21  -1
M  END
>  <CHROM.1>
56.41266009,-50.18537178,-59.81568059,-170.01205918,-16.06466021,-29.19033717
3.50464440,-10.48309249,-2.56917128,-0.15940763,-2.45120174

>  <Name>
ligand

>  <RI>
0

>  <Rbt.Current_Directory>
/home/itssahil/PROJECTS/Mol_Feturizer/Test_systems_manuscript/rnas/4xwf

>  <Rbt.Executable>
rbdock ($Id: //depot/dev/client3/rdock/2013.1/src/exe/rbdock.cxx#4 $)

>  <Rbt.Library>
libRbt.so (2013.1, Build901 2013/11/27)

>  <Rbt.Parameter_File>
/export/apps/rDock/src/rDock_2013.1_src/data/scripts/dock_solv.prm

>  <Rbt.Receptor>
prm/pocket_docking_3.prm

>  <SCORE>
-1.44402

>  <SCORE.INTER>
-2.46095

>  <SCORE.INTER.CONST>
1

>  <SCORE.INTER.POLAR>
0

>  <SCORE.INTER.ROT>
5

>  <SCORE.INTER.SOLV>
12.3407

>  <SCORE.INTER.VDW>
-12.6875

>  <SCORE.INTER.norm>
-0.111862

>  <SCORE.INTRA>
1.01503

>  <SCORE.INTRA.DIHEDRAL>
-0.894757

>  <SCORE.INTRA.DIHEDRAL.0>
3.49807

>  <SCORE.INTRA.POLAR>
0

>  <SCORE.INTRA.POLAR.0>
0

>  <SCORE.INTRA.REPUL>
0

>  <SCORE.INTRA.REPUL.0>
0

>  <SCORE.INTRA.SOLV>
1.25784

>  <SCORE.INTRA.SOLV.lig_0>
-73.062

>  <SCORE.INTRA.VDW>
0.833487

>  <SCORE.INTRA.VDW.0>
-1.83782

>  <SCORE.INTRA.norm>
0.0461376

>  <SCORE.RESTR>
0.00191087

>  <SCORE.RESTR.CAVITY>
0.00191087

>  <SCORE.RESTR.norm>
8.68579e-05

>  <SCORE.SYSTEM>
0

>  <SCORE.SYSTEM.CONST>
0

>  <SCORE.SYSTEM.DIHEDRAL>
0

>  <SCORE.SYSTEM.SOLV>
0

>  <SCORE.SYSTEM.norm>
0

>  <SCORE.heavy>
22

>  <SCORE.norm>
-0.0656371

>  <RMSD>
4.616

$$$$
ligand
 OpenBabel02271912143D
libRbt.so/2013.1/901 2013/11/27
 22 23  0  0  0  0  0  0  0  0999 V2000
  -32.8704    2.9646   -9.0869 N   0  0  0  0  0  0  0  0  0  0  0  0
  -29.6258    2.2357   -9.7144 C   0  0  1  0  0  0  0  0  0  0  0  0
  -30.6420    2.5062   -8.7075 O   0  0  0  0  0  0  0  0  0  0  0  0
  -28.1896    5.7322   -9.4968 P   0  0  1  0  0  0  0  0  0  0  0  0
  -31.8947    1.9949   -9.1911 C   0  0  2  0  0  0  0  0  0  0  0  0
  -34.6635    4.1229   -9.4798 N   0  0  0  0  0  0  0  0  0  0  0  0
  -32.5933    0.7880  -11.1278 O   0  0  0  0  0  0  0  0  0  0  0  0
  -31.6771    1.7742  -10.6384 C   0  0  2  0  0  0  0  0  0  0  0  0
  -34.9891    5.5801   -6.2922 N   0  0  0  0  0  0  0  0  0  0  0  0
  -30.1277    0.0123  -10.2615 O   0  0  0  0  0  0  0  0  0  0  0  0
  -30.2796    1.3670  -10.7176 C   0  0  2  0  0  0  0  0  0  0  0  0
  -34.0669    4.6308   -8.3904 C   0  0  0  0  0  0  0  0  0  0  0  0
  -32.0373    4.0989   -7.0633 N   0  0  0  0  0  0  0  0  0  0  0  0
  -28.6067    4.2379   -9.2690 O   0  0  0  0  0  0  0  0  0  0  0  0
  -29.2312    3.5470  -10.3016 C   0  0  0  0  0  0  0  0  0  0  0  0
  -29.5626    6.4967   -9.4674 O   0  0  0  0  0  0  0  0  0  0  0  0
  -33.9145    3.0914   -9.9141 C   0  0  0  0  0  0  0  0  0  0  0  0
  -34.5764    6.9090   -8.0948 O   0  0  0  0  0  0  0  0  0  0  0  0
  -34.5476    5.7811   -7.6028 C   0  0  0  0  0  0  0  0  0  0  0  0
  -32.9387    3.9048   -8.1350 C   0  0  0  0  0  0  0  0  0  0  0  0
  -27.2239    6.1511   -8.4385 O   0  5  0  0  0  0  0  0  0  0  0  0
  -27.3692    5.8657  -10.7141 O   0  0  0  0  0  0  0  0  0  0  0  0
  1 17  1  0  0  0  0
  1 20  1  0  0  0  0
  2 15  1  6  0  0  0
  2  3  1  0  0  0  0
  2 11  1  0  0  0  0
  3  5  1  0  0  0  0
  4 16  1  6  0  0  0
  4 21  1  0  0  0  0
  4 22  2  0  0  0  0
  4 14  1  0  0  0  0
  5  1  1  6  0  0  0
  5  8  1  0  0  0  0
  6 17  2  0  0  0  0
  6 12  1  0  0  0  0
  8  7  1  1  0  0  0
  8 11  1  0  0  0  0
  9 19  1  0  0  0  0
 11 10  1  1  0  0  0
 12 20  2  0  0  0  0
 12 19  1  0  0  0  0
 13 20  1  0  0  0  0
 14 15  1  0  0  0  0
 18 19  2  0  0  0  0
M  CHG  1  21  -1
M  END
>  <CHROM.1>
148.79614315,66.34656424,73.09994537,-173.75248321,113.27344356,-31.15256982
3.93342168,-9.22416573,3.11112416,0.23860795,0.37923387

>  <Name>
ligand

>  <RI>
0

>  <Rbt.Current_Directory>
/home/itssahil/PROJECTS/Mol_Feturizer/Test_systems_manuscript/rnas/4xwf

>  <Rbt.Executable>
rbdock ($Id: //depot/dev/client3/rdock/2013.1/src/exe/rbdock.cxx#4 $)

>  <Rbt.Library>
libRbt.so (2013.1, Build901 2013/11/27)

>  <Rbt.Parameter_File>
/export/apps/rDock/src/rDock_2013.1_src/data/scripts/dock_solv.prm

>  <Rbt.Receptor>
prm/pocket_docking_7.prm

>  <SCORE>
-7.65903

>  <SCORE.INTER>
-8.39154

>  <SCORE.INTER.CONST>
1

>  <SCORE.INTER.POLAR>
0

>  <SCORE.INTER.ROT>
5

>  <SCORE.INTER.SOLV>
9.73685

>  <SCORE.INTER.VDW>
-15.7733

>  <SCORE.INTER.norm>
-0.381434

>  <SCORE.INTRA>
0.73251

>  <SCORE.INTRA.DIHEDRAL>
-1.41383

>  <SCORE.INTRA.DIHEDRAL.0>
3.49807

>  <SCORE.INTRA.POLAR>
0

>  <SCORE.INTRA.POLAR.0>
0

>  <SCORE.INTRA.REPUL>
0

>  <SCORE.INTRA.REPUL.0>
0

>  <SCORE.INTRA.SOLV>
1.08296

>  <SCORE.INTRA.SOLV.lig_0>
-73.062

>  <SCORE.INTRA.VDW>
0.897948

>  <SCORE.INTRA.VDW.0>
-1.83782

>  <SCORE.INTRA.norm>
0.0332959

>  <SCORE.RESTR>
0

>  <SCORE.RESTR.CAVITY>
0

>  <SCORE.RESTR.norm>
0

>  <SCORE.SYSTEM>
0

>  <SCORE.SYSTEM.CONST>
0

>  <SCORE.SYSTEM.DIHEDRAL>
0

>  <SCORE.SYSTEM.SOLV>
0

>  <SCORE.SYSTEM.norm>
0

>  <SCORE.heavy>
22

>  <SCORE.norm>
-0.348138

>  <RMSD>
4.625

$$$$
ligand
 OpenBabel02271912143D
libRbt.so/2013.1/901 2013/11/27
 22 23  0  0  0  0  0  0  0  0999 V2000
  -32.6002    2.9978   -9.3015 N   0  0  0  0  0  0  0  0  0  0  0  0
  -29.4193    2.2130  -10.1491 C   0  0  1  0  0  0  0  0  0  0  0  0
  -30.3442    2.5706   -9.0831 O   0  0  0  0  0  0  0  0  0  0  0  0
  -27.4143    4.2381  -12.6457 P   0  0  1  0  0  0  0  0  0  0  0  0
  -31.6315    2.0214   -9.4081 C   0  0  2  0  0  0  0  0  0  0  0  0
  -34.4836    4.0536   -9.5230 N   0  0  0  0  0  0  0  0  0  0  0  0
  -32.4910    0.6532  -11.1646 O   0  0  0  0  0  0  0  0  0  0  0  0
  -31.5413    1.6767  -10.8447 C   0  0  2  0  0  0  0  0  0  0  0  0
  -35.3399    6.3352   -7.7311 N   0  0  0  0  0  0  0  0  0  0  0  0
  -29.9537   -0.0485  -10.4567 O   0  0  0  0  0  0  0  0  0  0  0  0
  -30.1538    1.2622  -11.0121 C   0  0  2  0  0  0  0  0  0  0  0  0
  -33.6820    4.7874   -8.7360 C   0  0  0  0  0  0  0  0  0  0  0  0
  -31.3871    4.5493   -7.8193 N   0  0  0  0  0  0  0  0  0  0  0  0
  -28.0650    3.1218  -11.7573 O   0  0  0  0  0  0  0  0  0  0  0  0
  -29.0863    3.4683  -10.8793 C   0  0  0  0  0  0  0  0  0  0  0  0
  -26.2408    3.4828  -13.3687 O   0  0  0  0  0  0  0  0  0  0  0  0
  -33.8066    2.9449   -9.8780 C   0  0  0  0  0  0  0  0  0  0  0  0
  -33.1661    6.9604   -7.9946 O   0  0  0  0  0  0  0  0  0  0  0  0
  -34.0242    6.0887   -8.1326 C   0  0  0  0  0  0  0  0  0  0  0  0
  -32.4952    4.1277   -8.5894 C   0  0  0  0  0  0  0  0  0  0  0  0
  -28.4416    4.8114  -13.5643 O   0  5  0  0  0  0  0  0  0  0  0  0
  -27.0588    5.4135  -11.8304 O   0  0  0  0  0  0  0  0  0  0  0  0
  1 17  1  0  0  0  0
  1 20  1  0  0  0  0
  2 15  1  6  0  0  0
  2  3  1  0  0  0  0
  2 11  1  0  0  0  0
  3  5  1  0  0  0  0
  4 16  1  6  0  0  0
  4 21  1  0  0  0  0
  4 22  2  0  0  0  0
  4 14  1  0  0  0  0
  5  1  1  6  0  0  0
  5  8  1  0  0  0  0
  6 17  2  0  0  0  0
  6 12  1  0  0  0  0
  8  7  1  1  0  0  0
  8 11  1  0  0  0  0
  9 19  1  0  0  0  0
 11 10  1  1  0  0  0
 12 20  2  0  0  0  0
 12 19  1  0  0  0  0
 13 20  1  0  0  0  0
 14 15  1  0  0  0  0
 18 19  2  0  0  0  0
M  CHG  1  21  -1
M  END
>  <CHROM.1>
160.13721751,171.76257000,174.68477111,-176.93953294,34.20135867,-30.71919558
3.55936220,-10.38097933,2.90927837,0.54266994,0.13258632

>  <Name>
ligand

>  <RI>
0

>  <Rbt.Current_Directory>
/home/itssahil/PROJECTS/Mol_Feturizer/Test_systems_manuscript/rnas/4xwf

>  <Rbt.Executable>
rbdock ($Id: //depot/dev/client3/rdock/2013.1/src/exe/rbdock.cxx#4 $)

>  <Rbt.Library>
libRbt.so (2013.1, Build901 2013/11/27)

>  <Rbt.Parameter_File>
/export/apps/rDock/src/rDock_2013.1_src/data/scripts/dock_solv.prm

>  <Rbt.Receptor>
prm/pocket_docking_6.prm

>  <SCORE>
-6.78841

>  <SCORE.INTER>
-8.46846

>  <SCORE.INTER.CONST>
1

>  <SCORE.INTER.POLAR>
0

>  <SCORE.INTER.ROT>
5

>  <SCORE.INTER.SOLV>
14.9173

>  <SCORE.INTER.VDW>
-17.5514

>  <SCORE.INTER.norm>
-0.38493

>  <SCORE.INTRA>
1.68004

>  <SCORE.INTRA.DIHEDRAL>
-0.649878

>  <SCORE.INTRA.DIHEDRAL.0>
3.49807

>  <SCORE.INTRA.POLAR>
0

>  <SCORE.INTRA.POLAR.0>
0

>  <SCORE.INTRA.REPUL>
0

>  <SCORE.INTRA.REPUL.0>
0

>  <SCORE.INTRA.SOLV>
1.92981

>  <SCORE.INTRA.SOLV.lig_0>
-73.062

>  <SCORE.INTRA.VDW>
1.04008

>  <SCORE.INTRA.VDW.0>
-1.83782

>  <SCORE.INTRA.norm>
0.0763657

>  <SCORE.RESTR>
0

>  <SCORE.RESTR.CAVITY>
0

>  <SCORE.RESTR.norm>
0

>  <SCORE.SYSTEM>
0

>  <SCORE.SYSTEM.CONST>
0

>  <SCORE.SYSTEM.DIHEDRAL>
0

>  <SCORE.SYSTEM.SOLV>
0

>  <SCORE.SYSTEM.norm>
0

>  <SCORE.heavy>
22

>  <SCORE.norm>
-0.308564

>  <RMSD>
4.741

$$$$
ligand
 OpenBabel02271912143D
libRbt.so/2013.1/901 2013/11/27
 22 23  0  0  0  0  0  0  0  0999 V2000
  -32.7432    2.8929   -9.1949 N   0  0  0  0  0  0  0  0  0  0  0  0
  -29.5199    2.2367   -9.9897 C   0  0  1  0  0  0  0  0  0  0  0  0
  -30.4843    2.5075   -8.9332 O   0  0  0  0  0  0  0  0  0  0  0  0
  -27.4586    4.4687  -12.2529 P   0  0  1  0  0  0  0  0  0  0  0  0
  -31.7470    1.9481   -9.3294 C   0  0  2  0  0  0  0  0  0  0  0  0
  -34.5813    3.9991   -9.5251 N   0  0  0  0  0  0  0  0  0  0  0  0
  -32.5196    0.6675  -11.1892 O   0  0  0  0  0  0  0  0  0  0  0  0
  -31.6062    1.6924  -10.7804 C   0  0  2  0  0  0  0  0  0  0  0  0
  -34.7087    5.5073   -6.3127 N   0  0  0  0  0  0  0  0  0  0  0  0
  -29.9868   -0.0144  -10.4468 O   0  0  0  0  0  0  0  0  0  0  0  0
  -30.2042    1.3220  -10.9296 C   0  0  2  0  0  0  0  0  0  0  0  0
  -33.9542    4.5349   -8.4666 C   0  0  0  0  0  0  0  0  0  0  0  0
  -31.8582    4.0717   -7.2193 N   0  0  0  0  0  0  0  0  0  0  0  0
  -28.1149    3.2817  -11.4663 O   0  0  0  0  0  0  0  0  0  0  0  0
  -29.1981    3.5412  -10.6339 C   0  0  0  0  0  0  0  0  0  0  0  0
  -28.5262    4.8013  -13.3575 O   0  0  0  0  0  0  0  0  0  0  0  0
  -33.8235    2.9828   -9.9794 C   0  0  0  0  0  0  0  0  0  0  0  0
  -34.6040    6.7805   -8.1978 O   0  0  0  0  0  0  0  0  0  0  0  0
  -34.4327    5.6810   -7.6716 C   0  0  0  0  0  0  0  0  0  0  0  0
  -32.7974    3.8417   -8.2507 C   0  0  0  0  0  0  0  0  0  0  0  0
  -27.1664    5.5924  -11.3148 O   0  5  0  0  0  0  0  0  0  0  0  0
  -26.1049    4.1071  -12.7105 O   0  0  0  0  0  0  0  0  0  0  0  0
  1 17  1  0  0  0  0
  1 20  1  0  0  0  0
  2 15  1  6  0  0  0
  2  3  1  0  0  0  0
  2 11  1  0  0  0  0
  3  5  1  0  0  0  0
  4 16  1  6  0  0  0
  4 21  1  0  0  0  0
  4 22  2  0  0  0  0
  4 14  1  0  0  0  0
  5  1  1  6  0  0  0
  5  8  1  0  0  0  0
  6 17  2  0  0  0  0
  6 12  1  0  0  0  0
  8  7  1  1  0  0  0
  8 11  1  0  0  0  0
  9 19  1  0  0  0  0
 11 10  1  1  0  0  0
 12 20  2  0  0  0  0
 12 19  1  0  0  0  0
 13 20  1  0  0  0  0
 14 15  1  0  0  0  0
 18 19  2  0  0  0  0
M  CHG  1  21  -1
M  END
>  <CHROM.1>
147.44357509,169.87046294,-72.30835126,-176.74660478,118.55864175,-30.86600993
3.52658502,-10.11471663,2.95767394,0.53128438,0.18302466

>  <Name>
ligand

>  <RI>
0

>  <Rbt.Current_Directory>
/home/itssahil/PROJECTS/Mol_Feturizer/Test_systems_manuscript/rnas/4xwf

>  <Rbt.Executable>
rbdock ($Id: //depot/dev/client3/rdock/2013.1/src/exe/rbdock.cxx#4 $)

>  <Rbt.Library>
libRbt.so (2013.1, Build901 2013/11/27)

>  <Rbt.Parameter_File>
/export/apps/rDock/src/rDock_2013.1_src/data/scripts/dock_solv.prm

>  <Rbt.Receptor>
prm/pocket_docking_5.prm

>  <SCORE>
-7.78806

>  <SCORE.INTER>
-8.79923

>  <SCORE.INTER.CONST>
1

>  <SCORE.INTER.POLAR>
0

>  <SCORE.INTER.ROT>
5

>  <SCORE.INTER.SOLV>
10.408

>  <SCORE.INTER.VDW>
-16.2688

>  <SCORE.INTER.norm>
-0.399965

>  <SCORE.INTRA>
1.01117

>  <SCORE.INTRA.DIHEDRAL>
-1.34176

>  <SCORE.INTRA.DIHEDRAL.0>
3.49807

>  <SCORE.INTRA.POLAR>
0

>  <SCORE.INTRA.POLAR.0>
0

>  <SCORE.INTRA.REPUL>
0

>  <SCORE.INTRA.REPUL.0>
0

>  <SCORE.INTRA.SOLV>
0.854978

>  <SCORE.INTRA.SOLV.lig_0>
-73.062

>  <SCORE.INTRA.VDW>
1.25456

>  <SCORE.INTRA.VDW.0>
-1.83782

>  <SCORE.INTRA.norm>
0.0459622

>  <SCORE.RESTR>
0

>  <SCORE.RESTR.CAVITY>
0

>  <SCORE.RESTR.norm>
0

>  <SCORE.SYSTEM>
0

>  <SCORE.SYSTEM.CONST>
0

>  <SCORE.SYSTEM.DIHEDRAL>
0

>  <SCORE.SYSTEM.SOLV>
0

>  <SCORE.SYSTEM.norm>
0

>  <SCORE.heavy>
22

>  <SCORE.norm>
-0.354003

>  <RMSD>
4.748

$$$$
ligand
 OpenBabel02271912143D
libRbt.so/2013.1/901 2013/11/27
 22 23  0  0  0  0  0  0  0  0999 V2000
  -32.7088    2.9768   -9.1673 N   0  0  0  0  0  0  0  0  0  0  0  0
  -29.5080    2.2671  -10.0063 C   0  0  1  0  0  0  0  0  0  0  0  0
  -30.4475    2.5834   -8.9399 O   0  0  0  0  0  0  0  0  0  0  0  0
  -27.4529    4.4115  -12.3580 P   0  0  1  0  0  0  0  0  0  0  0  0
  -31.7224    2.0200   -9.2886 C   0  0  2  0  0  0  0  0  0  0  0  0
  -34.5344    4.0983   -9.5143 N   0  0  0  0  0  0  0  0  0  0  0  0
  -32.5439    0.6790  -11.0838 O   0  0  0  0  0  0  0  0  0  0  0  0
  -31.6148    1.7108  -10.7320 C   0  0  2  0  0  0  0  0  0  0  0  0
  -34.4798    5.6956   -6.2911 N   0  0  0  0  0  0  0  0  0  0  0  0
  -30.0005    0.0046  -10.3712 O   0  0  0  0  0  0  0  0  0  0  0  0
  -30.2189    1.3244  -10.8975 C   0  0  2  0  0  0  0  0  0  0  0  0
  -33.9037    4.6400   -8.4610 C   0  0  0  0  0  0  0  0  0  0  0  0
  -31.8152    4.1694   -7.2039 N   0  0  0  0  0  0  0  0  0  0  0  0
  -28.1065    3.2552  -11.5246 O   0  0  0  0  0  0  0  0  0  0  0  0
  -29.1911    3.5449  -10.7041 C   0  0  0  0  0  0  0  0  0  0  0  0
  -26.1359    3.7555  -12.9108 O   0  0  0  0  0  0  0  0  0  0  0  0
  -33.7866    3.0688   -9.9550 C   0  0  0  0  0  0  0  0  0  0  0  0
  -34.6802    6.8506   -8.2434 O   0  0  0  0  0  0  0  0  0  0  0  0
  -34.3716    5.8004   -7.6805 C   0  0  0  0  0  0  0  0  0  0  0  0
  -32.7548    3.9372   -8.2344 C   0  0  0  0  0  0  0  0  0  0  0  0
  -28.4053    4.8721  -13.4109 O   0  5  0  0  0  0  0  0  0  0  0  0
  -27.3079    5.6283  -11.5388 O   0  0  0  0  0  0  0  0  0  0  0  0
  1 17  1  0  0  0  0
  1 20  1  0  0  0  0
  2 15  1  6  0  0  0
  2  3  1  0  0  0  0
  2 11  1  0  0  0  0
  3  5  1  0  0  0  0
  4 16  1  6  0  0  0
  4 21  1  0  0  0  0
  4 22  2  0  0  0  0
  4 14  1  0  0  0  0
  5  1  1  6  0  0  0
  5  8  1  0  0  0  0
  6 17  2  0  0  0  0
  6 12  1  0  0  0  0
  8  7  1  1  0  0  0
  8 11  1  0  0  0  0
  9 19  1  0  0  0  0
 11 10  1  1  0  0  0
 12 20  2  0  0  0  0
 12 19  1  0  0  0  0
 13 20  1  0  0  0  0
 14 15  1  0  0  0  0
 18 19  2  0  0  0  0
M  CHG  1  21  -1
M  END
>  <CHROM.1>
145.49388316,168.42724077,169.56457623,-176.64558094,127.12302730,-30.84852618
3.55638938,-10.13868101,2.94852195,0.55318717,0.14348728

>  <Name>
ligand

>  <RI>
0

>  <Rbt.Current_Directory>
/home/itssahil/PROJECTS/Mol_Feturizer/Test_systems_manuscript/rnas/4xwf

>  <Rbt.Executable>
rbdock ($Id: //depot/dev/client3/rdock/2013.1/src/exe/rbdock.cxx#4 $)

>  <Rbt.Library>
libRbt.so (2013.1, Build901 2013/11/27)

>  <Rbt.Parameter_File>
/export/apps/rDock/src/rDock_2013.1_src/data/scripts/dock_solv.prm

>  <Rbt.Receptor>
prm/pocket_docking_8.prm

>  <SCORE>
-6.10925

>  <SCORE.INTER>
-7.50006

>  <SCORE.INTER.CONST>
1

>  <SCORE.INTER.POLAR>
0

>  <SCORE.INTER.ROT>
5

>  <SCORE.INTER.SOLV>
13.2259

>  <SCORE.INTER.VDW>
-16.342

>  <SCORE.INTER.norm>
-0.340912

>  <SCORE.INTRA>
1.39082

>  <SCORE.INTRA.DIHEDRAL>
-1.24212

>  <SCORE.INTRA.DIHEDRAL.0>
3.49807

>  <SCORE.INTRA.POLAR>
0

>  <SCORE.INTRA.POLAR.0>
0

>  <SCORE.INTRA.REPUL>
0

>  <SCORE.INTRA.REPUL.0>
0

>  <SCORE.INTRA.SOLV>
1.3214

>  <SCORE.INTRA.SOLV.lig_0>
-73.062

>  <SCORE.INTRA.VDW>
1.35118

>  <SCORE.INTRA.VDW.0>
-1.83782

>  <SCORE.INTRA.norm>
0.063219

>  <SCORE.RESTR>
0

>  <SCORE.RESTR.CAVITY>
0

>  <SCORE.RESTR.norm>
0

>  <SCORE.SYSTEM>
0

>  <SCORE.SYSTEM.CONST>
0

>  <SCORE.SYSTEM.DIHEDRAL>
0

>  <SCORE.SYSTEM.SOLV>
0

>  <SCORE.SYSTEM.norm>
0

>  <SCORE.heavy>
22

>  <SCORE.norm>
-0.277693

>  <RMSD>
4.754

$$$$
ligand
 OpenBabel02271912143D
libRbt.so/2013.1/901 2013/11/27
 22 23  0  0  0  0  0  0  0  0999 V2000
  -31.9205    3.7092   -8.8769 N   0  0  0  0  0  0  0  0  0  0  0  0
  -29.2176    2.2126  -10.2580 C   0  0  1  0  0  0  0  0  0  0  0  0
  -29.8171    2.7806   -9.0588 O   0  0  0  0  0  0  0  0  0  0  0  0
  -27.3393    3.6962  -13.1916 P   0  0  1  0  0  0  0  0  0  0  0  0
  -31.2320    2.5367   -9.1105 C   0  0  2  0  0  0  0  0  0  0  0  0
  -32.4388    5.8169   -8.8604 N   0  0  0  0  0  0  0  0  0  0  0  0
  -32.6957    1.3861  -10.6037 O   0  0  0  0  0  0  0  0  0  0  0  0
  -31.4989    2.1686  -10.5191 C   0  0  2  0  0  0  0  0  0  0  0  0
  -34.8778    7.1013   -7.8149 N   0  0  0  0  0  0  0  0  0  0  0  0
  -30.2902    0.1301  -10.3434 O   0  0  0  0  0  0  0  0  0  0  0  0
  -30.2970    1.4472  -10.9193 C   0  0  2  0  0  0  0  0  0  0  0  0
  -33.4454    5.1334   -8.2946 C   0  0  0  0  0  0  0  0  0  0  0  0
  -33.9288    2.7445   -7.8226 N   0  0  0  0  0  0  0  0  0  0  0  0
  -28.0890    2.7714  -12.1711 O   0  0  0  0  0  0  0  0  0  0  0  0
  -28.7609    3.3528  -11.1014 C   0  0  0  0  0  0  0  0  0  0  0  0
  -28.4742    4.6517  -13.7109 O   0  0  0  0  0  0  0  0  0  0  0  0
  -31.4898    4.9300   -9.2158 C   0  0  0  0  0  0  0  0  0  0  0  0
  -35.5412    5.0021   -7.2325 O   0  0  0  0  0  0  0  0  0  0  0  0
  -34.6854    5.7185   -7.7518 C   0  0  0  0  0  0  0  0  0  0  0  0
  -33.1277    3.8051   -8.3041 C   0  0  0  0  0  0  0  0  0  0  0  0
  -26.2103    4.3904  -12.5051 O   0  5  0  0  0  0  0  0  0  0  0  0
  -26.6228    2.8913  -14.1973 O   0  0  0  0  0  0  0  0  0  0  0  0
  1 17  1  0  0  0  0
  1 20  1  0  0  0  0
  2 15  1  6  0  0  0
  2  3  1  0  0  0  0
  2 11  1  0  0  0  0
  3  5  1  0  0  0  0
  4 16  1  6  0  0  0
  4 21  1  0  0  0  0
  4 22  2  0  0  0  0
  4 14  1  0  0  0  0
  5  1  1  6  0  0  0
  5  8  1  0  0  0  0
  6 17  2  0  0  0  0
  6 12  1  0  0  0  0
  8  7  1  1  0  0  0
  8 11  1  0  0  0  0
  9 19  1  0  0  0  0
 11 10  1  1  0  0  0
 12 20  2  0  0  0  0
 12 19  1  0  0  0  0
 13 20  1  0  0  0  0
 14 15  1  0  0  0  0
 18 19  2  0  0  0  0
M  CHG  1  21  -1
M  END
>  <CHROM.1>
31.46843077,174.70971057,-57.32056975,-173.69037825,0.32799195,-30.70127300
3.52752662,-10.33997510,2.99557011,0.64570884,-0.05947293

>  <Name>
ligand

>  <RI>
0

>  <Rbt.Current_Directory>
/home/itssahil/PROJECTS/Mol_Feturizer/Test_systems_manuscript/rnas/4xwf

>  <Rbt.Executable>
rbdock ($Id: //depot/dev/client3/rdock/2013.1/src/exe/rbdock.cxx#4 $)

>  <Rbt.Library>
libRbt.so (2013.1, Build901 2013/11/27)

>  <Rbt.Parameter_File>
/export/apps/rDock/src/rDock_2013.1_src/data/scripts/dock_solv.prm

>  <Rbt.Receptor>
prm/pocket_docking_5.prm

>  <SCORE>
-6.52281

>  <SCORE.INTER>
-5.64526

>  <SCORE.INTER.CONST>
1

>  <SCORE.INTER.POLAR>
0

>  <SCORE.INTER.ROT>
5

>  <SCORE.INTER.SOLV>
13.1902

>  <SCORE.INTER.VDW>
-15.0936

>  <SCORE.INTER.norm>
-0.256603

>  <SCORE.INTRA>
-0.877551

>  <SCORE.INTRA.DIHEDRAL>
-1.73068

>  <SCORE.INTRA.DIHEDRAL.0>
3.49807

>  <SCORE.INTRA.POLAR>
0

>  <SCORE.INTRA.POLAR.0>
0

>  <SCORE.INTRA.REPUL>
0

>  <SCORE.INTRA.REPUL.0>
0

>  <SCORE.INTRA.SOLV>
-0.0123476

>  <SCORE.INTRA.SOLV.lig_0>
-73.062

>  <SCORE.INTRA.VDW>
-0.00603903

>  <SCORE.INTRA.VDW.0>
-1.83782

>  <SCORE.INTRA.norm>
-0.0398887

>  <SCORE.RESTR>
0

>  <SCORE.RESTR.CAVITY>
0

>  <SCORE.RESTR.norm>
0

>  <SCORE.SYSTEM>
0

>  <SCORE.SYSTEM.CONST>
0

>  <SCORE.SYSTEM.DIHEDRAL>
0

>  <SCORE.SYSTEM.SOLV>
0

>  <SCORE.SYSTEM.norm>
0

>  <SCORE.heavy>
22

>  <SCORE.norm>
-0.296491

>  <RMSD>
4.807

$$$$
ligand
 OpenBabel02271912143D
libRbt.so/2013.1/901 2013/11/27
 22 23  0  0  0  0  0  0  0  0999 V2000
  -32.6707    3.0435   -9.2738 N   0  0  0  0  0  0  0  0  0  0  0  0
  -29.4698    2.2890  -10.0719 C   0  0  1  0  0  0  0  0  0  0  0  0
  -30.4134    2.6433   -9.0212 O   0  0  0  0  0  0  0  0  0  0  0  0
  -27.5062    4.3022  -12.6116 P   0  0  1  0  0  0  0  0  0  0  0  0
  -31.6897    2.0774   -9.3602 C   0  0  2  0  0  0  0  0  0  0  0  0
  -34.5520    4.0895   -9.5532 N   0  0  0  0  0  0  0  0  0  0  0  0
  -32.5094    0.6878  -11.1189 O   0  0  0  0  0  0  0  0  0  0  0  0
  -31.5757    1.7241  -10.7930 C   0  0  2  0  0  0  0  0  0  0  0  0
  -33.2475    7.1434   -8.0686 N   0  0  0  0  0  0  0  0  0  0  0  0
  -29.9745    0.0196  -10.3712 O   0  0  0  0  0  0  0  0  0  0  0  0
  -30.1815    1.3241  -10.9384 C   0  0  2  0  0  0  0  0  0  0  0  0
  -33.7918    4.8111   -8.7154 C   0  0  0  0  0  0  0  0  0  0  0  0
  -31.5371    4.5695   -7.7048 N   0  0  0  0  0  0  0  0  0  0  0  0
  -28.1191    3.1968  -11.6836 O   0  0  0  0  0  0  0  0  0  0  0  0
  -29.1407    3.5431  -10.8061 C   0  0  0  0  0  0  0  0  0  0  0  0
  -27.1175    5.4429  -11.6026 O   0  0  0  0  0  0  0  0  0  0  0  0
  -33.8504    2.9946   -9.9035 C   0  0  0  0  0  0  0  0  0  0  0  0
  -35.2861    6.2445   -7.5973 O   0  0  0  0  0  0  0  0  0  0  0  0
  -34.1715    6.0953   -8.0979 C   0  0  0  0  0  0  0  0  0  0  0  0
  -32.6068    4.1573   -8.5321 C   0  0  0  0  0  0  0  0  0  0  0  0
  -26.3580    3.7347  -13.3781 O   0  5  0  0  0  0  0  0  0  0  0  0
  -28.4412    4.6510  -13.6963 O   0  0  0  0  0  0  0  0  0  0  0  0
  1 17  1  0  0  0  0
  1 20  1  0  0  0  0
  2 15  1  6  0  0  0
  2  3  1  0  0  0  0
  2 11  1  0  0  0  0
  3  5  1  0  0  0  0
  4 16  1  1  0  0  0
  4 21  1  0  0  0  0
  4 22  2  0  0  0  0
  4 14  1  0  0  0  0
  5  1  1  6  0  0  0
  5  8  1  0  0  0  0
  6 17  2  0  0  0  0
  6 12  1  0  0  0  0
  8  7  1  1  0  0  0
  8 11  1  0  0  0  0
  9 19  1  0  0  0  0
 11 10  1  1  0  0  0
 12 20  2  0  0  0  0
 12 19  1  0  0  0  0
 13 20  1  0  0  0  0
 14 15  1  0  0  0  0
 18 19  2  0  0  0  0
M  CHG  1  21  -1
M  END
>  <CHROM.1>
157.71393507,172.75344431,52.77880456,-179.04534248,-135.45747781,-30.79469428
3.60409984,-10.33467233,2.91893198,0.54507345,0.12842767

>  <Name>
ligand

>  <RI>
0

>  <Rbt.Current_Directory>
/home/itssahil/PROJECTS/Mol_Feturizer/Test_systems_manuscript/rnas/4xwf

>  <Rbt.Executable>
rbdock ($Id: //depot/dev/client3/rdock/2013.1/src/exe/rbdock.cxx#4 $)

>  <Rbt.Library>
libRbt.so (2013.1, Build901 2013/11/27)

>  <Rbt.Parameter_File>
/export/apps/rDock/src/rDock_2013.1_src/data/scripts/dock_solv.prm

>  <Rbt.Receptor>
prm/pocket_docking_7.prm

>  <SCORE>
-8.00232

>  <SCORE.INTER>
-9.09288

>  <SCORE.INTER.CONST>
1

>  <SCORE.INTER.POLAR>
0

>  <SCORE.INTER.ROT>
5

>  <SCORE.INTER.SOLV>
13.482

>  <SCORE.INTER.VDW>
-17.4892

>  <SCORE.INTER.norm>
-0.413313

>  <SCORE.INTRA>
1.09056

>  <SCORE.INTRA.DIHEDRAL>
-1.48419

>  <SCORE.INTRA.DIHEDRAL.0>
3.49807

>  <SCORE.INTRA.POLAR>
0

>  <SCORE.INTRA.POLAR.0>
0

>  <SCORE.INTRA.REPUL>
0

>  <SCORE.INTRA.REPUL.0>
0

>  <SCORE.INTRA.SOLV>
1.38661

>  <SCORE.INTRA.SOLV.lig_0>
-73.062

>  <SCORE.INTRA.VDW>
1.13935

>  <SCORE.INTRA.VDW.0>
-1.83782

>  <SCORE.INTRA.norm>
0.0495709

>  <SCORE.RESTR>
0

>  <SCORE.RESTR.CAVITY>
0

>  <SCORE.RESTR.norm>
0

>  <SCORE.SYSTEM>
0

>  <SCORE.SYSTEM.CONST>
0

>  <SCORE.SYSTEM.DIHEDRAL>
0

>  <SCORE.SYSTEM.SOLV>
0

>  <SCORE.SYSTEM.norm>
0

>  <SCORE.heavy>
22

>  <SCORE.norm>
-0.363742

>  <RMSD>
4.813

$$$$
ligand
 OpenBabel02271912143D
libRbt.so/2013.1/901 2013/11/27
 22 23  0  0  0  0  0  0  0  0999 V2000
  -32.8184    4.3194   -9.0073 N   0  0  0  0  0  0  0  0  0  0  0  0
  -30.1316    6.2058   -8.1858 C   0  0  1  0  0  0  0  0  0  0  0  0
  -31.2611    6.0189   -9.0853 O   0  0  0  0  0  0  0  0  0  0  0  0
  -27.4545    4.9683  -10.5617 P   0  0  1  0  0  0  0  0  0  0  0  0
  -32.3323    5.4224   -8.3363 C   0  0  2  0  0  0  0  0  0  0  0  0
  -34.1814    2.9743  -10.0289 N   0  0  0  0  0  0  0  0  0  0  0  0
  -32.6603    4.8048   -6.0544 O   0  0  0  0  0  0  0  0  0  0  0  0
  -31.6909    4.9130   -7.1035 C   0  0  2  0  0  0  0  0  0  0  0  0
  -33.5979    0.3710  -11.2837 N   0  0  0  0  0  0  0  0  0  0  0  0
  -31.2085    7.0985   -6.3049 O   0  0  0  0  0  0  0  0  0  0  0  0
  -30.6415    5.8882   -6.8339 C   0  0  2  0  0  0  0  0  0  0  0  0
  -32.9549    2.4308  -10.0596 C   0  0  0  0  0  0  0  0  0  0  0  0
  -30.6998    3.0835   -9.2523 N   0  0  0  0  0  0  0  0  0  0  0  0
  -28.6601    5.6867   -9.8624 O   0  0  0  0  0  0  0  0  0  0  0  0
  -29.0717    5.2478   -8.6088 C   0  0  0  0  0  0  0  0  0  0  0  0
  -27.3442    5.7129  -11.9416 O   0  0  0  0  0  0  0  0  0  0  0  0
  -34.0948    4.1450   -9.3690 C   0  0  0  0  0  0  0  0  0  0  0  0
  -31.4403    0.7293  -10.6496 O   0  0  0  0  0  0  0  0  0  0  0  0
  -32.6004    1.1396  -10.6774 C   0  0  0  0  0  0  0  0  0  0  0  0
  -32.0905    3.2735   -9.4209 C   0  0  0  0  0  0  0  0  0  0  0  0
  -26.2392    5.0738   -9.7015 O   0  5  0  0  0  0  0  0  0  0  0  0
  -27.6648    3.5098  -10.5973 O   0  0  0  0  0  0  0  0  0  0  0  0
  1 17  1  0  0  0  0
  1 20  1  0  0  0  0
  2 15  1  6  0  0  0
  2  3  1  0  0  0  0
  2 11  1  0  0  0  0
  3  5  1  0  0  0  0
  4 16  1  6  0  0  0
  4 21  1  0  0  0  0
  4 22  2  0  0  0  0
  4 14  1  0  0  0  0
  5  1  1  6  0  0  0
  5  8  1  0  0  0  0
  6 17  2  0  0  0  0
  6 12  1  0  0  0  0
  8  7  1  1  0  0  0
  8 11  1  0  0  0  0
  9 19  1  0  0  0  0
 11 10  1  6  0  0  0
 12 20  2  0  0  0  0
 12 19  1  0  0  0  0
 13 20  1  0  0  0  0
 14 15  1  0  0  0  0
 18 19  2  0  0  0  0
M  CHG  1  21  -1
M  END
>  <CHROM.1>
-123.83043867,66.72589072,178.15507309,174.94919652,-0.76058131,-30.64861948
4.31476857,-9.29865974,2.88236767,-0.37450568,-2.39683179

>  <Name>
ligand

>  <RI>
0

>  <Rbt.Current_Directory>
/home/itssahil/PROJECTS/Mol_Feturizer/Test_systems_manuscript/rnas/4xwf

>  <Rbt.Executable>
rbdock ($Id: //depot/dev/client3/rdock/2013.1/src/exe/rbdock.cxx#4 $)

>  <Rbt.Library>
libRbt.so (2013.1, Build901 2013/11/27)

>  <Rbt.Parameter_File>
/export/apps/rDock/src/rDock_2013.1_src/data/scripts/dock_solv.prm

>  <Rbt.Receptor>
prm/pocket_docking_5.prm

>  <SCORE>
-3.71875

>  <SCORE.INTER>
-6.51565

>  <SCORE.INTER.CONST>
1

>  <SCORE.INTER.POLAR>
0

>  <SCORE.INTER.ROT>
5

>  <SCORE.INTER.SOLV>
11.0327

>  <SCORE.INTER.VDW>
-14.9547

>  <SCORE.INTER.norm>
-0.296166

>  <SCORE.INTRA>
2.7969

>  <SCORE.INTRA.DIHEDRAL>
-1.65752

>  <SCORE.INTRA.DIHEDRAL.0>
3.49807

>  <SCORE.INTRA.POLAR>
0

>  <SCORE.INTRA.POLAR.0>
0

>  <SCORE.INTRA.REPUL>
0

>  <SCORE.INTRA.REPUL.0>
0

>  <SCORE.INTRA.SOLV>
7.15336

>  <SCORE.INTRA.SOLV.lig_0>
-73.062

>  <SCORE.INTRA.VDW>
0.0489794

>  <SCORE.INTRA.VDW.0>
-1.83782

>  <SCORE.INTRA.norm>
0.127132

>  <SCORE.RESTR>
0

>  <SCORE.RESTR.CAVITY>
0

>  <SCORE.RESTR.norm>
0

>  <SCORE.SYSTEM>
0

>  <SCORE.SYSTEM.CONST>
0

>  <SCORE.SYSTEM.DIHEDRAL>
0

>  <SCORE.SYSTEM.SOLV>
0

>  <SCORE.SYSTEM.norm>
0

>  <SCORE.heavy>
22

>  <SCORE.norm>
-0.169034

>  <RMSD>
4.899

$$$$
ligand
 OpenBabel02271912143D
libRbt.so/2013.1/901 2013/11/27
 22 23  0  0  0  0  0  0  0  0999 V2000
  -30.8401    3.0364   -9.7414 N   0  0  0  0  0  0  0  0  0  0  0  0
  -28.4629    1.7129  -11.7539 C   0  0  1  0  0  0  0  0  0  0  0  0
  -28.7689    2.3318  -10.4720 O   0  0  0  0  0  0  0  0  0  0  0  0
  -28.1498    3.0212  -15.2953 P   0  0  1  0  0  0  0  0  0  0  0  0
  -30.0938    1.9292  -10.0888 C   0  0  2  0  0  0  0  0  0  0  0  0
  -31.4276    5.1043   -9.4424 N   0  0  0  0  0  0  0  0  0  0  0  0
  -31.7508    0.4764  -11.0052 O   0  0  0  0  0  0  0  0  0  0  0  0
  -30.6967    1.3907  -11.3287 C   0  0  2  0  0  0  0  0  0  0  0  0
  -33.8926    6.1019   -8.1301 N   0  0  0  0  0  0  0  0  0  0  0  0
  -29.2231   -0.4729  -11.3812 O   0  0  0  0  0  0  0  0  0  0  0  0
  -29.5714    0.7690  -12.0159 C   0  0  2  0  0  0  0  0  0  0  0  0
  -32.4600    4.3209   -9.0944 C   0  0  0  0  0  0  0  0  0  0  0  0
  -32.9059    1.8789   -9.0572 N   0  0  0  0  0  0  0  0  0  0  0  0
  -28.1718    2.1685  -13.9796 O   0  0  0  0  0  0  0  0  0  0  0  0
  -28.4229    2.8035  -12.7683 C   0  0  0  0  0  0  0  0  0  0  0  0
  -29.6393    3.5033  -15.4355 O   0  0  0  0  0  0  0  0  0  0  0  0
  -30.4202    4.3032   -9.8383 C   0  0  0  0  0  0  0  0  0  0  0  0
  -34.7332    4.0297   -8.5604 O   0  0  0  0  0  0  0  0  0  0  0  0
  -33.7647    4.7888   -8.5910 C   0  0  0  0  0  0  0  0  0  0  0  0
  -32.0987    3.0173   -9.2829 C   0  0  0  0  0  0  0  0  0  0  0  0
  -27.1514    4.1229  -15.1633 O   0  5  0  0  0  0  0  0  0  0  0  0
  -27.5847    2.2434  -16.4126 O   0  0  0  0  0  0  0  0  0  0  0  0
  1 17  1  0  0  0  0
  1 20  1  0  0  0  0
  2 15  1  6  0  0  0
  2  3  1  0  0  0  0
  2 11  1  0  0  0  0
  3  5  1  0  0  0  0
  4 16  1  6  0  0  0
  4 21  1  0  0  0  0
  4 22  2  0  0  0  0
  4 14  1  0  0  0  0
  5  1  1  6  0  0  0
  5  8  1  0  0  0  0
  6 17  2  0  0  0  0
  6 12  1  0  0  0  0
  8  7  1  1  0  0  0
  8 11  1  0  0  0  0
  9 19  1  0  0  0  0
 11 10  1  1  0  0  0
 12 20  2  0  0  0  0
 12 19  1  0  0  0  0
 13 20  1  0  0  0  0
 14 15  1  0  0  0  0
 18 19  2  0  0  0  0
M  CHG  1  21  -1
M  END
>  <CHROM.1>
4.34386498,-178.14300687,-66.14720434,176.34712254,-15.92325207,-30.27237038
2.81344493,-11.63983105,-2.97175175,0.88460326,-0.43817143

>  <Name>
ligand

>  <RI>
0

>  <Rbt.Current_Directory>
/home/itssahil/PROJECTS/Mol_Feturizer/Test_systems_manuscript/rnas/4xwf

>  <Rbt.Executable>
rbdock ($Id: //depot/dev/client3/rdock/2013.1/src/exe/rbdock.cxx#4 $)

>  <Rbt.Library>
libRbt.so (2013.1, Build901 2013/11/27)

>  <Rbt.Parameter_File>
/export/apps/rDock/src/rDock_2013.1_src/data/scripts/dock_solv.prm

>  <Rbt.Receptor>
prm/pocket_docking_4.prm

>  <SCORE>
-7.07033

>  <SCORE.INTER>
-7.35976

>  <SCORE.INTER.CONST>
1

>  <SCORE.INTER.POLAR>
0

>  <SCORE.INTER.ROT>
5

>  <SCORE.INTER.SOLV>
14.0752

>  <SCORE.INTER.VDW>
-16.5316

>  <SCORE.INTER.norm>
-0.334534

>  <SCORE.INTRA>
0.287517

>  <SCORE.INTRA.DIHEDRAL>
-1.56103

>  <SCORE.INTRA.DIHEDRAL.0>
3.49807

>  <SCORE.INTRA.POLAR>
0

>  <SCORE.INTRA.POLAR.0>
0

>  <SCORE.INTRA.REPUL>
0

>  <SCORE.INTRA.REPUL.0>
0

>  <SCORE.INTRA.SOLV>
1.10058

>  <SCORE.INTRA.SOLV.lig_0>
-73.062

>  <SCORE.INTRA.VDW>
0.517741

>  <SCORE.INTRA.VDW.0>
-1.83782

>  <SCORE.INTRA.norm>
0.013069

>  <SCORE.RESTR>
0.00190713

>  <SCORE.RESTR.CAVITY>
0.00190713

>  <SCORE.RESTR.norm>
8.66877e-05

>  <SCORE.SYSTEM>
0

>  <SCORE.SYSTEM.CONST>
0

>  <SCORE.SYSTEM.DIHEDRAL>
0

>  <SCORE.SYSTEM.SOLV>
0

>  <SCORE.SYSTEM.norm>
0

>  <SCORE.heavy>
22

>  <SCORE.norm>
-0.321379

>  <RMSD>
4.972

$$$$
ligand
 OpenBabel02271912143D
libRbt.so/2013.1/901 2013/11/27
 22 23  0  0  0  0  0  0  0  0999 V2000
  -30.8611    3.0015   -9.7573 N   0  0  0  0  0  0  0  0  0  0  0  0
  -28.5015    1.6724  -11.7867 C   0  0  1  0  0  0  0  0  0  0  0  0
  -28.7992    2.2802  -10.4976 O   0  0  0  0  0  0  0  0  0  0  0  0
  -28.1381    3.0216  -15.3084 P   0  0  1  0  0  0  0  0  0  0  0  0
  -30.1286    1.8894  -10.1179 C   0  0  2  0  0  0  0  0  0  0  0  0
  -31.4356    5.0735   -9.4612 N   0  0  0  0  0  0  0  0  0  0  0  0
  -31.8037    0.4674  -11.0496 O   0  0  0  0  0  0  0  0  0  0  0  0
  -30.7388    1.3725  -11.3634 C   0  0  2  0  0  0  0  0  0  0  0  0
  -33.8629    6.0994   -8.1089 N   0  0  0  0  0  0  0  0  0  0  0  0
  -29.2880   -0.5081  -11.4385 O   0  0  0  0  0  0  0  0  0  0  0  0
  -29.6216    0.7451  -12.0586 C   0  0  2  0  0  0  0  0  0  0  0  0
  -32.4562    4.2956   -9.0690 C   0  0  0  0  0  0  0  0  0  0  0  0
  -32.9034    1.8549   -8.9892 N   0  0  0  0  0  0  0  0  0  0  0  0
  -28.1968    2.1508  -14.0058 O   0  0  0  0  0  0  0  0  0  0  0  0
  -28.4490    2.7740  -12.7886 C   0  0  0  0  0  0  0  0  0  0  0  0
  -29.6139    3.5410  -15.4598 O   0  0  0  0  0  0  0  0  0  0  0  0
  -30.4434    4.2665   -9.8827 C   0  0  0  0  0  0  0  0  0  0  0  0
  -34.7008    4.0056   -8.4245 O   0  0  0  0  0  0  0  0  0  0  0  0
  -33.7422    4.7711   -8.5261 C   0  0  0  0  0  0  0  0  0  0  0  0
  -32.1031    2.9895   -9.2554 C   0  0  0  0  0  0  0  0  0  0  0  0
  -27.1158    4.0972  -15.1481 O   0  5  0  0  0  0  0  0  0  0  0  0
  -27.5776    2.2467  -16.4300 O   0  0  0  0  0  0  0  0  0  0  0  0
  1 17  1  0  0  0  0
  1 20  1  0  0  0  0
  2 15  1  6  0  0  0
  2  3  1  0  0  0  0
  2 11  1  0  0  0  0
  3  5  1  0  0  0  0
  4 16  1  6  0  0  0
  4 21  1  0  0  0  0
  4 22  2  0  0  0  0
  4 14  1  0  0  0  0
  5  1  1  6  0  0  0
  5  8  1  0  0  0  0
  6 17  2  0  0  0  0
  6 12  1  0  0  0  0
  8  7  1  1  0  0  0
  8 11  1  0  0  0  0
  9 19  1  0  0  0  0
 11 10  1  1  0  0  0
 12 20  2  0  0  0  0
 12 19  1  0  0  0  0
 13 20  1  0  0  0  0
 14 15  1  0  0  0  0
 18 19  2  0  0  0  0
M  CHG  1  21  -1
M  END
>  <CHROM.1>
6.75612601,-178.55937824,-66.10083845,177.38430544,-14.21767164,-30.28237832
2.79360273,-11.64459814,-2.99849898,0.89271299,-0.39659965

>  <Name>
ligand

>  <RI>
0

>  <Rbt.Current_Directory>
/home/itssahil/PROJECTS/Mol_Feturizer/Test_systems_manuscript/rnas/4xwf

>  <Rbt.Executable>
rbdock ($Id: //depot/dev/client3/rdock/2013.1/src/exe/rbdock.cxx#4 $)

>  <Rbt.Library>
libRbt.so (2013.1, Build901 2013/11/27)

>  <Rbt.Parameter_File>
/export/apps/rDock/src/rDock_2013.1_src/data/scripts/dock_solv.prm

>  <Rbt.Receptor>
prm/pocket_docking_4.prm

>  <SCORE>
-7.06458

>  <SCORE.INTER>
-7.14344

>  <SCORE.INTER.CONST>
1

>  <SCORE.INTER.POLAR>
0

>  <SCORE.INTER.ROT>
5

>  <SCORE.INTER.SOLV>
13.877

>  <SCORE.INTER.VDW>
-16.3213

>  <SCORE.INTER.norm>
-0.324702

>  <SCORE.INTRA>
0.0788512

>  <SCORE.INTRA.DIHEDRAL>
-1.65577

>  <SCORE.INTRA.DIHEDRAL.0>
3.49807

>  <SCORE.INTRA.POLAR>
0

>  <SCORE.INTRA.POLAR.0>
0

>  <SCORE.INTRA.REPUL>
0

>  <SCORE.INTRA.REPUL.0>
0

>  <SCORE.INTRA.SOLV>
1.01159

>  <SCORE.INTRA.SOLV.lig_0>
-73.062

>  <SCORE.INTRA.VDW>
0.400944

>  <SCORE.INTRA.VDW.0>
-1.83782

>  <SCORE.INTRA.norm>
0.00358415

>  <SCORE.RESTR>
0

>  <SCORE.RESTR.CAVITY>
0

>  <SCORE.RESTR.norm>
0

>  <SCORE.SYSTEM>
0

>  <SCORE.SYSTEM.CONST>
0

>  <SCORE.SYSTEM.DIHEDRAL>
0

>  <SCORE.SYSTEM.SOLV>
0

>  <SCORE.SYSTEM.norm>
0

>  <SCORE.heavy>
22

>  <SCORE.norm>
-0.321117

>  <RMSD>
4.988

$$$$
ligand
 OpenBabel02271912143D
libRbt.so/2013.1/901 2013/11/27
 22 23  0  0  0  0  0  0  0  0999 V2000
  -30.8562    3.0185   -9.7541 N   0  0  0  0  0  0  0  0  0  0  0  0
  -28.4877    1.6844  -11.7697 C   0  0  1  0  0  0  0  0  0  0  0  0
  -28.7901    2.3000  -10.4855 O   0  0  0  0  0  0  0  0  0  0  0  0
  -28.1702    3.0043  -15.3061 P   0  0  1  0  0  0  0  0  0  0  0  0
  -30.1188    1.9068  -10.1055 C   0  0  2  0  0  0  0  0  0  0  0  0
  -31.4347    5.0902   -9.4638 N   0  0  0  0  0  0  0  0  0  0  0  0
  -31.7866    0.4718  -11.0303 O   0  0  0  0  0  0  0  0  0  0  0  0
  -30.7246    1.3788  -11.3485 C   0  0  2  0  0  0  0  0  0  0  0  0
  -33.8651    6.0981   -8.0911 N   0  0  0  0  0  0  0  0  0  0  0  0
  -29.2664   -0.4967  -11.4077 O   0  0  0  0  0  0  0  0  0  0  0  0
  -29.6036    0.7509  -12.0372 C   0  0  2  0  0  0  0  0  0  0  0  0
  -32.4608    4.3119   -9.0869 C   0  0  0  0  0  0  0  0  0  0  0  0
  -32.9092    1.8712   -9.0162 N   0  0  0  0  0  0  0  0  0  0  0  0
  -28.1911    2.1474  -13.9932 O   0  0  0  0  0  0  0  0  0  0  0  0
  -28.4375    2.7792  -12.7792 C   0  0  0  0  0  0  0  0  0  0  0  0
  -29.6620    3.4784  -15.4493 O   0  0  0  0  0  0  0  0  0  0  0  0
  -30.4367    4.2836   -9.8722 C   0  0  0  0  0  0  0  0  0  0  0  0
  -34.7282    4.0352   -8.5214 O   0  0  0  0  0  0  0  0  0  0  0  0
  -33.7543    4.7869   -8.5617 C   0  0  0  0  0  0  0  0  0  0  0  0
  -32.1052    3.0060   -9.2697 C   0  0  0  0  0  0  0  0  0  0  0  0
  -27.1786    4.1113  -15.1678 O   0  5  0  0  0  0  0  0  0  0  0  0
  -27.5974    2.2333  -16.4242 O   0  0  0  0  0  0  0  0  0  0  0  0
  1 17  1  0  0  0  0
  1 20  1  0  0  0  0
  2 15  1  6  0  0  0
  2  3  1  0  0  0  0
  2 11  1  0  0  0  0
  3  5  1  0  0  0  0
  4 16  1  6  0  0  0
  4 21  1  0  0  0  0
  4 22  2  0  0  0  0
  4 14  1  0  0  0  0
  5  1  1  6  0  0  0
  5  8  1  0  0  0  0
  6 17  2  0  0  0  0
  6 12  1  0  0  0  0
  8  7  1  1  0  0  0
  8 11  1  0  0  0  0
  9 19  1  0  0  0  0
 11 10  1  1  0  0  0
 12 20  2  0  0  0  0
 12 19  1  0  0  0  0
 13 20  1  0  0  0  0
 14 15  1  0  0  0  0
 18 19  2  0  0  0  0
M  CHG  1  21  -1
M  END
>  <CHROM.1>
5.88325679,-178.10157136,-66.72142883,175.94727069,-16.96591631,-30.28832441
2.79830670,-11.64507656,-2.98404232,0.89114983,-0.42224492

>  <Name>
ligand

>  <RI>
0

>  <Rbt.Current_Directory>
/home/itssahil/PROJECTS/Mol_Feturizer/Test_systems_manuscript/rnas/4xwf

>  <Rbt.Executable>
rbdock ($Id: //depot/dev/client3/rdock/2013.1/src/exe/rbdock.cxx#4 $)

>  <Rbt.Library>
libRbt.so (2013.1, Build901 2013/11/27)

>  <Rbt.Parameter_File>
/export/apps/rDock/src/rDock_2013.1_src/data/scripts/dock_solv.prm

>  <Rbt.Receptor>
prm/pocket_docking_4.prm

>  <SCORE>
-7.05646

>  <SCORE.INTER>
-7.26075

>  <SCORE.INTER.CONST>
1

>  <SCORE.INTER.POLAR>
0

>  <SCORE.INTER.ROT>
5

>  <SCORE.INTER.SOLV>
14.1132

>  <SCORE.INTER.VDW>
-16.4782

>  <SCORE.INTER.norm>
-0.330034

>  <SCORE.INTRA>
0.204295

>  <SCORE.INTRA.DIHEDRAL>
-1.5013

>  <SCORE.INTRA.DIHEDRAL.0>
3.49807

>  <SCORE.INTRA.POLAR>
0

>  <SCORE.INTRA.POLAR.0>
0

>  <SCORE.INTRA.REPUL>
0

>  <SCORE.INTRA.REPUL.0>
0

>  <SCORE.INTRA.SOLV>
1.03947

>  <SCORE.INTRA.SOLV.lig_0>
-73.062

>  <SCORE.INTRA.VDW>
0.435209

>  <SCORE.INTRA.VDW.0>
-1.83782

>  <SCORE.INTRA.norm>
0.00928614

>  <SCORE.RESTR>
0

>  <SCORE.RESTR.CAVITY>
0

>  <SCORE.RESTR.norm>
0

>  <SCORE.SYSTEM>
0

>  <SCORE.SYSTEM.CONST>
0

>  <SCORE.SYSTEM.DIHEDRAL>
0

>  <SCORE.SYSTEM.SOLV>
0

>  <SCORE.SYSTEM.norm>
0

>  <SCORE.heavy>
22

>  <SCORE.norm>
-0.320748

>  <RMSD>
4.992

$$$$
ligand
 OpenBabel02271912143D
libRbt.so/2013.1/901 2013/11/27
 22 23  0  0  0  0  0  0  0  0999 V2000
  -30.8462    3.0046   -9.7858 N   0  0  0  0  0  0  0  0  0  0  0  0
  -28.4987    1.6497  -11.8121 C   0  0  1  0  0  0  0  0  0  0  0  0
  -28.7894    2.2706  -10.5277 O   0  0  0  0  0  0  0  0  0  0  0  0
  -28.0654    2.9713  -15.3365 P   0  0  1  0  0  0  0  0  0  0  0  0
  -30.1182    1.8871  -10.1387 C   0  0  2  0  0  0  0  0  0  0  0  0
  -31.4020    5.0805   -9.4812 N   0  0  0  0  0  0  0  0  0  0  0  0
  -31.8010    0.4608  -11.0496 O   0  0  0  0  0  0  0  0  0  0  0  0
  -30.7350    1.3599  -11.3766 C   0  0  2  0  0  0  0  0  0  0  0  0
  -33.8364    6.1022   -8.1235 N   0  0  0  0  0  0  0  0  0  0  0  0
  -29.2896   -0.5253  -11.4396 O   0  0  0  0  0  0  0  0  0  0  0  0
  -29.6224    0.7228  -12.0703 C   0  0  2  0  0  0  0  0  0  0  0  0
  -32.4435    4.3118   -9.1278 C   0  0  0  0  0  0  0  0  0  0  0  0
  -32.9245    1.8765   -9.0902 N   0  0  0  0  0  0  0  0  0  0  0  0
  -28.1438    2.1122  -14.0271 O   0  0  0  0  0  0  0  0  0  0  0  0
  -28.4474    2.7414  -12.8247 C   0  0  0  0  0  0  0  0  0  0  0  0
  -29.5267    3.5303  -15.4871 O   0  0  0  0  0  0  0  0  0  0  0  0
  -30.4086    4.2653   -9.8840 C   0  0  0  0  0  0  0  0  0  0  0  0
  -34.7244    4.0616   -8.6062 O   0  0  0  0  0  0  0  0  0  0  0  0
  -33.7382    4.7981   -8.6161 C   0  0  0  0  0  0  0  0  0  0  0  0
  -32.1022    3.0033   -9.3197 C   0  0  0  0  0  0  0  0  0  0  0  0
  -27.0130    4.0192  -15.1876 O   0  5  0  0  0  0  0  0  0  0  0  0
  -27.5303    2.1727  -16.4539 O   0  0  0  0  0  0  0  0  0  0  0  0
  1 17  1  0  0  0  0
  1 20  1  0  0  0  0
  2 15  1  6  0  0  0
  2  3  1  0  0  0  0
  2 11  1  0  0  0  0
  3  5  1  0  0  0  0
  4 16  1  6  0  0  0
  4 21  1  0  0  0  0
  4 22  2  0  0  0  0
  4 14  1  0  0  0  0
  5  1  1  6  0  0  0
  5  8  1  0  0  0  0
  6 17  2  0  0  0  0
  6 12  1  0  0  0  0
  8  7  1  1  0  0  0
  8 11  1  0  0  0  0
  9 19  1  0  0  0  0
 11 10  1  1  0  0  0
 12 20  2  0  0  0  0
 12 19  1  0  0  0  0
 13 20  1  0  0  0  0
 14 15  1  0  0  0  0
 18 19  2  0  0  0  0
M  CHG  1  21  -1
M  END
>  <CHROM.1>
4.42810098,178.90163898,-62.59223674,177.64956004,-17.44215803,-30.25712202
2.77992463,-11.68218806,-3.01714462,0.88707642,-0.38561684

>  <Name>
ligand

>  <RI>
0

>  <Rbt.Current_Directory>
/home/itssahil/PROJECTS/Mol_Feturizer/Test_systems_manuscript/rnas/4xwf

>  <Rbt.Executable>
rbdock ($Id: //depot/dev/client3/rdock/2013.1/src/exe/rbdock.cxx#4 $)

>  <Rbt.Library>
libRbt.so (2013.1, Build901 2013/11/27)

>  <Rbt.Parameter_File>
/export/apps/rDock/src/rDock_2013.1_src/data/scripts/dock_solv.prm

>  <Rbt.Receptor>
prm/pocket_docking_4.prm

>  <SCORE>
-7.0665

>  <SCORE.INTER>
-7.24882

>  <SCORE.INTER.CONST>
1

>  <SCORE.INTER.POLAR>
0

>  <SCORE.INTER.ROT>
5

>  <SCORE.INTER.SOLV>
14.2989

>  <SCORE.INTER.VDW>
-16.5322

>  <SCORE.INTER.norm>
-0.329492

>  <SCORE.INTRA>
0.180122

>  <SCORE.INTRA.DIHEDRAL>
-1.62649

>  <SCORE.INTRA.DIHEDRAL.0>
3.49807

>  <SCORE.INTRA.POLAR>
0

>  <SCORE.INTRA.POLAR.0>
0

>  <SCORE.INTRA.REPUL>
0

>  <SCORE.INTRA.REPUL.0>
0

>  <SCORE.INTRA.SOLV>
1.05308

>  <SCORE.INTRA.SOLV.lig_0>
-73.062

>  <SCORE.INTRA.VDW>
0.466829

>  <SCORE.INTRA.VDW.0>
-1.83782

>  <SCORE.INTRA.norm>
0.00818738

>  <SCORE.RESTR>
0.00219799

>  <SCORE.RESTR.CAVITY>
0.00219799

>  <SCORE.RESTR.norm>
9.99085e-05

>  <SCORE.SYSTEM>
0

>  <SCORE.SYSTEM.CONST>
0

>  <SCORE.SYSTEM.DIHEDRAL>
0

>  <SCORE.SYSTEM.SOLV>
0

>  <SCORE.SYSTEM.norm>
0

>  <SCORE.heavy>
22

>  <SCORE.norm>
-0.321204

>  <RMSD>
4.993

$$$$
ligand
 OpenBabel02271912143D
libRbt.so/2013.1/901 2013/11/27
 22 23  0  0  0  0  0  0  0  0999 V2000
  -30.8819    3.0927   -9.6648 N   0  0  0  0  0  0  0  0  0  0  0  0
  -28.5222    1.6885  -11.6430 C   0  0  1  0  0  0  0  0  0  0  0  0
  -28.8222    2.3332  -10.3724 O   0  0  0  0  0  0  0  0  0  0  0  0
  -28.0942    2.9426  -15.1926 P   0  0  1  0  0  0  0  0  0  0  0  0
  -30.1575    1.9648   -9.9909 C   0  0  2  0  0  0  0  0  0  0  0  0
  -31.4376    5.1770   -9.4245 N   0  0  0  0  0  0  0  0  0  0  0  0
  -31.8398    0.5336  -10.8951 O   0  0  0  0  0  0  0  0  0  0  0  0
  -30.7647    1.4203  -11.2261 C   0  0  2  0  0  0  0  0  0  0  0  0
  -33.8830    6.2719   -8.1722 N   0  0  0  0  0  0  0  0  0  0  0  0
  -29.3309   -0.4747  -11.2417 O   0  0  0  0  0  0  0  0  0  0  0  0
  -29.6491    0.7645  -11.8971 C   0  0  2  0  0  0  0  0  0  0  0  0
  -32.4703    4.4193   -9.0245 C   0  0  0  0  0  0  0  0  0  0  0  0
  -32.9438    1.9859   -8.8908 N   0  0  0  0  0  0  0  0  0  0  0  0
  -28.1834    2.1062  -13.8694 O   0  0  0  0  0  0  0  0  0  0  0  0
  -28.4534    2.7625  -12.6735 C   0  0  0  0  0  0  0  0  0  0  0  0
  -29.5552    3.4953  -15.3672 O   0  0  0  0  0  0  0  0  0  0  0  0
  -30.4496    4.3499   -9.8162 C   0  0  0  0  0  0  0  0  0  0  0  0
  -34.7106    4.1581   -8.3535 O   0  0  0  0  0  0  0  0  0  0  0  0
  -33.7567    4.9209   -8.5065 C   0  0  0  0  0  0  0  0  0  0  0  0
  -32.1290    3.1055   -9.1757 C   0  0  0  0  0  0  0  0  0  0  0  0
  -27.0457    3.9956  -15.0516 O   0  5  0  0  0  0  0  0  0  0  0  0
  -27.5463    2.1261  -16.2907 O   0  0  0  0  0  0  0  0  0  0  0  0
  1 17  1  0  0  0  0
  1 20  1  0  0  0  0
  2 15  1  6  0  0  0
  2  3  1  0  0  0  0
  2 11  1  0  0  0  0
  3  5  1  0  0  0  0
  4 16  1  6  0  0  0
  4 21  1  0  0  0  0
  4 22  2  0  0  0  0
  4 14  1  0  0  0  0
  5  1  1  6  0  0  0
  5  8  1  0  0  0  0
  6 17  2  0  0  0  0
  6 12  1  0  0  0  0
  8  7  1  1  0  0  0
  8 11  1  0  0  0  0
  9 19  1  0  0  0  0
 11 10  1  1  0  0  0
 12 20  2  0  0  0  0
 12 19  1  0  0  0  0
 13 20  1  0  0  0  0
 14 15  1  0  0  0  0
 18 19  2  0  0  0  0
M  CHG  1  21  -1
M  END
>  <CHROM.1>
6.46994460,-179.25621638,-64.86243626,177.81272041,-11.71194996,-30.28526288
2.83004373,-11.54240311,-3.02079078,0.88738026,-0.40315114

>  <Name>
ligand

>  <RI>
0

>  <Rbt.Current_Directory>
/home/itssahil/PROJECTS/Mol_Feturizer/Test_systems_manuscript/rnas/4xwf

>  <Rbt.Executable>
rbdock ($Id: //depot/dev/client3/rdock/2013.1/src/exe/rbdock.cxx#4 $)

>  <Rbt.Library>
libRbt.so (2013.1, Build901 2013/11/27)

>  <Rbt.Parameter_File>
/export/apps/rDock/src/rDock_2013.1_src/data/scripts/dock_solv.prm

>  <Rbt.Receptor>
prm/pocket_docking_8.prm

>  <SCORE>
-7.48056

>  <SCORE.INTER>
-7.51821

>  <SCORE.INTER.CONST>
1

>  <SCORE.INTER.POLAR>
0

>  <SCORE.INTER.ROT>
5

>  <SCORE.INTER.SOLV>
13.707

>  <SCORE.INTER.VDW>
-16.5145

>  <SCORE.INTER.norm>
-0.341737

>  <SCORE.INTRA>
0.037655

>  <SCORE.INTRA.DIHEDRAL>
-1.76406

>  <SCORE.INTRA.DIHEDRAL.0>
3.49807

>  <SCORE.INTRA.POLAR>
0

>  <SCORE.INTRA.POLAR.0>
0

>  <SCORE.INTRA.REPUL>
0

>  <SCORE.INTRA.REPUL.0>
0

>  <SCORE.INTRA.SOLV>
1.01796

>  <SCORE.INTRA.SOLV.lig_0>
-73.062

>  <SCORE.INTRA.VDW>
0.410705

>  <SCORE.INTRA.VDW.0>
-1.83782

>  <SCORE.INTRA.norm>
0.00171159

>  <SCORE.RESTR>
0

>  <SCORE.RESTR.CAVITY>
0

>  <SCORE.RESTR.norm>
0

>  <SCORE.SYSTEM>
0

>  <SCORE.SYSTEM.CONST>
0

>  <SCORE.SYSTEM.DIHEDRAL>
0

>  <SCORE.SYSTEM.SOLV>
0

>  <SCORE.SYSTEM.norm>
0

>  <SCORE.heavy>
22

>  <SCORE.norm>
-0.340025

>  <RMSD>
4.997

$$$$
ligand
 OpenBabel02271912143D
libRbt.so/2013.1/901 2013/11/27
 22 23  0  0  0  0  0  0  0  0999 V2000
  -30.9160    3.0846   -9.6555 N   0  0  0  0  0  0  0  0  0  0  0  0
  -28.5526    1.6656  -11.6184 C   0  0  1  0  0  0  0  0  0  0  0  0
  -28.8586    2.3037  -10.3459 O   0  0  0  0  0  0  0  0  0  0  0  0
  -28.0677    2.9445  -15.1522 P   0  0  1  0  0  0  0  0  0  0  0  0
  -30.2029    1.9499   -9.9828 C   0  0  2  0  0  0  0  0  0  0  0  0
  -31.4587    5.1740   -9.4292 N   0  0  0  0  0  0  0  0  0  0  0  0
  -31.8936    0.5489  -10.9181 O   0  0  0  0  0  0  0  0  0  0  0  0
  -30.8031    1.4239  -11.2294 C   0  0  2  0  0  0  0  0  0  0  0  0
  -33.8708    6.2926   -8.1329 N   0  0  0  0  0  0  0  0  0  0  0  0
  -29.3944   -0.4899  -11.2446 O   0  0  0  0  0  0  0  0  0  0  0  0
  -29.6886    0.7588  -11.8931 C   0  0  2  0  0  0  0  0  0  0  0  0
  -32.4855    4.4254   -8.9982 C   0  0  0  0  0  0  0  0  0  0  0  0
  -32.9653    1.9957   -8.8245 N   0  0  0  0  0  0  0  0  0  0  0  0
  -28.2095    2.0951  -13.8418 O   0  0  0  0  0  0  0  0  0  0  0  0
  -28.4577    2.7470  -12.6389 C   0  0  0  0  0  0  0  0  0  0  0  0
  -29.5027    3.5578  -15.3395 O   0  0  0  0  0  0  0  0  0  0  0  0
  -30.4823    4.3382   -9.8314 C   0  0  0  0  0  0  0  0  0  0  0  0
  -34.7141    4.1826   -8.2826 O   0  0  0  0  0  0  0  0  0  0  0  0
  -33.7588    4.9385   -8.4595 C   0  0  0  0  0  0  0  0  0  0  0  0
  -32.1525    3.1085   -9.1404 C   0  0  0  0  0  0  0  0  0  0  0  0
  -26.9801    3.9525  -14.9823 O   0  5  0  0  0  0  0  0  0  0  0  0
  -27.5372    2.1211  -16.2537 O   0  0  0  0  0  0  0  0  0  0  0  0
  1 17  1  0  0  0  0
  1 20  1  0  0  0  0
  2 15  1  6  0  0  0
  2  3  1  0  0  0  0
  2 11  1  0  0  0  0
  3  5  1  0  0  0  0
  4 16  1  6  0  0  0
  4 21  1  0  0  0  0
  4 22  2  0  0  0  0
  4 14  1  0  0  0  0
  5  1  1  6  0  0  0
  5  8  1  0  0  0  0
  6 17  2  0  0  0  0
  6 12  1  0  0  0  0
  8  7  1  1  0  0  0
  8 11  1  0  0  0  0
  9 19  1  0  0  0  0
 11 10  1  1  0  0  0
 12 20  2  0  0  0  0
 12 19  1  0  0  0  0
 13 20  1  0  0  0  0
 14 15  1  0  0  0  0
 18 19  2  0  0  0  0
M  CHG  1  21  -1
M  END
>  <CHROM.1>
8.74355736,-178.09202699,-65.45773443,179.24891735,-12.03886460,-30.29718359
2.82927875,-11.51635936,-3.04815681,0.88668492,-0.36988194

>  <Name>
ligand

>  <RI>
0

>  <Rbt.Current_Directory>
/home/itssahil/PROJECTS/Mol_Feturizer/Test_systems_manuscript/rnas/4xwf

>  <Rbt.Executable>
rbdock ($Id: //depot/dev/client3/rdock/2013.1/src/exe/rbdock.cxx#4 $)

>  <Rbt.Library>
libRbt.so (2013.1, Build901 2013/11/27)

>  <Rbt.Parameter_File>
/export/apps/rDock/src/rDock_2013.1_src/data/scripts/dock_solv.prm

>  <Rbt.Receptor>
prm/pocket_docking_8.prm

>  <SCORE>
-7.45425

>  <SCORE.INTER>
-7.39301

>  <SCORE.INTER.CONST>
1

>  <SCORE.INTER.POLAR>
0

>  <SCORE.INTER.ROT>
5

>  <SCORE.INTER.SOLV>
13.5593

>  <SCORE.INTER.VDW>
-16.3818

>  <SCORE.INTER.norm>
-0.336046

>  <SCORE.INTRA>
-0.0612365

>  <SCORE.INTRA.DIHEDRAL>
-1.75677

>  <SCORE.INTRA.DIHEDRAL.0>
3.49807

>  <SCORE.INTRA.POLAR>
0

>  <SCORE.INTRA.POLAR.0>
0

>  <SCORE.INTRA.REPUL>
0

>  <SCORE.INTRA.REPUL.0>
0

>  <SCORE.INTRA.SOLV>
0.942435

>  <SCORE.INTRA.SOLV.lig_0>
-73.062

>  <SCORE.INTRA.VDW>
0.345929

>  <SCORE.INTRA.VDW.0>
-1.83782

>  <SCORE.INTRA.norm>
-0.00278348

>  <SCORE.RESTR>
0

>  <SCORE.RESTR.CAVITY>
0

>  <SCORE.RESTR.norm>
0

>  <SCORE.SYSTEM>
0

>  <SCORE.SYSTEM.CONST>
0

>  <SCORE.SYSTEM.DIHEDRAL>
0

>  <SCORE.SYSTEM.SOLV>
0

>  <SCORE.SYSTEM.norm>
0

>  <SCORE.heavy>
22

>  <SCORE.norm>
-0.33883

>  <RMSD>
4.998

$$$$
ligand
 OpenBabel02271912143D
libRbt.so/2013.1/901 2013/11/27
 22 23  0  0  0  0  0  0  0  0999 V2000
  -30.4751    3.0570   -9.8059 N   0  0  0  0  0  0  0  0  0  0  0  0
  -28.3029    1.5978  -11.9517 C   0  0  1  0  0  0  0  0  0  0  0  0
  -28.4985    2.2206  -10.6503 O   0  0  0  0  0  0  0  0  0  0  0  0
  -28.0321    2.9261  -15.4894 P   0  0  1  0  0  0  0  0  0  0  0  0
  -29.8265    1.9055  -10.2014 C   0  0  2  0  0  0  0  0  0  0  0  0
  -30.9197    5.1583   -9.4930 N   0  0  0  0  0  0  0  0  0  0  0  0
  -31.6253    0.5813  -11.0419 O   0  0  0  0  0  0  0  0  0  0  0  0
  -30.5286    1.4248  -11.4125 C   0  0  2  0  0  0  0  0  0  0  0  0
  -34.4261    4.5836   -8.8928 N   0  0  0  0  0  0  0  0  0  0  0  0
  -29.1924   -0.5349  -11.5583 O   0  0  0  0  0  0  0  0  0  0  0  0
  -29.4862    0.7356  -12.1631 C   0  0  2  0  0  0  0  0  0  0  0  0
  -31.9535    4.4381   -9.0312 C   0  0  0  0  0  0  0  0  0  0  0  0
  -32.5231    2.0251   -8.9021 N   0  0  0  0  0  0  0  0  0  0  0  0
  -28.0663    2.0606  -14.1824 O   0  0  0  0  0  0  0  0  0  0  0  0
  -28.2400    2.6954  -12.9574 C   0  0  0  0  0  0  0  0  0  0  0  0
  -29.4843    3.5230  -15.5628 O   0  0  0  0  0  0  0  0  0  0  0  0
  -29.9998    4.2972   -9.9683 C   0  0  0  0  0  0  0  0  0  0  0  0
  -33.1029    5.7986   -7.4933 O   0  0  0  0  0  0  0  0  0  0  0  0
  -33.1760    4.9845   -8.4136 C   0  0  0  0  0  0  0  0  0  0  0  0
  -31.6822    3.1140   -9.2275 C   0  0  0  0  0  0  0  0  0  0  0  0
  -26.9470    3.9460  -15.3883 O   0  5  0  0  0  0  0  0  0  0  0  0
  -27.5748    2.1217  -16.6368 O   0  0  0  0  0  0  0  0  0  0  0  0
  1 17  1  0  0  0  0
  1 20  1  0  0  0  0
  2 15  1  6  0  0  0
  2  3  1  0  0  0  0
  2 11  1  0  0  0  0
  3  5  1  0  0  0  0
  4 16  1  6  0  0  0
  4 21  1  0  0  0  0
  4 22  2  0  0  0  0
  4 14  1  0  0  0  0
  5  1  1  6  0  0  0
  5  8  1  0  0  0  0
  6 17  2  0  0  0  0
  6 12  1  0  0  0  0
  8  7  1  1  0  0  0
  8 11  1  0  0  0  0
  9 19  1  0  0  0  0
 11 10  1  1  0  0  0
 12 20  2  0  0  0  0
 12 19  1  0  0  0  0
 13 20  1  0  0  0  0
 14 15  1  0  0  0  0
 18 19  2  0  0  0  0
M  CHG  1  21  -1
M  END
>  <CHROM.1>
7.49692291,-179.44534806,-65.10230695,176.88408888,128.28316590,-30.00226969
2.81779051,-11.71735317,-3.03563566,0.96260032,-0.37600949

>  <Name>
ligand

>  <RI>
0

>  <Rbt.Current_Directory>
/home/itssahil/PROJECTS/Mol_Feturizer/Test_systems_manuscript/rnas/4xwf

>  <Rbt.Executable>
rbdock ($Id: //depot/dev/client3/rdock/2013.1/src/exe/rbdock.cxx#4 $)

>  <Rbt.Library>
libRbt.so (2013.1, Build901 2013/11/27)

>  <Rbt.Parameter_File>
/export/apps/rDock/src/rDock_2013.1_src/data/scripts/dock_solv.prm

>  <Rbt.Receptor>
prm/pocket_docking_5.prm

>  <SCORE>
-6.81094

>  <SCORE.INTER>
-6.69026

>  <SCORE.INTER.CONST>
1

>  <SCORE.INTER.POLAR>
0

>  <SCORE.INTER.ROT>
5

>  <SCORE.INTER.SOLV>
12.0283

>  <SCORE.INTER.VDW>
-15.4029

>  <SCORE.INTER.norm>
-0.304103

>  <SCORE.INTRA>
-0.120682

>  <SCORE.INTRA.DIHEDRAL>
-1.79229

>  <SCORE.INTRA.DIHEDRAL.0>
3.49807

>  <SCORE.INTRA.POLAR>
0

>  <SCORE.INTRA.POLAR.0>
0

>  <SCORE.INTRA.REPUL>
0

>  <SCORE.INTRA.REPUL.0>
0

>  <SCORE.INTRA.SOLV>
1.11021

>  <SCORE.INTRA.SOLV.lig_0>
-73.062

>  <SCORE.INTRA.VDW>
0.220356

>  <SCORE.INTRA.VDW.0>
-1.83782

>  <SCORE.INTRA.norm>
-0.00548556

>  <SCORE.RESTR>
0

>  <SCORE.RESTR.CAVITY>
0

>  <SCORE.RESTR.norm>
0

>  <SCORE.SYSTEM>
0

>  <SCORE.SYSTEM.CONST>
0

>  <SCORE.SYSTEM.DIHEDRAL>
0

>  <SCORE.SYSTEM.SOLV>
0

>  <SCORE.SYSTEM.norm>
0

>  <SCORE.heavy>
22

>  <SCORE.norm>
-0.309588

>  <RMSD>
5.017

$$$$
ligand
 OpenBabel02271912143D
libRbt.so/2013.1/901 2013/11/27
 22 23  0  0  0  0  0  0  0  0999 V2000
  -30.4826    3.0624   -9.7980 N   0  0  0  0  0  0  0  0  0  0  0  0
  -28.3303    1.5984  -11.9605 C   0  0  1  0  0  0  0  0  0  0  0  0
  -28.5142    2.2223  -10.6579 O   0  0  0  0  0  0  0  0  0  0  0  0
  -28.0085    2.9257  -15.4941 P   0  0  1  0  0  0  0  0  0  0  0  0
  -29.8390    1.9096  -10.1980 C   0  0  2  0  0  0  0  0  0  0  0  0
  -30.9177    5.1644   -9.4764 N   0  0  0  0  0  0  0  0  0  0  0  0
  -31.6467    0.5877  -11.0229 O   0  0  0  0  0  0  0  0  0  0  0  0
  -30.5517    1.4293  -11.4030 C   0  0  2  0  0  0  0  0  0  0  0  0
  -34.4271    4.6035   -8.8811 N   0  0  0  0  0  0  0  0  0  0  0  0
  -29.2199   -0.5327  -11.5584 O   0  0  0  0  0  0  0  0  0  0  0  0
  -29.5166    0.7379  -12.1616 C   0  0  2  0  0  0  0  0  0  0  0  0
  -31.9551    4.4470   -9.0184 C   0  0  0  0  0  0  0  0  0  0  0  0
  -32.5360    2.0362   -8.9000 N   0  0  0  0  0  0  0  0  0  0  0  0
  -28.0435    2.0637  -14.1847 O   0  0  0  0  0  0  0  0  0  0  0  0
  -28.2739    2.6952  -12.9674 C   0  0  0  0  0  0  0  0  0  0  0  0
  -29.4717    3.4915  -15.5906 O   0  0  0  0  0  0  0  0  0  0  0  0
  -30.0014    4.3011   -9.9547 C   0  0  0  0  0  0  0  0  0  0  0  0
  -33.0992    5.8061   -7.4753 O   0  0  0  0  0  0  0  0  0  0  0  0
  -33.1755    4.9964   -8.3993 C   0  0  0  0  0  0  0  0  0  0  0  0
  -31.6898    3.1225   -9.2202 C   0  0  0  0  0  0  0  0  0  0  0  0
  -26.9467    3.9687  -15.3806 O   0  5  0  0  0  0  0  0  0  0  0  0
  -27.5175    2.1276  -16.6319 O   0  0  0  0  0  0  0  0  0  0  0  0
  1 17  1  0  0  0  0
  1 20  1  0  0  0  0
  2 15  1  6  0  0  0
  2  3  1  0  0  0  0
  2 11  1  0  0  0  0
  3  5  1  0  0  0  0
  4 16  1  6  0  0  0
  4 21  1  0  0  0  0
  4 22  2  0  0  0  0
  4 14  1  0  0  0  0
  5  1  1  6  0  0  0
  5  8  1  0  0  0  0
  6 17  2  0  0  0  0
  6 12  1  0  0  0  0
  8  7  1  1  0  0  0
  8 11  1  0  0  0  0
  9 19  1  0  0  0  0
 11 10  1  1  0  0  0
 12 20  2  0  0  0  0
 12 19  1  0  0  0  0
 13 20  1  0  0  0  0
 14 15  1  0  0  0  0
 18 19  2  0  0  0  0
M  CHG  1  21  -1
M  END
>  <CHROM.1>
6.88934021,177.63162792,-63.88590458,176.49289960,128.27416646,-30.00483838
2.82210267,-11.71402786,-3.05345639,0.96338005,-0.35382215

>  <Name>
ligand

>  <RI>
0

>  <Rbt.Current_Directory>
/home/itssahil/PROJECTS/Mol_Feturizer/Test_systems_manuscript/rnas/4xwf

>  <Rbt.Executable>
rbdock ($Id: //depot/dev/client3/rdock/2013.1/src/exe/rbdock.cxx#4 $)

>  <Rbt.Library>
libRbt.so (2013.1, Build901 2013/11/27)

>  <Rbt.Parameter_File>
/export/apps/rDock/src/rDock_2013.1_src/data/scripts/dock_solv.prm

>  <Rbt.Receptor>
prm/pocket_docking_4.prm

>  <SCORE>
-6.81166

>  <SCORE.INTER>
-6.66953

>  <SCORE.INTER.CONST>
1

>  <SCORE.INTER.POLAR>
0

>  <SCORE.INTER.ROT>
5

>  <SCORE.INTER.SOLV>
11.9317

>  <SCORE.INTER.VDW>
-15.3569

>  <SCORE.INTER.norm>
-0.303161

>  <SCORE.INTRA>
-0.142131

>  <SCORE.INTRA.DIHEDRAL>
-1.78661

>  <SCORE.INTRA.DIHEDRAL.0>
3.49807

>  <SCORE.INTRA.POLAR>
0

>  <SCORE.INTRA.POLAR.0>
0

>  <SCORE.INTRA.REPUL>
0

>  <SCORE.INTRA.REPUL.0>
0

>  <SCORE.INTRA.SOLV>
1.11201

>  <SCORE.INTRA.SOLV.lig_0>
-73.062

>  <SCORE.INTRA.VDW>
0.19517

>  <SCORE.INTRA.VDW.0>
-1.83782

>  <SCORE.INTRA.norm>
-0.00646049

>  <SCORE.RESTR>
0

>  <SCORE.RESTR.CAVITY>
0

>  <SCORE.RESTR.norm>
0

>  <SCORE.SYSTEM>
0

>  <SCORE.SYSTEM.CONST>
0

>  <SCORE.SYSTEM.DIHEDRAL>
0

>  <SCORE.SYSTEM.SOLV>
0

>  <SCORE.SYSTEM.norm>
0

>  <SCORE.heavy>
22

>  <SCORE.norm>
-0.309621

>  <RMSD>
5.023

$$$$
ligand
 OpenBabel02271912143D
libRbt.so/2013.1/901 2013/11/27
 22 23  0  0  0  0  0  0  0  0999 V2000
  -30.6484    1.8592  -10.7669 N   0  0  0  0  0  0  0  0  0  0  0  0
  -28.2134    1.7522  -13.1146 C   0  0  1  0  0  0  0  0  0  0  0  0
  -29.0311    2.5838  -12.2431 O   0  0  0  0  0  0  0  0  0  0  0  0
  -28.5138    3.4647  -15.6142 P   0  0  1  0  0  0  0  0  0  0  0  0
  -29.2965    1.8423  -11.0414 C   0  0  2  0  0  0  0  0  0  0  0  0
  -32.7592    1.3557  -10.8147 N   0  0  0  0  0  0  0  0  0  0  0  0
  -28.6396   -0.2883  -10.1898 O   0  0  0  0  0  0  0  0  0  0  0  0
  -28.9561    0.4423  -11.3805 C   0  0  2  0  0  0  0  0  0  0  0  0
  -34.3448    4.0140   -9.5365 N   0  0  0  0  0  0  0  0  0  0  0  0
  -26.6388    0.9269  -11.5868 O   0  0  0  0  0  0  0  0  0  0  0  0
  -27.8348    0.5751  -12.3026 C   0  0  2  0  0  0  0  0  0  0  0  0
  -32.5768    2.3097   -9.8888 C   0  0  0  0  0  0  0  0  0  0  0  0
  -30.6354    3.5734   -8.9957 N   0  0  0  0  0  0  0  0  0  0  0  0
  -29.5171    2.5637  -14.8140 O   0  0  0  0  0  0  0  0  0  0  0  0
  -29.0643    1.3646  -14.2747 C   0  0  0  0  0  0  0  0  0  0  0  0
  -27.6581    4.1415  -14.4827 O   0  0  0  0  0  0  0  0  0  0  0  0
  -31.5600    1.0821  -11.3631 C   0  0  0  0  0  0  0  0  0  0  0  0
  -33.8790    2.4637   -7.9348 O   0  0  0  0  0  0  0  0  0  0  0  0
  -33.6325    2.9126   -9.0541 C   0  0  0  0  0  0  0  0  0  0  0  0
  -31.2497    2.6298   -9.8507 C   0  0  0  0  0  0  0  0  0  0  0  0
  -27.7297    2.6220  -16.5643 O   0  5  0  0  0  0  0  0  0  0  0  0
  -29.2361    4.3572  -16.5386 O   0  0  0  0  0  0  0  0  0  0  0  0
  1 17  1  0  0  0  0
  1 20  1  0  0  0  0
  2 15  1  6  0  0  0
  2  3  1  0  0  0  0
  2 11  1  0  0  0  0
  3  5  1  0  0  0  0
  4 16  1  1  0  0  0
  4 21  1  0  0  0  0
  4 22  2  0  0  0  0
  4 14  1  0  0  0  0
  5  1  1  6  0  0  0
  5  8  1  0  0  0  0
  6 17  2  0  0  0  0
  6 12  1  0  0  0  0
  8  7  1  1  0  0  0
  8 11  1  0  0  0  0
  9 19  1  0  0  0  0
 11 10  1  1  0  0  0
 12 20  2  0  0  0  0
 12 19  1  0  0  0  0
 13 20  1  0  0  0  0
 14 15  1  0  0  0  0
 18 19  2  0  0  0  0
M  CHG  1  21  -1
M  END
>  <CHROM.1>
79.38427787,55.61379562,-76.69534354,73.08538466,-87.22082068,-29.90805168
2.29393614,-12.21495994,-2.33222508,0.51733023,-1.05072950

>  <Name>
ligand

>  <RI>
0

>  <Rbt.Current_Directory>
/home/itssahil/PROJECTS/Mol_Feturizer/Test_systems_manuscript/rnas/4xwf

>  <Rbt.Executable>
rbdock ($Id: //depot/dev/client3/rdock/2013.1/src/exe/rbdock.cxx#4 $)

>  <Rbt.Library>
libRbt.so (2013.1, Build901 2013/11/27)

>  <Rbt.Parameter_File>
/export/apps/rDock/src/rDock_2013.1_src/data/scripts/dock_solv.prm

>  <Rbt.Receptor>
prm/pocket_docking_6.prm

>  <SCORE>
-7.65348

>  <SCORE.INTER>
-9.15712

>  <SCORE.INTER.CONST>
1

>  <SCORE.INTER.POLAR>
0

>  <SCORE.INTER.ROT>
5

>  <SCORE.INTER.SOLV>
13.8251

>  <SCORE.INTER.VDW>
-17.6464

>  <SCORE.INTER.norm>
-0.416233

>  <SCORE.INTRA>
1.50364

>  <SCORE.INTRA.DIHEDRAL>
0.379851

>  <SCORE.INTRA.DIHEDRAL.0>
3.49807

>  <SCORE.INTRA.POLAR>
0

>  <SCORE.INTRA.POLAR.0>
0

>  <SCORE.INTRA.REPUL>
0

>  <SCORE.INTRA.REPUL.0>
0

>  <SCORE.INTRA.SOLV>
0.070506

>  <SCORE.INTRA.SOLV.lig_0>
-73.062

>  <SCORE.INTRA.VDW>
1.27846

>  <SCORE.INTRA.VDW.0>
-1.83782

>  <SCORE.INTRA.norm>
0.0683472

>  <SCORE.RESTR>
0

>  <SCORE.RESTR.CAVITY>
0

>  <SCORE.RESTR.norm>
0

>  <SCORE.SYSTEM>
0

>  <SCORE.SYSTEM.CONST>
0

>  <SCORE.SYSTEM.DIHEDRAL>
0

>  <SCORE.SYSTEM.SOLV>
0

>  <SCORE.SYSTEM.norm>
0

>  <SCORE.heavy>
22

>  <SCORE.norm>
-0.347886

>  <RMSD>
5.037

$$$$
ligand
 OpenBabel02271912143D
libRbt.so/2013.1/901 2013/11/27
 22 23  0  0  0  0  0  0  0  0999 V2000
  -30.4445    3.0550   -9.8158 N   0  0  0  0  0  0  0  0  0  0  0  0
  -28.2857    1.5956  -11.9752 C   0  0  1  0  0  0  0  0  0  0  0  0
  -28.4709    2.2282  -10.6769 O   0  0  0  0  0  0  0  0  0  0  0  0
  -28.0466    2.8983  -15.5254 P   0  0  1  0  0  0  0  0  0  0  0  0
  -29.7906    1.9056  -10.2091 C   0  0  2  0  0  0  0  0  0  0  0  0
  -30.8967    5.1547   -9.5037 N   0  0  0  0  0  0  0  0  0  0  0  0
  -31.5879    0.5585  -11.0161 O   0  0  0  0  0  0  0  0  0  0  0  0
  -30.5031    1.4082  -11.4074 C   0  0  2  0  0  0  0  0  0  0  0  0
  -34.4015    4.6368   -8.9743 N   0  0  0  0  0  0  0  0  0  0  0  0
  -29.1517   -0.5411  -11.5523 O   0  0  0  0  0  0  0  0  0  0  0  0
  -29.4639    0.7214  -12.1646 C   0  0  2  0  0  0  0  0  0  0  0  0
  -31.9303    4.4311   -9.0469 C   0  0  0  0  0  0  0  0  0  0  0  0
  -32.4933    2.0164   -8.9217 N   0  0  0  0  0  0  0  0  0  0  0  0
  -28.1039    2.0394  -14.2148 O   0  0  0  0  0  0  0  0  0  0  0  0
  -28.2446    2.6848  -12.9911 C   0  0  0  0  0  0  0  0  0  0  0  0
  -26.7143    3.7159  -15.3609 O   0  0  0  0  0  0  0  0  0  0  0  0
  -29.9722    4.2967   -9.9754 C   0  0  0  0  0  0  0  0  0  0  0  0
  -33.0922    5.7290   -7.4648 O   0  0  0  0  0  0  0  0  0  0  0  0
  -33.1572    4.9735   -8.4344 C   0  0  0  0  0  0  0  0  0  0  0  0
  -31.6542    3.1080   -9.2428 C   0  0  0  0  0  0  0  0  0  0  0  0
  -28.0793    1.9996  -16.7168 O   0  5  0  0  0  0  0  0  0  0  0  0
  -29.2921    3.6667  -15.7014 O   0  0  0  0  0  0  0  0  0  0  0  0
  1 17  1  0  0  0  0
  1 20  1  0  0  0  0
  2 15  1  6  0  0  0
  2  3  1  0  0  0  0
  2 11  1  0  0  0  0
  3  5  1  0  0  0  0
  4 16  1  6  0  0  0
  4 21  1  0  0  0  0
  4 22  2  0  0  0  0
  4 14  1  0  0  0  0
  5  1  1  6  0  0  0
  5  8  1  0  0  0  0
  6 17  2  0  0  0  0
  6 12  1  0  0  0  0
  8  7  1  1  0  0  0
  8 11  1  0  0  0  0
  9 19  1  0  0  0  0
 11 10  1  1  0  0  0
 12 20  2  0  0  0  0
 12 19  1  0  0  0  0
 13 20  1  0  0  0  0
 14 15  1  0  0  0  0
 18 19  2  0  0  0  0
M  CHG  1  21  -1
M  END
>  <CHROM.1>
6.35872450,-178.42895520,65.09505624,179.12151938,124.17641895,-29.99173061
2.79860931,-11.73982556,-3.00689752,0.97037072,-0.41328431

>  <Name>
ligand

>  <RI>
0

>  <Rbt.Current_Directory>
/home/itssahil/PROJECTS/Mol_Feturizer/Test_systems_manuscript/rnas/4xwf

>  <Rbt.Executable>
rbdock ($Id: //depot/dev/client3/rdock/2013.1/src/exe/rbdock.cxx#4 $)

>  <Rbt.Library>
libRbt.so (2013.1, Build901 2013/11/27)

>  <Rbt.Parameter_File>
/export/apps/rDock/src/rDock_2013.1_src/data/scripts/dock_solv.prm

>  <Rbt.Receptor>
prm/pocket_docking_5.prm

>  <SCORE>
-5.54744

>  <SCORE.INTER>
-5.42435

>  <SCORE.INTER.CONST>
1

>  <SCORE.INTER.POLAR>
0

>  <SCORE.INTER.ROT>
5

>  <SCORE.INTER.SOLV>
15.2267

>  <SCORE.INTER.VDW>
-15.6251

>  <SCORE.INTER.norm>
-0.246561

>  <SCORE.INTRA>
-0.123094

>  <SCORE.INTRA.DIHEDRAL>
-1.92638

>  <SCORE.INTRA.DIHEDRAL.0>
3.49807

>  <SCORE.INTRA.POLAR>
0

>  <SCORE.INTRA.POLAR.0>
0

>  <SCORE.INTRA.REPUL>
0

>  <SCORE.INTRA.REPUL.0>
0

>  <SCORE.INTRA.SOLV>
1.14833

>  <SCORE.INTRA.SOLV.lig_0>
-73.062

>  <SCORE.INTRA.VDW>
0.265933

>  <SCORE.INTRA.VDW.0>
-1.83782

>  <SCORE.INTRA.norm>
-0.00559516

>  <SCORE.RESTR>
0

>  <SCORE.RESTR.CAVITY>
0

>  <SCORE.RESTR.norm>
0

>  <SCORE.SYSTEM>
0

>  <SCORE.SYSTEM.CONST>
0

>  <SCORE.SYSTEM.DIHEDRAL>
0

>  <SCORE.SYSTEM.SOLV>
0

>  <SCORE.SYSTEM.norm>
0

>  <SCORE.heavy>
22

>  <SCORE.norm>
-0.252157

>  <RMSD>
5.043

$$$$
ligand
 OpenBabel02271912143D
libRbt.so/2013.1/901 2013/11/27
 22 23  0  0  0  0  0  0  0  0999 V2000
  -32.0762    4.1155   -8.7272 N   0  0  0  0  0  0  0  0  0  0  0  0
  -29.4874    2.3819  -10.0481 C   0  0  1  0  0  0  0  0  0  0  0  0
  -30.0469    3.0287   -8.8698 O   0  0  0  0  0  0  0  0  0  0  0  0
  -27.5681    3.6281  -13.0640 P   0  0  1  0  0  0  0  0  0  0  0  0
  -31.4759    2.8888   -8.9218 C   0  0  2  0  0  0  0  0  0  0  0  0
  -32.4180    6.2589   -8.7412 N   0  0  0  0  0  0  0  0  0  0  0  0
  -33.0160    1.8048  -10.3876 O   0  0  0  0  0  0  0  0  0  0  0  0
  -31.7649    2.4988  -10.3201 C   0  0  2  0  0  0  0  0  0  0  0  0
  -34.8060    7.7445   -7.8563 N   0  0  0  0  0  0  0  0  0  0  0  0
  -30.7111    0.3828  -10.0767 O   0  0  0  0  0  0  0  0  0  0  0  0
  -30.6185    1.6787  -10.6919 C   0  0  2  0  0  0  0  0  0  0  0  0
  -33.5070    5.6643   -8.2301 C   0  0  0  0  0  0  0  0  0  0  0  0
  -34.2117    3.3263   -7.7824 N   0  0  0  0  0  0  0  0  0  0  0  0
  -28.3800    2.7994  -12.0091 O   0  0  0  0  0  0  0  0  0  0  0  0
  -28.9447    3.4590  -10.9229 C   0  0  0  0  0  0  0  0  0  0  0  0
  -27.2732    2.5779  -14.1956 O   0  0  0  0  0  0  0  0  0  0  0  0
  -31.5281    5.2945   -9.0436 C   0  0  0  0  0  0  0  0  0  0  0  0
  -35.6510    5.7152   -7.2616 O   0  0  0  0  0  0  0  0  0  0  0  0
  -34.7217    6.3531   -7.7561 C   0  0  0  0  0  0  0  0  0  0  0  0
  -33.3005    4.3143   -8.2209 C   0  0  0  0  0  0  0  0  0  0  0  0
  -28.3728    4.8053  -13.5052 O   0  5  0  0  0  0  0  0  0  0  0  0
  -26.4083    4.2834  -12.4331 O   0  0  0  0  0  0  0  0  0  0  0  0
  1 17  1  0  0  0  0
  1 20  1  0  0  0  0
  2 15  1  6  0  0  0
  2  3  1  0  0  0  0
  2 11  1  0  0  0  0
  3  5  1  0  0  0  0
  4 16  1  6  0  0  0
  4 21  1  0  0  0  0
  4 22  2  0  0  0  0
  4 14  1  0  0  0  0
  5  1  1  6  0  0  0
  5  8  1  0  0  0  0
  6 17  2  0  0  0  0
  6 12  1  0  0  0  0
  8  7  1  1  0  0  0
  8 11  1  0  0  0  0
  9 19  1  0  0  0  0
 11 10  1  1  0  0  0
 12 20  2  0  0  0  0
 12 19  1  0  0  0  0
 13 20  1  0  0  0  0
 14 15  1  0  0  0  0
 18 19  2  0  0  0  0
M  CHG  1  21  -1
M  END
>  <CHROM.1>
28.17864894,177.95198917,-172.82661745,-173.29462346,1.62329507,-30.90318983
3.79887974,-10.21212355,2.90259592,0.65166169,-0.03904229

>  <Name>
ligand

>  <RI>
0

>  <Rbt.Current_Directory>
/home/itssahil/PROJECTS/Mol_Feturizer/Test_systems_manuscript/rnas/4xwf

>  <Rbt.Executable>
rbdock ($Id: //depot/dev/client3/rdock/2013.1/src/exe/rbdock.cxx#4 $)

>  <Rbt.Library>
libRbt.so (2013.1, Build901 2013/11/27)

>  <Rbt.Parameter_File>
/export/apps/rDock/src/rDock_2013.1_src/data/scripts/dock_solv.prm

>  <Rbt.Receptor>
prm/pocket_docking_8.prm

>  <SCORE>
-5.37873

>  <SCORE.INTER>
-4.89635

>  <SCORE.INTER.CONST>
1

>  <SCORE.INTER.POLAR>
0

>  <SCORE.INTER.ROT>
5

>  <SCORE.INTER.SOLV>
17.0531

>  <SCORE.INTER.VDW>
-15.8819

>  <SCORE.INTER.norm>
-0.222561

>  <SCORE.INTRA>
-0.482384

>  <SCORE.INTRA.DIHEDRAL>
-1.72684

>  <SCORE.INTRA.DIHEDRAL.0>
3.49807

>  <SCORE.INTRA.POLAR>
0

>  <SCORE.INTRA.POLAR.0>
0

>  <SCORE.INTRA.REPUL>
0

>  <SCORE.INTRA.REPUL.0>
0

>  <SCORE.INTRA.SOLV>
0.770549

>  <SCORE.INTRA.SOLV.lig_0>
-73.062

>  <SCORE.INTRA.VDW>
-0.00424111

>  <SCORE.INTRA.VDW.0>
-1.83782

>  <SCORE.INTRA.norm>
-0.0219265

>  <SCORE.RESTR>
0

>  <SCORE.RESTR.CAVITY>
0

>  <SCORE.RESTR.norm>
0

>  <SCORE.SYSTEM>
0

>  <SCORE.SYSTEM.CONST>
0

>  <SCORE.SYSTEM.DIHEDRAL>
0

>  <SCORE.SYSTEM.SOLV>
0

>  <SCORE.SYSTEM.norm>
0

>  <SCORE.heavy>
22

>  <SCORE.norm>
-0.244488

>  <RMSD>
5.047

$$$$
ligand
 OpenBabel02271912143D
libRbt.so/2013.1/901 2013/11/27
 22 23  0  0  0  0  0  0  0  0999 V2000
  -30.8244    3.0478   -9.6741 N   0  0  0  0  0  0  0  0  0  0  0  0
  -28.5711    1.6461  -11.7742 C   0  0  1  0  0  0  0  0  0  0  0  0
  -28.8100    2.2618  -10.4766 O   0  0  0  0  0  0  0  0  0  0  0  0
  -28.1557    2.9958  -15.2905 P   0  0  1  0  0  0  0  0  0  0  0  0
  -30.1391    1.9133  -10.0568 C   0  0  2  0  0  0  0  0  0  0  0  0
  -31.3510    5.1369   -9.4105 N   0  0  0  0  0  0  0  0  0  0  0  0
  -31.8862    0.5464  -10.9373 O   0  0  0  0  0  0  0  0  0  0  0  0
  -30.8029    1.4174  -11.2833 C   0  0  2  0  0  0  0  0  0  0  0  0
  -33.8360    4.5521   -6.9216 N   0  0  0  0  0  0  0  0  0  0  0  0
  -29.4159   -0.5085  -11.4024 O   0  0  0  0  0  0  0  0  0  0  0  0
  -29.7279    0.7553  -12.0120 C   0  0  2  0  0  0  0  0  0  0  0  0
  -32.3352    4.3878   -8.8901 C   0  0  0  0  0  0  0  0  0  0  0  0
  -32.7922    1.9579   -8.6663 N   0  0  0  0  0  0  0  0  0  0  0  0
  -28.2637    2.1211  -13.9937 O   0  0  0  0  0  0  0  0  0  0  0  0
  -28.5138    2.7466  -12.7771 C   0  0  0  0  0  0  0  0  0  0  0  0
  -29.6103    3.5663  -15.4609 O   0  0  0  0  0  0  0  0  0  0  0  0
  -30.4106    4.3016   -9.8915 C   0  0  0  0  0  0  0  0  0  0  0  0
  -34.3416    5.6172   -8.8699 O   0  0  0  0  0  0  0  0  0  0  0  0
  -33.5590    4.9004   -8.2464 C   0  0  0  0  0  0  0  0  0  0  0  0
  -32.0123    3.0711   -9.0550 C   0  0  0  0  0  0  0  0  0  0  0  0
  -27.0995    4.0348  -15.1092 O   0  5  0  0  0  0  0  0  0  0  0  0
  -27.6052    2.2076  -16.4079 O   0  0  0  0  0  0  0  0  0  0  0  0
  1 17  1  0  0  0  0
  1 20  1  0  0  0  0
  2 15  1  6  0  0  0
  2  3  1  0  0  0  0
  2 11  1  0  0  0  0
  3  5  1  0  0  0  0
  4 16  1  6  0  0  0
  4 21  1  0  0  0  0
  4 22  2  0  0  0  0
  4 14  1  0  0  0  0
  5  1  1  6  0  0  0
  5  8  1  0  0  0  0
  6 17  2  0  0  0  0
  6 12  1  0  0  0  0
  8  7  1  1  0  0  0
  8 11  1  0  0  0  0
  9 19  1  0  0  0  0
 11 10  1  1  0  0  0
 12 20  2  0  0  0  0
 12 19  1  0  0  0  0
 13 20  1  0  0  0  0
 14 15  1  0  0  0  0
 18 19  2  0  0  0  0
M  CHG  1  21  -1
M  END
>  <CHROM.1>
11.40811549,179.06106414,-66.04384060,179.31612681,-121.09075762,-30.26697170
2.82375432,-11.55073280,-2.96608229,0.92741847,-0.43673923

>  <Name>
ligand

>  <RI>
0

>  <Rbt.Current_Directory>
/home/itssahil/PROJECTS/Mol_Feturizer/Test_systems_manuscript/rnas/4xwf

>  <Rbt.Executable>
rbdock ($Id: //depot/dev/client3/rdock/2013.1/src/exe/rbdock.cxx#4 $)

>  <Rbt.Library>
libRbt.so (2013.1, Build901 2013/11/27)

>  <Rbt.Parameter_File>
/export/apps/rDock/src/rDock_2013.1_src/data/scripts/dock_solv.prm

>  <Rbt.Receptor>
prm/pocket_docking_5.prm

>  <SCORE>
-6.87703

>  <SCORE.INTER>
-6.44103

>  <SCORE.INTER.CONST>
1

>  <SCORE.INTER.POLAR>
0

>  <SCORE.INTER.ROT>
5

>  <SCORE.INTER.SOLV>
11.5874

>  <SCORE.INTER.VDW>
-15.0898

>  <SCORE.INTER.norm>
-0.292774

>  <SCORE.INTRA>
-0.436

>  <SCORE.INTRA.DIHEDRAL>
-1.91033

>  <SCORE.INTRA.DIHEDRAL.0>
3.49807

>  <SCORE.INTRA.POLAR>
0

>  <SCORE.INTRA.POLAR.0>
0

>  <SCORE.INTRA.REPUL>
0

>  <SCORE.INTRA.REPUL.0>
0

>  <SCORE.INTRA.SOLV>
0.928316

>  <SCORE.INTRA.SOLV.lig_0>
-73.062

>  <SCORE.INTRA.VDW>
0.0550074

>  <SCORE.INTRA.VDW.0>
-1.83782

>  <SCORE.INTRA.norm>
-0.0198182

>  <SCORE.RESTR>
0

>  <SCORE.RESTR.CAVITY>
0

>  <SCORE.RESTR.norm>
0

>  <SCORE.SYSTEM>
0

>  <SCORE.SYSTEM.CONST>
0

>  <SCORE.SYSTEM.DIHEDRAL>
0

>  <SCORE.SYSTEM.SOLV>
0

>  <SCORE.SYSTEM.norm>
0

>  <SCORE.heavy>
22

>  <SCORE.norm>
-0.312592

>  <RMSD>
5.051

$$$$
ligand
 OpenBabel02271912143D
libRbt.so/2013.1/901 2013/11/27
 22 23  0  0  0  0  0  0  0  0999 V2000
  -30.9308    3.0706   -9.6820 N   0  0  0  0  0  0  0  0  0  0  0  0
  -28.5945    1.6934  -11.7062 C   0  0  1  0  0  0  0  0  0  0  0  0
  -28.8844    2.2987  -10.4142 O   0  0  0  0  0  0  0  0  0  0  0  0
  -27.1774    1.4658  -14.4199 P   0  0  1  0  0  0  0  0  0  0  0  0
  -30.2267    1.9417  -10.0468 C   0  0  2  0  0  0  0  0  0  0  0  0
  -31.4558    5.1555   -9.3843 N   0  0  0  0  0  0  0  0  0  0  0  0
  -31.9336    0.5740  -11.0017 O   0  0  0  0  0  0  0  0  0  0  0  0
  -30.8421    1.4519  -11.3007 C   0  0  2  0  0  0  0  0  0  0  0  0
  -33.9165    6.2775   -8.2073 N   0  0  0  0  0  0  0  0  0  0  0  0
  -29.4431   -0.4673  -11.3815 O   0  0  0  0  0  0  0  0  0  0  0  0
  -29.7376    0.7996  -11.9934 C   0  0  2  0  0  0  0  0  0  0  0  0
  -32.4906    4.4014   -8.9829 C   0  0  0  0  0  0  0  0  0  0  0  0
  -32.9925    1.9716   -8.8961 N   0  0  0  0  0  0  0  0  0  0  0  0
  -28.4895    2.1792  -13.9421 O   0  0  0  0  0  0  0  0  0  0  0  0
  -28.5046    2.8013  -12.6985 C   0  0  0  0  0  0  0  0  0  0  0  0
  -27.4509    1.1942  -15.9436 O   0  0  0  0  0  0  0  0  0  0  0  0
  -30.4855    4.3256   -9.8125 C   0  0  0  0  0  0  0  0  0  0  0  0
  -34.6755    4.1312   -8.1519 O   0  0  0  0  0  0  0  0  0  0  0  0
  -33.7611    4.9067   -8.4304 C   0  0  0  0  0  0  0  0  0  0  0  0
  -32.1688    3.0874   -9.1702 C   0  0  0  0  0  0  0  0  0  0  0  0
  -26.0010    2.3434  -14.1480 O   0  5  0  0  0  0  0  0  0  0  0  0
  -26.8779    0.2993  -13.5700 O   0  0  0  0  0  0  0  0  0  0  0  0
  1 17  1  0  0  0  0
  1 20  1  0  0  0  0
  2 15  1  6  0  0  0
  2  3  1  0  0  0  0
  2 11  1  0  0  0  0
  3  5  1  0  0  0  0
  4 16  1  6  0  0  0
  4 21  1  0  0  0  0
  4 22  2  0  0  0  0
  4 14  1  0  0  0  0
  5  1  1  6  0  0  0
  5  8  1  0  0  0  0
  6 17  2  0  0  0  0
  6 12  1  0  0  0  0
  8  7  1  1  0  0  0
  8 11  1  0  0  0  0
  9 19  1  0  0  0  0
 11 10  1  1  0  0  0
 12 20  2  0  0  0  0
 12 19  1  0  0  0  0
 13 20  1  0  0  0  0
 14 15  1  0  0  0  0
 18 19  2  0  0  0  0
M  CHG  1  21  -1
M  END
>  <CHROM.1>
7.80650029,-168.73923920,-167.63436808,-75.39439120,-4.38512409,-30.06400258
2.41162614,-11.33790431,-2.71976429,-0.72158359,-3.03854251

>  <Name>
ligand

>  <RI>
0

>  <Rbt.Current_Directory>
/home/itssahil/PROJECTS/Mol_Feturizer/Test_systems_manuscript/rnas/4xwf

>  <Rbt.Executable>
rbdock ($Id: //depot/dev/client3/rdock/2013.1/src/exe/rbdock.cxx#4 $)

>  <Rbt.Library>
libRbt.so (2013.1, Build901 2013/11/27)

>  <Rbt.Parameter_File>
/export/apps/rDock/src/rDock_2013.1_src/data/scripts/dock_solv.prm

>  <Rbt.Receptor>
prm/pocket_docking_5.prm

>  <SCORE>
-3.59108

>  <SCORE.INTER>
-6.53073

>  <SCORE.INTER.CONST>
1

>  <SCORE.INTER.POLAR>
0

>  <SCORE.INTER.ROT>
5

>  <SCORE.INTER.SOLV>
13.1998

>  <SCORE.INTER.VDW>
-15.6871

>  <SCORE.INTER.norm>
-0.296852

>  <SCORE.INTRA>
2.93966

>  <SCORE.INTRA.DIHEDRAL>
-0.221094

>  <SCORE.INTRA.DIHEDRAL.0>
3.49807

>  <SCORE.INTRA.POLAR>
0

>  <SCORE.INTRA.POLAR.0>
0

>  <SCORE.INTRA.REPUL>
0

>  <SCORE.INTRA.REPUL.0>
0

>  <SCORE.INTRA.SOLV>
4.56424

>  <SCORE.INTRA.SOLV.lig_0>
-73.062

>  <SCORE.INTRA.VDW>
0.768083

>  <SCORE.INTRA.VDW.0>
-1.83782

>  <SCORE.INTRA.norm>
0.133621

>  <SCORE.RESTR>
0

>  <SCORE.RESTR.CAVITY>
0

>  <SCORE.RESTR.norm>
0

>  <SCORE.SYSTEM>
0

>  <SCORE.SYSTEM.CONST>
0

>  <SCORE.SYSTEM.DIHEDRAL>
0

>  <SCORE.SYSTEM.SOLV>
0

>  <SCORE.SYSTEM.norm>
0

>  <SCORE.heavy>
22

>  <SCORE.norm>
-0.163231

>  <RMSD>
5.069

$$$$
ligand
 OpenBabel02271912143D
libRbt.so/2013.1/901 2013/11/27
 22 23  0  0  0  0  0  0  0  0999 V2000
  -31.6706    1.5693  -10.4101 N   0  0  0  0  0  0  0  0  0  0  0  0
  -28.7571   -0.0047   -9.7125 C   0  0  1  0  0  0  0  0  0  0  0  0
  -30.2062   -0.0031   -9.5716 O   0  0  0  0  0  0  0  0  0  0  0  0
  -28.0458    1.2248   -6.1997 P   0  0  1  0  0  0  0  0  0  0  0  0
  -30.7676    0.5853  -10.7561 C   0  0  2  0  0  0  0  0  0  0  0  0
  -33.5422    2.6345  -10.1392 N   0  0  0  0  0  0  0  0  0  0  0  0
  -29.8854    1.4161  -12.8121 O   0  0  0  0  0  0  0  0  0  0  0  0
  -29.6310    1.2718  -11.4099 C   0  0  2  0  0  0  0  0  0  0  0  0
  -31.6909    5.6218   -9.0164 N   0  0  0  0  0  0  0  0  0  0  0  0
  -28.5288   -0.7719  -11.9156 O   0  0  0  0  0  0  0  0  0  0  0  0
  -28.4913    0.4152  -11.1058 C   0  0  2  0  0  0  0  0  0  0  0  0
  -32.5584    3.3729   -9.6029 C   0  0  0  0  0  0  0  0  0  0  0  0
  -30.1034    3.1312   -9.3238 N   0  0  0  0  0  0  0  0  0  0  0  0
  -28.5110    0.4503   -7.4812 O   0  0  0  0  0  0  0  0  0  0  0  0
  -28.2208    0.9818   -8.7330 C   0  0  0  0  0  0  0  0  0  0  0  0
  -26.4835    1.2824   -6.3623 O   0  0  0  0  0  0  0  0  0  0  0  0
  -32.9868    1.5170  -10.6455 C   0  0  0  0  0  0  0  0  0  0  0  0
  -33.7568    4.9504   -8.3329 O   0  0  0  0  0  0  0  0  0  0  0  0
  -32.7246    4.6839   -8.9484 C   0  0  0  0  0  0  0  0  0  0  0  0
  -31.3772    2.7073   -9.7669 C   0  0  0  0  0  0  0  0  0  0  0  0
  -28.7134    2.5588   -6.1489 O   0  5  0  0  0  0  0  0  0  0  0  0
  -28.5739    0.5842   -4.9817 O   0  0  0  0  0  0  0  0  0  0  0  0
  1 17  1  0  0  0  0
  1 20  1  0  0  0  0
  2 15  1  1  0  0  0
  2  3  1  0  0  0  0
  2 11  1  0  0  0  0
  3  5  1  0  0  0  0
  4 16  1  1  0  0  0
  4 21  1  0  0  0  0
  4 22  2  0  0  0  0
  4 14  1  0  0  0  0
  5  1  1  1  0  0  0
  5  8  1  0  0  0  0
  6 17  2  0  0  0  0
  6 12  1  0  0  0  0
  8  7  1  6  0  0  0
  8 11  1  0  0  0  0
  9 19  1  0  0  0  0
 11 10  1  6  0  0  0
 12 20  2  0  0  0  0
 12 19  1  0  0  0  0
 13 20  1  0  0  0  0
 14 15  1  0  0  0  0
 18 19  2  0  0  0  0
M  CHG  1  21  -1
M  END
>  <CHROM.1>
-114.38000146,66.21669112,-60.02596372,178.36569415,-148.86490884,-30.03780333
1.75513020,-9.01889156,-2.80090823,-0.65970565,1.13235274

>  <Name>
ligand

>  <RI>
0

>  <Rbt.Current_Directory>
/home/itssahil/PROJECTS/Mol_Feturizer/Test_systems_manuscript/rnas/4xwf

>  <Rbt.Executable>
rbdock ($Id: //depot/dev/client3/rdock/2013.1/src/exe/rbdock.cxx#4 $)

>  <Rbt.Library>
libRbt.so (2013.1, Build901 2013/11/27)

>  <Rbt.Parameter_File>
/export/apps/rDock/src/rDock_2013.1_src/data/scripts/dock_solv.prm

>  <Rbt.Receptor>
prm/pocket_docking_8.prm

>  <SCORE>
-4.3763

>  <SCORE.INTER>
-7.00546

>  <SCORE.INTER.CONST>
1

>  <SCORE.INTER.POLAR>
0

>  <SCORE.INTER.ROT>
5

>  <SCORE.INTER.SOLV>
10.1821

>  <SCORE.INTER.VDW>
-14.9977

>  <SCORE.INTER.norm>
-0.31843

>  <SCORE.INTRA>
2.62917

>  <SCORE.INTRA.DIHEDRAL>
-1.07016

>  <SCORE.INTRA.DIHEDRAL.0>
3.49807

>  <SCORE.INTRA.POLAR>
0

>  <SCORE.INTRA.POLAR.0>
0

>  <SCORE.INTRA.REPUL>
0

>  <SCORE.INTRA.REPUL.0>
0

>  <SCORE.INTRA.SOLV>
6.26583

>  <SCORE.INTRA.SOLV.lig_0>
-73.062

>  <SCORE.INTRA.VDW>
0.0313298

>  <SCORE.INTRA.VDW.0>
-1.83782

>  <SCORE.INTRA.norm>
0.119508

>  <SCORE.RESTR>
0

>  <SCORE.RESTR.CAVITY>
0

>  <SCORE.RESTR.norm>
0

>  <SCORE.SYSTEM>
0

>  <SCORE.SYSTEM.CONST>
0

>  <SCORE.SYSTEM.DIHEDRAL>
0

>  <SCORE.SYSTEM.SOLV>
0

>  <SCORE.SYSTEM.norm>
0

>  <SCORE.heavy>
22

>  <SCORE.norm>
-0.198923

>  <RMSD>
5.074

$$$$
ligand
 OpenBabel02271912143D
libRbt.so/2013.1/901 2013/11/27
 22 23  0  0  0  0  0  0  0  0999 V2000
  -30.7453    1.9118  -10.5493 N   0  0  0  0  0  0  0  0  0  0  0  0
  -28.2721    1.5893  -12.8366 C   0  0  1  0  0  0  0  0  0  0  0  0
  -29.0992    2.4975  -12.0550 O   0  0  0  0  0  0  0  0  0  0  0  0
  -28.5774    3.1763  -15.3665 P   0  0  1  0  0  0  0  0  0  0  0  0
  -29.3891    1.8648  -10.7980 C   0  0  2  0  0  0  0  0  0  0  0  0
  -32.8639    1.4463  -10.6271 N   0  0  0  0  0  0  0  0  0  0  0  0
  -28.7595   -0.1864   -9.7530 O   0  0  0  0  0  0  0  0  0  0  0  0
  -29.0517    0.4390  -11.0081 C   0  0  2  0  0  0  0  0  0  0  0  0
  -34.3585    4.2121   -9.3881 N   0  0  0  0  0  0  0  0  0  0  0  0
  -26.7283    0.8931  -11.2160 O   0  0  0  0  0  0  0  0  0  0  0  0
  -27.9143    0.4858  -11.9188 C   0  0  2  0  0  0  0  0  0  0  0  0
  -32.6808    2.4144   -9.7161 C   0  0  0  0  0  0  0  0  0  0  0  0
  -30.7328    3.6591   -8.8108 N   0  0  0  0  0  0  0  0  0  0  0  0
  -29.5834    2.2558  -14.5923 O   0  0  0  0  0  0  0  0  0  0  0  0
  -29.1059    1.1060  -13.9730 C   0  0  0  0  0  0  0  0  0  0  0  0
  -27.8566    3.9680  -14.2158 O   0  0  0  0  0  0  0  0  0  0  0  0
  -31.6602    1.1402  -11.1477 C   0  0  0  0  0  0  0  0  0  0  0  0
  -34.0712    2.5812   -7.8250 O   0  0  0  0  0  0  0  0  0  0  0  0
  -33.7402    3.0525   -8.9128 C   0  0  0  0  0  0  0  0  0  0  0  0
  -31.3488    2.7108   -9.6592 C   0  0  0  0  0  0  0  0  0  0  0  0
  -27.6707    2.3369  -16.2038 O   0  5  0  0  0  0  0  0  0  0  0  0
  -29.2781    3.9681  -16.3935 O   0  0  0  0  0  0  0  0  0  0  0  0
  1 17  1  0  0  0  0
  1 20  1  0  0  0  0
  2 15  1  6  0  0  0
  2  3  1  0  0  0  0
  2 11  1  0  0  0  0
  3  5  1  0  0  0  0
  4 16  1  1  0  0  0
  4 21  1  0  0  0  0
  4 22  2  0  0  0  0
  4 14  1  0  0  0  0
  5  1  1  6  0  0  0
  5  8  1  0  0  0  0
  6 17  2  0  0  0  0
  6 12  1  0  0  0  0
  8  7  1  1  0  0  0
  8 11  1  0  0  0  0
  9 19  1  0  0  0  0
 11 10  1  1  0  0  0
 12 20  2  0  0  0  0
 12 19  1  0  0  0  0
 13 20  1  0  0  0  0
 14 15  1  0  0  0  0
 18 19  2  0  0  0  0
M  CHG  1  21  -1
M  END
>  <CHROM.1>
75.40147071,53.44271015,-77.94332399,69.11486430,-91.63968329,-29.99189704
2.22737827,-11.96846942,-2.35236232,0.51445375,-1.10766087

>  <Name>
ligand

>  <RI>
0

>  <Rbt.Current_Directory>
/home/itssahil/PROJECTS/Mol_Feturizer/Test_systems_manuscript/rnas/4xwf

>  <Rbt.Executable>
rbdock ($Id: //depot/dev/client3/rdock/2013.1/src/exe/rbdock.cxx#4 $)

>  <Rbt.Library>
libRbt.so (2013.1, Build901 2013/11/27)

>  <Rbt.Parameter_File>
/export/apps/rDock/src/rDock_2013.1_src/data/scripts/dock_solv.prm

>  <Rbt.Receptor>
prm/pocket_docking_6.prm

>  <SCORE>
-7.63879

>  <SCORE.INTER>
-9.00487

>  <SCORE.INTER.CONST>
1

>  <SCORE.INTER.POLAR>
0

>  <SCORE.INTER.ROT>
5

>  <SCORE.INTER.SOLV>
14.5121

>  <SCORE.INTER.VDW>
-17.7739

>  <SCORE.INTER.norm>
-0.409312

>  <SCORE.INTRA>
1.36608

>  <SCORE.INTRA.DIHEDRAL>
-0.0832041

>  <SCORE.INTRA.DIHEDRAL.0>
3.49807

>  <SCORE.INTRA.POLAR>
0

>  <SCORE.INTRA.POLAR.0>
0

>  <SCORE.INTRA.REPUL>
0

>  <SCORE.INTRA.REPUL.0>
0

>  <SCORE.INTRA.SOLV>
0.2054

>  <SCORE.INTRA.SOLV.lig_0>
-73.062

>  <SCORE.INTRA.VDW>
1.30499

>  <SCORE.INTRA.VDW.0>
-1.83782

>  <SCORE.INTRA.norm>
0.0620947

>  <SCORE.RESTR>
0

>  <SCORE.RESTR.CAVITY>
0

>  <SCORE.RESTR.norm>
0

>  <SCORE.SYSTEM>
0

>  <SCORE.SYSTEM.CONST>
0

>  <SCORE.SYSTEM.DIHEDRAL>
0

>  <SCORE.SYSTEM.SOLV>
0

>  <SCORE.SYSTEM.norm>
0

>  <SCORE.heavy>
22

>  <SCORE.norm>
-0.347218

>  <RMSD>
5.079

$$$$
ligand
 OpenBabel02271912143D
libRbt.so/2013.1/901 2013/11/27
 22 23  0  0  0  0  0  0  0  0999 V2000
  -33.2712    3.4454   -8.4604 N   0  0  0  0  0  0  0  0  0  0  0  0
  -30.2167    2.4430   -9.5177 C   0  0  1  0  0  0  0  0  0  0  0  0
  -31.0676    2.7687   -8.3820 O   0  0  0  0  0  0  0  0  0  0  0  0
  -28.4543    5.7940   -9.3972 P   0  0  1  0  0  0  0  0  0  0  0  0
  -32.4145    2.3940   -8.7135 C   0  0  2  0  0  0  0  0  0  0  0  0
  -34.3088    5.3414   -8.6594 N   0  0  0  0  0  0  0  0  0  0  0  0
  -33.4640    1.3301  -10.5743 O   0  0  0  0  0  0  0  0  0  0  0  0
  -32.4026    2.2083  -10.1819 C   0  0  2  0  0  0  0  0  0  0  0  0
  -36.4973    6.4207   -7.0047 N   0  0  0  0  0  0  0  0  0  0  0  0
  -30.9957    0.2976  -10.0517 O   0  0  0  0  0  0  0  0  0  0  0  0
  -31.0721    1.6767  -10.4502 C   0  0  2  0  0  0  0  0  0  0  0  0
  -34.8237    4.6907   -7.6049 C   0  0  0  0  0  0  0  0  0  0  0  0
  -34.4341    2.5001   -6.5034 N   0  0  0  0  0  0  0  0  0  0  0  0
  -29.0109    4.3520   -9.1335 O   0  0  0  0  0  0  0  0  0  0  0  0
  -29.7741    3.7331  -10.1175 C   0  0  0  0  0  0  0  0  0  0  0  0
  -27.7472    5.6559  -10.7942 O   0  0  0  0  0  0  0  0  0  0  0  0
  -33.3400    4.5679   -9.1855 C   0  0  0  0  0  0  0  0  0  0  0  0
  -36.2751    4.5268   -5.7600 O   0  0  0  0  0  0  0  0  0  0  0  0
  -35.9042    5.1851   -6.7316 C   0  0  0  0  0  0  0  0  0  0  0  0
  -34.1774    3.4945   -7.4750 C   0  0  0  0  0  0  0  0  0  0  0  0
  -29.5753    6.7789   -9.3645 O   0  5  0  0  0  0  0  0  0  0  0  0
  -27.6278    6.2501   -8.2652 O   0  0  0  0  0  0  0  0  0  0  0  0
  1 17  1  0  0  0  0
  1 20  1  0  0  0  0
  2 15  1  6  0  0  0
  2  3  1  0  0  0  0
  2 11  1  0  0  0  0
  3  5  1  0  0  0  0
  4 16  1  6  0  0  0
  4 21  1  0  0  0  0
  4 22  2  0  0  0  0
  4 14  1  0  0  0  0
  5  1  1  6  0  0  0
  5  8  1  0  0  0  0
  6 17  2  0  0  0  0
  6 12  1  0  0  0  0
  8  7  1  1  0  0  0
  8 11  1  0  0  0  0
  9 19  1  0  0  0  0
 11 10  1  1  0  0  0
 12 20  2  0  0  0  0
 12 19  1  0  0  0  0
 13 20  1  0  0  0  0
 14 15  1  0  0  0  0
 18 19  2  0  0  0  0
M  CHG  1  21  -1
M  END
>  <CHROM.1>
71.82618200,63.72083719,-51.33438219,-176.07628234,1.61858388,-31.82015009
4.01102701,-8.80289295,3.12046538,0.35840842,0.36248128

>  <Name>
ligand

>  <RI>
0

>  <Rbt.Current_Directory>
/home/itssahil/PROJECTS/Mol_Feturizer/Test_systems_manuscript/rnas/4xwf

>  <Rbt.Executable>
rbdock ($Id: //depot/dev/client3/rdock/2013.1/src/exe/rbdock.cxx#4 $)

>  <Rbt.Library>
libRbt.so (2013.1, Build901 2013/11/27)

>  <Rbt.Parameter_File>
/export/apps/rDock/src/rDock_2013.1_src/data/scripts/dock_solv.prm

>  <Rbt.Receptor>
prm/pocket_docking_7.prm

>  <SCORE>
-7.31605

>  <SCORE.INTER>
-6.55758

>  <SCORE.INTER.CONST>
1

>  <SCORE.INTER.POLAR>
0

>  <SCORE.INTER.ROT>
5

>  <SCORE.INTER.SOLV>
16.3344

>  <SCORE.INTER.VDW>
-16.7498

>  <SCORE.INTER.norm>
-0.298072

>  <SCORE.INTRA>
-0.758468

>  <SCORE.INTRA.DIHEDRAL>
-1.73086

>  <SCORE.INTRA.DIHEDRAL.0>
3.49807

>  <SCORE.INTRA.POLAR>
0

>  <SCORE.INTRA.POLAR.0>
0

>  <SCORE.INTRA.REPUL>
0

>  <SCORE.INTRA.REPUL.0>
0

>  <SCORE.INTRA.SOLV>
-1.13261

>  <SCORE.INTRA.SOLV.lig_0>
-73.062

>  <SCORE.INTRA.VDW>
0.673262

>  <SCORE.INTRA.VDW.0>
-1.83782

>  <SCORE.INTRA.norm>
-0.0344758

>  <SCORE.RESTR>
0

>  <SCORE.RESTR.CAVITY>
0

>  <SCORE.RESTR.norm>
0

>  <SCORE.SYSTEM>
0

>  <SCORE.SYSTEM.CONST>
0

>  <SCORE.SYSTEM.DIHEDRAL>
0

>  <SCORE.SYSTEM.SOLV>
0

>  <SCORE.SYSTEM.norm>
0

>  <SCORE.heavy>
22

>  <SCORE.norm>
-0.332548

>  <RMSD>
5.081

$$$$
ligand
 OpenBabel02271912143D
libRbt.so/2013.1/901 2013/11/27
 22 23  0  0  0  0  0  0  0  0999 V2000
  -30.0784    1.8018  -11.4074 N   0  0  0  0  0  0  0  0  0  0  0  0
  -27.9966    2.3737  -14.0135 C   0  0  1  0  0  0  0  0  0  0  0  0
  -28.4679    2.8173  -12.7093 O   0  0  0  0  0  0  0  0  0  0  0  0
  -29.9943    4.9470  -15.9454 P   0  0  1  0  0  0  0  0  0  0  0  0
  -28.8155    1.6532  -11.9423 C   0  0  2  0  0  0  0  0  0  0  0  0
  -32.1565    1.4171  -10.9128 N   0  0  0  0  0  0  0  0  0  0  0  0
  -28.6975   -0.7036  -12.2993 O   0  0  0  0  0  0  0  0  0  0  0  0
  -28.9085    0.5614  -12.9373 C   0  0  2  0  0  0  0  0  0  0  0  0
  -33.7076    2.7629   -8.7366 N   0  0  0  0  0  0  0  0  0  0  0  0
  -26.5771    0.6141  -13.3945 O   0  0  0  0  0  0  0  0  0  0  0  0
  -27.8848    0.9018  -13.9176 C   0  0  2  0  0  0  0  0  0  0  0  0
  -31.7727    2.5316  -10.2717 C   0  0  0  0  0  0  0  0  0  0  0  0
  -29.6735    3.8444  -10.0885 N   0  0  0  0  0  0  0  0  0  0  0  0
  -29.0848    4.1666  -14.9341 O   0  0  0  0  0  0  0  0  0  0  0  0
  -29.0253    2.7795  -15.0121 C   0  0  0  0  0  0  0  0  0  0  0  0
  -29.9982    6.4096  -15.3698 O   0  0  0  0  0  0  0  0  0  0  0  0
  -31.1034    0.9690  -11.6226 C   0  0  0  0  0  0  0  0  0  0  0  0
  -32.3900    4.5520   -9.2353 O   0  0  0  0  0  0  0  0  0  0  0  0
  -32.6216    3.3529   -9.3889 C   0  0  0  0  0  0  0  0  0  0  0  0
  -30.4643    2.7787  -10.5758 C   0  0  0  0  0  0  0  0  0  0  0  0
  -29.4334    4.8245  -17.3232 O   0  5  0  0  0  0  0  0  0  0  0  0
  -31.2991    4.2786  -16.0976 O   0  0  0  0  0  0  0  0  0  0  0  0
  1 17  1  0  0  0  0
  1 20  1  0  0  0  0
  2 15  1  6  0  0  0
  2  3  1  0  0  0  0
  2 11  1  0  0  0  0
  3  5  1  0  0  0  0
  4 16  1  1  0  0  0
  4 21  1  0  0  0  0
  4 22  2  0  0  0  0
  4 14  1  0  0  0  0
  5  1  1  6  0  0  0
  5  8  1  0  0  0  0
  6 17  2  0  0  0  0
  6 12  1  0  0  0  0
  8  7  1  1  0  0  0
  8 11  1  0  0  0  0
  9 19  1  0  0  0  0
 11 10  1  1  0  0  0
 12 20  2  0  0  0  0
 12 19  1  0  0  0  0
 13 20  1  0  0  0  0
 14 15  1  0  0  0  0
 18 19  2  0  0  0  0
M  CHG  1  21  -1
M  END
>  <CHROM.1>
121.99904266,61.11054577,169.86212476,174.99743352,25.67858447,-29.96458660
2.88126334,-12.92091364,-2.08625277,0.76211830,-0.91078501

>  <Name>
ligand

>  <RI>
0

>  <Rbt.Current_Directory>
/home/itssahil/PROJECTS/Mol_Feturizer/Test_systems_manuscript/rnas/4xwf

>  <Rbt.Executable>
rbdock ($Id: //depot/dev/client3/rdock/2013.1/src/exe/rbdock.cxx#4 $)

>  <Rbt.Library>
libRbt.so (2013.1, Build901 2013/11/27)

>  <Rbt.Parameter_File>
/export/apps/rDock/src/rDock_2013.1_src/data/scripts/dock_solv.prm

>  <Rbt.Receptor>
prm/pocket_docking_6.prm

>  <SCORE>
-7.62479

>  <SCORE.INTER>
-9.416

>  <SCORE.INTER.CONST>
1

>  <SCORE.INTER.POLAR>
0

>  <SCORE.INTER.ROT>
5

>  <SCORE.INTER.SOLV>
18.5814

>  <SCORE.INTER.VDW>
-19.4045

>  <SCORE.INTER.norm>
-0.428

>  <SCORE.INTRA>
1.79121

>  <SCORE.INTRA.DIHEDRAL>
-0.987356

>  <SCORE.INTRA.DIHEDRAL.0>
3.49807

>  <SCORE.INTRA.POLAR>
0

>  <SCORE.INTRA.POLAR.0>
0

>  <SCORE.INTRA.REPUL>
0

>  <SCORE.INTRA.REPUL.0>
0

>  <SCORE.INTRA.SOLV>
0.0955101

>  <SCORE.INTRA.SOLV.lig_0>
-73.062

>  <SCORE.INTRA.VDW>
2.23713

>  <SCORE.INTRA.VDW.0>
-1.83782

>  <SCORE.INTRA.norm>
0.0814187

>  <SCORE.RESTR>
0

>  <SCORE.RESTR.CAVITY>
0

>  <SCORE.RESTR.norm>
0

>  <SCORE.SYSTEM>
0

>  <SCORE.SYSTEM.CONST>
0

>  <SCORE.SYSTEM.DIHEDRAL>
0

>  <SCORE.SYSTEM.SOLV>
0

>  <SCORE.SYSTEM.norm>
0

>  <SCORE.heavy>
22

>  <SCORE.norm>
-0.346581

>  <RMSD>
5.091

$$$$
ligand
 OpenBabel02271912143D
libRbt.so/2013.1/901 2013/11/27
 22 23  0  0  0  0  0  0  0  0999 V2000
  -33.2665    3.4447   -8.4917 N   0  0  0  0  0  0  0  0  0  0  0  0
  -30.2092    2.4666   -9.5634 C   0  0  1  0  0  0  0  0  0  0  0  0
  -31.0595    2.7782   -8.4234 O   0  0  0  0  0  0  0  0  0  0  0  0
  -28.5925    5.8843   -9.3675 P   0  0  1  0  0  0  0  0  0  0  0  0
  -32.4052    2.3999   -8.7556 C   0  0  2  0  0  0  0  0  0  0  0  0
  -34.3222    5.3319   -8.6786 N   0  0  0  0  0  0  0  0  0  0  0  0
  -33.4530    1.3472  -10.6237 O   0  0  0  0  0  0  0  0  0  0  0  0
  -32.3952    2.2271  -10.2256 C   0  0  2  0  0  0  0  0  0  0  0  0
  -36.4791    6.4070   -6.9805 N   0  0  0  0  0  0  0  0  0  0  0  0
  -30.9788    0.3222  -10.1148 O   0  0  0  0  0  0  0  0  0  0  0  0
  -31.0626    1.7043  -10.5010 C   0  0  2  0  0  0  0  0  0  0  0  0
  -34.8162    4.6791   -7.6155 C   0  0  0  0  0  0  0  0  0  0  0  0
  -34.3928    2.4937   -6.5161 N   0  0  0  0  0  0  0  0  0  0  0  0
  -29.0686    4.4075   -9.1417 O   0  0  0  0  0  0  0  0  0  0  0  0
  -29.7740    3.7641  -10.1527 C   0  0  0  0  0  0  0  0  0  0  0  0
  -29.9384    6.6959   -9.3898 O   0  0  0  0  0  0  0  0  0  0  0  0
  -33.3552    4.5653   -9.2176 C   0  0  0  0  0  0  0  0  0  0  0  0
  -36.2525    4.4976   -5.7604 O   0  0  0  0  0  0  0  0  0  0  0  0
  -35.8877    5.1664   -6.7272 C   0  0  0  0  0  0  0  0  0  0  0  0
  -34.1585    3.4884   -7.4931 C   0  0  0  0  0  0  0  0  0  0  0  0
  -27.6482    6.2795   -8.2812 O   0  5  0  0  0  0  0  0  0  0  0  0
  -27.7285    5.9784  -10.5580 O   0  0  0  0  0  0  0  0  0  0  0  0
  1 17  1  0  0  0  0
  1 20  1  0  0  0  0
  2 15  1  6  0  0  0
  2  3  1  0  0  0  0
  2 11  1  0  0  0  0
  3  5  1  0  0  0  0
  4 16  1  6  0  0  0
  4 21  1  0  0  0  0
  4 22  2  0  0  0  0
  4 14  1  0  0  0  0
  5  1  1  6  0  0  0
  5  8  1  0  0  0  0
  6 17  2  0  0  0  0
  6 12  1  0  0  0  0
  8  7  1  1  0  0  0
  8 11  1  0  0  0  0
  9 19  1  0  0  0  0
 11 10  1  1  0  0  0
 12 20  2  0  0  0  0
 12 19  1  0  0  0  0
 13 20  1  0  0  0  0
 14 15  1  0  0  0  0
 18 19  2  0  0  0  0
M  CHG  1  21  -1
M  END
>  <CHROM.1>
72.79822362,60.82314274,68.17182444,-173.39528802,0.53884336,-31.84633470
4.03798415,-8.81095139,3.13023401,0.36124281,0.36619192

>  <Name>
ligand

>  <RI>
0

>  <Rbt.Current_Directory>
/home/itssahil/PROJECTS/Mol_Feturizer/Test_systems_manuscript/rnas/4xwf

>  <Rbt.Executable>
rbdock ($Id: //depot/dev/client3/rdock/2013.1/src/exe/rbdock.cxx#4 $)

>  <Rbt.Library>
libRbt.so (2013.1, Build901 2013/11/27)

>  <Rbt.Parameter_File>
/export/apps/rDock/src/rDock_2013.1_src/data/scripts/dock_solv.prm

>  <Rbt.Receptor>
prm/pocket_docking_7.prm

>  <SCORE>
-8.10633

>  <SCORE.INTER>
-7.26999

>  <SCORE.INTER.CONST>
1

>  <SCORE.INTER.POLAR>
0

>  <SCORE.INTER.ROT>
5

>  <SCORE.INTER.SOLV>
15.2914

>  <SCORE.INTER.VDW>
-16.8771

>  <SCORE.INTER.norm>
-0.330454

>  <SCORE.INTRA>
-0.836336

>  <SCORE.INTRA.DIHEDRAL>
-1.65761

>  <SCORE.INTRA.DIHEDRAL.0>
3.49807

>  <SCORE.INTRA.POLAR>
0

>  <SCORE.INTRA.POLAR.0>
0

>  <SCORE.INTRA.REPUL>
0

>  <SCORE.INTRA.REPUL.0>
0

>  <SCORE.INTRA.SOLV>
-1.06357

>  <SCORE.INTRA.SOLV.lig_0>
-73.062

>  <SCORE.INTRA.VDW>
0.524251

>  <SCORE.INTRA.VDW.0>
-1.83782

>  <SCORE.INTRA.norm>
-0.0380153

>  <SCORE.RESTR>
0

>  <SCORE.RESTR.CAVITY>
0

>  <SCORE.RESTR.norm>
0

>  <SCORE.SYSTEM>
0

>  <SCORE.SYSTEM.CONST>
0

>  <SCORE.SYSTEM.DIHEDRAL>
0

>  <SCORE.SYSTEM.SOLV>
0

>  <SCORE.SYSTEM.norm>
0

>  <SCORE.heavy>
22

>  <SCORE.norm>
-0.368469

>  <RMSD>
5.105

$$$$
ligand
 OpenBabel02271912143D
libRbt.so/2013.1/901 2013/11/27
 22 23  0  0  0  0  0  0  0  0999 V2000
  -29.8024    1.7914  -11.4277 N   0  0  0  0  0  0  0  0  0  0  0  0
  -27.5557    2.7574  -13.7670 C   0  0  1  0  0  0  0  0  0  0  0  0
  -28.0602    2.9376  -12.4131 O   0  0  0  0  0  0  0  0  0  0  0  0
  -28.4801    4.2521  -17.1064 P   0  0  1  0  0  0  0  0  0  0  0  0
  -28.5275    1.6642  -11.9394 C   0  0  2  0  0  0  0  0  0  0  0  0
  -31.8795    1.3666  -10.9628 N   0  0  0  0  0  0  0  0  0  0  0  0
  -28.5580   -0.5568  -12.8124 O   0  0  0  0  0  0  0  0  0  0  0  0
  -28.6467    0.8308  -13.1568 C   0  0  2  0  0  0  0  0  0  0  0  0
  -33.5906    2.7507   -8.9702 N   0  0  0  0  0  0  0  0  0  0  0  0
  -26.2971    0.7965  -13.5114 O   0  0  0  0  0  0  0  0  0  0  0  0
  -27.5529    1.2967  -14.0004 C   0  0  2  0  0  0  0  0  0  0  0  0
  -31.5315    2.4978  -10.3305 C   0  0  0  0  0  0  0  0  0  0  0  0
  -29.4655    3.8597  -10.1299 N   0  0  0  0  0  0  0  0  0  0  0  0
  -27.9319    3.3494  -15.9474 O   0  0  0  0  0  0  0  0  0  0  0  0
  -28.5012    3.4552  -14.6831 C   0  0  0  0  0  0  0  0  0  0  0  0
  -27.8112    3.6359  -18.3884 O   0  0  0  0  0  0  0  0  0  0  0  0
  -30.8048    0.9331  -11.6489 C   0  0  0  0  0  0  0  0  0  0  0  0
  -32.1284    4.4797   -9.2111 O   0  0  0  0  0  0  0  0  0  0  0  0
  -32.4135    3.3113   -9.4731 C   0  0  0  0  0  0  0  0  0  0  0  0
  -30.2240    2.7702  -10.6159 C   0  0  0  0  0  0  0  0  0  0  0  0
  -29.9723    4.2166  -17.1078 O   0  5  0  0  0  0  0  0  0  0  0  0
  -28.2192    5.6758  -16.8277 O   0  0  0  0  0  0  0  0  0  0  0  0
  1 17  1  0  0  0  0
  1 20  1  0  0  0  0
  2 15  1  6  0  0  0
  2  3  1  0  0  0  0
  2 11  1  0  0  0  0
  3  5  1  0  0  0  0
  4 16  1  6  0  0  0
  4 21  1  0  0  0  0
  4 22  2  0  0  0  0
  4 14  1  0  0  0  0
  5  1  1  6  0  0  0
  5  8  1  0  0  0  0
  6 17  2  0  0  0  0
  6 12  1  0  0  0  0
  8  7  1  1  0  0  0
  8 11  1  0  0  0  0
  9 19  1  0  0  0  0
 11 10  1  1  0  0  0
 12 20  2  0  0  0  0
 12 19  1  0  0  0  0
 13 20  1  0  0  0  0
 14 15  1  0  0  0  0
 18 19  2  0  0  0  0
M  CHG  1  21  -1
M  END
>  <CHROM.1>
136.85153700,175.50876663,-168.67890655,-165.88121257,17.49938305,-29.33522065
2.76186520,-13.27664843,-2.21813574,0.74721748,-0.92259346

>  <Name>
ligand

>  <RI>
0

>  <Rbt.Current_Directory>
/home/itssahil/PROJECTS/Mol_Feturizer/Test_systems_manuscript/rnas/4xwf

>  <Rbt.Executable>
rbdock ($Id: //depot/dev/client3/rdock/2013.1/src/exe/rbdock.cxx#4 $)

>  <Rbt.Library>
libRbt.so (2013.1, Build901 2013/11/27)

>  <Rbt.Parameter_File>
/export/apps/rDock/src/rDock_2013.1_src/data/scripts/dock_solv.prm

>  <Rbt.Receptor>
prm/pocket_docking_7.prm

>  <SCORE>
-4.12817

>  <SCORE.INTER>
-6.09344

>  <SCORE.INTER.CONST>
1

>  <SCORE.INTER.POLAR>
0

>  <SCORE.INTER.ROT>
5

>  <SCORE.INTER.SOLV>
12.9277

>  <SCORE.INTER.VDW>
-15.3049

>  <SCORE.INTER.norm>
-0.276974

>  <SCORE.INTRA>
1.96527

>  <SCORE.INTRA.DIHEDRAL>
-0.505941

>  <SCORE.INTRA.DIHEDRAL.0>
3.49807

>  <SCORE.INTRA.POLAR>
0

>  <SCORE.INTRA.POLAR.0>
0

>  <SCORE.INTRA.REPUL>
0

>  <SCORE.INTRA.REPUL.0>
0

>  <SCORE.INTRA.SOLV>
0.709312

>  <SCORE.INTRA.SOLV.lig_0>
-73.062

>  <SCORE.INTRA.VDW>
1.86359

>  <SCORE.INTRA.VDW.0>
-1.83782

>  <SCORE.INTRA.norm>
0.0893305

>  <SCORE.RESTR>
0

>  <SCORE.RESTR.CAVITY>
0

>  <SCORE.RESTR.norm>
0

>  <SCORE.SYSTEM>
0

>  <SCORE.SYSTEM.CONST>
0

>  <SCORE.SYSTEM.DIHEDRAL>
0

>  <SCORE.SYSTEM.SOLV>
0

>  <SCORE.SYSTEM.norm>
0

>  <SCORE.heavy>
22

>  <SCORE.norm>
-0.187644

>  <RMSD>
5.123

$$$$
ligand
 OpenBabel02271912143D
libRbt.so/2013.1/901 2013/11/27
 22 23  0  0  0  0  0  0  0  0999 V2000
  -30.9090    1.8408  -10.4372 N   0  0  0  0  0  0  0  0  0  0  0  0
  -28.3403    1.3350  -12.5817 C   0  0  1  0  0  0  0  0  0  0  0  0
  -29.1268    2.3005  -11.8273 O   0  0  0  0  0  0  0  0  0  0  0  0
  -28.1893    2.8397  -15.2067 P   0  0  1  0  0  0  0  0  0  0  0  0
  -29.5502    1.6724  -10.6064 C   0  0  2  0  0  0  0  0  0  0  0  0
  -33.0527    1.5868  -10.6633 N   0  0  0  0  0  0  0  0  0  0  0  0
  -29.1770   -0.4491   -9.5789 O   0  0  0  0  0  0  0  0  0  0  0  0
  -29.3329    0.2259  -10.8326 C   0  0  2  0  0  0  0  0  0  0  0  0
  -34.0475    2.9121   -7.5735 N   0  0  0  0  0  0  0  0  0  0  0  0
  -26.9693    0.4654  -10.8909 O   0  0  0  0  0  0  0  0  0  0  0  0
  -28.1424    0.1847  -11.6729 C   0  0  2  0  0  0  0  0  0  0  0  0
  -32.8377    2.4944   -9.6986 C   0  0  0  0  0  0  0  0  0  0  0  0
  -30.8429    3.5059   -8.6210 N   0  0  0  0  0  0  0  0  0  0  0  0
  -29.3780    2.1456  -14.4558 O   0  0  0  0  0  0  0  0  0  0  0  0
  -29.1437    0.9545  -13.7774 C   0  0  0  0  0  0  0  0  0  0  0  0
  -27.3636    3.4968  -14.0418 O   0  0  0  0  0  0  0  0  0  0  0  0
  -31.8524    1.1868  -11.1248 C   0  0  0  0  0  0  0  0  0  0  0  0
  -34.6133    4.0229   -9.4792 O   0  0  0  0  0  0  0  0  0  0  0  0
  -33.8814    3.1989   -8.9311 C   0  0  0  0  0  0  0  0  0  0  0  0
  -31.4901    2.6574   -9.5483 C   0  0  0  0  0  0  0  0  0  0  0  0
  -27.4380    1.8256  -16.0037 O   0  5  0  0  0  0  0  0  0  0  0  0
  -28.6912    3.7340  -16.2654 O   0  0  0  0  0  0  0  0  0  0  0  0
  1 17  1  0  0  0  0
  1 20  1  0  0  0  0
  2 15  1  6  0  0  0
  2  3  1  0  0  0  0
  2 11  1  0  0  0  0
  3  5  1  0  0  0  0
  4 16  1  1  0  0  0
  4 21  1  0  0  0  0
  4 22  2  0  0  0  0
  4 14  1  0  0  0  0
  5  1  1  6  0  0  0
  5  8  1  0  0  0  0
  6 17  2  0  0  0  0
  6 12  1  0  0  0  0
  8  7  1  1  0  0  0
  8 11  1  0  0  0  0
  9 19  1  0  0  0  0
 11 10  1  1  0  0  0
 12 20  2  0  0  0  0
 12 19  1  0  0  0  0
 13 20  1  0  0  0  0
 14 15  1  0  0  0  0
 18 19  2  0  0  0  0
M  CHG  1  21  -1
M  END
>  <CHROM.1>
74.17490698,58.35902990,-76.22552935,71.66568033,111.01384815,-30.00159828
2.06281949,-11.83141215,-2.44596243,0.54675852,-1.07328350

>  <Name>
ligand

>  <RI>
0

>  <Rbt.Current_Directory>
/home/itssahil/PROJECTS/Mol_Feturizer/Test_systems_manuscript/rnas/4xwf

>  <Rbt.Executable>
rbdock ($Id: //depot/dev/client3/rdock/2013.1/src/exe/rbdock.cxx#4 $)

>  <Rbt.Library>
libRbt.so (2013.1, Build901 2013/11/27)

>  <Rbt.Parameter_File>
/export/apps/rDock/src/rDock_2013.1_src/data/scripts/dock_solv.prm

>  <Rbt.Receptor>
prm/pocket_docking_4.prm

>  <SCORE>
-8.63759

>  <SCORE.INTER>
-9.42523

>  <SCORE.INTER.CONST>
1

>  <SCORE.INTER.POLAR>
0

>  <SCORE.INTER.ROT>
5

>  <SCORE.INTER.SOLV>
13.3243

>  <SCORE.INTER.VDW>
-17.6583

>  <SCORE.INTER.norm>
-0.42842

>  <SCORE.INTRA>
0.787641

>  <SCORE.INTRA.DIHEDRAL>
-0.751221

>  <SCORE.INTRA.DIHEDRAL.0>
3.49807

>  <SCORE.INTRA.POLAR>
0

>  <SCORE.INTRA.POLAR.0>
0

>  <SCORE.INTRA.REPUL>
0

>  <SCORE.INTRA.REPUL.0>
0

>  <SCORE.INTRA.SOLV>
0.163859

>  <SCORE.INTRA.SOLV.lig_0>
-73.062

>  <SCORE.INTRA.VDW>
1.08132

>  <SCORE.INTRA.VDW.0>
-1.83782

>  <SCORE.INTRA.norm>
0.0358019

>  <SCORE.RESTR>
0

>  <SCORE.RESTR.CAVITY>
0

>  <SCORE.RESTR.norm>
0

>  <SCORE.SYSTEM>
0

>  <SCORE.SYSTEM.CONST>
0

>  <SCORE.SYSTEM.DIHEDRAL>
0

>  <SCORE.SYSTEM.SOLV>
0

>  <SCORE.SYSTEM.norm>
0

>  <SCORE.heavy>
22

>  <SCORE.norm>
-0.392618

>  <RMSD>
5.159

$$$$
ligand
 OpenBabel02271912143D
libRbt.so/2013.1/901 2013/11/27
 22 23  0  0  0  0  0  0  0  0999 V2000
  -30.4699    4.4449   -9.5631 N   0  0  0  0  0  0  0  0  0  0  0  0
  -27.4894    3.7012  -10.9829 C   0  0  1  0  0  0  0  0  0  0  0  0
  -28.6935    4.5182  -11.0324 O   0  0  0  0  0  0  0  0  0  0  0  0
  -28.8818    1.4014  -13.6481 P   0  0  1  0  0  0  0  0  0  0  0  0
  -29.1298    4.7497   -9.6832 C   0  0  2  0  0  0  0  0  0  0  0  0
  -32.3565    3.3842   -9.7269 N   0  0  0  0  0  0  0  0  0  0  0  0
  -28.2944    4.1945   -7.5176 O   0  0  0  0  0  0  0  0  0  0  0  0
  -28.3991    3.7481   -8.8746 C   0  0  2  0  0  0  0  0  0  0  0  0
  -34.8491    3.9764   -8.1982 N   0  0  0  0  0  0  0  0  0  0  0  0
  -26.2955    4.7779   -9.2771 O   0  0  0  0  0  0  0  0  0  0  0  0
  -27.1146    3.6294   -9.5537 C   0  0  2  0  0  0  0  0  0  0  0  0
  -32.5634    4.4988   -9.0088 C   0  0  0  0  0  0  0  0  0  0  0  0
  -31.1596    6.3806   -8.2017 N   0  0  0  0  0  0  0  0  0  0  0  0
  -28.2709    2.5889  -12.8263 O   0  0  0  0  0  0  0  0  0  0  0  0
  -27.8483    2.3591  -11.5215 C   0  0  0  0  0  0  0  0  0  0  0  0
  -27.6949    0.3744  -13.7315 O   0  0  0  0  0  0  0  0  0  0  0  0
  -31.0560    3.3564  -10.0752 C   0  0  0  0  0  0  0  0  0  0  0  0
  -34.0626    6.1134   -8.1827 O   0  0  0  0  0  0  0  0  0  0  0  0
  -33.8532    4.9273   -8.4365 C   0  0  0  0  0  0  0  0  0  0  0  0
  -31.3794    5.1704   -8.8988 C   0  0  0  0  0  0  0  0  0  0  0  0
  -30.1000    0.8862  -12.9565 O   0  5  0  0  0  0  0  0  0  0  0  0
  -29.4472    1.8835  -14.9211 O   0  0  0  0  0  0  0  0  0  0  0  0
  1 17  1  0  0  0  0
  1 20  1  0  0  0  0
  2 15  1  1  0  0  0
  2  3  1  0  0  0  0
  2 11  1  0  0  0  0
  3  5  1  0  0  0  0
  4 16  1  6  0  0  0
  4 21  1  0  0  0  0
  4 22  2  0  0  0  0
  4 14  1  0  0  0  0
  5  1  1  6  0  0  0
  5  8  1  0  0  0  0
  6 17  2  0  0  0  0
  6 12  1  0  0  0  0
  8  7  1  1  0  0  0
  8 11  1  0  0  0  0
  9 19  1  0  0  0  0
 11 10  1  1  0  0  0
 12 20  2  0  0  0  0
 12 19  1  0  0  0  0
 13 20  1  0  0  0  0
 14 15  1  0  0  0  0
 18 19  2  0  0  0  0
M  CHG  1  21  -1
M  END
>  <CHROM.1>
44.23792801,60.54754425,-62.09686673,-173.17372317,22.90563686,-29.84377731
3.51915760,-10.56597762,-2.20359715,-0.00397182,-2.18591769

>  <Name>
ligand

>  <RI>
0

>  <Rbt.Current_Directory>
/home/itssahil/PROJECTS/Mol_Feturizer/Test_systems_manuscript/rnas/4xwf

>  <Rbt.Executable>
rbdock ($Id: //depot/dev/client3/rdock/2013.1/src/exe/rbdock.cxx#4 $)

>  <Rbt.Library>
libRbt.so (2013.1, Build901 2013/11/27)

>  <Rbt.Parameter_File>
/export/apps/rDock/src/rDock_2013.1_src/data/scripts/dock_solv.prm

>  <Rbt.Receptor>
prm/pocket_docking_4.prm

>  <SCORE>
-5.14413

>  <SCORE.INTER>
-4.04361

>  <SCORE.INTER.CONST>
1

>  <SCORE.INTER.POLAR>
0

>  <SCORE.INTER.ROT>
5

>  <SCORE.INTER.SOLV>
21.5232

>  <SCORE.INTER.VDW>
-16.8035

>  <SCORE.INTER.norm>
-0.183801

>  <SCORE.INTRA>
-1.10492

>  <SCORE.INTRA.DIHEDRAL>
-1.21674

>  <SCORE.INTRA.DIHEDRAL.0>
3.49807

>  <SCORE.INTRA.POLAR>
0

>  <SCORE.INTRA.POLAR.0>
0

>  <SCORE.INTRA.REPUL>
0

>  <SCORE.INTRA.REPUL.0>
0

>  <SCORE.INTRA.SOLV>
-0.359019

>  <SCORE.INTRA.SOLV.lig_0>
-73.062

>  <SCORE.INTRA.VDW>
-0.317037

>  <SCORE.INTRA.VDW.0>
-1.83782

>  <SCORE.INTRA.norm>
-0.0502236

>  <SCORE.RESTR>
0.00440228

>  <SCORE.RESTR.CAVITY>
0.00440228

>  <SCORE.RESTR.norm>
0.000200104

>  <SCORE.SYSTEM>
0

>  <SCORE.SYSTEM.CONST>
0

>  <SCORE.SYSTEM.DIHEDRAL>
0

>  <SCORE.SYSTEM.SOLV>
0

>  <SCORE.SYSTEM.norm>
0

>  <SCORE.heavy>
22

>  <SCORE.norm>
-0.233824

>  <RMSD>
5.190

$$$$
ligand
 OpenBabel02271912143D
libRbt.so/2013.1/901 2013/11/27
 22 23  0  0  0  0  0  0  0  0999 V2000
  -30.5532    1.6848  -11.1494 N   0  0  0  0  0  0  0  0  0  0  0  0
  -28.1655    2.1284  -13.5062 C   0  0  1  0  0  0  0  0  0  0  0  0
  -28.8196    2.6584  -12.3182 O   0  0  0  0  0  0  0  0  0  0  0  0
  -29.6293    4.3811  -16.1697 P   0  0  1  0  0  0  0  0  0  0  0  0
  -29.2264    1.5483  -11.5018 C   0  0  2  0  0  0  0  0  0  0  0  0
  -32.6891    1.3229  -11.0153 N   0  0  0  0  0  0  0  0  0  0  0  0
  -28.9838   -0.8225  -11.6294 O   0  0  0  0  0  0  0  0  0  0  0  0
  -29.1507    0.3738  -12.3993 C   0  0  2  0  0  0  0  0  0  0  0  0
  -33.1247    3.2224   -8.0063 N   0  0  0  0  0  0  0  0  0  0  0  0
  -26.7824    0.4921  -12.5553 O   0  0  0  0  0  0  0  0  0  0  0  0
  -28.0183    0.6762  -13.2661 C   0  0  2  0  0  0  0  0  0  0  0  0
  -32.3872    2.3524  -10.2093 C   0  0  0  0  0  0  0  0  0  0  0  0
  -30.3168    3.5669   -9.5754 N   0  0  0  0  0  0  0  0  0  0  0  0
  -28.9689    3.7716  -14.8848 O   0  0  0  0  0  0  0  0  0  0  0  0
  -29.0661    2.4026  -14.6611 C   0  0  0  0  0  0  0  0  0  0  0  0
  -28.9444    3.5836  -17.3382 O   0  0  0  0  0  0  0  0  0  0  0  0
  -31.5485    0.9139  -11.6029 C   0  0  0  0  0  0  0  0  0  0  0  0
  -34.3419    3.6227   -9.8888 O   0  0  0  0  0  0  0  0  0  0  0  0
  -33.3457    3.1078   -9.3814 C   0  0  0  0  0  0  0  0  0  0  0  0
  -31.0434    2.5842  -10.2860 C   0  0  0  0  0  0  0  0  0  0  0  0
  -31.1117    4.2221  -16.0962 O   0  5  0  0  0  0  0  0  0  0  0  0
  -29.4904    5.8484  -16.1826 O   0  0  0  0  0  0  0  0  0  0  0  0
  1 17  1  0  0  0  0
  1 20  1  0  0  0  0
  2 15  1  6  0  0  0
  2  3  1  0  0  0  0
  2 11  1  0  0  0  0
  3  5  1  0  0  0  0
  4 16  1  6  0  0  0
  4 21  1  0  0  0  0
  4 22  2  0  0  0  0
  4 14  1  0  0  0  0
  5  1  1  6  0  0  0
  5  8  1  0  0  0  0
  6 17  2  0  0  0  0
  6 12  1  0  0  0  0
  8  7  1  1  0  0  0
  8 11  1  0  0  0  0
  9 19  1  0  0  0  0
 11 10  1  1  0  0  0
 12 20  2  0  0  0  0
 12 19  1  0  0  0  0
 13 20  1  0  0  0  0
 14 15  1  0  0  0  0
 18 19  2  0  0  0  0
M  CHG  1  21  -1
M  END
>  <CHROM.1>
110.34065556,72.77072320,-57.28021120,171.11000713,124.70581673,-30.17410312
2.58176995,-12.74633548,-2.15886785,0.63981925,-0.96645365

>  <Name>
ligand

>  <RI>
0

>  <Rbt.Current_Directory>
/home/itssahil/PROJECTS/Mol_Feturizer/Test_systems_manuscript/rnas/4xwf

>  <Rbt.Executable>
rbdock ($Id: //depot/dev/client3/rdock/2013.1/src/exe/rbdock.cxx#4 $)

>  <Rbt.Library>
libRbt.so (2013.1, Build901 2013/11/27)

>  <Rbt.Parameter_File>
/export/apps/rDock/src/rDock_2013.1_src/data/scripts/dock_solv.prm

>  <Rbt.Receptor>
prm/pocket_docking_5.prm

>  <SCORE>
-9.29076

>  <SCORE.INTER>
-10.6435

>  <SCORE.INTER.CONST>
1

>  <SCORE.INTER.POLAR>
0

>  <SCORE.INTER.ROT>
5

>  <SCORE.INTER.SOLV>
17.9419

>  <SCORE.INTER.VDW>
-20.0097

>  <SCORE.INTER.norm>
-0.483797

>  <SCORE.INTRA>
1.35276

>  <SCORE.INTRA.DIHEDRAL>
-0.963886

>  <SCORE.INTRA.DIHEDRAL.0>
3.49807

>  <SCORE.INTRA.POLAR>
0

>  <SCORE.INTRA.POLAR.0>
0

>  <SCORE.INTRA.REPUL>
0

>  <SCORE.INTRA.REPUL.0>
0

>  <SCORE.INTRA.SOLV>
-0.745351

>  <SCORE.INTRA.SOLV.lig_0>
-73.062

>  <SCORE.INTRA.VDW>
2.20738

>  <SCORE.INTRA.VDW.0>
-1.83782

>  <SCORE.INTRA.norm>
0.0614891

>  <SCORE.RESTR>
0

>  <SCORE.RESTR.CAVITY>
0

>  <SCORE.RESTR.norm>
0

>  <SCORE.SYSTEM>
0

>  <SCORE.SYSTEM.CONST>
0

>  <SCORE.SYSTEM.DIHEDRAL>
0

>  <SCORE.SYSTEM.SOLV>
0

>  <SCORE.SYSTEM.norm>
0

>  <SCORE.heavy>
22

>  <SCORE.norm>
-0.422307

>  <RMSD>
5.199

$$$$
ligand
 OpenBabel02271912143D
libRbt.so/2013.1/901 2013/11/27
 22 23  0  0  0  0  0  0  0  0999 V2000
  -30.3669    1.8879  -11.0732 N   0  0  0  0  0  0  0  0  0  0  0  0
  -28.1193    2.0303  -13.5992 C   0  0  1  0  0  0  0  0  0  0  0  0
  -28.6307    2.6513  -12.3856 O   0  0  0  0  0  0  0  0  0  0  0  0
  -29.5901    4.4011  -16.1494 P   0  0  1  0  0  0  0  0  0  0  0  0
  -29.0890    1.6077  -11.5109 C   0  0  2  0  0  0  0  0  0  0  0  0
  -32.4892    1.6819  -10.6679 N   0  0  0  0  0  0  0  0  0  0  0  0
  -29.0971   -0.7778  -11.5846 O   0  0  0  0  0  0  0  0  0  0  0  0
  -29.1962    0.4118  -12.3764 C   0  0  2  0  0  0  0  0  0  0  0  0
  -34.2856    3.5707   -9.2883 N   0  0  0  0  0  0  0  0  0  0  0  0
  -26.8451    0.2820  -12.6967 O   0  0  0  0  0  0  0  0  0  0  0  0
  -28.1031    0.5764  -13.3268 C   0  0  2  0  0  0  0  0  0  0  0  0
  -32.0698    2.8365  -10.1280 C   0  0  0  0  0  0  0  0  0  0  0  0
  -29.9034    4.0372   -9.9589 N   0  0  0  0  0  0  0  0  0  0  0  0
  -28.9284    3.7398  -14.8911 O   0  0  0  0  0  0  0  0  0  0  0  0
  -29.0670    2.3697  -14.6977 C   0  0  0  0  0  0  0  0  0  0  0  0
  -31.1221    4.1191  -15.9393 O   0  0  0  0  0  0  0  0  0  0  0  0
  -31.4303    1.0974  -11.2600 C   0  0  0  0  0  0  0  0  0  0  0  0
  -32.4143    4.8036   -8.8834 O   0  0  0  0  0  0  0  0  0  0  0  0
  -32.9107    3.7986   -9.3919 C   0  0  0  0  0  0  0  0  0  0  0  0
  -30.7336    2.9718  -10.3764 C   0  0  0  0  0  0  0  0  0  0  0  0
  -29.2281    5.8481  -16.2053 O   0  5  0  0  0  0  0  0  0  0  0  0
  -28.9751    3.8951  -17.3897 O   0  0  0  0  0  0  0  0  0  0  0  0
  1 17  1  0  0  0  0
  1 20  1  0  0  0  0
  2 15  1  6  0  0  0
  2  3  1  0  0  0  0
  2 11  1  0  0  0  0
  3  5  1  0  0  0  0
  4 16  1  6  0  0  0
  4 21  1  0  0  0  0
  4 22  2  0  0  0  0
  4 14  1  0  0  0  0
  5  1  1  6  0  0  0
  5  8  1  0  0  0  0
  6 17  2  0  0  0  0
  6 12  1  0  0  0  0
  8  7  1  1  0  0  0
  8 11  1  0  0  0  0
  9 19  1  0  0  0  0
 11 10  1  1  0  0  0
 12 20  2  0  0  0  0
 12 19  1  0  0  0  0
 13 20  1  0  0  0  0
 14 15  1  0  0  0  0
 18 19  2  0  0  0  0
M  CHG  1  21  -1
M  END
>  <CHROM.1>
121.46979801,67.90535063,61.72383472,169.08965944,-4.05097172,-30.03359417
2.75834065,-12.74795763,-2.20964817,0.76838610,-0.94375052

>  <Name>
ligand

>  <RI>
0

>  <Rbt.Current_Directory>
/home/itssahil/PROJECTS/Mol_Feturizer/Test_systems_manuscript/rnas/4xwf

>  <Rbt.Executable>
rbdock ($Id: //depot/dev/client3/rdock/2013.1/src/exe/rbdock.cxx#4 $)

>  <Rbt.Library>
libRbt.so (2013.1, Build901 2013/11/27)

>  <Rbt.Parameter_File>
/export/apps/rDock/src/rDock_2013.1_src/data/scripts/dock_solv.prm

>  <Rbt.Receptor>
prm/pocket_docking_6.prm

>  <SCORE>
-9.35433

>  <SCORE.INTER>
-10.7887

>  <SCORE.INTER.CONST>
1

>  <SCORE.INTER.POLAR>
0

>  <SCORE.INTER.ROT>
5

>  <SCORE.INTER.SOLV>
18.0497

>  <SCORE.INTER.VDW>
-20.1424

>  <SCORE.INTER.norm>
-0.490397

>  <SCORE.INTRA>
1.43441

>  <SCORE.INTRA.DIHEDRAL>
-1.16212

>  <SCORE.INTRA.DIHEDRAL.0>
3.49807

>  <SCORE.INTRA.POLAR>
0

>  <SCORE.INTRA.POLAR.0>
0

>  <SCORE.INTRA.REPUL>
0

>  <SCORE.INTRA.REPUL.0>
0

>  <SCORE.INTRA.SOLV>
-0.498821

>  <SCORE.INTRA.SOLV.lig_0>
-73.062

>  <SCORE.INTRA.VDW>
2.26488

>  <SCORE.INTRA.VDW.0>
-1.83782

>  <SCORE.INTRA.norm>
0.0652003

>  <SCORE.RESTR>
0

>  <SCORE.RESTR.CAVITY>
0

>  <SCORE.RESTR.norm>
0

>  <SCORE.SYSTEM>
0

>  <SCORE.SYSTEM.CONST>
0

>  <SCORE.SYSTEM.DIHEDRAL>
0

>  <SCORE.SYSTEM.SOLV>
0

>  <SCORE.SYSTEM.norm>
0

>  <SCORE.heavy>
22

>  <SCORE.norm>
-0.425197

>  <RMSD>
5.200

$$$$
ligand
 OpenBabel02271912143D
libRbt.so/2013.1/901 2013/11/27
 22 23  0  0  0  0  0  0  0  0999 V2000
  -30.4629    1.7314  -11.1597 N   0  0  0  0  0  0  0  0  0  0  0  0
  -28.1374    2.1380  -13.5844 C   0  0  1  0  0  0  0  0  0  0  0  0
  -28.7511    2.6798  -12.3804 O   0  0  0  0  0  0  0  0  0  0  0  0
  -29.6506    4.3952  -16.2189 P   0  0  1  0  0  0  0  0  0  0  0  0
  -29.1483    1.5775  -11.5489 C   0  0  2  0  0  0  0  0  0  0  0  0
  -32.5955    1.3863  -10.9504 N   0  0  0  0  0  0  0  0  0  0  0  0
  -28.9383   -0.7965  -11.6747 O   0  0  0  0  0  0  0  0  0  0  0  0
  -29.1123    0.3992  -12.4439 C   0  0  2  0  0  0  0  0  0  0  0  0
  -32.9041    3.4071   -7.9914 N   0  0  0  0  0  0  0  0  0  0  0  0
  -26.7481    0.4879  -12.6671 O   0  0  0  0  0  0  0  0  0  0  0  0
  -28.0012    0.6849  -13.3433 C   0  0  2  0  0  0  0  0  0  0  0  0
  -32.2634    2.4351  -10.1820 C   0  0  0  0  0  0  0  0  0  0  0  0
  -30.1681    3.6535   -9.6450 N   0  0  0  0  0  0  0  0  0  0  0  0
  -28.9390    3.7816  -14.9636 O   0  0  0  0  0  0  0  0  0  0  0  0
  -29.0669    2.4195  -14.7144 C   0  0  0  0  0  0  0  0  0  0  0  0
  -29.0111    3.6037  -17.4168 O   0  0  0  0  0  0  0  0  0  0  0  0
  -31.4758    0.9548  -11.5615 C   0  0  0  0  0  0  0  0  0  0  0  0
  -34.2212    3.6915   -9.8271 O   0  0  0  0  0  0  0  0  0  0  0  0
  -33.1919    3.2182   -9.3458 C   0  0  0  0  0  0  0  0  0  0  0  0
  -30.9215    2.6566  -10.3062 C   0  0  0  0  0  0  0  0  0  0  0  0
  -31.1286    4.2334  -16.0876 O   0  5  0  0  0  0  0  0  0  0  0  0
  -29.5146    5.8628  -16.2311 O   0  0  0  0  0  0  0  0  0  0  0  0
  1 17  1  0  0  0  0
  1 20  1  0  0  0  0
  2 15  1  6  0  0  0
  2  3  1  0  0  0  0
  2 11  1  0  0  0  0
  3  5  1  0  0  0  0
  4 16  1  6  0  0  0
  4 21  1  0  0  0  0
  4 22  2  0  0  0  0
  4 14  1  0  0  0  0
  5  1  1  6  0  0  0
  5  8  1  0  0  0  0
  6 17  2  0  0  0  0
  6 12  1  0  0  0  0
  8  7  1  1  0  0  0
  8 11  1  0  0  0  0
  9 19  1  0  0  0  0
 11 10  1  1  0  0  0
 12 20  2  0  0  0  0
 12 19  1  0  0  0  0
 13 20  1  0  0  0  0
 14 15  1  0  0  0  0
 18 19  2  0  0  0  0
M  CHG  1  21  -1
M  END
>  <CHROM.1>
111.74344924,73.94231474,-59.65993454,172.49203498,126.90242384,-30.11969394
2.62226547,-12.77719487,-2.14149323,0.66630209,-0.98252413

>  <Name>
ligand

>  <RI>
0

>  <Rbt.Current_Directory>
/home/itssahil/PROJECTS/Mol_Feturizer/Test_systems_manuscript/rnas/4xwf

>  <Rbt.Executable>
rbdock ($Id: //depot/dev/client3/rdock/2013.1/src/exe/rbdock.cxx#4 $)

>  <Rbt.Library>
libRbt.so (2013.1, Build901 2013/11/27)

>  <Rbt.Parameter_File>
/export/apps/rDock/src/rDock_2013.1_src/data/scripts/dock_solv.prm

>  <Rbt.Receptor>
prm/pocket_docking_7.prm

>  <SCORE>
-9.14287

>  <SCORE.INTER>
-10.5232

>  <SCORE.INTER.CONST>
1

>  <SCORE.INTER.POLAR>
0

>  <SCORE.INTER.ROT>
5

>  <SCORE.INTER.SOLV>
17.342

>  <SCORE.INTER.VDW>
-19.7295

>  <SCORE.INTER.norm>
-0.478327

>  <SCORE.INTRA>
1.38033

>  <SCORE.INTRA.DIHEDRAL>
-0.943184

>  <SCORE.INTRA.DIHEDRAL.0>
3.49807

>  <SCORE.INTRA.POLAR>
0

>  <SCORE.INTRA.POLAR.0>
0

>  <SCORE.INTRA.REPUL>
0

>  <SCORE.INTRA.REPUL.0>
0

>  <SCORE.INTRA.SOLV>
-0.688888

>  <SCORE.INTRA.SOLV.lig_0>
-73.062

>  <SCORE.INTRA.VDW>
2.19636

>  <SCORE.INTRA.VDW.0>
-1.83782

>  <SCORE.INTRA.norm>
0.0627422

>  <SCORE.RESTR>
0

>  <SCORE.RESTR.CAVITY>
0

>  <SCORE.RESTR.norm>
0

>  <SCORE.SYSTEM>
0

>  <SCORE.SYSTEM.CONST>
0

>  <SCORE.SYSTEM.DIHEDRAL>
0

>  <SCORE.SYSTEM.SOLV>
0

>  <SCORE.SYSTEM.norm>
0

>  <SCORE.heavy>
22

>  <SCORE.norm>
-0.415585

>  <RMSD>
5.206

$$$$
ligand
 OpenBabel02271912143D
libRbt.so/2013.1/901 2013/11/27
 22 23  0  0  0  0  0  0  0  0999 V2000
  -30.4715    1.6851  -11.1526 N   0  0  0  0  0  0  0  0  0  0  0  0
  -28.1342    2.0752  -13.5686 C   0  0  1  0  0  0  0  0  0  0  0  0
  -28.7472    2.6204  -12.3658 O   0  0  0  0  0  0  0  0  0  0  0  0
  -29.6490    4.3647  -16.1732 P   0  0  1  0  0  0  0  0  0  0  0  0
  -29.1570    1.5202  -11.5376 C   0  0  2  0  0  0  0  0  0  0  0  0
  -32.6078    1.3584  -10.9508 N   0  0  0  0  0  0  0  0  0  0  0  0
  -28.9678   -0.8554  -11.6670 O   0  0  0  0  0  0  0  0  0  0  0  0
  -29.1285    0.3432  -12.4346 C   0  0  2  0  0  0  0  0  0  0  0  0
  -32.9021    3.3891   -7.9934 N   0  0  0  0  0  0  0  0  0  0  0  0
  -26.7628    0.4111  -12.6495 O   0  0  0  0  0  0  0  0  0  0  0  0
  -28.0118    0.6205  -13.3297 C   0  0  2  0  0  0  0  0  0  0  0  0
  -32.2691    2.4034  -10.1802 C   0  0  0  0  0  0  0  0  0  0  0  0
  -30.1650    3.6029   -9.6347 N   0  0  0  0  0  0  0  0  0  0  0  0
  -28.9499    3.7363  -14.9182 O   0  0  0  0  0  0  0  0  0  0  0  0
  -29.0572    2.3670  -14.7013 C   0  0  0  0  0  0  0  0  0  0  0  0
  -29.0430    3.5451  -17.3697 O   0  0  0  0  0  0  0  0  0  0  0  0
  -31.4898    0.9178  -11.5587 C   0  0  0  0  0  0  0  0  0  0  0  0
  -34.2225    3.6673   -9.8278 O   0  0  0  0  0  0  0  0  0  0  0  0
  -33.1935    3.1937   -9.3461 C   0  0  0  0  0  0  0  0  0  0  0  0
  -30.9248    2.6134  -10.2996 C   0  0  0  0  0  0  0  0  0  0  0  0
  -31.1306    4.2519  -16.0320 O   0  5  0  0  0  0  0  0  0  0  0  0
  -29.4654    5.8270  -16.1960 O   0  0  0  0  0  0  0  0  0  0  0  0
  1 17  1  0  0  0  0
  1 20  1  0  0  0  0
  2 15  1  6  0  0  0
  2  3  1  0  0  0  0
  2 11  1  0  0  0  0
  3  5  1  0  0  0  0
  4 16  1  6  0  0  0
  4 21  1  0  0  0  0
  4 22  2  0  0  0  0
  4 14  1  0  0  0  0
  5  1  1  6  0  0  0
  5  8  1  0  0  0  0
  6 17  2  0  0  0  0
  6 12  1  0  0  0  0
  8  7  1  1  0  0  0
  8 11  1  0  0  0  0
  9 19  1  0  0  0  0
 11 10  1  1  0  0  0
 12 20  2  0  0  0  0
 12 19  1  0  0  0  0
 13 20  1  0  0  0  0
 14 15  1  0  0  0  0
 18 19  2  0  0  0  0
M  CHG  1  21  -1
M  END
>  <CHROM.1>
111.78321245,72.00387916,-56.01998891,171.95838383,127.49914956,-30.12377287
2.58004576,-12.75851077,-2.15019653,0.67213275,-0.97345560

>  <Name>
ligand

>  <RI>
0

>  <Rbt.Current_Directory>
/home/itssahil/PROJECTS/Mol_Feturizer/Test_systems_manuscript/rnas/4xwf

>  <Rbt.Executable>
rbdock ($Id: //depot/dev/client3/rdock/2013.1/src/exe/rbdock.cxx#4 $)

>  <Rbt.Library>
libRbt.so (2013.1, Build901 2013/11/27)

>  <Rbt.Parameter_File>
/export/apps/rDock/src/rDock_2013.1_src/data/scripts/dock_solv.prm

>  <Rbt.Receptor>
prm/pocket_docking_7.prm

>  <SCORE>
-9.18956

>  <SCORE.INTER>
-10.5527

>  <SCORE.INTER.CONST>
1

>  <SCORE.INTER.POLAR>
0

>  <SCORE.INTER.ROT>
5

>  <SCORE.INTER.SOLV>
17.5073

>  <SCORE.INTER.VDW>
-19.8042

>  <SCORE.INTER.norm>
-0.479668

>  <SCORE.INTRA>
1.36314

>  <SCORE.INTRA.DIHEDRAL>
-1.04963

>  <SCORE.INTRA.DIHEDRAL.0>
3.49807

>  <SCORE.INTRA.POLAR>
0

>  <SCORE.INTRA.POLAR.0>
0

>  <SCORE.INTRA.REPUL>
0

>  <SCORE.INTRA.REPUL.0>
0

>  <SCORE.INTRA.SOLV>
-0.706484

>  <SCORE.INTRA.SOLV.lig_0>
-73.062

>  <SCORE.INTRA.VDW>
2.24119

>  <SCORE.INTRA.VDW.0>
-1.83782

>  <SCORE.INTRA.norm>
0.0619608

>  <SCORE.RESTR>
0

>  <SCORE.RESTR.CAVITY>
0

>  <SCORE.RESTR.norm>
0

>  <SCORE.SYSTEM>
0

>  <SCORE.SYSTEM.CONST>
0

>  <SCORE.SYSTEM.DIHEDRAL>
0

>  <SCORE.SYSTEM.SOLV>
0

>  <SCORE.SYSTEM.norm>
0

>  <SCORE.heavy>
22

>  <SCORE.norm>
-0.417707

>  <RMSD>
5.210

$$$$
ligand
 OpenBabel02271912143D
libRbt.so/2013.1/901 2013/11/27
 22 23  0  0  0  0  0  0  0  0999 V2000
  -30.5249    1.7103  -11.1386 N   0  0  0  0  0  0  0  0  0  0  0  0
  -28.1591    2.1027  -13.5264 C   0  0  1  0  0  0  0  0  0  0  0  0
  -28.7934    2.6519  -12.3364 O   0  0  0  0  0  0  0  0  0  0  0  0
  -29.6442    4.3596  -16.1715 P   0  0  1  0  0  0  0  0  0  0  0  0
  -29.2039    1.5548  -11.5045 C   0  0  2  0  0  0  0  0  0  0  0  0
  -32.6593    1.3608  -10.9568 N   0  0  0  0  0  0  0  0  0  0  0  0
  -28.9904   -0.8199  -11.6114 O   0  0  0  0  0  0  0  0  0  0  0  0
  -29.1521    0.3707  -12.3912 C   0  0  2  0  0  0  0  0  0  0  0  0
  -32.9890    3.4851   -8.0541 N   0  0  0  0  0  0  0  0  0  0  0  0
  -26.7845    0.4596  -12.5750 O   0  0  0  0  0  0  0  0  0  0  0  0
  -28.0261    0.6513  -13.2736 C   0  0  2  0  0  0  0  0  0  0  0  0
  -32.3430    2.4235  -10.2012 C   0  0  0  0  0  0  0  0  0  0  0  0
  -30.2605    3.6586   -9.6521 N   0  0  0  0  0  0  0  0  0  0  0  0
  -28.9959    3.7493  -14.8808 O   0  0  0  0  0  0  0  0  0  0  0  0
  -29.0695    2.3762  -14.6737 C   0  0  0  0  0  0  0  0  0  0  0  0
  -31.1791    4.0932  -15.9627 O   0  0  0  0  0  0  0  0  0  0  0  0
  -31.5286    0.9232  -11.5430 C   0  0  0  0  0  0  0  0  0  0  0  0
  -34.3379    3.6303   -9.8830 O   0  0  0  0  0  0  0  0  0  0  0  0
  -33.2871    3.2171   -9.3928 C   0  0  0  0  0  0  0  0  0  0  0  0
  -31.0000    2.6480  -10.3081 C   0  0  0  0  0  0  0  0  0  0  0  0
  -29.2751    5.8014  -16.2854 O   0  5  0  0  0  0  0  0  0  0  0  0
  -29.0212    3.7991  -17.3841 O   0  0  0  0  0  0  0  0  0  0  0  0
  1 17  1  0  0  0  0
  1 20  1  0  0  0  0
  2 15  1  6  0  0  0
  2  3  1  0  0  0  0
  2 11  1  0  0  0  0
  3  5  1  0  0  0  0
  4 16  1  6  0  0  0
  4 21  1  0  0  0  0
  4 22  2  0  0  0  0
  4 14  1  0  0  0  0
  5  1  1  6  0  0  0
  5  8  1  0  0  0  0
  6 17  2  0  0  0  0
  6 12  1  0  0  0  0
  8  7  1  1  0  0  0
  8 11  1  0  0  0  0
  9 19  1  0  0  0  0
 11 10  1  1  0  0  0
 12 20  2  0  0  0  0
 12 19  1  0  0  0  0
 13 20  1  0  0  0  0
 14 15  1  0  0  0  0
 18 19  2  0  0  0  0
M  CHG  1  21  -1
M  END
>  <CHROM.1>
112.36418020,70.67513199,65.75015109,169.73541653,130.01232874,-30.15496784
2.60322677,-12.75024643,-2.16148244,0.65303349,-0.96826788

>  <Name>
ligand

>  <RI>
0

>  <Rbt.Current_Directory>
/home/itssahil/PROJECTS/Mol_Feturizer/Test_systems_manuscript/rnas/4xwf

>  <Rbt.Executable>
rbdock ($Id: //depot/dev/client3/rdock/2013.1/src/exe/rbdock.cxx#4 $)

>  <Rbt.Library>
libRbt.so (2013.1, Build901 2013/11/27)

>  <Rbt.Parameter_File>
/export/apps/rDock/src/rDock_2013.1_src/data/scripts/dock_solv.prm

>  <Rbt.Receptor>
prm/pocket_docking_5.prm

>  <SCORE>
-10.3842

>  <SCORE.INTER>
-11.8026

>  <SCORE.INTER.CONST>
1

>  <SCORE.INTER.POLAR>
0

>  <SCORE.INTER.ROT>
5

>  <SCORE.INTER.SOLV>
15.2413

>  <SCORE.INTER.VDW>
-19.8822

>  <SCORE.INTER.norm>
-0.536483

>  <SCORE.INTRA>
1.41841

>  <SCORE.INTRA.DIHEDRAL>
-0.888935

>  <SCORE.INTRA.DIHEDRAL.0>
3.49807

>  <SCORE.INTRA.POLAR>
0

>  <SCORE.INTRA.POLAR.0>
0

>  <SCORE.INTRA.REPUL>
0

>  <SCORE.INTRA.REPUL.0>
0

>  <SCORE.INTRA.SOLV>
-0.572399

>  <SCORE.INTRA.SOLV.lig_0>
-73.062

>  <SCORE.INTRA.VDW>
2.14907

>  <SCORE.INTRA.VDW.0>
-1.83782

>  <SCORE.INTRA.norm>
0.0644731

>  <SCORE.RESTR>
0

>  <SCORE.RESTR.CAVITY>
0

>  <SCORE.RESTR.norm>
0

>  <SCORE.SYSTEM>
0

>  <SCORE.SYSTEM.CONST>
0

>  <SCORE.SYSTEM.DIHEDRAL>
0

>  <SCORE.SYSTEM.SOLV>
0

>  <SCORE.SYSTEM.norm>
0

>  <SCORE.heavy>
22

>  <SCORE.norm>
-0.47201

>  <RMSD>
5.215

$$$$
ligand
 OpenBabel02271912143D
libRbt.so/2013.1/901 2013/11/27
 22 23  0  0  0  0  0  0  0  0999 V2000
  -30.2818    1.5566  -11.4055 N   0  0  0  0  0  0  0  0  0  0  0  0
  -28.0215    2.3510  -13.7956 C   0  0  1  0  0  0  0  0  0  0  0  0
  -28.6985    2.7604  -12.5734 O   0  0  0  0  0  0  0  0  0  0  0  0
  -29.7644    4.5195  -16.3562 P   0  0  1  0  0  0  0  0  0  0  0  0
  -28.9578    1.5826  -11.7925 C   0  0  2  0  0  0  0  0  0  0  0  0
  -32.3883    1.0392  -11.3293 N   0  0  0  0  0  0  0  0  0  0  0  0
  -28.4570   -0.7399  -12.0189 O   0  0  0  0  0  0  0  0  0  0  0  0
  -28.7761    0.4576  -12.7371 C   0  0  2  0  0  0  0  0  0  0  0  0
  -33.7817    3.5934   -9.5975 N   0  0  0  0  0  0  0  0  0  0  0  0
  -26.4405    0.8460  -12.9411 O   0  0  0  0  0  0  0  0  0  0  0  0
  -27.7076    0.9165  -13.6163 C   0  0  2  0  0  0  0  0  0  0  0  0
  -32.1298    1.8921  -10.3261 C   0  0  0  0  0  0  0  0  0  0  0  0
  -30.1217    3.0745   -9.4700 N   0  0  0  0  0  0  0  0  0  0  0  0
  -29.0339    3.9430  -15.0942 O   0  0  0  0  0  0  0  0  0  0  0  0
  -28.9773    2.5648  -14.9184 C   0  0  0  0  0  0  0  0  0  0  0  0
  -31.2778    4.2069  -16.0689 O   0  0  0  0  0  0  0  0  0  0  0  0
  -31.2394    0.8373  -12.0022 C   0  0  0  0  0  0  0  0  0  0  0  0
  -33.3340    1.7706   -8.3081 O   0  0  0  0  0  0  0  0  0  0  0  0
  -33.1121    2.3927   -9.3468 C   0  0  0  0  0  0  0  0  0  0  0  0
  -30.8046    2.2200  -10.3657 C   0  0  0  0  0  0  0  0  0  0  0  0
  -29.4477    5.9709  -16.5008 O   0  5  0  0  0  0  0  0  0  0  0  0
  -29.1847    3.9665  -17.5935 O   0  0  0  0  0  0  0  0  0  0  0  0
  1 17  1  0  0  0  0
  1 20  1  0  0  0  0
  2 15  1  6  0  0  0
  2  3  1  0  0  0  0
  2 11  1  0  0  0  0
  3  5  1  0  0  0  0
  4 16  1  1  0  0  0
  4 21  1  0  0  0  0
  4 22  2  0  0  0  0
  4 14  1  0  0  0  0
  5  1  1  6  0  0  0
  5  8  1  0  0  0  0
  6 17  2  0  0  0  0
  6 12  1  0  0  0  0
  8  7  1  1  0  0  0
  8 11  1  0  0  0  0
  9 19  1  0  0  0  0
 11 10  1  1  0  0  0
 12 20  2  0  0  0  0
 12 19  1  0  0  0  0
 13 20  1  0  0  0  0
 14 15  1  0  0  0  0
 18 19  2  0  0  0  0
M  CHG  1  21  -1
M  END
>  <CHROM.1>
99.88822821,73.03997138,69.95368682,169.82847969,-92.63725399,-30.02073707
2.51132030,-12.94295231,-2.03991605,0.55833784,-0.97409223

>  <Name>
ligand

>  <RI>
0

>  <Rbt.Current_Directory>
/home/itssahil/PROJECTS/Mol_Feturizer/Test_systems_manuscript/rnas/4xwf

>  <Rbt.Executable>
rbdock ($Id: //depot/dev/client3/rdock/2013.1/src/exe/rbdock.cxx#4 $)

>  <Rbt.Library>
libRbt.so (2013.1, Build901 2013/11/27)

>  <Rbt.Parameter_File>
/export/apps/rDock/src/rDock_2013.1_src/data/scripts/dock_solv.prm

>  <Rbt.Receptor>
prm/pocket_docking_7.prm

>  <SCORE>
-9.3873

>  <SCORE.INTER>
-10.7545

>  <SCORE.INTER.CONST>
1

>  <SCORE.INTER.POLAR>
0

>  <SCORE.INTER.ROT>
5

>  <SCORE.INTER.SOLV>
13.6692

>  <SCORE.INTER.VDW>
-18.6594

>  <SCORE.INTER.norm>
-0.488841

>  <SCORE.INTRA>
1.3672

>  <SCORE.INTRA.DIHEDRAL>
0.00926712

>  <SCORE.INTRA.DIHEDRAL.0>
3.49807

>  <SCORE.INTRA.POLAR>
0

>  <SCORE.INTRA.POLAR.0>
0

>  <SCORE.INTRA.REPUL>
0

>  <SCORE.INTRA.REPUL.0>
0

>  <SCORE.INTRA.SOLV>
-0.931976

>  <SCORE.INTRA.SOLV.lig_0>
-73.062

>  <SCORE.INTRA.VDW>
1.82855

>  <SCORE.INTRA.VDW.0>
-1.83782

>  <SCORE.INTRA.norm>
0.0621453

>  <SCORE.RESTR>
0

>  <SCORE.RESTR.CAVITY>
0

>  <SCORE.RESTR.norm>
0

>  <SCORE.SYSTEM>
0

>  <SCORE.SYSTEM.CONST>
0

>  <SCORE.SYSTEM.DIHEDRAL>
0

>  <SCORE.SYSTEM.SOLV>
0

>  <SCORE.SYSTEM.norm>
0

>  <SCORE.heavy>
22

>  <SCORE.norm>
-0.426695

>  <RMSD>
5.217

$$$$
ligand
 OpenBabel02271912143D
libRbt.so/2013.1/901 2013/11/27
 22 23  0  0  0  0  0  0  0  0999 V2000
  -31.0013    2.0814  -10.2273 N   0  0  0  0  0  0  0  0  0  0  0  0
  -28.5455    1.3544  -12.4393 C   0  0  1  0  0  0  0  0  0  0  0  0
  -29.2249    2.3847  -11.6669 O   0  0  0  0  0  0  0  0  0  0  0  0
  -28.2316    2.6166  -15.2369 P   0  0  1  0  0  0  0  0  0  0  0  0
  -29.6672    1.7965  -10.4329 C   0  0  2  0  0  0  0  0  0  0  0  0
  -33.1642    2.0144  -10.3957 N   0  0  0  0  0  0  0  0  0  0  0  0
  -29.4500   -0.3485   -9.4092 O   0  0  0  0  0  0  0  0  0  0  0  0
  -29.5815    0.3365  -10.6603 C   0  0  2  0  0  0  0  0  0  0  0  0
  -34.0228    5.0301   -8.9656 N   0  0  0  0  0  0  0  0  0  0  0  0
  -27.2086    0.3714  -10.7838 O   0  0  0  0  0  0  0  0  0  0  0  0
  -28.4225    0.1921  -11.5326 C   0  0  2  0  0  0  0  0  0  0  0  0
  -32.8458    2.8978   -9.4372 C   0  0  0  0  0  0  0  0  0  0  0  0
  -30.7428    3.7306   -8.4138 N   0  0  0  0  0  0  0  0  0  0  0  0
  -29.4631    2.2201  -14.3511 O   0  0  0  0  0  0  0  0  0  0  0  0
  -29.4112    1.0436  -13.6115 C   0  0  0  0  0  0  0  0  0  0  0  0
  -28.1522    1.4481  -16.2851 O   0  0  0  0  0  0  0  0  0  0  0  0
  -32.0159    1.5131  -10.8892 C   0  0  0  0  0  0  0  0  0  0  0  0
  -34.3972    3.1807   -7.6907 O   0  0  0  0  0  0  0  0  0  0  0  0
  -33.8036    3.6883   -8.6420 C   0  0  0  0  0  0  0  0  0  0  0  0
  -31.4855    2.9433   -9.3232 C   0  0  0  0  0  0  0  0  0  0  0  0
  -28.4541    3.9679  -15.8306 O   0  5  0  0  0  0  0  0  0  0  0  0
  -27.0414    2.8544  -14.4005 O   0  0  0  0  0  0  0  0  0  0  0  0
  1 17  1  0  0  0  0
  1 20  1  0  0  0  0
  2 15  1  6  0  0  0
  2  3  1  0  0  0  0
  2 11  1  0  0  0  0
  3  5  1  0  0  0  0
  4 16  1  6  0  0  0
  4 21  1  0  0  0  0
  4 22  2  0  0  0  0
  4 14  1  0  0  0  0
  5  1  1  6  0  0  0
  5  8  1  0  0  0  0
  6 17  2  0  0  0  0
  6 12  1  0  0  0  0
  8  7  1  1  0  0  0
  8 11  1  0  0  0  0
  9 19  1  0  0  0  0
 11 10  1  1  0  0  0
 12 20  2  0  0  0  0
 12 19  1  0  0  0  0
 13 20  1  0  0  0  0
 14 15  1  0  0  0  0
 18 19  2  0  0  0  0
M  CHG  1  21  -1
M  END
>  <CHROM.1>
73.99689041,63.49922283,62.96318718,76.80874476,-101.62014863,-30.08809490
2.16789952,-11.69222359,-2.47728982,0.65403079,-1.05908823

>  <Name>
ligand

>  <RI>
0

>  <Rbt.Current_Directory>
/home/itssahil/PROJECTS/Mol_Feturizer/Test_systems_manuscript/rnas/4xwf

>  <Rbt.Executable>
rbdock ($Id: //depot/dev/client3/rdock/2013.1/src/exe/rbdock.cxx#4 $)

>  <Rbt.Library>
libRbt.so (2013.1, Build901 2013/11/27)

>  <Rbt.Parameter_File>
/export/apps/rDock/src/rDock_2013.1_src/data/scripts/dock_solv.prm

>  <Rbt.Receptor>
prm/pocket_docking_8.prm

>  <SCORE>
-8.52856

>  <SCORE.INTER>
-9.63386

>  <SCORE.INTER.CONST>
1

>  <SCORE.INTER.POLAR>
0

>  <SCORE.INTER.ROT>
5

>  <SCORE.INTER.SOLV>
12.3789

>  <SCORE.INTER.VDW>
-17.4822

>  <SCORE.INTER.norm>
-0.437903

>  <SCORE.INTRA>
1.1053

>  <SCORE.INTRA.DIHEDRAL>
-0.219399

>  <SCORE.INTRA.DIHEDRAL.0>
3.49807

>  <SCORE.INTRA.POLAR>
0

>  <SCORE.INTRA.POLAR.0>
0

>  <SCORE.INTRA.REPUL>
0

>  <SCORE.INTRA.REPUL.0>
0

>  <SCORE.INTRA.SOLV>
1.0222

>  <SCORE.INTRA.SOLV.lig_0>
-73.062

>  <SCORE.INTRA.VDW>
0.7039

>  <SCORE.INTRA.VDW.0>
-1.83782

>  <SCORE.INTRA.norm>
0.0502409

>  <SCORE.RESTR>
0

>  <SCORE.RESTR.CAVITY>
0

>  <SCORE.RESTR.norm>
0

>  <SCORE.SYSTEM>
0

>  <SCORE.SYSTEM.CONST>
0

>  <SCORE.SYSTEM.DIHEDRAL>
0

>  <SCORE.SYSTEM.SOLV>
0

>  <SCORE.SYSTEM.norm>
0

>  <SCORE.heavy>
22

>  <SCORE.norm>
-0.387662

>  <RMSD>
5.217

$$$$
ligand
 OpenBabel02271912143D
libRbt.so/2013.1/901 2013/11/27
 22 23  0  0  0  0  0  0  0  0999 V2000
  -31.1496    2.0605  -10.0479 N   0  0  0  0  0  0  0  0  0  0  0  0
  -28.6596    1.2137  -12.1777 C   0  0  1  0  0  0  0  0  0  0  0  0
  -29.2862    2.2669  -11.3915 O   0  0  0  0  0  0  0  0  0  0  0  0
  -28.1148    2.5684  -14.8959 P   0  0  1  0  0  0  0  0  0  0  0  0
  -29.8359    1.6698  -10.2059 C   0  0  2  0  0  0  0  0  0  0  0  0
  -33.3035    2.1662  -10.2942 N   0  0  0  0  0  0  0  0  0  0  0  0
  -29.8507   -0.5255   -9.2697 O   0  0  0  0  0  0  0  0  0  0  0  0
  -29.8630    0.2182  -10.4938 C   0  0  2  0  0  0  0  0  0  0  0  0
  -33.9721    5.2414   -8.8923 N   0  0  0  0  0  0  0  0  0  0  0  0
  -27.4924    0.0527  -10.5090 O   0  0  0  0  0  0  0  0  0  0  0  0
  -28.6794    0.0095  -11.3188 C   0  0  2  0  0  0  0  0  0  0  0  0
  -32.9503    3.0223   -9.3231 C   0  0  0  0  0  0  0  0  0  0  0  0
  -30.8258    3.6855   -8.2230 N   0  0  0  0  0  0  0  0  0  0  0  0
  -29.4141    2.2349  -14.0840 O   0  0  0  0  0  0  0  0  0  0  0  0
  -29.4906    1.0265  -13.4001 C   0  0  0  0  0  0  0  0  0  0  0  0
  -28.0956    1.4627  -16.0128 O   0  0  0  0  0  0  0  0  0  0  0  0
  -32.1818    1.5743  -10.7470 C   0  0  0  0  0  0  0  0  0  0  0  0
  -34.5338    3.4304   -7.6311 O   0  0  0  0  0  0  0  0  0  0  0  0
  -33.8700    3.8875   -8.5614 C   0  0  0  0  0  0  0  0  0  0  0  0
  -31.5957    2.9591   -9.1602 C   0  0  0  0  0  0  0  0  0  0  0  0
  -28.1891    3.9677  -15.4100 O   0  5  0  0  0  0  0  0  0  0  0  0
  -26.9453    2.6444  -14.0019 O   0  0  0  0  0  0  0  0  0  0  0  0
  1 17  1  0  0  0  0
  1 20  1  0  0  0  0
  2 15  1  6  0  0  0
  2  3  1  0  0  0  0
  2 11  1  0  0  0  0
  3  5  1  0  0  0  0
  4 16  1  6  0  0  0
  4 21  1  0  0  0  0
  4 22  2  0  0  0  0
  4 14  1  0  0  0  0
  5  1  1  6  0  0  0
  5  8  1  0  0  0  0
  6 17  2  0  0  0  0
  6 12  1  0  0  0  0
  8  7  1  1  0  0  0
  8 11  1  0  0  0  0
  9 19  1  0  0  0  0
 11 10  1  1  0  0  0
 12 20  2  0  0  0  0
 12 19  1  0  0  0  0
 13 20  1  0  0  0  0
 14 15  1  0  0  0  0
 18 19  2  0  0  0  0
M  CHG  1  21  -1
M  END
>  <CHROM.1>
76.49658877,63.12323611,64.09185345,76.84962922,-101.45477086,-30.16309946
2.14095871,-11.47286817,-2.59709765,0.70606259,-0.93984649

>  <Name>
ligand

>  <RI>
0

>  <Rbt.Current_Directory>
/home/itssahil/PROJECTS/Mol_Feturizer/Test_systems_manuscript/rnas/4xwf

>  <Rbt.Executable>
rbdock ($Id: //depot/dev/client3/rdock/2013.1/src/exe/rbdock.cxx#4 $)

>  <Rbt.Library>
libRbt.so (2013.1, Build901 2013/11/27)

>  <Rbt.Parameter_File>
/export/apps/rDock/src/rDock_2013.1_src/data/scripts/dock_solv.prm

>  <Rbt.Receptor>
prm/pocket_docking_8.prm

>  <SCORE>
-8.50747

>  <SCORE.INTER>
-9.76458

>  <SCORE.INTER.CONST>
1

>  <SCORE.INTER.POLAR>
0

>  <SCORE.INTER.ROT>
5

>  <SCORE.INTER.SOLV>
12.5205

>  <SCORE.INTER.VDW>
-17.6165

>  <SCORE.INTER.norm>
-0.443845

>  <SCORE.INTRA>
1.25711

>  <SCORE.INTRA.DIHEDRAL>
-0.204545

>  <SCORE.INTRA.DIHEDRAL.0>
3.49807

>  <SCORE.INTRA.POLAR>
0

>  <SCORE.INTRA.POLAR.0>
0

>  <SCORE.INTRA.REPUL>
0

>  <SCORE.INTRA.REPUL.0>
0

>  <SCORE.INTRA.SOLV>
1.05706

>  <SCORE.INTRA.SOLV.lig_0>
-73.062

>  <SCORE.INTRA.VDW>
0.83085

>  <SCORE.INTRA.VDW.0>
-1.83782

>  <SCORE.INTRA.norm>
0.0571412

>  <SCORE.RESTR>
0

>  <SCORE.RESTR.CAVITY>
0

>  <SCORE.RESTR.norm>
0

>  <SCORE.SYSTEM>
0

>  <SCORE.SYSTEM.CONST>
0

>  <SCORE.SYSTEM.DIHEDRAL>
0

>  <SCORE.SYSTEM.SOLV>
0

>  <SCORE.SYSTEM.norm>
0

>  <SCORE.heavy>
22

>  <SCORE.norm>
-0.386703

>  <RMSD>
5.224

$$$$
ligand
 OpenBabel02271912143D
libRbt.so/2013.1/901 2013/11/27
 22 23  0  0  0  0  0  0  0  0999 V2000
  -30.3682    1.8408  -11.1206 N   0  0  0  0  0  0  0  0  0  0  0  0
  -28.1168    2.0612  -13.6375 C   0  0  1  0  0  0  0  0  0  0  0  0
  -28.6548    2.6645  -12.4265 O   0  0  0  0  0  0  0  0  0  0  0  0
  -29.6512    4.3694  -16.2092 P   0  0  1  0  0  0  0  0  0  0  0  0
  -29.0794    1.6058  -11.5529 C   0  0  2  0  0  0  0  0  0  0  0  0
  -32.4914    1.5760  -10.7560 N   0  0  0  0  0  0  0  0  0  0  0  0
  -29.0025   -0.7785  -11.6247 O   0  0  0  0  0  0  0  0  0  0  0  0
  -29.1405    0.4063  -12.4178 C   0  0  2  0  0  0  0  0  0  0  0  0
  -34.3551    3.5671   -9.5700 N   0  0  0  0  0  0  0  0  0  0  0  0
  -26.7850    0.3598  -12.7285 O   0  0  0  0  0  0  0  0  0  0  0  0
  -28.0501    0.6090  -13.3639 C   0  0  2  0  0  0  0  0  0  0  0  0
  -32.1016    2.7109  -10.1555 C   0  0  0  0  0  0  0  0  0  0  0  0
  -29.9613    3.9424   -9.8984 N   0  0  0  0  0  0  0  0  0  0  0  0
  -28.9626    3.7363  -14.9508 O   0  0  0  0  0  0  0  0  0  0  0  0
  -29.0714    2.3661  -14.7401 C   0  0  0  0  0  0  0  0  0  0  0  0
  -31.1803    4.1187  -15.9460 O   0  0  0  0  0  0  0  0  0  0  0  0
  -31.4135    1.0405  -11.3600 C   0  0  0  0  0  0  0  0  0  0  0  0
  -32.4863    4.4331   -8.5988 O   0  0  0  0  0  0  0  0  0  0  0  0
  -32.9708    3.6207   -9.3864 C   0  0  0  0  0  0  0  0  0  0  0  0
  -30.7651    2.8829  -10.3781 C   0  0  0  0  0  0  0  0  0  0  0  0
  -29.2690    5.8080  -16.3205 O   0  5  0  0  0  0  0  0  0  0  0  0
  -29.0809    3.8159  -17.4506 O   0  0  0  0  0  0  0  0  0  0  0  0
  1 17  1  0  0  0  0
  1 20  1  0  0  0  0
  2 15  1  6  0  0  0
  2  3  1  0  0  0  0
  2 11  1  0  0  0  0
  3  5  1  0  0  0  0
  4 16  1  1  0  0  0
  4 21  1  0  0  0  0
  4 22  2  0  0  0  0
  4 14  1  0  0  0  0
  5  1  1  6  0  0  0
  5  8  1  0  0  0  0
  6 17  2  0  0  0  0
  6 12  1  0  0  0  0
  8  7  1  1  0  0  0
  8 11  1  0  0  0  0
  9 19  1  0  0  0  0
 11 10  1  1  0  0  0
 12 20  2  0  0  0  0
 12 19  1  0  0  0  0
 13 20  1  0  0  0  0
 14 15  1  0  0  0  0
 18 19  2  0  0  0  0
M  CHG  1  21  -1
M  END
>  <CHROM.1>
118.47484848,68.97237298,64.27802327,169.73089184,-19.55709433,-30.05298683
2.71071362,-12.78479466,-2.17138842,0.73321642,-0.97726404

>  <Name>
ligand

>  <RI>
0

>  <Rbt.Current_Directory>
/home/itssahil/PROJECTS/Mol_Feturizer/Test_systems_manuscript/rnas/4xwf

>  <Rbt.Executable>
rbdock ($Id: //depot/dev/client3/rdock/2013.1/src/exe/rbdock.cxx#4 $)

>  <Rbt.Library>
libRbt.so (2013.1, Build901 2013/11/27)

>  <Rbt.Parameter_File>
/export/apps/rDock/src/rDock_2013.1_src/data/scripts/dock_solv.prm

>  <Rbt.Receptor>
prm/pocket_docking_5.prm

>  <SCORE>
-9.37785

>  <SCORE.INTER>
-10.922

>  <SCORE.INTER.CONST>
1

>  <SCORE.INTER.POLAR>
0

>  <SCORE.INTER.ROT>
5

>  <SCORE.INTER.SOLV>
17.7402

>  <SCORE.INTER.VDW>
-20.1281

>  <SCORE.INTER.norm>
-0.496455

>  <SCORE.INTRA>
1.54417

>  <SCORE.INTRA.DIHEDRAL>
-0.776706

>  <SCORE.INTRA.DIHEDRAL.0>
3.49807

>  <SCORE.INTRA.POLAR>
0

>  <SCORE.INTRA.POLAR.0>
0

>  <SCORE.INTRA.REPUL>
0

>  <SCORE.INTRA.REPUL.0>
0

>  <SCORE.INTRA.SOLV>
-0.624809

>  <SCORE.INTRA.SOLV.lig_0>
-73.062

>  <SCORE.INTRA.VDW>
2.24492

>  <SCORE.INTRA.VDW.0>
-1.83782

>  <SCORE.INTRA.norm>
0.0701893

>  <SCORE.RESTR>
0

>  <SCORE.RESTR.CAVITY>
0

>  <SCORE.RESTR.norm>
0

>  <SCORE.SYSTEM>
0

>  <SCORE.SYSTEM.CONST>
0

>  <SCORE.SYSTEM.DIHEDRAL>
0

>  <SCORE.SYSTEM.SOLV>
0

>  <SCORE.SYSTEM.norm>
0

>  <SCORE.heavy>
22

>  <SCORE.norm>
-0.426266

>  <RMSD>
5.227

$$$$
ligand
 OpenBabel02271912143D
libRbt.so/2013.1/901 2013/11/27
 22 23  0  0  0  0  0  0  0  0999 V2000
  -30.5380    1.7064  -11.1586 N   0  0  0  0  0  0  0  0  0  0  0  0
  -28.1771    2.1140  -13.5487 C   0  0  1  0  0  0  0  0  0  0  0  0
  -28.8115    2.6575  -12.3562 O   0  0  0  0  0  0  0  0  0  0  0  0
  -29.6566    4.3649  -16.2030 P   0  0  1  0  0  0  0  0  0  0  0  0
  -29.2170    1.5565  -11.5269 C   0  0  2  0  0  0  0  0  0  0  0  0
  -32.6735    1.3579  -10.9873 N   0  0  0  0  0  0  0  0  0  0  0  0
  -28.9956   -0.8171  -11.6411 O   0  0  0  0  0  0  0  0  0  0  0  0
  -29.1625    0.3753  -12.4172 C   0  0  2  0  0  0  0  0  0  0  0  0
  -33.0114    3.3940   -8.0291 N   0  0  0  0  0  0  0  0  0  0  0  0
  -26.7955    0.4728  -12.6042 O   0  0  0  0  0  0  0  0  0  0  0  0
  -28.0388    0.6623  -13.3004 C   0  0  2  0  0  0  0  0  0  0  0  0
  -32.3553    2.4014  -10.2060 C   0  0  0  0  0  0  0  0  0  0  0  0
  -30.2704    3.6177   -9.6253 N   0  0  0  0  0  0  0  0  0  0  0  0
  -29.0005    3.7577  -14.9148 O   0  0  0  0  0  0  0  0  0  0  0  0
  -29.0902    2.3877  -14.6938 C   0  0  0  0  0  0  0  0  0  0  0  0
  -31.1900    4.0963  -15.9856 O   0  0  0  0  0  0  0  0  0  0  0  0
  -31.5433    0.9318  -11.5828 C   0  0  0  0  0  0  0  0  0  0  0  0
  -34.3386    3.6211   -9.8656 O   0  0  0  0  0  0  0  0  0  0  0  0
  -33.2983    3.1776   -9.3796 C   0  0  0  0  0  0  0  0  0  0  0  0
  -31.0117    2.6250  -10.3062 C   0  0  0  0  0  0  0  0  0  0  0  0
  -29.2906    5.8071  -16.3211 O   0  5  0  0  0  0  0  0  0  0  0  0
  -29.0393    3.8035  -17.4180 O   0  0  0  0  0  0  0  0  0  0  0  0
  1 17  1  0  0  0  0
  1 20  1  0  0  0  0
  2 15  1  6  0  0  0
  2  3  1  0  0  0  0
  2 11  1  0  0  0  0
  3  5  1  0  0  0  0
  4 16  1  6  0  0  0
  4 21  1  0  0  0  0
  4 22  2  0  0  0  0
  4 14  1  0  0  0  0
  5  1  1  6  0  0  0
  5  8  1  0  0  0  0
  6 17  2  0  0  0  0
  6 12  1  0  0  0  0
  8  7  1  1  0  0  0
  8 11  1  0  0  0  0
  9 19  1  0  0  0  0
 11 10  1  1  0  0  0
 12 20  2  0  0  0  0
 12 19  1  0  0  0  0
 13 20  1  0  0  0  0
 14 15  1  0  0  0  0
 18 19  2  0  0  0  0
M  CHG  1  21  -1
M  END
>  <CHROM.1>
111.09842892,71.86573067,64.68211337,170.16012988,128.98142972,-30.16761994
2.59832172,-12.76806739,-2.15441766,0.64994853,-0.97044318

>  <Name>
ligand

>  <RI>
0

>  <Rbt.Current_Directory>
/home/itssahil/PROJECTS/Mol_Feturizer/Test_systems_manuscript/rnas/4xwf

>  <Rbt.Executable>
rbdock ($Id: //depot/dev/client3/rdock/2013.1/src/exe/rbdock.cxx#4 $)

>  <Rbt.Library>
libRbt.so (2013.1, Build901 2013/11/27)

>  <Rbt.Parameter_File>
/export/apps/rDock/src/rDock_2013.1_src/data/scripts/dock_solv.prm

>  <Rbt.Receptor>
prm/pocket_docking_5.prm

>  <SCORE>
-10.3898

>  <SCORE.INTER>
-11.7858

>  <SCORE.INTER.CONST>
1

>  <SCORE.INTER.POLAR>
0

>  <SCORE.INTER.ROT>
5

>  <SCORE.INTER.SOLV>
15.1603

>  <SCORE.INTER.VDW>
-19.8439

>  <SCORE.INTER.norm>
-0.535716

>  <SCORE.INTRA>
1.39594

>  <SCORE.INTRA.DIHEDRAL>
-0.87133

>  <SCORE.INTRA.DIHEDRAL.0>
3.49807

>  <SCORE.INTRA.POLAR>
0

>  <SCORE.INTRA.POLAR.0>
0

>  <SCORE.INTRA.REPUL>
0

>  <SCORE.INTRA.REPUL.0>
0

>  <SCORE.INTRA.SOLV>
-0.613355

>  <SCORE.INTRA.SOLV.lig_0>
-73.062

>  <SCORE.INTRA.VDW>
2.13828

>  <SCORE.INTRA.VDW.0>
-1.83782

>  <SCORE.INTRA.norm>
0.0634516

>  <SCORE.RESTR>
0

>  <SCORE.RESTR.CAVITY>
0

>  <SCORE.RESTR.norm>
0

>  <SCORE.SYSTEM>
0

>  <SCORE.SYSTEM.CONST>
0

>  <SCORE.SYSTEM.DIHEDRAL>
0

>  <SCORE.SYSTEM.SOLV>
0

>  <SCORE.SYSTEM.norm>
0

>  <SCORE.heavy>
22

>  <SCORE.norm>
-0.472264

>  <RMSD>
5.228

$$$$
ligand
 OpenBabel02271912143D
libRbt.so/2013.1/901 2013/11/27
 22 23  0  0  0  0  0  0  0  0999 V2000
  -30.9749    1.9167  -10.3718 N   0  0  0  0  0  0  0  0  0  0  0  0
  -28.4469    1.3444  -12.5477 C   0  0  1  0  0  0  0  0  0  0  0  0
  -29.2097    2.3317  -11.7971 O   0  0  0  0  0  0  0  0  0  0  0  0
  -28.2932    2.6536  -15.3546 P   0  0  1  0  0  0  0  0  0  0  0  0
  -29.6211    1.7289  -10.5594 C   0  0  2  0  0  0  0  0  0  0  0  0
  -33.1245    1.6687  -10.5411 N   0  0  0  0  0  0  0  0  0  0  0  0
  -29.2571   -0.3799   -9.5030 O   0  0  0  0  0  0  0  0  0  0  0  0
  -29.4248    0.2764  -10.7651 C   0  0  2  0  0  0  0  0  0  0  0  0
  -34.0741    3.1295   -7.5124 N   0  0  0  0  0  0  0  0  0  0  0  0
  -27.0598    0.4858  -10.8644 O   0  0  0  0  0  0  0  0  0  0  0  0
  -28.2484    0.2068  -11.6231 C   0  0  2  0  0  0  0  0  0  0  0  0
  -32.8834    2.6230   -9.6291 C   0  0  0  0  0  0  0  0  0  0  0  0
  -30.8598    3.6725   -8.6457 N   0  0  0  0  0  0  0  0  0  0  0  0
  -29.4588    2.1275  -14.4474 O   0  0  0  0  0  0  0  0  0  0  0  0
  -29.2738    0.9542  -13.7242 C   0  0  0  0  0  0  0  0  0  0  0  0
  -28.0675    1.4743  -16.3690 O   0  0  0  0  0  0  0  0  0  0  0  0
  -31.9369    1.2358  -11.0055 C   0  0  0  0  0  0  0  0  0  0  0  0
  -34.6193    4.2011   -9.4464 O   0  0  0  0  0  0  0  0  0  0  0  0
  -33.9061    3.3744   -8.8780 C   0  0  0  0  0  0  0  0  0  0  0  0
  -31.5319    2.7826   -9.5147 C   0  0  0  0  0  0  0  0  0  0  0  0
  -28.6919    3.9462  -15.9856 O   0  5  0  0  0  0  0  0  0  0  0  0
  -27.1402    3.0685  -14.5355 O   0  0  0  0  0  0  0  0  0  0  0  0
  1 17  1  0  0  0  0
  1 20  1  0  0  0  0
  2 15  1  6  0  0  0
  2  3  1  0  0  0  0
  2 11  1  0  0  0  0
  3  5  1  0  0  0  0
  4 16  1  6  0  0  0
  4 21  1  0  0  0  0
  4 22  2  0  0  0  0
  4 14  1  0  0  0  0
  5  1  1  6  0  0  0
  5  8  1  0  0  0  0
  6 17  2  0  0  0  0
  6 12  1  0  0  0  0
  8  7  1  1  0  0  0
  8 11  1  0  0  0  0
  9 19  1  0  0  0  0
 11 10  1  1  0  0  0
 12 20  2  0  0  0  0
 12 19  1  0  0  0  0
 13 20  1  0  0  0  0
 14 15  1  0  0  0  0
 18 19  2  0  0  0  0
M  CHG  1  21  -1
M  END
>  <CHROM.1>
76.21983965,60.70210247,59.87432000,78.27915814,109.06001583,-30.08298741
2.07734138,-11.83533601,-2.42882150,0.57368586,-1.11269050

>  <Name>
ligand

>  <RI>
0

>  <Rbt.Current_Directory>
/home/itssahil/PROJECTS/Mol_Feturizer/Test_systems_manuscript/rnas/4xwf

>  <Rbt.Executable>
rbdock ($Id: //depot/dev/client3/rdock/2013.1/src/exe/rbdock.cxx#4 $)

>  <Rbt.Library>
libRbt.so (2013.1, Build901 2013/11/27)

>  <Rbt.Parameter_File>
/export/apps/rDock/src/rDock_2013.1_src/data/scripts/dock_solv.prm

>  <Rbt.Receptor>
prm/pocket_docking_5.prm

>  <SCORE>
-9.09949

>  <SCORE.INTER>
-10.2048

>  <SCORE.INTER.CONST>
1

>  <SCORE.INTER.POLAR>
0

>  <SCORE.INTER.ROT>
5

>  <SCORE.INTER.SOLV>
13.0948

>  <SCORE.INTER.VDW>
-18.1014

>  <SCORE.INTER.norm>
-0.463853

>  <SCORE.INTRA>
1.10527

>  <SCORE.INTRA.DIHEDRAL>
-0.292582

>  <SCORE.INTRA.DIHEDRAL.0>
3.49807

>  <SCORE.INTRA.POLAR>
0

>  <SCORE.INTRA.POLAR.0>
0

>  <SCORE.INTRA.REPUL>
0

>  <SCORE.INTRA.REPUL.0>
0

>  <SCORE.INTRA.SOLV>
0.957224

>  <SCORE.INTRA.SOLV.lig_0>
-73.062

>  <SCORE.INTRA.VDW>
0.772948

>  <SCORE.INTRA.VDW.0>
-1.83782

>  <SCORE.INTRA.norm>
0.0502395

>  <SCORE.RESTR>
0

>  <SCORE.RESTR.CAVITY>
0

>  <SCORE.RESTR.norm>
0

>  <SCORE.SYSTEM>
0

>  <SCORE.SYSTEM.CONST>
0

>  <SCORE.SYSTEM.DIHEDRAL>
0

>  <SCORE.SYSTEM.SOLV>
0

>  <SCORE.SYSTEM.norm>
0

>  <SCORE.heavy>
22

>  <SCORE.norm>
-0.413613

>  <RMSD>
5.232

$$$$
ligand
 OpenBabel02271912143D
libRbt.so/2013.1/901 2013/11/27
 22 23  0  0  0  0  0  0  0  0999 V2000
  -30.3852    1.7646  -11.2020 N   0  0  0  0  0  0  0  0  0  0  0  0
  -28.0942    2.0897  -13.6715 C   0  0  1  0  0  0  0  0  0  0  0  0
  -28.6755    2.6603  -12.4646 O   0  0  0  0  0  0  0  0  0  0  0  0
  -29.6669    4.3780  -16.2389 P   0  0  1  0  0  0  0  0  0  0  0  0
  -29.0811    1.5778  -11.6115 C   0  0  2  0  0  0  0  0  0  0  0  0
  -32.5169    1.4558  -10.9342 N   0  0  0  0  0  0  0  0  0  0  0  0
  -28.9230   -0.8016  -11.7085 O   0  0  0  0  0  0  0  0  0  0  0  0
  -29.0853    0.3872  -12.4909 C   0  0  2  0  0  0  0  0  0  0  0  0
  -34.3850    3.5355   -9.7956 N   0  0  0  0  0  0  0  0  0  0  0  0
  -26.7240    0.4229  -12.7556 O   0  0  0  0  0  0  0  0  0  0  0  0
  -27.9843    0.6373  -13.4129 C   0  0  2  0  0  0  0  0  0  0  0  0
  -32.1561    2.5315  -10.2178 C   0  0  0  0  0  0  0  0  0  0  0  0
  -30.0355    3.7446   -9.7760 N   0  0  0  0  0  0  0  0  0  0  0  0
  -28.9721    3.7515  -14.9806 O   0  0  0  0  0  0  0  0  0  0  0  0
  -29.0371    2.3757  -14.7891 C   0  0  0  0  0  0  0  0  0  0  0  0
  -31.1927    4.1032  -15.9806 O   0  0  0  0  0  0  0  0  0  0  0  0
  -31.4155    0.9848  -11.5497 C   0  0  0  0  0  0  0  0  0  0  0  0
  -32.6457    3.9095   -8.3742 O   0  0  0  0  0  0  0  0  0  0  0  0
  -33.0573    3.3608   -9.3963 C   0  0  0  0  0  0  0  0  0  0  0  0
  -30.8145    2.7305  -10.3789 C   0  0  0  0  0  0  0  0  0  0  0  0
  -29.3064    5.8226  -16.3446 O   0  5  0  0  0  0  0  0  0  0  0  0
  -29.0849    3.8372  -17.4805 O   0  0  0  0  0  0  0  0  0  0  0  0
  1 17  1  0  0  0  0
  1 20  1  0  0  0  0
  2 15  1  6  0  0  0
  2  3  1  0  0  0  0
  2 11  1  0  0  0  0
  3  5  1  0  0  0  0
  4 16  1  1  0  0  0
  4 21  1  0  0  0  0
  4 22  2  0  0  0  0
  4 14  1  0  0  0  0
  5  1  1  6  0  0  0
  5  8  1  0  0  0  0
  6 17  2  0  0  0  0
  6 12  1  0  0  0  0
  8  7  1  1  0  0  0
  8 11  1  0  0  0  0
  9 19  1  0  0  0  0
 11 10  1  1  0  0  0
 12 20  2  0  0  0  0
 12 19  1  0  0  0  0
 13 20  1  0  0  0  0
 14 15  1  0  0  0  0
 18 19  2  0  0  0  0
M  CHG  1  21  -1
M  END
>  <CHROM.1>
113.46778078,68.86396238,65.58969033,170.19479879,-32.69117459,-30.06565018
2.64859959,-12.82527864,-2.14649420,0.68972037,-0.98438448

>  <Name>
ligand

>  <RI>
0

>  <Rbt.Current_Directory>
/home/itssahil/PROJECTS/Mol_Feturizer/Test_systems_manuscript/rnas/4xwf

>  <Rbt.Executable>
rbdock ($Id: //depot/dev/client3/rdock/2013.1/src/exe/rbdock.cxx#4 $)

>  <Rbt.Library>
libRbt.so (2013.1, Build901 2013/11/27)

>  <Rbt.Parameter_File>
/export/apps/rDock/src/rDock_2013.1_src/data/scripts/dock_solv.prm

>  <Rbt.Receptor>
prm/pocket_docking_5.prm

>  <SCORE>
-9.47822

>  <SCORE.INTER>
-11.1513

>  <SCORE.INTER.CONST>
1

>  <SCORE.INTER.POLAR>
0

>  <SCORE.INTER.ROT>
5

>  <SCORE.INTER.SOLV>
17.0276

>  <SCORE.INTER.VDW>
-20.0434

>  <SCORE.INTER.norm>
-0.506875

>  <SCORE.INTRA>
1.67304

>  <SCORE.INTRA.DIHEDRAL>
-0.258608

>  <SCORE.INTRA.DIHEDRAL.0>
3.49807

>  <SCORE.INTRA.POLAR>
0

>  <SCORE.INTRA.POLAR.0>
0

>  <SCORE.INTRA.REPUL>
0

>  <SCORE.INTRA.REPUL.0>
0

>  <SCORE.INTRA.SOLV>
-0.803254

>  <SCORE.INTRA.SOLV.lig_0>
-73.062

>  <SCORE.INTRA.VDW>
2.20397

>  <SCORE.INTRA.VDW.0>
-1.83782

>  <SCORE.INTRA.norm>
0.0760472

>  <SCORE.RESTR>
0

>  <SCORE.RESTR.CAVITY>
0

>  <SCORE.RESTR.norm>
0

>  <SCORE.SYSTEM>
0

>  <SCORE.SYSTEM.CONST>
0

>  <SCORE.SYSTEM.DIHEDRAL>
0

>  <SCORE.SYSTEM.SOLV>
0

>  <SCORE.SYSTEM.norm>
0

>  <SCORE.heavy>
22

>  <SCORE.norm>
-0.430828

>  <RMSD>
5.233

$$$$
ligand
 OpenBabel02271912143D
libRbt.so/2013.1/901 2013/11/27
 22 23  0  0  0  0  0  0  0  0999 V2000
  -30.9611    1.9178  -10.3838 N   0  0  0  0  0  0  0  0  0  0  0  0
  -28.4268    1.3451  -12.5521 C   0  0  1  0  0  0  0  0  0  0  0  0
  -29.1951    2.3330  -11.8081 O   0  0  0  0  0  0  0  0  0  0  0  0
  -28.3001    2.6377  -15.3837 P   0  0  1  0  0  0  0  0  0  0  0  0
  -29.6062    1.7350  -10.5681 C   0  0  2  0  0  0  0  0  0  0  0  0
  -33.1094    1.6616  -10.5582 N   0  0  0  0  0  0  0  0  0  0  0  0
  -29.2349   -0.3667   -9.4999 O   0  0  0  0  0  0  0  0  0  0  0  0
  -29.4032    0.2822  -10.7657 C   0  0  2  0  0  0  0  0  0  0  0  0
  -34.1038    3.0875   -7.5436 N   0  0  0  0  0  0  0  0  0  0  0  0
  -27.0389    0.5015  -10.8619 O   0  0  0  0  0  0  0  0  0  0  0  0
  -28.2249    0.2133  -11.6213 C   0  0  2  0  0  0  0  0  0  0  0  0
  -32.8741    2.6174   -9.6462 C   0  0  0  0  0  0  0  0  0  0  0  0
  -30.8568    3.6751   -8.6586 N   0  0  0  0  0  0  0  0  0  0  0  0
  -29.4481    2.1159  -14.4518 O   0  0  0  0  0  0  0  0  0  0  0  0
  -29.2498    0.9452  -13.7280 C   0  0  0  0  0  0  0  0  0  0  0  0
  -28.1342    1.4786  -16.4323 O   0  0  0  0  0  0  0  0  0  0  0  0
  -31.9190    1.2329  -11.0194 C   0  0  0  0  0  0  0  0  0  0  0  0
  -34.5885    4.2184   -9.4598 O   0  0  0  0  0  0  0  0  0  0  0  0
  -33.9014    3.3655   -8.8981 C   0  0  0  0  0  0  0  0  0  0  0  0
  -31.5234    2.7822   -9.5286 C   0  0  0  0  0  0  0  0  0  0  0  0
  -28.6888    3.9539  -15.9708 O   0  5  0  0  0  0  0  0  0  0  0  0
  -27.1123    3.0068  -14.5928 O   0  0  0  0  0  0  0  0  0  0  0  0
  1 17  1  0  0  0  0
  1 20  1  0  0  0  0
  2 15  1  6  0  0  0
  2  3  1  0  0  0  0
  2 11  1  0  0  0  0
  3  5  1  0  0  0  0
  4 16  1  6  0  0  0
  4 21  1  0  0  0  0
  4 22  2  0  0  0  0
  4 14  1  0  0  0  0
  5  1  1  6  0  0  0
  5  8  1  0  0  0  0
  6 17  2  0  0  0  0
  6 12  1  0  0  0  0
  8  7  1  1  0  0  0
  8 11  1  0  0  0  0
  9 19  1  0  0  0  0
 11 10  1  1  0  0  0
 12 20  2  0  0  0  0
 12 19  1  0  0  0  0
 13 20  1  0  0  0  0
 14 15  1  0  0  0  0
 18 19  2  0  0  0  0
M  CHG  1  21  -1
M  END
>  <CHROM.1>
75.95192144,60.21659687,62.02007040,79.58430444,106.82330025,-30.07479427
2.07297455,-11.85047536,-2.42201012,0.56839825,-1.12279049

>  <Name>
ligand

>  <RI>
0

>  <Rbt.Current_Directory>
/home/itssahil/PROJECTS/Mol_Feturizer/Test_systems_manuscript/rnas/4xwf

>  <Rbt.Executable>
rbdock ($Id: //depot/dev/client3/rdock/2013.1/src/exe/rbdock.cxx#4 $)

>  <Rbt.Library>
libRbt.so (2013.1, Build901 2013/11/27)

>  <Rbt.Parameter_File>
/export/apps/rDock/src/rDock_2013.1_src/data/scripts/dock_solv.prm

>  <Rbt.Receptor>
prm/pocket_docking_6.prm

>  <SCORE>
-9.116

>  <SCORE.INTER>
-10.2829

>  <SCORE.INTER.CONST>
1

>  <SCORE.INTER.POLAR>
0

>  <SCORE.INTER.ROT>
5

>  <SCORE.INTER.SOLV>
13.1444

>  <SCORE.INTER.VDW>
-18.17

>  <SCORE.INTER.norm>
-0.467404

>  <SCORE.INTRA>
1.16689

>  <SCORE.INTRA.DIHEDRAL>
-0.0365256

>  <SCORE.INTRA.DIHEDRAL.0>
3.49807

>  <SCORE.INTRA.POLAR>
0

>  <SCORE.INTRA.POLAR.0>
0

>  <SCORE.INTRA.REPUL>
0

>  <SCORE.INTRA.REPUL.0>
0

>  <SCORE.INTRA.SOLV>
0.929571

>  <SCORE.INTRA.SOLV.lig_0>
-73.062

>  <SCORE.INTRA.VDW>
0.720368

>  <SCORE.INTRA.VDW.0>
-1.83782

>  <SCORE.INTRA.norm>
0.0530405

>  <SCORE.RESTR>
0

>  <SCORE.RESTR.CAVITY>
0

>  <SCORE.RESTR.norm>
0

>  <SCORE.SYSTEM>
0

>  <SCORE.SYSTEM.CONST>
0

>  <SCORE.SYSTEM.DIHEDRAL>
0

>  <SCORE.SYSTEM.SOLV>
0

>  <SCORE.SYSTEM.norm>
0

>  <SCORE.heavy>
22

>  <SCORE.norm>
-0.414364

>  <RMSD>
5.239

$$$$
ligand
 OpenBabel02271912143D
libRbt.so/2013.1/901 2013/11/27
 22 23  0  0  0  0  0  0  0  0999 V2000
  -31.0249    2.0880  -10.2197 N   0  0  0  0  0  0  0  0  0  0  0  0
  -28.5779    1.3220  -12.4284 C   0  0  1  0  0  0  0  0  0  0  0  0
  -29.2379    2.3620  -11.6519 O   0  0  0  0  0  0  0  0  0  0  0  0
  -28.2483    2.5810  -15.2443 P   0  0  1  0  0  0  0  0  0  0  0  0
  -29.6965    1.7761  -10.4228 C   0  0  2  0  0  0  0  0  0  0  0  0
  -33.1885    2.0639  -10.3909 N   0  0  0  0  0  0  0  0  0  0  0  0
  -29.5282   -0.3790   -9.4112 O   0  0  0  0  0  0  0  0  0  0  0  0
  -29.6411    0.3159  -10.6587 C   0  0  2  0  0  0  0  0  0  0  0  0
  -33.9069    5.1238   -8.8965 N   0  0  0  0  0  0  0  0  0  0  0  0
  -27.2676    0.3011  -10.7745 O   0  0  0  0  0  0  0  0  0  0  0  0
  -28.4825    0.1520  -11.5282 C   0  0  2  0  0  0  0  0  0  0  0  0
  -32.8537    2.9429   -9.4339 C   0  0  0  0  0  0  0  0  0  0  0  0
  -30.7358    3.7357   -8.4094 N   0  0  0  0  0  0  0  0  0  0  0  0
  -29.4740    2.2193  -14.3358 O   0  0  0  0  0  0  0  0  0  0  0  0
  -29.4462    1.0365  -13.6051 C   0  0  0  0  0  0  0  0  0  0  0  0
  -28.2202    1.4099  -16.2922 O   0  0  0  0  0  0  0  0  0  0  0  0
  -32.0498    1.5386  -10.8818 C   0  0  0  0  0  0  0  0  0  0  0  0
  -34.4728    3.2382   -7.7520 O   0  0  0  0  0  0  0  0  0  0  0  0
  -33.7966    3.7542   -8.6417 C   0  0  0  0  0  0  0  0  0  0  0  0
  -31.4930    2.9614   -9.3181 C   0  0  0  0  0  0  0  0  0  0  0  0
  -28.4442    3.9374  -15.8356 O   0  5  0  0  0  0  0  0  0  0  0  0
  -27.0370    2.7864  -14.4299 O   0  0  0  0  0  0  0  0  0  0  0  0
  1 17  1  0  0  0  0
  1 20  1  0  0  0  0
  2 15  1  6  0  0  0
  2  3  1  0  0  0  0
  2 11  1  0  0  0  0
  3  5  1  0  0  0  0
  4 16  1  6  0  0  0
  4 21  1  0  0  0  0
  4 22  2  0  0  0  0
  4 14  1  0  0  0  0
  5  1  1  6  0  0  0
  5  8  1  0  0  0  0
  6 17  2  0  0  0  0
  6 12  1  0  0  0  0
  8  7  1  1  0  0  0
  8 11  1  0  0  0  0
  9 19  1  0  0  0  0
 11 10  1  1  0  0  0
 12 20  2  0  0  0  0
 12 19  1  0  0  0  0
 13 20  1  0  0  0  0
 14 15  1  0  0  0  0
 18 19  2  0  0  0  0
M  CHG  1  21  -1
M  END
>  <CHROM.1>
74.47561293,63.33080774,62.38870091,78.37258297,-106.87055014,-30.11078598
2.16209700,-11.69050652,-2.49038561,0.67240137,-1.04745668

>  <Name>
ligand

>  <RI>
0

>  <Rbt.Current_Directory>
/home/itssahil/PROJECTS/Mol_Feturizer/Test_systems_manuscript/rnas/4xwf

>  <Rbt.Executable>
rbdock ($Id: //depot/dev/client3/rdock/2013.1/src/exe/rbdock.cxx#4 $)

>  <Rbt.Library>
libRbt.so (2013.1, Build901 2013/11/27)

>  <Rbt.Parameter_File>
/export/apps/rDock/src/rDock_2013.1_src/data/scripts/dock_solv.prm

>  <Rbt.Receptor>
prm/pocket_docking_5.prm

>  <SCORE>
-8.53559

>  <SCORE.INTER>
-9.60581

>  <SCORE.INTER.CONST>
1

>  <SCORE.INTER.POLAR>
0

>  <SCORE.INTER.ROT>
5

>  <SCORE.INTER.SOLV>
12.4599

>  <SCORE.INTER.VDW>
-17.4905

>  <SCORE.INTER.norm>
-0.436628

>  <SCORE.INTRA>
1.07022

>  <SCORE.INTRA.DIHEDRAL>
-0.16084

>  <SCORE.INTRA.DIHEDRAL.0>
3.49807

>  <SCORE.INTRA.POLAR>
0

>  <SCORE.INTRA.POLAR.0>
0

>  <SCORE.INTRA.REPUL>
0

>  <SCORE.INTRA.REPUL.0>
0

>  <SCORE.INTRA.SOLV>
0.9654

>  <SCORE.INTRA.SOLV.lig_0>
-73.062

>  <SCORE.INTRA.VDW>
0.667942

>  <SCORE.INTRA.VDW.0>
-1.83782

>  <SCORE.INTRA.norm>
0.0486465

>  <SCORE.RESTR>
0

>  <SCORE.RESTR.CAVITY>
0

>  <SCORE.RESTR.norm>
0

>  <SCORE.SYSTEM>
0

>  <SCORE.SYSTEM.CONST>
0

>  <SCORE.SYSTEM.DIHEDRAL>
0

>  <SCORE.SYSTEM.SOLV>
0

>  <SCORE.SYSTEM.norm>
0

>  <SCORE.heavy>
22

>  <SCORE.norm>
-0.387981

>  <RMSD>
5.247

$$$$
ligand
 OpenBabel02271912143D
libRbt.so/2013.1/901 2013/11/27
 22 23  0  0  0  0  0  0  0  0999 V2000
  -31.1451    2.0593  -10.0904 N   0  0  0  0  0  0  0  0  0  0  0  0
  -28.6720    1.2327  -12.2476 C   0  0  1  0  0  0  0  0  0  0  0  0
  -29.3047    2.2831  -11.4625 O   0  0  0  0  0  0  0  0  0  0  0  0
  -28.1792    2.5539  -14.9940 P   0  0  1  0  0  0  0  0  0  0  0  0
  -29.8276    1.6886  -10.2635 C   0  0  2  0  0  0  0  0  0  0  0  0
  -33.3047    2.1199  -10.2985 N   0  0  0  0  0  0  0  0  0  0  0  0
  -29.7929   -0.4975   -9.3065 O   0  0  0  0  0  0  0  0  0  0  0  0
  -29.8348    0.2340  -10.5373 C   0  0  2  0  0  0  0  0  0  0  0  0
  -33.9804    5.2239   -8.9396 N   0  0  0  0  0  0  0  0  0  0  0  0
  -27.4623    0.1071  -10.5850 O   0  0  0  0  0  0  0  0  0  0  0  0
  -28.6597    0.0367  -11.3772 C   0  0  2  0  0  0  0  0  0  0  0  0
  -32.9496    3.0061   -9.3556 C   0  0  0  0  0  0  0  0  0  0  0  0
  -30.8179    3.7347   -8.3124 N   0  0  0  0  0  0  0  0  0  0  0  0
  -29.4625    2.2197  -14.1573 O   0  0  0  0  0  0  0  0  0  0  0  0
  -29.5171    1.0201  -13.4562 C   0  0  0  0  0  0  0  0  0  0  0  0
  -28.1725    1.4389  -16.1019 O   0  0  0  0  0  0  0  0  0  0  0  0
  -32.1808    1.5373  -10.7578 C   0  0  0  0  0  0  0  0  0  0  0  0
  -34.5300    3.4207   -7.6621 O   0  0  0  0  0  0  0  0  0  0  0  0
  -33.8710    3.8732   -8.5981 C   0  0  0  0  0  0  0  0  0  0  0  0
  -31.5914    2.9715   -9.2167 C   0  0  0  0  0  0  0  0  0  0  0  0
  -28.2705    3.9484  -15.5185 O   0  5  0  0  0  0  0  0  0  0  0  0
  -26.9951    2.6442  -14.1209 O   0  0  0  0  0  0  0  0  0  0  0  0
  1 17  1  0  0  0  0
  1 20  1  0  0  0  0
  2 15  1  6  0  0  0
  2  3  1  0  0  0  0
  2 11  1  0  0  0  0
  3  5  1  0  0  0  0
  4 16  1  6  0  0  0
  4 21  1  0  0  0  0
  4 22  2  0  0  0  0
  4 14  1  0  0  0  0
  5  1  1  6  0  0  0
  5  8  1  0  0  0  0
  6 17  2  0  0  0  0
  6 12  1  0  0  0  0
  8  7  1  1  0  0  0
  8 11  1  0  0  0  0
  9 19  1  0  0  0  0
 11 10  1  1  0  0  0
 12 20  2  0  0  0  0
 12 19  1  0  0  0  0
 13 20  1  0  0  0  0
 14 15  1  0  0  0  0
 18 19  2  0  0  0  0
M  CHG  1  21  -1
M  END
>  <CHROM.1>
77.40662031,63.53686866,64.44731543,77.01020679,-102.98029569,-30.17714970
2.14132021,-11.53574240,-2.57358176,0.70285678,-0.96603718

>  <Name>
ligand

>  <RI>
0

>  <Rbt.Current_Directory>
/home/itssahil/PROJECTS/Mol_Feturizer/Test_systems_manuscript/rnas/4xwf

>  <Rbt.Executable>
rbdock ($Id: //depot/dev/client3/rdock/2013.1/src/exe/rbdock.cxx#4 $)

>  <Rbt.Library>
libRbt.so (2013.1, Build901 2013/11/27)

>  <Rbt.Parameter_File>
/export/apps/rDock/src/rDock_2013.1_src/data/scripts/dock_solv.prm

>  <Rbt.Receptor>
prm/pocket_docking_5.prm

>  <SCORE>
-8.53316

>  <SCORE.INTER>
-9.82698

>  <SCORE.INTER.CONST>
1

>  <SCORE.INTER.POLAR>
0

>  <SCORE.INTER.ROT>
5

>  <SCORE.INTER.SOLV>
12.8553

>  <SCORE.INTER.VDW>
-17.7698

>  <SCORE.INTER.norm>
-0.446681

>  <SCORE.INTRA>
1.29382

>  <SCORE.INTRA.DIHEDRAL>
-0.219823

>  <SCORE.INTRA.DIHEDRAL.0>
3.49807

>  <SCORE.INTRA.POLAR>
0

>  <SCORE.INTRA.POLAR.0>
0

>  <SCORE.INTRA.REPUL>
0

>  <SCORE.INTRA.REPUL.0>
0

>  <SCORE.INTRA.SOLV>
1.06881

>  <SCORE.INTRA.SOLV.lig_0>
-73.062

>  <SCORE.INTRA.VDW>
0.869321

>  <SCORE.INTRA.VDW.0>
-1.83782

>  <SCORE.INTRA.norm>
0.0588098

>  <SCORE.RESTR>
0

>  <SCORE.RESTR.CAVITY>
0

>  <SCORE.RESTR.norm>
0

>  <SCORE.SYSTEM>
0

>  <SCORE.SYSTEM.CONST>
0

>  <SCORE.SYSTEM.DIHEDRAL>
0

>  <SCORE.SYSTEM.SOLV>
0

>  <SCORE.SYSTEM.norm>
0

>  <SCORE.heavy>
22

>  <SCORE.norm>
-0.387871

>  <RMSD>
5.250

$$$$
ligand
 OpenBabel02271912143D
libRbt.so/2013.1/901 2013/11/27
 22 23  0  0  0  0  0  0  0  0999 V2000
  -30.6610    4.3136   -9.3645 N   0  0  0  0  0  0  0  0  0  0  0  0
  -27.6779    3.9150  -10.9120 C   0  0  1  0  0  0  0  0  0  0  0  0
  -28.8312    4.7756  -10.6905 O   0  0  0  0  0  0  0  0  0  0  0  0
  -29.7946    0.9732  -12.0009 P   0  0  1  0  0  0  0  0  0  0  0  0
  -29.3023    4.5523   -9.3517 C   0  0  2  0  0  0  0  0  0  0  0  0
  -32.5848    3.4256   -9.8354 N   0  0  0  0  0  0  0  0  0  0  0  0
  -28.5787    3.2259   -7.5042 O   0  0  0  0  0  0  0  0  0  0  0  0
  -28.6593    3.2865   -8.9330 C   0  0  2  0  0  0  0  0  0  0  0  0
  -34.4823    6.1099   -8.3849 N   0  0  0  0  0  0  0  0  0  0  0  0
  -26.4876    4.2513   -8.9209 O   0  0  0  0  0  0  0  0  0  0  0  0
  -27.3598    3.3269   -9.5925 C   0  0  2  0  0  0  0  0  0  0  0  0
  -32.7798    4.3865   -8.9192 C   0  0  0  0  0  0  0  0  0  0  0  0
  -31.3361    5.9802   -7.6786 N   0  0  0  0  0  0  0  0  0  0  0  0
  -29.2059    2.2591  -11.3236 O   0  0  0  0  0  0  0  0  0  0  0  0
  -28.0925    2.8702  -11.8900 C   0  0  0  0  0  0  0  0  0  0  0  0
  -31.2237    0.8513  -11.3580 O   0  0  0  0  0  0  0  0  0  0  0  0
  -31.2680    3.3866  -10.1148 C   0  0  0  0  0  0  0  0  0  0  0  0
  -34.8019    3.9310   -7.8053 O   0  0  0  0  0  0  0  0  0  0  0  0
  -34.0796    4.7725   -8.3395 C   0  0  0  0  0  0  0  0  0  0  0  0
  -31.5725    4.9482   -8.6154 C   0  0  0  0  0  0  0  0  0  0  0  0
  -29.7943    1.1416  -13.4839 O   0  5  0  0  0  0  0  0  0  0  0  0
  -28.8801   -0.1706  -11.8337 O   0  0  0  0  0  0  0  0  0  0  0  0
  1 17  1  0  0  0  0
  1 20  1  0  0  0  0
  2 15  1  6  0  0  0
  2  3  1  0  0  0  0
  2 11  1  0  0  0  0
  3  5  1  0  0  0  0
  4 16  1  1  0  0  0
  4 21  1  0  0  0  0
  4 22  2  0  0  0  0
  4 14  1  0  0  0  0
  5  1  1  6  0  0  0
  5  8  1  0  0  0  0
  6 17  2  0  0  0  0
  6 12  1  0  0  0  0
  8  7  1  1  0  0  0
  8 11  1  0  0  0  0
  9 19  1  0  0  0  0
 11 10  1  1  0  0  0
 12 20  2  0  0  0  0
 12 19  1  0  0  0  0
 13 20  1  0  0  0  0
 14 15  1  0  0  0  0
 18 19  2  0  0  0  0
M  CHG  1  21  -1
M  END
>  <CHROM.1>
53.27783670,-56.12971532,-163.86996018,-171.91046484,-126.24096684,-30.25538967
3.27769529,-10.01496139,-2.36656665,-0.04508335,-2.38427507

>  <Name>
ligand

>  <RI>
0

>  <Rbt.Current_Directory>
/home/itssahil/PROJECTS/Mol_Feturizer/Test_systems_manuscript/rnas/4xwf

>  <Rbt.Executable>
rbdock ($Id: //depot/dev/client3/rdock/2013.1/src/exe/rbdock.cxx#4 $)

>  <Rbt.Library>
libRbt.so (2013.1, Build901 2013/11/27)

>  <Rbt.Parameter_File>
/export/apps/rDock/src/rDock_2013.1_src/data/scripts/dock_solv.prm

>  <Rbt.Receptor>
prm/pocket_docking_4.prm

>  <SCORE>
-5.89474

>  <SCORE.INTER>
-6.57603

>  <SCORE.INTER.CONST>
1

>  <SCORE.INTER.POLAR>
0

>  <SCORE.INTER.ROT>
5

>  <SCORE.INTER.SOLV>
17.6372

>  <SCORE.INTER.VDW>
-17.1964

>  <SCORE.INTER.norm>
-0.29891

>  <SCORE.INTRA>
0.681294

>  <SCORE.INTRA.DIHEDRAL>
-1.239

>  <SCORE.INTRA.DIHEDRAL.0>
3.49807

>  <SCORE.INTRA.POLAR>
0

>  <SCORE.INTRA.POLAR.0>
0

>  <SCORE.INTRA.REPUL>
0

>  <SCORE.INTRA.REPUL.0>
0

>  <SCORE.INTRA.SOLV>
1.13286

>  <SCORE.INTRA.SOLV.lig_0>
-73.062

>  <SCORE.INTRA.VDW>
0.734364

>  <SCORE.INTRA.VDW.0>
-1.83782

>  <SCORE.INTRA.norm>
0.0309679

>  <SCORE.RESTR>
0

>  <SCORE.RESTR.CAVITY>
0

>  <SCORE.RESTR.norm>
0

>  <SCORE.SYSTEM>
0

>  <SCORE.SYSTEM.CONST>
0

>  <SCORE.SYSTEM.DIHEDRAL>
0

>  <SCORE.SYSTEM.SOLV>
0

>  <SCORE.SYSTEM.norm>
0

>  <SCORE.heavy>
22

>  <SCORE.norm>
-0.267943

>  <RMSD>
5.256

$$$$
ligand
 OpenBabel02271912143D
libRbt.so/2013.1/901 2013/11/27
 22 23  0  0  0  0  0  0  0  0999 V2000
  -33.1120    4.6281   -8.3508 N   0  0  0  0  0  0  0  0  0  0  0  0
  -30.1504    3.2332   -9.2086 C   0  0  1  0  0  0  0  0  0  0  0  0
  -30.9775    3.7793   -8.1420 O   0  0  0  0  0  0  0  0  0  0  0  0
  -28.0177    6.3489   -9.5267 P   0  0  1  0  0  0  0  0  0  0  0  0
  -32.3498    3.4822   -8.4469 C   0  0  2  0  0  0  0  0  0  0  0  0
  -34.7744    6.0100   -8.5453 N   0  0  0  0  0  0  0  0  0  0  0  0
  -33.4755    2.2757  -10.1712 O   0  0  0  0  0  0  0  0  0  0  0  0
  -32.3435    3.1029   -9.8776 C   0  0  2  0  0  0  0  0  0  0  0  0
  -32.9434    8.9363   -7.7237 N   0  0  0  0  0  0  0  0  0  0  0  0
  -31.1122    1.1116   -9.4704 O   0  0  0  0  0  0  0  0  0  0  0  0
  -31.0632    2.4269  -10.0482 C   0  0  2  0  0  0  0  0  0  0  0  0
  -33.8083    6.6139   -7.8363 C   0  0  0  0  0  0  0  0  0  0  0  0
  -31.5519    5.9877   -7.0115 N   0  0  0  0  0  0  0  0  0  0  0  0
  -28.7534    5.0427   -9.0671 O   0  0  0  0  0  0  0  0  0  0  0  0
  -29.5909    4.3890   -9.9643 C   0  0  0  0  0  0  0  0  0  0  0  0
  -29.1817    7.4005   -9.6258 O   0  0  0  0  0  0  0  0  0  0  0  0
  -34.3365    4.7783   -8.8689 C   0  0  0  0  0  0  0  0  0  0  0  0
  -34.7141    8.2846   -6.4487 O   0  0  0  0  0  0  0  0  0  0  0  0
  -33.8683    7.9825   -7.2904 C   0  0  0  0  0  0  0  0  0  0  0  0
  -32.7593    5.7488   -7.7071 C   0  0  0  0  0  0  0  0  0  0  0  0
  -26.9501    6.6967   -8.5433 O   0  5  0  0  0  0  0  0  0  0  0  0
  -27.2267    6.1016  -10.7456 O   0  0  0  0  0  0  0  0  0  0  0  0
  1 17  1  0  0  0  0
  1 20  1  0  0  0  0
  2 15  1  6  0  0  0
  2  3  1  0  0  0  0
  2 11  1  0  0  0  0
  3  5  1  0  0  0  0
  4 16  1  6  0  0  0
  4 21  1  0  0  0  0
  4 22  2  0  0  0  0
  4 14  1  0  0  0  0
  5  1  1  6  0  0  0
  5  8  1  0  0  0  0
  6 17  2  0  0  0  0
  6 12  1  0  0  0  0
  8  7  1  1  0  0  0
  8 11  1  0  0  0  0
  9 19  1  0  0  0  0
 11 10  1  1  0  0  0
 12 20  2  0  0  0  0
 12 19  1  0  0  0  0
 13 20  1  0  0  0  0
 14 15  1  0  0  0  0
 18 19  2  0  0  0  0
M  CHG  1  21  -1
M  END
>  <CHROM.1>
163.12084751,65.37094426,70.58989232,-178.34037782,-118.07931546,-31.21186224
5.25150224,-8.82089247,2.93986173,0.24742815,0.30594669

>  <Name>
ligand

>  <RI>
0

>  <Rbt.Current_Directory>
/home/itssahil/PROJECTS/Mol_Feturizer/Test_systems_manuscript/rnas/4xwf

>  <Rbt.Executable>
rbdock ($Id: //depot/dev/client3/rdock/2013.1/src/exe/rbdock.cxx#4 $)

>  <Rbt.Library>
libRbt.so (2013.1, Build901 2013/11/27)

>  <Rbt.Parameter_File>
/export/apps/rDock/src/rDock_2013.1_src/data/scripts/dock_solv.prm

>  <Rbt.Receptor>
prm/pocket_docking_8.prm

>  <SCORE>
-5.05113

>  <SCORE.INTER>
-6.04479

>  <SCORE.INTER.CONST>
1

>  <SCORE.INTER.POLAR>
0

>  <SCORE.INTER.ROT>
5

>  <SCORE.INTER.SOLV>
7.25252

>  <SCORE.INTER.VDW>
-13.3807

>  <SCORE.INTER.norm>
-0.274763

>  <SCORE.INTRA>
0.993658

>  <SCORE.INTRA.DIHEDRAL>
-1.74299

>  <SCORE.INTRA.DIHEDRAL.0>
3.49807

>  <SCORE.INTRA.POLAR>
0

>  <SCORE.INTRA.POLAR.0>
0

>  <SCORE.INTRA.REPUL>
0

>  <SCORE.INTRA.REPUL.0>
0

>  <SCORE.INTRA.SOLV>
2.76193

>  <SCORE.INTRA.SOLV.lig_0>
-73.062

>  <SCORE.INTRA.VDW>
0.484188

>  <SCORE.INTRA.VDW.0>
-1.83782

>  <SCORE.INTRA.norm>
0.0451663

>  <SCORE.RESTR>
0

>  <SCORE.RESTR.CAVITY>
0

>  <SCORE.RESTR.norm>
0

>  <SCORE.SYSTEM>
0

>  <SCORE.SYSTEM.CONST>
0

>  <SCORE.SYSTEM.DIHEDRAL>
0

>  <SCORE.SYSTEM.SOLV>
0

>  <SCORE.SYSTEM.norm>
0

>  <SCORE.heavy>
22

>  <SCORE.norm>
-0.229597

>  <RMSD>
5.263

$$$$
ligand
 OpenBabel02271912143D
libRbt.so/2013.1/901 2013/11/27
 22 23  0  0  0  0  0  0  0  0999 V2000
  -31.1876    2.1088  -10.1309 N   0  0  0  0  0  0  0  0  0  0  0  0
  -28.6749    1.5657  -12.3318 C   0  0  1  0  0  0  0  0  0  0  0  0
  -29.3419    2.5157  -11.4529 O   0  0  0  0  0  0  0  0  0  0  0  0
  -27.5805    1.9572  -15.1637 P   0  0  1  0  0  0  0  0  0  0  0  0
  -29.8592    1.7910  -10.3253 C   0  0  2  0  0  0  0  0  0  0  0  0
  -33.3490    2.1068  -10.3294 N   0  0  0  0  0  0  0  0  0  0  0  0
  -29.7748   -0.4782   -9.5909 O   0  0  0  0  0  0  0  0  0  0  0  0
  -29.8255    0.3715  -10.7430 C   0  0  2  0  0  0  0  0  0  0  0  0
  -34.2576    3.3680   -7.2363 N   0  0  0  0  0  0  0  0  0  0  0  0
  -27.4502    0.3106  -10.7763 O   0  0  0  0  0  0  0  0  0  0  0  0
  -28.6384    0.2892  -11.5850 C   0  0  2  0  0  0  0  0  0  0  0  0
  -33.0193    2.9589   -9.3466 C   0  0  0  0  0  0  0  0  0  0  0  0
  -30.9083    3.7084   -8.2764 N   0  0  0  0  0  0  0  0  0  0  0  0
  -28.6390    0.9794  -14.5456 O   0  0  0  0  0  0  0  0  0  0  0  0
  -29.5035    1.4535  -13.5650 C   0  0  0  0  0  0  0  0  0  0  0  0
  -26.4780    2.0453  -14.0469 O   0  0  0  0  0  0  0  0  0  0  0  0
  -32.2084    1.5845  -10.8191 C   0  0  0  0  0  0  0  0  0  0  0  0
  -34.5087    4.7524   -9.0269 O   0  0  0  0  0  0  0  0  0  0  0  0
  -33.9656    3.7579   -8.5462 C   0  0  0  0  0  0  0  0  0  0  0  0
  -31.6600    2.9633   -9.2136 C   0  0  0  0  0  0  0  0  0  0  0  0
  -27.0990    1.4164  -16.4690 O   0  5  0  0  0  0  0  0  0  0  0  0
  -28.2171    3.2185  -15.5839 O   0  0  0  0  0  0  0  0  0  0  0  0
  1 17  1  0  0  0  0
  1 20  1  0  0  0  0
  2 15  1  6  0  0  0
  2  3  1  0  0  0  0
  2 11  1  0  0  0  0
  3  5  1  0  0  0  0
  4 16  1  1  0  0  0
  4 21  1  0  0  0  0
  4 22  2  0  0  0  0
  4 14  1  0  0  0  0
  5  1  1  6  0  0  0
  5  8  1  0  0  0  0
  6 17  2  0  0  0  0
  6 12  1  0  0  0  0
  8  7  1  1  0  0  0
  8 11  1  0  0  0  0
  9 19  1  0  0  0  0
 11 10  1  1  0  0  0
 12 20  2  0  0  0  0
 12 19  1  0  0  0  0
 13 20  1  0  0  0  0
 14 15  1  0  0  0  0
 18 19  2  0  0  0  0
M  CHG  1  21  -1
M  END
>  <CHROM.1>
80.55961591,158.09506589,76.76718621,-74.60330174,103.99041071,-30.02858977
2.01410282,-11.63270318,-2.55787084,0.64444200,-1.07774623

>  <Name>
ligand

>  <RI>
0

>  <Rbt.Current_Directory>
/home/itssahil/PROJECTS/Mol_Feturizer/Test_systems_manuscript/rnas/4xwf

>  <Rbt.Executable>
rbdock ($Id: //depot/dev/client3/rdock/2013.1/src/exe/rbdock.cxx#4 $)

>  <Rbt.Library>
libRbt.so (2013.1, Build901 2013/11/27)

>  <Rbt.Parameter_File>
/export/apps/rDock/src/rDock_2013.1_src/data/scripts/dock_solv.prm

>  <Rbt.Receptor>
prm/pocket_docking_4.prm

>  <SCORE>
-7.04598

>  <SCORE.INTER>
-8.76232

>  <SCORE.INTER.CONST>
1

>  <SCORE.INTER.POLAR>
0

>  <SCORE.INTER.ROT>
5

>  <SCORE.INTER.SOLV>
12.4767

>  <SCORE.INTER.VDW>
-16.9338

>  <SCORE.INTER.norm>
-0.398287

>  <SCORE.INTRA>
1.71633

>  <SCORE.INTRA.DIHEDRAL>
1.17989

>  <SCORE.INTRA.DIHEDRAL.0>
3.49807

>  <SCORE.INTRA.POLAR>
0

>  <SCORE.INTRA.POLAR.0>
0

>  <SCORE.INTRA.REPUL>
0

>  <SCORE.INTRA.REPUL.0>
0

>  <SCORE.INTRA.SOLV>
-0.0222876

>  <SCORE.INTRA.SOLV.lig_0>
-73.062

>  <SCORE.INTRA.VDW>
1.13753

>  <SCORE.INTRA.VDW.0>
-1.83782

>  <SCORE.INTRA.norm>
0.0780152

>  <SCORE.RESTR>
0

>  <SCORE.RESTR.CAVITY>
0

>  <SCORE.RESTR.norm>
0

>  <SCORE.SYSTEM>
0

>  <SCORE.SYSTEM.CONST>
0

>  <SCORE.SYSTEM.DIHEDRAL>
0

>  <SCORE.SYSTEM.SOLV>
0

>  <SCORE.SYSTEM.norm>
0

>  <SCORE.heavy>
22

>  <SCORE.norm>
-0.320272

>  <RMSD>
5.323

$$$$
ligand
 OpenBabel02271912143D
libRbt.so/2013.1/901 2013/11/27
 22 23  0  0  0  0  0  0  0  0999 V2000
  -29.5092    1.8406  -12.0248 N   0  0  0  0  0  0  0  0  0  0  0  0
  -27.9954    3.1680  -14.7448 C   0  0  1  0  0  0  0  0  0  0  0  0
  -28.4327    3.3729  -13.3713 O   0  0  0  0  0  0  0  0  0  0  0  0
  -30.7434    5.1501  -16.4300 P   0  0  1  0  0  0  0  0  0  0  0  0
  -28.3268    2.1184  -12.6789 C   0  0  2  0  0  0  0  0  0  0  0  0
  -31.3982    0.9051  -11.5074 N   0  0  0  0  0  0  0  0  0  0  0  0
  -27.5433   -0.0639  -13.2447 O   0  0  0  0  0  0  0  0  0  0  0  0
  -28.1946    1.1069  -13.7515 C   0  0  2  0  0  0  0  0  0  0  0  0
  -33.0799    1.3781   -9.1263 N   0  0  0  0  0  0  0  0  0  0  0  0
  -26.0524    1.9015  -14.4049 O   0  0  0  0  0  0  0  0  0  0  0  0
  -27.4350    1.7996  -14.7851 C   0  0  2  0  0  0  0  0  0  0  0  0
  -31.1302    1.8446  -10.5876 C   0  0  0  0  0  0  0  0  0  0  0  0
  -29.2889    3.4589  -10.1786 N   0  0  0  0  0  0  0  0  0  0  0  0
  -29.6033    4.6163  -15.4952 O   0  0  0  0  0  0  0  0  0  0  0  0
  -29.2014    3.2901  -15.6112 C   0  0  0  0  0  0  0  0  0  0  0  0
  -31.9841    4.2779  -16.0171 O   0  0  0  0  0  0  0  0  0  0  0  0
  -30.3922    0.9090  -12.4027 C   0  0  0  0  0  0  0  0  0  0  0  0
  -31.7330    3.1736   -8.7416 O   0  0  0  0  0  0  0  0  0  0  0  0
  -31.9786    2.1831   -9.4299 C   0  0  0  0  0  0  0  0  0  0  0  0
  -29.9407    2.4360  -10.9049 C   0  0  0  0  0  0  0  0  0  0  0  0
  -30.9195    6.6173  -16.2200 O   0  5  0  0  0  0  0  0  0  0  0  0
  -30.3258    5.1024  -17.8428 O   0  0  0  0  0  0  0  0  0  0  0  0
  1 17  1  0  0  0  0
  1 20  1  0  0  0  0
  2 15  1  6  0  0  0
  2  3  1  0  0  0  0
  2 11  1  0  0  0  0
  3  5  1  0  0  0  0
  4 16  1  1  0  0  0
  4 21  1  0  0  0  0
  4 22  2  0  0  0  0
  4 14  1  0  0  0  0
  5  1  1  6  0  0  0
  5  8  1  0  0  0  0
  6 17  2  0  0  0  0
  6 12  1  0  0  0  0
  8  7  1  1  0  0  0
  8 11  1  0  0  0  0
  9 19  1  0  0  0  0
 11 10  1  1  0  0  0
 12 20  2  0  0  0  0
 12 19  1  0  0  0  0
 13 20  1  0  0  0  0
 14 15  1  0  0  0  0
 18 19  2  0  0  0  0
M  CHG  1  21  -1
M  END
>  <CHROM.1>
107.20537039,65.85571363,62.74066018,171.95200009,8.60364775,-29.81702621
2.95022933,-13.43534114,-1.73372872,0.53818704,-1.05152806

>  <Name>
ligand

>  <RI>
0

>  <Rbt.Current_Directory>
/home/itssahil/PROJECTS/Mol_Feturizer/Test_systems_manuscript/rnas/4xwf

>  <Rbt.Executable>
rbdock ($Id: //depot/dev/client3/rdock/2013.1/src/exe/rbdock.cxx#4 $)

>  <Rbt.Library>
libRbt.so (2013.1, Build901 2013/11/27)

>  <Rbt.Parameter_File>
/export/apps/rDock/src/rDock_2013.1_src/data/scripts/dock_solv.prm

>  <Rbt.Receptor>
prm/pocket_docking_7.prm

>  <SCORE>
-6.8766

>  <SCORE.INTER>
-7.99368

>  <SCORE.INTER.CONST>
1

>  <SCORE.INTER.POLAR>
0

>  <SCORE.INTER.ROT>
5

>  <SCORE.INTER.SOLV>
13.5827

>  <SCORE.INTER.VDW>
-16.79

>  <SCORE.INTER.norm>
-0.363349

>  <SCORE.INTRA>
1.11708

>  <SCORE.INTRA.DIHEDRAL>
-1.41012

>  <SCORE.INTRA.DIHEDRAL.0>
3.49807

>  <SCORE.INTRA.POLAR>
0

>  <SCORE.INTRA.POLAR.0>
0

>  <SCORE.INTRA.REPUL>
0

>  <SCORE.INTRA.REPUL.0>
0

>  <SCORE.INTRA.SOLV>
-0.791833

>  <SCORE.INTRA.SOLV.lig_0>
-73.062

>  <SCORE.INTRA.VDW>
2.21806

>  <SCORE.INTRA.VDW.0>
-1.83782

>  <SCORE.INTRA.norm>
0.0507765

>  <SCORE.RESTR>
0

>  <SCORE.RESTR.CAVITY>
0

>  <SCORE.RESTR.norm>
0

>  <SCORE.SYSTEM>
0

>  <SCORE.SYSTEM.CONST>
0

>  <SCORE.SYSTEM.DIHEDRAL>
0

>  <SCORE.SYSTEM.SOLV>
0

>  <SCORE.SYSTEM.norm>
0

>  <SCORE.heavy>
22

>  <SCORE.norm>
-0.312573

>  <RMSD>
5.411

$$$$
ligand
 OpenBabel02271912143D
libRbt.so/2013.1/901 2013/11/27
 22 23  0  0  0  0  0  0  0  0999 V2000
  -31.3306    2.1237   -9.9269 N   0  0  0  0  0  0  0  0  0  0  0  0
  -28.8075    1.3160  -12.0327 C   0  0  1  0  0  0  0  0  0  0  0  0
  -29.4345    2.3491  -11.2206 O   0  0  0  0  0  0  0  0  0  0  0  0
  -27.7636    1.7735  -14.9355 P   0  0  1  0  0  0  0  0  0  0  0  0
  -30.0202    1.7170  -10.0710 C   0  0  2  0  0  0  0  0  0  0  0  0
  -33.4794    2.2602  -10.2005 N   0  0  0  0  0  0  0  0  0  0  0  0
  -30.0915   -0.5117   -9.2201 O   0  0  0  0  0  0  0  0  0  0  0  0
  -30.0644    0.2780  -10.4149 C   0  0  2  0  0  0  0  0  0  0  0  0
  -34.2076    5.3062   -8.8500 N   0  0  0  0  0  0  0  0  0  0  0  0
  -27.6970    0.0728  -10.3848 O   0  0  0  0  0  0  0  0  0  0  0  0
  -28.8661    0.0805  -11.2212 C   0  0  2  0  0  0  0  0  0  0  0  0
  -33.1278    3.1031   -9.2174 C   0  0  0  0  0  0  0  0  0  0  0  0
  -31.0095    3.7285   -8.0837 N   0  0  0  0  0  0  0  0  0  0  0  0
  -28.7228    0.7410  -14.2482 O   0  0  0  0  0  0  0  0  0  0  0  0
  -29.6138    1.1894  -13.2793 C   0  0  0  0  0  0  0  0  0  0  0  0
  -28.7505    2.8550  -15.5072 O   0  0  0  0  0  0  0  0  0  0  0  0
  -32.3597    1.6574  -10.6437 C   0  0  0  0  0  0  0  0  0  0  0  0
  -34.6567    3.5411   -7.4830 O   0  0  0  0  0  0  0  0  0  0  0  0
  -34.0460    3.9739   -8.4602 C   0  0  0  0  0  0  0  0  0  0  0  0
  -31.7765    3.0205   -9.0372 C   0  0  0  0  0  0  0  0  0  0  0  0
  -26.7856    2.2937  -13.9351 O   0  5  0  0  0  0  0  0  0  0  0  0
  -26.8721    1.0990  -15.8963 O   0  0  0  0  0  0  0  0  0  0  0  0
  1 17  1  0  0  0  0
  1 20  1  0  0  0  0
  2 15  1  6  0  0  0
  2  3  1  0  0  0  0
  2 11  1  0  0  0  0
  3  5  1  0  0  0  0
  4 16  1  6  0  0  0
  4 21  1  0  0  0  0
  4 22  2  0  0  0  0
  4 14  1  0  0  0  0
  5  1  1  6  0  0  0
  5  8  1  0  0  0  0
  6 17  2  0  0  0  0
  6 12  1  0  0  0  0
  8  7  1  1  0  0  0
  8 11  1  0  0  0  0
  9 19  1  0  0  0  0
 11 10  1  1  0  0  0
 12 20  2  0  0  0  0
 12 19  1  0  0  0  0
 13 20  1  0  0  0  0
 14 15  1  0  0  0  0
 18 19  2  0  0  0  0
M  CHG  1  21  -1
M  END
>  <CHROM.1>
78.26907923,152.23257677,-55.55358575,-79.88666157,-96.26283870,-30.18408713
1.95642216,-11.40055870,-2.62437889,0.69686977,-1.03234375

>  <Name>
ligand

>  <RI>
0

>  <Rbt.Current_Directory>
/home/itssahil/PROJECTS/Mol_Feturizer/Test_systems_manuscript/rnas/4xwf

>  <Rbt.Executable>
rbdock ($Id: //depot/dev/client3/rdock/2013.1/src/exe/rbdock.cxx#4 $)

>  <Rbt.Library>
libRbt.so (2013.1, Build901 2013/11/27)

>  <Rbt.Parameter_File>
/export/apps/rDock/src/rDock_2013.1_src/data/scripts/dock_solv.prm

>  <Rbt.Receptor>
prm/pocket_docking_5.prm

>  <SCORE>
-7.17119

>  <SCORE.INTER>
-9.80748

>  <SCORE.INTER.CONST>
1

>  <SCORE.INTER.POLAR>
0

>  <SCORE.INTER.ROT>
5

>  <SCORE.INTER.SOLV>
13.2581

>  <SCORE.INTER.VDW>
-17.891

>  <SCORE.INTER.norm>
-0.445795

>  <SCORE.INTRA>
2.63629

>  <SCORE.INTRA.DIHEDRAL>
2.68368

>  <SCORE.INTRA.DIHEDRAL.0>
3.49807

>  <SCORE.INTRA.POLAR>
0

>  <SCORE.INTRA.POLAR.0>
0

>  <SCORE.INTRA.REPUL>
0

>  <SCORE.INTRA.REPUL.0>
0

>  <SCORE.INTRA.SOLV>
0.813088

>  <SCORE.INTRA.SOLV.lig_0>
-73.062

>  <SCORE.INTRA.VDW>
0.887905

>  <SCORE.INTRA.VDW.0>
-1.83782

>  <SCORE.INTRA.norm>
0.119831

>  <SCORE.RESTR>
0

>  <SCORE.RESTR.CAVITY>
0

>  <SCORE.RESTR.norm>
0

>  <SCORE.SYSTEM>
0

>  <SCORE.SYSTEM.CONST>
0

>  <SCORE.SYSTEM.DIHEDRAL>
0

>  <SCORE.SYSTEM.SOLV>
0

>  <SCORE.SYSTEM.norm>
0

>  <SCORE.heavy>
22

>  <SCORE.norm>
-0.325963

>  <RMSD>
5.415

$$$$
ligand
 OpenBabel02271912143D
libRbt.so/2013.1/901 2013/11/27
 22 23  0  0  0  0  0  0  0  0999 V2000
  -30.9180    4.6969   -9.3465 N   0  0  0  0  0  0  0  0  0  0  0  0
  -27.9937    3.6566  -10.6951 C   0  0  1  0  0  0  0  0  0  0  0  0
  -29.1286    4.5631  -10.7957 O   0  0  0  0  0  0  0  0  0  0  0  0
  -29.0945    1.2383  -13.3954 P   0  0  1  0  0  0  0  0  0  0  0  0
  -29.5569    4.8892   -9.4635 C   0  0  2  0  0  0  0  0  0  0  0  0
  -32.8856    3.7958   -9.5128 N   0  0  0  0  0  0  0  0  0  0  0  0
  -28.7872    4.3685   -7.2653 O   0  0  0  0  0  0  0  0  0  0  0  0
  -28.9151    3.8707   -8.6023 C   0  0  2  0  0  0  0  0  0  0  0  0
  -35.2231    4.5781   -7.7512 N   0  0  0  0  0  0  0  0  0  0  0  0
  -26.7330    4.7120   -9.0243 O   0  0  0  0  0  0  0  0  0  0  0  0
  -27.6382    3.6204   -9.2596 C   0  0  2  0  0  0  0  0  0  0  0  0
  -33.0013    4.9258   -8.7985 C   0  0  0  0  0  0  0  0  0  0  0  0
  -31.4485    6.6873   -7.9927 N   0  0  0  0  0  0  0  0  0  0  0  0
  -28.6727    2.4840  -12.5417 O   0  0  0  0  0  0  0  0  0  0  0  0
  -28.4533    2.3241  -11.1778 C   0  0  0  0  0  0  0  0  0  0  0  0
  -30.4987    0.8552  -12.8021 O   0  0  0  0  0  0  0  0  0  0  0  0
  -31.5909    3.6592   -9.8572 C   0  0  0  0  0  0  0  0  0  0  0  0
  -34.4532    6.6754   -8.1916 O   0  0  0  0  0  0  0  0  0  0  0  0
  -34.2526    5.4616   -8.2312 C   0  0  0  0  0  0  0  0  0  0  0  0
  -31.7659    5.4974   -8.6870 C   0  0  0  0  0  0  0  0  0  0  0  0
  -29.1117    1.6035  -14.8425 O   0  5  0  0  0  0  0  0  0  0  0  0
  -28.0445    0.2042  -13.3647 O   0  0  0  0  0  0  0  0  0  0  0  0
  1 17  1  0  0  0  0
  1 20  1  0  0  0  0
  2 15  1  1  0  0  0
  2  3  1  0  0  0  0
  2 11  1  0  0  0  0
  3  5  1  0  0  0  0
  4 16  1  1  0  0  0
  4 21  1  0  0  0  0
  4 22  2  0  0  0  0
  4 14  1  0  0  0  0
  5  1  1  6  0  0  0
  5  8  1  0  0  0  0
  6 17  2  0  0  0  0
  6 12  1  0  0  0  0
  8  7  1  1  0  0  0
  8 11  1  0  0  0  0
  9 19  1  0  0  0  0
 11 10  1  6  0  0  0
 12 20  2  0  0  0  0
 12 19  1  0  0  0  0
 13 20  1  0  0  0  0
 14 15  1  0  0  0  0
 18 19  2  0  0  0  0
M  CHG  1  21  -1
M  END
>  <CHROM.1>
41.78352881,68.37450510,64.38265796,176.60391602,35.30987019,-30.22646719
3.64178159,-10.32936594,-2.18261741,0.05417375,-2.22313284

>  <Name>
ligand

>  <RI>
0

>  <Rbt.Current_Directory>
/home/itssahil/PROJECTS/Mol_Feturizer/Test_systems_manuscript/rnas/4xwf

>  <Rbt.Executable>
rbdock ($Id: //depot/dev/client3/rdock/2013.1/src/exe/rbdock.cxx#4 $)

>  <Rbt.Library>
libRbt.so (2013.1, Build901 2013/11/27)

>  <Rbt.Parameter_File>
/export/apps/rDock/src/rDock_2013.1_src/data/scripts/dock_solv.prm

>  <Rbt.Receptor>
prm/pocket_docking_5.prm

>  <SCORE>
-7.28473

>  <SCORE.INTER>
-6.3002

>  <SCORE.INTER.CONST>
1

>  <SCORE.INTER.POLAR>
0

>  <SCORE.INTER.ROT>
5

>  <SCORE.INTER.SOLV>
19.2073

>  <SCORE.INTER.VDW>
-17.5359

>  <SCORE.INTER.norm>
-0.286373

>  <SCORE.INTRA>
-0.984536

>  <SCORE.INTRA.DIHEDRAL>
-0.61099

>  <SCORE.INTRA.DIHEDRAL.0>
3.49807

>  <SCORE.INTRA.POLAR>
0

>  <SCORE.INTRA.POLAR.0>
0

>  <SCORE.INTRA.REPUL>
0

>  <SCORE.INTRA.REPUL.0>
0

>  <SCORE.INTRA.SOLV>
-0.563491

>  <SCORE.INTRA.SOLV.lig_0>
-73.062

>  <SCORE.INTRA.VDW>
-0.397296

>  <SCORE.INTRA.VDW.0>
-1.83782

>  <SCORE.INTRA.norm>
-0.0447517

>  <SCORE.RESTR>
0

>  <SCORE.RESTR.CAVITY>
0

>  <SCORE.RESTR.norm>
0

>  <SCORE.SYSTEM>
0

>  <SCORE.SYSTEM.CONST>
0

>  <SCORE.SYSTEM.DIHEDRAL>
0

>  <SCORE.SYSTEM.SOLV>
0

>  <SCORE.SYSTEM.norm>
0

>  <SCORE.heavy>
22

>  <SCORE.norm>
-0.331124

>  <RMSD>
5.445

$$$$
ligand
 OpenBabel02271912143D
libRbt.so/2013.1/901 2013/11/27
 22 23  0  0  0  0  0  0  0  0999 V2000
  -31.2839    2.3941   -9.3352 N   0  0  0  0  0  0  0  0  0  0  0  0
  -28.5170    1.0530  -10.7488 C   0  0  1  0  0  0  0  0  0  0  0  0
  -29.1205    2.2165  -10.1148 O   0  0  0  0  0  0  0  0  0  0  0  0
  -28.3716    2.1804  -14.3408 P   0  0  1  0  0  0  0  0  0  0  0  0
  -30.0776    1.7509   -9.1497 C   0  0  2  0  0  0  0  0  0  0  0  0
  -33.2025    2.9547  -10.1812 N   0  0  0  0  0  0  0  0  0  0  0  0
  -30.7692   -0.3893   -8.3515 O   0  0  0  0  0  0  0  0  0  0  0  0
  -30.3031    0.3303   -9.4989 C   0  0  2  0  0  0  0  0  0  0  0  0
  -33.5722    5.9971   -8.4238 N   0  0  0  0  0  0  0  0  0  0  0  0
  -28.0965   -0.2989   -8.8806 O   0  0  0  0  0  0  0  0  0  0  0  0
  -29.0019   -0.1154   -9.9820 C   0  0  2  0  0  0  0  0  0  0  0  0
  -33.0171    3.6636   -9.0571 C   0  0  0  0  0  0  0  0  0  0  0  0
  -31.2503    3.8121   -7.3193 N   0  0  0  0  0  0  0  0  0  0  0  0
  -28.4069    2.1163  -12.7745 O   0  0  0  0  0  0  0  0  0  0  0  0
  -29.0017    1.0212  -12.1574 C   0  0  0  0  0  0  0  0  0  0  0  0
  -29.8808    2.0003  -14.7415 O   0  0  0  0  0  0  0  0  0  0  0  0
  -32.1212    2.1711  -10.3549 C   0  0  0  0  0  0  0  0  0  0  0  0
  -35.0628    4.3083   -8.0893 O   0  0  0  0  0  0  0  0  0  0  0  0
  -33.9555    4.6553   -8.4998 C   0  0  0  0  0  0  0  0  0  0  0  0
  -31.8124    3.3139   -8.5170 C   0  0  0  0  0  0  0  0  0  0  0  0
  -27.7642    3.4721  -14.7772 O   0  5  0  0  0  0  0  0  0  0  0  0
  -27.4090    1.2041  -14.8820 O   0  0  0  0  0  0  0  0  0  0  0  0
  1 17  1  0  0  0  0
  1 20  1  0  0  0  0
  2 15  1  6  0  0  0
  2  3  1  0  0  0  0
  2 11  1  0  0  0  0
  3  5  1  0  0  0  0
  4 16  1  6  0  0  0
  4 21  1  0  0  0  0
  4 22  2  0  0  0  0
  4 14  1  0  0  0  0
  5  1  1  6  0  0  0
  5  8  1  0  0  0  0
  6 17  2  0  0  0  0
  6 12  1  0  0  0  0
  8  7  1  1  0  0  0
  8 11  1  0  0  0  0
  9 19  1  0  0  0  0
 11 10  1  1  0  0  0
 12 20  2  0  0  0  0
 12 19  1  0  0  0  0
 13 20  1  0  0  0  0
 14 15  1  0  0  0  0
 18 19  2  0  0  0  0
M  CHG  1  21  -1
M  END
>  <CHROM.1>
72.17396524,68.61070996,54.15515027,163.38047883,-115.43003516,-30.34559792
2.22800074,-10.75686723,-2.62143595,0.73051302,-1.05897982

>  <Name>
ligand

>  <RI>
0

>  <Rbt.Current_Directory>
/home/itssahil/PROJECTS/Mol_Feturizer/Test_systems_manuscript/rnas/4xwf

>  <Rbt.Executable>
rbdock ($Id: //depot/dev/client3/rdock/2013.1/src/exe/rbdock.cxx#4 $)

>  <Rbt.Library>
libRbt.so (2013.1, Build901 2013/11/27)

>  <Rbt.Parameter_File>
/export/apps/rDock/src/rDock_2013.1_src/data/scripts/dock_solv.prm

>  <Rbt.Receptor>
prm/pocket_docking_4.prm

>  <SCORE>
-6.688

>  <SCORE.INTER>
-6.5715

>  <SCORE.INTER.CONST>
1

>  <SCORE.INTER.POLAR>
0

>  <SCORE.INTER.ROT>
5

>  <SCORE.INTER.SOLV>
12.8661

>  <SCORE.INTER.VDW>
-15.603

>  <SCORE.INTER.norm>
-0.298705

>  <SCORE.INTRA>
-0.116502

>  <SCORE.INTRA.DIHEDRAL>
-0.293861

>  <SCORE.INTRA.DIHEDRAL.0>
3.49807

>  <SCORE.INTRA.POLAR>
0

>  <SCORE.INTRA.POLAR.0>
0

>  <SCORE.INTRA.REPUL>
0

>  <SCORE.INTRA.REPUL.0>
0

>  <SCORE.INTRA.SOLV>
-1.13794

>  <SCORE.INTRA.SOLV.lig_0>
-73.062

>  <SCORE.INTRA.VDW>
0.599398

>  <SCORE.INTRA.VDW.0>
-1.83782

>  <SCORE.INTRA.norm>
-0.00529553

>  <SCORE.RESTR>
0

>  <SCORE.RESTR.CAVITY>
0

>  <SCORE.RESTR.norm>
0

>  <SCORE.SYSTEM>
0

>  <SCORE.SYSTEM.CONST>
0

>  <SCORE.SYSTEM.DIHEDRAL>
0

>  <SCORE.SYSTEM.SOLV>
0

>  <SCORE.SYSTEM.norm>
0

>  <SCORE.heavy>
22

>  <SCORE.norm>
-0.304

>  <RMSD>
5.446

$$$$
ligand
 OpenBabel02271912143D
libRbt.so/2013.1/901 2013/11/27
 22 23  0  0  0  0  0  0  0  0999 V2000
  -31.5574    2.5870   -9.6909 N   0  0  0  0  0  0  0  0  0  0  0  0
  -29.1349    1.2645  -11.6492 C   0  0  1  0  0  0  0  0  0  0  0  0
  -29.6747    2.4599  -11.0172 O   0  0  0  0  0  0  0  0  0  0  0  0
  -28.2463    1.8135  -14.5405 P   0  0  1  0  0  0  0  0  0  0  0  0
  -30.2807    2.0708   -9.7740 C   0  0  2  0  0  0  0  0  0  0  0  0
  -33.6830    2.8701  -10.0270 N   0  0  0  0  0  0  0  0  0  0  0  0
  -30.4879    0.0256   -8.5614 O   0  0  0  0  0  0  0  0  0  0  0  0
  -30.4292    0.6014   -9.8717 C   0  0  2  0  0  0  0  0  0  0  0  0
  -33.7721    6.0867   -8.4190 N   0  0  0  0  0  0  0  0  0  0  0  0
  -28.0812    0.2382   -9.8240 O   0  0  0  0  0  0  0  0  0  0  0  0
  -29.2624    0.1887  -10.6419 C   0  0  2  0  0  0  0  0  0  0  0  0
  -33.2853    3.7501   -9.0953 C   0  0  0  0  0  0  0  0  0  0  0  0
  -31.1468    4.2874   -7.9543 N   0  0  0  0  0  0  0  0  0  0  0  0
  -29.0688    0.6657  -13.8590 O   0  0  0  0  0  0  0  0  0  0  0  0
  -29.9709    0.9891  -12.8513 C   0  0  0  0  0  0  0  0  0  0  0  0
  -29.3596    2.7989  -15.0505 O   0  0  0  0  0  0  0  0  0  0  0  0
  -32.6060    2.1527  -10.3998 C   0  0  0  0  0  0  0  0  0  0  0  0
  -35.1801    4.3883   -7.8546 O   0  0  0  0  0  0  0  0  0  0  0  0
  -34.1465    4.7403   -8.4227 C   0  0  0  0  0  0  0  0  0  0  0  0
  -31.9485    3.5759   -8.8761 C   0  0  0  0  0  0  0  0  0  0  0  0
  -27.2982    2.4072  -13.5523 O   0  5  0  0  0  0  0  0  0  0  0  0
  -27.3187    1.2652  -15.5463 O   0  0  0  0  0  0  0  0  0  0  0  0
  1 17  1  0  0  0  0
  1 20  1  0  0  0  0
  2 15  1  6  0  0  0
  2  3  1  0  0  0  0
  2 11  1  0  0  0  0
  3  5  1  0  0  0  0
  4 16  1  6  0  0  0
  4 21  1  0  0  0  0
  4 22  2  0  0  0  0
  4 14  1  0  0  0  0
  5  1  1  6  0  0  0
  5  8  1  0  0  0  0
  6 17  2  0  0  0  0
  6 12  1  0  0  0  0
  8  7  1  1  0  0  0
  8 11  1  0  0  0  0
  9 19  1  0  0  0  0
 11 10  1  1  0  0  0
 12 20  2  0  0  0  0
 12 19  1  0  0  0  0
 13 20  1  0  0  0  0
 14 15  1  0  0  0  0
 18 19  2  0  0  0  0
M  CHG  1  21  -1
M  END
>  <CHROM.1>
72.25452550,136.47208651,-55.60256367,-75.80718675,-127.05518143,-30.49650927
2.26120914,-11.08411787,-2.66182586,0.75226142,-1.08314966

>  <Name>
ligand

>  <RI>
0

>  <Rbt.Current_Directory>
/home/itssahil/PROJECTS/Mol_Feturizer/Test_systems_manuscript/rnas/4xwf

>  <Rbt.Executable>
rbdock ($Id: //depot/dev/client3/rdock/2013.1/src/exe/rbdock.cxx#4 $)

>  <Rbt.Library>
libRbt.so (2013.1, Build901 2013/11/27)

>  <Rbt.Parameter_File>
/export/apps/rDock/src/rDock_2013.1_src/data/scripts/dock_solv.prm

>  <Rbt.Receptor>
prm/pocket_docking_4.prm

>  <SCORE>
-8.08696

>  <SCORE.INTER>
-11.1052

>  <SCORE.INTER.CONST>
1

>  <SCORE.INTER.POLAR>
0

>  <SCORE.INTER.ROT>
5

>  <SCORE.INTER.SOLV>
13.5686

>  <SCORE.INTER.VDW>
-18.8597

>  <SCORE.INTER.norm>
-0.504781

>  <SCORE.INTRA>
3.01823

>  <SCORE.INTRA.DIHEDRAL>
3.51329

>  <SCORE.INTRA.DIHEDRAL.0>
3.49807

>  <SCORE.INTRA.POLAR>
0

>  <SCORE.INTRA.POLAR.0>
0

>  <SCORE.INTRA.REPUL>
0

>  <SCORE.INTRA.REPUL.0>
0

>  <SCORE.INTRA.SOLV>
1.1333

>  <SCORE.INTRA.SOLV.lig_0>
-73.062

>  <SCORE.INTRA.VDW>
0.694929

>  <SCORE.INTRA.VDW.0>
-1.83782

>  <SCORE.INTRA.norm>
0.137192

>  <SCORE.RESTR>
0

>  <SCORE.RESTR.CAVITY>
0

>  <SCORE.RESTR.norm>
0

>  <SCORE.SYSTEM>
0

>  <SCORE.SYSTEM.CONST>
0

>  <SCORE.SYSTEM.DIHEDRAL>
0

>  <SCORE.SYSTEM.SOLV>
0

>  <SCORE.SYSTEM.norm>
0

>  <SCORE.heavy>
22

>  <SCORE.norm>
-0.367589

>  <RMSD>
5.536

$$$$
ligand
 OpenBabel02271912143D
libRbt.so/2013.1/901 2013/11/27
 22 23  0  0  0  0  0  0  0  0999 V2000
  -31.6450    2.5108   -9.6726 N   0  0  0  0  0  0  0  0  0  0  0  0
  -29.1766    1.2565  -11.6183 C   0  0  1  0  0  0  0  0  0  0  0  0
  -29.7393    2.4321  -10.9694 O   0  0  0  0  0  0  0  0  0  0  0  0
  -28.2538    1.8253  -14.5173 P   0  0  1  0  0  0  0  0  0  0  0  0
  -30.3619    2.0094   -9.7454 C   0  0  2  0  0  0  0  0  0  0  0  0
  -33.7665    2.7830  -10.0417 N   0  0  0  0  0  0  0  0  0  0  0  0
  -30.5680   -0.0641   -8.5819 O   0  0  0  0  0  0  0  0  0  0  0  0
  -30.4934    0.5411   -9.8780 C   0  0  2  0  0  0  0  0  0  0  0  0
  -34.0937    5.9721   -8.6004 N   0  0  0  0  0  0  0  0  0  0  0  0
  -28.1429    0.2005   -9.7987 O   0  0  0  0  0  0  0  0  0  0  0  0
  -29.3097    0.1573  -10.6373 C   0  0  2  0  0  0  0  0  0  0  0  0
  -33.3956    3.6399   -9.0780 C   0  0  0  0  0  0  0  0  0  0  0  0
  -31.2849    4.1649   -7.8810 N   0  0  0  0  0  0  0  0  0  0  0  0
  -29.0695    0.6753  -13.8312 O   0  0  0  0  0  0  0  0  0  0  0  0
  -29.9896    0.9995  -12.8402 C   0  0  0  0  0  0  0  0  0  0  0  0
  -29.3739    2.7810  -15.0674 O   0  0  0  0  0  0  0  0  0  0  0  0
  -32.6754    2.0869  -10.4136 C   0  0  0  0  0  0  0  0  0  0  0  0
  -35.1658    4.2096   -7.6361 O   0  0  0  0  0  0  0  0  0  0  0  0
  -34.2795    4.6024   -8.3946 C   0  0  0  0  0  0  0  0  0  0  0  0
  -32.0616    3.4723   -8.8379 C   0  0  0  0  0  0  0  0  0  0  0  0
  -27.3367    2.4539  -13.5215 O   0  5  0  0  0  0  0  0  0  0  0  0
  -27.2965    1.2758  -15.4942 O   0  0  0  0  0  0  0  0  0  0  0  0
  1 17  1  0  0  0  0
  1 20  1  0  0  0  0
  2 15  1  6  0  0  0
  2  3  1  0  0  0  0
  2 11  1  0  0  0  0
  3  5  1  0  0  0  0
  4 16  1  6  0  0  0
  4 21  1  0  0  0  0
  4 22  2  0  0  0  0
  4 14  1  0  0  0  0
  5  1  1  6  0  0  0
  5  8  1  0  0  0  0
  6 17  2  0  0  0  0
  6 12  1  0  0  0  0
  8  7  1  1  0  0  0
  8 11  1  0  0  0  0
  9 19  1  0  0  0  0
 11 10  1  1  0  0  0
 12 20  2  0  0  0  0
 12 19  1  0  0  0  0
 13 20  1  0  0  0  0
 14 15  1  0  0  0  0
 18 19  2  0  0  0  0
M  CHG  1  21  -1
M  END
>  <CHROM.1>
71.86964802,137.89702227,-56.11915339,-77.72305742,-112.42985529,-30.56052719
2.21026574,-11.06332354,-2.66360770,0.73630184,-1.06649214

>  <Name>
ligand

>  <RI>
0

>  <Rbt.Current_Directory>
/home/itssahil/PROJECTS/Mol_Feturizer/Test_systems_manuscript/rnas/4xwf

>  <Rbt.Executable>
rbdock ($Id: //depot/dev/client3/rdock/2013.1/src/exe/rbdock.cxx#4 $)

>  <Rbt.Library>
libRbt.so (2013.1, Build901 2013/11/27)

>  <Rbt.Parameter_File>
/export/apps/rDock/src/rDock_2013.1_src/data/scripts/dock_solv.prm

>  <Rbt.Receptor>
prm/pocket_docking_4.prm

>  <SCORE>
-7.78732

>  <SCORE.INTER>
-10.722

>  <SCORE.INTER.CONST>
1

>  <SCORE.INTER.POLAR>
0

>  <SCORE.INTER.ROT>
5

>  <SCORE.INTER.SOLV>
14.3218

>  <SCORE.INTER.VDW>
-18.8553

>  <SCORE.INTER.norm>
-0.487366

>  <SCORE.INTRA>
2.93473

>  <SCORE.INTRA.DIHEDRAL>
3.65672

>  <SCORE.INTRA.DIHEDRAL.0>
3.49807

>  <SCORE.INTRA.POLAR>
0

>  <SCORE.INTRA.POLAR.0>
0

>  <SCORE.INTRA.REPUL>
0

>  <SCORE.INTRA.REPUL.0>
0

>  <SCORE.INTRA.SOLV>
0.960928

>  <SCORE.INTRA.SOLV.lig_0>
-73.062

>  <SCORE.INTRA.VDW>
0.625906

>  <SCORE.INTRA.VDW.0>
-1.83782

>  <SCORE.INTRA.norm>
0.133397

>  <SCORE.RESTR>
0

>  <SCORE.RESTR.CAVITY>
0

>  <SCORE.RESTR.norm>
0

>  <SCORE.SYSTEM>
0

>  <SCORE.SYSTEM.CONST>
0

>  <SCORE.SYSTEM.DIHEDRAL>
0

>  <SCORE.SYSTEM.SOLV>
0

>  <SCORE.SYSTEM.norm>
0

>  <SCORE.heavy>
22

>  <SCORE.norm>
-0.353969

>  <RMSD>
5.553

$$$$
ligand
 OpenBabel02271912143D
libRbt.so/2013.1/901 2013/11/27
 22 23  0  0  0  0  0  0  0  0999 V2000
  -31.6252    2.5039   -9.6648 N   0  0  0  0  0  0  0  0  0  0  0  0
  -29.1567    1.2713  -11.6243 C   0  0  1  0  0  0  0  0  0  0  0  0
  -29.7250    2.4416  -10.9706 O   0  0  0  0  0  0  0  0  0  0  0  0
  -28.2225    1.7584  -14.5406 P   0  0  1  0  0  0  0  0  0  0  0  0
  -30.3387    2.0122   -9.7446 C   0  0  2  0  0  0  0  0  0  0  0  0
  -33.7461    2.7747  -10.0385 N   0  0  0  0  0  0  0  0  0  0  0  0
  -30.5241   -0.0649   -8.5839 O   0  0  0  0  0  0  0  0  0  0  0  0
  -30.4601    0.5432   -9.8792 C   0  0  2  0  0  0  0  0  0  0  0  0
  -34.8407    4.1671   -7.1190 N   0  0  0  0  0  0  0  0  0  0  0  0
  -28.1068    0.2197   -9.8114 O   0  0  0  0  0  0  0  0  0  0  0  0
  -29.2771    0.1694  -10.6446 C   0  0  2  0  0  0  0  0  0  0  0  0
  -33.3857    3.6054   -9.0482 C   0  0  0  0  0  0  0  0  0  0  0  0
  -31.2851    4.1074   -7.8239 N   0  0  0  0  0  0  0  0  0  0  0  0
  -29.0599    0.6427  -13.8247 O   0  0  0  0  0  0  0  0  0  0  0  0
  -29.9735    1.0104  -12.8429 C   0  0  0  0  0  0  0  0  0  0  0  0
  -29.3245    2.6955  -15.1554 O   0  0  0  0  0  0  0  0  0  0  0  0
  -32.6488    2.0958  -10.4240 C   0  0  0  0  0  0  0  0  0  0  0  0
  -34.5441    5.6419   -8.8286 O   0  0  0  0  0  0  0  0  0  0  0  0
  -34.2791    4.5425   -8.3424 C   0  0  0  0  0  0  0  0  0  0  0  0
  -32.0522    3.4384   -8.8051 C   0  0  0  0  0  0  0  0  0  0  0  0
  -27.3236    2.4239  -13.5522 O   0  5  0  0  0  0  0  0  0  0  0  0
  -27.2474    1.1630  -15.4719 O   0  0  0  0  0  0  0  0  0  0  0  0
  1 17  1  0  0  0  0
  1 20  1  0  0  0  0
  2 15  1  6  0  0  0
  2  3  1  0  0  0  0
  2 11  1  0  0  0  0
  3  5  1  0  0  0  0
  4 16  1  6  0  0  0
  4 21  1  0  0  0  0
  4 22  2  0  0  0  0
  4 14  1  0  0  0  0
  5  1  1  6  0  0  0
  5  8  1  0  0  0  0
  6 17  2  0  0  0  0
  6 12  1  0  0  0  0
  8  7  1  1  0  0  0
  8 11  1  0  0  0  0
  9 19  1  0  0  0  0
 11 10  1  1  0  0  0
 12 20  2  0  0  0  0
 12 19  1  0  0  0  0
 13 20  1  0  0  0  0
 14 15  1  0  0  0  0
 18 19  2  0  0  0  0
M  CHG  1  21  -1
M  END
>  <CHROM.1>
70.19445765,140.21096080,-57.86294829,-78.24952053,96.88741609,-30.54027476
2.17971116,-11.05953797,-2.62504067,0.71913009,-1.11578762

>  <Name>
ligand

>  <RI>
0

>  <Rbt.Current_Directory>
/home/itssahil/PROJECTS/Mol_Feturizer/Test_systems_manuscript/rnas/4xwf

>  <Rbt.Executable>
rbdock ($Id: //depot/dev/client3/rdock/2013.1/src/exe/rbdock.cxx#4 $)

>  <Rbt.Library>
libRbt.so (2013.1, Build901 2013/11/27)

>  <Rbt.Parameter_File>
/export/apps/rDock/src/rDock_2013.1_src/data/scripts/dock_solv.prm

>  <Rbt.Receptor>
prm/pocket_docking_5.prm

>  <SCORE>
-7.79068

>  <SCORE.INTER>
-10.688

>  <SCORE.INTER.CONST>
1

>  <SCORE.INTER.POLAR>
0

>  <SCORE.INTER.ROT>
5

>  <SCORE.INTER.SOLV>
13.662

>  <SCORE.INTER.VDW>
-18.6126

>  <SCORE.INTER.norm>
-0.485816

>  <SCORE.INTRA>
2.89728

>  <SCORE.INTRA.DIHEDRAL>
3.90286

>  <SCORE.INTRA.DIHEDRAL.0>
3.49807

>  <SCORE.INTRA.POLAR>
0

>  <SCORE.INTRA.POLAR.0>
0

>  <SCORE.INTRA.REPUL>
0

>  <SCORE.INTRA.REPUL.0>
0

>  <SCORE.INTRA.SOLV>
0.878272

>  <SCORE.INTRA.SOLV.lig_0>
-73.062

>  <SCORE.INTRA.VDW>
0.506713

>  <SCORE.INTRA.VDW.0>
-1.83782

>  <SCORE.INTRA.norm>
0.131695

>  <SCORE.RESTR>
0

>  <SCORE.RESTR.CAVITY>
0

>  <SCORE.RESTR.norm>
0

>  <SCORE.SYSTEM>
0

>  <SCORE.SYSTEM.CONST>
0

>  <SCORE.SYSTEM.DIHEDRAL>
0

>  <SCORE.SYSTEM.SOLV>
0

>  <SCORE.SYSTEM.norm>
0

>  <SCORE.heavy>
22

>  <SCORE.norm>
-0.354122

>  <RMSD>
5.567

$$$$
ligand
 OpenBabel02271912143D
libRbt.so/2013.1/901 2013/11/27
 22 23  0  0  0  0  0  0  0  0999 V2000
  -30.6885    1.2340  -10.3050 N   0  0  0  0  0  0  0  0  0  0  0  0
  -31.3978    4.4106   -9.3786 C   0  0  1  0  0  0  0  0  0  0  0  0
  -30.9505    3.5215  -10.4413 O   0  0  0  0  0  0  0  0  0  0  0  0
  -28.4437    3.2062   -7.3344 P   0  0  1  0  0  0  0  0  0  0  0  0
  -31.6127    2.2577  -10.2720 C   0  0  2  0  0  0  0  0  0  0  0  0
  -29.6557   -0.6153   -9.8309 N   0  0  0  0  0  0  0  0  0  0  0  0
  -33.2574    1.3986   -8.7710 O   0  0  0  0  0  0  0  0  0  0  0  0
  -32.1465    2.2948   -8.8920 C   0  0  2  0  0  0  0  0  0  0  0  0
  -26.6053    0.0045  -11.3669 N   0  0  0  0  0  0  0  0  0  0  0  0
  -33.7071    4.0101   -9.4110 O   0  0  0  0  0  0  0  0  0  0  0  0
  -32.4994    3.6958   -8.6977 C   0  0  2  0  0  0  0  0  0  0  0  0
  -29.0365   -0.0458  -10.8763 C   0  0  0  0  0  0  0  0  0  0  0  0
  -29.3622    2.0075  -12.2334 N   0  0  0  0  0  0  0  0  0  0  0  0
  -29.7244    3.3523   -8.2272 O   0  0  0  0  0  0  0  0  0  0  0  0
  -30.2381    4.6220   -8.4674 C   0  0  0  0  0  0  0  0  0  0  0  0
  -28.1526    1.6621   -7.3741 O   0  0  0  0  0  0  0  0  0  0  0  0
  -30.6782    0.1852   -9.4741 C   0  0  0  0  0  0  0  0  0  0  0  0
  -27.9650   -1.5356  -12.3492 O   0  0  0  0  0  0  0  0  0  0  0  0
  -27.8552   -0.5846  -11.5755 C   0  0  0  0  0  0  0  0  0  0  0  0
  -29.6830    1.1177  -11.1827 C   0  0  0  0  0  0  0  0  0  0  0  0
  -27.3482    4.0579   -7.8842 O   0  5  0  0  0  0  0  0  0  0  0  0
  -28.6572    3.8184   -6.0107 O   0  0  0  0  0  0  0  0  0  0  0  0
  1 17  1  0  0  0  0
  1 20  1  0  0  0  0
  2 15  1  1  0  0  0
  2  3  1  0  0  0  0
  2 11  1  0  0  0  0
  3  5  1  0  0  0  0
  4 16  1  1  0  0  0
  4 21  1  0  0  0  0
  4 22  2  0  0  0  0
  4 14  1  0  0  0  0
  5  1  1  1  0  0  0
  5  8  1  0  0  0  0
  6 17  2  0  0  0  0
  6 12  1  0  0  0  0
  8  7  1  6  0  0  0
  8 11  1  0  0  0  0
  9 19  1  0  0  0  0
 11 10  1  6  0  0  0
 12 20  2  0  0  0  0
 12 19  1  0  0  0  0
 13 20  1  0  0  0  0
 14 15  1  0  0  0  0
 18 19  2  0  0  0  0
M  CHG  1  21  -1
M  END
>  <CHROM.1>
136.99975320,-47.53043666,-177.09058133,177.75261355,-105.44319199,-29.89778514
2.12194949,-9.38378922,1.08461077,0.25730029,-2.34617045

>  <Name>
ligand

>  <RI>
0

>  <Rbt.Current_Directory>
/home/itssahil/PROJECTS/Mol_Feturizer/Test_systems_manuscript/rnas/4xwf

>  <Rbt.Executable>
rbdock ($Id: //depot/dev/client3/rdock/2013.1/src/exe/rbdock.cxx#4 $)

>  <Rbt.Library>
libRbt.so (2013.1, Build901 2013/11/27)

>  <Rbt.Parameter_File>
/export/apps/rDock/src/rDock_2013.1_src/data/scripts/dock_solv.prm

>  <Rbt.Receptor>
prm/pocket_docking_5.prm

>  <SCORE>
-2.6668

>  <SCORE.INTER>
-4.0519

>  <SCORE.INTER.CONST>
1

>  <SCORE.INTER.POLAR>
0

>  <SCORE.INTER.ROT>
5

>  <SCORE.INTER.SOLV>
10.7471

>  <SCORE.INTER.VDW>
-13.217

>  <SCORE.INTER.norm>
-0.184177

>  <SCORE.INTRA>
1.38511

>  <SCORE.INTRA.DIHEDRAL>
-1.18769

>  <SCORE.INTRA.DIHEDRAL.0>
3.49807

>  <SCORE.INTRA.POLAR>
0

>  <SCORE.INTRA.POLAR.0>
0

>  <SCORE.INTRA.REPUL>
0

>  <SCORE.INTRA.REPUL.0>
0

>  <SCORE.INTRA.SOLV>
1.44202

>  <SCORE.INTRA.SOLV.lig_0>
-73.062

>  <SCORE.INTRA.VDW>
1.25794

>  <SCORE.INTRA.VDW.0>
-1.83782

>  <SCORE.INTRA.norm>
0.0629594

>  <SCORE.RESTR>
0

>  <SCORE.RESTR.CAVITY>
0

>  <SCORE.RESTR.norm>
0

>  <SCORE.SYSTEM>
0

>  <SCORE.SYSTEM.CONST>
0

>  <SCORE.SYSTEM.DIHEDRAL>
0

>  <SCORE.SYSTEM.SOLV>
0

>  <SCORE.SYSTEM.norm>
0

>  <SCORE.heavy>
22

>  <SCORE.norm>
-0.121218

>  <RMSD>
5.641

$$$$
ligand
 OpenBabel02271912143D
libRbt.so/2013.1/901 2013/11/27
 22 23  0  0  0  0  0  0  0  0999 V2000
  -30.9986    1.1427   -9.4758 N   0  0  0  0  0  0  0  0  0  0  0  0
  -29.1415    1.1891  -12.3045 C   0  0  1  0  0  0  0  0  0  0  0  0
  -30.4724    1.0992  -11.7210 O   0  0  0  0  0  0  0  0  0  0  0  0
  -26.3465   -1.3070  -12.8651 P   0  0  1  0  0  0  0  0  0  0  0  0
  -30.4851    1.8857  -10.5186 C   0  0  2  0  0  0  0  0  0  0  0  0
  -31.2564   -0.4446   -8.0181 N   0  0  0  0  0  0  0  0  0  0  0  0
  -28.9142    3.2944   -9.4035 O   0  0  0  0  0  0  0  0  0  0  0  0
  -29.0570    2.1157  -10.2048 C   0  0  2  0  0  0  0  0  0  0  0  0
  -33.3969   -0.7287   -5.9985 N   0  0  0  0  0  0  0  0  0  0  0  0
  -28.7319    3.4894  -12.1165 O   0  0  0  0  0  0  0  0  0  0  0  0
  -28.4293    2.2187  -11.5164 C   0  0  2  0  0  0  0  0  0  0  0  0
  -32.1797    0.4990   -7.7776 C   0  0  0  0  0  0  0  0  0  0  0  0
  -32.7780    2.6951   -8.7689 N   0  0  0  0  0  0  0  0  0  0  0  0
  -27.2762   -0.0463  -12.7946 O   0  0  0  0  0  0  0  0  0  0  0  0
  -28.5061   -0.1502  -12.1543 C   0  0  0  0  0  0  0  0  0  0  0  0
  -27.2054   -2.3415  -13.6791 O   0  0  0  0  0  0  0  0  0  0  0  0
  -30.5278   -0.0449   -9.0777 C   0  0  0  0  0  0  0  0  0  0  0  0
  -33.8741    1.4514   -6.4514 O   0  0  0  0  0  0  0  0  0  0  0  0
  -33.1955    0.4574   -6.7095 C   0  0  0  0  0  0  0  0  0  0  0  0
  -32.0217    1.5033   -8.6896 C   0  0  0  0  0  0  0  0  0  0  0  0
  -25.0489   -0.9392  -13.5047 O   0  5  0  0  0  0  0  0  0  0  0  0
  -25.9072   -1.7082  -11.5165 O   0  0  0  0  0  0  0  0  0  0  0  0
  1 17  1  0  0  0  0
  1 20  1  0  0  0  0
  2 15  1  1  0  0  0
  2  3  1  0  0  0  0
  2 11  1  0  0  0  0
  3  5  1  0  0  0  0
  4 16  1  6  0  0  0
  4 21  1  0  0  0  0
  4 22  2  0  0  0  0
  4 14  1  0  0  0  0
  5  1  1  1  0  0  0
  5  8  1  0  0  0  0
  6 17  2  0  0  0  0
  6 12  1  0  0  0  0
  8  7  1  1  0  0  0
  8 11  1  0  0  0  0
  9 19  1  0  0  0  0
 11 10  1  6  0  0  0
 12 20  2  0  0  0  0
 12 19  1  0  0  0  0
 13 20  1  0  0  0  0
 14 15  1  0  0  0  0
 18 19  2  0  0  0  0
M  CHG  1  21  -1
M  END
>  <CHROM.1>
55.66063450,176.40890224,61.60707012,-178.24900335,-11.09950531,-29.51523636
0.57414644,-10.47301965,-3.10520684,-0.75098258,2.86855662

>  <Name>
ligand

>  <RI>
0

>  <Rbt.Current_Directory>
/home/itssahil/PROJECTS/Mol_Feturizer/Test_systems_manuscript/rnas/4xwf

>  <Rbt.Executable>
rbdock ($Id: //depot/dev/client3/rdock/2013.1/src/exe/rbdock.cxx#4 $)

>  <Rbt.Library>
libRbt.so (2013.1, Build901 2013/11/27)

>  <Rbt.Parameter_File>
/export/apps/rDock/src/rDock_2013.1_src/data/scripts/dock_solv.prm

>  <Rbt.Receptor>
prm/pocket_docking_7.prm

>  <SCORE>
-5.06208

>  <SCORE.INTER>
-3.996

>  <SCORE.INTER.CONST>
1

>  <SCORE.INTER.POLAR>
0

>  <SCORE.INTER.ROT>
5

>  <SCORE.INTER.SOLV>
10.1355

>  <SCORE.INTER.VDW>
-12.9758

>  <SCORE.INTER.norm>
-0.181636

>  <SCORE.INTRA>
-1.06608

>  <SCORE.INTRA.DIHEDRAL>
-1.80834

>  <SCORE.INTRA.DIHEDRAL.0>
3.49807

>  <SCORE.INTRA.POLAR>
0

>  <SCORE.INTRA.POLAR.0>
0

>  <SCORE.INTRA.REPUL>
0

>  <SCORE.INTRA.REPUL.0>
0

>  <SCORE.INTRA.SOLV>
-0.765426

>  <SCORE.INTRA.SOLV.lig_0>
-73.062

>  <SCORE.INTRA.VDW>
0.220802

>  <SCORE.INTRA.VDW.0>
-1.83782

>  <SCORE.INTRA.norm>
-0.0484582

>  <SCORE.RESTR>
0

>  <SCORE.RESTR.CAVITY>
0

>  <SCORE.RESTR.norm>
0

>  <SCORE.SYSTEM>
0

>  <SCORE.SYSTEM.CONST>
0

>  <SCORE.SYSTEM.DIHEDRAL>
0

>  <SCORE.SYSTEM.SOLV>
0

>  <SCORE.SYSTEM.norm>
0

>  <SCORE.heavy>
22

>  <SCORE.norm>
-0.230094

>  <RMSD>
5.878

$$$$
ligand
 OpenBabel02271912143D
libRbt.so/2013.1/901 2013/11/27
 22 23  0  0  0  0  0  0  0  0999 V2000
  -32.1394    2.8566   -9.0705 N   0  0  0  0  0  0  0  0  0  0  0  0
  -29.7278    1.0457  -10.6058 C   0  0  1  0  0  0  0  0  0  0  0  0
  -30.1519    2.3537  -10.1274 O   0  0  0  0  0  0  0  0  0  0  0  0
  -28.3392    1.2856  -13.2410 P   0  0  1  0  0  0  0  0  0  0  0  0
  -30.9553    2.1585   -8.9523 C   0  0  2  0  0  0  0  0  0  0  0  0
  -34.0770    3.5023   -9.8052 N   0  0  0  0  0  0  0  0  0  0  0  0
  -31.6153    0.2704   -7.6502 O   0  0  0  0  0  0  0  0  0  0  0  0
  -31.3124    0.7223   -8.9753 C   0  0  2  0  0  0  0  0  0  0  0  0
  -34.2561    6.5838   -8.1608 N   0  0  0  0  0  0  0  0  0  0  0  0
  -29.0699    0.0331   -8.5968 O   0  0  0  0  0  0  0  0  0  0  0  0
  -30.1376    0.0855   -9.5578 C   0  0  2  0  0  0  0  0  0  0  0  0
  -33.7921    4.2070   -8.6994 C   0  0  0  0  0  0  0  0  0  0  0  0
  -31.9196    4.2810   -7.0709 N   0  0  0  0  0  0  0  0  0  0  0  0
  -29.8163    1.6070  -12.8247 O   0  0  0  0  0  0  0  0  0  0  0  0
  -30.4450    0.7945  -11.8875 C   0  0  0  0  0  0  0  0  0  0  0  0
  -28.3521   -0.2742  -13.4348 O   0  0  0  0  0  0  0  0  0  0  0  0
  -33.0455    2.6681  -10.0369 C   0  0  0  0  0  0  0  0  0  0  0  0
  -35.6940    4.9376   -7.5220 O   0  0  0  0  0  0  0  0  0  0  0  0
  -34.6485    5.2441   -8.0947 C   0  0  0  0  0  0  0  0  0  0  0  0
  -32.5748    3.8039   -8.2292 C   0  0  0  0  0  0  0  0  0  0  0  0
  -27.9829    2.0596  -14.4666 O   0  5  0  0  0  0  0  0  0  0  0  0
  -27.3880    1.8352  -12.2582 O   0  0  0  0  0  0  0  0  0  0  0  0
  1 17  1  0  0  0  0
  1 20  1  0  0  0  0
  2 15  1  6  0  0  0
  2  3  1  0  0  0  0
  2 11  1  0  0  0  0
  3  5  1  0  0  0  0
  4 16  1  6  0  0  0
  4 21  1  0  0  0  0
  4 22  2  0  0  0  0
  4 14  1  0  0  0  0
  5  1  1  6  0  0  0
  5  8  1  0  0  0  0
  6 17  2  0  0  0  0
  6 12  1  0  0  0  0
  8  7  1  1  0  0  0
  8 11  1  0  0  0  0
  9 19  1  0  0  0  0
 11 10  1  1  0  0  0
 12 20  2  0  0  0  0
 12 19  1  0  0  0  0
 13 20  1  0  0  0  0
 14 15  1  0  0  0  0
 18 19  2  0  0  0  0
M  CHG  1  21  -1
M  END
>  <CHROM.1>
59.79797159,74.31874583,44.11384475,67.82791193,-109.58854231,-30.99091328
2.25083026,-10.21338289,-2.90498226,0.78822793,-0.96150871

>  <Name>
ligand

>  <RI>
0

>  <Rbt.Current_Directory>
/home/itssahil/PROJECTS/Mol_Feturizer/Test_systems_manuscript/rnas/4xwf

>  <Rbt.Executable>
rbdock ($Id: //depot/dev/client3/rdock/2013.1/src/exe/rbdock.cxx#4 $)

>  <Rbt.Library>
libRbt.so (2013.1, Build901 2013/11/27)

>  <Rbt.Parameter_File>
/export/apps/rDock/src/rDock_2013.1_src/data/scripts/dock_solv.prm

>  <Rbt.Receptor>
prm/pocket_docking_5.prm

>  <SCORE>
-9.19149

>  <SCORE.INTER>
-10.1277

>  <SCORE.INTER.CONST>
1

>  <SCORE.INTER.POLAR>
0

>  <SCORE.INTER.ROT>
5

>  <SCORE.INTER.SOLV>
12.0405

>  <SCORE.INTER.VDW>
-17.6986

>  <SCORE.INTER.norm>
-0.460351

>  <SCORE.INTRA>
0.936231

>  <SCORE.INTRA.DIHEDRAL>
-0.394435

>  <SCORE.INTRA.DIHEDRAL.0>
3.49807

>  <SCORE.INTRA.POLAR>
0

>  <SCORE.INTRA.POLAR.0>
0

>  <SCORE.INTRA.REPUL>
0

>  <SCORE.INTRA.REPUL.0>
0

>  <SCORE.INTRA.SOLV>
1.13942

>  <SCORE.INTRA.SOLV.lig_0>
-73.062

>  <SCORE.INTRA.VDW>
0.563738

>  <SCORE.INTRA.VDW.0>
-1.83782

>  <SCORE.INTRA.norm>
0.042556

>  <SCORE.RESTR>
0

>  <SCORE.RESTR.CAVITY>
0

>  <SCORE.RESTR.norm>
0

>  <SCORE.SYSTEM>
0

>  <SCORE.SYSTEM.CONST>
0

>  <SCORE.SYSTEM.DIHEDRAL>
0

>  <SCORE.SYSTEM.SOLV>
0

>  <SCORE.SYSTEM.norm>
0

>  <SCORE.heavy>
22

>  <SCORE.norm>
-0.417795

>  <RMSD>
5.907

$$$$
ligand
 OpenBabel02271912143D
libRbt.so/2013.1/901 2013/11/27
 22 23  0  0  0  0  0  0  0  0999 V2000
  -32.8553    2.2798   -9.9680 N   0  0  0  0  0  0  0  0  0  0  0  0
  -33.0533    5.1036   -8.1133 C   0  0  1  0  0  0  0  0  0  0  0  0
  -33.2716    4.4787   -9.4102 O   0  0  0  0  0  0  0  0  0  0  0  0
  -29.9383    7.1363   -8.8187 P   0  0  1  0  0  0  0  0  0  0  0  0
  -33.6360    3.1069   -9.1873 C   0  0  2  0  0  0  0  0  0  0  0  0
  -32.2731    0.7205  -11.3610 N   0  0  0  0  0  0  0  0  0  0  0  0
  -34.0281    1.7535   -7.2611 O   0  0  0  0  0  0  0  0  0  0  0  0
  -33.2536    2.8397   -7.7826 C   0  0  2  0  0  0  0  0  0  0  0  0
  -29.0896    2.0694  -12.1575 N   0  0  0  0  0  0  0  0  0  0  0  0
  -34.9106    4.3106   -6.9233 O   0  0  0  0  0  0  0  0  0  0  0  0
  -33.4997    4.1105   -7.1119 C   0  0  2  0  0  0  0  0  0  0  0  0
  -31.1676    1.3838  -10.9887 C   0  0  0  0  0  0  0  0  0  0  0  0
  -30.6639    3.3083   -9.5035 N   0  0  0  0  0  0  0  0  0  0  0  0
  -31.3595    6.4739   -8.8201 O   0  0  0  0  0  0  0  0  0  0  0  0
  -31.5929    5.3762   -7.9989 C   0  0  0  0  0  0  0  0  0  0  0  0
  -30.1151    8.3674   -9.7797 O   0  0  0  0  0  0  0  0  0  0  0  0
  -33.3196    1.2755  -10.7205 C   0  0  0  0  0  0  0  0  0  0  0  0
  -29.2761    0.0030  -11.2188 O   0  0  0  0  0  0  0  0  0  0  0  0
  -29.7955    1.0956  -11.4459 C   0  0  0  0  0  0  0  0  0  0  0  0
  -31.5265    2.3692  -10.1139 C   0  0  0  0  0  0  0  0  0  0  0  0
  -29.5508    7.4911   -7.4216 O   0  5  0  0  0  0  0  0  0  0  0  0
  -28.9016    6.1494   -9.1707 O   0  0  0  0  0  0  0  0  0  0  0  0
  1 17  1  0  0  0  0
  1 20  1  0  0  0  0
  2 15  1  1  0  0  0
  2  3  1  0  0  0  0
  2 11  1  0  0  0  0
  3  5  1  0  0  0  0
  4 16  1  6  0  0  0
  4 21  1  0  0  0  0
  4 22  2  0  0  0  0
  4 14  1  0  0  0  0
  5  1  1  6  0  0  0
  5  8  1  0  0  0  0
  6 17  2  0  0  0  0
  6 12  1  0  0  0  0
  8  7  1  1  0  0  0
  8 11  1  0  0  0  0
  9 19  1  0  0  0  0
 11 10  1  6  0  0  0
 12 20  2  0  0  0  0
 12 19  1  0  0  0  0
 13 20  1  0  0  0  0
 14 15  1  0  0  0  0
 18 19  2  0  0  0  0
M  CHG  1  21  -1
M  END
>  <CHROM.1>
-132.63643012,74.94004032,-176.40216276,173.34634477,118.02761255,-31.56832122
3.97745779,-9.25553220,1.79628086,-0.52841446,-2.69434177

>  <Name>
ligand

>  <RI>
0

>  <Rbt.Current_Directory>
/home/itssahil/PROJECTS/Mol_Feturizer/Test_systems_manuscript/rnas/4xwf

>  <Rbt.Executable>
rbdock ($Id: //depot/dev/client3/rdock/2013.1/src/exe/rbdock.cxx#4 $)

>  <Rbt.Library>
libRbt.so (2013.1, Build901 2013/11/27)

>  <Rbt.Parameter_File>
/export/apps/rDock/src/rDock_2013.1_src/data/scripts/dock_solv.prm

>  <Rbt.Receptor>
prm/pocket_docking_5.prm

>  <SCORE>
-7.36344

>  <SCORE.INTER>
-10.4532

>  <SCORE.INTER.CONST>
1

>  <SCORE.INTER.POLAR>
0

>  <SCORE.INTER.ROT>
5

>  <SCORE.INTER.SOLV>
12.7303

>  <SCORE.INTER.VDW>
-18.1456

>  <SCORE.INTER.norm>
-0.475147

>  <SCORE.INTRA>
3.08978

>  <SCORE.INTRA.DIHEDRAL>
-0.950413

>  <SCORE.INTRA.DIHEDRAL.0>
3.49807

>  <SCORE.INTRA.POLAR>
0

>  <SCORE.INTRA.POLAR.0>
0

>  <SCORE.INTRA.REPUL>
0

>  <SCORE.INTRA.REPUL.0>
0

>  <SCORE.INTRA.SOLV>
7.09576

>  <SCORE.INTRA.SOLV.lig_0>
-73.062

>  <SCORE.INTRA.VDW>
0.0171077

>  <SCORE.INTRA.VDW.0>
-1.83782

>  <SCORE.INTRA.norm>
0.140445

>  <SCORE.RESTR>
0

>  <SCORE.RESTR.CAVITY>
0

>  <SCORE.RESTR.norm>
0

>  <SCORE.SYSTEM>
0

>  <SCORE.SYSTEM.CONST>
0

>  <SCORE.SYSTEM.DIHEDRAL>
0

>  <SCORE.SYSTEM.SOLV>
0

>  <SCORE.SYSTEM.norm>
0

>  <SCORE.heavy>
22

>  <SCORE.norm>
-0.334702

>  <RMSD>
5.935

$$$$
ligand
 OpenBabel02271912143D
libRbt.so/2013.1/901 2013/11/27
 22 23  0  0  0  0  0  0  0  0999 V2000
  -31.6504    5.0289   -8.8402 N   0  0  0  0  0  0  0  0  0  0  0  0
  -28.6863    3.7252   -9.8237 C   0  0  1  0  0  0  0  0  0  0  0  0
  -29.7788    4.6376  -10.1301 O   0  0  0  0  0  0  0  0  0  0  0  0
  -29.7478    0.9877  -12.2168 P   0  0  1  0  0  0  0  0  0  0  0  0
  -30.2785    5.1654   -8.8908 C   0  0  2  0  0  0  0  0  0  0  0  0
  -33.6479    4.2412   -9.1573 N   0  0  0  0  0  0  0  0  0  0  0  0
  -29.6691    4.9495   -6.5934 O   0  0  0  0  0  0  0  0  0  0  0  0
  -29.7301    4.2662   -7.8508 C   0  0  2  0  0  0  0  0  0  0  0  0
  -35.7925    5.0331   -6.9799 N   0  0  0  0  0  0  0  0  0  0  0  0
  -27.4964    4.9781   -8.2397 O   0  0  0  0  0  0  0  0  0  0  0  0
  -28.4241    3.8886   -8.3770 C   0  0  2  0  0  0  0  0  0  0  0  0
  -33.7416    5.3077   -8.3484 C   0  0  0  0  0  0  0  0  0  0  0  0
  -32.1452    6.9145   -7.3318 N   0  0  0  0  0  0  0  0  0  0  0  0
  -29.1894    2.2815  -11.5292 O   0  0  0  0  0  0  0  0  0  0  0  0
  -29.1627    2.3495  -10.1405 C   0  0  0  0  0  0  0  0  0  0  0  0
  -28.8306   -0.1504  -11.6389 O   0  0  0  0  0  0  0  0  0  0  0  0
  -32.3478    4.0739   -9.4663 C   0  0  0  0  0  0  0  0  0  0  0  0
  -35.3340    7.0081   -8.0166 O   0  0  0  0  0  0  0  0  0  0  0  0
  -34.9894    5.8504   -7.7799 C   0  0  0  0  0  0  0  0  0  0  0  0
  -32.4874    5.8074   -8.1416 C   0  0  0  0  0  0  0  0  0  0  0  0
  -31.1984    0.8362  -11.8991 O   0  5  0  0  0  0  0  0  0  0  0  0
  -29.7819    1.1479  -13.6817 O   0  0  0  0  0  0  0  0  0  0  0  0
  1 17  1  0  0  0  0
  1 20  1  0  0  0  0
  2 15  1  1  0  0  0
  2  3  1  0  0  0  0
  2 11  1  0  0  0  0
  3  5  1  0  0  0  0
  4 16  1  1  0  0  0
  4 21  1  0  0  0  0
  4 22  2  0  0  0  0
  4 14  1  0  0  0  0
  5  1  1  6  0  0  0
  5  8  1  0  0  0  0
  6 17  2  0  0  0  0
  6 12  1  0  0  0  0
  8  7  1  1  0  0  0
  8 11  1  0  0  0  0
  9 19  1  0  0  0  0
 11 10  1  6  0  0  0
 12 20  2  0  0  0  0
 12 19  1  0  0  0  0
 13 20  1  0  0  0  0
 14 15  1  0  0  0  0
 18 19  2  0  0  0  0
M  CHG  1  21  -1
M  END
>  <CHROM.1>
28.21468998,72.87869409,-57.79127057,-175.67049580,58.74428953,-30.94708982
3.78668153,-9.54271749,-2.19563566,0.09454801,-2.34220948

>  <Name>
ligand

>  <RI>
0

>  <Rbt.Current_Directory>
/home/itssahil/PROJECTS/Mol_Feturizer/Test_systems_manuscript/rnas/4xwf

>  <Rbt.Executable>
rbdock ($Id: //depot/dev/client3/rdock/2013.1/src/exe/rbdock.cxx#4 $)

>  <Rbt.Library>
libRbt.so (2013.1, Build901 2013/11/27)

>  <Rbt.Parameter_File>
/export/apps/rDock/src/rDock_2013.1_src/data/scripts/dock_solv.prm

>  <Rbt.Receptor>
prm/pocket_docking_5.prm

>  <SCORE>
-6.59085

>  <SCORE.INTER>
-6.2497

>  <SCORE.INTER.CONST>
1

>  <SCORE.INTER.POLAR>
0

>  <SCORE.INTER.ROT>
5

>  <SCORE.INTER.SOLV>
20.5727

>  <SCORE.INTER.VDW>
-17.9574

>  <SCORE.INTER.norm>
-0.284077

>  <SCORE.INTRA>
-0.341148

>  <SCORE.INTRA.DIHEDRAL>
0.309456

>  <SCORE.INTRA.DIHEDRAL.0>
3.49807

>  <SCORE.INTRA.POLAR>
0

>  <SCORE.INTRA.POLAR.0>
0

>  <SCORE.INTRA.REPUL>
0

>  <SCORE.INTRA.REPUL.0>
0

>  <SCORE.INTRA.SOLV>
-0.111316

>  <SCORE.INTRA.SOLV.lig_0>
-73.062

>  <SCORE.INTRA.VDW>
-0.440218

>  <SCORE.INTRA.VDW.0>
-1.83782

>  <SCORE.INTRA.norm>
-0.0155067

>  <SCORE.RESTR>
0

>  <SCORE.RESTR.CAVITY>
0

>  <SCORE.RESTR.norm>
0

>  <SCORE.SYSTEM>
0

>  <SCORE.SYSTEM.CONST>
0

>  <SCORE.SYSTEM.DIHEDRAL>
0

>  <SCORE.SYSTEM.SOLV>
0

>  <SCORE.SYSTEM.norm>
0

>  <SCORE.heavy>
22

>  <SCORE.norm>
-0.299584

>  <RMSD>
5.942

$$$$
ligand
 OpenBabel02271912143D
libRbt.so/2013.1/901 2013/11/27
 22 23  0  0  0  0  0  0  0  0999 V2000
  -32.2144    2.8904   -8.9817 N   0  0  0  0  0  0  0  0  0  0  0  0
  -29.7899    1.0555  -10.4676 C   0  0  1  0  0  0  0  0  0  0  0  0
  -30.2071    2.3659   -9.9894 O   0  0  0  0  0  0  0  0  0  0  0  0
  -28.3237    1.2632  -13.0675 P   0  0  1  0  0  0  0  0  0  0  0  0
  -31.0446    2.1734   -8.8380 C   0  0  2  0  0  0  0  0  0  0  0  0
  -34.1117    3.5855   -9.7744 N   0  0  0  0  0  0  0  0  0  0  0  0
  -31.7676    0.2850   -7.5702 O   0  0  0  0  0  0  0  0  0  0  0  0
  -31.4225    0.7430   -8.8828 C   0  0  2  0  0  0  0  0  0  0  0  0
  -35.6213    4.9150   -7.0133 N   0  0  0  0  0  0  0  0  0  0  0  0
  -29.2015    0.0166   -8.4504 O   0  0  0  0  0  0  0  0  0  0  0  0
  -30.2421    0.0931   -9.4392 C   0  0  2  0  0  0  0  0  0  0  0  0
  -33.8655    4.2491   -8.6344 C   0  0  0  0  0  0  0  0  0  0  0  0
  -32.0627    4.2441   -6.9275 N   0  0  0  0  0  0  0  0  0  0  0  0
  -29.8010    1.6250  -12.6861 O   0  0  0  0  0  0  0  0  0  0  0  0
  -30.4762    0.8258  -11.7700 C   0  0  0  0  0  0  0  0  0  0  0  0
  -28.3859   -0.2881  -13.3127 O   0  0  0  0  0  0  0  0  0  0  0  0
  -33.0811    2.7462   -9.9910 C   0  0  0  0  0  0  0  0  0  0  0  0
  -34.6949    6.4414   -8.4266 O   0  0  0  0  0  0  0  0  0  0  0  0
  -34.7346    5.2764   -8.0311 C   0  0  0  0  0  0  0  0  0  0  0  0
  -32.6739    3.8146   -8.1277 C   0  0  0  0  0  0  0  0  0  0  0  0
  -27.9015    2.0622  -14.2554 O   0  5  0  0  0  0  0  0  0  0  0  0
  -27.3853    1.7463  -12.0385 O   0  0  0  0  0  0  0  0  0  0  0  0
  1 17  1  0  0  0  0
  1 20  1  0  0  0  0
  2 15  1  6  0  0  0
  2  3  1  0  0  0  0
  2 11  1  0  0  0  0
  3  5  1  0  0  0  0
  4 16  1  6  0  0  0
  4 21  1  0  0  0  0
  4 22  2  0  0  0  0
  4 14  1  0  0  0  0
  5  1  1  6  0  0  0
  5  8  1  0  0  0  0
  6 17  2  0  0  0  0
  6 12  1  0  0  0  0
  8  7  1  1  0  0  0
  8 11  1  0  0  0  0
  9 19  1  0  0  0  0
 11 10  1  1  0  0  0
 12 20  2  0  0  0  0
 12 19  1  0  0  0  0
 13 20  1  0  0  0  0
 14 15  1  0  0  0  0
 18 19  2  0  0  0  0
M  CHG  1  21  -1
M  END
>  <CHROM.1>
58.09587482,74.96012073,45.71631197,68.17473269,97.09458916,-31.04957988
2.26010572,-10.09625091,-2.92496893,0.78021783,-0.95060117

>  <Name>
ligand

>  <RI>
0

>  <Rbt.Current_Directory>
/home/itssahil/PROJECTS/Mol_Feturizer/Test_systems_manuscript/rnas/4xwf

>  <Rbt.Executable>
rbdock ($Id: //depot/dev/client3/rdock/2013.1/src/exe/rbdock.cxx#4 $)

>  <Rbt.Library>
libRbt.so (2013.1, Build901 2013/11/27)

>  <Rbt.Parameter_File>
/export/apps/rDock/src/rDock_2013.1_src/data/scripts/dock_solv.prm

>  <Rbt.Receptor>
prm/pocket_docking_7.prm

>  <SCORE>
-8.83649

>  <SCORE.INTER>
-9.89386

>  <SCORE.INTER.CONST>
1

>  <SCORE.INTER.POLAR>
0

>  <SCORE.INTER.ROT>
5

>  <SCORE.INTER.SOLV>
11.5446

>  <SCORE.INTER.VDW>
-17.3774

>  <SCORE.INTER.norm>
-0.449721

>  <SCORE.INTRA>
1.05737

>  <SCORE.INTRA.DIHEDRAL>
-0.00837014

>  <SCORE.INTRA.DIHEDRAL.0>
3.49807

>  <SCORE.INTRA.POLAR>
0

>  <SCORE.INTRA.POLAR.0>
0

>  <SCORE.INTRA.REPUL>
0

>  <SCORE.INTRA.REPUL.0>
0

>  <SCORE.INTRA.SOLV>
1.13914

>  <SCORE.INTRA.SOLV.lig_0>
-73.062

>  <SCORE.INTRA.VDW>
0.491987

>  <SCORE.INTRA.VDW.0>
-1.83782

>  <SCORE.INTRA.norm>
0.0480623

>  <SCORE.RESTR>
0

>  <SCORE.RESTR.CAVITY>
0

>  <SCORE.RESTR.norm>
0

>  <SCORE.SYSTEM>
0

>  <SCORE.SYSTEM.CONST>
0

>  <SCORE.SYSTEM.DIHEDRAL>
0

>  <SCORE.SYSTEM.SOLV>
0

>  <SCORE.SYSTEM.norm>
0

>  <SCORE.heavy>
22

>  <SCORE.norm>
-0.401659

>  <RMSD>
5.950

$$$$
ligand
 OpenBabel02271912143D
libRbt.so/2013.1/901 2013/11/27
 22 23  0  0  0  0  0  0  0  0999 V2000
  -32.2714    5.0238   -8.3653 N   0  0  0  0  0  0  0  0  0  0  0  0
  -31.1602    2.0525   -9.5439 C   0  0  1  0  0  0  0  0  0  0  0  0
  -31.1557    3.0067   -8.4442 O   0  0  0  0  0  0  0  0  0  0  0  0
  -27.7694    3.2159  -10.7716 P   0  0  1  0  0  0  0  0  0  0  0  0
  -32.4374    3.6551   -8.4126 C   0  0  2  0  0  0  0  0  0  0  0  0
  -31.4644    7.0071   -8.7207 N   0  0  0  0  0  0  0  0  0  0  0  0
  -34.4715    3.4399   -9.6422 O   0  0  0  0  0  0  0  0  0  0  0  0
  -33.0444    3.3526   -9.7282 C   0  0  2  0  0  0  0  0  0  0  0  0
  -34.4906    8.6754   -7.6723 N   0  0  0  0  0  0  0  0  0  0  0  0
  -33.2503    1.0365   -9.2378 O   0  0  0  0  0  0  0  0  0  0  0  0
  -32.5561    2.0130  -10.0320 C   0  0  2  0  0  0  0  0  0  0  0  0
  -32.5710    7.1330   -7.9723 C   0  0  0  0  0  0  0  0  0  0  0  0
  -34.2608    5.5825   -7.0215 N   0  0  0  0  0  0  0  0  0  0  0  0
  -28.9939    2.6699   -9.9585 O   0  0  0  0  0  0  0  0  0  0  0  0
  -30.2324    2.5788  -10.5842 C   0  0  0  0  0  0  0  0  0  0  0  0
  -28.1991    4.6862  -11.1238 O   0  0  0  0  0  0  0  0  0  0  0  0
  -31.2772    5.6949   -8.9584 C   0  0  0  0  0  0  0  0  0  0  0  0
  -32.4185    9.2237   -6.9032 O   0  0  0  0  0  0  0  0  0  0  0  0
  -33.1345    8.4017   -7.4749 C   0  0  0  0  0  0  0  0  0  0  0  0
  -33.0866    5.8885   -7.7468 C   0  0  0  0  0  0  0  0  0  0  0  0
  -26.5311    3.1133   -9.9444 O   0  5  0  0  0  0  0  0  0  0  0  0
  -27.4477    2.3195  -11.8965 O   0  0  0  0  0  0  0  0  0  0  0  0
  1 17  1  0  0  0  0
  1 20  1  0  0  0  0
  2 15  1  6  0  0  0
  2  3  1  0  0  0  0
  2 11  1  0  0  0  0
  3  5  1  0  0  0  0
  4 16  1  6  0  0  0
  4 21  1  0  0  0  0
  4 22  2  0  0  0  0
  4 14  1  0  0  0  0
  5  1  1  6  0  0  0
  5  8  1  0  0  0  0
  6 17  2  0  0  0  0
  6 12  1  0  0  0  0
  8  7  1  1  0  0  0
  8 11  1  0  0  0  0
  9 19  1  0  0  0  0
 11 10  1  1  0  0  0
 12 20  2  0  0  0  0
 12 19  1  0  0  0  0
 13 20  1  0  0  0  0
 14 15  1  0  0  0  0
 18 19  2  0  0  0  0
M  CHG  1  21  -1
M  END
>  <CHROM.1>
33.73650860,59.85893656,62.44154173,-179.16712462,129.82832066,-31.18261042
4.39258410,-9.23249338,2.37769376,0.29546851,0.30254342

>  <Name>
ligand

>  <RI>
0

>  <Rbt.Current_Directory>
/home/itssahil/PROJECTS/Mol_Feturizer/Test_systems_manuscript/rnas/4xwf

>  <Rbt.Executable>
rbdock ($Id: //depot/dev/client3/rdock/2013.1/src/exe/rbdock.cxx#4 $)

>  <Rbt.Library>
libRbt.so (2013.1, Build901 2013/11/27)

>  <Rbt.Parameter_File>
/export/apps/rDock/src/rDock_2013.1_src/data/scripts/dock_solv.prm

>  <Rbt.Receptor>
prm/pocket_docking_8.prm

>  <SCORE>
-7.29142

>  <SCORE.INTER>
-5.83516

>  <SCORE.INTER.CONST>
1

>  <SCORE.INTER.POLAR>
0

>  <SCORE.INTER.ROT>
5

>  <SCORE.INTER.SOLV>
9.07766

>  <SCORE.INTER.VDW>
-13.8493

>  <SCORE.INTER.norm>
-0.265235

>  <SCORE.INTRA>
-1.45626

>  <SCORE.INTRA.DIHEDRAL>
-1.89627

>  <SCORE.INTRA.DIHEDRAL.0>
3.49807

>  <SCORE.INTRA.POLAR>
0

>  <SCORE.INTRA.POLAR.0>
0

>  <SCORE.INTRA.REPUL>
0

>  <SCORE.INTRA.REPUL.0>
0

>  <SCORE.INTRA.SOLV>
-0.00307422

>  <SCORE.INTRA.SOLV.lig_0>
-73.062

>  <SCORE.INTRA.VDW>
-0.506583

>  <SCORE.INTRA.VDW.0>
-1.83782

>  <SCORE.INTRA.norm>
-0.0661934

>  <SCORE.RESTR>
0

>  <SCORE.RESTR.CAVITY>
0

>  <SCORE.RESTR.norm>
0

>  <SCORE.SYSTEM>
0

>  <SCORE.SYSTEM.CONST>
0

>  <SCORE.SYSTEM.DIHEDRAL>
0

>  <SCORE.SYSTEM.SOLV>
0

>  <SCORE.SYSTEM.norm>
0

>  <SCORE.heavy>
22

>  <SCORE.norm>
-0.331428

>  <RMSD>
5.956

$$$$
ligand
 OpenBabel02271912143D
libRbt.so/2013.1/901 2013/11/27
 22 23  0  0  0  0  0  0  0  0999 V2000
  -29.7664    3.7752   -9.1790 N   0  0  0  0  0  0  0  0  0  0  0  0
  -30.7552    0.7394  -10.3011 C   0  0  1  0  0  0  0  0  0  0  0  0
  -29.9674    1.4823   -9.3278 O   0  0  0  0  0  0  0  0  0  0  0  0
  -28.5999    2.3727  -12.9528 P   0  0  1  0  0  0  0  0  0  0  0  0
  -30.6461    2.7195   -9.0572 C   0  0  2  0  0  0  0  0  0  0  0  0
  -28.9981    5.7823   -9.4829 N   0  0  0  0  0  0  0  0  0  0  0  0
  -32.7074    3.7032   -9.7493 O   0  0  0  0  0  0  0  0  0  0  0  0
  -31.6241    2.8606  -10.1592 C   0  0  2  0  0  0  0  0  0  0  0  0
  -25.8762    5.2218   -7.8629 N   0  0  0  0  0  0  0  0  0  0  0  0
  -32.9106    1.0049   -9.4188 O   0  0  0  0  0  0  0  0  0  0  0  0
  -32.0236    1.4875  -10.4419 C   0  0  2  0  0  0  0  0  0  0  0  0
  -27.9665    4.9807   -9.1770 C   0  0  0  0  0  0  0  0  0  0  0  0
  -27.6858    2.5776   -8.6201 N   0  0  0  0  0  0  0  0  0  0  0  0
  -29.5520    2.0406  -11.7521 O   0  0  0  0  0  0  0  0  0  0  0  0
  -29.9822    0.7302  -11.5748 C   0  0  0  0  0  0  0  0  0  0  0  0
  -28.2549    3.8897  -12.7284 O   0  0  0  0  0  0  0  0  0  0  0  0
  -30.1146    5.0294   -9.4895 C   0  0  0  0  0  0  0  0  0  0  0  0
  -25.9788    5.9049  -10.0328 O   0  0  0  0  0  0  0  0  0  0  0  0
  -26.5552    5.3955   -9.0719 C   0  0  0  0  0  0  0  0  0  0  0  0
  -28.4428    3.7157   -8.9812 C   0  0  0  0  0  0  0  0  0  0  0  0
  -27.4204    1.4583  -12.9265 O   0  5  0  0  0  0  0  0  0  0  0  0
  -29.2285    2.0065  -14.2347 O   0  0  0  0  0  0  0  0  0  0  0  0
  1 17  1  0  0  0  0
  1 20  1  0  0  0  0
  2 15  1  6  0  0  0
  2  3  1  0  0  0  0
  2 11  1  0  0  0  0
  3  5  1  0  0  0  0
  4 16  1  1  0  0  0
  4 21  1  0  0  0  0
  4 22  2  0  0  0  0
  4 14  1  0  0  0  0
  5  1  1  6  0  0  0
  5  8  1  0  0  0  0
  6 17  2  0  0  0  0
  6 12  1  0  0  0  0
  8  7  1  1  0  0  0
  8 11  1  0  0  0  0
  9 19  1  0  0  0  0
 11 10  1  1  0  0  0
 12 20  2  0  0  0  0
 12 19  1  0  0  0  0
 13 20  1  0  0  0  0
 14 15  1  0  0  0  0
 18 19  2  0  0  0  0
M  CHG  1  21  -1
M  END
>  <CHROM.1>
153.67890488,-46.00137857,-175.22589439,175.11815154,120.42214790,-29.29462051
3.04422812,-10.51144607,0.61166686,0.48250588,1.02483745

>  <Name>
ligand

>  <RI>
0

>  <Rbt.Current_Directory>
/home/itssahil/PROJECTS/Mol_Feturizer/Test_systems_manuscript/rnas/4xwf

>  <Rbt.Executable>
rbdock ($Id: //depot/dev/client3/rdock/2013.1/src/exe/rbdock.cxx#4 $)

>  <Rbt.Library>
libRbt.so (2013.1, Build901 2013/11/27)

>  <Rbt.Parameter_File>
/export/apps/rDock/src/rDock_2013.1_src/data/scripts/dock_solv.prm

>  <Rbt.Receptor>
prm/pocket_docking_3.prm

>  <SCORE>
-2.29783

>  <SCORE.INTER>
-3.75327

>  <SCORE.INTER.CONST>
1

>  <SCORE.INTER.POLAR>
0

>  <SCORE.INTER.ROT>
5

>  <SCORE.INTER.SOLV>
10.2803

>  <SCORE.INTER.VDW>
-12.8623

>  <SCORE.INTER.norm>
-0.170603

>  <SCORE.INTRA>
1.45544

>  <SCORE.INTRA.DIHEDRAL>
-1.1979

>  <SCORE.INTRA.DIHEDRAL.0>
3.49807

>  <SCORE.INTRA.POLAR>
0

>  <SCORE.INTRA.POLAR.0>
0

>  <SCORE.INTRA.REPUL>
0

>  <SCORE.INTRA.REPUL.0>
0

>  <SCORE.INTRA.SOLV>
3.14974

>  <SCORE.INTRA.SOLV.lig_0>
-73.062

>  <SCORE.INTRA.VDW>
0.479519

>  <SCORE.INTRA.VDW.0>
-1.83782

>  <SCORE.INTRA.norm>
0.0661562

>  <SCORE.RESTR>
0

>  <SCORE.RESTR.CAVITY>
0

>  <SCORE.RESTR.norm>
0

>  <SCORE.SYSTEM>
0

>  <SCORE.SYSTEM.CONST>
0

>  <SCORE.SYSTEM.DIHEDRAL>
0

>  <SCORE.SYSTEM.SOLV>
0

>  <SCORE.SYSTEM.norm>
0

>  <SCORE.heavy>
22

>  <SCORE.norm>
-0.104447

>  <RMSD>
5.981

$$$$
ligand
 OpenBabel02271912143D
libRbt.so/2013.1/901 2013/11/27
 22 23  0  0  0  0  0  0  0  0999 V2000
  -32.1634    3.8130   -9.0935 N   0  0  0  0  0  0  0  0  0  0  0  0
  -29.6973    2.1307  -10.6875 C   0  0  1  0  0  0  0  0  0  0  0  0
  -30.4303    3.3815  -10.5530 O   0  0  0  0  0  0  0  0  0  0  0  0
  -28.5690    0.2926  -12.7865 P   0  0  1  0  0  0  0  0  0  0  0  0
  -30.8168    3.5248   -9.1766 C   0  0  2  0  0  0  0  0  0  0  0  0
  -34.3076    3.7129   -9.4146 N   0  0  0  0  0  0  0  0  0  0  0  0
  -30.4487    2.2730   -7.1783 O   0  0  0  0  0  0  0  0  0  0  0  0
  -30.6412    2.1754   -8.5943 C   0  0  2  0  0  0  0  0  0  0  0  0
  -35.0620    6.8991   -8.0574 N   0  0  0  0  0  0  0  0  0  0  0  0
  -28.2773    2.2492   -8.8263 O   0  0  0  0  0  0  0  0  0  0  0  0
  -29.4876    1.6409   -9.3075 C   0  0  2  0  0  0  0  0  0  0  0  0
  -34.0639    4.6735   -8.5099 C   0  0  0  0  0  0  0  0  0  0  0  0
  -32.0452    5.6051   -7.4053 N   0  0  0  0  0  0  0  0  0  0  0  0
  -29.7461    0.1110  -11.7667 O   0  0  0  0  0  0  0  0  0  0  0  0
  -30.5577    1.2011  -11.4722 C   0  0  0  0  0  0  0  0  0  0  0  0
  -29.2683    0.9576  -14.0272 O   0  0  0  0  0  0  0  0  0  0  0  0
  -33.1243    3.1840   -9.7801 C   0  0  0  0  0  0  0  0  0  0  0  0
  -35.9319    5.0148   -7.1202 O   0  0  0  0  0  0  0  0  0  0  0  0
  -35.0805    5.5166   -7.8540 C   0  0  0  0  0  0  0  0  0  0  0  0
  -32.7160    4.7404   -8.3002 C   0  0  0  0  0  0  0  0  0  0  0  0
  -27.4903    1.1175  -12.1669 O   0  5  0  0  0  0  0  0  0  0  0  0
  -27.8705   -0.9858  -13.0111 O   0  0  0  0  0  0  0  0  0  0  0  0
  1 17  1  0  0  0  0
  1 20  1  0  0  0  0
  2 15  1  6  0  0  0
  2  3  1  0  0  0  0
  2 11  1  0  0  0  0
  3  5  1  0  0  0  0
  4 16  1  6  0  0  0
  4 21  1  0  0  0  0
  4 22  2  0  0  0  0
  4 14  1  0  0  0  0
  5  1  1  6  0  0  0
  5  8  1  0  0  0  0
  6 17  2  0  0  0  0
  6 12  1  0  0  0  0
  8  7  1  1  0  0  0
  8 11  1  0  0  0  0
  9 19  1  0  0  0  0
 11 10  1  1  0  0  0
 12 20  2  0  0  0  0
 12 19  1  0  0  0  0
 13 20  1  0  0  0  0
 14 15  1  0  0  0  0
 18 19  2  0  0  0  0
M  CHG  1  21  -1
M  END
>  <CHROM.1>
45.52206145,170.49242377,-51.06954330,-69.81545384,-117.40129536,-31.01308164
2.65308080,-10.00330495,-2.37557290,0.41797066,-1.98527331

>  <Name>
ligand

>  <RI>
0

>  <Rbt.Current_Directory>
/home/itssahil/PROJECTS/Mol_Feturizer/Test_systems_manuscript/rnas/4xwf

>  <Rbt.Executable>
rbdock ($Id: //depot/dev/client3/rdock/2013.1/src/exe/rbdock.cxx#4 $)

>  <Rbt.Library>
libRbt.so (2013.1, Build901 2013/11/27)

>  <Rbt.Parameter_File>
/export/apps/rDock/src/rDock_2013.1_src/data/scripts/dock_solv.prm

>  <Rbt.Receptor>
prm/pocket_docking_6.prm

>  <SCORE>
-9.71199

>  <SCORE.INTER>
-10.4898

>  <SCORE.INTER.CONST>
1

>  <SCORE.INTER.POLAR>
0

>  <SCORE.INTER.ROT>
5

>  <SCORE.INTER.SOLV>
15.1441

>  <SCORE.INTER.VDW>
-18.9746

>  <SCORE.INTER.norm>
-0.476808

>  <SCORE.INTRA>
0.777797

>  <SCORE.INTRA.DIHEDRAL>
-1.13899

>  <SCORE.INTRA.DIHEDRAL.0>
3.49807

>  <SCORE.INTRA.POLAR>
0

>  <SCORE.INTRA.POLAR.0>
0

>  <SCORE.INTRA.REPUL>
0

>  <SCORE.INTRA.REPUL.0>
0

>  <SCORE.INTRA.SOLV>
2.17133

>  <SCORE.INTRA.SOLV.lig_0>
-73.062

>  <SCORE.INTRA.VDW>
0.261628

>  <SCORE.INTRA.VDW.0>
-1.83782

>  <SCORE.INTRA.norm>
0.0353544

>  <SCORE.RESTR>
0

>  <SCORE.RESTR.CAVITY>
0

>  <SCORE.RESTR.norm>
0

>  <SCORE.SYSTEM>
0

>  <SCORE.SYSTEM.CONST>
0

>  <SCORE.SYSTEM.DIHEDRAL>
0

>  <SCORE.SYSTEM.SOLV>
0

>  <SCORE.SYSTEM.norm>
0

>  <SCORE.heavy>
22

>  <SCORE.norm>
-0.441454

>  <RMSD>
5.996

$$$$
ligand
 OpenBabel02271912143D
libRbt.so/2013.1/901 2013/11/27
 22 23  0  0  0  0  0  0  0  0999 V2000
  -31.7620    5.1773   -8.7940 N   0  0  0  0  0  0  0  0  0  0  0  0
  -28.8397    3.7845   -9.7802 C   0  0  1  0  0  0  0  0  0  0  0  0
  -29.9049    4.7287  -10.0862 O   0  0  0  0  0  0  0  0  0  0  0  0
  -29.7995    1.0087  -12.1711 P   0  0  1  0  0  0  0  0  0  0  0  0
  -30.3867    5.2727   -8.8468 C   0  0  2  0  0  0  0  0  0  0  0  0
  -33.7834    4.4554   -9.1163 N   0  0  0  0  0  0  0  0  0  0  0  0
  -29.7806    5.0414   -6.5500 O   0  0  0  0  0  0  0  0  0  0  0  0
  -29.8639    4.3588   -7.8065 C   0  0  2  0  0  0  0  0  0  0  0  0
  -35.3116    7.4567   -7.8270 N   0  0  0  0  0  0  0  0  0  0  0  0
  -27.6106    5.0032   -8.1995 O   0  0  0  0  0  0  0  0  0  0  0  0
  -28.5705    3.9417   -8.3342 C   0  0  2  0  0  0  0  0  0  0  0  0
  -33.8425    5.5126   -8.2920 C   0  0  0  0  0  0  0  0  0  0  0  0
  -32.1953    7.0553   -7.2575 N   0  0  0  0  0  0  0  0  0  0  0  0
  -29.4108    2.3630  -11.4829 O   0  0  0  0  0  0  0  0  0  0  0  0
  -29.3574    2.4232  -10.0947 C   0  0  0  0  0  0  0  0  0  0  0  0
  -31.3247    0.8544  -11.8238 O   0  0  0  0  0  0  0  0  0  0  0  0
  -32.4899    4.2530   -9.4315 C   0  0  0  0  0  0  0  0  0  0  0  0
  -35.8765    5.3678   -7.1176 O   0  0  0  0  0  0  0  0  0  0  0  0
  -35.0717    6.0848   -7.7121 C   0  0  0  0  0  0  0  0  0  0  0  0
  -32.5732    5.9708   -8.0819 C   0  0  0  0  0  0  0  0  0  0  0  0
  -29.5007    1.0835  -13.6316 O   0  5  0  0  0  0  0  0  0  0  0  0
  -28.8969   -0.0740  -11.7404 O   0  0  0  0  0  0  0  0  0  0  0  0
  1 17  1  0  0  0  0
  1 20  1  0  0  0  0
  2 15  1  1  0  0  0
  2  3  1  0  0  0  0
  2 11  1  0  0  0  0
  3  5  1  0  0  0  0
  4 16  1  1  0  0  0
  4 21  1  0  0  0  0
  4 22  2  0  0  0  0
  4 14  1  0  0  0  0
  5  1  1  6  0  0  0
  5  8  1  0  0  0  0
  6 17  2  0  0  0  0
  6 12  1  0  0  0  0
  8  7  1  1  0  0  0
  8 11  1  0  0  0  0
  9 19  1  0  0  0  0
 11 10  1  6  0  0  0
 12 20  2  0  0  0  0
 12 19  1  0  0  0  0
 13 20  1  0  0  0  0
 14 15  1  0  0  0  0
 18 19  2  0  0  0  0
M  CHG  1  21  -1
M  END
>  <CHROM.1>
27.32292881,71.84692358,70.09681478,174.72348681,-128.85126376,-31.03880040
3.89304111,-9.49745213,-2.18360012,0.10204391,-2.35214014

>  <Name>
ligand

>  <RI>
0

>  <Rbt.Current_Directory>
/home/itssahil/PROJECTS/Mol_Feturizer/Test_systems_manuscript/rnas/4xwf

>  <Rbt.Executable>
rbdock ($Id: //depot/dev/client3/rdock/2013.1/src/exe/rbdock.cxx#4 $)

>  <Rbt.Library>
libRbt.so (2013.1, Build901 2013/11/27)

>  <Rbt.Parameter_File>
/export/apps/rDock/src/rDock_2013.1_src/data/scripts/dock_solv.prm

>  <Rbt.Receptor>
prm/pocket_docking_8.prm

>  <SCORE>
-8.82336

>  <SCORE.INTER>
-7.87142

>  <SCORE.INTER.CONST>
1

>  <SCORE.INTER.POLAR>
0

>  <SCORE.INTER.ROT>
5

>  <SCORE.INTER.SOLV>
18.3012

>  <SCORE.INTER.VDW>
-18.2813

>  <SCORE.INTER.norm>
-0.357792

>  <SCORE.INTRA>
-0.951947

>  <SCORE.INTRA.DIHEDRAL>
-1.18138

>  <SCORE.INTRA.DIHEDRAL.0>
3.49807

>  <SCORE.INTRA.POLAR>
0

>  <SCORE.INTRA.POLAR.0>
0

>  <SCORE.INTRA.REPUL>
0

>  <SCORE.INTRA.REPUL.0>
0

>  <SCORE.INTRA.SOLV>
0.234095

>  <SCORE.INTRA.SOLV.lig_0>
-73.062

>  <SCORE.INTRA.VDW>
-0.478303

>  <SCORE.INTRA.VDW.0>
-1.83782

>  <SCORE.INTRA.norm>
-0.0432703

>  <SCORE.RESTR>
0

>  <SCORE.RESTR.CAVITY>
0

>  <SCORE.RESTR.norm>
0

>  <SCORE.SYSTEM>
0

>  <SCORE.SYSTEM.CONST>
0

>  <SCORE.SYSTEM.DIHEDRAL>
0

>  <SCORE.SYSTEM.SOLV>
0

>  <SCORE.SYSTEM.norm>
0

>  <SCORE.heavy>
22

>  <SCORE.norm>
-0.401062

>  <RMSD>
5.998

$$$$
ligand
 OpenBabel02271912143D
libRbt.so/2013.1/901 2013/11/27
 22 23  0  0  0  0  0  0  0  0999 V2000
  -28.7976    3.6880  -10.1301 N   0  0  0  0  0  0  0  0  0  0  0  0
  -29.5784    0.7436  -11.6043 C   0  0  1  0  0  0  0  0  0  0  0  0
  -28.5967    1.5041  -10.8442 O   0  0  0  0  0  0  0  0  0  0  0  0
  -27.5697    1.6921  -14.6401 P   0  0  1  0  0  0  0  0  0  0  0  0
  -29.3053    2.4133   -9.9866 C   0  0  2  0  0  0  0  0  0  0  0  0
  -27.8802    5.4445  -11.0157 N   0  0  0  0  0  0  0  0  0  0  0  0
  -31.6038    2.8411   -9.5072 O   0  0  0  0  0  0  0  0  0  0  0  0
  -30.6816    2.4476  -10.5301 C   0  0  2  0  0  0  0  0  0  0  0  0
  -27.1959    7.1546   -8.0095 N   0  0  0  0  0  0  0  0  0  0  0  0
  -31.1105    0.1917   -9.9183 O   0  0  0  0  0  0  0  0  0  0  0  0
  -30.8919    1.0903  -11.0188 C   0  0  2  0  0  0  0  0  0  0  0  0
  -28.2501    5.7516   -9.7629 C   0  0  0  0  0  0  0  0  0  0  0  0
  -29.3780    4.5608   -7.8991 N   0  0  0  0  0  0  0  0  0  0  0  0
  -28.1567    0.9534  -13.3878 O   0  0  0  0  0  0  0  0  0  0  0  0
  -29.4771    1.1911  -13.0219 C   0  0  0  0  0  0  0  0  0  0  0  0
  -27.3657    3.1634  -14.1261 O   0  0  0  0  0  0  0  0  0  0  0  0
  -28.2162    4.1596  -11.2391 C   0  0  0  0  0  0  0  0  0  0  0  0
  -28.6636    8.0532   -9.5008 O   0  0  0  0  0  0  0  0  0  0  0  0
  -28.0591    7.0570   -9.1042 C   0  0  0  0  0  0  0  0  0  0  0  0
  -28.8314    4.6514   -9.1998 C   0  0  0  0  0  0  0  0  0  0  0  0
  -26.3177    1.0112  -15.0839 O   0  5  0  0  0  0  0  0  0  0  0  0
  -28.4405    1.5025  -15.8142 O   0  0  0  0  0  0  0  0  0  0  0  0
  1 17  1  0  0  0  0
  1 20  1  0  0  0  0
  2 15  1  6  0  0  0
  2  3  1  0  0  0  0
  2 11  1  0  0  0  0
  3  5  1  0  0  0  0
  4 16  1  1  0  0  0
  4 21  1  0  0  0  0
  4 22  2  0  0  0  0
  4 14  1  0  0  0  0
  5  1  1  6  0  0  0
  5  8  1  0  0  0  0
  6 17  2  0  0  0  0
  6 12  1  0  0  0  0
  8  7  1  1  0  0  0
  8 11  1  0  0  0  0
  9 19  1  0  0  0  0
 11 10  1  1  0  0  0
 12 20  2  0  0  0  0
 12 19  1  0  0  0  0
 13 20  1  0  0  0  0
 14 15  1  0  0  0  0
 18 19  2  0  0  0  0
M  CHG  1  21  -1
M  END
>  <CHROM.1>
27.97639749,57.82019671,74.07588208,-161.29376220,-114.20800598,-28.76381262
3.08520878,-11.42280157,1.68907324,0.84901896,0.74407015

>  <Name>
ligand

>  <RI>
0

>  <Rbt.Current_Directory>
/home/itssahil/PROJECTS/Mol_Feturizer/Test_systems_manuscript/rnas/4xwf

>  <Rbt.Executable>
rbdock ($Id: //depot/dev/client3/rdock/2013.1/src/exe/rbdock.cxx#4 $)

>  <Rbt.Library>
libRbt.so (2013.1, Build901 2013/11/27)

>  <Rbt.Parameter_File>
/export/apps/rDock/src/rDock_2013.1_src/data/scripts/dock_solv.prm

>  <Rbt.Receptor>
prm/pocket_docking_4.prm

>  <SCORE>
-2.28336

>  <SCORE.INTER>
-1.52948

>  <SCORE.INTER.CONST>
1

>  <SCORE.INTER.POLAR>
0

>  <SCORE.INTER.ROT>
5

>  <SCORE.INTER.SOLV>
9.9091

>  <SCORE.INTER.VDW>
-11.256

>  <SCORE.INTER.norm>
-0.0695216

>  <SCORE.INTRA>
-0.753888

>  <SCORE.INTRA.DIHEDRAL>
-0.112993

>  <SCORE.INTRA.DIHEDRAL.0>
3.49807

>  <SCORE.INTRA.POLAR>
0

>  <SCORE.INTRA.POLAR.0>
0

>  <SCORE.INTRA.REPUL>
0

>  <SCORE.INTRA.REPUL.0>
0

>  <SCORE.INTRA.SOLV>
0.186614

>  <SCORE.INTRA.SOLV.lig_0>
-73.062

>  <SCORE.INTRA.VDW>
-0.790699

>  <SCORE.INTRA.VDW.0>
-1.83782

>  <SCORE.INTRA.norm>
-0.0342676

>  <SCORE.RESTR>
0

>  <SCORE.RESTR.CAVITY>
0

>  <SCORE.RESTR.norm>
0

>  <SCORE.SYSTEM>
0

>  <SCORE.SYSTEM.CONST>
0

>  <SCORE.SYSTEM.DIHEDRAL>
0

>  <SCORE.SYSTEM.SOLV>
0

>  <SCORE.SYSTEM.norm>
0

>  <SCORE.heavy>
22

>  <SCORE.norm>
-0.103789

>  <RMSD>
6.001

$$$$
ligand
 OpenBabel02271912143D
libRbt.so/2013.1/901 2013/11/27
 22 23  0  0  0  0  0  0  0  0999 V2000
  -31.7214    5.2211   -8.8116 N   0  0  0  0  0  0  0  0  0  0  0  0
  -28.8135    3.7774   -9.7668 C   0  0  1  0  0  0  0  0  0  0  0  0
  -29.8624    4.7350  -10.0874 O   0  0  0  0  0  0  0  0  0  0  0  0
  -29.8350    1.0120  -12.1445 P   0  0  1  0  0  0  0  0  0  0  0  0
  -30.3445    5.2956   -8.8555 C   0  0  2  0  0  0  0  0  0  0  0  0
  -33.7485    4.5023   -9.1034 N   0  0  0  0  0  0  0  0  0  0  0  0
  -29.7577    5.0730   -6.5529 O   0  0  0  0  0  0  0  0  0  0  0  0
  -29.8425    4.3820   -7.8047 C   0  0  2  0  0  0  0  0  0  0  0  0
  -35.9648    5.4629   -7.1529 N   0  0  0  0  0  0  0  0  0  0  0  0
  -27.5772    4.9898   -8.1869 O   0  0  0  0  0  0  0  0  0  0  0  0
  -28.5519    3.9417   -8.3201 C   0  0  2  0  0  0  0  0  0  0  0  0
  -33.8025    5.6175   -8.3590 C   0  0  0  0  0  0  0  0  0  0  0  0
  -32.1463    7.2113   -7.4209 N   0  0  0  0  0  0  0  0  0  0  0  0
  -29.4170    2.3604  -11.4621 O   0  0  0  0  0  0  0  0  0  0  0  0
  -29.3493    2.4216  -10.0745 C   0  0  0  0  0  0  0  0  0  0  0  0
  -31.3428    0.8523  -11.7303 O   0  0  0  0  0  0  0  0  0  0  0  0
  -32.4545    4.2617   -9.3883 C   0  0  0  0  0  0  0  0  0  0  0  0
  -35.2431    7.4452   -8.0104 O   0  0  0  0  0  0  0  0  0  0  0  0
  -35.0302    6.2454   -7.8364 C   0  0  0  0  0  0  0  0  0  0  0  0
  -32.5295    6.0743   -8.1684 C   0  0  0  0  0  0  0  0  0  0  0  0
  -29.6024    1.1006  -13.6162 O   0  5  0  0  0  0  0  0  0  0  0  0
  -28.9128   -0.0734  -11.7650 O   0  0  0  0  0  0  0  0  0  0  0  0
  1 17  1  0  0  0  0
  1 20  1  0  0  0  0
  2 15  1  1  0  0  0
  2  3  1  0  0  0  0
  2 11  1  0  0  0  0
  3  5  1  0  0  0  0
  4 16  1  1  0  0  0
  4 21  1  0  0  0  0
  4 22  2  0  0  0  0
  4 14  1  0  0  0  0
  5  1  1  6  0  0  0
  5  8  1  0  0  0  0
  6 17  2  0  0  0  0
  6 12  1  0  0  0  0
  8  7  1  1  0  0  0
  8 11  1  0  0  0  0
  9 19  1  0  0  0  0
 11 10  1  6  0  0  0
 12 20  2  0  0  0  0
 12 19  1  0  0  0  0
 13 20  1  0  0  0  0
 14 15  1  0  0  0  0
 18 19  2  0  0  0  0
M  CHG  1  21  -1
M  END
>  <CHROM.1>
31.07390315,70.79599425,67.73527926,175.05260408,50.01447085,-31.02544531
3.93706884,-9.51818354,-2.17936964,0.12748182,-2.36437902

>  <Name>
ligand

>  <RI>
0

>  <Rbt.Current_Directory>
/home/itssahil/PROJECTS/Mol_Feturizer/Test_systems_manuscript/rnas/4xwf

>  <Rbt.Executable>
rbdock ($Id: //depot/dev/client3/rdock/2013.1/src/exe/rbdock.cxx#4 $)

>  <Rbt.Library>
libRbt.so (2013.1, Build901 2013/11/27)

>  <Rbt.Parameter_File>
/export/apps/rDock/src/rDock_2013.1_src/data/scripts/dock_solv.prm

>  <Rbt.Receptor>
prm/pocket_docking_6.prm

>  <SCORE>
-8.53187

>  <SCORE.INTER>
-8.02619

>  <SCORE.INTER.CONST>
1

>  <SCORE.INTER.POLAR>
0

>  <SCORE.INTER.ROT>
5

>  <SCORE.INTER.SOLV>
18.7897

>  <SCORE.INTER.VDW>
-18.5474

>  <SCORE.INTER.norm>
-0.364827

>  <SCORE.INTRA>
-0.505684

>  <SCORE.INTRA.DIHEDRAL>
0.136959

>  <SCORE.INTRA.DIHEDRAL.0>
3.49807

>  <SCORE.INTRA.POLAR>
0

>  <SCORE.INTRA.POLAR.0>
0

>  <SCORE.INTRA.REPUL>
0

>  <SCORE.INTRA.REPUL.0>
0

>  <SCORE.INTRA.SOLV>
-0.198419

>  <SCORE.INTRA.SOLV.lig_0>
-73.062

>  <SCORE.INTRA.VDW>
-0.474955

>  <SCORE.INTRA.VDW.0>
-1.83782

>  <SCORE.INTRA.norm>
-0.0229857

>  <SCORE.RESTR>
0

>  <SCORE.RESTR.CAVITY>
0

>  <SCORE.RESTR.norm>
0

>  <SCORE.SYSTEM>
0

>  <SCORE.SYSTEM.CONST>
0

>  <SCORE.SYSTEM.DIHEDRAL>
0

>  <SCORE.SYSTEM.SOLV>
0

>  <SCORE.SYSTEM.norm>
0

>  <SCORE.heavy>
22

>  <SCORE.norm>
-0.387812

>  <RMSD>
6.022

$$$$
ligand
 OpenBabel02271912143D
libRbt.so/2013.1/901 2013/11/27
 22 23  0  0  0  0  0  0  0  0999 V2000
  -32.2789    2.9711   -8.9677 N   0  0  0  0  0  0  0  0  0  0  0  0
  -29.7718    1.2792  -10.4857 C   0  0  1  0  0  0  0  0  0  0  0  0
  -30.2338    2.5509   -9.9479 O   0  0  0  0  0  0  0  0  0  0  0  0
  -28.3501    0.6573  -13.2412 P   0  0  1  0  0  0  0  0  0  0  0  0
  -31.0955    2.2751   -8.8318 C   0  0  2  0  0  0  0  0  0  0  0  0
  -34.1896    3.6380   -9.7522 N   0  0  0  0  0  0  0  0  0  0  0  0
  -31.8034    0.3029   -7.6894 O   0  0  0  0  0  0  0  0  0  0  0  0
  -31.4362    0.8409   -8.9651 C   0  0  2  0  0  0  0  0  0  0  0  0
  -35.7052    4.9158   -6.9608 N   0  0  0  0  0  0  0  0  0  0  0  0
  -29.2096    0.1443   -8.5133 O   0  0  0  0  0  0  0  0  0  0  0  0
  -30.2260    0.2509   -9.5241 C   0  0  2  0  0  0  0  0  0  0  0  0
  -33.9552    4.2947   -8.6058 C   0  0  0  0  0  0  0  0  0  0  0  0
  -32.1513    4.3069   -6.9001 N   0  0  0  0  0  0  0  0  0  0  0  0
  -29.6354    0.1714  -12.4858 O   0  0  0  0  0  0  0  0  0  0  0  0
  -30.4184    1.1058  -11.8168 C   0  0  0  0  0  0  0  0  0  0  0  0
  -28.9309    1.3711  -14.5154 O   0  0  0  0  0  0  0  0  0  0  0  0
  -33.1434    2.8206   -9.9779 C   0  0  0  0  0  0  0  0  0  0  0  0
  -34.8407    6.4641   -8.3895 O   0  0  0  0  0  0  0  0  0  0  0  0
  -34.8432    5.2993   -7.9917 C   0  0  0  0  0  0  0  0  0  0  0  0
  -32.7552    3.8779   -8.1042 C   0  0  0  0  0  0  0  0  0  0  0  0
  -27.5463    1.5419  -12.3473 O   0  5  0  0  0  0  0  0  0  0  0  0
  -27.4187   -0.4637  -13.4618 O   0  0  0  0  0  0  0  0  0  0  0  0
  1 17  1  0  0  0  0
  1 20  1  0  0  0  0
  2 15  1  6  0  0  0
  2  3  1  0  0  0  0
  2 11  1  0  0  0  0
  3  5  1  0  0  0  0
  4 16  1  6  0  0  0
  4 21  1  0  0  0  0
  4 22  2  0  0  0  0
  4 14  1  0  0  0  0
  5  1  1  6  0  0  0
  5  8  1  0  0  0  0
  6 17  2  0  0  0  0
  6 12  1  0  0  0  0
  8  7  1  1  0  0  0
  8 11  1  0  0  0  0
  9 19  1  0  0  0  0
 11 10  1  1  0  0  0
 12 20  2  0  0  0  0
 12 19  1  0  0  0  0
 13 20  1  0  0  0  0
 14 15  1  0  0  0  0
 18 19  2  0  0  0  0
M  CHG  1  21  -1
M  END
>  <CHROM.1>
61.12481949,159.88575170,-74.03931087,-83.93030451,98.22335699,-31.09000926
2.14835257,-10.14311107,-2.81334882,0.78257039,-1.14815405

>  <Name>
ligand

>  <RI>
0

>  <Rbt.Current_Directory>
/home/itssahil/PROJECTS/Mol_Feturizer/Test_systems_manuscript/rnas/4xwf

>  <Rbt.Executable>
rbdock ($Id: //depot/dev/client3/rdock/2013.1/src/exe/rbdock.cxx#4 $)

>  <Rbt.Library>
libRbt.so (2013.1, Build901 2013/11/27)

>  <Rbt.Parameter_File>
/export/apps/rDock/src/rDock_2013.1_src/data/scripts/dock_solv.prm

>  <Rbt.Receptor>
prm/pocket_docking_6.prm

>  <SCORE>
-8.51925

>  <SCORE.INTER>
-10.4809

>  <SCORE.INTER.CONST>
1

>  <SCORE.INTER.POLAR>
0

>  <SCORE.INTER.ROT>
5

>  <SCORE.INTER.SOLV>
13.8267

>  <SCORE.INTER.VDW>
-18.5295

>  <SCORE.INTER.norm>
-0.476405

>  <SCORE.INTRA>
1.96166

>  <SCORE.INTRA.DIHEDRAL>
2.59722

>  <SCORE.INTRA.DIHEDRAL.0>
3.49807

>  <SCORE.INTRA.POLAR>
0

>  <SCORE.INTRA.POLAR.0>
0

>  <SCORE.INTRA.REPUL>
0

>  <SCORE.INTRA.REPUL.0>
0

>  <SCORE.INTRA.SOLV>
1.06314

>  <SCORE.INTRA.SOLV.lig_0>
-73.062

>  <SCORE.INTRA.VDW>
0.131476

>  <SCORE.INTRA.VDW.0>
-1.83782

>  <SCORE.INTRA.norm>
0.0891662

>  <SCORE.RESTR>
0

>  <SCORE.RESTR.CAVITY>
0

>  <SCORE.RESTR.norm>
0

>  <SCORE.SYSTEM>
0

>  <SCORE.SYSTEM.CONST>
0

>  <SCORE.SYSTEM.DIHEDRAL>
0

>  <SCORE.SYSTEM.SOLV>
0

>  <SCORE.SYSTEM.norm>
0

>  <SCORE.heavy>
22

>  <SCORE.norm>
-0.387239

>  <RMSD>
6.098

$$$$
ligand
 OpenBabel02271912143D
libRbt.so/2013.1/901 2013/11/27
 22 23  0  0  0  0  0  0  0  0999 V2000
  -32.3214    3.1408   -8.8224 N   0  0  0  0  0  0  0  0  0  0  0  0
  -29.8733    1.3644  -10.3402 C   0  0  1  0  0  0  0  0  0  0  0  0
  -30.3180    2.6657   -9.8619 O   0  0  0  0  0  0  0  0  0  0  0  0
  -28.5405    0.6726  -13.1050 P   0  0  1  0  0  0  0  0  0  0  0  0
  -31.1300    2.4570   -8.6951 C   0  0  2  0  0  0  0  0  0  0  0  0
  -34.2503    3.7792   -9.5860 N   0  0  0  0  0  0  0  0  0  0  0  0
  -31.7790    0.5570   -7.4048 O   0  0  0  0  0  0  0  0  0  0  0  0
  -31.4691    1.0166   -8.7257 C   0  0  2  0  0  0  0  0  0  0  0  0
  -34.5379    6.8132   -7.8971 N   0  0  0  0  0  0  0  0  0  0  0  0
  -29.2220    0.3539   -8.3279 O   0  0  0  0  0  0  0  0  0  0  0  0
  -30.2811    0.3961   -9.2989 C   0  0  2  0  0  0  0  0  0  0  0  0
  -34.0032    4.4556   -8.4537 C   0  0  0  0  0  0  0  0  0  0  0  0
  -32.1723    4.5094   -6.7778 N   0  0  0  0  0  0  0  0  0  0  0  0
  -29.7884    0.1756  -12.2960 O   0  0  0  0  0  0  0  0  0  0  0  0
  -30.5752    1.1083  -11.6293 C   0  0  0  0  0  0  0  0  0  0  0  0
  -29.1811    1.4491  -14.3121 O   0  0  0  0  0  0  0  0  0  0  0  0
  -33.2007    2.9674   -9.8160 C   0  0  0  0  0  0  0  0  0  0  0  0
  -35.9253    5.1199   -7.2699 O   0  0  0  0  0  0  0  0  0  0  0  0
  -34.8899    5.4620   -7.8408 C   0  0  0  0  0  0  0  0  0  0  0  0
  -32.7917    4.0567   -7.9653 C   0  0  0  0  0  0  0  0  0  0  0  0
  -27.6699    1.5056  -12.2239 O   0  5  0  0  0  0  0  0  0  0  0  0
  -27.6442   -0.4527  -13.4263 O   0  0  0  0  0  0  0  0  0  0  0  0
  1 17  1  0  0  0  0
  1 20  1  0  0  0  0
  2 15  1  6  0  0  0
  2  3  1  0  0  0  0
  2 11  1  0  0  0  0
  3  5  1  0  0  0  0
  4 16  1  6  0  0  0
  4 21  1  0  0  0  0
  4 22  2  0  0  0  0
  4 14  1  0  0  0  0
  5  1  1  6  0  0  0
  5  8  1  0  0  0  0
  6 17  2  0  0  0  0
  6 12  1  0  0  0  0
  8  7  1  1  0  0  0
  8 11  1  0  0  0  0
  9 19  1  0  0  0  0
 11 10  1  1  0  0  0
 12 20  2  0  0  0  0
 12 19  1  0  0  0  0
 13 20  1  0  0  0  0
 14 15  1  0  0  0  0
 18 19  2  0  0  0  0
M  CHG  1  21  -1
M  END
>  <CHROM.1>
58.06963032,157.58666066,-69.04127711,-82.44387684,-107.50541801,-31.17874619
2.26498480,-9.98383324,-2.75874670,0.78534198,-1.23398910

>  <Name>
ligand

>  <RI>
0

>  <Rbt.Current_Directory>
/home/itssahil/PROJECTS/Mol_Feturizer/Test_systems_manuscript/rnas/4xwf

>  <Rbt.Executable>
rbdock ($Id: //depot/dev/client3/rdock/2013.1/src/exe/rbdock.cxx#4 $)

>  <Rbt.Library>
libRbt.so (2013.1, Build901 2013/11/27)

>  <Rbt.Parameter_File>
/export/apps/rDock/src/rDock_2013.1_src/data/scripts/dock_solv.prm

>  <Rbt.Receptor>
prm/pocket_docking_6.prm

>  <SCORE>
-8.59414

>  <SCORE.INTER>
-10.3339

>  <SCORE.INTER.CONST>
1

>  <SCORE.INTER.POLAR>
0

>  <SCORE.INTER.ROT>
5

>  <SCORE.INTER.SOLV>
13.5417

>  <SCORE.INTER.VDW>
-18.3365

>  <SCORE.INTER.norm>
-0.469723

>  <SCORE.INTRA>
1.73976

>  <SCORE.INTRA.DIHEDRAL>
2.13428

>  <SCORE.INTRA.DIHEDRAL.0>
3.49807

>  <SCORE.INTRA.POLAR>
0

>  <SCORE.INTRA.POLAR.0>
0

>  <SCORE.INTRA.REPUL>
0

>  <SCORE.INTRA.REPUL.0>
0

>  <SCORE.INTRA.SOLV>
1.21189

>  <SCORE.INTRA.SOLV.lig_0>
-73.062

>  <SCORE.INTRA.VDW>
0.0666798

>  <SCORE.INTRA.VDW.0>
-1.83782

>  <SCORE.INTRA.norm>
0.0790802

>  <SCORE.RESTR>
0

>  <SCORE.RESTR.CAVITY>
0

>  <SCORE.RESTR.norm>
0

>  <SCORE.SYSTEM>
0

>  <SCORE.SYSTEM.CONST>
0

>  <SCORE.SYSTEM.DIHEDRAL>
0

>  <SCORE.SYSTEM.SOLV>
0

>  <SCORE.SYSTEM.norm>
0

>  <SCORE.heavy>
22

>  <SCORE.norm>
-0.390643

>  <RMSD>
6.160

$$$$
ligand
 OpenBabel02271912143D
libRbt.so/2013.1/901 2013/11/27
 22 23  0  0  0  0  0  0  0  0999 V2000
  -30.8981    4.3655   -8.9874 N   0  0  0  0  0  0  0  0  0  0  0  0
  -31.1144    1.1725  -10.0875 C   0  0  1  0  0  0  0  0  0  0  0  0
  -30.5179    2.0952   -9.1322 O   0  0  0  0  0  0  0  0  0  0  0  0
  -28.0792    0.8565  -12.3335 P   0  0  1  0  0  0  0  0  0  0  0  0
  -31.4803    3.1229   -8.8458 C   0  0  2  0  0  0  0  0  0  0  0  0
  -30.6601    6.5200   -9.1004 N   0  0  0  0  0  0  0  0  0  0  0  0
  -33.7379    3.5516   -9.4904 O   0  0  0  0  0  0  0  0  0  0  0  0
  -32.4865    3.0070   -9.9252 C   0  0  2  0  0  0  0  0  0  0  0  0
  -27.4477    6.5199  -10.5697 N   0  0  0  0  0  0  0  0  0  0  0  0
  -33.2470    0.8910   -9.1563 O   0  0  0  0  0  0  0  0  0  0  0  0
  -32.5332    1.5759  -10.1992 C   0  0  2  0  0  0  0  0  0  0  0  0
  -29.4468    5.9579   -9.2124 C   0  0  0  0  0  0  0  0  0  0  0  0
  -28.5504    3.6429   -9.1918 N   0  0  0  0  0  0  0  0  0  0  0  0
  -29.1329    0.7985  -11.1738 O   0  0  0  0  0  0  0  0  0  0  0  0
  -30.3924    1.3514  -11.3785 C   0  0  0  0  0  0  0  0  0  0  0  0
  -28.8507    0.2298  -13.5512 O   0  0  0  0  0  0  0  0  0  0  0  0
  -31.5608    5.5278   -8.9668 C   0  0  0  0  0  0  0  0  0  0  0  0
  -27.7437    7.4159   -8.4972 O   0  0  0  0  0  0  0  0  0  0  0  0
  -28.1747    6.6831   -9.3874 C   0  0  0  0  0  0  0  0  0  0  0  0
  -29.5881    4.6015   -9.1391 C   0  0  0  0  0  0  0  0  0  0  0  0
  -27.6362    2.2668  -12.5397 O   0  5  0  0  0  0  0  0  0  0  0  0
  -26.8193    0.2080  -11.9275 O   0  0  0  0  0  0  0  0  0  0  0  0
  1 17  1  0  0  0  0
  1 20  1  0  0  0  0
  2 15  1  6  0  0  0
  2  3  1  0  0  0  0
  2 11  1  0  0  0  0
  3  5  1  0  0  0  0
  4 16  1  6  0  0  0
  4 21  1  0  0  0  0
  4 22  2  0  0  0  0
  4 14  1  0  0  0  0
  5  1  1  6  0  0  0
  5  8  1  0  0  0  0
  6 17  2  0  0  0  0
  6 12  1  0  0  0  0
  8  7  1  1  0  0  0
  8 11  1  0  0  0  0
  9 19  1  0  0  0  0
 11 10  1  1  0  0  0
 12 20  2  0  0  0  0
 12 19  1  0  0  0  0
 13 20  1  0  0  0  0
 14 15  1  0  0  0  0
 18 19  2  0  0  0  0
M  CHG  1  21  -1
M  END
>  <CHROM.1>
170.69353916,71.46345038,-53.12766505,-178.07231245,-115.35948774,-29.87577841
3.06456011,-10.29515002,1.75997776,0.37761464,0.45211484

>  <Name>
ligand

>  <RI>
0

>  <Rbt.Current_Directory>
/home/itssahil/PROJECTS/Mol_Feturizer/Test_systems_manuscript/rnas/4xwf

>  <Rbt.Executable>
rbdock ($Id: //depot/dev/client3/rdock/2013.1/src/exe/rbdock.cxx#4 $)

>  <Rbt.Library>
libRbt.so (2013.1, Build901 2013/11/27)

>  <Rbt.Parameter_File>
/export/apps/rDock/src/rDock_2013.1_src/data/scripts/dock_solv.prm

>  <Rbt.Receptor>
prm/pocket_docking_5.prm

>  <SCORE>
-5.37657

>  <SCORE.INTER>
-7.04812

>  <SCORE.INTER.CONST>
1

>  <SCORE.INTER.POLAR>
0

>  <SCORE.INTER.ROT>
5

>  <SCORE.INTER.SOLV>
7.0825

>  <SCORE.INTER.VDW>
-13.9929

>  <SCORE.INTER.norm>
-0.320369

>  <SCORE.INTRA>
1.67154

>  <SCORE.INTRA.DIHEDRAL>
-1.43166

>  <SCORE.INTRA.DIHEDRAL.0>
3.49807

>  <SCORE.INTRA.POLAR>
0

>  <SCORE.INTRA.POLAR.0>
0

>  <SCORE.INTRA.REPUL>
0

>  <SCORE.INTRA.REPUL.0>
0

>  <SCORE.INTRA.SOLV>
3.75167

>  <SCORE.INTRA.SOLV.lig_0>
-73.062

>  <SCORE.INTRA.VDW>
0.511539

>  <SCORE.INTRA.VDW.0>
-1.83782

>  <SCORE.INTRA.norm>
0.0759793

>  <SCORE.RESTR>
0

>  <SCORE.RESTR.CAVITY>
0

>  <SCORE.RESTR.norm>
0

>  <SCORE.SYSTEM>
0

>  <SCORE.SYSTEM.CONST>
0

>  <SCORE.SYSTEM.DIHEDRAL>
0

>  <SCORE.SYSTEM.SOLV>
0

>  <SCORE.SYSTEM.norm>
0

>  <SCORE.heavy>
22

>  <SCORE.norm>
-0.24439

>  <RMSD>
6.245

$$$$
ligand
 OpenBabel02271912143D
libRbt.so/2013.1/901 2013/11/27
 22 23  0  0  0  0  0  0  0  0999 V2000
  -30.7138    4.1930   -9.0867 N   0  0  0  0  0  0  0  0  0  0  0  0
  -31.1227    1.0161  -10.1787 C   0  0  1  0  0  0  0  0  0  0  0  0
  -30.4763    1.9028   -9.2217 O   0  0  0  0  0  0  0  0  0  0  0  0
  -27.9911    0.8414  -12.3028 P   0  0  1  0  0  0  0  0  0  0  0  0
  -31.3742    2.9899   -8.9458 C   0  0  2  0  0  0  0  0  0  0  0  0
  -29.2927    5.6876   -9.7631 N   0  0  0  0  0  0  0  0  0  0  0  0
  -33.5955    3.5577   -9.6086 O   0  0  0  0  0  0  0  0  0  0  0  0
  -32.3777    2.9339  -10.0323 C   0  0  2  0  0  0  0  0  0  0  0  0
  -31.2769    8.4964   -8.8012 N   0  0  0  0  0  0  0  0  0  0  0  0
  -33.2756    0.8726   -9.2627 O   0  0  0  0  0  0  0  0  0  0  0  0
  -32.5124    1.5077  -10.3023 C   0  0  2  0  0  0  0  0  0  0  0  0
  -30.1646    6.2830   -8.9349 C   0  0  0  0  0  0  0  0  0  0  0  0
  -32.1599    5.5697   -7.6412 N   0  0  0  0  0  0  0  0  0  0  0  0
  -29.0818    0.7394  -11.1809 O   0  0  0  0  0  0  0  0  0  0  0  0
  -30.3814    1.1446  -11.4648 C   0  0  0  0  0  0  0  0  0  0  0  0
  -28.5530   -0.0919  -13.4358 O   0  0  0  0  0  0  0  0  0  0  0  0
  -29.6327    4.3875   -9.8508 C   0  0  0  0  0  0  0  0  0  0  0  0
  -29.1564    8.2043   -8.0242 O   0  0  0  0  0  0  0  0  0  0  0  0
  -30.1519    7.7064   -8.5497 C   0  0  0  0  0  0  0  0  0  0  0  0
  -31.0644    5.3489   -8.5072 C   0  0  0  0  0  0  0  0  0  0  0  0
  -27.8160    2.2681  -12.7049 O   0  5  0  0  0  0  0  0  0  0  0  0
  -26.6568    0.5208  -11.7648 O   0  0  0  0  0  0  0  0  0  0  0  0
  1 17  1  0  0  0  0
  1 20  1  0  0  0  0
  2 15  1  6  0  0  0
  2  3  1  0  0  0  0
  2 11  1  0  0  0  0
  3  5  1  0  0  0  0
  4 16  1  6  0  0  0
  4 21  1  0  0  0  0
  4 22  2  0  0  0  0
  4 14  1  0  0  0  0
  5  1  1  6  0  0  0
  5  8  1  0  0  0  0
  6 17  2  0  0  0  0
  6 12  1  0  0  0  0
  8  7  1  1  0  0  0
  8 11  1  0  0  0  0
  9 19  1  0  0  0  0
 11 10  1  1  0  0  0
 12 20  2  0  0  0  0
 12 19  1  0  0  0  0
 13 20  1  0  0  0  0
 14 15  1  0  0  0  0
 18 19  2  0  0  0  0
M  CHG  1  21  -1
M  END
>  <CHROM.1>
24.87171027,60.85195307,-60.51804873,-175.89277549,122.10263599,-30.23541100
3.22063297,-10.15862359,1.90844809,0.41149308,0.39018742

>  <Name>
ligand

>  <RI>
0

>  <Rbt.Current_Directory>
/home/itssahil/PROJECTS/Mol_Feturizer/Test_systems_manuscript/rnas/4xwf

>  <Rbt.Executable>
rbdock ($Id: //depot/dev/client3/rdock/2013.1/src/exe/rbdock.cxx#4 $)

>  <Rbt.Library>
libRbt.so (2013.1, Build901 2013/11/27)

>  <Rbt.Parameter_File>
/export/apps/rDock/src/rDock_2013.1_src/data/scripts/dock_solv.prm

>  <Rbt.Receptor>
prm/pocket_docking_6.prm

>  <SCORE>
-8.26165

>  <SCORE.INTER>
-7.03512

>  <SCORE.INTER.CONST>
1

>  <SCORE.INTER.POLAR>
0

>  <SCORE.INTER.ROT>
5

>  <SCORE.INTER.SOLV>
8.6606

>  <SCORE.INTER.VDW>
-14.5103

>  <SCORE.INTER.norm>
-0.319778

>  <SCORE.INTRA>
-1.22653

>  <SCORE.INTRA.DIHEDRAL>
-1.91814

>  <SCORE.INTRA.DIHEDRAL.0>
3.49807

>  <SCORE.INTRA.POLAR>
0

>  <SCORE.INTRA.POLAR.0>
0

>  <SCORE.INTRA.REPUL>
0

>  <SCORE.INTRA.REPUL.0>
0

>  <SCORE.INTRA.SOLV>
0.374443

>  <SCORE.INTRA.SOLV.lig_0>
-73.062

>  <SCORE.INTRA.VDW>
-0.454678

>  <SCORE.INTRA.VDW.0>
-1.83782

>  <SCORE.INTRA.norm>
-0.0557512

>  <SCORE.RESTR>
0

>  <SCORE.RESTR.CAVITY>
0

>  <SCORE.RESTR.norm>
0

>  <SCORE.SYSTEM>
0

>  <SCORE.SYSTEM.CONST>
0

>  <SCORE.SYSTEM.DIHEDRAL>
0

>  <SCORE.SYSTEM.SOLV>
0

>  <SCORE.SYSTEM.norm>
0

>  <SCORE.heavy>
22

>  <SCORE.norm>
-0.375529

>  <RMSD>
6.246

$$$$
ligand
 OpenBabel02271912143D
libRbt.so/2013.1/901 2013/11/27
 22 23  0  0  0  0  0  0  0  0999 V2000
  -32.3217    3.7800   -8.7055 N   0  0  0  0  0  0  0  0  0  0  0  0
  -30.0065    1.6245   -9.9081 C   0  0  1  0  0  0  0  0  0  0  0  0
  -30.5040    2.9926   -9.8870 O   0  0  0  0  0  0  0  0  0  0  0  0
  -29.1228    0.9465  -12.6394 P   0  0  1  0  0  0  0  0  0  0  0  0
  -31.0557    3.2454   -8.5847 C   0  0  2  0  0  0  0  0  0  0  0  0
  -34.3488    4.1187   -9.4035 N   0  0  0  0  0  0  0  0  0  0  0  0
  -31.2276    2.0064   -6.5521 O   0  0  0  0  0  0  0  0  0  0  0  0
  -31.2237    1.9045   -7.9808 C   0  0  2  0  0  0  0  0  0  0  0  0
  -35.9333    5.5175   -6.7792 N   0  0  0  0  0  0  0  0  0  0  0  0
  -28.8800    1.5331   -7.8545 O   0  0  0  0  0  0  0  0  0  0  0  0
  -30.0982    1.1452   -8.5116 C   0  0  2  0  0  0  0  0  0  0  0  0
  -34.1184    4.9427   -8.3698 C   0  0  0  0  0  0  0  0  0  0  0  0
  -32.2171    5.3818   -6.8350 N   0  0  0  0  0  0  0  0  0  0  0  0
  -30.5624    1.2528  -12.0987 O   0  0  0  0  0  0  0  0  0  0  0  0
  -30.9002    0.8474  -10.8121 C   0  0  0  0  0  0  0  0  0  0  0  0
  -28.8759   -0.5371  -12.1827 O   0  0  0  0  0  0  0  0  0  0  0  0
  -33.2285    3.4017   -9.6139 C   0  0  0  0  0  0  0  0  0  0  0  0
  -35.1414    7.0588   -8.2567 O   0  0  0  0  0  0  0  0  0  0  0  0
  -35.0783    5.9130   -7.8115 C   0  0  0  0  0  0  0  0  0  0  0  0
  -32.8450    4.7330   -7.9229 C   0  0  0  0  0  0  0  0  0  0  0  0
  -29.0863    1.1545  -14.1170 O   0  5  0  0  0  0  0  0  0  0  0  0
  -28.1628    1.9638  -12.1745 O   0  0  0  0  0  0  0  0  0  0  0  0
  1 17  1  0  0  0  0
  1 20  1  0  0  0  0
  2 15  1  6  0  0  0
  2  3  1  0  0  0  0
  2 11  1  0  0  0  0
  3  5  1  0  0  0  0
  4 16  1  1  0  0  0
  4 21  1  0  0  0  0
  4 22  2  0  0  0  0
  4 14  1  0  0  0  0
  5  1  1  6  0  0  0
  5  8  1  0  0  0  0
  6 17  2  0  0  0  0
  6 12  1  0  0  0  0
  8  7  1  1  0  0  0
  8 11  1  0  0  0  0
  9 19  1  0  0  0  0
 11 10  1  1  0  0  0
 12 20  2  0  0  0  0
 12 19  1  0  0  0  0
 13 20  1  0  0  0  0
 14 15  1  0  0  0  0
 18 19  2  0  0  0  0
M  CHG  1  21  -1
M  END
>  <CHROM.1>
38.92937821,73.94091398,43.58722301,64.17409036,90.25482411,-31.35667100
2.77839295,-9.65499776,-2.54064808,0.69519493,-1.60813482

>  <Name>
ligand

>  <RI>
0

>  <Rbt.Current_Directory>
/home/itssahil/PROJECTS/Mol_Feturizer/Test_systems_manuscript/rnas/4xwf

>  <Rbt.Executable>
rbdock ($Id: //depot/dev/client3/rdock/2013.1/src/exe/rbdock.cxx#4 $)

>  <Rbt.Library>
libRbt.so (2013.1, Build901 2013/11/27)

>  <Rbt.Parameter_File>
/export/apps/rDock/src/rDock_2013.1_src/data/scripts/dock_solv.prm

>  <Rbt.Receptor>
prm/pocket_docking_8.prm

>  <SCORE>
-8.20903

>  <SCORE.INTER>
-9.46173

>  <SCORE.INTER.CONST>
1

>  <SCORE.INTER.POLAR>
0

>  <SCORE.INTER.ROT>
5

>  <SCORE.INTER.SOLV>
14.0622

>  <SCORE.INTER.VDW>
-17.9285

>  <SCORE.INTER.norm>
-0.430079

>  <SCORE.INTRA>
1.2527

>  <SCORE.INTRA.DIHEDRAL>
0.0115825

>  <SCORE.INTRA.DIHEDRAL.0>
3.49807

>  <SCORE.INTRA.POLAR>
0

>  <SCORE.INTRA.POLAR.0>
0

>  <SCORE.INTRA.REPUL>
0

>  <SCORE.INTRA.REPUL.0>
0

>  <SCORE.INTRA.SOLV>
1.74284

>  <SCORE.INTRA.SOLV.lig_0>
-73.062

>  <SCORE.INTRA.VDW>
0.375483

>  <SCORE.INTRA.VDW.0>
-1.83782

>  <SCORE.INTRA.norm>
0.0569408

>  <SCORE.RESTR>
0

>  <SCORE.RESTR.CAVITY>
0

>  <SCORE.RESTR.norm>
0

>  <SCORE.SYSTEM>
0

>  <SCORE.SYSTEM.CONST>
0

>  <SCORE.SYSTEM.DIHEDRAL>
0

>  <SCORE.SYSTEM.SOLV>
0

>  <SCORE.SYSTEM.norm>
0

>  <SCORE.heavy>
22

>  <SCORE.norm>
-0.373138

>  <RMSD>
6.246

$$$$
ligand
 OpenBabel02271912143D
libRbt.so/2013.1/901 2013/11/27
 22 23  0  0  0  0  0  0  0  0999 V2000
  -30.5684    4.1251   -9.1566 N   0  0  0  0  0  0  0  0  0  0  0  0
  -31.1801    0.9748  -10.2311 C   0  0  1  0  0  0  0  0  0  0  0  0
  -30.4501    1.8263   -9.3026 O   0  0  0  0  0  0  0  0  0  0  0  0
  -28.0895    0.8981  -12.3953 P   0  0  1  0  0  0  0  0  0  0  0  0
  -31.2805    2.9557   -8.9878 C   0  0  2  0  0  0  0  0  0  0  0  0
  -29.1186    5.5553   -9.9073 N   0  0  0  0  0  0  0  0  0  0  0  0
  -33.4977    3.6338   -9.5538 O   0  0  0  0  0  0  0  0  0  0  0  0
  -32.3315    2.9518  -10.0300 C   0  0  2  0  0  0  0  0  0  0  0  0
  -30.8465    8.4694   -8.8661 N   0  0  0  0  0  0  0  0  0  0  0  0
  -33.2959    0.9354   -9.2230 O   0  0  0  0  0  0  0  0  0  0  0  0
  -32.5479    1.5346  -10.2943 C   0  0  2  0  0  0  0  0  0  0  0  0
  -29.9004    6.1809   -9.0140 C   0  0  0  0  0  0  0  0  0  0  0  0
  -31.8396    5.5500   -7.5981 N   0  0  0  0  0  0  0  0  0  0  0  0
  -29.1925    0.6260  -11.3146 O   0  0  0  0  0  0  0  0  0  0  0  0
  -30.4895    1.0699  -11.5479 C   0  0  0  0  0  0  0  0  0  0  0  0
  -27.9325    2.4617  -12.3623 O   0  0  0  0  0  0  0  0  0  0  0  0
  -29.5320    4.2763   -9.9895 C   0  0  0  0  0  0  0  0  0  0  0  0
  -28.7635    8.0112   -8.0680 O   0  0  0  0  0  0  0  0  0  0  0  0
  -29.7867    7.5949   -8.6112 C   0  0  0  0  0  0  0  0  0  0  0  0
  -30.8178    5.2875   -8.5391 C   0  0  0  0  0  0  0  0  0  0  0  0
  -26.8495    0.1431  -12.0486 O   0  5  0  0  0  0  0  0  0  0  0  0
  -28.4579    0.2843  -13.6838 O   0  0  0  0  0  0  0  0  0  0  0  0
  1 17  1  0  0  0  0
  1 20  1  0  0  0  0
  2 15  1  6  0  0  0
  2  3  1  0  0  0  0
  2 11  1  0  0  0  0
  3  5  1  0  0  0  0
  4 16  1  6  0  0  0
  4 21  1  0  0  0  0
  4 22  2  0  0  0  0
  4 14  1  0  0  0  0
  5  1  1  6  0  0  0
  5  8  1  0  0  0  0
  6 17  2  0  0  0  0
  6 12  1  0  0  0  0
  8  7  1  1  0  0  0
  8 11  1  0  0  0  0
  9 19  1  0  0  0  0
 11 10  1  1  0  0  0
 12 20  2  0  0  0  0
 12 19  1  0  0  0  0
 13 20  1  0  0  0  0
 14 15  1  0  0  0  0
 18 19  2  0  0  0  0
M  CHG  1  21  -1
M  END
>  <CHROM.1>
26.48234157,59.67819483,67.07359460,-165.97172170,117.37105250,-30.15788558
3.19444885,-10.21275647,1.85053897,0.43073568,0.41807812

>  <Name>
ligand

>  <RI>
0

>  <Rbt.Current_Directory>
/home/itssahil/PROJECTS/Mol_Feturizer/Test_systems_manuscript/rnas/4xwf

>  <Rbt.Executable>
rbdock ($Id: //depot/dev/client3/rdock/2013.1/src/exe/rbdock.cxx#4 $)

>  <Rbt.Library>
libRbt.so (2013.1, Build901 2013/11/27)

>  <Rbt.Parameter_File>
/export/apps/rDock/src/rDock_2013.1_src/data/scripts/dock_solv.prm

>  <Rbt.Receptor>
prm/pocket_docking_6.prm

>  <SCORE>
-6.96429

>  <SCORE.INTER>
-5.8328

>  <SCORE.INTER.CONST>
1

>  <SCORE.INTER.POLAR>
0

>  <SCORE.INTER.ROT>
5

>  <SCORE.INTER.SOLV>
11.743

>  <SCORE.INTER.VDW>
-14.7362

>  <SCORE.INTER.norm>
-0.265127

>  <SCORE.INTRA>
-1.13149

>  <SCORE.INTRA.DIHEDRAL>
-1.03078

>  <SCORE.INTRA.DIHEDRAL.0>
3.49807

>  <SCORE.INTRA.POLAR>
0

>  <SCORE.INTRA.POLAR.0>
0

>  <SCORE.INTRA.REPUL>
0

>  <SCORE.INTRA.REPUL.0>
0

>  <SCORE.INTRA.SOLV>
0.192921

>  <SCORE.INTRA.SOLV.lig_0>
-73.062

>  <SCORE.INTRA.VDW>
-0.712564

>  <SCORE.INTRA.VDW.0>
-1.83782

>  <SCORE.INTRA.norm>
-0.0514314

>  <SCORE.RESTR>
0

>  <SCORE.RESTR.CAVITY>
0

>  <SCORE.RESTR.norm>
0

>  <SCORE.SYSTEM>
0

>  <SCORE.SYSTEM.CONST>
0

>  <SCORE.SYSTEM.DIHEDRAL>
0

>  <SCORE.SYSTEM.SOLV>
0

>  <SCORE.SYSTEM.norm>
0

>  <SCORE.heavy>
22

>  <SCORE.norm>
-0.316559

>  <RMSD>
6.260

$$$$
ligand
 OpenBabel02271912143D
libRbt.so/2013.1/901 2013/11/27
 22 23  0  0  0  0  0  0  0  0999 V2000
  -28.8578    3.5332  -10.5560 N   0  0  0  0  0  0  0  0  0  0  0  0
  -30.9640    0.9494  -11.1395 C   0  0  1  0  0  0  0  0  0  0  0  0
  -30.1847    2.0397  -11.7086 O   0  0  0  0  0  0  0  0  0  0  0  0
  -32.8195    3.6186   -9.1946 P   0  0  1  0  0  0  0  0  0  0  0  0
  -29.0034    2.2073  -10.9081 C   0  0  2  0  0  0  0  0  0  0  0  0
  -29.1842    5.4473   -9.5860 N   0  0  0  0  0  0  0  0  0  0  0  0
  -28.0648    1.0831   -9.0237 O   0  0  0  0  0  0  0  0  0  0  0  0
  -29.2899    1.4712   -9.6564 C   0  0  2  0  0  0  0  0  0  0  0  0
  -27.5527    7.8983   -9.7711 N   0  0  0  0  0  0  0  0  0  0  0  0
  -29.2835   -0.6380  -10.7512 O   0  0  0  0  0  0  0  0  0  0  0  0
  -30.1039    0.3455  -10.0984 C   0  0  2  0  0  0  0  0  0  0  0  0
  -28.1029    5.5555  -10.3732 C   0  0  0  0  0  0  0  0  0  0  0  0
  -26.8387    4.0376  -11.8770 N   0  0  0  0  0  0  0  0  0  0  0  0
  -31.7807    2.7542   -9.9898 O   0  0  0  0  0  0  0  0  0  0  0  0
  -32.1936    1.5507  -10.5510 C   0  0  0  0  0  0  0  0  0  0  0  0
  -32.2195    5.0689   -9.2795 O   0  0  0  0  0  0  0  0  0  0  0  0
  -29.6549    4.1913   -9.7063 C   0  0  0  0  0  0  0  0  0  0  0  0
  -26.3801    6.7992  -11.3844 O   0  0  0  0  0  0  0  0  0  0  0  0
  -27.2842    6.7693  -10.5496 C   0  0  0  0  0  0  0  0  0  0  0  0
  -27.8892    4.3533  -10.9851 C   0  0  0  0  0  0  0  0  0  0  0  0
  -34.1717    3.4701   -9.8089 O   0  5  0  0  0  0  0  0  0  0  0  0
  -33.0437    3.0592   -7.8494 O   0  0  0  0  0  0  0  0  0  0  0  0
  1 17  1  0  0  0  0
  1 20  1  0  0  0  0
  2 15  1  1  0  0  0
  2  3  1  0  0  0  0
  2 11  1  0  0  0  0
  3  5  1  0  0  0  0
  4 16  1  1  0  0  0
  4 21  1  0  0  0  0
  4 22  2  0  0  0  0
  4 14  1  0  0  0  0
  5  1  1  1  0  0  0
  5  8  1  0  0  0  0
  6 17  2  0  0  0  0
  6 12  1  0  0  0  0
  8  7  1  6  0  0  0
  8 11  1  0  0  0  0
  9 19  1  0  0  0  0
 11 10  1  6  0  0  0
 12 20  2  0  0  0  0
 12 19  1  0  0  0  0
 13 20  1  0  0  0  0
 14 15  1  0  0  0  0
 18 19  2  0  0  0  0
M  CHG  1  21  -1
M  END
>  <CHROM.1>
69.21406178,-37.98225292,-156.25604323,-176.18108043,5.55114462,-30.00289372
3.40394371,-10.14412109,-0.63918497,-0.29402474,-3.01564400

>  <Name>
ligand

>  <RI>
0

>  <Rbt.Current_Directory>
/home/itssahil/PROJECTS/Mol_Feturizer/Test_systems_manuscript/rnas/4xwf

>  <Rbt.Executable>
rbdock ($Id: //depot/dev/client3/rdock/2013.1/src/exe/rbdock.cxx#4 $)

>  <Rbt.Library>
libRbt.so (2013.1, Build901 2013/11/27)

>  <Rbt.Parameter_File>
/export/apps/rDock/src/rDock_2013.1_src/data/scripts/dock_solv.prm

>  <Rbt.Receptor>
prm/pocket_docking_3.prm

>  <SCORE>
-3.79175

>  <SCORE.INTER>
-5.81606

>  <SCORE.INTER.CONST>
1

>  <SCORE.INTER.POLAR>
0

>  <SCORE.INTER.ROT>
5

>  <SCORE.INTER.SOLV>
15.5118

>  <SCORE.INTER.VDW>
-15.9813

>  <SCORE.INTER.norm>
-0.264366

>  <SCORE.INTRA>
2.02431

>  <SCORE.INTRA.DIHEDRAL>
0.441518

>  <SCORE.INTRA.DIHEDRAL.0>
3.49807

>  <SCORE.INTRA.POLAR>
0

>  <SCORE.INTRA.POLAR.0>
0

>  <SCORE.INTRA.REPUL>
0

>  <SCORE.INTRA.REPUL.0>
0

>  <SCORE.INTRA.SOLV>
0.628128

>  <SCORE.INTRA.SOLV.lig_0>
-73.062

>  <SCORE.INTRA.VDW>
1.48949

>  <SCORE.INTRA.VDW.0>
-1.83782

>  <SCORE.INTRA.norm>
0.0920141

>  <SCORE.RESTR>
0

>  <SCORE.RESTR.CAVITY>
0

>  <SCORE.RESTR.norm>
0

>  <SCORE.SYSTEM>
0

>  <SCORE.SYSTEM.CONST>
0

>  <SCORE.SYSTEM.DIHEDRAL>
0

>  <SCORE.SYSTEM.SOLV>
0

>  <SCORE.SYSTEM.norm>
0

>  <SCORE.heavy>
22

>  <SCORE.norm>
-0.172352

>  <RMSD>
6.262

$$$$
ligand
 OpenBabel02271912143D
libRbt.so/2013.1/901 2013/11/27
 22 23  0  0  0  0  0  0  0  0999 V2000
  -30.6639    4.1890   -9.1095 N   0  0  0  0  0  0  0  0  0  0  0  0
  -31.1680    1.0080  -10.1487 C   0  0  1  0  0  0  0  0  0  0  0  0
  -30.4743    1.8932   -9.2240 O   0  0  0  0  0  0  0  0  0  0  0  0
  -28.0790    0.8858  -12.3303 P   0  0  1  0  0  0  0  0  0  0  0  0
  -31.3420    3.0007   -8.9326 C   0  0  2  0  0  0  0  0  0  0  0  0
  -29.2404    5.6491   -9.8530 N   0  0  0  0  0  0  0  0  0  0  0  0
  -33.5725    3.6034   -9.5306 O   0  0  0  0  0  0  0  0  0  0  0  0
  -32.3811    2.9513   -9.9856 C   0  0  2  0  0  0  0  0  0  0  0  0
  -31.1470    8.4937   -8.7962 N   0  0  0  0  0  0  0  0  0  0  0  0
  -33.2924    0.9169   -9.1622 O   0  0  0  0  0  0  0  0  0  0  0  0
  -32.5515    1.5249  -10.2335 C   0  0  2  0  0  0  0  0  0  0  0  0
  -30.0683    6.2688   -8.9979 C   0  0  0  0  0  0  0  0  0  0  0  0
  -32.0265    5.6066   -7.6231 N   0  0  0  0  0  0  0  0  0  0  0  0
  -29.1575    0.7126  -11.2054 O   0  0  0  0  0  0  0  0  0  0  0  0
  -30.4665    1.1072  -11.4594 C   0  0  0  0  0  0  0  0  0  0  0  0
  -27.9872    2.4454  -12.5026 O   0  0  0  0  0  0  0  0  0  0  0  0
  -29.6091    4.3554   -9.9158 C   0  0  0  0  0  0  0  0  0  0  0  0
  -28.9750    8.1872   -8.1843 O   0  0  0  0  0  0  0  0  0  0  0  0
  -30.0129    7.6949   -8.6265 C   0  0  0  0  0  0  0  0  0  0  0  0
  -30.9694    5.3565   -8.5278 C   0  0  0  0  0  0  0  0  0  0  0  0
  -26.8047    0.2325  -11.9094 O   0  5  0  0  0  0  0  0  0  0  0  0
  -28.4359    0.0955  -13.5223 O   0  0  0  0  0  0  0  0  0  0  0  0
  1 17  1  0  0  0  0
  1 20  1  0  0  0  0
  2 15  1  6  0  0  0
  2  3  1  0  0  0  0
  2 11  1  0  0  0  0
  3  5  1  0  0  0  0
  4 16  1  6  0  0  0
  4 21  1  0  0  0  0
  4 22  2  0  0  0  0
  4 14  1  0  0  0  0
  5  1  1  6  0  0  0
  5  8  1  0  0  0  0
  6 17  2  0  0  0  0
  6 12  1  0  0  0  0
  8  7  1  1  0  0  0
  8 11  1  0  0  0  0
  9 19  1  0  0  0  0
 11 10  1  1  0  0  0
 12 20  2  0  0  0  0
 12 19  1  0  0  0  0
 13 20  1  0  0  0  0
 14 15  1  0  0  0  0
 18 19  2  0  0  0  0
M  CHG  1  21  -1
M  END
>  <CHROM.1>
25.24738408,59.39118973,65.17507496,-171.57942410,124.47518005,-30.22532811
3.22798535,-10.16855543,1.88665703,0.43554964,0.38658203

>  <Name>
ligand

>  <RI>
0

>  <Rbt.Current_Directory>
/home/itssahil/PROJECTS/Mol_Feturizer/Test_systems_manuscript/rnas/4xwf

>  <Rbt.Executable>
rbdock ($Id: //depot/dev/client3/rdock/2013.1/src/exe/rbdock.cxx#4 $)

>  <Rbt.Library>
libRbt.so (2013.1, Build901 2013/11/27)

>  <Rbt.Parameter_File>
/export/apps/rDock/src/rDock_2013.1_src/data/scripts/dock_solv.prm

>  <Rbt.Receptor>
prm/pocket_docking_6.prm

>  <SCORE>
-7.0179

>  <SCORE.INTER>
-5.74073

>  <SCORE.INTER.CONST>
1

>  <SCORE.INTER.POLAR>
0

>  <SCORE.INTER.ROT>
5

>  <SCORE.INTER.SOLV>
12.0234

>  <SCORE.INTER.VDW>
-14.7683

>  <SCORE.INTER.norm>
-0.260942

>  <SCORE.INTRA>
-1.27717

>  <SCORE.INTRA.DIHEDRAL>
-1.62089

>  <SCORE.INTRA.DIHEDRAL.0>
3.49807

>  <SCORE.INTRA.POLAR>
0

>  <SCORE.INTRA.POLAR.0>
0

>  <SCORE.INTRA.REPUL>
0

>  <SCORE.INTRA.REPUL.0>
0

>  <SCORE.INTRA.SOLV>
0.278851

>  <SCORE.INTRA.SOLV.lig_0>
-73.062

>  <SCORE.INTRA.VDW>
-0.606151

>  <SCORE.INTRA.VDW.0>
-1.83782

>  <SCORE.INTRA.norm>
-0.0580531

>  <SCORE.RESTR>
0

>  <SCORE.RESTR.CAVITY>
0

>  <SCORE.RESTR.norm>
0

>  <SCORE.SYSTEM>
0

>  <SCORE.SYSTEM.CONST>
0

>  <SCORE.SYSTEM.DIHEDRAL>
0

>  <SCORE.SYSTEM.SOLV>
0

>  <SCORE.SYSTEM.norm>
0

>  <SCORE.heavy>
22

>  <SCORE.norm>
-0.318996

>  <RMSD>
6.264

$$$$
ligand
 OpenBabel02271912143D
libRbt.so/2013.1/901 2013/11/27
 22 23  0  0  0  0  0  0  0  0999 V2000
  -30.6638    4.1686   -9.1246 N   0  0  0  0  0  0  0  0  0  0  0  0
  -31.1792    0.9930  -10.1749 C   0  0  1  0  0  0  0  0  0  0  0  0
  -30.4914    1.8714   -9.2393 O   0  0  0  0  0  0  0  0  0  0  0  0
  -28.0626    0.8376  -12.3155 P   0  0  1  0  0  0  0  0  0  0  0  0
  -31.3541    2.9857   -8.9589 C   0  0  2  0  0  0  0  0  0  0  0  0
  -29.2277    5.6219   -9.8572 N   0  0  0  0  0  0  0  0  0  0  0  0
  -33.5707    3.6075   -9.5878 O   0  0  0  0  0  0  0  0  0  0  0  0
  -32.3784    2.9461  -10.0266 C   0  0  2  0  0  0  0  0  0  0  0  0
  -31.0623    8.4984   -8.8522 N   0  0  0  0  0  0  0  0  0  0  0  0
  -33.3181    0.9183   -9.2189 O   0  0  0  0  0  0  0  0  0  0  0  0
  -32.5570    1.5214  -10.2787 C   0  0  2  0  0  0  0  0  0  0  0  0
  -30.0447    6.2402   -8.9906 C   0  0  0  0  0  0  0  0  0  0  0  0
  -32.0037    5.5828   -7.6145 N   0  0  0  0  0  0  0  0  0  0  0  0
  -29.1570    0.6797  -11.2038 O   0  0  0  0  0  0  0  0  0  0  0  0
  -30.4582    1.0879  -11.4754 C   0  0  0  0  0  0  0  0  0  0  0  0
  -27.9858    2.3934  -12.5253 O   0  0  0  0  0  0  0  0  0  0  0  0
  -29.6109    4.3332   -9.9339 C   0  0  0  0  0  0  0  0  0  0  0  0
  -28.9563    8.1151   -8.0755 O   0  0  0  0  0  0  0  0  0  0  0  0
  -29.9719    7.6609   -8.6022 C   0  0  0  0  0  0  0  0  0  0  0  0
  -30.9536    5.3322   -8.5273 C   0  0  0  0  0  0  0  0  0  0  0  0
  -26.7878    0.2100  -11.8583 O   0  5  0  0  0  0  0  0  0  0  0  0
  -28.3912    0.0137  -13.4928 O   0  0  0  0  0  0  0  0  0  0  0  0
  1 17  1  0  0  0  0
  1 20  1  0  0  0  0
  2 15  1  6  0  0  0
  2  3  1  0  0  0  0
  2 11  1  0  0  0  0
  3  5  1  0  0  0  0
  4 16  1  6  0  0  0
  4 21  1  0  0  0  0
  4 22  2  0  0  0  0
  4 14  1  0  0  0  0
  5  1  1  6  0  0  0
  5  8  1  0  0  0  0
  6 17  2  0  0  0  0
  6 12  1  0  0  0  0
  8  7  1  1  0  0  0
  8 11  1  0  0  0  0
  9 19  1  0  0  0  0
 11 10  1  1  0  0  0
 12 20  2  0  0  0  0
 12 19  1  0  0  0  0
 13 20  1  0  0  0  0
 14 15  1  0  0  0  0
 18 19  2  0  0  0  0
M  CHG  1  21  -1
M  END
>  <CHROM.1>
26.51513338,59.50384046,63.36057642,-171.89424899,119.54074388,-30.21446346
3.20079966,-10.17376112,1.88016598,0.41855457,0.39342350

>  <Name>
ligand

>  <RI>
0

>  <Rbt.Current_Directory>
/home/itssahil/PROJECTS/Mol_Feturizer/Test_systems_manuscript/rnas/4xwf

>  <Rbt.Executable>
rbdock ($Id: //depot/dev/client3/rdock/2013.1/src/exe/rbdock.cxx#4 $)

>  <Rbt.Library>
libRbt.so (2013.1, Build901 2013/11/27)

>  <Rbt.Parameter_File>
/export/apps/rDock/src/rDock_2013.1_src/data/scripts/dock_solv.prm

>  <Rbt.Receptor>
prm/pocket_docking_8.prm

>  <SCORE>
-7.01167

>  <SCORE.INTER>
-5.65274

>  <SCORE.INTER.CONST>
1

>  <SCORE.INTER.POLAR>
0

>  <SCORE.INTER.ROT>
5

>  <SCORE.INTER.SOLV>
12.1139

>  <SCORE.INTER.VDW>
-14.7398

>  <SCORE.INTER.norm>
-0.256943

>  <SCORE.INTRA>
-1.35892

>  <SCORE.INTRA.DIHEDRAL>
-1.69182

>  <SCORE.INTRA.DIHEDRAL.0>
3.49807

>  <SCORE.INTRA.POLAR>
0

>  <SCORE.INTRA.POLAR.0>
0

>  <SCORE.INTRA.REPUL>
0

>  <SCORE.INTRA.REPUL.0>
0

>  <SCORE.INTRA.SOLV>
0.182345

>  <SCORE.INTRA.SOLV.lig_0>
-73.062

>  <SCORE.INTRA.VDW>
-0.604184

>  <SCORE.INTRA.VDW.0>
-1.83782

>  <SCORE.INTRA.norm>
-0.0617691

>  <SCORE.RESTR>
0

>  <SCORE.RESTR.CAVITY>
0

>  <SCORE.RESTR.norm>
0

>  <SCORE.SYSTEM>
0

>  <SCORE.SYSTEM.CONST>
0

>  <SCORE.SYSTEM.DIHEDRAL>
0

>  <SCORE.SYSTEM.SOLV>
0

>  <SCORE.SYSTEM.norm>
0

>  <SCORE.heavy>
22

>  <SCORE.norm>
-0.318712

>  <RMSD>
6.268

$$$$
ligand
 OpenBabel02271912143D
libRbt.so/2013.1/901 2013/11/27
 22 23  0  0  0  0  0  0  0  0999 V2000
  -32.2928    2.9306   -8.6917 N   0  0  0  0  0  0  0  0  0  0  0  0
  -29.7007    1.1800   -9.9834 C   0  0  1  0  0  0  0  0  0  0  0  0
  -30.1623    2.4451   -9.4299 O   0  0  0  0  0  0  0  0  0  0  0  0
  -28.1369   -0.1297  -12.2799 P   0  0  1  0  0  0  0  0  0  0  0  0
  -31.1746    2.1594   -8.4511 C   0  0  2  0  0  0  0  0  0  0  0  0
  -34.0423    3.7596   -9.6732 N   0  0  0  0  0  0  0  0  0  0  0  0
  -32.1253    0.1722   -7.5329 O   0  0  0  0  0  0  0  0  0  0  0  0
  -31.5686    0.7574   -8.7158 C   0  0  2  0  0  0  0  0  0  0  0  0
  -35.7522    4.9600   -6.8929 N   0  0  0  0  0  0  0  0  0  0  0  0
  -29.4583   -0.0937   -8.0306 O   0  0  0  0  0  0  0  0  0  0  0  0
  -30.3282    0.1287   -9.1532 C   0  0  2  0  0  0  0  0  0  0  0  0
  -33.9374    4.3214   -8.4591 C   0  0  0  0  0  0  0  0  0  0  0  0
  -32.3884    4.1117   -6.5303 N   0  0  0  0  0  0  0  0  0  0  0  0
  -29.6582   -0.0651  -11.9054 O   0  0  0  0  0  0  0  0  0  0  0  0
  -30.1772    1.1192  -11.3938 C   0  0  0  0  0  0  0  0  0  0  0  0
  -27.9574   -1.6020  -12.8000 O   0  0  0  0  0  0  0  0  0  0  0  0
  -33.0155    2.9003   -9.8175 C   0  0  0  0  0  0  0  0  0  0  0  0
  -34.8390    6.4899   -8.3111 O   0  0  0  0  0  0  0  0  0  0  0  0
  -34.8524    5.3314   -7.8956 C   0  0  0  0  0  0  0  0  0  0  0  0
  -32.8398    3.8021   -7.8338 C   0  0  0  0  0  0  0  0  0  0  0  0
  -27.8223    0.9262  -13.2870 O   0  5  0  0  0  0  0  0  0  0  0  0
  -27.3003    0.2901  -11.1413 O   0  0  0  0  0  0  0  0  0  0  0  0
  1 17  1  0  0  0  0
  1 20  1  0  0  0  0
  2 15  1  6  0  0  0
  2  3  1  0  0  0  0
  2 11  1  0  0  0  0
  3  5  1  0  0  0  0
  4 16  1  6  0  0  0
  4 21  1  0  0  0  0
  4 22  2  0  0  0  0
  4 14  1  0  0  0  0
  5  1  1  6  0  0  0
  5  8  1  0  0  0  0
  6 17  2  0  0  0  0
  6 12  1  0  0  0  0
  8  7  1  1  0  0  0
  8 11  1  0  0  0  0
  9 19  1  0  0  0  0
 11 10  1  1  0  0  0
 12 20  2  0  0  0  0
 12 19  1  0  0  0  0
 13 20  1  0  0  0  0
 14 15  1  0  0  0  0
 18 19  2  0  0  0  0
M  CHG  1  21  -1
M  END
>  <CHROM.1>
60.20777892,176.95187123,179.72912071,-75.55932730,106.47591462,-31.05940956
1.88643297,-9.67807702,-2.99227018,0.80546202,-1.07414271

>  <Name>
ligand

>  <RI>
0

>  <Rbt.Current_Directory>
/home/itssahil/PROJECTS/Mol_Feturizer/Test_systems_manuscript/rnas/4xwf

>  <Rbt.Executable>
rbdock ($Id: //depot/dev/client3/rdock/2013.1/src/exe/rbdock.cxx#4 $)

>  <Rbt.Library>
libRbt.so (2013.1, Build901 2013/11/27)

>  <Rbt.Parameter_File>
/export/apps/rDock/src/rDock_2013.1_src/data/scripts/dock_solv.prm

>  <Rbt.Receptor>
prm/pocket_docking_8.prm

>  <SCORE>
-8.68404

>  <SCORE.INTER>
-9.96145

>  <SCORE.INTER.CONST>
1

>  <SCORE.INTER.POLAR>
0

>  <SCORE.INTER.ROT>
5

>  <SCORE.INTER.SOLV>
11.8342

>  <SCORE.INTER.VDW>
-17.519

>  <SCORE.INTER.norm>
-0.452793

>  <SCORE.INTRA>
1.27741

>  <SCORE.INTRA.DIHEDRAL>
-0.630856

>  <SCORE.INTRA.DIHEDRAL.0>
3.49807

>  <SCORE.INTRA.POLAR>
0

>  <SCORE.INTRA.POLAR.0>
0

>  <SCORE.INTRA.REPUL>
0

>  <SCORE.INTRA.REPUL.0>
0

>  <SCORE.INTRA.SOLV>
2.31128

>  <SCORE.INTRA.SOLV.lig_0>
-73.062

>  <SCORE.INTRA.VDW>
0.437195

>  <SCORE.INTRA.VDW.0>
-1.83782

>  <SCORE.INTRA.norm>
0.0580639

>  <SCORE.RESTR>
0

>  <SCORE.RESTR.CAVITY>
0

>  <SCORE.RESTR.norm>
0

>  <SCORE.SYSTEM>
0

>  <SCORE.SYSTEM.CONST>
0

>  <SCORE.SYSTEM.DIHEDRAL>
0

>  <SCORE.SYSTEM.SOLV>
0

>  <SCORE.SYSTEM.norm>
0

>  <SCORE.heavy>
22

>  <SCORE.norm>
-0.394729

>  <RMSD>
6.276

$$$$
ligand
 OpenBabel02271912143D
libRbt.so/2013.1/901 2013/11/27
 22 23  0  0  0  0  0  0  0  0999 V2000
  -30.6781    4.1576   -9.1271 N   0  0  0  0  0  0  0  0  0  0  0  0
  -31.1747    0.9913  -10.2135 C   0  0  1  0  0  0  0  0  0  0  0  0
  -30.4933    1.8628   -9.2669 O   0  0  0  0  0  0  0  0  0  0  0  0
  -28.0750    0.7474  -12.3661 P   0  0  1  0  0  0  0  0  0  0  0  0
  -31.3624    2.9693   -8.9758 C   0  0  2  0  0  0  0  0  0  0  0  0
  -29.2481    5.6264   -9.8404 N   0  0  0  0  0  0  0  0  0  0  0  0
  -33.5812    3.5863   -9.6019 O   0  0  0  0  0  0  0  0  0  0  0  0
  -32.3846    2.9362  -10.0458 C   0  0  2  0  0  0  0  0  0  0  0  0
  -31.1088    8.4769   -8.7901 N   0  0  0  0  0  0  0  0  0  0  0  0
  -33.3149    0.8946   -9.2624 O   0  0  0  0  0  0  0  0  0  0  0  0
  -32.5551    1.5135  -10.3141 C   0  0  2  0  0  0  0  0  0  0  0  0
  -30.0706    6.2310   -8.9693 C   0  0  0  0  0  0  0  0  0  0  0  0
  -32.0294    5.5483   -7.6054 N   0  0  0  0  0  0  0  0  0  0  0  0
  -29.1874    0.5771  -11.2742 O   0  0  0  0  0  0  0  0  0  0  0  0
  -30.4520    1.1044  -11.5116 C   0  0  0  0  0  0  0  0  0  0  0  0
  -28.7958    0.2928  -13.6868 O   0  0  0  0  0  0  0  0  0  0  0  0
  -29.6242    4.3366   -9.9319 C   0  0  0  0  0  0  0  0  0  0  0  0
  -28.9880    8.1063   -8.0482 O   0  0  0  0  0  0  0  0  0  0  0  0
  -30.0064    7.6478   -8.5655 C   0  0  0  0  0  0  0  0  0  0  0  0
  -30.9758    5.3132   -8.5181 C   0  0  0  0  0  0  0  0  0  0  0  0
  -27.5942    2.1605  -12.3771 O   0  5  0  0  0  0  0  0  0  0  0  0
  -26.8506    0.0223  -11.9820 O   0  0  0  0  0  0  0  0  0  0  0  0
  1 17  1  0  0  0  0
  1 20  1  0  0  0  0
  2 15  1  6  0  0  0
  2  3  1  0  0  0  0
  2 11  1  0  0  0  0
  3  5  1  0  0  0  0
  4 16  1  6  0  0  0
  4 21  1  0  0  0  0
  4 22  2  0  0  0  0
  4 14  1  0  0  0  0
  5  1  1  6  0  0  0
  5  8  1  0  0  0  0
  6 17  2  0  0  0  0
  6 12  1  0  0  0  0
  8  7  1  1  0  0  0
  8 11  1  0  0  0  0
  9 19  1  0  0  0  0
 11 10  1  1  0  0  0
 12 20  2  0  0  0  0
 12 19  1  0  0  0  0
 13 20  1  0  0  0  0
 14 15  1  0  0  0  0
 18 19  2  0  0  0  0
M  CHG  1  21  -1
M  END
>  <CHROM.1>
26.46748896,65.17830208,-48.73187405,-170.16709937,120.55071363,-30.23089517
3.17265222,-10.19272623,1.87699704,0.41074034,0.40674467

>  <Name>
ligand

>  <RI>
0

>  <Rbt.Current_Directory>
/home/itssahil/PROJECTS/Mol_Feturizer/Test_systems_manuscript/rnas/4xwf

>  <Rbt.Executable>
rbdock ($Id: //depot/dev/client3/rdock/2013.1/src/exe/rbdock.cxx#4 $)

>  <Rbt.Library>
libRbt.so (2013.1, Build901 2013/11/27)

>  <Rbt.Parameter_File>
/export/apps/rDock/src/rDock_2013.1_src/data/scripts/dock_solv.prm

>  <Rbt.Receptor>
prm/pocket_docking_6.prm

>  <SCORE>
-8.2689

>  <SCORE.INTER>
-7.42171

>  <SCORE.INTER.CONST>
1

>  <SCORE.INTER.POLAR>
0

>  <SCORE.INTER.ROT>
5

>  <SCORE.INTER.SOLV>
8.68776

>  <SCORE.INTER.VDW>
-14.7771

>  <SCORE.INTER.norm>
-0.33735

>  <SCORE.INTRA>
-0.847191

>  <SCORE.INTRA.DIHEDRAL>
-1.28987

>  <SCORE.INTRA.DIHEDRAL.0>
3.49807

>  <SCORE.INTRA.POLAR>
0

>  <SCORE.INTRA.POLAR.0>
0

>  <SCORE.INTRA.REPUL>
0

>  <SCORE.INTRA.REPUL.0>
0

>  <SCORE.INTRA.SOLV>
0.354887

>  <SCORE.INTRA.SOLV.lig_0>
-73.062

>  <SCORE.INTRA.VDW>
-0.379702

>  <SCORE.INTRA.VDW.0>
-1.83782

>  <SCORE.INTRA.norm>
-0.0385087

>  <SCORE.RESTR>
0

>  <SCORE.RESTR.CAVITY>
0

>  <SCORE.RESTR.norm>
0

>  <SCORE.SYSTEM>
0

>  <SCORE.SYSTEM.CONST>
0

>  <SCORE.SYSTEM.DIHEDRAL>
0

>  <SCORE.SYSTEM.SOLV>
0

>  <SCORE.SYSTEM.norm>
0

>  <SCORE.heavy>
22

>  <SCORE.norm>
-0.375859

>  <RMSD>
6.283

$$$$
ligand
 OpenBabel02271912143D
libRbt.so/2013.1/901 2013/11/27
 22 23  0  0  0  0  0  0  0  0999 V2000
  -30.6678    4.1342   -9.1574 N   0  0  0  0  0  0  0  0  0  0  0  0
  -31.1764    0.9722  -10.2507 C   0  0  1  0  0  0  0  0  0  0  0  0
  -30.4887    1.8395   -9.3048 O   0  0  0  0  0  0  0  0  0  0  0  0
  -28.0824    0.7668  -12.4202 P   0  0  1  0  0  0  0  0  0  0  0  0
  -31.3540    2.9470   -9.0065 C   0  0  2  0  0  0  0  0  0  0  0  0
  -29.2334    5.6000   -9.8681 N   0  0  0  0  0  0  0  0  0  0  0  0
  -33.5744    3.5707   -9.6204 O   0  0  0  0  0  0  0  0  0  0  0  0
  -32.3812    2.9192  -10.0718 C   0  0  2  0  0  0  0  0  0  0  0  0
  -29.6787    7.9515   -7.2790 N   0  0  0  0  0  0  0  0  0  0  0  0
  -33.3124    0.8775   -9.2899 O   0  0  0  0  0  0  0  0  0  0  0  0
  -32.5561    1.4977  -10.3433 C   0  0  2  0  0  0  0  0  0  0  0  0
  -30.0587    6.2073   -9.0016 C   0  0  0  0  0  0  0  0  0  0  0  0
  -32.0237    5.5296   -7.6441 N   0  0  0  0  0  0  0  0  0  0  0  0
  -29.1746    0.6165  -11.3052 O   0  0  0  0  0  0  0  0  0  0  0  0
  -30.4595    1.0875  -11.5517 C   0  0  0  0  0  0  0  0  0  0  0  0
  -28.8155    0.2537  -13.7124 O   0  0  0  0  0  0  0  0  0  0  0  0
  -29.6104    4.3104   -9.9584 C   0  0  0  0  0  0  0  0  0  0  0  0
  -30.2309    8.5175   -9.4145 O   0  0  0  0  0  0  0  0  0  0  0  0
  -29.9946    7.6249   -8.6005 C   0  0  0  0  0  0  0  0  0  0  0  0
  -30.9666    5.2914   -8.5521 C   0  0  0  0  0  0  0  0  0  0  0  0
  -27.6264    2.1864  -12.4886 O   0  5  0  0  0  0  0  0  0  0  0  0
  -26.8397    0.0763  -12.0307 O   0  0  0  0  0  0  0  0  0  0  0  0
  1 17  1  0  0  0  0
  1 20  1  0  0  0  0
  2 15  1  6  0  0  0
  2  3  1  0  0  0  0
  2 11  1  0  0  0  0
  3  5  1  0  0  0  0
  4 16  1  6  0  0  0
  4 21  1  0  0  0  0
  4 22  2  0  0  0  0
  4 14  1  0  0  0  0
  5  1  1  6  0  0  0
  5  8  1  0  0  0  0
  6 17  2  0  0  0  0
  6 12  1  0  0  0  0
  8  7  1  1  0  0  0
  8 11  1  0  0  0  0
  9 19  1  0  0  0  0
 11 10  1  1  0  0  0
 12 20  2  0  0  0  0
 12 19  1  0  0  0  0
 13 20  1  0  0  0  0
 14 15  1  0  0  0  0
 18 19  2  0  0  0  0
M  CHG  1  21  -1
M  END
>  <CHROM.1>
25.89244359,62.39125678,-47.33839389,-172.14797576,-114.24615152,-30.22879776
3.16326583,-10.22990316,1.87462375,0.44109342,0.40807150

>  <Name>
ligand

>  <RI>
0

>  <Rbt.Current_Directory>
/home/itssahil/PROJECTS/Mol_Feturizer/Test_systems_manuscript/rnas/4xwf

>  <Rbt.Executable>
rbdock ($Id: //depot/dev/client3/rdock/2013.1/src/exe/rbdock.cxx#4 $)

>  <Rbt.Library>
libRbt.so (2013.1, Build901 2013/11/27)

>  <Rbt.Parameter_File>
/export/apps/rDock/src/rDock_2013.1_src/data/scripts/dock_solv.prm

>  <Rbt.Receptor>
prm/pocket_docking_6.prm

>  <SCORE>
-8.40374

>  <SCORE.INTER>
-7.50813

>  <SCORE.INTER.CONST>
1

>  <SCORE.INTER.POLAR>
0

>  <SCORE.INTER.ROT>
5

>  <SCORE.INTER.SOLV>
8.37872

>  <SCORE.INTER.VDW>
-14.7317

>  <SCORE.INTER.norm>
-0.341279

>  <SCORE.INTRA>
-0.895607

>  <SCORE.INTRA.DIHEDRAL>
-1.44673

>  <SCORE.INTRA.DIHEDRAL.0>
3.49807

>  <SCORE.INTRA.POLAR>
0

>  <SCORE.INTRA.POLAR.0>
0

>  <SCORE.INTRA.REPUL>
0

>  <SCORE.INTRA.REPUL.0>
0

>  <SCORE.INTRA.SOLV>
0.316793

>  <SCORE.INTRA.SOLV.lig_0>
-73.062

>  <SCORE.INTRA.VDW>
-0.330636

>  <SCORE.INTRA.VDW.0>
-1.83782

>  <SCORE.INTRA.norm>
-0.0407094

>  <SCORE.RESTR>
0

>  <SCORE.RESTR.CAVITY>
0

>  <SCORE.RESTR.norm>
0

>  <SCORE.SYSTEM>
0

>  <SCORE.SYSTEM.CONST>
0

>  <SCORE.SYSTEM.DIHEDRAL>
0

>  <SCORE.SYSTEM.SOLV>
0

>  <SCORE.SYSTEM.norm>
0

>  <SCORE.heavy>
22

>  <SCORE.norm>
-0.381988

>  <RMSD>
6.285

$$$$
ligand
 OpenBabel02271912143D
libRbt.so/2013.1/901 2013/11/27
 22 23  0  0  0  0  0  0  0  0999 V2000
  -30.6312    4.1779   -9.1272 N   0  0  0  0  0  0  0  0  0  0  0  0
  -31.1640    1.0139  -10.2032 C   0  0  1  0  0  0  0  0  0  0  0  0
  -30.4645    1.8817   -9.2664 O   0  0  0  0  0  0  0  0  0  0  0  0
  -28.0880    0.7751  -12.3915 P   0  0  1  0  0  0  0  0  0  0  0  0
  -31.3220    2.9947   -8.9658 C   0  0  2  0  0  0  0  0  0  0  0  0
  -29.1872    5.6302   -9.8462 N   0  0  0  0  0  0  0  0  0  0  0  0
  -33.5441    3.6268   -9.5646 O   0  0  0  0  0  0  0  0  0  0  0  0
  -32.3578    2.9676  -10.0227 C   0  0  2  0  0  0  0  0  0  0  0  0
  -29.7681    8.0165   -7.2691 N   0  0  0  0  0  0  0  0  0  0  0  0
  -33.2927    0.9337   -9.2249 O   0  0  0  0  0  0  0  0  0  0  0  0
  -32.5419    1.5458  -10.2869 C   0  0  2  0  0  0  0  0  0  0  0  0
  -30.0172    6.2512   -8.9941 C   0  0  0  0  0  0  0  0  0  0  0  0
  -31.9945    5.5970   -7.6428 N   0  0  0  0  0  0  0  0  0  0  0  0
  -29.1821    0.6152  -11.2797 O   0  0  0  0  0  0  0  0  0  0  0  0
  -30.4570    1.1204  -11.5104 C   0  0  0  0  0  0  0  0  0  0  0  0
  -28.8196    0.2751  -13.6897 O   0  0  0  0  0  0  0  0  0  0  0  0
  -29.5673    4.3405   -9.9223 C   0  0  0  0  0  0  0  0  0  0  0  0
  -30.0731    8.5570   -9.4601 O   0  0  0  0  0  0  0  0  0  0  0  0
  -29.9521    7.6738   -8.6114 C   0  0  0  0  0  0  0  0  0  0  0  0
  -30.9313    5.3439   -8.5395 C   0  0  0  0  0  0  0  0  0  0  0  0
  -27.6305    2.1948  -12.4456 O   0  5  0  0  0  0  0  0  0  0  0  0
  -26.8467    0.0797  -12.0067 O   0  0  0  0  0  0  0  0  0  0  0  0
  1 17  1  0  0  0  0
  1 20  1  0  0  0  0
  2 15  1  6  0  0  0
  2  3  1  0  0  0  0
  2 11  1  0  0  0  0
  3  5  1  0  0  0  0
  4 16  1  6  0  0  0
  4 21  1  0  0  0  0
  4 22  2  0  0  0  0
  4 14  1  0  0  0  0
  5  1  1  6  0  0  0
  5  8  1  0  0  0  0
  6 17  2  0  0  0  0
  6 12  1  0  0  0  0
  8  7  1  1  0  0  0
  8 11  1  0  0  0  0
  9 19  1  0  0  0  0
 11 10  1  1  0  0  0
 12 20  2  0  0  0  0
 12 19  1  0  0  0  0
 13 20  1  0  0  0  0
 14 15  1  0  0  0  0
 18 19  2  0  0  0  0
M  CHG  1  21  -1
M  END
>  <CHROM.1>
24.84895557,63.72823669,-48.96499326,-170.75654846,-120.12723488,-30.20890342
3.19896409,-10.20231587,1.86950851,0.44951354,0.40226963

>  <Name>
ligand

>  <RI>
0

>  <Rbt.Current_Directory>
/home/itssahil/PROJECTS/Mol_Feturizer/Test_systems_manuscript/rnas/4xwf

>  <Rbt.Executable>
rbdock ($Id: //depot/dev/client3/rdock/2013.1/src/exe/rbdock.cxx#4 $)

>  <Rbt.Library>
libRbt.so (2013.1, Build901 2013/11/27)

>  <Rbt.Parameter_File>
/export/apps/rDock/src/rDock_2013.1_src/data/scripts/dock_solv.prm

>  <Rbt.Receptor>
prm/pocket_docking_5.prm

>  <SCORE>
-8.42931

>  <SCORE.INTER>
-7.57753

>  <SCORE.INTER.CONST>
1

>  <SCORE.INTER.POLAR>
0

>  <SCORE.INTER.ROT>
5

>  <SCORE.INTER.SOLV>
8.10084

>  <SCORE.INTER.VDW>
-14.6853

>  <SCORE.INTER.norm>
-0.344433

>  <SCORE.INTRA>
-0.851781

>  <SCORE.INTRA.DIHEDRAL>
-1.39782

>  <SCORE.INTRA.DIHEDRAL.0>
3.49807

>  <SCORE.INTRA.POLAR>
0

>  <SCORE.INTRA.POLAR.0>
0

>  <SCORE.INTRA.REPUL>
0

>  <SCORE.INTRA.REPUL.0>
0

>  <SCORE.INTRA.SOLV>
0.430941

>  <SCORE.INTRA.SOLV.lig_0>
-73.062

>  <SCORE.INTRA.VDW>
-0.368341

>  <SCORE.INTRA.VDW.0>
-1.83782

>  <SCORE.INTRA.norm>
-0.0387173

>  <SCORE.RESTR>
0

>  <SCORE.RESTR.CAVITY>
0

>  <SCORE.RESTR.norm>
0

>  <SCORE.SYSTEM>
0

>  <SCORE.SYSTEM.CONST>
0

>  <SCORE.SYSTEM.DIHEDRAL>
0

>  <SCORE.SYSTEM.SOLV>
0

>  <SCORE.SYSTEM.norm>
0

>  <SCORE.heavy>
22

>  <SCORE.norm>
-0.383151

>  <RMSD>
6.288

$$$$
ligand
 OpenBabel02271912143D
libRbt.so/2013.1/901 2013/11/27
 22 23  0  0  0  0  0  0  0  0999 V2000
  -28.3323    1.4709  -10.6936 N   0  0  0  0  0  0  0  0  0  0  0  0
  -29.7574    4.1210   -9.1447 C   0  0  1  0  0  0  0  0  0  0  0  0
  -29.2116    2.7780   -9.0089 O   0  0  0  0  0  0  0  0  0  0  0  0
  -33.4118    3.1389   -8.9624 P   0  0  1  0  0  0  0  0  0  0  0  0
  -28.1514    2.6297   -9.9671 C   0  0  2  0  0  0  0  0  0  0  0  0
  -29.2886   -0.1062  -11.8378 N   0  0  0  0  0  0  0  0  0  0  0  0
  -27.1018    4.0616  -11.5621 O   0  0  0  0  0  0  0  0  0  0  0  0
  -28.3410    3.7511  -10.9143 C   0  0  2  0  0  0  0  0  0  0  0  0
  -26.4152   -2.2875  -11.6436 N   0  0  0  0  0  0  0  0  0  0  0  0
  -27.7884    5.3856   -9.2803 O   0  0  0  0  0  0  0  0  0  0  0  0
  -28.8494    4.8284  -10.0740 C   0  0  2  0  0  0  0  0  0  0  0  0
  -27.9721   -0.3616  -11.7913 C   0  0  0  0  0  0  0  0  0  0  0  0
  -25.9790    0.7472  -10.8107 N   0  0  0  0  0  0  0  0  0  0  0  0
  -31.8794    3.3693   -8.7227 O   0  0  0  0  0  0  0  0  0  0  0  0
  -31.1256    3.9818   -9.7179 C   0  0  0  0  0  0  0  0  0  0  0  0
  -33.4403    2.1822  -10.2092 O   0  0  0  0  0  0  0  0  0  0  0  0
  -29.5105    1.0299  -11.1497 C   0  0  0  0  0  0  0  0  0  0  0  0
  -27.4926   -1.8011  -13.5900 O   0  0  0  0  0  0  0  0  0  0  0  0
  -27.2970   -1.5186  -12.4080 C   0  0  0  0  0  0  0  0  0  0  0  0
  -27.3627    0.6288  -11.0750 C   0  0  0  0  0  0  0  0  0  0  0  0
  -34.0330    2.5701   -7.7302 O   0  5  0  0  0  0  0  0  0  0  0  0
  -34.1208    4.4255   -9.0832 O   0  0  0  0  0  0  0  0  0  0  0  0
  1 17  1  0  0  0  0
  1 20  1  0  0  0  0
  2 15  1  6  0  0  0
  2  3  1  0  0  0  0
  2 11  1  0  0  0  0
  3  5  1  0  0  0  0
  4 16  1  6  0  0  0
  4 21  1  0  0  0  0
  4 22  2  0  0  0  0
  4 14  1  0  0  0  0
  5  1  1  6  0  0  0
  5  8  1  0  0  0  0
  6 17  2  0  0  0  0
  6 12  1  0  0  0  0
  8  7  1  1  0  0  0
  8 11  1  0  0  0  0
  9 19  1  0  0  0  0
 11 10  1  1  0  0  0
 12 20  2  0  0  0  0
 12 19  1  0  0  0  0
 13 20  1  0  0  0  0
 14 15  1  0  0  0  0
 18 19  2  0  0  0  0
M  CHG  1  21  -1
M  END
>  <CHROM.1>
40.83960531,67.87503182,61.93152816,176.62594842,-130.12894007,-29.70988420
2.17252071,-10.30134682,-0.67644941,0.24072163,0.36415550

>  <Name>
ligand

>  <RI>
0

>  <Rbt.Current_Directory>
/home/itssahil/PROJECTS/Mol_Feturizer/Test_systems_manuscript/rnas/4xwf

>  <Rbt.Executable>
rbdock ($Id: //depot/dev/client3/rdock/2013.1/src/exe/rbdock.cxx#4 $)

>  <Rbt.Library>
libRbt.so (2013.1, Build901 2013/11/27)

>  <Rbt.Parameter_File>
/export/apps/rDock/src/rDock_2013.1_src/data/scripts/dock_solv.prm

>  <Rbt.Receptor>
prm/pocket_docking_6.prm

>  <SCORE>
-6.25325

>  <SCORE.INTER>
-4.87222

>  <SCORE.INTER.CONST>
1

>  <SCORE.INTER.POLAR>
0

>  <SCORE.INTER.ROT>
5

>  <SCORE.INTER.SOLV>
17.2102

>  <SCORE.INTER.VDW>
-15.9182

>  <SCORE.INTER.norm>
-0.221464

>  <SCORE.INTRA>
-1.38103

>  <SCORE.INTRA.DIHEDRAL>
-1.62491

>  <SCORE.INTRA.DIHEDRAL.0>
3.49807

>  <SCORE.INTRA.POLAR>
0

>  <SCORE.INTRA.POLAR.0>
0

>  <SCORE.INTRA.REPUL>
0

>  <SCORE.INTRA.REPUL.0>
0

>  <SCORE.INTRA.SOLV>
-0.267216

>  <SCORE.INTRA.SOLV.lig_0>
-73.062

>  <SCORE.INTRA.VDW>
-0.434966

>  <SCORE.INTRA.VDW.0>
-1.83782

>  <SCORE.INTRA.norm>
-0.062774

>  <SCORE.RESTR>
0

>  <SCORE.RESTR.CAVITY>
0

>  <SCORE.RESTR.norm>
0

>  <SCORE.SYSTEM>
0

>  <SCORE.SYSTEM.CONST>
0

>  <SCORE.SYSTEM.DIHEDRAL>
0

>  <SCORE.SYSTEM.SOLV>
0

>  <SCORE.SYSTEM.norm>
0

>  <SCORE.heavy>
22

>  <SCORE.norm>
-0.284239

>  <RMSD>
6.288

$$$$
ligand
 OpenBabel02271912143D
libRbt.so/2013.1/901 2013/11/27
 22 23  0  0  0  0  0  0  0  0999 V2000
  -30.6737    4.1932   -9.1147 N   0  0  0  0  0  0  0  0  0  0  0  0
  -31.1591    1.0144  -10.1690 C   0  0  1  0  0  0  0  0  0  0  0  0
  -30.4882    1.8969   -9.2251 O   0  0  0  0  0  0  0  0  0  0  0  0
  -28.0364    0.7603  -12.2935 P   0  0  1  0  0  0  0  0  0  0  0  0
  -31.3601    3.0070   -8.9571 C   0  0  2  0  0  0  0  0  0  0  0  0
  -29.2227    5.6479   -9.8145 N   0  0  0  0  0  0  0  0  0  0  0  0
  -33.5714    3.6172   -9.6158 O   0  0  0  0  0  0  0  0  0  0  0  0
  -32.3700    2.9614  -10.0382 C   0  0  2  0  0  0  0  0  0  0  0  0
  -28.9878    8.4983   -9.0963 N   0  0  0  0  0  0  0  0  0  0  0  0
  -33.3101    0.9296   -9.2413 O   0  0  0  0  0  0  0  0  0  0  0  0
  -32.5381    1.5357  -10.2915 C   0  0  2  0  0  0  0  0  0  0  0  0
  -30.0770    6.2720   -8.9891 C   0  0  0  0  0  0  0  0  0  0  0  0
  -32.0815    5.6183   -7.6783 N   0  0  0  0  0  0  0  0  0  0  0  0
  -29.1408    0.6441  -11.1866 O   0  0  0  0  0  0  0  0  0  0  0  0
  -30.4216    1.1119  -11.4599 C   0  0  0  0  0  0  0  0  0  0  0  0
  -28.7237    0.1222  -13.5548 O   0  0  0  0  0  0  0  0  0  0  0  0
  -29.5922    4.3549   -9.8859 C   0  0  0  0  0  0  0  0  0  0  0  0
  -30.8916    8.1847   -7.8868 O   0  0  0  0  0  0  0  0  0  0  0  0
  -30.0305    7.6990   -8.6200 C   0  0  0  0  0  0  0  0  0  0  0  0
  -30.9955    5.3631   -8.5467 C   0  0  0  0  0  0  0  0  0  0  0  0
  -27.6403    2.1897  -12.4600 O   0  5  0  0  0  0  0  0  0  0  0  0
  -26.7725    0.1554  -11.8359 O   0  0  0  0  0  0  0  0  0  0  0  0
  1 17  1  0  0  0  0
  1 20  1  0  0  0  0
  2 15  1  6  0  0  0
  2  3  1  0  0  0  0
  2 11  1  0  0  0  0
  3  5  1  0  0  0  0
  4 16  1  6  0  0  0
  4 21  1  0  0  0  0
  4 22  2  0  0  0  0
  4 14  1  0  0  0  0
  5  1  1  6  0  0  0
  5  8  1  0  0  0  0
  6 17  2  0  0  0  0
  6 12  1  0  0  0  0
  8  7  1  1  0  0  0
  8 11  1  0  0  0  0
  9 19  1  0  0  0  0
 11 10  1  1  0  0  0
 12 20  2  0  0  0  0
 12 19  1  0  0  0  0
 13 20  1  0  0  0  0
 14 15  1  0  0  0  0
 18 19  2  0  0  0  0
M  CHG  1  21  -1
M  END
>  <CHROM.1>
24.86210592,62.52556194,-51.09235206,-173.02557397,-3.25098250,-30.21960328
3.20216384,-10.17260333,1.89100945,0.42750499,0.38447572

>  <Name>
ligand

>  <RI>
0

>  <Rbt.Current_Directory>
/home/itssahil/PROJECTS/Mol_Feturizer/Test_systems_manuscript/rnas/4xwf

>  <Rbt.Executable>
rbdock ($Id: //depot/dev/client3/rdock/2013.1/src/exe/rbdock.cxx#4 $)

>  <Rbt.Library>
libRbt.so (2013.1, Build901 2013/11/27)

>  <Rbt.Parameter_File>
/export/apps/rDock/src/rDock_2013.1_src/data/scripts/dock_solv.prm

>  <Rbt.Receptor>
prm/pocket_docking_6.prm

>  <SCORE>
-8.1934

>  <SCORE.INTER>
-7.3186

>  <SCORE.INTER.CONST>
1

>  <SCORE.INTER.POLAR>
0

>  <SCORE.INTER.ROT>
5

>  <SCORE.INTER.SOLV>
8.10299

>  <SCORE.INTER.VDW>
-14.5134

>  <SCORE.INTER.norm>
-0.332664

>  <SCORE.INTRA>
-0.874798

>  <SCORE.INTRA.DIHEDRAL>
-1.65147

>  <SCORE.INTRA.DIHEDRAL.0>
3.49807

>  <SCORE.INTRA.POLAR>
0

>  <SCORE.INTRA.POLAR.0>
0

>  <SCORE.INTRA.REPUL>
0

>  <SCORE.INTRA.REPUL.0>
0

>  <SCORE.INTRA.SOLV>
0.317158

>  <SCORE.INTRA.SOLV.lig_0>
-73.062

>  <SCORE.INTRA.VDW>
-0.207641

>  <SCORE.INTRA.VDW.0>
-1.83782

>  <SCORE.INTRA.norm>
-0.0397635

>  <SCORE.RESTR>
0

>  <SCORE.RESTR.CAVITY>
0

>  <SCORE.RESTR.norm>
0

>  <SCORE.SYSTEM>
0

>  <SCORE.SYSTEM.CONST>
0

>  <SCORE.SYSTEM.DIHEDRAL>
0

>  <SCORE.SYSTEM.SOLV>
0

>  <SCORE.SYSTEM.norm>
0

>  <SCORE.heavy>
22

>  <SCORE.norm>
-0.372427

>  <RMSD>
6.292

$$$$
ligand
 OpenBabel02271912143D
libRbt.so/2013.1/901 2013/11/27
 22 23  0  0  0  0  0  0  0  0999 V2000
  -30.5967    4.1393   -9.1437 N   0  0  0  0  0  0  0  0  0  0  0  0
  -31.1678    0.9900  -10.2428 C   0  0  1  0  0  0  0  0  0  0  0  0
  -30.4551    1.8427   -9.3022 O   0  0  0  0  0  0  0  0  0  0  0  0
  -28.0917    0.7873  -12.4333 P   0  0  1  0  0  0  0  0  0  0  0  0
  -31.2993    2.9622   -8.9888 C   0  0  2  0  0  0  0  0  0  0  0  0
  -29.1274    5.5762   -9.8420 N   0  0  0  0  0  0  0  0  0  0  0  0
  -33.5172    3.6226   -9.5727 O   0  0  0  0  0  0  0  0  0  0  0  0
  -32.3399    2.9546  -10.0413 C   0  0  2  0  0  0  0  0  0  0  0  0
  -28.8134    8.4029   -9.0542 N   0  0  0  0  0  0  0  0  0  0  0  0
  -33.2929    0.9243   -9.2559 O   0  0  0  0  0  0  0  0  0  0  0  0
  -32.5402    1.5371  -10.3162 C   0  0  2  0  0  0  0  0  0  0  0  0
  -29.9707    6.2090   -9.0119 C   0  0  0  0  0  0  0  0  0  0  0  0
  -31.9807    5.5784   -7.6982 N   0  0  0  0  0  0  0  0  0  0  0  0
  -29.1848    0.6078  -11.3235 O   0  0  0  0  0  0  0  0  0  0  0  0
  -30.4653    1.0995  -11.5523 C   0  0  0  0  0  0  0  0  0  0  0  0
  -28.8280    0.3208  -13.7412 O   0  0  0  0  0  0  0  0  0  0  0  0
  -29.5151    4.2887   -9.9172 C   0  0  0  0  0  0  0  0  0  0  0  0
  -30.7889    8.1438   -7.9515 O   0  0  0  0  0  0  0  0  0  0  0  0
  -29.9033    7.6338   -8.6376 C   0  0  0  0  0  0  0  0  0  0  0  0
  -30.9006    5.3114   -8.5705 C   0  0  0  0  0  0  0  0  0  0  0  0
  -27.6268    2.2055  -12.4558 O   0  5  0  0  0  0  0  0  0  0  0  0
  -26.8534    0.0768  -12.0665 O   0  0  0  0  0  0  0  0  0  0  0  0
  1 17  1  0  0  0  0
  1 20  1  0  0  0  0
  2 15  1  6  0  0  0
  2  3  1  0  0  0  0
  2 11  1  0  0  0  0
  3  5  1  0  0  0  0
  4 16  1  6  0  0  0
  4 21  1  0  0  0  0
  4 22  2  0  0  0  0
  4 14  1  0  0  0  0
  5  1  1  6  0  0  0
  5  8  1  0  0  0  0
  6 17  2  0  0  0  0
  6 12  1  0  0  0  0
  8  7  1  1  0  0  0
  8 11  1  0  0  0  0
  9 19  1  0  0  0  0
 11 10  1  1  0  0  0
 12 20  2  0  0  0  0
 12 19  1  0  0  0  0
 13 20  1  0  0  0  0
 14 15  1  0  0  0  0
 18 19  2  0  0  0  0
M  CHG  1  21  -1
M  END
>  <CHROM.1>
23.14483112,62.38580155,-47.60281492,-170.18465554,-6.65896790,-30.19006954
3.18134514,-10.23214276,1.86876047,0.44316345,0.40922711

>  <Name>
ligand

>  <RI>
0

>  <Rbt.Current_Directory>
/home/itssahil/PROJECTS/Mol_Feturizer/Test_systems_manuscript/rnas/4xwf

>  <Rbt.Executable>
rbdock ($Id: //depot/dev/client3/rdock/2013.1/src/exe/rbdock.cxx#4 $)

>  <Rbt.Library>
libRbt.so (2013.1, Build901 2013/11/27)

>  <Rbt.Parameter_File>
/export/apps/rDock/src/rDock_2013.1_src/data/scripts/dock_solv.prm

>  <Rbt.Receptor>
prm/pocket_docking_5.prm

>  <SCORE>
-8.28393

>  <SCORE.INTER>
-7.69516

>  <SCORE.INTER.CONST>
1

>  <SCORE.INTER.POLAR>
0

>  <SCORE.INTER.ROT>
5

>  <SCORE.INTER.SOLV>
8.07731

>  <SCORE.INTER.VDW>
-14.7559

>  <SCORE.INTER.norm>
-0.34978

>  <SCORE.INTRA>
-0.588771

>  <SCORE.INTRA.DIHEDRAL>
-1.28932

>  <SCORE.INTRA.DIHEDRAL.0>
3.49807

>  <SCORE.INTRA.POLAR>
0

>  <SCORE.INTRA.POLAR.0>
0

>  <SCORE.INTRA.REPUL>
0

>  <SCORE.INTRA.REPUL.0>
0

>  <SCORE.INTRA.SOLV>
0.451253

>  <SCORE.INTRA.SOLV.lig_0>
-73.062

>  <SCORE.INTRA.VDW>
-0.169736

>  <SCORE.INTRA.VDW.0>
-1.83782

>  <SCORE.INTRA.norm>
-0.0267623

>  <SCORE.RESTR>
0

>  <SCORE.RESTR.CAVITY>
0

>  <SCORE.RESTR.norm>
0

>  <SCORE.SYSTEM>
0

>  <SCORE.SYSTEM.CONST>
0

>  <SCORE.SYSTEM.DIHEDRAL>
0

>  <SCORE.SYSTEM.SOLV>
0

>  <SCORE.SYSTEM.norm>
0

>  <SCORE.heavy>
22

>  <SCORE.norm>
-0.376542

>  <RMSD>
6.294

$$$$
ligand
 OpenBabel02271912143D
libRbt.so/2013.1/901 2013/11/27
 22 23  0  0  0  0  0  0  0  0999 V2000
  -30.6118    4.1338   -9.1512 N   0  0  0  0  0  0  0  0  0  0  0  0
  -31.1740    0.9848  -10.2558 C   0  0  1  0  0  0  0  0  0  0  0  0
  -30.4641    1.8378   -9.3133 O   0  0  0  0  0  0  0  0  0  0  0  0
  -28.1019    0.7684  -12.4514 P   0  0  1  0  0  0  0  0  0  0  0  0
  -31.3114    2.9546   -8.9986 C   0  0  2  0  0  0  0  0  0  0  0  0
  -29.1482    5.5766   -9.8492 N   0  0  0  0  0  0  0  0  0  0  0  0
  -33.5306    3.6103   -9.5828 O   0  0  0  0  0  0  0  0  0  0  0  0
  -32.3514    2.9460  -10.0518 C   0  0  2  0  0  0  0  0  0  0  0  0
  -28.8215    8.3928   -9.0245 N   0  0  0  0  0  0  0  0  0  0  0  0
  -33.2996    0.9120   -9.2703 O   0  0  0  0  0  0  0  0  0  0  0  0
  -32.5478    1.5284  -10.3291 C   0  0  2  0  0  0  0  0  0  0  0  0
  -29.9891    6.2041   -9.0127 C   0  0  0  0  0  0  0  0  0  0  0  0
  -31.9922    5.5636   -7.6932 N   0  0  0  0  0  0  0  0  0  0  0  0
  -29.1940    0.5959  -11.3395 O   0  0  0  0  0  0  0  0  0  0  0  0
  -30.4710    1.0982  -11.5646 C   0  0  0  0  0  0  0  0  0  0  0  0
  -28.8556    0.3439  -13.7637 O   0  0  0  0  0  0  0  0  0  0  0  0
  -29.5338    4.2888   -9.9287 C   0  0  0  0  0  0  0  0  0  0  0  0
  -30.8195    8.1389   -7.9619 O   0  0  0  0  0  0  0  0  0  0  0  0
  -29.9228    7.6272   -8.6322 C   0  0  0  0  0  0  0  0  0  0  0  0
  -30.9154    5.3027   -8.5714 C   0  0  0  0  0  0  0  0  0  0  0  0
  -27.6023    2.1749  -12.4508 O   0  5  0  0  0  0  0  0  0  0  0  0
  -26.8799    0.0212  -12.1037 O   0  0  0  0  0  0  0  0  0  0  0  0
  1 17  1  0  0  0  0
  1 20  1  0  0  0  0
  2 15  1  6  0  0  0
  2  3  1  0  0  0  0
  2 11  1  0  0  0  0
  3  5  1  0  0  0  0
  4 16  1  6  0  0  0
  4 21  1  0  0  0  0
  4 22  2  0  0  0  0
  4 14  1  0  0  0  0
  5  1  1  6  0  0  0
  5  8  1  0  0  0  0
  6 17  2  0  0  0  0
  6 12  1  0  0  0  0
  8  7  1  1  0  0  0
  8 11  1  0  0  0  0
  9 19  1  0  0  0  0
 11 10  1  1  0  0  0
 12 20  2  0  0  0  0
 12 19  1  0  0  0  0
 13 20  1  0  0  0  0
 14 15  1  0  0  0  0
 18 19  2  0  0  0  0
M  CHG  1  21  -1
M  END
>  <CHROM.1>
23.47566709,63.01526571,-46.25402488,-170.50952462,-8.08756031,-30.20250917
3.17100742,-10.24131066,1.86988978,0.44233862,0.41091431

>  <Name>
ligand

>  <RI>
0

>  <Rbt.Current_Directory>
/home/itssahil/PROJECTS/Mol_Feturizer/Test_systems_manuscript/rnas/4xwf

>  <Rbt.Executable>
rbdock ($Id: //depot/dev/client3/rdock/2013.1/src/exe/rbdock.cxx#4 $)

>  <Rbt.Library>
libRbt.so (2013.1, Build901 2013/11/27)

>  <Rbt.Parameter_File>
/export/apps/rDock/src/rDock_2013.1_src/data/scripts/dock_solv.prm

>  <Rbt.Receptor>
prm/pocket_docking_5.prm

>  <SCORE>
-8.27508

>  <SCORE.INTER>
-7.71629

>  <SCORE.INTER.CONST>
1

>  <SCORE.INTER.POLAR>
0

>  <SCORE.INTER.ROT>
5

>  <SCORE.INTER.SOLV>
8.17986

>  <SCORE.INTER.VDW>
-14.8041

>  <SCORE.INTER.norm>
-0.350741

>  <SCORE.INTRA>
-0.558784

>  <SCORE.INTRA.DIHEDRAL>
-1.23618

>  <SCORE.INTRA.DIHEDRAL.0>
3.49807

>  <SCORE.INTRA.POLAR>
0

>  <SCORE.INTRA.POLAR.0>
0

>  <SCORE.INTRA.REPUL>
0

>  <SCORE.INTRA.REPUL.0>
0

>  <SCORE.INTRA.SOLV>
0.407064

>  <SCORE.INTRA.SOLV.lig_0>
-73.062

>  <SCORE.INTRA.VDW>
-0.144227

>  <SCORE.INTRA.VDW.0>
-1.83782

>  <SCORE.INTRA.norm>
-0.0253993

>  <SCORE.RESTR>
0

>  <SCORE.RESTR.CAVITY>
0

>  <SCORE.RESTR.norm>
0

>  <SCORE.SYSTEM>
0

>  <SCORE.SYSTEM.CONST>
0

>  <SCORE.SYSTEM.DIHEDRAL>
0

>  <SCORE.SYSTEM.SOLV>
0

>  <SCORE.SYSTEM.norm>
0

>  <SCORE.heavy>
22

>  <SCORE.norm>
-0.37614

>  <RMSD>
6.300

$$$$
ligand
 OpenBabel02271912143D
libRbt.so/2013.1/901 2013/11/27
 22 23  0  0  0  0  0  0  0  0999 V2000
  -30.6123    4.1556   -9.1308 N   0  0  0  0  0  0  0  0  0  0  0  0
  -31.1688    0.9941  -10.2022 C   0  0  1  0  0  0  0  0  0  0  0  0
  -30.4655    1.8576   -9.2644 O   0  0  0  0  0  0  0  0  0  0  0  0
  -28.0813    0.7408  -12.3718 P   0  0  1  0  0  0  0  0  0  0  0  0
  -31.3143    2.9789   -8.9697 C   0  0  2  0  0  0  0  0  0  0  0  0
  -29.1546    5.5943   -9.8492 N   0  0  0  0  0  0  0  0  0  0  0  0
  -33.5281    3.6294   -9.5791 O   0  0  0  0  0  0  0  0  0  0  0  0
  -32.3459    2.9587  -10.0309 C   0  0  2  0  0  0  0  0  0  0  0  0
  -28.7734    8.3909   -8.9696 N   0  0  0  0  0  0  0  0  0  0  0  0
  -33.3021    0.9349   -9.2327 O   0  0  0  0  0  0  0  0  0  0  0  0
  -32.5415    1.5380  -10.2929 C   0  0  2  0  0  0  0  0  0  0  0  0
  -29.9788    6.2228   -8.9971 C   0  0  0  0  0  0  0  0  0  0  0  0
  -31.9622    5.5870   -7.6460 N   0  0  0  0  0  0  0  0  0  0  0  0
  -29.1833    0.5831  -11.2676 O   0  0  0  0  0  0  0  0  0  0  0  0
  -30.4554    1.0914  -11.5066 C   0  0  0  0  0  0  0  0  0  0  0  0
  -28.8130    0.2664  -13.6795 O   0  0  0  0  0  0  0  0  0  0  0  0
  -29.5469    4.3083   -9.9258 C   0  0  0  0  0  0  0  0  0  0  0  0
  -30.8093    8.1719   -7.9731 O   0  0  0  0  0  0  0  0  0  0  0  0
  -29.9002    7.6447   -8.6139 C   0  0  0  0  0  0  0  0  0  0  0  0
  -30.9014    5.3241   -8.5428 C   0  0  0  0  0  0  0  0  0  0  0  0
  -27.6038    2.1545  -12.4066 O   0  5  0  0  0  0  0  0  0  0  0  0
  -26.8518    0.0236  -11.9889 O   0  0  0  0  0  0  0  0  0  0  0  0
  1 17  1  0  0  0  0
  1 20  1  0  0  0  0
  2 15  1  6  0  0  0
  2  3  1  0  0  0  0
  2 11  1  0  0  0  0
  3  5  1  0  0  0  0
  4 16  1  6  0  0  0
  4 21  1  0  0  0  0
  4 22  2  0  0  0  0
  4 14  1  0  0  0  0
  5  1  1  6  0  0  0
  5  8  1  0  0  0  0
  6 17  2  0  0  0  0
  6 12  1  0  0  0  0
  8  7  1  1  0  0  0
  8 11  1  0  0  0  0
  9 19  1  0  0  0  0
 11 10  1  1  0  0  0
 12 20  2  0  0  0  0
 12 19  1  0  0  0  0
 13 20  1  0  0  0  0
 14 15  1  0  0  0  0
 18 19  2  0  0  0  0
M  CHG  1  21  -1
M  END
>  <CHROM.1>
25.12665867,63.37094817,-48.02980922,-170.40962388,-11.02455866,-30.19077292
3.17507815,-10.19905775,1.86758110,0.43296583,0.40423756

>  <Name>
ligand

>  <RI>
0

>  <Rbt.Current_Directory>
/home/itssahil/PROJECTS/Mol_Feturizer/Test_systems_manuscript/rnas/4xwf

>  <Rbt.Executable>
rbdock ($Id: //depot/dev/client3/rdock/2013.1/src/exe/rbdock.cxx#4 $)

>  <Rbt.Library>
libRbt.so (2013.1, Build901 2013/11/27)

>  <Rbt.Parameter_File>
/export/apps/rDock/src/rDock_2013.1_src/data/scripts/dock_solv.prm

>  <Rbt.Receptor>
prm/pocket_docking_5.prm

>  <SCORE>
-8.25725

>  <SCORE.INTER>
-7.61397

>  <SCORE.INTER.CONST>
1

>  <SCORE.INTER.POLAR>
0

>  <SCORE.INTER.ROT>
5

>  <SCORE.INTER.SOLV>
7.83927

>  <SCORE.INTER.VDW>
-14.6224

>  <SCORE.INTER.norm>
-0.346089

>  <SCORE.INTRA>
-0.643286

>  <SCORE.INTRA.DIHEDRAL>
-1.22418

>  <SCORE.INTRA.DIHEDRAL.0>
3.49807

>  <SCORE.INTRA.POLAR>
0

>  <SCORE.INTRA.POLAR.0>
0

>  <SCORE.INTRA.REPUL>
0

>  <SCORE.INTRA.REPUL.0>
0

>  <SCORE.INTRA.SOLV>
0.344717

>  <SCORE.INTRA.SOLV.lig_0>
-73.062

>  <SCORE.INTRA.VDW>
-0.203553

>  <SCORE.INTRA.VDW.0>
-1.83782

>  <SCORE.INTRA.norm>
-0.0292403

>  <SCORE.RESTR>
0

>  <SCORE.RESTR.CAVITY>
0

>  <SCORE.RESTR.norm>
0

>  <SCORE.SYSTEM>
0

>  <SCORE.SYSTEM.CONST>
0

>  <SCORE.SYSTEM.DIHEDRAL>
0

>  <SCORE.SYSTEM.SOLV>
0

>  <SCORE.SYSTEM.norm>
0

>  <SCORE.heavy>
22

>  <SCORE.norm>
-0.37533

>  <RMSD>
6.306

$$$$
ligand
 OpenBabel02271912143D
libRbt.so/2013.1/901 2013/11/27
 22 23  0  0  0  0  0  0  0  0999 V2000
  -32.5124    3.1229   -8.7074 N   0  0  0  0  0  0  0  0  0  0  0  0
  -30.0154    1.3123  -10.1000 C   0  0  1  0  0  0  0  0  0  0  0  0
  -30.4381    2.6009   -9.5704 O   0  0  0  0  0  0  0  0  0  0  0  0
  -28.4794    0.3682  -12.6443 P   0  0  1  0  0  0  0  0  0  0  0  0
  -31.3797    2.3598   -8.5123 C   0  0  2  0  0  0  0  0  0  0  0  0
  -34.3386    3.8983   -9.5877 N   0  0  0  0  0  0  0  0  0  0  0  0
  -32.2635    0.4160   -7.4462 O   0  0  0  0  0  0  0  0  0  0  0  0
  -31.7905    0.9488   -8.6889 C   0  0  2  0  0  0  0  0  0  0  0  0
  -35.8610    5.2808   -6.8179 N   0  0  0  0  0  0  0  0  0  0  0  0
  -29.6373    0.1225   -8.1161 O   0  0  0  0  0  0  0  0  0  0  0  0
  -30.5832    0.2989   -9.1840 C   0  0  2  0  0  0  0  0  0  0  0  0
  -34.1258    4.5415   -8.4294 C   0  0  0  0  0  0  0  0  0  0  0  0
  -32.4143    4.4511   -6.6333 N   0  0  0  0  0  0  0  0  0  0  0  0
  -29.9138    0.1284  -12.0582 O   0  0  0  0  0  0  0  0  0  0  0  0
  -30.5888    1.1925  -11.4701 C   0  0  0  0  0  0  0  0  0  0  0  0
  -28.0586   -1.0565  -13.1578 O   0  0  0  0  0  0  0  0  0  0  0  0
  -33.3311    3.0216   -9.7610 C   0  0  0  0  0  0  0  0  0  0  0  0
  -34.9456    6.7436   -8.3038 O   0  0  0  0  0  0  0  0  0  0  0  0
  -34.9847    5.5963   -7.8598 C   0  0  0  0  0  0  0  0  0  0  0  0
  -32.9792    4.0565   -7.8677 C   0  0  0  0  0  0  0  0  0  0  0  0
  -28.5389    1.4168  -13.7048 O   0  5  0  0  0  0  0  0  0  0  0  0
  -27.6069    1.0095  -11.6441 O   0  0  0  0  0  0  0  0  0  0  0  0
  1 17  1  0  0  0  0
  1 20  1  0  0  0  0
  2 15  1  6  0  0  0
  2  3  1  0  0  0  0
  2 11  1  0  0  0  0
  3  5  1  0  0  0  0
  4 16  1  6  0  0  0
  4 21  1  0  0  0  0
  4 22  2  0  0  0  0
  4 14  1  0  0  0  0
  5  1  1  6  0  0  0
  5  8  1  0  0  0  0
  6 17  2  0  0  0  0
  6 12  1  0  0  0  0
  8  7  1  1  0  0  0
  8 11  1  0  0  0  0
  9 19  1  0  0  0  0
 11 10  1  1  0  0  0
 12 20  2  0  0  0  0
 12 19  1  0  0  0  0
 13 20  1  0  0  0  0
 14 15  1  0  0  0  0
 18 19  2  0  0  0  0
M  CHG  1  21  -1
M  END
>  <CHROM.1>
62.07792096,165.98158182,178.16982131,-79.86086606,102.14975873,-31.30567851
2.17447390,-9.79379552,-2.94841213,0.82331906,-1.06271654

>  <Name>
ligand

>  <RI>
0

>  <Rbt.Current_Directory>
/home/itssahil/PROJECTS/Mol_Feturizer/Test_systems_manuscript/rnas/4xwf

>  <Rbt.Executable>
rbdock ($Id: //depot/dev/client3/rdock/2013.1/src/exe/rbdock.cxx#4 $)

>  <Rbt.Library>
libRbt.so (2013.1, Build901 2013/11/27)

>  <Rbt.Parameter_File>
/export/apps/rDock/src/rDock_2013.1_src/data/scripts/dock_solv.prm

>  <Rbt.Receptor>
prm/pocket_docking_5.prm

>  <SCORE>
-8.68367

>  <SCORE.INTER>
-10.2621

>  <SCORE.INTER.CONST>
1

>  <SCORE.INTER.POLAR>
0

>  <SCORE.INTER.ROT>
5

>  <SCORE.INTER.SOLV>
12.9186

>  <SCORE.INTER.VDW>
-18.081

>  <SCORE.INTER.norm>
-0.466461

>  <SCORE.INTRA>
1.57847

>  <SCORE.INTRA.DIHEDRAL>
0.782004

>  <SCORE.INTRA.DIHEDRAL.0>
3.49807

>  <SCORE.INTRA.POLAR>
0

>  <SCORE.INTRA.POLAR.0>
0

>  <SCORE.INTRA.REPUL>
0

>  <SCORE.INTRA.REPUL.0>
0

>  <SCORE.INTRA.SOLV>
1.80694

>  <SCORE.INTRA.SOLV.lig_0>
-73.062

>  <SCORE.INTRA.VDW>
0.284001

>  <SCORE.INTRA.VDW.0>
-1.83782

>  <SCORE.INTRA.norm>
0.0717488

>  <SCORE.RESTR>
0

>  <SCORE.RESTR.CAVITY>
0

>  <SCORE.RESTR.norm>
0

>  <SCORE.SYSTEM>
0

>  <SCORE.SYSTEM.CONST>
0

>  <SCORE.SYSTEM.DIHEDRAL>
0

>  <SCORE.SYSTEM.SOLV>
0

>  <SCORE.SYSTEM.norm>
0

>  <SCORE.heavy>
22

>  <SCORE.norm>
-0.394712

>  <RMSD>
6.308

$$$$
ligand
 OpenBabel02271912143D
libRbt.so/2013.1/901 2013/11/27
 22 23  0  0  0  0  0  0  0  0999 V2000
  -29.9999    4.0398   -9.3902 N   0  0  0  0  0  0  0  0  0  0  0  0
  -31.0721    0.9252  -10.1662 C   0  0  1  0  0  0  0  0  0  0  0  0
  -30.1788    1.7406   -9.3555 O   0  0  0  0  0  0  0  0  0  0  0  0
  -28.0840    0.7196  -12.4241 P   0  0  1  0  0  0  0  0  0  0  0  0
  -30.8384    2.9879   -9.0843 C   0  0  2  0  0  0  0  0  0  0  0  0
  -28.5132    5.2512  -10.4067 N   0  0  0  0  0  0  0  0  0  0  0  0
  -32.9881    3.9040   -9.5696 O   0  0  0  0  0  0  0  0  0  0  0  0
  -31.9519    3.0439  -10.0578 C   0  0  2  0  0  0  0  0  0  0  0  0
  -27.3016    7.7610   -9.2682 N   0  0  0  0  0  0  0  0  0  0  0  0
  -33.1008    1.2336   -9.0331 O   0  0  0  0  0  0  0  0  0  0  0  0
  -32.3608    1.6511  -10.1926 C   0  0  2  0  0  0  0  0  0  0  0  0
  -29.0114    5.9675   -9.3872 C   0  0  0  0  0  0  0  0  0  0  0  0
  -30.7281    5.6050   -7.6307 N   0  0  0  0  0  0  0  0  0  0  0  0
  -29.1553    0.4276  -11.3169 O   0  0  0  0  0  0  0  0  0  0  0  0
  -30.4688    0.8337  -11.5255 C   0  0  0  0  0  0  0  0  0  0  0  0
  -28.0633    2.2895  -12.4983 O   0  0  0  0  0  0  0  0  0  0  0  0
  -29.1249    4.0515  -10.4025 C   0  0  0  0  0  0  0  0  0  0  0  0
  -29.4135    8.1049   -8.4889 O   0  0  0  0  0  0  0  0  0  0  0  0
  -28.6107    7.3387   -9.0213 C   0  0  0  0  0  0  0  0  0  0  0  0
  -29.9504    5.2124   -8.7441 C   0  0  0  0  0  0  0  0  0  0  0  0
  -26.7819    0.1000  -12.0390 O   0  5  0  0  0  0  0  0  0  0  0  0
  -28.4025   -0.0101  -13.6645 O   0  0  0  0  0  0  0  0  0  0  0  0
  1 17  1  0  0  0  0
  1 20  1  0  0  0  0
  2 15  1  6  0  0  0
  2  3  1  0  0  0  0
  2 11  1  0  0  0  0
  3  5  1  0  0  0  0
  4 16  1  6  0  0  0
  4 21  1  0  0  0  0
  4 22  2  0  0  0  0
  4 14  1  0  0  0  0
  5  1  1  6  0  0  0
  5  8  1  0  0  0  0
  6 17  2  0  0  0  0
  6 12  1  0  0  0  0
  8  7  1  1  0  0  0
  8 11  1  0  0  0  0
  9 19  1  0  0  0  0
 11 10  1  1  0  0  0
 12 20  2  0  0  0  0
 12 19  1  0  0  0  0
 13 20  1  0  0  0  0
 14 15  1  0  0  0  0
 18 19  2  0  0  0  0
M  CHG  1  21  -1
M  END
>  <CHROM.1>
35.16270060,51.26203559,62.19838791,-157.88371230,-30.70063475,-29.72507270
3.09630406,-10.33355691,1.67054671,0.45018233,0.44634432

>  <Name>
ligand

>  <RI>
0

>  <Rbt.Current_Directory>
/home/itssahil/PROJECTS/Mol_Feturizer/Test_systems_manuscript/rnas/4xwf

>  <Rbt.Executable>
rbdock ($Id: //depot/dev/client3/rdock/2013.1/src/exe/rbdock.cxx#4 $)

>  <Rbt.Library>
libRbt.so (2013.1, Build901 2013/11/27)

>  <Rbt.Parameter_File>
/export/apps/rDock/src/rDock_2013.1_src/data/scripts/dock_solv.prm

>  <Rbt.Receptor>
prm/pocket_docking_4.prm

>  <SCORE>
-4.86185

>  <SCORE.INTER>
-4.64564

>  <SCORE.INTER.CONST>
1

>  <SCORE.INTER.POLAR>
0

>  <SCORE.INTER.ROT>
5

>  <SCORE.INTER.SOLV>
10.3777

>  <SCORE.INTER.VDW>
-13.4897

>  <SCORE.INTER.norm>
-0.211165

>  <SCORE.INTRA>
-0.216215

>  <SCORE.INTRA.DIHEDRAL>
1.22692

>  <SCORE.INTRA.DIHEDRAL.0>
3.49807

>  <SCORE.INTRA.POLAR>
0

>  <SCORE.INTRA.POLAR.0>
0

>  <SCORE.INTRA.REPUL>
0

>  <SCORE.INTRA.REPUL.0>
0

>  <SCORE.INTRA.SOLV>
-0.251508

>  <SCORE.INTRA.SOLV.lig_0>
-73.062

>  <SCORE.INTRA.VDW>
-0.703923

>  <SCORE.INTRA.VDW.0>
-1.83782

>  <SCORE.INTRA.norm>
-0.00982795

>  <SCORE.RESTR>
0

>  <SCORE.RESTR.CAVITY>
0

>  <SCORE.RESTR.norm>
0

>  <SCORE.SYSTEM>
0

>  <SCORE.SYSTEM.CONST>
0

>  <SCORE.SYSTEM.DIHEDRAL>
0

>  <SCORE.SYSTEM.SOLV>
0

>  <SCORE.SYSTEM.norm>
0

>  <SCORE.heavy>
22

>  <SCORE.norm>
-0.220993

>  <RMSD>
6.320

$$$$
ligand
 OpenBabel02271912143D
libRbt.so/2013.1/901 2013/11/27
 22 23  0  0  0  0  0  0  0  0999 V2000
  -32.5178    3.3318   -8.6712 N   0  0  0  0  0  0  0  0  0  0  0  0
  -30.0861    1.4389  -10.0699 C   0  0  1  0  0  0  0  0  0  0  0  0
  -30.5000    2.7650   -9.6339 O   0  0  0  0  0  0  0  0  0  0  0  0
  -28.6864    0.5539  -12.7319 P   0  0  1  0  0  0  0  0  0  0  0  0
  -31.3560    2.6103   -8.4904 C   0  0  2  0  0  0  0  0  0  0  0  0
  -34.3974    4.0193   -9.5112 N   0  0  0  0  0  0  0  0  0  0  0  0
  -32.1125    0.7628   -7.1826 O   0  0  0  0  0  0  0  0  0  0  0  0
  -31.7444    1.1821   -8.5019 C   0  0  2  0  0  0  0  0  0  0  0  0
  -35.8821    5.4520   -6.7573 N   0  0  0  0  0  0  0  0  0  0  0  0
  -29.5359    0.4513   -8.0165 O   0  0  0  0  0  0  0  0  0  0  0  0
  -30.5611    0.5085   -9.0225 C   0  0  2  0  0  0  0  0  0  0  0  0
  -34.1634    4.7115   -8.3857 C   0  0  0  0  0  0  0  0  0  0  0  0
  -32.3867    4.7392   -6.6519 N   0  0  0  0  0  0  0  0  0  0  0  0
  -30.0065    0.1723  -11.9766 O   0  0  0  0  0  0  0  0  0  0  0  0
  -30.7547    1.1787  -11.3757 C   0  0  0  0  0  0  0  0  0  0  0  0
  -29.2046    1.3749  -13.9680 O   0  0  0  0  0  0  0  0  0  0  0  0
  -33.3702    3.1669   -9.6895 C   0  0  0  0  0  0  0  0  0  0  0  0
  -35.0280    6.8982   -8.2950 O   0  0  0  0  0  0  0  0  0  0  0  0
  -35.0334    5.7611   -7.8236 C   0  0  0  0  0  0  0  0  0  0  0  0
  -32.9830    4.2820   -7.8494 C   0  0  0  0  0  0  0  0  0  0  0  0
  -27.7855    1.3141  -11.8163 O   0  5  0  0  0  0  0  0  0  0  0  0
  -27.8784   -0.6470  -13.0107 O   0  0  0  0  0  0  0  0  0  0  0  0
  1 17  1  0  0  0  0
  1 20  1  0  0  0  0
  2 15  1  6  0  0  0
  2  3  1  0  0  0  0
  2 11  1  0  0  0  0
  3  5  1  0  0  0  0
  4 16  1  6  0  0  0
  4 21  1  0  0  0  0
  4 22  2  0  0  0  0
  4 14  1  0  0  0  0
  5  1  1  6  0  0  0
  5  8  1  0  0  0  0
  6 17  2  0  0  0  0
  6 12  1  0  0  0  0
  8  7  1  1  0  0  0
  8 11  1  0  0  0  0
  9 19  1  0  0  0  0
 11 10  1  1  0  0  0
 12 20  2  0  0  0  0
 12 19  1  0  0  0  0
 13 20  1  0  0  0  0
 14 15  1  0  0  0  0
 18 19  2  0  0  0  0
M  CHG  1  21  -1
M  END
>  <CHROM.1>
58.06313053,159.56570738,-67.45416461,-81.41280179,100.83062030,-31.37008328
2.36626215,-9.76445257,-2.81816187,0.80832482,-1.22524548

>  <Name>
ligand

>  <RI>
0

>  <Rbt.Current_Directory>
/home/itssahil/PROJECTS/Mol_Feturizer/Test_systems_manuscript/rnas/4xwf

>  <Rbt.Executable>
rbdock ($Id: //depot/dev/client3/rdock/2013.1/src/exe/rbdock.cxx#4 $)

>  <Rbt.Library>
libRbt.so (2013.1, Build901 2013/11/27)

>  <Rbt.Parameter_File>
/export/apps/rDock/src/rDock_2013.1_src/data/scripts/dock_solv.prm

>  <Rbt.Receptor>
prm/pocket_docking_6.prm

>  <SCORE>
-8.53039

>  <SCORE.INTER>
-10.1638

>  <SCORE.INTER.CONST>
1

>  <SCORE.INTER.POLAR>
0

>  <SCORE.INTER.ROT>
5

>  <SCORE.INTER.SOLV>
13.8114

>  <SCORE.INTER.VDW>
-18.313

>  <SCORE.INTER.norm>
-0.461991

>  <SCORE.INTRA>
1.63342

>  <SCORE.INTRA.DIHEDRAL>
1.85315

>  <SCORE.INTRA.DIHEDRAL.0>
3.49807

>  <SCORE.INTRA.POLAR>
0

>  <SCORE.INTRA.POLAR.0>
0

>  <SCORE.INTRA.REPUL>
0

>  <SCORE.INTRA.REPUL.0>
0

>  <SCORE.INTRA.SOLV>
1.21036

>  <SCORE.INTRA.SOLV.lig_0>
-73.062

>  <SCORE.INTRA.VDW>
0.101666

>  <SCORE.INTRA.VDW.0>
-1.83782

>  <SCORE.INTRA.norm>
0.0742464

>  <SCORE.RESTR>
0

>  <SCORE.RESTR.CAVITY>
0

>  <SCORE.RESTR.norm>
0

>  <SCORE.SYSTEM>
0

>  <SCORE.SYSTEM.CONST>
0

>  <SCORE.SYSTEM.DIHEDRAL>
0

>  <SCORE.SYSTEM.SOLV>
0

>  <SCORE.SYSTEM.norm>
0

>  <SCORE.heavy>
22

>  <SCORE.norm>
-0.387745

>  <RMSD>
6.320

$$$$
ligand
 OpenBabel02271912143D
libRbt.so/2013.1/901 2013/11/27
 22 23  0  0  0  0  0  0  0  0999 V2000
  -26.6308    5.1314  -10.9782 N   0  0  0  0  0  0  0  0  0  0  0  0
  -27.9384    2.5350  -12.7106 C   0  0  1  0  0  0  0  0  0  0  0  0
  -27.9693    3.9675  -12.4526 O   0  0  0  0  0  0  0  0  0  0  0  0
  -30.9173    2.0194  -10.4265 P   0  0  1  0  0  0  0  0  0  0  0  0
  -26.6322    4.3928  -12.1434 C   0  0  2  0  0  0  0  0  0  0  0  0
  -27.1137    5.7979   -8.9698 N   0  0  0  0  0  0  0  0  0  0  0  0
  -24.4961    3.3313  -12.0655 O   0  0  0  0  0  0  0  0  0  0  0  0
  -25.8989    3.1419  -11.8465 C   0  0  2  0  0  0  0  0  0  0  0  0
  -25.9153    8.0076   -7.4293 N   0  0  0  0  0  0  0  0  0  0  0  0
  -26.0505    2.3761  -14.0910 O   0  0  0  0  0  0  0  0  0  0  0  0
  -26.5061    2.1665  -12.7438 C   0  0  2  0  0  0  0  0  0  0  0  0
  -26.1375    6.5843   -9.4489 C   0  0  0  0  0  0  0  0  0  0  0  0
  -24.8340    6.7162  -11.5576 N   0  0  0  0  0  0  0  0  0  0  0  0
  -29.8823    2.5047  -11.4998 O   0  0  0  0  0  0  0  0  0  0  0  0
  -28.6471    1.8710  -11.5806 C   0  0  0  0  0  0  0  0  0  0  0  0
  -31.8512    3.2694  -10.2374 O   0  0  0  0  0  0  0  0  0  0  0  0
  -27.4225    4.8999   -9.9246 C   0  0  0  0  0  0  0  0  0  0  0  0
  -24.6424    8.3933   -9.2777 O   0  0  0  0  0  0  0  0  0  0  0  0
  -25.5085    7.7093   -8.7325 C   0  0  0  0  0  0  0  0  0  0  0  0
  -25.8260    6.1688  -10.7121 C   0  0  0  0  0  0  0  0  0  0  0  0
  -31.6135    0.7940  -10.9180 O   0  5  0  0  0  0  0  0  0  0  0  0
  -30.2269    1.5062   -9.2296 O   0  0  0  0  0  0  0  0  0  0  0  0
  1 17  1  0  0  0  0
  1 20  1  0  0  0  0
  2 15  1  1  0  0  0
  2  3  1  0  0  0  0
  2 11  1  0  0  0  0
  3  5  1  0  0  0  0
  4 16  1  1  0  0  0
  4 21  1  0  0  0  0
  4 22  2  0  0  0  0
  4 14  1  0  0  0  0
  5  1  1  1  0  0  0
  5  8  1  0  0  0  0
  6 17  2  0  0  0  0
  6 12  1  0  0  0  0
  8  7  1  6  0  0  0
  8 11  1  0  0  0  0
  9 19  1  0  0  0  0
 11 10  1  6  0  0  0
 12 20  2  0  0  0  0
 12 19  1  0  0  0  0
 13 20  1  0  0  0  0
 14 15  1  0  0  0  0
 18 19  2  0  0  0  0
M  CHG  1  21  -1
M  END
>  <CHROM.1>
35.54551205,52.99292891,157.46751410,178.24501026,1.16491556,-27.65746805
4.04170018,-10.86759729,-0.66852201,-0.48701795,-2.37127495

>  <Name>
ligand

>  <RI>
0

>  <Rbt.Current_Directory>
/home/itssahil/PROJECTS/Mol_Feturizer/Test_systems_manuscript/rnas/4xwf

>  <Rbt.Executable>
rbdock ($Id: //depot/dev/client3/rdock/2013.1/src/exe/rbdock.cxx#4 $)

>  <Rbt.Library>
libRbt.so (2013.1, Build901 2013/11/27)

>  <Rbt.Parameter_File>
/export/apps/rDock/src/rDock_2013.1_src/data/scripts/dock_solv.prm

>  <Rbt.Receptor>
prm/pocket_docking_2.prm

>  <SCORE>
3.82353

>  <SCORE.INTER>
4.01776

>  <SCORE.INTER.CONST>
1

>  <SCORE.INTER.POLAR>
0

>  <SCORE.INTER.ROT>
5

>  <SCORE.INTER.SOLV>
7.39863

>  <SCORE.INTER.VDW>
-6.72104

>  <SCORE.INTER.norm>
0.182625

>  <SCORE.INTRA>
-0.366833

>  <SCORE.INTRA.DIHEDRAL>
-1.03772

>  <SCORE.INTRA.DIHEDRAL.0>
3.49807

>  <SCORE.INTRA.POLAR>
0

>  <SCORE.INTRA.POLAR.0>
0

>  <SCORE.INTRA.REPUL>
0

>  <SCORE.INTRA.REPUL.0>
0

>  <SCORE.INTRA.SOLV>
0.463397

>  <SCORE.INTRA.SOLV.lig_0>
-73.062

>  <SCORE.INTRA.VDW>
-0.0796728

>  <SCORE.INTRA.VDW.0>
-1.83782

>  <SCORE.INTRA.norm>
-0.0166742

>  <SCORE.RESTR>
0.172605

>  <SCORE.RESTR.CAVITY>
0.172605

>  <SCORE.RESTR.norm>
0.0078457

>  <SCORE.SYSTEM>
0

>  <SCORE.SYSTEM.CONST>
0

>  <SCORE.SYSTEM.DIHEDRAL>
0

>  <SCORE.SYSTEM.SOLV>
0

>  <SCORE.SYSTEM.norm>
0

>  <SCORE.heavy>
22

>  <SCORE.norm>
0.173797

>  <RMSD>
6.363

$$$$
ligand
 OpenBabel02271912143D
libRbt.so/2013.1/901 2013/11/27
 22 23  0  0  0  0  0  0  0  0999 V2000
  -30.3223    4.0114   -9.2688 N   0  0  0  0  0  0  0  0  0  0  0  0
  -31.1965    0.9100  -10.3028 C   0  0  1  0  0  0  0  0  0  0  0  0
  -30.3672    1.7099   -9.4127 O   0  0  0  0  0  0  0  0  0  0  0  0
  -28.2259    0.5658  -12.5923 P   0  0  1  0  0  0  0  0  0  0  0  0
  -31.1033    2.8931   -9.0626 C   0  0  2  0  0  0  0  0  0  0  0  0
  -28.8503    5.3579  -10.1239 N   0  0  0  0  0  0  0  0  0  0  0  0
  -33.2937    3.7202   -9.5254 O   0  0  0  0  0  0  0  0  0  0  0  0
  -32.2003    2.9605  -10.0539 C   0  0  2  0  0  0  0  0  0  0  0  0
  -28.5756    7.6123   -7.4750 N   0  0  0  0  0  0  0  0  0  0  0  0
  -33.2600    1.0143   -9.1957 O   0  0  0  0  0  0  0  0  0  0  0  0
  -32.5247    1.5613  -10.3031 C   0  0  2  0  0  0  0  0  0  0  0  0
  -29.4820    6.0034   -9.1315 C   0  0  0  0  0  0  0  0  0  0  0  0
  -31.3059    5.4629   -7.5363 N   0  0  0  0  0  0  0  0  0  0  0  0
  -29.3262    0.3436  -11.4975 O   0  0  0  0  0  0  0  0  0  0  0  0
  -30.5643    0.9579  -11.6512 C   0  0  0  0  0  0  0  0  0  0  0  0
  -29.0417    0.5231  -13.9351 O   0  0  0  0  0  0  0  0  0  0  0  0
  -29.3702    4.1182  -10.2030 C   0  0  0  0  0  0  0  0  0  0  0  0
  -29.5629    8.3405   -9.3934 O   0  0  0  0  0  0  0  0  0  0  0  0
  -29.2148    7.3871   -8.6971 C   0  0  0  0  0  0  0  0  0  0  0  0
  -30.4125    5.1630   -8.5901 C   0  0  0  0  0  0  0  0  0  0  0  0
  -27.5174    1.8547  -12.3381 O   0  5  0  0  0  0  0  0  0  0  0  0
  -27.1306   -0.4083  -12.4373 O   0  0  0  0  0  0  0  0  0  0  0  0
  1 17  1  0  0  0  0
  1 20  1  0  0  0  0
  2 15  1  6  0  0  0
  2  3  1  0  0  0  0
  2 11  1  0  0  0  0
  3  5  1  0  0  0  0
  4 16  1  6  0  0  0
  4 21  1  0  0  0  0
  4 22  2  0  0  0  0
  4 14  1  0  0  0  0
  5  1  1  6  0  0  0
  5  8  1  0  0  0  0
  6 17  2  0  0  0  0
  6 12  1  0  0  0  0
  8  7  1  1  0  0  0
  8 11  1  0  0  0  0
  9 19  1  0  0  0  0
 11 10  1  1  0  0  0
 12 20  2  0  0  0  0
 12 19  1  0  0  0  0
 13 20  1  0  0  0  0
 14 15  1  0  0  0  0
 18 19  2  0  0  0  0
M  CHG  1  21  -1
M  END
>  <CHROM.1>
30.57495430,63.63525281,-39.67541399,-162.90400593,-108.28828858,-30.01489284
3.03693135,-10.31791882,1.74146524,0.44784105,0.47202421

>  <Name>
ligand

>  <RI>
0

>  <Rbt.Current_Directory>
/home/itssahil/PROJECTS/Mol_Feturizer/Test_systems_manuscript/rnas/4xwf

>  <Rbt.Executable>
rbdock ($Id: //depot/dev/client3/rdock/2013.1/src/exe/rbdock.cxx#4 $)

>  <Rbt.Library>
libRbt.so (2013.1, Build901 2013/11/27)

>  <Rbt.Parameter_File>
/export/apps/rDock/src/rDock_2013.1_src/data/scripts/dock_solv.prm

>  <Rbt.Receptor>
prm/pocket_docking_4.prm

>  <SCORE>
-7.57659

>  <SCORE.INTER>
-7.52181

>  <SCORE.INTER.CONST>
1

>  <SCORE.INTER.POLAR>
0

>  <SCORE.INTER.ROT>
5

>  <SCORE.INTER.SOLV>
8.74664

>  <SCORE.INTER.VDW>
-14.8634

>  <SCORE.INTER.norm>
-0.3419

>  <SCORE.INTRA>
-0.0547788

>  <SCORE.INTRA.DIHEDRAL>
0.0838135

>  <SCORE.INTRA.DIHEDRAL.0>
3.49807

>  <SCORE.INTRA.POLAR>
0

>  <SCORE.INTRA.POLAR.0>
0

>  <SCORE.INTRA.REPUL>
0

>  <SCORE.INTRA.REPUL.0>
0

>  <SCORE.INTRA.SOLV>
0.318805

>  <SCORE.INTRA.SOLV.lig_0>
-73.062

>  <SCORE.INTRA.VDW>
-0.256088

>  <SCORE.INTRA.VDW.0>
-1.83782

>  <SCORE.INTRA.norm>
-0.00248994

>  <SCORE.RESTR>
0

>  <SCORE.RESTR.CAVITY>
0

>  <SCORE.RESTR.norm>
0

>  <SCORE.SYSTEM>
0

>  <SCORE.SYSTEM.CONST>
0

>  <SCORE.SYSTEM.DIHEDRAL>
0

>  <SCORE.SYSTEM.SOLV>
0

>  <SCORE.SYSTEM.norm>
0

>  <SCORE.heavy>
22

>  <SCORE.norm>
-0.34439

>  <RMSD>
6.370

$$$$
ligand
 OpenBabel02271912143D
libRbt.so/2013.1/901 2013/11/27
 22 23  0  0  0  0  0  0  0  0999 V2000
  -29.0579    3.5599  -10.4715 N   0  0  0  0  0  0  0  0  0  0  0  0
  -30.9204    0.8416  -11.2424 C   0  0  1  0  0  0  0  0  0  0  0  0
  -30.2276    2.0242  -11.7337 O   0  0  0  0  0  0  0  0  0  0  0  0
  -32.9892    2.9951   -8.9112 P   0  0  1  0  0  0  0  0  0  0  0  0
  -29.0812    2.2478  -10.8971 C   0  0  2  0  0  0  0  0  0  0  0  0
  -29.6910    5.4529   -9.6190 N   0  0  0  0  0  0  0  0  0  0  0  0
  -28.0856    1.1059   -9.0530 O   0  0  0  0  0  0  0  0  0  0  0  0
  -29.3271    1.4221   -9.6936 C   0  0  2  0  0  0  0  0  0  0  0  0
  -28.0933    7.8902   -9.1691 N   0  0  0  0  0  0  0  0  0  0  0  0
  -29.1166   -0.6153  -10.8986 O   0  0  0  0  0  0  0  0  0  0  0  0
  -30.0317    0.2570  -10.2145 C   0  0  2  0  0  0  0  0  0  0  0  0
  -28.3980    5.5593   -9.9618 C   0  0  0  0  0  0  0  0  0  0  0  0
  -26.6940    4.0566  -10.9625 N   0  0  0  0  0  0  0  0  0  0  0  0
  -31.8655    2.3252   -9.7755 O   0  0  0  0  0  0  0  0  0  0  0  0
  -32.2088    1.3022  -10.6527 C   0  0  0  0  0  0  0  0  0  0  0  0
  -34.0790    3.3812   -9.9759 O   0  0  0  0  0  0  0  0  0  0  0  0
  -30.1001    4.2113   -9.9425 C   0  0  0  0  0  0  0  0  0  0  0  0
  -26.3989    6.7765  -10.2056 O   0  0  0  0  0  0  0  0  0  0  0  0
  -27.5580    6.7593   -9.7916 C   0  0  0  0  0  0  0  0  0  0  0  0
  -27.9914    4.3702  -10.4966 C   0  0  0  0  0  0  0  0  0  0  0  0
  -33.4561    2.0381   -7.8652 O   0  5  0  0  0  0  0  0  0  0  0  0
  -32.4351    4.0848   -8.0876 O   0  0  0  0  0  0  0  0  0  0  0  0
  1 17  1  0  0  0  0
  1 20  1  0  0  0  0
  2 15  1  1  0  0  0
  2  3  1  0  0  0  0
  2 11  1  0  0  0  0
  3  5  1  0  0  0  0
  4 16  1  6  0  0  0
  4 21  1  0  0  0  0
  4 22  2  0  0  0  0
  4 14  1  0  0  0  0
  5  1  1  1  0  0  0
  5  8  1  0  0  0  0
  6 17  2  0  0  0  0
  6 12  1  0  0  0  0
  8  7  1  6  0  0  0
  8 11  1  0  0  0  0
  9 19  1  0  0  0  0
 11 10  1  6  0  0  0
 12 20  2  0  0  0  0
 12 19  1  0  0  0  0
 13 20  1  0  0  0  0
 14 15  1  0  0  0  0
 18 19  2  0  0  0  0
M  CHG  1  21  -1
M  END
>  <CHROM.1>
48.54038162,-51.04897328,-51.62152345,-176.66732309,3.10164307,-30.13320406
3.20723775,-9.90591246,-0.67026701,-0.28353183,-2.90520494

>  <Name>
ligand

>  <RI>
0

>  <Rbt.Current_Directory>
/home/itssahil/PROJECTS/Mol_Feturizer/Test_systems_manuscript/rnas/4xwf

>  <Rbt.Executable>
rbdock ($Id: //depot/dev/client3/rdock/2013.1/src/exe/rbdock.cxx#4 $)

>  <Rbt.Library>
libRbt.so (2013.1, Build901 2013/11/27)

>  <Rbt.Parameter_File>
/export/apps/rDock/src/rDock_2013.1_src/data/scripts/dock_solv.prm

>  <Rbt.Receptor>
prm/pocket_docking_3.prm

>  <SCORE>
-5.98169

>  <SCORE.INTER>
-6.66654

>  <SCORE.INTER.CONST>
1

>  <SCORE.INTER.POLAR>
0

>  <SCORE.INTER.ROT>
5

>  <SCORE.INTER.SOLV>
9.83597

>  <SCORE.INTER.VDW>
-14.6563

>  <SCORE.INTER.norm>
-0.303025

>  <SCORE.INTRA>
0.684849

>  <SCORE.INTRA.DIHEDRAL>
-1.56015

>  <SCORE.INTRA.DIHEDRAL.0>
3.49807

>  <SCORE.INTRA.POLAR>
0

>  <SCORE.INTRA.POLAR.0>
0

>  <SCORE.INTRA.REPUL>
0

>  <SCORE.INTRA.REPUL.0>
0

>  <SCORE.INTRA.SOLV>
1.3124

>  <SCORE.INTRA.SOLV.lig_0>
-73.062

>  <SCORE.INTRA.VDW>
0.808722

>  <SCORE.INTRA.VDW.0>
-1.83782

>  <SCORE.INTRA.norm>
0.0311295

>  <SCORE.RESTR>
0

>  <SCORE.RESTR.CAVITY>
0

>  <SCORE.RESTR.norm>
0

>  <SCORE.SYSTEM>
0

>  <SCORE.SYSTEM.CONST>
0

>  <SCORE.SYSTEM.DIHEDRAL>
0

>  <SCORE.SYSTEM.SOLV>
0

>  <SCORE.SYSTEM.norm>
0

>  <SCORE.heavy>
22

>  <SCORE.norm>
-0.271895

>  <RMSD>
6.392

$$$$
ligand
 OpenBabel02271912143D
libRbt.so/2013.1/901 2013/11/27
 22 23  0  0  0  0  0  0  0  0999 V2000
  -30.5826    4.1159   -9.1437 N   0  0  0  0  0  0  0  0  0  0  0  0
  -31.1013    0.8434   -9.8326 C   0  0  1  0  0  0  0  0  0  0  0  0
  -30.4771    1.8199   -8.9512 O   0  0  0  0  0  0  0  0  0  0  0  0
  -27.8858    0.0389  -11.6688 P   0  0  1  0  0  0  0  0  0  0  0  0
  -31.3249    2.9788   -8.9000 C   0  0  2  0  0  0  0  0  0  0  0  0
  -29.0932    5.4548   -9.9803 N   0  0  0  0  0  0  0  0  0  0  0  0
  -33.4491    3.5613   -9.8188 O   0  0  0  0  0  0  0  0  0  0  0  0
  -32.2431    2.8241  -10.0505 C   0  0  2  0  0  0  0  0  0  0  0  0
  -28.6823    8.3214   -9.4272 N   0  0  0  0  0  0  0  0  0  0  0  0
  -33.3232    0.9370   -9.0917 O   0  0  0  0  0  0  0  0  0  0  0  0
  -32.4443    1.3830  -10.1381 C   0  0  2  0  0  0  0  0  0  0  0  0
  -29.8642    6.1596   -9.1379 C   0  0  0  0  0  0  0  0  0  0  0  0
  -31.8267    5.6758   -7.6964 N   0  0  0  0  0  0  0  0  0  0  0  0
  -29.0231    0.2864  -10.6180 O   0  0  0  0  0  0  0  0  0  0  0  0
  -30.2564    0.7555  -11.0567 C   0  0  0  0  0  0  0  0  0  0  0  0
  -28.3897   -1.2275  -12.4515 O   0  0  0  0  0  0  0  0  0  0  0  0
  -29.5381    4.1837   -9.9773 C   0  0  0  0  0  0  0  0  0  0  0  0
  -30.4875    8.1506   -8.0497 O   0  0  0  0  0  0  0  0  0  0  0  0
  -29.7173    7.5948   -8.8325 C   0  0  0  0  0  0  0  0  0  0  0  0
  -30.8064    5.3239   -8.6095 C   0  0  0  0  0  0  0  0  0  0  0  0
  -27.7066    1.2578  -12.5115 O   0  5  0  0  0  0  0  0  0  0  0  0
  -26.5732   -0.0565  -11.0052 O   0  0  0  0  0  0  0  0  0  0  0  0
  1 17  1  0  0  0  0
  1 20  1  0  0  0  0
  2 15  1  6  0  0  0
  2  3  1  0  0  0  0
  2 11  1  0  0  0  0
  3  5  1  0  0  0  0
  4 16  1  6  0  0  0
  4 21  1  0  0  0  0
  4 22  2  0  0  0  0
  4 14  1  0  0  0  0
  5  1  1  6  0  0  0
  5  8  1  0  0  0  0
  6 17  2  0  0  0  0
  6 12  1  0  0  0  0
  8  7  1  1  0  0  0
  8 11  1  0  0  0  0
  9 19  1  0  0  0  0
 11 10  1  1  0  0  0
 12 20  2  0  0  0  0
 12 19  1  0  0  0  0
 13 20  1  0  0  0  0
 14 15  1  0  0  0  0
 18 19  2  0  0  0  0
M  CHG  1  21  -1
M  END
>  <CHROM.1>
34.32059660,62.73045321,-70.76623668,178.51736565,-1.40805868,-30.07077024
2.92121869,-9.99548970,1.85312232,0.34181889,0.29166202

>  <Name>
ligand

>  <RI>
0

>  <Rbt.Current_Directory>
/home/itssahil/PROJECTS/Mol_Feturizer/Test_systems_manuscript/rnas/4xwf

>  <Rbt.Executable>
rbdock ($Id: //depot/dev/client3/rdock/2013.1/src/exe/rbdock.cxx#4 $)

>  <Rbt.Library>
libRbt.so (2013.1, Build901 2013/11/27)

>  <Rbt.Parameter_File>
/export/apps/rDock/src/rDock_2013.1_src/data/scripts/dock_solv.prm

>  <Rbt.Receptor>
prm/pocket_docking_7.prm

>  <SCORE>
-8.25572

>  <SCORE.INTER>
-7.05681

>  <SCORE.INTER.CONST>
1

>  <SCORE.INTER.POLAR>
0

>  <SCORE.INTER.ROT>
5

>  <SCORE.INTER.SOLV>
9.01423

>  <SCORE.INTER.VDW>
-14.6426

>  <SCORE.INTER.norm>
-0.320764

>  <SCORE.INTRA>
-1.1989

>  <SCORE.INTRA.DIHEDRAL>
-1.75057

>  <SCORE.INTRA.DIHEDRAL.0>
3.49807

>  <SCORE.INTRA.POLAR>
0

>  <SCORE.INTRA.POLAR.0>
0

>  <SCORE.INTRA.REPUL>
0

>  <SCORE.INTRA.REPUL.0>
0

>  <SCORE.INTRA.SOLV>
-0.0654483

>  <SCORE.INTRA.SOLV.lig_0>
-73.062

>  <SCORE.INTRA.VDW>
-0.290894

>  <SCORE.INTRA.VDW.0>
-1.83782

>  <SCORE.INTRA.norm>
-0.0544956

>  <SCORE.RESTR>
0

>  <SCORE.RESTR.CAVITY>
0

>  <SCORE.RESTR.norm>
0

>  <SCORE.SYSTEM>
0

>  <SCORE.SYSTEM.CONST>
0

>  <SCORE.SYSTEM.DIHEDRAL>
0

>  <SCORE.SYSTEM.SOLV>
0

>  <SCORE.SYSTEM.norm>
0

>  <SCORE.heavy>
22

>  <SCORE.norm>
-0.37526

>  <RMSD>
6.419

$$$$
ligand
 OpenBabel02271912143D
libRbt.so/2013.1/901 2013/11/27
 22 23  0  0  0  0  0  0  0  0999 V2000
  -30.5763    4.0904   -9.1735 N   0  0  0  0  0  0  0  0  0  0  0  0
  -31.1228    0.8173   -9.8375 C   0  0  1  0  0  0  0  0  0  0  0  0
  -30.4871    1.7950   -8.9658 O   0  0  0  0  0  0  0  0  0  0  0  0
  -27.8997    0.0449  -11.6742 P   0  0  1  0  0  0  0  0  0  0  0  0
  -31.3258    2.9606   -8.9185 C   0  0  2  0  0  0  0  0  0  0  0  0
  -29.0905    5.4164  -10.0369 N   0  0  0  0  0  0  0  0  0  0  0  0
  -33.4501    3.5529   -9.8309 O   0  0  0  0  0  0  0  0  0  0  0  0
  -32.2508    2.8050  -10.0635 C   0  0  2  0  0  0  0  0  0  0  0  0
  -28.6326    8.2747   -9.4774 N   0  0  0  0  0  0  0  0  0  0  0  0
  -33.3402    0.9327   -9.0865 O   0  0  0  0  0  0  0  0  0  0  0  0
  -32.4632    1.3649  -10.1402 C   0  0  2  0  0  0  0  0  0  0  0  0
  -29.8347    6.1258   -9.1747 C   0  0  0  0  0  0  0  0  0  0  0  0
  -31.7704    5.6575   -7.6923 N   0  0  0  0  0  0  0  0  0  0  0  0
  -29.0395    0.2804  -10.6236 O   0  0  0  0  0  0  0  0  0  0  0  0
  -30.2846    0.7147  -11.0651 C   0  0  0  0  0  0  0  0  0  0  0  0
  -28.4022   -1.2116  -12.4737 O   0  0  0  0  0  0  0  0  0  0  0  0
  -29.5496    4.1504  -10.0296 C   0  0  0  0  0  0  0  0  0  0  0  0
  -30.4136    8.1196   -8.0669 O   0  0  0  0  0  0  0  0  0  0  0  0
  -29.6649    7.5579   -8.8663 C   0  0  0  0  0  0  0  0  0  0  0  0
  -30.7745    5.2984   -8.6292 C   0  0  0  0  0  0  0  0  0  0  0  0
  -27.7173    1.2738  -12.5016 O   0  5  0  0  0  0  0  0  0  0  0  0
  -26.5888   -0.0594  -11.0083 O   0  0  0  0  0  0  0  0  0  0  0  0
  1 17  1  0  0  0  0
  1 20  1  0  0  0  0
  2 15  1  6  0  0  0
  2  3  1  0  0  0  0
  2 11  1  0  0  0  0
  3  5  1  0  0  0  0
  4 16  1  6  0  0  0
  4 21  1  0  0  0  0
  4 22  2  0  0  0  0
  4 14  1  0  0  0  0
  5  1  1  6  0  0  0
  5  8  1  0  0  0  0
  6 17  2  0  0  0  0
  6 12  1  0  0  0  0
  8  7  1  1  0  0  0
  8 11  1  0  0  0  0
  9 19  1  0  0  0  0
 11 10  1  1  0  0  0
 12 20  2  0  0  0  0
 12 19  1  0  0  0  0
 13 20  1  0  0  0  0
 14 15  1  0  0  0  0
 18 19  2  0  0  0  0
M  CHG  1  21  -1
M  END
>  <CHROM.1>
35.51873224,60.87512837,-68.72715859,179.24978407,-1.59922633,-30.06704345
2.90439661,-10.01163032,1.84474425,0.34406853,0.29226794

>  <Name>
ligand

>  <RI>
0

>  <Rbt.Current_Directory>
/home/itssahil/PROJECTS/Mol_Feturizer/Test_systems_manuscript/rnas/4xwf

>  <Rbt.Executable>
rbdock ($Id: //depot/dev/client3/rdock/2013.1/src/exe/rbdock.cxx#4 $)

>  <Rbt.Library>
libRbt.so (2013.1, Build901 2013/11/27)

>  <Rbt.Parameter_File>
/export/apps/rDock/src/rDock_2013.1_src/data/scripts/dock_solv.prm

>  <Rbt.Receptor>
prm/pocket_docking_7.prm

>  <SCORE>
-8.21737

>  <SCORE.INTER>
-6.92181

>  <SCORE.INTER.CONST>
1

>  <SCORE.INTER.POLAR>
0

>  <SCORE.INTER.ROT>
5

>  <SCORE.INTER.SOLV>
9.08493

>  <SCORE.INTER.VDW>
-14.5762

>  <SCORE.INTER.norm>
-0.314628

>  <SCORE.INTRA>
-1.29556

>  <SCORE.INTRA.DIHEDRAL>
-1.85262

>  <SCORE.INTRA.DIHEDRAL.0>
3.49807

>  <SCORE.INTRA.POLAR>
0

>  <SCORE.INTRA.POLAR.0>
0

>  <SCORE.INTRA.REPUL>
0

>  <SCORE.INTRA.REPUL.0>
0

>  <SCORE.INTRA.SOLV>
-0.109817

>  <SCORE.INTRA.SOLV.lig_0>
-73.062

>  <SCORE.INTRA.VDW>
-0.314341

>  <SCORE.INTRA.VDW.0>
-1.83782

>  <SCORE.INTRA.norm>
-0.0588892

>  <SCORE.RESTR>
0

>  <SCORE.RESTR.CAVITY>
0

>  <SCORE.RESTR.norm>
0

>  <SCORE.SYSTEM>
0

>  <SCORE.SYSTEM.CONST>
0

>  <SCORE.SYSTEM.DIHEDRAL>
0

>  <SCORE.SYSTEM.SOLV>
0

>  <SCORE.SYSTEM.norm>
0

>  <SCORE.heavy>
22

>  <SCORE.norm>
-0.373517

>  <RMSD>
6.420

$$$$
ligand
 OpenBabel02271912143D
libRbt.so/2013.1/901 2013/11/27
 22 23  0  0  0  0  0  0  0  0999 V2000
  -28.1927    3.3037  -11.5508 N   0  0  0  0  0  0  0  0  0  0  0  0
  -30.3743    0.7523  -11.1225 C   0  0  1  0  0  0  0  0  0  0  0  0
  -29.9845    1.9011  -11.9276 O   0  0  0  0  0  0  0  0  0  0  0  0
  -32.7476    3.1472   -9.4569 P   0  0  1  0  0  0  0  0  0  0  0  0
  -28.5529    2.0131  -11.8791 C   0  0  2  0  0  0  0  0  0  0  0  0
  -28.1764    5.2479  -10.5859 N   0  0  0  0  0  0  0  0  0  0  0  0
  -26.7896    0.7370  -10.9003 O   0  0  0  0  0  0  0  0  0  0  0  0
  -28.1477    1.1625  -10.7377 C   0  0  2  0  0  0  0  0  0  0  0  0
  -24.8037    6.0333  -11.4257 N   0  0  0  0  0  0  0  0  0  0  0  0
  -28.8078   -0.8385  -11.8364 O   0  0  0  0  0  0  0  0  0  0  0  0
  -29.1119    0.0695  -10.7643 C   0  0  2  0  0  0  0  0  0  0  0  0
  -27.1374    5.1920  -11.4333 C   0  0  0  0  0  0  0  0  0  0  0  0
  -26.1996    3.4987  -12.9879 N   0  0  0  0  0  0  0  0  0  0  0  0
  -32.0955    2.0828  -10.4059 O   0  0  0  0  0  0  0  0  0  0  0  0
  -31.0716    1.2795   -9.9159 C   0  0  0  0  0  0  0  0  0  0  0  0
  -31.7624    4.3679   -9.5559 O   0  0  0  0  0  0  0  0  0  0  0  0
  -28.8340    4.0754  -10.6655 C   0  0  0  0  0  0  0  0  0  0  0  0
  -26.5290    7.3764  -12.0620 O   0  0  0  0  0  0  0  0  0  0  0  0
  -26.1593    6.2702  -11.6689 C   0  0  0  0  0  0  0  0  0  0  0  0
  -27.1393    3.9696  -12.0425 C   0  0  0  0  0  0  0  0  0  0  0  0
  -34.1405    3.4364   -9.9084 O   0  5  0  0  0  0  0  0  0  0  0  0
  -32.9838    2.5781   -8.1178 O   0  0  0  0  0  0  0  0  0  0  0  0
  1 17  1  0  0  0  0
  1 20  1  0  0  0  0
  2 15  1  1  0  0  0
  2  3  1  0  0  0  0
  2 11  1  0  0  0  0
  3  5  1  0  0  0  0
  4 16  1  1  0  0  0
  4 21  1  0  0  0  0
  4 22  2  0  0  0  0
  4 14  1  0  0  0  0
  5  1  1  1  0  0  0
  5  8  1  0  0  0  0
  6 17  2  0  0  0  0
  6 12  1  0  0  0  0
  8  7  1  6  0  0  0
  8 11  1  0  0  0  0
  9 19  1  0  0  0  0
 11 10  1  6  0  0  0
 12 20  2  0  0  0  0
 12 19  1  0  0  0  0
 13 20  1  0  0  0  0
 14 15  1  0  0  0  0
 18 19  2  0  0  0  0
M  CHG  1  21  -1
M  END
>  <CHROM.1>
38.28679066,54.83647262,83.16061478,-160.88637289,120.71698373,-29.37483556
3.04216917,-10.84336458,-0.36145439,-0.36929092,-3.04330394

>  <Name>
ligand

>  <RI>
0

>  <Rbt.Current_Directory>
/home/itssahil/PROJECTS/Mol_Feturizer/Test_systems_manuscript/rnas/4xwf

>  <Rbt.Executable>
rbdock ($Id: //depot/dev/client3/rdock/2013.1/src/exe/rbdock.cxx#4 $)

>  <Rbt.Library>
libRbt.so (2013.1, Build901 2013/11/27)

>  <Rbt.Parameter_File>
/export/apps/rDock/src/rDock_2013.1_src/data/scripts/dock_solv.prm

>  <Rbt.Receptor>
prm/pocket_docking_3.prm

>  <SCORE>
-5.44317

>  <SCORE.INTER>
-4.8893

>  <SCORE.INTER.CONST>
1

>  <SCORE.INTER.POLAR>
0

>  <SCORE.INTER.ROT>
5

>  <SCORE.INTER.SOLV>
14.9103

>  <SCORE.INTER.VDW>
-15.163

>  <SCORE.INTER.norm>
-0.222241

>  <SCORE.INTRA>
-0.554054

>  <SCORE.INTRA.DIHEDRAL>
0.421947

>  <SCORE.INTRA.DIHEDRAL.0>
3.49807

>  <SCORE.INTRA.POLAR>
0

>  <SCORE.INTRA.POLAR.0>
0

>  <SCORE.INTRA.REPUL>
0

>  <SCORE.INTRA.REPUL.0>
0

>  <SCORE.INTRA.SOLV>
-0.0620474

>  <SCORE.INTRA.SOLV.lig_0>
-73.062

>  <SCORE.INTRA.VDW>
-0.734004

>  <SCORE.INTRA.VDW.0>
-1.83782

>  <SCORE.INTRA.norm>
-0.0251843

>  <SCORE.RESTR>
0.000185718

>  <SCORE.RESTR.CAVITY>
0.000185718

>  <SCORE.RESTR.norm>
8.44174e-06

>  <SCORE.SYSTEM>
0

>  <SCORE.SYSTEM.CONST>
0

>  <SCORE.SYSTEM.DIHEDRAL>
0

>  <SCORE.SYSTEM.SOLV>
0

>  <SCORE.SYSTEM.norm>
0

>  <SCORE.heavy>
22

>  <SCORE.norm>
-0.247417

>  <RMSD>
6.421

$$$$
ligand
 OpenBabel02271912143D
libRbt.so/2013.1/901 2013/11/27
 22 23  0  0  0  0  0  0  0  0999 V2000
  -28.1830    3.2886  -11.5884 N   0  0  0  0  0  0  0  0  0  0  0  0
  -30.3614    0.7381  -11.1388 C   0  0  1  0  0  0  0  0  0  0  0  0
  -29.9727    1.8804  -11.9538 O   0  0  0  0  0  0  0  0  0  0  0  0
  -32.7317    3.1439   -9.4675 P   0  0  1  0  0  0  0  0  0  0  0  0
  -28.5413    1.9947  -11.9055 C   0  0  2  0  0  0  0  0  0  0  0  0
  -28.1649    5.2386  -10.6352 N   0  0  0  0  0  0  0  0  0  0  0  0
  -26.7768    0.7297  -10.9145 O   0  0  0  0  0  0  0  0  0  0  0  0
  -28.1355    1.1547  -10.7564 C   0  0  2  0  0  0  0  0  0  0  0  0
  -24.7961    6.0021  -11.6123 N   0  0  0  0  0  0  0  0  0  0  0  0
  -28.7923   -0.8568  -11.8378 O   0  0  0  0  0  0  0  0  0  0  0  0
  -29.0982    0.0602  -10.7739 C   0  0  2  0  0  0  0  0  0  0  0  0
  -27.1342    5.1817  -11.4925 C   0  0  0  0  0  0  0  0  0  0  0  0
  -26.2050    3.4829  -13.0463 N   0  0  0  0  0  0  0  0  0  0  0  0
  -32.0524    2.1129  -10.4341 O   0  0  0  0  0  0  0  0  0  0  0  0
  -31.0601    1.2750   -9.9372 C   0  0  0  0  0  0  0  0  0  0  0  0
  -31.7549    4.3745   -9.5112 O   0  0  0  0  0  0  0  0  0  0  0  0
  -28.8186    4.0630  -10.7013 C   0  0  0  0  0  0  0  0  0  0  0  0
  -26.5466    7.3902  -12.0533 O   0  0  0  0  0  0  0  0  0  0  0  0
  -26.1628    6.2623  -11.7441 C   0  0  0  0  0  0  0  0  0  0  0  0
  -27.1372    3.9557  -12.0944 C   0  0  0  0  0  0  0  0  0  0  0  0
  -34.1179    3.4356   -9.9379 O   0  5  0  0  0  0  0  0  0  0  0  0
  -32.9894    2.5339   -8.1506 O   0  0  0  0  0  0  0  0  0  0  0  0
  1 17  1  0  0  0  0
  1 20  1  0  0  0  0
  2 15  1  1  0  0  0
  2  3  1  0  0  0  0
  2 11  1  0  0  0  0
  3  5  1  0  0  0  0
  4 16  1  1  0  0  0
  4 21  1  0  0  0  0
  4 22  2  0  0  0  0
  4 14  1  0  0  0  0
  5  1  1  1  0  0  0
  5  8  1  0  0  0  0
  6 17  2  0  0  0  0
  6 12  1  0  0  0  0
  8  7  1  6  0  0  0
  8 11  1  0  0  0  0
  9 19  1  0  0  0  0
 11 10  1  6  0  0  0
 12 20  2  0  0  0  0
 12 19  1  0  0  0  0
 13 20  1  0  0  0  0
 14 15  1  0  0  0  0
 18 19  2  0  0  0  0
M  CHG  1  21  -1
M  END
>  <CHROM.1>
38.92440631,52.62663199,85.11229858,-163.61678701,125.62141570,-29.36485029
3.03305904,-10.87414727,-0.36159729,-0.37555249,-3.05052952

>  <Name>
ligand

>  <RI>
0

>  <Rbt.Current_Directory>
/home/itssahil/PROJECTS/Mol_Feturizer/Test_systems_manuscript/rnas/4xwf

>  <Rbt.Executable>
rbdock ($Id: //depot/dev/client3/rdock/2013.1/src/exe/rbdock.cxx#4 $)

>  <Rbt.Library>
libRbt.so (2013.1, Build901 2013/11/27)

>  <Rbt.Parameter_File>
/export/apps/rDock/src/rDock_2013.1_src/data/scripts/dock_solv.prm

>  <Rbt.Receptor>
prm/pocket_docking_3.prm

>  <SCORE>
-5.37655

>  <SCORE.INTER>
-4.84798

>  <SCORE.INTER.CONST>
1

>  <SCORE.INTER.POLAR>
0

>  <SCORE.INTER.ROT>
5

>  <SCORE.INTER.SOLV>
14.9857

>  <SCORE.INTER.VDW>
-15.1605

>  <SCORE.INTER.norm>
-0.220363

>  <SCORE.INTRA>
-0.52868

>  <SCORE.INTRA.DIHEDRAL>
0.255495

>  <SCORE.INTRA.DIHEDRAL.0>
3.49807

>  <SCORE.INTRA.POLAR>
0

>  <SCORE.INTRA.POLAR.0>
0

>  <SCORE.INTRA.REPUL>
0

>  <SCORE.INTRA.REPUL.0>
0

>  <SCORE.INTRA.SOLV>
-0.036786

>  <SCORE.INTRA.SOLV.lig_0>
-73.062

>  <SCORE.INTRA.VDW>
-0.638034

>  <SCORE.INTRA.VDW.0>
-1.83782

>  <SCORE.INTRA.norm>
-0.0240309

>  <SCORE.RESTR>
0.00011398

>  <SCORE.RESTR.CAVITY>
0.00011398

>  <SCORE.RESTR.norm>
5.1809e-06

>  <SCORE.SYSTEM>
0

>  <SCORE.SYSTEM.CONST>
0

>  <SCORE.SYSTEM.DIHEDRAL>
0

>  <SCORE.SYSTEM.SOLV>
0

>  <SCORE.SYSTEM.norm>
0

>  <SCORE.heavy>
22

>  <SCORE.norm>
-0.244389

>  <RMSD>
6.423

$$$$
ligand
 OpenBabel02271912143D
libRbt.so/2013.1/901 2013/11/27
 22 23  0  0  0  0  0  0  0  0999 V2000
  -28.6460    3.4887  -10.9654 N   0  0  0  0  0  0  0  0  0  0  0  0
  -30.8182    0.8977  -10.8198 C   0  0  1  0  0  0  0  0  0  0  0  0
  -30.3883    2.0897  -11.5370 O   0  0  0  0  0  0  0  0  0  0  0  0
  -33.1914    3.3034   -9.1937 P   0  0  1  0  0  0  0  0  0  0  0  0
  -28.9652    2.2130  -11.3823 C   0  0  2  0  0  0  0  0  0  0  0  0
  -28.7319    5.3874   -9.9173 N   0  0  0  0  0  0  0  0  0  0  0  0
  -27.2579    0.9060  -10.3466 O   0  0  0  0  0  0  0  0  0  0  0  0
  -28.6295    1.3095  -10.2590 C   0  0  2  0  0  0  0  0  0  0  0  0
  -26.5065    7.1721  -11.9641 N   0  0  0  0  0  0  0  0  0  0  0  0
  -29.1846   -0.6395  -11.5000 O   0  0  0  0  0  0  0  0  0  0  0  0
  -29.5749    0.2099  -10.4081 C   0  0  2  0  0  0  0  0  0  0  0  0
  -27.6200    5.3733  -10.6683 C   0  0  0  0  0  0  0  0  0  0  0  0
  -26.5323    3.7551  -12.2051 N   0  0  0  0  0  0  0  0  0  0  0  0
  -32.5490    2.2405  -10.1509 O   0  0  0  0  0  0  0  0  0  0  0  0
  -31.6050    1.3562   -9.6405 C   0  0  0  0  0  0  0  0  0  0  0  0
  -32.0576    4.3814   -9.0418 O   0  0  0  0  0  0  0  0  0  0  0  0
  -29.3707    4.2174  -10.1085 C   0  0  0  0  0  0  0  0  0  0  0  0
  -25.9121    6.7445   -9.8078 O   0  0  0  0  0  0  0  0  0  0  0  0
  -26.6326    6.4644  -10.7657 C   0  0  0  0  0  0  0  0  0  0  0  0
  -27.5574    4.1796  -11.3290 C   0  0  0  0  0  0  0  0  0  0  0  0
  -34.4589    3.8169   -9.7917 O   0  5  0  0  0  0  0  0  0  0  0  0
  -33.6846    2.6650   -7.9601 O   0  0  0  0  0  0  0  0  0  0  0  0
  1 17  1  0  0  0  0
  1 20  1  0  0  0  0
  2 15  1  1  0  0  0
  2  3  1  0  0  0  0
  2 11  1  0  0  0  0
  3  5  1  0  0  0  0
  4 16  1  1  0  0  0
  4 21  1  0  0  0  0
  4 22  2  0  0  0  0
  4 14  1  0  0  0  0
  5  1  1  1  0  0  0
  5  8  1  0  0  0  0
  6 17  2  0  0  0  0
  6 12  1  0  0  0  0
  8  7  1  6  0  0  0
  8 11  1  0  0  0  0
  9 19  1  0  0  0  0
 11 10  1  6  0  0  0
 12 20  2  0  0  0  0
 12 19  1  0  0  0  0
 13 20  1  0  0  0  0
 14 15  1  0  0  0  0
 18 19  2  0  0  0  0
M  CHG  1  21  -1
M  END
>  <CHROM.1>
37.01118563,51.13987565,76.42631352,-157.65903885,-111.78483960,-29.82649710
3.21227481,-10.34865728,-0.38267249,-0.31332725,-2.97973098

>  <Name>
ligand

>  <RI>
0

>  <Rbt.Current_Directory>
/home/itssahil/PROJECTS/Mol_Feturizer/Test_systems_manuscript/rnas/4xwf

>  <Rbt.Executable>
rbdock ($Id: //depot/dev/client3/rdock/2013.1/src/exe/rbdock.cxx#4 $)

>  <Rbt.Library>
libRbt.so (2013.1, Build901 2013/11/27)

>  <Rbt.Parameter_File>
/export/apps/rDock/src/rDock_2013.1_src/data/scripts/dock_solv.prm

>  <Rbt.Receptor>
prm/pocket_docking_3.prm

>  <SCORE>
-5.25793

>  <SCORE.INTER>
-4.88107

>  <SCORE.INTER.CONST>
1

>  <SCORE.INTER.POLAR>
0

>  <SCORE.INTER.ROT>
5

>  <SCORE.INTER.SOLV>
17.3602

>  <SCORE.INTER.VDW>
-15.9741

>  <SCORE.INTER.norm>
-0.221867

>  <SCORE.INTRA>
-0.376865

>  <SCORE.INTRA.DIHEDRAL>
0.8732

>  <SCORE.INTRA.DIHEDRAL.0>
3.49807

>  <SCORE.INTRA.POLAR>
0

>  <SCORE.INTRA.POLAR.0>
0

>  <SCORE.INTRA.REPUL>
0

>  <SCORE.INTRA.REPUL.0>
0

>  <SCORE.INTRA.SOLV>
-0.0720163

>  <SCORE.INTRA.SOLV.lig_0>
-73.062

>  <SCORE.INTRA.VDW>
-0.777457

>  <SCORE.INTRA.VDW.0>
-1.83782

>  <SCORE.INTRA.norm>
-0.0171302

>  <SCORE.RESTR>
0

>  <SCORE.RESTR.CAVITY>
0

>  <SCORE.RESTR.norm>
0

>  <SCORE.SYSTEM>
0

>  <SCORE.SYSTEM.CONST>
0

>  <SCORE.SYSTEM.DIHEDRAL>
0

>  <SCORE.SYSTEM.SOLV>
0

>  <SCORE.SYSTEM.norm>
0

>  <SCORE.heavy>
22

>  <SCORE.norm>
-0.238997

>  <RMSD>
6.433

$$$$
ligand
 OpenBabel02271912143D
libRbt.so/2013.1/901 2013/11/27
 22 23  0  0  0  0  0  0  0  0999 V2000
  -28.1539    3.2893  -11.5987 N   0  0  0  0  0  0  0  0  0  0  0  0
  -30.3621    0.7616  -11.1660 C   0  0  1  0  0  0  0  0  0  0  0  0
  -29.9651    1.9100  -11.9683 O   0  0  0  0  0  0  0  0  0  0  0  0
  -32.7536    3.1225   -9.4740 P   0  0  1  0  0  0  0  0  0  0  0  0
  -28.5320    2.0048  -11.9308 C   0  0  2  0  0  0  0  0  0  0  0  0
  -28.1030    5.2258  -10.6198 N   0  0  0  0  0  0  0  0  0  0  0  0
  -26.7762    0.7029  -10.9726 O   0  0  0  0  0  0  0  0  0  0  0  0
  -28.1277    1.1435  -10.7969 C   0  0  2  0  0  0  0  0  0  0  0  0
  -24.7345    5.9772  -11.5341 N   0  0  0  0  0  0  0  0  0  0  0  0
  -28.8202   -0.8438  -11.9005 O   0  0  0  0  0  0  0  0  0  0  0  0
  -29.1050    0.0621  -10.8215 C   0  0  2  0  0  0  0  0  0  0  0  0
  -27.0785    5.1664  -11.4844 C   0  0  0  0  0  0  0  0  0  0  0  0
  -26.1826    3.4760  -13.0666 N   0  0  0  0  0  0  0  0  0  0  0  0
  -32.0921    2.0692  -10.4288 O   0  0  0  0  0  0  0  0  0  0  0  0
  -31.0435    1.2907   -9.9512 C   0  0  0  0  0  0  0  0  0  0  0  0
  -31.7796    4.3527   -9.5667 O   0  0  0  0  0  0  0  0  0  0  0  0
  -28.7732    4.0604  -10.6973 C   0  0  0  0  0  0  0  0  0  0  0  0
  -26.4609    7.3564  -12.0843 O   0  0  0  0  0  0  0  0  0  0  0  0
  -26.0939    6.2369  -11.7278 C   0  0  0  0  0  0  0  0  0  0  0  0
  -27.1022    3.9487  -12.1025 C   0  0  0  0  0  0  0  0  0  0  0  0
  -34.1492    3.4015   -9.9238 O   0  5  0  0  0  0  0  0  0  0  0  0
  -32.9844    2.5442   -8.1380 O   0  0  0  0  0  0  0  0  0  0  0  0
  1 17  1  0  0  0  0
  1 20  1  0  0  0  0
  2 15  1  1  0  0  0
  2  3  1  0  0  0  0
  2 11  1  0  0  0  0
  3  5  1  0  0  0  0
  4 16  1  1  0  0  0
  4 21  1  0  0  0  0
  4 22  2  0  0  0  0
  4 14  1  0  0  0  0
  5  1  1  1  0  0  0
  5  8  1  0  0  0  0
  6 17  2  0  0  0  0
  6 12  1  0  0  0  0
  8  7  1  6  0  0  0
  8 11  1  0  0  0  0
  9 19  1  0  0  0  0
 11 10  1  6  0  0  0
 12 20  2  0  0  0  0
 12 19  1  0  0  0  0
 13 20  1  0  0  0  0
 14 15  1  0  0  0  0
 18 19  2  0  0  0  0
M  CHG  1  21  -1
M  END
>  <CHROM.1>
38.79622649,56.96228464,81.92199017,-161.52426320,121.98342297,-29.35209883
3.02375806,-10.88674067,-0.34981748,-0.37400440,-3.03638246

>  <Name>
ligand

>  <RI>
0

>  <Rbt.Current_Directory>
/home/itssahil/PROJECTS/Mol_Feturizer/Test_systems_manuscript/rnas/4xwf

>  <Rbt.Executable>
rbdock ($Id: //depot/dev/client3/rdock/2013.1/src/exe/rbdock.cxx#4 $)

>  <Rbt.Library>
libRbt.so (2013.1, Build901 2013/11/27)

>  <Rbt.Parameter_File>
/export/apps/rDock/src/rDock_2013.1_src/data/scripts/dock_solv.prm

>  <Rbt.Receptor>
prm/pocket_docking_3.prm

>  <SCORE>
-5.4899

>  <SCORE.INTER>
-4.85311

>  <SCORE.INTER.CONST>
1

>  <SCORE.INTER.POLAR>
0

>  <SCORE.INTER.ROT>
5

>  <SCORE.INTER.SOLV>
14.9442

>  <SCORE.INTER.VDW>
-15.1502

>  <SCORE.INTER.norm>
-0.220596

>  <SCORE.INTRA>
-0.638365

>  <SCORE.INTRA.DIHEDRAL>
0.201026

>  <SCORE.INTRA.DIHEDRAL.0>
3.49807

>  <SCORE.INTRA.POLAR>
0

>  <SCORE.INTRA.POLAR.0>
0

>  <SCORE.INTRA.REPUL>
0

>  <SCORE.INTRA.REPUL.0>
0

>  <SCORE.INTRA.SOLV>
-0.0758833

>  <SCORE.INTRA.SOLV.lig_0>
-73.062

>  <SCORE.INTRA.VDW>
-0.700936

>  <SCORE.INTRA.VDW.0>
-1.83782

>  <SCORE.INTRA.norm>
-0.0290166

>  <SCORE.RESTR>
0.00157591

>  <SCORE.RESTR.CAVITY>
0.00157591

>  <SCORE.RESTR.norm>
7.16321e-05

>  <SCORE.SYSTEM>
0

>  <SCORE.SYSTEM.CONST>
0

>  <SCORE.SYSTEM.DIHEDRAL>
0

>  <SCORE.SYSTEM.SOLV>
0

>  <SCORE.SYSTEM.norm>
0

>  <SCORE.heavy>
22

>  <SCORE.norm>
-0.249541

>  <RMSD>
6.441

$$$$
ligand
 OpenBabel02271912143D
libRbt.so/2013.1/901 2013/11/27
 22 23  0  0  0  0  0  0  0  0999 V2000
  -30.6706    4.1342   -9.0918 N   0  0  0  0  0  0  0  0  0  0  0  0
  -31.1363    0.8576   -9.7982 C   0  0  1  0  0  0  0  0  0  0  0  0
  -30.5199    1.8393   -8.9173 O   0  0  0  0  0  0  0  0  0  0  0  0
  -27.9547    0.0509  -11.6899 P   0  0  1  0  0  0  0  0  0  0  0  0
  -31.3884    2.9817   -8.8475 C   0  0  2  0  0  0  0  0  0  0  0  0
  -29.1934    5.4979   -9.9101 N   0  0  0  0  0  0  0  0  0  0  0  0
  -33.5342    3.5308   -9.7362 O   0  0  0  0  0  0  0  0  0  0  0  0
  -32.3175    2.8180   -9.9879 C   0  0  2  0  0  0  0  0  0  0  0  0
  -28.8694    8.3821   -9.3905 N   0  0  0  0  0  0  0  0  0  0  0  0
  -33.3504    0.9042   -9.0299 O   0  0  0  0  0  0  0  0  0  0  0  0
  -32.4929    1.3740  -10.0836 C   0  0  2  0  0  0  0  0  0  0  0  0
  -30.0092    6.1971   -9.1061 C   0  0  0  0  0  0  0  0  0  0  0  0
  -32.0012    5.6867   -7.7152 N   0  0  0  0  0  0  0  0  0  0  0  0
  -29.0653    0.3216  -10.6166 O   0  0  0  0  0  0  0  0  0  0  0  0
  -30.3050    0.7942  -11.0331 C   0  0  0  0  0  0  0  0  0  0  0  0
  -28.4562   -1.2567  -12.4035 O   0  0  0  0  0  0  0  0  0  0  0  0
  -29.6030    4.2151   -9.8945 C   0  0  0  0  0  0  0  0  0  0  0  0
  -30.7289    8.1936   -8.0897 O   0  0  0  0  0  0  0  0  0  0  0  0
  -29.9114    7.6416   -8.8259 C   0  0  0  0  0  0  0  0  0  0  0  0
  -30.9439    5.3458   -8.5895 C   0  0  0  0  0  0  0  0  0  0  0  0
  -27.8243    1.2361  -12.5878 O   0  5  0  0  0  0  0  0  0  0  0  0
  -26.6215    0.0080  -11.0627 O   0  0  0  0  0  0  0  0  0  0  0  0
  1 17  1  0  0  0  0
  1 20  1  0  0  0  0
  2 15  1  6  0  0  0
  2  3  1  0  0  0  0
  2 11  1  0  0  0  0
  3  5  1  0  0  0  0
  4 16  1  6  0  0  0
  4 21  1  0  0  0  0
  4 22  2  0  0  0  0
  4 14  1  0  0  0  0
  5  1  1  6  0  0  0
  5  8  1  0  0  0  0
  6 17  2  0  0  0  0
  6 12  1  0  0  0  0
  8  7  1  1  0  0  0
  8 11  1  0  0  0  0
  9 19  1  0  0  0  0
 11 10  1  1  0  0  0
 12 20  2  0  0  0  0
 12 19  1  0  0  0  0
 13 20  1  0  0  0  0
 14 15  1  0  0  0  0
 18 19  2  0  0  0  0
M  CHG  1  21  -1
M  END
>  <CHROM.1>
31.36732784,63.80525700,-73.03116749,176.48822660,-2.18762641,-30.16387850
2.93706997,-9.97467505,1.87112919,0.35918983,0.28330642

>  <Name>
ligand

>  <RI>
0

>  <Rbt.Current_Directory>
/home/itssahil/PROJECTS/Mol_Feturizer/Test_systems_manuscript/rnas/4xwf

>  <Rbt.Executable>
rbdock ($Id: //depot/dev/client3/rdock/2013.1/src/exe/rbdock.cxx#4 $)

>  <Rbt.Library>
libRbt.so (2013.1, Build901 2013/11/27)

>  <Rbt.Parameter_File>
/export/apps/rDock/src/rDock_2013.1_src/data/scripts/dock_solv.prm

>  <Rbt.Receptor>
prm/pocket_docking_8.prm

>  <SCORE>
-8.18055

>  <SCORE.INTER>
-7.14423

>  <SCORE.INTER.CONST>
1

>  <SCORE.INTER.POLAR>
0

>  <SCORE.INTER.ROT>
5

>  <SCORE.INTER.SOLV>
9.45969

>  <SCORE.INTER.VDW>
-14.8494

>  <SCORE.INTER.norm>
-0.324738

>  <SCORE.INTRA>
-1.03632

>  <SCORE.INTRA.DIHEDRAL>
-1.58398

>  <SCORE.INTRA.DIHEDRAL.0>
3.49807

>  <SCORE.INTRA.POLAR>
0

>  <SCORE.INTRA.POLAR.0>
0

>  <SCORE.INTRA.REPUL>
0

>  <SCORE.INTRA.REPUL.0>
0

>  <SCORE.INTRA.SOLV>
0.0377574

>  <SCORE.INTRA.SOLV.lig_0>
-73.062

>  <SCORE.INTRA.VDW>
-0.263206

>  <SCORE.INTRA.VDW.0>
-1.83782

>  <SCORE.INTRA.norm>
-0.0471053

>  <SCORE.RESTR>
0

>  <SCORE.RESTR.CAVITY>
0

>  <SCORE.RESTR.norm>
0

>  <SCORE.SYSTEM>
0

>  <SCORE.SYSTEM.CONST>
0

>  <SCORE.SYSTEM.DIHEDRAL>
0

>  <SCORE.SYSTEM.SOLV>
0

>  <SCORE.SYSTEM.norm>
0

>  <SCORE.heavy>
22

>  <SCORE.norm>
-0.371843

>  <RMSD>
6.441

$$$$
ligand
 OpenBabel02271912143D
libRbt.so/2013.1/901 2013/11/27
 22 23  0  0  0  0  0  0  0  0999 V2000
  -28.1193    3.1982  -11.8353 N   0  0  0  0  0  0  0  0  0  0  0  0
  -30.3352    0.7321  -11.1566 C   0  0  1  0  0  0  0  0  0  0  0  0
  -29.9576    1.8212  -12.0460 O   0  0  0  0  0  0  0  0  0  0  0  0
  -32.7461    3.1142   -9.4986 P   0  0  1  0  0  0  0  0  0  0  0  0
  -28.5232    1.8999  -12.0689 C   0  0  2  0  0  0  0  0  0  0  0  0
  -27.9803    5.1781  -10.9568 N   0  0  0  0  0  0  0  0  0  0  0  0
  -26.7453    0.6399  -11.0956 O   0  0  0  0  0  0  0  0  0  0  0  0
  -28.0844    1.1082  -10.8978 C   0  0  2  0  0  0  0  0  0  0  0  0
  -26.2372    7.4188  -11.7689 N   0  0  0  0  0  0  0  0  0  0  0  0
  -28.8395   -0.9370  -11.8435 O   0  0  0  0  0  0  0  0  0  0  0  0
  -29.0731    0.0401  -10.8153 C   0  0  2  0  0  0  0  0  0  0  0  0
  -27.0449    5.0776  -11.9136 C   0  0  0  0  0  0  0  0  0  0  0  0
  -26.3012    3.3147  -13.4956 N   0  0  0  0  0  0  0  0  0  0  0  0
  -32.0516    2.0664  -10.4358 O   0  0  0  0  0  0  0  0  0  0  0  0
  -30.9637    1.3468   -9.9537 C   0  0  0  0  0  0  0  0  0  0  0  0
  -31.7896    4.3588   -9.5806 O   0  0  0  0  0  0  0  0  0  0  0  0
  -28.6506    4.0108  -10.9145 C   0  0  0  0  0  0  0  0  0  0  0  0
  -25.1849    5.8987  -13.0984 O   0  0  0  0  0  0  0  0  0  0  0  0
  -26.0926    6.1348  -12.3013 C   0  0  0  0  0  0  0  0  0  0  0  0
  -27.1241    3.8325  -12.4693 C   0  0  0  0  0  0  0  0  0  0  0  0
  -34.1376    3.3694   -9.9745 O   0  5  0  0  0  0  0  0  0  0  0  0
  -32.9917    2.5392   -8.1638 O   0  0  0  0  0  0  0  0  0  0  0  0
  1 17  1  0  0  0  0
  1 20  1  0  0  0  0
  2 15  1  1  0  0  0
  2  3  1  0  0  0  0
  2 11  1  0  0  0  0
  3  5  1  0  0  0  0
  4 16  1  1  0  0  0
  4 21  1  0  0  0  0
  4 22  2  0  0  0  0
  4 14  1  0  0  0  0
  5  1  1  1  0  0  0
  5  8  1  0  0  0  0
  6 17  2  0  0  0  0
  6 12  1  0  0  0  0
  8  7  1  6  0  0  0
  8 11  1  0  0  0  0
  9 19  1  0  0  0  0
 11 10  1  6  0  0  0
 12 20  2  0  0  0  0
 12 19  1  0  0  0  0
 13 20  1  0  0  0  0
 14 15  1  0  0  0  0
 18 19  2  0  0  0  0
M  CHG  1  21  -1
M  END
>  <CHROM.1>
42.43465965,59.10178362,79.23373478,-165.66005220,-8.19079235,-29.33631077
2.96894272,-11.06955762,-0.33509764,-0.43135075,-3.08178175

>  <Name>
ligand

>  <RI>
0

>  <Rbt.Current_Directory>
/home/itssahil/PROJECTS/Mol_Feturizer/Test_systems_manuscript/rnas/4xwf

>  <Rbt.Executable>
rbdock ($Id: //depot/dev/client3/rdock/2013.1/src/exe/rbdock.cxx#4 $)

>  <Rbt.Library>
libRbt.so (2013.1, Build901 2013/11/27)

>  <Rbt.Parameter_File>
/export/apps/rDock/src/rDock_2013.1_src/data/scripts/dock_solv.prm

>  <Rbt.Receptor>
prm/pocket_docking_3.prm

>  <SCORE>
-5.54823

>  <SCORE.INTER>
-4.67591

>  <SCORE.INTER.CONST>
1

>  <SCORE.INTER.POLAR>
0

>  <SCORE.INTER.ROT>
5

>  <SCORE.INTER.SOLV>
15.1816

>  <SCORE.INTER.VDW>
-15.1112

>  <SCORE.INTER.norm>
-0.212541

>  <SCORE.INTRA>
-0.872328

>  <SCORE.INTRA.DIHEDRAL>
-0.491137

>  <SCORE.INTRA.DIHEDRAL.0>
3.49807

>  <SCORE.INTRA.POLAR>
0

>  <SCORE.INTRA.POLAR.0>
0

>  <SCORE.INTRA.REPUL>
0

>  <SCORE.INTRA.REPUL.0>
0

>  <SCORE.INTRA.SOLV>
-0.299357

>  <SCORE.INTRA.SOLV.lig_0>
-73.062

>  <SCORE.INTRA.VDW>
-0.477081

>  <SCORE.INTRA.VDW.0>
-1.83782

>  <SCORE.INTRA.norm>
-0.0396513

>  <SCORE.RESTR>
0

>  <SCORE.RESTR.CAVITY>
0

>  <SCORE.RESTR.norm>
0

>  <SCORE.SYSTEM>
0

>  <SCORE.SYSTEM.CONST>
0

>  <SCORE.SYSTEM.DIHEDRAL>
0

>  <SCORE.SYSTEM.SOLV>
0

>  <SCORE.SYSTEM.norm>
0

>  <SCORE.heavy>
22

>  <SCORE.norm>
-0.252192

>  <RMSD>
6.442

$$$$
ligand
 OpenBabel02271912143D
libRbt.so/2013.1/901 2013/11/27
 22 23  0  0  0  0  0  0  0  0999 V2000
  -30.5541    4.0971   -9.1710 N   0  0  0  0  0  0  0  0  0  0  0  0
  -31.1377    0.8316   -9.8409 C   0  0  1  0  0  0  0  0  0  0  0  0
  -30.4720    1.7999   -8.9811 O   0  0  0  0  0  0  0  0  0  0  0  0
  -27.9851    0.0141  -11.7766 P   0  0  1  0  0  0  0  0  0  0  0  0
  -31.3025    2.9697   -8.9023 C   0  0  2  0  0  0  0  0  0  0  0  0
  -29.0710    5.4145  -10.0518 N   0  0  0  0  0  0  0  0  0  0  0  0
  -33.4484    3.5798   -9.7501 O   0  0  0  0  0  0  0  0  0  0  0  0
  -32.2604    2.8270  -10.0216 C   0  0  2  0  0  0  0  0  0  0  0  0
  -29.1703    7.9619   -7.6479 N   0  0  0  0  0  0  0  0  0  0  0  0
  -33.3324    0.9541   -9.0265 O   0  0  0  0  0  0  0  0  0  0  0  0
  -32.4831    1.3886  -10.1018 C   0  0  2  0  0  0  0  0  0  0  0  0
  -29.8134    6.1327   -9.1953 C   0  0  0  0  0  0  0  0  0  0  0  0
  -31.7452    5.6791   -7.7033 N   0  0  0  0  0  0  0  0  0  0  0  0
  -29.0789    0.2944  -10.6886 O   0  0  0  0  0  0  0  0  0  0  0  0
  -30.3353    0.7327  -11.0924 C   0  0  0  0  0  0  0  0  0  0  0  0
  -28.4370   -1.3586  -12.3946 O   0  0  0  0  0  0  0  0  0  0  0  0
  -29.5296    4.1485  -10.0302 C   0  0  0  0  0  0  0  0  0  0  0  0
  -29.9285    8.4175   -9.7463 O   0  0  0  0  0  0  0  0  0  0  0  0
  -29.6435    7.5680   -8.9024 C   0  0  0  0  0  0  0  0  0  0  0  0
  -30.7515    5.3106   -8.6389 C   0  0  0  0  0  0  0  0  0  0  0  0
  -27.9409    1.1467  -12.7479 O   0  5  0  0  0  0  0  0  0  0  0  0
  -26.6350    0.0772  -11.1885 O   0  0  0  0  0  0  0  0  0  0  0  0
  1 17  1  0  0  0  0
  1 20  1  0  0  0  0
  2 15  1  6  0  0  0
  2  3  1  0  0  0  0
  2 11  1  0  0  0  0
  3  5  1  0  0  0  0
  4 16  1  6  0  0  0
  4 21  1  0  0  0  0
  4 22  2  0  0  0  0
  4 14  1  0  0  0  0
  5  1  1  6  0  0  0
  5  8  1  0  0  0  0
  6 17  2  0  0  0  0
  6 12  1  0  0  0  0
  8  7  1  1  0  0  0
  8 11  1  0  0  0  0
  9 19  1  0  0  0  0
 11 10  1  1  0  0  0
 12 20  2  0  0  0  0
 12 19  1  0  0  0  0
 13 20  1  0  0  0  0
 14 15  1  0  0  0  0
 18 19  2  0  0  0  0
M  CHG  1  21  -1
M  END
>  <CHROM.1>
33.70530454,60.61426923,-75.75961340,177.16850647,-110.66470657,-30.08693435
2.90486453,-10.03989901,1.82644932,0.36142259,0.29905180

>  <Name>
ligand

>  <RI>
0

>  <Rbt.Current_Directory>
/home/itssahil/PROJECTS/Mol_Feturizer/Test_systems_manuscript/rnas/4xwf

>  <Rbt.Executable>
rbdock ($Id: //depot/dev/client3/rdock/2013.1/src/exe/rbdock.cxx#4 $)

>  <Rbt.Library>
libRbt.so (2013.1, Build901 2013/11/27)

>  <Rbt.Parameter_File>
/export/apps/rDock/src/rDock_2013.1_src/data/scripts/dock_solv.prm

>  <Rbt.Receptor>
prm/pocket_docking_5.prm

>  <SCORE>
-8.45843

>  <SCORE.INTER>
-7.34987

>  <SCORE.INTER.CONST>
1

>  <SCORE.INTER.POLAR>
0

>  <SCORE.INTER.ROT>
5

>  <SCORE.INTER.SOLV>
9.60318

>  <SCORE.INTER.VDW>
-15.0343

>  <SCORE.INTER.norm>
-0.334085

>  <SCORE.INTRA>
-1.10856

>  <SCORE.INTRA.DIHEDRAL>
-1.43353

>  <SCORE.INTRA.DIHEDRAL.0>
3.49807

>  <SCORE.INTRA.POLAR>
0

>  <SCORE.INTRA.POLAR.0>
0

>  <SCORE.INTRA.REPUL>
0

>  <SCORE.INTRA.REPUL.0>
0

>  <SCORE.INTRA.SOLV>
0.0109531

>  <SCORE.INTRA.SOLV.lig_0>
-73.062

>  <SCORE.INTRA.VDW>
-0.397276

>  <SCORE.INTRA.VDW.0>
-1.83782

>  <SCORE.INTRA.norm>
-0.0503892

>  <SCORE.RESTR>
0

>  <SCORE.RESTR.CAVITY>
0

>  <SCORE.RESTR.norm>
0

>  <SCORE.SYSTEM>
0

>  <SCORE.SYSTEM.CONST>
0

>  <SCORE.SYSTEM.DIHEDRAL>
0

>  <SCORE.SYSTEM.SOLV>
0

>  <SCORE.SYSTEM.norm>
0

>  <SCORE.heavy>
22

>  <SCORE.norm>
-0.384474

>  <RMSD>
6.442

$$$$
ligand
 OpenBabel02271912143D
libRbt.so/2013.1/901 2013/11/27
 22 23  0  0  0  0  0  0  0  0999 V2000
  -30.5571    4.0558   -9.2047 N   0  0  0  0  0  0  0  0  0  0  0  0
  -31.1691    0.8647  -10.1506 C   0  0  1  0  0  0  0  0  0  0  0  0
  -30.4607    1.7516   -9.2388 O   0  0  0  0  0  0  0  0  0  0  0  0
  -28.1807    0.1137  -12.3562 P   0  0  1  0  0  0  0  0  0  0  0  0
  -31.2881    2.9029   -9.0056 C   0  0  2  0  0  0  0  0  0  0  0  0
  -29.0827    5.4416   -9.9903 N   0  0  0  0  0  0  0  0  0  0  0  0
  -33.4769    3.5757   -9.6778 O   0  0  0  0  0  0  0  0  0  0  0  0
  -32.3035    2.8603  -10.0816 C   0  0  2  0  0  0  0  0  0  0  0  0
  -29.3497    7.8712   -7.4519 N   0  0  0  0  0  0  0  0  0  0  0  0
  -33.3178    0.8941   -9.2143 O   0  0  0  0  0  0  0  0  0  0  0  0
  -32.5274    1.4345  -10.2865 C   0  0  2  0  0  0  0  0  0  0  0  0
  -29.8573    6.1041   -9.1175 C   0  0  0  0  0  0  0  0  0  0  0  0
  -31.8103    5.5436   -7.6910 N   0  0  0  0  0  0  0  0  0  0  0  0
  -29.2184    0.2650  -11.1905 O   0  0  0  0  0  0  0  0  0  0  0  0
  -30.4338    0.8905  -11.4462 C   0  0  0  0  0  0  0  0  0  0  0  0
  -28.2036   -1.4283  -12.6595 O   0  0  0  0  0  0  0  0  0  0  0  0
  -29.5160    4.1674  -10.0380 C   0  0  0  0  0  0  0  0  0  0  0  0
  -29.9496    8.4091   -9.5818 O   0  0  0  0  0  0  0  0  0  0  0  0
  -29.7225    7.5269   -8.7540 C   0  0  0  0  0  0  0  0  0  0  0  0
  -30.7900    5.2388   -8.6209 C   0  0  0  0  0  0  0  0  0  0  0  0
  -28.5855    0.9774  -13.5043 O   0  5  0  0  0  0  0  0  0  0  0  0
  -26.8848    0.7084  -11.9824 O   0  0  0  0  0  0  0  0  0  0  0  0
  1 17  1  0  0  0  0
  1 20  1  0  0  0  0
  2 15  1  6  0  0  0
  2  3  1  0  0  0  0
  2 11  1  0  0  0  0
  3  5  1  0  0  0  0
  4 16  1  6  0  0  0
  4 21  1  0  0  0  0
  4 22  2  0  0  0  0
  4 14  1  0  0  0  0
  5  1  1  6  0  0  0
  5  8  1  0  0  0  0
  6 17  2  0  0  0  0
  6 12  1  0  0  0  0
  8  7  1  1  0  0  0
  8 11  1  0  0  0  0
  9 19  1  0  0  0  0
 11 10  1  1  0  0  0
 12 20  2  0  0  0  0
 12 19  1  0  0  0  0
 13 20  1  0  0  0  0
 14 15  1  0  0  0  0
 18 19  2  0  0  0  0
M  CHG  1  21  -1
M  END
>  <CHROM.1>
28.56474970,68.10538648,-109.36761143,179.89149540,-113.91707625,-30.17016151
2.91981565,-10.23965290,1.81656792,0.42697678,0.37977013

>  <Name>
ligand

>  <RI>
0

>  <Rbt.Current_Directory>
/home/itssahil/PROJECTS/Mol_Feturizer/Test_systems_manuscript/rnas/4xwf

>  <Rbt.Executable>
rbdock ($Id: //depot/dev/client3/rdock/2013.1/src/exe/rbdock.cxx#4 $)

>  <Rbt.Library>
libRbt.so (2013.1, Build901 2013/11/27)

>  <Rbt.Parameter_File>
/export/apps/rDock/src/rDock_2013.1_src/data/scripts/dock_solv.prm

>  <Rbt.Receptor>
prm/pocket_docking_6.prm

>  <SCORE>
-7.86803

>  <SCORE.INTER>
-8.30891

>  <SCORE.INTER.CONST>
1

>  <SCORE.INTER.POLAR>
0

>  <SCORE.INTER.ROT>
5

>  <SCORE.INTER.SOLV>
11.8408

>  <SCORE.INTER.VDW>
-16.4196

>  <SCORE.INTER.norm>
-0.377678

>  <SCORE.INTRA>
0.44088

>  <SCORE.INTRA.DIHEDRAL>
0.48698

>  <SCORE.INTRA.DIHEDRAL.0>
3.49807

>  <SCORE.INTRA.POLAR>
0

>  <SCORE.INTRA.POLAR.0>
0

>  <SCORE.INTRA.REPUL>
0

>  <SCORE.INTRA.REPUL.0>
0

>  <SCORE.INTRA.SOLV>
0.457396

>  <SCORE.INTRA.SOLV.lig_0>
-73.062

>  <SCORE.INTRA.VDW>
-0.0313085

>  <SCORE.INTRA.VDW.0>
-1.83782

>  <SCORE.INTRA.norm>
0.02004

>  <SCORE.RESTR>
0

>  <SCORE.RESTR.CAVITY>
0

>  <SCORE.RESTR.norm>
0

>  <SCORE.SYSTEM>
0

>  <SCORE.SYSTEM.CONST>
0

>  <SCORE.SYSTEM.DIHEDRAL>
0

>  <SCORE.SYSTEM.SOLV>
0

>  <SCORE.SYSTEM.norm>
0

>  <SCORE.heavy>
22

>  <SCORE.norm>
-0.357638

>  <RMSD>
6.465

$$$$
ligand
 OpenBabel02271912143D
libRbt.so/2013.1/901 2013/11/27
 22 23  0  0  0  0  0  0  0  0999 V2000
  -31.7731    4.9043   -8.5653 N   0  0  0  0  0  0  0  0  0  0  0  0
  -31.0145    1.7325   -9.4691 C   0  0  1  0  0  0  0  0  0  0  0  0
  -30.9021    2.7715   -8.4553 O   0  0  0  0  0  0  0  0  0  0  0  0
  -28.7872    0.8245  -12.3968 P   0  0  1  0  0  0  0  0  0  0  0  0
  -32.0988    3.5655   -8.4974 C   0  0  2  0  0  0  0  0  0  0  0  0
  -31.9674    7.0661   -8.5776 N   0  0  0  0  0  0  0  0  0  0  0  0
  -34.1393    3.4835   -9.7324 O   0  0  0  0  0  0  0  0  0  0  0  0
  -32.7321    3.2229   -9.7906 C   0  0  2  0  0  0  0  0  0  0  0  0
  -28.6156    7.5978   -9.7945 N   0  0  0  0  0  0  0  0  0  0  0  0
  -33.2108    0.9981   -9.1063 O   0  0  0  0  0  0  0  0  0  0  0  0
  -32.4035    1.8142   -9.9715 C   0  0  2  0  0  0  0  0  0  0  0  0
  -30.6639    6.7620   -8.6718 C   0  0  0  0  0  0  0  0  0  0  0  0
  -29.3240    4.6725   -8.7196 N   0  0  0  0  0  0  0  0  0  0  0  0
  -29.8199    0.8594  -11.2174 O   0  0  0  0  0  0  0  0  0  0  0  0
  -30.0273    2.0546  -10.5376 C   0  0  0  0  0  0  0  0  0  0  0  0
  -28.5619   -0.7133  -12.6313 O   0  0  0  0  0  0  0  0  0  0  0  0
  -32.6549    5.9097   -8.5178 C   0  0  0  0  0  0  0  0  0  0  0  0
  -29.4523    8.6477   -7.9551 O   0  0  0  0  0  0  0  0  0  0  0  0
  -29.5582    7.7328   -8.7716 C   0  0  0  0  0  0  0  0  0  0  0  0
  -30.5333    5.4026   -8.6616 C   0  0  0  0  0  0  0  0  0  0  0  0
  -29.3431    1.5560  -13.5731 O   0  5  0  0  0  0  0  0  0  0  0  0
  -27.6010    1.6388  -12.0767 O   0  0  0  0  0  0  0  0  0  0  0  0
  1 17  1  0  0  0  0
  1 20  1  0  0  0  0
  2 15  1  6  0  0  0
  2  3  1  0  0  0  0
  2 11  1  0  0  0  0
  3  5  1  0  0  0  0
  4 16  1  6  0  0  0
  4 21  1  0  0  0  0
  4 22  2  0  0  0  0
  4 14  1  0  0  0  0
  5  1  1  6  0  0  0
  5  8  1  0  0  0  0
  6 17  2  0  0  0  0
  6 12  1  0  0  0  0
  8  7  1  1  0  0  0
  8 11  1  0  0  0  0
  9 19  1  0  0  0  0
 11 10  1  1  0  0  0
 12 20  2  0  0  0  0
 12 19  1  0  0  0  0
 13 20  1  0  0  0  0
 14 15  1  0  0  0  0
 18 19  2  0  0  0  0
M  CHG  1  21  -1
M  END
>  <CHROM.1>
-174.77850678,159.69717572,165.55173212,-178.11069608,-128.63970390,-30.55656786
3.48257385,-10.00836309,1.79969780,0.45261512,0.42017457

>  <Name>
ligand

>  <RI>
0

>  <Rbt.Current_Directory>
/home/itssahil/PROJECTS/Mol_Feturizer/Test_systems_manuscript/rnas/4xwf

>  <Rbt.Executable>
rbdock ($Id: //depot/dev/client3/rdock/2013.1/src/exe/rbdock.cxx#4 $)

>  <Rbt.Library>
libRbt.so (2013.1, Build901 2013/11/27)

>  <Rbt.Parameter_File>
/export/apps/rDock/src/rDock_2013.1_src/data/scripts/dock_solv.prm

>  <Rbt.Receptor>
prm/pocket_docking_5.prm

>  <SCORE>
-5.29633

>  <SCORE.INTER>
-7.45372

>  <SCORE.INTER.CONST>
1

>  <SCORE.INTER.POLAR>
0

>  <SCORE.INTER.ROT>
5

>  <SCORE.INTER.SOLV>
12.2979

>  <SCORE.INTER.VDW>
-16.0018

>  <SCORE.INTER.norm>
-0.338805

>  <SCORE.INTRA>
2.15739

>  <SCORE.INTRA.DIHEDRAL>
-0.199318

>  <SCORE.INTRA.DIHEDRAL.0>
3.49807

>  <SCORE.INTRA.POLAR>
0

>  <SCORE.INTRA.POLAR.0>
0

>  <SCORE.INTRA.REPUL>
0

>  <SCORE.INTRA.REPUL.0>
0

>  <SCORE.INTRA.SOLV>
3.50746

>  <SCORE.INTRA.SOLV.lig_0>
-73.062

>  <SCORE.INTRA.VDW>
0.503317

>  <SCORE.INTRA.VDW.0>
-1.83782

>  <SCORE.INTRA.norm>
0.0980632

>  <SCORE.RESTR>
0

>  <SCORE.RESTR.CAVITY>
0

>  <SCORE.RESTR.norm>
0

>  <SCORE.SYSTEM>
0

>  <SCORE.SYSTEM.CONST>
0

>  <SCORE.SYSTEM.DIHEDRAL>
0

>  <SCORE.SYSTEM.SOLV>
0

>  <SCORE.SYSTEM.norm>
0

>  <SCORE.heavy>
22

>  <SCORE.norm>
-0.240742

>  <RMSD>
6.486

$$$$
ligand
 OpenBabel02271912143D
libRbt.so/2013.1/901 2013/11/27
 22 23  0  0  0  0  0  0  0  0999 V2000
  -31.7679    4.7745   -8.6619 N   0  0  0  0  0  0  0  0  0  0  0  0
  -31.0685    1.6319   -9.7049 C   0  0  1  0  0  0  0  0  0  0  0  0
  -30.9203    2.6294   -8.6547 O   0  0  0  0  0  0  0  0  0  0  0  0
  -28.9236    0.8155  -12.7201 P   0  0  1  0  0  0  0  0  0  0  0  0
  -32.1080    3.4377   -8.6380 C   0  0  2  0  0  0  0  0  0  0  0  0
  -31.9404    6.9376   -8.6152 N   0  0  0  0  0  0  0  0  0  0  0  0
  -34.1773    3.4265   -9.8271 O   0  0  0  0  0  0  0  0  0  0  0  0
  -32.7749    3.1527   -9.9283 C   0  0  2  0  0  0  0  0  0  0  0  0
  -28.6597    7.5762   -9.8491 N   0  0  0  0  0  0  0  0  0  0  0  0
  -33.2645    0.9085   -9.3193 O   0  0  0  0  0  0  0  0  0  0  0  0
  -32.4676    1.7485  -10.1711 C   0  0  2  0  0  0  0  0  0  0  0  0
  -30.6385    6.6228   -8.6960 C   0  0  0  0  0  0  0  0  0  0  0  0
  -29.3189    4.5216   -8.7813 N   0  0  0  0  0  0  0  0  0  0  0  0
  -29.9090    0.8088  -11.5005 O   0  0  0  0  0  0  0  0  0  0  0  0
  -30.1024    1.9843  -10.7831 C   0  0  0  0  0  0  0  0  0  0  0  0
  -29.7929    1.4221  -13.8807 O   0  0  0  0  0  0  0  0  0  0  0  0
  -32.6403    5.7872   -8.6004 C   0  0  0  0  0  0  0  0  0  0  0  0
  -29.3359    8.3801   -7.8287 O   0  0  0  0  0  0  0  0  0  0  0  0
  -29.5217    7.5843   -8.7492 C   0  0  0  0  0  0  0  0  0  0  0  0
  -30.5217    5.2623   -8.7228 C   0  0  0  0  0  0  0  0  0  0  0  0
  -27.7061    1.6085  -12.3780 O   0  5  0  0  0  0  0  0  0  0  0  0
  -28.3510   -0.5254  -12.9365 O   0  0  0  0  0  0  0  0  0  0  0  0
  1 17  1  0  0  0  0
  1 20  1  0  0  0  0
  2 15  1  6  0  0  0
  2  3  1  0  0  0  0
  2 11  1  0  0  0  0
  3  5  1  0  0  0  0
  4 16  1  6  0  0  0
  4 21  1  0  0  0  0
  4 22  2  0  0  0  0
  4 14  1  0  0  0  0
  5  1  1  6  0  0  0
  5  8  1  0  0  0  0
  6 17  2  0  0  0  0
  6 12  1  0  0  0  0
  8  7  1  1  0  0  0
  8 11  1  0  0  0  0
  9 19  1  0  0  0  0
 11 10  1  1  0  0  0
 12 20  2  0  0  0  0
 12 19  1  0  0  0  0
 13 20  1  0  0  0  0
 14 15  1  0  0  0  0
 18 19  2  0  0  0  0
M  CHG  1  21  -1
M  END
>  <CHROM.1>
-177.16098868,158.79121871,-81.01262731,-179.44665777,-120.62757195,-30.59712667
3.39755630,-10.17015545,1.77814735,0.44902903,0.47775577

>  <Name>
ligand

>  <RI>
0

>  <Rbt.Current_Directory>
/home/itssahil/PROJECTS/Mol_Feturizer/Test_systems_manuscript/rnas/4xwf

>  <Rbt.Executable>
rbdock ($Id: //depot/dev/client3/rdock/2013.1/src/exe/rbdock.cxx#4 $)

>  <Rbt.Library>
libRbt.so (2013.1, Build901 2013/11/27)

>  <Rbt.Parameter_File>
/export/apps/rDock/src/rDock_2013.1_src/data/scripts/dock_solv.prm

>  <Rbt.Receptor>
prm/pocket_docking_8.prm

>  <SCORE>
-5.7413

>  <SCORE.INTER>
-7.80377

>  <SCORE.INTER.CONST>
1

>  <SCORE.INTER.POLAR>
0

>  <SCORE.INTER.ROT>
5

>  <SCORE.INTER.SOLV>
14.6205

>  <SCORE.INTER.VDW>
-17.0093

>  <SCORE.INTER.norm>
-0.354717

>  <SCORE.INTRA>
2.06247

>  <SCORE.INTRA.DIHEDRAL>
0.150328

>  <SCORE.INTRA.DIHEDRAL.0>
3.49807

>  <SCORE.INTRA.POLAR>
0

>  <SCORE.INTRA.POLAR.0>
0

>  <SCORE.INTRA.REPUL>
0

>  <SCORE.INTRA.REPUL.0>
0

>  <SCORE.INTRA.SOLV>
2.87167

>  <SCORE.INTRA.SOLV.lig_0>
-73.062

>  <SCORE.INTRA.VDW>
0.551466

>  <SCORE.INTRA.VDW.0>
-1.83782

>  <SCORE.INTRA.norm>
0.0937484

>  <SCORE.RESTR>
0

>  <SCORE.RESTR.CAVITY>
0

>  <SCORE.RESTR.norm>
0

>  <SCORE.SYSTEM>
0

>  <SCORE.SYSTEM.CONST>
0

>  <SCORE.SYSTEM.DIHEDRAL>
0

>  <SCORE.SYSTEM.SOLV>
0

>  <SCORE.SYSTEM.norm>
0

>  <SCORE.heavy>
22

>  <SCORE.norm>
-0.260968

>  <RMSD>
6.486

$$$$
ligand
 OpenBabel02271912143D
libRbt.so/2013.1/901 2013/11/27
 22 23  0  0  0  0  0  0  0  0999 V2000
  -28.6874    3.5407  -10.9241 N   0  0  0  0  0  0  0  0  0  0  0  0
  -30.8223    0.9222  -10.7293 C   0  0  1  0  0  0  0  0  0  0  0  0
  -30.4285    2.1231  -11.4521 O   0  0  0  0  0  0  0  0  0  0  0  0
  -33.2884    3.1774   -8.9757 P   0  0  1  0  0  0  0  0  0  0  0  0
  -29.0031    2.2633  -11.3386 C   0  0  2  0  0  0  0  0  0  0  0  0
  -28.7627    5.4308   -9.8598 N   0  0  0  0  0  0  0  0  0  0  0  0
  -27.2500    0.9724  -10.3608 O   0  0  0  0  0  0  0  0  0  0  0  0
  -28.6233    1.3583  -10.2307 C   0  0  2  0  0  0  0  0  0  0  0  0
  -26.9141    7.7199  -10.0477 N   0  0  0  0  0  0  0  0  0  0  0  0
  -29.1907   -0.5910  -11.4658 O   0  0  0  0  0  0  0  0  0  0  0  0
  -29.5591    0.2478  -10.3581 C   0  0  2  0  0  0  0  0  0  0  0  0
  -27.6786    5.4382  -10.6505 C   0  0  0  0  0  0  0  0  0  0  0  0
  -26.6239    3.8465  -12.2372 N   0  0  0  0  0  0  0  0  0  0  0  0
  -32.5296    2.2629   -9.9986 O   0  0  0  0  0  0  0  0  0  0  0  0
  -31.5796    1.3647   -9.5248 C   0  0  0  0  0  0  0  0  0  0  0  0
  -34.4223    3.8281   -9.8483 O   0  0  0  0  0  0  0  0  0  0  0  0
  -29.3911    4.2529  -10.0364 C   0  0  0  0  0  0  0  0  0  0  0  0
  -25.7392    6.4449  -11.5239 O   0  0  0  0  0  0  0  0  0  0  0  0
  -26.7112    6.5442  -10.7753 C   0  0  0  0  0  0  0  0  0  0  0  0
  -27.6227    4.2500  -11.3217 C   0  0  0  0  0  0  0  0  0  0  0  0
  -33.7814    2.3523   -7.8337 O   0  5  0  0  0  0  0  0  0  0  0  0
  -32.3518    4.0910   -8.2968 O   0  0  0  0  0  0  0  0  0  0  0  0
  1 17  1  0  0  0  0
  1 20  1  0  0  0  0
  2 15  1  1  0  0  0
  2  3  1  0  0  0  0
  2 11  1  0  0  0  0
  3  5  1  0  0  0  0
  4 16  1  6  0  0  0
  4 21  1  0  0  0  0
  4 22  2  0  0  0  0
  4 14  1  0  0  0  0
  5  1  1  1  0  0  0
  5  8  1  0  0  0  0
  6 17  2  0  0  0  0
  6 12  1  0  0  0  0
  8  7  1  6  0  0  0
  8 11  1  0  0  0  0
  9 19  1  0  0  0  0
 11 10  1  6  0  0  0
 12 20  2  0  0  0  0
 12 19  1  0  0  0  0
 13 20  1  0  0  0  0
 14 15  1  0  0  0  0
 18 19  2  0  0  0  0
M  CHG  1  21  -1
M  END
>  <CHROM.1>
37.42322813,49.83760169,-170.05658522,-166.05809705,-1.46632330,-29.87753180
3.21254236,-10.25855102,-0.37561394,-0.35691789,-2.96400197

>  <Name>
ligand

>  <RI>
0

>  <Rbt.Current_Directory>
/home/itssahil/PROJECTS/Mol_Feturizer/Test_systems_manuscript/rnas/4xwf

>  <Rbt.Executable>
rbdock ($Id: //depot/dev/client3/rdock/2013.1/src/exe/rbdock.cxx#4 $)

>  <Rbt.Library>
libRbt.so (2013.1, Build901 2013/11/27)

>  <Rbt.Parameter_File>
/export/apps/rDock/src/rDock_2013.1_src/data/scripts/dock_solv.prm

>  <Rbt.Receptor>
prm/pocket_docking_3.prm

>  <SCORE>
-6.80193

>  <SCORE.INTER>
-6.54155

>  <SCORE.INTER.CONST>
1

>  <SCORE.INTER.POLAR>
0

>  <SCORE.INTER.ROT>
5

>  <SCORE.INTER.SOLV>
10.7119

>  <SCORE.INTER.VDW>
-14.865

>  <SCORE.INTER.norm>
-0.297343

>  <SCORE.INTRA>
-0.261543

>  <SCORE.INTRA.DIHEDRAL>
-0.637074

>  <SCORE.INTRA.DIHEDRAL.0>
3.49807

>  <SCORE.INTRA.POLAR>
0

>  <SCORE.INTRA.POLAR.0>
0

>  <SCORE.INTRA.REPUL>
0

>  <SCORE.INTRA.REPUL.0>
0

>  <SCORE.INTRA.SOLV>
0.870656

>  <SCORE.INTRA.SOLV.lig_0>
-73.062

>  <SCORE.INTRA.VDW>
-0.378334

>  <SCORE.INTRA.VDW.0>
-1.83782

>  <SCORE.INTRA.norm>
-0.0118883

>  <SCORE.RESTR>
0.00116395

>  <SCORE.RESTR.CAVITY>
0.00116395

>  <SCORE.RESTR.norm>
5.29066e-05

>  <SCORE.SYSTEM>
0

>  <SCORE.SYSTEM.CONST>
0

>  <SCORE.SYSTEM.DIHEDRAL>
0

>  <SCORE.SYSTEM.SOLV>
0

>  <SCORE.SYSTEM.norm>
0

>  <SCORE.heavy>
22

>  <SCORE.norm>
-0.309179

>  <RMSD>
6.488

$$$$
ligand
 OpenBabel02271912143D
libRbt.so/2013.1/901 2013/11/27
 22 23  0  0  0  0  0  0  0  0999 V2000
  -32.2491    5.1699   -8.3503 N   0  0  0  0  0  0  0  0  0  0  0  0
  -31.0237    2.1943   -9.3976 C   0  0  1  0  0  0  0  0  0  0  0  0
  -31.0768    3.1836   -8.3308 O   0  0  0  0  0  0  0  0  0  0  0  0
  -28.8874    1.7876  -12.4848 P   0  0  1  0  0  0  0  0  0  0  0  0
  -32.3762    3.7962   -8.3564 C   0  0  2  0  0  0  0  0  0  0  0  0
  -31.4512    7.1590   -8.6934 N   0  0  0  0  0  0  0  0  0  0  0  0
  -34.3676    3.4835   -9.6341 O   0  0  0  0  0  0  0  0  0  0  0  0
  -32.9367    3.4338   -9.6775 C   0  0  2  0  0  0  0  0  0  0  0  0
  -32.5992    9.7566   -7.8938 N   0  0  0  0  0  0  0  0  0  0  0  0
  -33.0931    1.1301   -9.1158 O   0  0  0  0  0  0  0  0  0  0  0  0
  -32.4034    2.0995   -9.9227 C   0  0  2  0  0  0  0  0  0  0  0  0
  -32.6435    7.2841   -8.0906 C   0  0  0  0  0  0  0  0  0  0  0  0
  -34.4001    5.7266   -7.2832 N   0  0  0  0  0  0  0  0  0  0  0  0
  -30.0162    1.7181  -11.3987 O   0  0  0  0  0  0  0  0  0  0  0  0
  -30.0812    2.7125  -10.4288 C   0  0  0  0  0  0  0  0  0  0  0  0
  -29.5102    1.0094  -13.7002 O   0  0  0  0  0  0  0  0  0  0  0  0
  -31.2058    5.8440   -8.8481 C   0  0  0  0  0  0  0  0  0  0  0  0
  -34.4307    8.5650   -7.2525 O   0  0  0  0  0  0  0  0  0  0  0  0
  -33.2929    8.5557   -7.7220 C   0  0  0  0  0  0  0  0  0  0  0  0
  -33.1536    6.0358   -7.8741 C   0  0  0  0  0  0  0  0  0  0  0  0
  -28.5506    3.2137  -12.7688 O   0  5  0  0  0  0  0  0  0  0  0  0
  -27.6113    1.2851  -11.9448 O   0  0  0  0  0  0  0  0  0  0  0  0
  1 17  1  0  0  0  0
  1 20  1  0  0  0  0
  2 15  1  6  0  0  0
  2  3  1  0  0  0  0
  2 11  1  0  0  0  0
  3  5  1  0  0  0  0
  4 16  1  6  0  0  0
  4 21  1  0  0  0  0
  4 22  2  0  0  0  0
  4 14  1  0  0  0  0
  5  1  1  6  0  0  0
  5  8  1  0  0  0  0
  6 17  2  0  0  0  0
  6 12  1  0  0  0  0
  8  7  1  1  0  0  0
  8 11  1  0  0  0  0
  9 19  1  0  0  0  0
 11 10  1  1  0  0  0
 12 20  2  0  0  0  0
 12 19  1  0  0  0  0
 13 20  1  0  0  0  0
 14 15  1  0  0  0  0
 18 19  2  0  0  0  0
M  CHG  1  21  -1
M  END
>  <CHROM.1>
28.34011700,177.59808899,-153.82315608,-167.10512077,-5.74620217,-31.49628206
4.08132714,-9.74551973,2.21106029,0.60421314,0.24378446

>  <Name>
ligand

>  <RI>
0

>  <Rbt.Current_Directory>
/home/itssahil/PROJECTS/Mol_Feturizer/Test_systems_manuscript/rnas/4xwf

>  <Rbt.Executable>
rbdock ($Id: //depot/dev/client3/rdock/2013.1/src/exe/rbdock.cxx#4 $)

>  <Rbt.Library>
libRbt.so (2013.1, Build901 2013/11/27)

>  <Rbt.Parameter_File>
/export/apps/rDock/src/rDock_2013.1_src/data/scripts/dock_solv.prm

>  <Rbt.Receptor>
prm/pocket_docking_7.prm

>  <SCORE>
-8.39775

>  <SCORE.INTER>
-8.78984

>  <SCORE.INTER.CONST>
1

>  <SCORE.INTER.POLAR>
0

>  <SCORE.INTER.ROT>
5

>  <SCORE.INTER.SOLV>
12.1086

>  <SCORE.INTER.VDW>
-16.8294

>  <SCORE.INTER.norm>
-0.399538

>  <SCORE.INTRA>
0.39209

>  <SCORE.INTRA.DIHEDRAL>
-0.312894

>  <SCORE.INTRA.DIHEDRAL.0>
3.49807

>  <SCORE.INTRA.POLAR>
0

>  <SCORE.INTRA.POLAR.0>
0

>  <SCORE.INTRA.REPUL>
0

>  <SCORE.INTRA.REPUL.0>
0

>  <SCORE.INTRA.SOLV>
0.746915

>  <SCORE.INTRA.SOLV.lig_0>
-73.062

>  <SCORE.INTRA.VDW>
0.175079

>  <SCORE.INTRA.VDW.0>
-1.83782

>  <SCORE.INTRA.norm>
0.0178223

>  <SCORE.RESTR>
0

>  <SCORE.RESTR.CAVITY>
0

>  <SCORE.RESTR.norm>
0

>  <SCORE.SYSTEM>
0

>  <SCORE.SYSTEM.CONST>
0

>  <SCORE.SYSTEM.DIHEDRAL>
0

>  <SCORE.SYSTEM.SOLV>
0

>  <SCORE.SYSTEM.norm>
0

>  <SCORE.heavy>
22

>  <SCORE.norm>
-0.381716

>  <RMSD>
6.490

$$$$
ligand
 OpenBabel02271912143D
libRbt.so/2013.1/901 2013/11/27
 22 23  0  0  0  0  0  0  0  0999 V2000
  -28.6912    3.5171  -10.9572 N   0  0  0  0  0  0  0  0  0  0  0  0
  -30.8332    0.9063  -10.7379 C   0  0  1  0  0  0  0  0  0  0  0  0
  -30.4390    2.1019  -11.4693 O   0  0  0  0  0  0  0  0  0  0  0  0
  -33.2884    3.1732   -8.9794 P   0  0  1  0  0  0  0  0  0  0  0  0
  -29.0127    2.2384  -11.3631 C   0  0  2  0  0  0  0  0  0  0  0  0
  -28.7611    5.4166   -9.9093 N   0  0  0  0  0  0  0  0  0  0  0  0
  -27.2591    0.9476  -10.3861 O   0  0  0  0  0  0  0  0  0  0  0  0
  -28.6306    1.3384  -10.2519 C   0  0  2  0  0  0  0  0  0  0  0  0
  -26.8906    7.6879  -10.0962 N   0  0  0  0  0  0  0  0  0  0  0  0
  -29.2096   -0.6160  -11.4734 O   0  0  0  0  0  0  0  0  0  0  0  0
  -29.5703    0.2301  -10.3687 C   0  0  2  0  0  0  0  0  0  0  0  0
  -27.6715    5.4100  -10.6926 C   0  0  0  0  0  0  0  0  0  0  0  0
  -26.6168    3.7980  -12.2586 N   0  0  0  0  0  0  0  0  0  0  0  0
  -32.5241    2.2665  -10.0053 O   0  0  0  0  0  0  0  0  0  0  0  0
  -31.5836    1.3578   -9.5325 C   0  0  0  0  0  0  0  0  0  0  0  0
  -34.4185    3.8294   -9.8527 O   0  0  0  0  0  0  0  0  0  0  0  0
  -29.3962    4.2415  -10.0803 C   0  0  0  0  0  0  0  0  0  0  0  0
  -25.7242    6.3997  -11.5677 O   0  0  0  0  0  0  0  0  0  0  0  0
  -26.6960    6.5085  -10.8201 C   0  0  0  0  0  0  0  0  0  0  0  0
  -27.6191    4.2159  -11.3534 C   0  0  0  0  0  0  0  0  0  0  0  0
  -33.7863    2.3395   -7.8458 O   0  5  0  0  0  0  0  0  0  0  0  0
  -32.3556    4.0823   -8.2895 O   0  0  0  0  0  0  0  0  0  0  0  0
  1 17  1  0  0  0  0
  1 20  1  0  0  0  0
  2 15  1  1  0  0  0
  2  3  1  0  0  0  0
  2 11  1  0  0  0  0
  3  5  1  0  0  0  0
  4 16  1  6  0  0  0
  4 21  1  0  0  0  0
  4 22  2  0  0  0  0
  4 14  1  0  0  0  0
  5  1  1  1  0  0  0
  5  8  1  0  0  0  0
  6 17  2  0  0  0  0
  6 12  1  0  0  0  0
  8  7  1  6  0  0  0
  8 11  1  0  0  0  0
  9 19  1  0  0  0  0
 11 10  1  6  0  0  0
 12 20  2  0  0  0  0
 12 19  1  0  0  0  0
 13 20  1  0  0  0  0
 14 15  1  0  0  0  0
 18 19  2  0  0  0  0
M  CHG  1  21  -1
M  END
>  <CHROM.1>
36.71778387,49.25590298,-169.54601260,-167.07031417,-0.99698904,-29.87839995
3.19326055,-10.27952934,-0.36927864,-0.35999885,-2.96592433

>  <Name>
ligand

>  <RI>
0

>  <Rbt.Current_Directory>
/home/itssahil/PROJECTS/Mol_Feturizer/Test_systems_manuscript/rnas/4xwf

>  <Rbt.Executable>
rbdock ($Id: //depot/dev/client3/rdock/2013.1/src/exe/rbdock.cxx#4 $)

>  <Rbt.Library>
libRbt.so (2013.1, Build901 2013/11/27)

>  <Rbt.Parameter_File>
/export/apps/rDock/src/rDock_2013.1_src/data/scripts/dock_solv.prm

>  <Rbt.Receptor>
prm/pocket_docking_3.prm

>  <SCORE>
-6.78316

>  <SCORE.INTER>
-6.50666

>  <SCORE.INTER.CONST>
1

>  <SCORE.INTER.POLAR>
0

>  <SCORE.INTER.ROT>
5

>  <SCORE.INTER.SOLV>
10.8127

>  <SCORE.INTER.VDW>
-14.8753

>  <SCORE.INTER.norm>
-0.295757

>  <SCORE.INTRA>
-0.277205

>  <SCORE.INTRA.DIHEDRAL>
-0.70747

>  <SCORE.INTRA.DIHEDRAL.0>
3.49807

>  <SCORE.INTRA.POLAR>
0

>  <SCORE.INTRA.POLAR.0>
0

>  <SCORE.INTRA.REPUL>
0

>  <SCORE.INTRA.REPUL.0>
0

>  <SCORE.INTRA.SOLV>
0.867811

>  <SCORE.INTRA.SOLV.lig_0>
-73.062

>  <SCORE.INTRA.VDW>
-0.357375

>  <SCORE.INTRA.VDW.0>
-1.83782

>  <SCORE.INTRA.norm>
-0.0126002

>  <SCORE.RESTR>
0.000700014

>  <SCORE.RESTR.CAVITY>
0.000700014

>  <SCORE.RESTR.norm>
3.18188e-05

>  <SCORE.SYSTEM>
0

>  <SCORE.SYSTEM.CONST>
0

>  <SCORE.SYSTEM.DIHEDRAL>
0

>  <SCORE.SYSTEM.SOLV>
0

>  <SCORE.SYSTEM.norm>
0

>  <SCORE.heavy>
22

>  <SCORE.norm>
-0.308326

>  <RMSD>
6.491

$$$$
ligand
 OpenBabel02271912143D
libRbt.so/2013.1/901 2013/11/27
 22 23  0  0  0  0  0  0  0  0999 V2000
  -28.3046    3.3082  -11.6184 N   0  0  0  0  0  0  0  0  0  0  0  0
  -30.4332    0.7371  -11.0611 C   0  0  1  0  0  0  0  0  0  0  0  0
  -30.1049    1.8915  -11.8854 O   0  0  0  0  0  0  0  0  0  0  0  0
  -32.9226    2.8737   -9.1740 P   0  0  1  0  0  0  0  0  0  0  0  0
  -28.6741    2.0155  -11.9276 C   0  0  2  0  0  0  0  0  0  0  0  0
  -28.1861    5.2216  -10.6006 N   0  0  0  0  0  0  0  0  0  0  0  0
  -26.8416    0.7517  -11.0670 O   0  0  0  0  0  0  0  0  0  0  0  0
  -28.1901    1.1652  -10.8170 C   0  0  2  0  0  0  0  0  0  0  0  0
  -26.5229    7.5608  -11.2797 N   0  0  0  0  0  0  0  0  0  0  0  0
  -28.9020   -0.8383  -11.8784 O   0  0  0  0  0  0  0  0  0  0  0  0
  -29.1449    0.0641  -10.7861 C   0  0  2  0  0  0  0  0  0  0  0  0
  -27.3054    5.2303  -11.6129 C   0  0  0  0  0  0  0  0  0  0  0  0
  -26.5924    3.6211  -13.3638 N   0  0  0  0  0  0  0  0  0  0  0  0
  -32.1383    2.0214  -10.2309 O   0  0  0  0  0  0  0  0  0  0  0  0
  -31.0568    1.2548   -9.8108 C   0  0  0  0  0  0  0  0  0  0  0  0
  -34.1008    3.4897  -10.0125 O   0  0  0  0  0  0  0  0  0  0  0  0
  -28.8100    4.0282  -10.6101 C   0  0  0  0  0  0  0  0  0  0  0  0
  -25.5957    6.2334  -12.8810 O   0  0  0  0  0  0  0  0  0  0  0  0
  -26.4164    6.3511  -11.9712 C   0  0  0  0  0  0  0  0  0  0  0  0
  -27.3719    4.0277  -12.2567 C   0  0  0  0  0  0  0  0  0  0  0  0
  -33.3564    1.9989   -8.0451 O   0  5  0  0  0  0  0  0  0  0  0  0
  -32.0193    3.8148   -8.4876 O   0  0  0  0  0  0  0  0  0  0  0  0
  1 17  1  0  0  0  0
  1 20  1  0  0  0  0
  2 15  1  1  0  0  0
  2  3  1  0  0  0  0
  2 11  1  0  0  0  0
  3  5  1  0  0  0  0
  4 16  1  6  0  0  0
  4 21  1  0  0  0  0
  4 22  2  0  0  0  0
  4 14  1  0  0  0  0
  5  1  1  1  0  0  0
  5  8  1  0  0  0  0
  6 17  2  0  0  0  0
  6 12  1  0  0  0  0
  8  7  1  6  0  0  0
  8 11  1  0  0  0  0
  9 19  1  0  0  0  0
 11 10  1  6  0  0  0
 12 20  2  0  0  0  0
 12 19  1  0  0  0  0
 13 20  1  0  0  0  0
 14 15  1  0  0  0  0
 18 19  2  0  0  0  0
M  CHG  1  21  -1
M  END
>  <CHROM.1>
44.83266091,56.40499637,-176.06375200,-172.30439240,-4.39904108,-29.51729494
2.97806268,-10.84140828,-0.37247947,-0.46471409,-3.03265843

>  <Name>
ligand

>  <RI>
0

>  <Rbt.Current_Directory>
/home/itssahil/PROJECTS/Mol_Feturizer/Test_systems_manuscript/rnas/4xwf

>  <Rbt.Executable>
rbdock ($Id: //depot/dev/client3/rdock/2013.1/src/exe/rbdock.cxx#4 $)

>  <Rbt.Library>
libRbt.so (2013.1, Build901 2013/11/27)

>  <Rbt.Parameter_File>
/export/apps/rDock/src/rDock_2013.1_src/data/scripts/dock_solv.prm

>  <Rbt.Receptor>
prm/pocket_docking_3.prm

>  <SCORE>
-6.68514

>  <SCORE.INTER>
-5.78221

>  <SCORE.INTER.CONST>
1

>  <SCORE.INTER.POLAR>
0

>  <SCORE.INTER.ROT>
5

>  <SCORE.INTER.SOLV>
9.65704

>  <SCORE.INTER.VDW>
-14.0072

>  <SCORE.INTER.norm>
-0.262828

>  <SCORE.INTRA>
-0.902924

>  <SCORE.INTRA.DIHEDRAL>
-1.65114

>  <SCORE.INTRA.DIHEDRAL.0>
3.49807

>  <SCORE.INTRA.POLAR>
0

>  <SCORE.INTRA.POLAR.0>
0

>  <SCORE.INTRA.REPUL>
0

>  <SCORE.INTRA.REPUL.0>
0

>  <SCORE.INTRA.SOLV>
0.353918

>  <SCORE.INTRA.SOLV.lig_0>
-73.062

>  <SCORE.INTRA.VDW>
-0.254314

>  <SCORE.INTRA.VDW.0>
-1.83782

>  <SCORE.INTRA.norm>
-0.041042

>  <SCORE.RESTR>
0

>  <SCORE.RESTR.CAVITY>
0

>  <SCORE.RESTR.norm>
0

>  <SCORE.SYSTEM>
0

>  <SCORE.SYSTEM.CONST>
0

>  <SCORE.SYSTEM.DIHEDRAL>
0

>  <SCORE.SYSTEM.SOLV>
0

>  <SCORE.SYSTEM.norm>
0

>  <SCORE.heavy>
22

>  <SCORE.norm>
-0.30387

>  <RMSD>
6.493

$$$$
ligand
 OpenBabel02271912143D
libRbt.so/2013.1/901 2013/11/27
 22 23  0  0  0  0  0  0  0  0999 V2000
  -28.2731    3.3308  -11.5824 N   0  0  0  0  0  0  0  0  0  0  0  0
  -30.3789    0.7294  -11.0819 C   0  0  1  0  0  0  0  0  0  0  0  0
  -30.0506    1.8939  -11.8918 O   0  0  0  0  0  0  0  0  0  0  0  0
  -32.9261    2.8210   -9.2187 P   0  0  1  0  0  0  0  0  0  0  0  0
  -28.6209    2.0360  -11.9076 C   0  0  2  0  0  0  0  0  0  0  0  0
  -28.2012    5.2399  -10.5523 N   0  0  0  0  0  0  0  0  0  0  0  0
  -26.7883    0.7885  -11.0237 O   0  0  0  0  0  0  0  0  0  0  0  0
  -28.1460    1.1834  -10.7948 C   0  0  2  0  0  0  0  0  0  0  0  0
  -26.5205    7.5875  -11.1510 N   0  0  0  0  0  0  0  0  0  0  0  0
  -28.8138   -0.8207  -11.8832 O   0  0  0  0  0  0  0  0  0  0  0  0
  -29.0874    0.0703  -10.7889 C   0  0  2  0  0  0  0  0  0  0  0  0
  -27.2946    5.2631  -11.5412 C   0  0  0  0  0  0  0  0  0  0  0  0
  -26.5195    3.6706  -13.2810 N   0  0  0  0  0  0  0  0  0  0  0  0
  -32.1000    2.0062  -10.2734 O   0  0  0  0  0  0  0  0  0  0  0  0
  -31.0310    1.2300   -9.8392 C   0  0  0  0  0  0  0  0  0  0  0  0
  -34.1195    3.3964  -10.0643 O   0  0  0  0  0  0  0  0  0  0  0  0
  -28.8121    4.0402  -10.5840 C   0  0  0  0  0  0  0  0  0  0  0  0
  -25.5851    6.3014  -12.7809 O   0  0  0  0  0  0  0  0  0  0  0  0
  -26.4085    6.3948  -11.8707 C   0  0  0  0  0  0  0  0  0  0  0  0
  -27.3318    4.0632  -12.1926 C   0  0  0  0  0  0  0  0  0  0  0  0
  -33.3359    1.9230   -8.0991 O   0  5  0  0  0  0  0  0  0  0  0  0
  -32.0660    3.7918   -8.5184 O   0  0  0  0  0  0  0  0  0  0  0  0
  1 17  1  0  0  0  0
  1 20  1  0  0  0  0
  2 15  1  1  0  0  0
  2  3  1  0  0  0  0
  2 11  1  0  0  0  0
  3  5  1  0  0  0  0
  4 16  1  6  0  0  0
  4 21  1  0  0  0  0
  4 22  2  0  0  0  0
  4 14  1  0  0  0  0
  5  1  1  1  0  0  0
  5  8  1  0  0  0  0
  6 17  2  0  0  0  0
  6 12  1  0  0  0  0
  8  7  1  6  0  0  0
  8 11  1  0  0  0  0
  9 19  1  0  0  0  0
 11 10  1  6  0  0  0
 12 20  2  0  0  0  0
 12 19  1  0  0  0  0
 13 20  1  0  0  0  0
 14 15  1  0  0  0  0
 18 19  2  0  0  0  0
M  CHG  1  21  -1
M  END
>  <CHROM.1>
44.32952949,55.34779526,-173.11108924,-173.58749599,-2.62964470,-29.49257852
2.97901060,-10.82623050,-0.38631057,-0.44856495,-3.02949580

>  <Name>
ligand

>  <RI>
0

>  <Rbt.Current_Directory>
/home/itssahil/PROJECTS/Mol_Feturizer/Test_systems_manuscript/rnas/4xwf

>  <Rbt.Executable>
rbdock ($Id: //depot/dev/client3/rdock/2013.1/src/exe/rbdock.cxx#4 $)

>  <Rbt.Library>
libRbt.so (2013.1, Build901 2013/11/27)

>  <Rbt.Parameter_File>
/export/apps/rDock/src/rDock_2013.1_src/data/scripts/dock_solv.prm

>  <Rbt.Receptor>
prm/pocket_docking_3.prm

>  <SCORE>
-6.67728

>  <SCORE.INTER>
-5.78145

>  <SCORE.INTER.CONST>
1

>  <SCORE.INTER.POLAR>
0

>  <SCORE.INTER.ROT>
5

>  <SCORE.INTER.SOLV>
9.62007

>  <SCORE.INTER.VDW>
-13.9943

>  <SCORE.INTER.norm>
-0.262793

>  <SCORE.INTRA>
-0.895827

>  <SCORE.INTRA.DIHEDRAL>
-1.68305

>  <SCORE.INTRA.DIHEDRAL.0>
3.49807

>  <SCORE.INTRA.POLAR>
0

>  <SCORE.INTRA.POLAR.0>
0

>  <SCORE.INTRA.REPUL>
0

>  <SCORE.INTRA.REPUL.0>
0

>  <SCORE.INTRA.SOLV>
0.355674

>  <SCORE.INTRA.SOLV.lig_0>
-73.062

>  <SCORE.INTRA.VDW>
-0.232138

>  <SCORE.INTRA.VDW.0>
-1.83782

>  <SCORE.INTRA.norm>
-0.0407194

>  <SCORE.RESTR>
0

>  <SCORE.RESTR.CAVITY>
0

>  <SCORE.RESTR.norm>
0

>  <SCORE.SYSTEM>
0

>  <SCORE.SYSTEM.CONST>
0

>  <SCORE.SYSTEM.DIHEDRAL>
0

>  <SCORE.SYSTEM.SOLV>
0

>  <SCORE.SYSTEM.norm>
0

>  <SCORE.heavy>
22

>  <SCORE.norm>
-0.303513

>  <RMSD>
6.497

$$$$
ligand
 OpenBabel02271912143D
libRbt.so/2013.1/901 2013/11/27
 22 23  0  0  0  0  0  0  0  0999 V2000
  -28.6763    3.5290  -10.9372 N   0  0  0  0  0  0  0  0  0  0  0  0
  -30.8326    0.9303  -10.7153 C   0  0  1  0  0  0  0  0  0  0  0  0
  -30.4321    2.1232  -11.4477 O   0  0  0  0  0  0  0  0  0  0  0  0
  -33.3097    3.1844   -8.9765 P   0  0  1  0  0  0  0  0  0  0  0  0
  -29.0050    2.2518  -11.3421 C   0  0  2  0  0  0  0  0  0  0  0  0
  -28.7131    5.4158   -9.8649 N   0  0  0  0  0  0  0  0  0  0  0  0
  -27.2582    0.9519  -10.3648 O   0  0  0  0  0  0  0  0  0  0  0  0
  -28.6275    1.3504  -10.2304 C   0  0  2  0  0  0  0  0  0  0  0  0
  -26.8748    7.7071  -10.1144 N   0  0  0  0  0  0  0  0  0  0  0  0
  -29.2178   -0.6016  -11.4504 O   0  0  0  0  0  0  0  0  0  0  0  0
  -29.5734    0.2473  -10.3462 C   0  0  2  0  0  0  0  0  0  0  0  0
  -27.6628    5.4289  -10.7000 C   0  0  0  0  0  0  0  0  0  0  0  0
  -26.6702    3.8452  -12.3340 N   0  0  0  0  0  0  0  0  0  0  0  0
  -32.5521    2.2579   -9.9895 O   0  0  0  0  0  0  0  0  0  0  0  0
  -31.5801    1.3867   -9.5099 C   0  0  0  0  0  0  0  0  0  0  0  0
  -34.4303    3.8424   -9.8607 O   0  0  0  0  0  0  0  0  0  0  0  0
  -29.3446    4.2364  -10.0188 C   0  0  0  0  0  0  0  0  0  0  0  0
  -25.7701    6.4481  -11.6573 O   0  0  0  0  0  0  0  0  0  0  0  0
  -26.7049    6.5384  -10.8616 C   0  0  0  0  0  0  0  0  0  0  0  0
  -27.6312    4.2429  -11.3765 C   0  0  0  0  0  0  0  0  0  0  0  0
  -33.8196    2.3693   -7.8348 O   0  5  0  0  0  0  0  0  0  0  0  0
  -32.3693    4.0916   -8.2944 O   0  0  0  0  0  0  0  0  0  0  0  0
  1 17  1  0  0  0  0
  1 20  1  0  0  0  0
  2 15  1  1  0  0  0
  2  3  1  0  0  0  0
  2 11  1  0  0  0  0
  3  5  1  0  0  0  0
  4 16  1  6  0  0  0
  4 21  1  0  0  0  0
  4 22  2  0  0  0  0
  4 14  1  0  0  0  0
  5  1  1  1  0  0  0
  5  8  1  0  0  0  0
  6 17  2  0  0  0  0
  6 12  1  0  0  0  0
  8  7  1  6  0  0  0
  8 11  1  0  0  0  0
  9 19  1  0  0  0  0
 11 10  1  6  0  0  0
 12 20  2  0  0  0  0
 12 19  1  0  0  0  0
 13 20  1  0  0  0  0
 14 15  1  0  0  0  0
 18 19  2  0  0  0  0
M  CHG  1  21  -1
M  END
>  <CHROM.1>
39.69191687,51.65958209,-172.37338170,-165.92557917,-0.94529371,-29.88388643
3.21047679,-10.27693552,-0.37232168,-0.36317359,-2.97382925

>  <Name>
ligand

>  <RI>
0

>  <Rbt.Current_Directory>
/home/itssahil/PROJECTS/Mol_Feturizer/Test_systems_manuscript/rnas/4xwf

>  <Rbt.Executable>
rbdock ($Id: //depot/dev/client3/rdock/2013.1/src/exe/rbdock.cxx#4 $)

>  <Rbt.Library>
libRbt.so (2013.1, Build901 2013/11/27)

>  <Rbt.Parameter_File>
/export/apps/rDock/src/rDock_2013.1_src/data/scripts/dock_solv.prm

>  <Rbt.Receptor>
prm/pocket_docking_3.prm

>  <SCORE>
-6.71682

>  <SCORE.INTER>
-6.35587

>  <SCORE.INTER.CONST>
1

>  <SCORE.INTER.POLAR>
0

>  <SCORE.INTER.ROT>
5

>  <SCORE.INTER.SOLV>
10.8719

>  <SCORE.INTER.VDW>
-14.7945

>  <SCORE.INTER.norm>
-0.288903

>  <SCORE.INTRA>
-0.360948

>  <SCORE.INTRA.DIHEDRAL>
-0.786147

>  <SCORE.INTRA.DIHEDRAL.0>
3.49807

>  <SCORE.INTRA.POLAR>
0

>  <SCORE.INTRA.POLAR.0>
0

>  <SCORE.INTRA.REPUL>
0

>  <SCORE.INTRA.REPUL.0>
0

>  <SCORE.INTRA.SOLV>
0.767444

>  <SCORE.INTRA.SOLV.lig_0>
-73.062

>  <SCORE.INTRA.VDW>
-0.351596

>  <SCORE.INTRA.VDW.0>
-1.83782

>  <SCORE.INTRA.norm>
-0.0164067

>  <SCORE.RESTR>
0

>  <SCORE.RESTR.CAVITY>
0

>  <SCORE.RESTR.norm>
0

>  <SCORE.SYSTEM>
0

>  <SCORE.SYSTEM.CONST>
0

>  <SCORE.SYSTEM.DIHEDRAL>
0

>  <SCORE.SYSTEM.SOLV>
0

>  <SCORE.SYSTEM.norm>
0

>  <SCORE.heavy>
22

>  <SCORE.norm>
-0.30531

>  <RMSD>
6.498

$$$$
ligand
 OpenBabel02271912143D
libRbt.so/2013.1/901 2013/11/27
 22 23  0  0  0  0  0  0  0  0999 V2000
  -26.7143    5.2601  -10.9303 N   0  0  0  0  0  0  0  0  0  0  0  0
  -28.2728    2.6977  -12.4982 C   0  0  1  0  0  0  0  0  0  0  0  0
  -28.2397    4.1304  -12.2406 O   0  0  0  0  0  0  0  0  0  0  0  0
  -31.1467    1.8807  -10.1677 P   0  0  1  0  0  0  0  0  0  0  0  0
  -26.8662    4.5230  -12.0865 C   0  0  2  0  0  0  0  0  0  0  0  0
  -27.0001    5.9807   -8.9030 N   0  0  0  0  0  0  0  0  0  0  0  0
  -24.7613    3.4103  -12.2509 O   0  0  0  0  0  0  0  0  0  0  0  0
  -26.1341    3.2545  -11.8731 C   0  0  2  0  0  0  0  0  0  0  0  0
  -25.5328    8.1113   -7.4878 N   0  0  0  0  0  0  0  0  0  0  0  0
  -26.5590    2.4950  -14.0844 O   0  0  0  0  0  0  0  0  0  0  0  0
  -26.8629    2.2950  -12.6938 C   0  0  2  0  0  0  0  0  0  0  0  0
  -25.9745    6.6541   -9.4463 C   0  0  0  0  0  0  0  0  0  0  0  0
  -24.7933    6.6370  -11.6299 N   0  0  0  0  0  0  0  0  0  0  0  0
  -30.2138    2.3820  -11.3240 O   0  0  0  0  0  0  0  0  0  0  0  0
  -28.8639    2.0498  -11.2937 C   0  0  0  0  0  0  0  0  0  0  0  0
  -30.8622    0.3355  -10.1213 O   0  0  0  0  0  0  0  0  0  0  0  0
  -27.4619    5.1193   -9.8294 C   0  0  0  0  0  0  0  0  0  0  0  0
  -24.2345    8.2356   -9.3545 O   0  0  0  0  0  0  0  0  0  0  0  0
  -25.1846    7.7054   -8.7789 C   0  0  0  0  0  0  0  0  0  0  0  0
  -25.7865    6.2037  -10.7219 C   0  0  0  0  0  0  0  0  0  0  0  0
  -30.8196    2.6093   -8.9067 O   0  5  0  0  0  0  0  0  0  0  0  0
  -32.5396    2.3033  -10.3997 O   0  0  0  0  0  0  0  0  0  0  0  0
  1 17  1  0  0  0  0
  1 20  1  0  0  0  0
  2 15  1  1  0  0  0
  2  3  1  0  0  0  0
  2 11  1  0  0  0  0
  3  5  1  0  0  0  0
  4 16  1  1  0  0  0
  4 21  1  0  0  0  0
  4 22  2  0  0  0  0
  4 14  1  0  0  0  0
  5  1  1  1  0  0  0
  5  8  1  0  0  0  0
  6 17  2  0  0  0  0
  6 12  1  0  0  0  0
  8  7  1  6  0  0  0
  8 11  1  0  0  0  0
  9 19  1  0  0  0  0
 11 10  1  6  0  0  0
 12 20  2  0  0  0  0
 12 19  1  0  0  0  0
 13 20  1  0  0  0  0
 14 15  1  0  0  0  0
 18 19  2  0  0  0  0
M  CHG  1  21  -1
M  END
>  <CHROM.1>
29.73235636,71.88695669,-52.18259131,-178.75911220,-2.99798198,-27.76991816
4.07167581,-10.76563499,-0.56670265,-0.53334021,-2.30236666

>  <Name>
ligand

>  <RI>
0

>  <Rbt.Current_Directory>
/home/itssahil/PROJECTS/Mol_Feturizer/Test_systems_manuscript/rnas/4xwf

>  <Rbt.Executable>
rbdock ($Id: //depot/dev/client3/rdock/2013.1/src/exe/rbdock.cxx#4 $)

>  <Rbt.Library>
libRbt.so (2013.1, Build901 2013/11/27)

>  <Rbt.Parameter_File>
/export/apps/rDock/src/rDock_2013.1_src/data/scripts/dock_solv.prm

>  <Rbt.Receptor>
prm/pocket_docking_2.prm

>  <SCORE>
2.78368

>  <SCORE.INTER>
3.73991

>  <SCORE.INTER.CONST>
1

>  <SCORE.INTER.POLAR>
0

>  <SCORE.INTER.ROT>
5

>  <SCORE.INTER.SOLV>
7.83865

>  <SCORE.INTER.VDW>
-7.05294

>  <SCORE.INTER.norm>
0.169996

>  <SCORE.INTRA>
-0.956229

>  <SCORE.INTRA.DIHEDRAL>
-1.43393

>  <SCORE.INTRA.DIHEDRAL.0>
3.49807

>  <SCORE.INTRA.POLAR>
0

>  <SCORE.INTRA.POLAR.0>
0

>  <SCORE.INTRA.REPUL>
0

>  <SCORE.INTRA.REPUL.0>
0

>  <SCORE.INTRA.SOLV>
-0.0702065

>  <SCORE.INTRA.SOLV.lig_0>
-73.062

>  <SCORE.INTRA.VDW>
-0.204161

>  <SCORE.INTRA.VDW.0>
-1.83782

>  <SCORE.INTRA.norm>
-0.0434649

>  <SCORE.RESTR>
0

>  <SCORE.RESTR.CAVITY>
0

>  <SCORE.RESTR.norm>
0

>  <SCORE.SYSTEM>
0

>  <SCORE.SYSTEM.CONST>
0

>  <SCORE.SYSTEM.DIHEDRAL>
0

>  <SCORE.SYSTEM.SOLV>
0

>  <SCORE.SYSTEM.norm>
0

>  <SCORE.heavy>
22

>  <SCORE.norm>
0.126531

>  <RMSD>
6.499

$$$$
ligand
 OpenBabel02271912143D
libRbt.so/2013.1/901 2013/11/27
 22 23  0  0  0  0  0  0  0  0999 V2000
  -30.5571    4.0410   -9.2084 N   0  0  0  0  0  0  0  0  0  0  0  0
  -31.2231    0.9103  -10.3074 C   0  0  1  0  0  0  0  0  0  0  0  0
  -30.4683    1.7427   -9.3815 O   0  0  0  0  0  0  0  0  0  0  0  0
  -28.3951    0.1870  -12.7167 P   0  0  1  0  0  0  0  0  0  0  0  0
  -31.2802    2.8781   -9.0409 C   0  0  2  0  0  0  0  0  0  0  0  0
  -29.0828    5.4533   -9.9453 N   0  0  0  0  0  0  0  0  0  0  0  0
  -33.4980    3.5882   -9.5637 O   0  0  0  0  0  0  0  0  0  0  0  0
  -32.3477    2.8981  -10.0661 C   0  0  2  0  0  0  0  0  0  0  0  0
  -30.8871    8.3397   -8.7683 N   0  0  0  0  0  0  0  0  0  0  0  0
  -33.3228    0.8841   -9.2658 O   0  0  0  0  0  0  0  0  0  0  0  0
  -32.5851    1.4866  -10.3424 C   0  0  2  0  0  0  0  0  0  0  0  0
  -29.8788    6.0940   -9.0756 C   0  0  0  0  0  0  0  0  0  0  0  0
  -31.8509    5.4919   -7.6929 N   0  0  0  0  0  0  0  0  0  0  0  0
  -29.4380    0.1852  -11.5458 O   0  0  0  0  0  0  0  0  0  0  0  0
  -30.5526    1.0120  -11.6341 C   0  0  0  0  0  0  0  0  0  0  0  0
  -28.0283   -1.3334  -12.8731 O   0  0  0  0  0  0  0  0  0  0  0  0
  -29.5028    4.1760  -10.0213 C   0  0  0  0  0  0  0  0  0  0  0  0
  -28.6876    7.9722   -8.3068 O   0  0  0  0  0  0  0  0  0  0  0  0
  -29.7641    7.5119   -8.6867 C   0  0  0  0  0  0  0  0  0  0  0  0
  -30.8116    5.2120   -8.6096 C   0  0  0  0  0  0  0  0  0  0  0  0
  -29.0040    0.8059  -13.9308 O   0  5  0  0  0  0  0  0  0  0  0  0
  -27.2911    1.1211  -12.4316 O   0  0  0  0  0  0  0  0  0  0  0  0
  1 17  1  0  0  0  0
  1 20  1  0  0  0  0
  2 15  1  6  0  0  0
  2  3  1  0  0  0  0
  2 11  1  0  0  0  0
  3  5  1  0  0  0  0
  4 16  1  6  0  0  0
  4 21  1  0  0  0  0
  4 22  2  0  0  0  0
  4 14  1  0  0  0  0
  5  1  1  6  0  0  0
  5  8  1  0  0  0  0
  6 17  2  0  0  0  0
  6 12  1  0  0  0  0
  8  7  1  1  0  0  0
  8 11  1  0  0  0  0
  9 19  1  0  0  0  0
 11 10  1  1  0  0  0
 12 20  2  0  0  0  0
 12 19  1  0  0  0  0
 13 20  1  0  0  0  0
 14 15  1  0  0  0  0
 18 19  2  0  0  0  0
M  CHG  1  21  -1
M  END
>  <CHROM.1>
23.99358817,77.88989924,-139.25495486,-172.54704911,127.93324041,-30.25354668
2.94321149,-10.35226543,1.79933147,0.45062135,0.43220302

>  <Name>
ligand

>  <RI>
0

>  <Rbt.Current_Directory>
/home/itssahil/PROJECTS/Mol_Feturizer/Test_systems_manuscript/rnas/4xwf

>  <Rbt.Executable>
rbdock ($Id: //depot/dev/client3/rdock/2013.1/src/exe/rbdock.cxx#4 $)

>  <Rbt.Library>
libRbt.so (2013.1, Build901 2013/11/27)

>  <Rbt.Parameter_File>
/export/apps/rDock/src/rDock_2013.1_src/data/scripts/dock_solv.prm

>  <Rbt.Receptor>
prm/pocket_docking_8.prm

>  <SCORE>
-7.50566

>  <SCORE.INTER>
-8.46655

>  <SCORE.INTER.CONST>
1

>  <SCORE.INTER.POLAR>
0

>  <SCORE.INTER.ROT>
5

>  <SCORE.INTER.SOLV>
14.8929

>  <SCORE.INTER.VDW>
-17.542

>  <SCORE.INTER.norm>
-0.384843

>  <SCORE.INTRA>
0.960893

>  <SCORE.INTRA.DIHEDRAL>
1.14838

>  <SCORE.INTRA.DIHEDRAL.0>
3.49807

>  <SCORE.INTRA.POLAR>
0

>  <SCORE.INTRA.POLAR.0>
0

>  <SCORE.INTRA.REPUL>
0

>  <SCORE.INTRA.REPUL.0>
0

>  <SCORE.INTRA.SOLV>
0.909451

>  <SCORE.INTRA.SOLV.lig_0>
-73.062

>  <SCORE.INTRA.VDW>
-0.0680209

>  <SCORE.INTRA.VDW.0>
-1.83782

>  <SCORE.INTRA.norm>
0.043677

>  <SCORE.RESTR>
0

>  <SCORE.RESTR.CAVITY>
0

>  <SCORE.RESTR.norm>
0

>  <SCORE.SYSTEM>
0

>  <SCORE.SYSTEM.CONST>
0

>  <SCORE.SYSTEM.DIHEDRAL>
0

>  <SCORE.SYSTEM.SOLV>
0

>  <SCORE.SYSTEM.norm>
0

>  <SCORE.heavy>
22

>  <SCORE.norm>
-0.341166

>  <RMSD>
6.499

$$$$
ligand
 OpenBabel02271912143D
libRbt.so/2013.1/901 2013/11/27
 22 23  0  0  0  0  0  0  0  0999 V2000
  -28.6445    3.4718  -11.0573 N   0  0  0  0  0  0  0  0  0  0  0  0
  -30.8170    0.8971  -10.7359 C   0  0  1  0  0  0  0  0  0  0  0  0
  -30.4258    2.0744  -11.4979 O   0  0  0  0  0  0  0  0  0  0  0  0
  -33.2698    3.1573   -8.9587 P   0  0  1  0  0  0  0  0  0  0  0  0
  -28.9952    2.1914  -11.4325 C   0  0  2  0  0  0  0  0  0  0  0  0
  -28.6465    5.3820  -10.0267 N   0  0  0  0  0  0  0  0  0  0  0  0
  -27.2345    0.8911  -10.4813 O   0  0  0  0  0  0  0  0  0  0  0  0
  -28.5960    1.3045  -10.3169 C   0  0  2  0  0  0  0  0  0  0  0  0
  -26.7533    7.6243  -10.3092 N   0  0  0  0  0  0  0  0  0  0  0  0
  -29.2361   -0.6612  -11.4889 O   0  0  0  0  0  0  0  0  0  0  0  0
  -29.5545    0.2085  -10.3895 C   0  0  2  0  0  0  0  0  0  0  0  0
  -27.5999    5.3600  -10.8663 C   0  0  0  0  0  0  0  0  0  0  0  0
  -26.6399    3.7252  -12.4692 N   0  0  0  0  0  0  0  0  0  0  0  0
  -32.5025    2.2545   -9.9858 O   0  0  0  0  0  0  0  0  0  0  0  0
  -31.5278    1.3797   -9.5185 C   0  0  0  0  0  0  0  0  0  0  0  0
  -34.3961    3.8184   -9.8332 O   0  0  0  0  0  0  0  0  0  0  0  0
  -29.2974    4.2098  -10.1520 C   0  0  0  0  0  0  0  0  0  0  0  0
  -25.7132    6.3395  -11.8754 O   0  0  0  0  0  0  0  0  0  0  0  0
  -26.6253    6.4503  -11.0563 C   0  0  0  0  0  0  0  0  0  0  0  0
  -27.5902    4.1591  -11.5166 C   0  0  0  0  0  0  0  0  0  0  0  0
  -33.7726    2.3190   -7.8306 O   0  5  0  0  0  0  0  0  0  0  0  0
  -32.3387    4.0625   -8.2613 O   0  0  0  0  0  0  0  0  0  0  0  0
  1 17  1  0  0  0  0
  1 20  1  0  0  0  0
  2 15  1  1  0  0  0
  2  3  1  0  0  0  0
  2 11  1  0  0  0  0
  3  5  1  0  0  0  0
  4 16  1  6  0  0  0
  4 21  1  0  0  0  0
  4 22  2  0  0  0  0
  4 14  1  0  0  0  0
  5  1  1  1  0  0  0
  5  8  1  0  0  0  0
  6 17  2  0  0  0  0
  6 12  1  0  0  0  0
  8  7  1  6  0  0  0
  8 11  1  0  0  0  0
  9 19  1  0  0  0  0
 11 10  1  6  0  0  0
 12 20  2  0  0  0  0
 12 19  1  0  0  0  0
 13 20  1  0  0  0  0
 14 15  1  0  0  0  0
 18 19  2  0  0  0  0
M  CHG  1  21  -1
M  END
>  <CHROM.1>
38.30646321,51.52339682,-172.00725234,-168.71260113,0.69350784,-29.84465274
3.15961073,-10.35158949,-0.35394988,-0.38473896,-2.98089716

>  <Name>
ligand

>  <RI>
0

>  <Rbt.Current_Directory>
/home/itssahil/PROJECTS/Mol_Feturizer/Test_systems_manuscript/rnas/4xwf

>  <Rbt.Executable>
rbdock ($Id: //depot/dev/client3/rdock/2013.1/src/exe/rbdock.cxx#4 $)

>  <Rbt.Library>
libRbt.so (2013.1, Build901 2013/11/27)

>  <Rbt.Parameter_File>
/export/apps/rDock/src/rDock_2013.1_src/data/scripts/dock_solv.prm

>  <Rbt.Receptor>
prm/pocket_docking_3.prm

>  <SCORE>
-6.69851

>  <SCORE.INTER>
-6.19148

>  <SCORE.INTER.CONST>
1

>  <SCORE.INTER.POLAR>
0

>  <SCORE.INTER.ROT>
5

>  <SCORE.INTER.SOLV>
10.7106

>  <SCORE.INTER.VDW>
-14.6312

>  <SCORE.INTER.norm>
-0.281431

>  <SCORE.INTRA>
-0.50703

>  <SCORE.INTRA.DIHEDRAL>
-1.09438

>  <SCORE.INTRA.DIHEDRAL.0>
3.49807

>  <SCORE.INTRA.POLAR>
0

>  <SCORE.INTRA.POLAR.0>
0

>  <SCORE.INTRA.REPUL>
0

>  <SCORE.INTRA.REPUL.0>
0

>  <SCORE.INTRA.SOLV>
0.728898

>  <SCORE.INTRA.SOLV.lig_0>
-73.062

>  <SCORE.INTRA.VDW>
-0.32429

>  <SCORE.INTRA.VDW.0>
-1.83782

>  <SCORE.INTRA.norm>
-0.0230468

>  <SCORE.RESTR>
0

>  <SCORE.RESTR.CAVITY>
0

>  <SCORE.RESTR.norm>
0

>  <SCORE.SYSTEM>
0

>  <SCORE.SYSTEM.CONST>
0

>  <SCORE.SYSTEM.DIHEDRAL>
0

>  <SCORE.SYSTEM.SOLV>
0

>  <SCORE.SYSTEM.norm>
0

>  <SCORE.heavy>
22

>  <SCORE.norm>
-0.304478

>  <RMSD>
6.501

$$$$
ligand
 OpenBabel02271912143D
libRbt.so/2013.1/901 2013/11/27
 22 23  0  0  0  0  0  0  0  0999 V2000
  -28.2849    2.9807  -13.0770 N   0  0  0  0  0  0  0  0  0  0  0  0
  -30.0195    0.5867  -11.4300 C   0  0  1  0  0  0  0  0  0  0  0  0
  -29.9634    1.4792  -12.5790 O   0  0  0  0  0  0  0  0  0  0  0  0
  -32.4065    2.8934   -9.6071 P   0  0  1  0  0  0  0  0  0  0  0  0
  -28.5847    1.6401  -12.9504 C   0  0  2  0  0  0  0  0  0  0  0  0
  -27.9024    5.0556  -12.5675 N   0  0  0  0  0  0  0  0  0  0  0  0
  -26.5122    0.7333  -12.1898 O   0  0  0  0  0  0  0  0  0  0  0  0
  -27.8207    1.1491  -11.7816 C   0  0  2  0  0  0  0  0  0  0  0  0
  -26.0825    5.8625  -15.5009 N   0  0  0  0  0  0  0  0  0  0  0  0
  -28.5325   -1.0950  -12.1046 O   0  0  0  0  0  0  0  0  0  0  0  0
  -28.6455    0.0648  -11.2629 C   0  0  2  0  0  0  0  0  0  0  0  0
  -27.7036    4.9044  -13.8859 C   0  0  0  0  0  0  0  0  0  0  0  0
  -27.8200    3.0194  -15.4973 N   0  0  0  0  0  0  0  0  0  0  0  0
  -31.7072    1.8791  -10.5769 O   0  0  0  0  0  0  0  0  0  0  0  0
  -30.4386    1.4067  -10.2587 C   0  0  0  0  0  0  0  0  0  0  0  0
  -31.5473    4.1991   -9.7727 O   0  0  0  0  0  0  0  0  0  0  0  0
  -28.2695    3.8599  -12.0684 C   0  0  0  0  0  0  0  0  0  0  0  0
  -28.0185    6.9524  -15.0013 O   0  0  0  0  0  0  0  0  0  0  0  0
  -27.3002    5.9687  -14.8235 C   0  0  0  0  0  0  0  0  0  0  0  0
  -27.9396    3.5998  -14.2138 C   0  0  0  0  0  0  0  0  0  0  0  0
  -33.8421    3.0436   -9.9872 O   0  5  0  0  0  0  0  0  0  0  0  0
  -32.5183    2.3271   -8.2508 O   0  0  0  0  0  0  0  0  0  0  0  0
  1 17  1  0  0  0  0
  1 20  1  0  0  0  0
  2 15  1  1  0  0  0
  2  3  1  0  0  0  0
  2 11  1  0  0  0  0
  3  5  1  0  0  0  0
  4 16  1  1  0  0  0
  4 21  1  0  0  0  0
  4 22  2  0  0  0  0
  4 14  1  0  0  0  0
  5  1  1  1  0  0  0
  5  8  1  0  0  0  0
  6 17  2  0  0  0  0
  6 12  1  0  0  0  0
  8  7  1  6  0  0  0
  8 11  1  0  0  0  0
  9 19  1  0  0  0  0
 11 10  1  6  0  0  0
 12 20  2  0  0  0  0
 12 19  1  0  0  0  0
 13 20  1  0  0  0  0
 14 15  1  0  0  0  0
 18 19  2  0  0  0  0
M  CHG  1  21  -1
M  END
>  <CHROM.1>
66.68271927,62.12467955,69.13591711,-174.63716471,117.53151906,-29.43619062
2.80606717,-12.03160176,-0.57732739,-0.66370202,2.81977247

>  <Name>
ligand

>  <RI>
0

>  <Rbt.Current_Directory>
/home/itssahil/PROJECTS/Mol_Feturizer/Test_systems_manuscript/rnas/4xwf

>  <Rbt.Executable>
rbdock ($Id: //depot/dev/client3/rdock/2013.1/src/exe/rbdock.cxx#4 $)

>  <Rbt.Library>
libRbt.so (2013.1, Build901 2013/11/27)

>  <Rbt.Parameter_File>
/export/apps/rDock/src/rDock_2013.1_src/data/scripts/dock_solv.prm

>  <Rbt.Receptor>
prm/pocket_docking_4.prm

>  <SCORE>
-6.80579

>  <SCORE.INTER>
-5.56385

>  <SCORE.INTER.CONST>
1

>  <SCORE.INTER.POLAR>
0

>  <SCORE.INTER.ROT>
5

>  <SCORE.INTER.SOLV>
14.2732

>  <SCORE.INTER.VDW>
-15.4003

>  <SCORE.INTER.norm>
-0.252902

>  <SCORE.INTRA>
-1.24299

>  <SCORE.INTRA.DIHEDRAL>
-1.70029

>  <SCORE.INTRA.DIHEDRAL.0>
3.49807

>  <SCORE.INTRA.POLAR>
0

>  <SCORE.INTRA.POLAR.0>
0

>  <SCORE.INTRA.REPUL>
0

>  <SCORE.INTRA.REPUL.0>
0

>  <SCORE.INTRA.SOLV>
-0.951666

>  <SCORE.INTRA.SOLV.lig_0>
-73.062

>  <SCORE.INTRA.VDW>
0.0829888

>  <SCORE.INTRA.VDW.0>
-1.83782

>  <SCORE.INTRA.norm>
-0.0564996

>  <SCORE.RESTR>
0.00105005

>  <SCORE.RESTR.CAVITY>
0.00105005

>  <SCORE.RESTR.norm>
4.77294e-05

>  <SCORE.SYSTEM>
0

>  <SCORE.SYSTEM.CONST>
0

>  <SCORE.SYSTEM.DIHEDRAL>
0

>  <SCORE.SYSTEM.SOLV>
0

>  <SCORE.SYSTEM.norm>
0

>  <SCORE.heavy>
22

>  <SCORE.norm>
-0.309354

>  <RMSD>
6.504

$$$$
ligand
 OpenBabel02271912143D
libRbt.so/2013.1/901 2013/11/27
 22 23  0  0  0  0  0  0  0  0999 V2000
  -28.5244    3.4592  -11.2011 N   0  0  0  0  0  0  0  0  0  0  0  0
  -30.6228    0.8213  -10.9009 C   0  0  1  0  0  0  0  0  0  0  0  0
  -30.2587    2.0095  -11.6595 O   0  0  0  0  0  0  0  0  0  0  0  0
  -33.2069    2.9654   -9.1743 P   0  0  1  0  0  0  0  0  0  0  0  0
  -28.8330    2.1689  -11.5792 C   0  0  2  0  0  0  0  0  0  0  0  0
  -28.5690    5.3552  -10.1455 N   0  0  0  0  0  0  0  0  0  0  0  0
  -27.0445    0.9217  -10.6088 O   0  0  0  0  0  0  0  0  0  0  0  0
  -28.4194    1.2945  -10.4589 C   0  0  2  0  0  0  0  0  0  0  0  0
  -26.8079    7.6938  -10.4933 N   0  0  0  0  0  0  0  0  0  0  0  0
  -28.9886   -0.6897  -11.6363 O   0  0  0  0  0  0  0  0  0  0  0  0
  -29.3441    0.1705  -10.5408 C   0  0  2  0  0  0  0  0  0  0  0  0
  -27.5577    5.3900  -11.0267 C   0  0  0  0  0  0  0  0  0  0  0  0
  -26.5923    3.8188  -12.6889 N   0  0  0  0  0  0  0  0  0  0  0  0
  -32.4060    2.0618  -10.1747 O   0  0  0  0  0  0  0  0  0  0  0  0
  -31.3604    1.2829   -9.6913 C   0  0  0  0  0  0  0  0  0  0  0  0
  -34.3981    3.5008  -10.0488 O   0  0  0  0  0  0  0  0  0  0  0  0
  -29.1719    4.1565  -10.2603 C   0  0  0  0  0  0  0  0  0  0  0  0
  -25.7434    6.4555  -12.0806 O   0  0  0  0  0  0  0  0  0  0  0  0
  -26.6409    6.5251  -11.2410 C   0  0  0  0  0  0  0  0  0  0  0  0
  -27.5213    4.1984  -11.6931 C   0  0  0  0  0  0  0  0  0  0  0  0
  -33.6217    2.1577   -7.9896 O   0  5  0  0  0  0  0  0  0  0  0  0
  -32.3226    3.9677   -8.5529 O   0  0  0  0  0  0  0  0  0  0  0  0
  1 17  1  0  0  0  0
  1 20  1  0  0  0  0
  2 15  1  1  0  0  0
  2  3  1  0  0  0  0
  2 11  1  0  0  0  0
  3  5  1  0  0  0  0
  4 16  1  6  0  0  0
  4 21  1  0  0  0  0
  4 22  2  0  0  0  0
  4 14  1  0  0  0  0
  5  1  1  1  0  0  0
  5  8  1  0  0  0  0
  6 17  2  0  0  0  0
  6 12  1  0  0  0  0
  8  7  1  6  0  0  0
  8 11  1  0  0  0  0
  9 19  1  0  0  0  0
 11 10  1  6  0  0  0
 12 20  2  0  0  0  0
 12 19  1  0  0  0  0
 13 20  1  0  0  0  0
 14 15  1  0  0  0  0
 18 19  2  0  0  0  0
M  CHG  1  21  -1
M  END
>  <CHROM.1>
41.44389627,55.09354193,-172.11410348,-166.85048026,-0.64970236,-29.74539617
3.10555796,-10.52726615,-0.39792423,-0.38091642,-3.00419650

>  <Name>
ligand

>  <RI>
0

>  <Rbt.Current_Directory>
/home/itssahil/PROJECTS/Mol_Feturizer/Test_systems_manuscript/rnas/4xwf

>  <Rbt.Executable>
rbdock ($Id: //depot/dev/client3/rdock/2013.1/src/exe/rbdock.cxx#4 $)

>  <Rbt.Library>
libRbt.so (2013.1, Build901 2013/11/27)

>  <Rbt.Parameter_File>
/export/apps/rDock/src/rDock_2013.1_src/data/scripts/dock_solv.prm

>  <Rbt.Receptor>
prm/pocket_docking_4.prm

>  <SCORE>
-6.96076

>  <SCORE.INTER>
-6.42288

>  <SCORE.INTER.CONST>
1

>  <SCORE.INTER.POLAR>
0

>  <SCORE.INTER.ROT>
5

>  <SCORE.INTER.SOLV>
11.0728

>  <SCORE.INTER.VDW>
-14.9062

>  <SCORE.INTER.norm>
-0.291949

>  <SCORE.INTRA>
-0.537883

>  <SCORE.INTRA.DIHEDRAL>
-1.0455

>  <SCORE.INTRA.DIHEDRAL.0>
3.49807

>  <SCORE.INTRA.POLAR>
0

>  <SCORE.INTRA.POLAR.0>
0

>  <SCORE.INTRA.REPUL>
0

>  <SCORE.INTRA.REPUL.0>
0

>  <SCORE.INTRA.SOLV>
0.652821

>  <SCORE.INTRA.SOLV.lig_0>
-73.062

>  <SCORE.INTRA.VDW>
-0.341541

>  <SCORE.INTRA.VDW.0>
-1.83782

>  <SCORE.INTRA.norm>
-0.0244492

>  <SCORE.RESTR>
0

>  <SCORE.RESTR.CAVITY>
0

>  <SCORE.RESTR.norm>
0

>  <SCORE.SYSTEM>
0

>  <SCORE.SYSTEM.CONST>
0

>  <SCORE.SYSTEM.DIHEDRAL>
0

>  <SCORE.SYSTEM.SOLV>
0

>  <SCORE.SYSTEM.norm>
0

>  <SCORE.heavy>
22

>  <SCORE.norm>
-0.316398

>  <RMSD>
6.505

$$$$
ligand
 OpenBabel02271912143D
libRbt.so/2013.1/901 2013/11/27
 22 23  0  0  0  0  0  0  0  0999 V2000
  -28.5170    3.4337  -11.2331 N   0  0  0  0  0  0  0  0  0  0  0  0
  -30.7096    0.8991  -10.7628 C   0  0  1  0  0  0  0  0  0  0  0  0
  -30.3290    2.0476  -11.5727 O   0  0  0  0  0  0  0  0  0  0  0  0
  -33.2026    3.1165   -8.9805 P   0  0  1  0  0  0  0  0  0  0  0  0
  -28.8958    2.1474  -11.5575 C   0  0  2  0  0  0  0  0  0  0  0  0
  -28.4137    5.3483  -10.2159 N   0  0  0  0  0  0  0  0  0  0  0  0
  -27.1209    0.8528  -10.6248 O   0  0  0  0  0  0  0  0  0  0  0  0
  -28.4711    1.2891  -10.4288 C   0  0  2  0  0  0  0  0  0  0  0  0
  -26.6283    7.6284  -10.7688 N   0  0  0  0  0  0  0  0  0  0  0  0
  -29.1738   -0.7022  -11.5189 O   0  0  0  0  0  0  0  0  0  0  0  0
  -29.4450    0.2044  -10.4368 C   0  0  2  0  0  0  0  0  0  0  0  0
  -27.4811    5.3355  -11.1806 C   0  0  0  0  0  0  0  0  0  0  0  0
  -26.7098    3.7056  -12.8870 N   0  0  0  0  0  0  0  0  0  0  0  0
  -32.4171    2.2220  -10.0011 O   0  0  0  0  0  0  0  0  0  0  0  0
  -31.3739    1.4276   -9.5383 C   0  0  0  0  0  0  0  0  0  0  0  0
  -34.3162    3.7812   -9.8685 O   0  0  0  0  0  0  0  0  0  0  0  0
  -29.0601    4.1675  -10.2547 C   0  0  0  0  0  0  0  0  0  0  0  0
  -25.7245    6.3197  -12.3985 O   0  0  0  0  0  0  0  0  0  0  0  0
  -26.5523    6.4369  -11.4950 C   0  0  0  0  0  0  0  0  0  0  0  0
  -27.5380    4.1319  -11.8235 C   0  0  0  0  0  0  0  0  0  0  0  0
  -33.7215    2.2699   -7.8661 O   0  5  0  0  0  0  0  0  0  0  0  0
  -32.2846    4.0189   -8.2624 O   0  0  0  0  0  0  0  0  0  0  0  0
  1 17  1  0  0  0  0
  1 20  1  0  0  0  0
  2 15  1  1  0  0  0
  2  3  1  0  0  0  0
  2 11  1  0  0  0  0
  3  5  1  0  0  0  0
  4 16  1  6  0  0  0
  4 21  1  0  0  0  0
  4 22  2  0  0  0  0
  4 14  1  0  0  0  0
  5  1  1  1  0  0  0
  5  8  1  0  0  0  0
  6 17  2  0  0  0  0
  6 12  1  0  0  0  0
  8  7  1  6  0  0  0
  8 11  1  0  0  0  0
  9 19  1  0  0  0  0
 11 10  1  6  0  0  0
 12 20  2  0  0  0  0
 12 19  1  0  0  0  0
 13 20  1  0  0  0  0
 14 15  1  0  0  0  0
 18 19  2  0  0  0  0
M  CHG  1  21  -1
M  END
>  <CHROM.1>
44.07329574,55.87998907,-177.24831225,-170.81509122,-1.31213724,-29.75322002
3.13374575,-10.50381245,-0.35527340,-0.42274061,-3.02301353

>  <Name>
ligand

>  <RI>
0

>  <Rbt.Current_Directory>
/home/itssahil/PROJECTS/Mol_Feturizer/Test_systems_manuscript/rnas/4xwf

>  <Rbt.Executable>
rbdock ($Id: //depot/dev/client3/rdock/2013.1/src/exe/rbdock.cxx#4 $)

>  <Rbt.Library>
libRbt.so (2013.1, Build901 2013/11/27)

>  <Rbt.Parameter_File>
/export/apps/rDock/src/rDock_2013.1_src/data/scripts/dock_solv.prm

>  <Rbt.Receptor>
prm/pocket_docking_3.prm

>  <SCORE>
-6.62536

>  <SCORE.INTER>
-5.79439

>  <SCORE.INTER.CONST>
1

>  <SCORE.INTER.POLAR>
0

>  <SCORE.INTER.ROT>
5

>  <SCORE.INTER.SOLV>
10.3895

>  <SCORE.INTER.VDW>
-14.2594

>  <SCORE.INTER.norm>
-0.263382

>  <SCORE.INTRA>
-0.832914

>  <SCORE.INTRA.DIHEDRAL>
-1.54341

>  <SCORE.INTRA.DIHEDRAL.0>
3.49807

>  <SCORE.INTRA.POLAR>
0

>  <SCORE.INTRA.POLAR.0>
0

>  <SCORE.INTRA.REPUL>
0

>  <SCORE.INTRA.REPUL.0>
0

>  <SCORE.INTRA.SOLV>
0.421487

>  <SCORE.INTRA.SOLV.lig_0>
-73.062

>  <SCORE.INTRA.VDW>
-0.271952

>  <SCORE.INTRA.VDW.0>
-1.83782

>  <SCORE.INTRA.norm>
-0.0378597

>  <SCORE.RESTR>
0.00194685

>  <SCORE.RESTR.CAVITY>
0.00194685

>  <SCORE.RESTR.norm>
8.84932e-05

>  <SCORE.SYSTEM>
0

>  <SCORE.SYSTEM.CONST>
0

>  <SCORE.SYSTEM.DIHEDRAL>
0

>  <SCORE.SYSTEM.SOLV>
0

>  <SCORE.SYSTEM.norm>
0

>  <SCORE.heavy>
22

>  <SCORE.norm>
-0.301153

>  <RMSD>
6.506

$$$$
ligand
 OpenBabel02271912143D
libRbt.so/2013.1/901 2013/11/27
 22 23  0  0  0  0  0  0  0  0999 V2000
  -30.5274    4.0838   -9.1965 N   0  0  0  0  0  0  0  0  0  0  0  0
  -31.2252    0.9529  -10.2748 C   0  0  1  0  0  0  0  0  0  0  0  0
  -30.4531    1.7845   -9.3627 O   0  0  0  0  0  0  0  0  0  0  0  0
  -28.4222    0.2295  -12.7132 P   0  0  1  0  0  0  0  0  0  0  0  0
  -31.2541    2.9254   -9.0147 C   0  0  2  0  0  0  0  0  0  0  0  0
  -29.0488    5.4823   -9.9507 N   0  0  0  0  0  0  0  0  0  0  0  0
  -33.4753    3.6454   -9.5086 O   0  0  0  0  0  0  0  0  0  0  0  0
  -32.3359    2.9474  -10.0247 C   0  0  2  0  0  0  0  0  0  0  0  0
  -29.3748    7.8994   -7.4076 N   0  0  0  0  0  0  0  0  0  0  0  0
  -33.3102    0.9415   -9.2037 O   0  0  0  0  0  0  0  0  0  0  0  0
  -32.5845    1.5362  -10.2927 C   0  0  2  0  0  0  0  0  0  0  0  0
  -29.8425    6.1362   -9.0887 C   0  0  0  0  0  0  0  0  0  0  0  0
  -31.8162    5.5571   -7.6985 N   0  0  0  0  0  0  0  0  0  0  0  0
  -29.4496    0.2310  -11.5287 O   0  0  0  0  0  0  0  0  0  0  0  0
  -30.5730    1.0464  -11.6112 C   0  0  0  0  0  0  0  0  0  0  0  0
  -28.0190   -1.2846  -12.8369 O   0  0  0  0  0  0  0  0  0  0  0  0
  -29.4728    4.2056  -10.0111 C   0  0  0  0  0  0  0  0  0  0  0  0
  -29.9423    8.4425   -9.5450 O   0  0  0  0  0  0  0  0  0  0  0  0
  -29.7233    7.5583   -8.7172 C   0  0  0  0  0  0  0  0  0  0  0  0
  -30.7780    5.2628   -8.6119 C   0  0  0  0  0  0  0  0  0  0  0  0
  -29.0621    0.8024  -13.9340 O   0  5  0  0  0  0  0  0  0  0  0  0
  -27.3388    1.1980  -12.4661 O   0  0  0  0  0  0  0  0  0  0  0  0
  1 17  1  0  0  0  0
  1 20  1  0  0  0  0
  2 15  1  6  0  0  0
  2  3  1  0  0  0  0
  2 11  1  0  0  0  0
  3  5  1  0  0  0  0
  4 16  1  6  0  0  0
  4 21  1  0  0  0  0
  4 22  2  0  0  0  0
  4 14  1  0  0  0  0
  5  1  1  6  0  0  0
  5  8  1  0  0  0  0
  6 17  2  0  0  0  0
  6 12  1  0  0  0  0
  8  7  1  1  0  0  0
  8 11  1  0  0  0  0
  9 19  1  0  0  0  0
 11 10  1  1  0  0  0
 12 20  2  0  0  0  0
 12 19  1  0  0  0  0
 13 20  1  0  0  0  0
 14 15  1  0  0  0  0
 18 19  2  0  0  0  0
M  CHG  1  21  -1
M  END
>  <CHROM.1>
23.04579166,76.95839335,-140.47566977,-172.55527362,-113.89333434,-30.24563977
2.98802872,-10.34120080,1.79073427,0.48914417,0.42886252

>  <Name>
ligand

>  <RI>
0

>  <Rbt.Current_Directory>
/home/itssahil/PROJECTS/Mol_Feturizer/Test_systems_manuscript/rnas/4xwf

>  <Rbt.Executable>
rbdock ($Id: //depot/dev/client3/rdock/2013.1/src/exe/rbdock.cxx#4 $)

>  <Rbt.Library>
libRbt.so (2013.1, Build901 2013/11/27)

>  <Rbt.Parameter_File>
/export/apps/rDock/src/rDock_2013.1_src/data/scripts/dock_solv.prm

>  <Rbt.Receptor>
prm/pocket_docking_6.prm

>  <SCORE>
-7.73469

>  <SCORE.INTER>
-8.58028

>  <SCORE.INTER.CONST>
1

>  <SCORE.INTER.POLAR>
0

>  <SCORE.INTER.ROT>
5

>  <SCORE.INTER.SOLV>
14.3927

>  <SCORE.INTER.VDW>
-17.4511

>  <SCORE.INTER.norm>
-0.390013

>  <SCORE.INTRA>
0.845586

>  <SCORE.INTRA.DIHEDRAL>
0.950641

>  <SCORE.INTRA.DIHEDRAL.0>
3.49807

>  <SCORE.INTRA.POLAR>
0

>  <SCORE.INTRA.POLAR.0>
0

>  <SCORE.INTRA.REPUL>
0

>  <SCORE.INTRA.REPUL.0>
0

>  <SCORE.INTRA.SOLV>
0.879672

>  <SCORE.INTRA.SOLV.lig_0>
-73.062

>  <SCORE.INTRA.VDW>
-0.0695702

>  <SCORE.INTRA.VDW.0>
-1.83782

>  <SCORE.INTRA.norm>
0.0384357

>  <SCORE.RESTR>
0

>  <SCORE.RESTR.CAVITY>
0

>  <SCORE.RESTR.norm>
0

>  <SCORE.SYSTEM>
0

>  <SCORE.SYSTEM.CONST>
0

>  <SCORE.SYSTEM.DIHEDRAL>
0

>  <SCORE.SYSTEM.SOLV>
0

>  <SCORE.SYSTEM.norm>
0

>  <SCORE.heavy>
22

>  <SCORE.norm>
-0.351577

>  <RMSD>
6.510

$$$$
ligand
 OpenBabel02271912143D
libRbt.so/2013.1/901 2013/11/27
 22 23  0  0  0  0  0  0  0  0999 V2000
  -29.9419    4.2753   -9.1106 N   0  0  0  0  0  0  0  0  0  0  0  0
  -31.4684    1.2560   -9.0315 C   0  0  1  0  0  0  0  0  0  0  0  0
  -30.5032    2.1509   -8.4092 O   0  0  0  0  0  0  0  0  0  0  0  0
  -29.3413    1.4472  -12.1607 P   0  0  1  0  0  0  0  0  0  0  0  0
  -30.9611    3.4997   -8.5978 C   0  0  2  0  0  0  0  0  0  0  0  0
  -28.4988    5.1119  -10.4992 N   0  0  0  0  0  0  0  0  0  0  0  0
  -32.8943    4.5085   -9.5677 O   0  0  0  0  0  0  0  0  0  0  0  0
  -31.9880    3.4032   -9.6594 C   0  0  2  0  0  0  0  0  0  0  0  0
  -26.4214    6.6862   -8.1454 N   0  0  0  0  0  0  0  0  0  0  0  0
  -33.4830    2.1832   -8.2723 O   0  0  0  0  0  0  0  0  0  0  0  0
  -32.6141    2.1096   -9.4151 C   0  0  2  0  0  0  0  0  0  0  0  0
  -28.3976    5.7773   -9.3383 C   0  0  0  0  0  0  0  0  0  0  0  0
  -29.5370    5.6916   -7.1342 N   0  0  0  0  0  0  0  0  0  0  0  0
  -30.2030    1.7285  -10.8812 O   0  0  0  0  0  0  0  0  0  0  0  0
  -30.8067    0.6606  -10.2263 C   0  0  0  0  0  0  0  0  0  0  0  0
  -30.3917    0.8805  -13.1834 O   0  0  0  0  0  0  0  0  0  0  0  0
  -29.4550    4.1751  -10.3529 C   0  0  0  0  0  0  0  0  0  0  0  0
  -27.5996    7.9746   -9.6075 O   0  0  0  0  0  0  0  0  0  0  0  0
  -27.4619    6.8820   -9.0576 C   0  0  0  0  0  0  0  0  0  0  0  0
  -29.3053    5.2581   -8.4598 C   0  0  0  0  0  0  0  0  0  0  0  0
  -28.6661    2.7045  -12.5980 O   0  5  0  0  0  0  0  0  0  0  0  0
  -28.1869    0.5904  -11.8351 O   0  0  0  0  0  0  0  0  0  0  0  0
  1 17  1  0  0  0  0
  1 20  1  0  0  0  0
  2 15  1  6  0  0  0
  2  3  1  0  0  0  0
  2 11  1  0  0  0  0
  3  5  1  0  0  0  0
  4 16  1  6  0  0  0
  4 21  1  0  0  0  0
  4 22  2  0  0  0  0
  4 14  1  0  0  0  0
  5  1  1  6  0  0  0
  5  8  1  0  0  0  0
  6 17  2  0  0  0  0
  6 12  1  0  0  0  0
  8  7  1  1  0  0  0
  8 11  1  0  0  0  0
  9 19  1  0  0  0  0
 11 10  1  1  0  0  0
 12 20  2  0  0  0  0
 12 19  1  0  0  0  0
 13 20  1  0  0  0  0
 14 15  1  0  0  0  0
 18 19  2  0  0  0  0
M  CHG  1  21  -1
M  END
>  <CHROM.1>
70.33814887,-46.38405310,64.13864484,176.81435435,-111.95144690,-29.90954372
3.40736195,-9.97491690,1.05616757,0.54469708,0.68711217

>  <Name>
ligand

>  <RI>
0

>  <Rbt.Current_Directory>
/home/itssahil/PROJECTS/Mol_Feturizer/Test_systems_manuscript/rnas/4xwf

>  <Rbt.Executable>
rbdock ($Id: //depot/dev/client3/rdock/2013.1/src/exe/rbdock.cxx#4 $)

>  <Rbt.Library>
libRbt.so (2013.1, Build901 2013/11/27)

>  <Rbt.Parameter_File>
/export/apps/rDock/src/rDock_2013.1_src/data/scripts/dock_solv.prm

>  <Rbt.Receptor>
prm/pocket_docking_5.prm

>  <SCORE>
-3.5005

>  <SCORE.INTER>
-4.38424

>  <SCORE.INTER.CONST>
1

>  <SCORE.INTER.POLAR>
0

>  <SCORE.INTER.ROT>
5

>  <SCORE.INTER.SOLV>
9.04764

>  <SCORE.INTER.VDW>
-12.872

>  <SCORE.INTER.norm>
-0.199284

>  <SCORE.INTRA>
0.883743

>  <SCORE.INTRA.DIHEDRAL>
-1.16395

>  <SCORE.INTRA.DIHEDRAL.0>
3.49807

>  <SCORE.INTRA.POLAR>
0

>  <SCORE.INTRA.POLAR.0>
0

>  <SCORE.INTRA.REPUL>
0

>  <SCORE.INTRA.REPUL.0>
0

>  <SCORE.INTRA.SOLV>
0.8701

>  <SCORE.INTRA.SOLV.lig_0>
-73.062

>  <SCORE.INTRA.VDW>
1.03067

>  <SCORE.INTRA.VDW.0>
-1.83782

>  <SCORE.INTRA.norm>
0.0401701

>  <SCORE.RESTR>
0

>  <SCORE.RESTR.CAVITY>
0

>  <SCORE.RESTR.norm>
0

>  <SCORE.SYSTEM>
0

>  <SCORE.SYSTEM.CONST>
0

>  <SCORE.SYSTEM.DIHEDRAL>
0

>  <SCORE.SYSTEM.SOLV>
0

>  <SCORE.SYSTEM.norm>
0

>  <SCORE.heavy>
22

>  <SCORE.norm>
-0.159114

>  <RMSD>
6.512

$$$$
ligand
 OpenBabel02271912143D
libRbt.so/2013.1/901 2013/11/27
 22 23  0  0  0  0  0  0  0  0999 V2000
  -28.5604    3.4690  -11.1555 N   0  0  0  0  0  0  0  0  0  0  0  0
  -30.7118    0.8743  -10.8532 C   0  0  1  0  0  0  0  0  0  0  0  0
  -30.3342    2.0642  -11.6025 O   0  0  0  0  0  0  0  0  0  0  0  0
  -33.1737    3.0913   -9.0386 P   0  0  1  0  0  0  0  0  0  0  0  0
  -28.9042    2.1910  -11.5449 C   0  0  2  0  0  0  0  0  0  0  0  0
  -28.5654    5.3633  -10.0958 N   0  0  0  0  0  0  0  0  0  0  0  0
  -27.1277    0.8917  -10.6219 O   0  0  0  0  0  0  0  0  0  0  0  0
  -28.4911    1.2928  -10.4434 C   0  0  2  0  0  0  0  0  0  0  0  0
  -25.2317    6.2796  -10.7889 N   0  0  0  0  0  0  0  0  0  0  0  0
  -29.1244   -0.6624  -11.6364 O   0  0  0  0  0  0  0  0  0  0  0  0
  -29.4419    0.1907  -10.5239 C   0  0  2  0  0  0  0  0  0  0  0  0
  -27.5319    5.3647  -10.9517 C   0  0  0  0  0  0  0  0  0  0  0  0
  -26.5807    3.7643  -12.5941 N   0  0  0  0  0  0  0  0  0  0  0  0
  -32.4159    2.1930  -10.0765 O   0  0  0  0  0  0  0  0  0  0  0  0
  -31.4181    1.3359   -9.6252 C   0  0  0  0  0  0  0  0  0  0  0  0
  -34.2868    3.7823   -9.9071 O   0  0  0  0  0  0  0  0  0  0  0  0
  -29.2064    4.1865  -10.2290 C   0  0  0  0  0  0  0  0  0  0  0  0
  -26.9427    7.5522  -11.5881 O   0  0  0  0  0  0  0  0  0  0  0  0
  -26.5712    6.4676  -11.1399 C   0  0  0  0  0  0  0  0  0  0  0  0
  -27.5203    4.1739  -11.6204 C   0  0  0  0  0  0  0  0  0  0  0  0
  -33.6932    2.2437   -7.9253 O   0  5  0  0  0  0  0  0  0  0  0  0
  -32.2321    3.9720   -8.3241 O   0  0  0  0  0  0  0  0  0  0  0  0
  1 17  1  0  0  0  0
  1 20  1  0  0  0  0
  2 15  1  1  0  0  0
  2  3  1  0  0  0  0
  2 11  1  0  0  0  0
  3  5  1  0  0  0  0
  4 16  1  6  0  0  0
  4 21  1  0  0  0  0
  4 22  2  0  0  0  0
  4 14  1  0  0  0  0
  5  1  1  1  0  0  0
  5  8  1  0  0  0  0
  6 17  2  0  0  0  0
  6 12  1  0  0  0  0
  8  7  1  6  0  0  0
  8 11  1  0  0  0  0
  9 19  1  0  0  0  0
 11 10  1  6  0  0  0
 12 20  2  0  0  0  0
 12 19  1  0  0  0  0
 13 20  1  0  0  0  0
 14 15  1  0  0  0  0
 18 19  2  0  0  0  0
M  CHG  1  21  -1
M  END
>  <CHROM.1>
38.86233255,52.43886523,-174.59267164,-167.74185404,114.28787854,-29.75607417
3.13909712,-10.44945381,-0.37512211,-0.37616263,-2.99970089

>  <Name>
ligand

>  <RI>
0

>  <Rbt.Current_Directory>
/home/itssahil/PROJECTS/Mol_Feturizer/Test_systems_manuscript/rnas/4xwf

>  <Rbt.Executable>
rbdock ($Id: //depot/dev/client3/rdock/2013.1/src/exe/rbdock.cxx#4 $)

>  <Rbt.Library>
libRbt.so (2013.1, Build901 2013/11/27)

>  <Rbt.Parameter_File>
/export/apps/rDock/src/rDock_2013.1_src/data/scripts/dock_solv.prm

>  <Rbt.Receptor>
prm/pocket_docking_3.prm

>  <SCORE>
-6.7827

>  <SCORE.INTER>
-6.116

>  <SCORE.INTER.CONST>
1

>  <SCORE.INTER.POLAR>
0

>  <SCORE.INTER.ROT>
5

>  <SCORE.INTER.SOLV>
10.4766

>  <SCORE.INTER.VDW>
-14.5029

>  <SCORE.INTER.norm>
-0.278

>  <SCORE.INTRA>
-0.668348

>  <SCORE.INTRA.DIHEDRAL>
-1.05262

>  <SCORE.INTRA.DIHEDRAL.0>
3.49807

>  <SCORE.INTRA.POLAR>
0

>  <SCORE.INTRA.POLAR.0>
0

>  <SCORE.INTRA.REPUL>
0

>  <SCORE.INTRA.REPUL.0>
0

>  <SCORE.INTRA.SOLV>
0.746066

>  <SCORE.INTRA.SOLV.lig_0>
-73.062

>  <SCORE.INTRA.VDW>
-0.51507

>  <SCORE.INTRA.VDW.0>
-1.83782

>  <SCORE.INTRA.norm>
-0.0303795

>  <SCORE.RESTR>
0.00164813

>  <SCORE.RESTR.CAVITY>
0.00164813

>  <SCORE.RESTR.norm>
7.4915e-05

>  <SCORE.SYSTEM>
0

>  <SCORE.SYSTEM.CONST>
0

>  <SCORE.SYSTEM.DIHEDRAL>
0

>  <SCORE.SYSTEM.SOLV>
0

>  <SCORE.SYSTEM.norm>
0

>  <SCORE.heavy>
22

>  <SCORE.norm>
-0.308305

>  <RMSD>
6.515

$$$$
ligand
 OpenBabel02271912143D
libRbt.so/2013.1/901 2013/11/27
 22 23  0  0  0  0  0  0  0  0999 V2000
  -32.0342    4.9465   -8.4902 N   0  0  0  0  0  0  0  0  0  0  0  0
  -31.0348    1.8925   -9.5517 C   0  0  1  0  0  0  0  0  0  0  0  0
  -30.9959    2.8870   -8.4890 O   0  0  0  0  0  0  0  0  0  0  0  0
  -28.7637    1.2844  -12.5157 P   0  0  1  0  0  0  0  0  0  0  0  0
  -32.2521    3.5843   -8.4861 C   0  0  2  0  0  0  0  0  0  0  0  0
  -31.1148    6.8771   -8.8626 N   0  0  0  0  0  0  0  0  0  0  0  0
  -34.2908    3.3999   -9.7131 O   0  0  0  0  0  0  0  0  0  0  0  0
  -32.8679    3.2552   -9.7912 C   0  0  2  0  0  0  0  0  0  0  0  0
  -33.2990    8.5982   -6.5520 N   0  0  0  0  0  0  0  0  0  0  0  0
  -33.1626    0.9690   -9.2139 O   0  0  0  0  0  0  0  0  0  0  0  0
  -32.4304    1.8876  -10.0424 C   0  0  2  0  0  0  0  0  0  0  0  0
  -32.2814    7.0832   -8.2323 C   0  0  0  0  0  0  0  0  0  0  0  0
  -34.1173    5.6486   -7.3752 N   0  0  0  0  0  0  0  0  0  0  0  0
  -29.8781    1.2292  -11.4140 O   0  0  0  0  0  0  0  0  0  0  0  0
  -30.0859    2.3434  -10.6083 C   0  0  0  0  0  0  0  0  0  0  0  0
  -27.4911    1.7444  -11.7162 O   0  0  0  0  0  0  0  0  0  0  0  0
  -30.9609    5.5481   -9.0162 C   0  0  0  0  0  0  0  0  0  0  0  0
  -32.9073    9.3069   -8.6803 O   0  0  0  0  0  0  0  0  0  0  0  0
  -32.8360    8.3964   -7.8550 C   0  0  0  0  0  0  0  0  0  0  0  0
  -32.8676    5.8723   -7.9971 C   0  0  0  0  0  0  0  0  0  0  0  0
  -28.6362   -0.0518  -13.1686 O   0  5  0  0  0  0  0  0  0  0  0  0
  -29.1898    2.1265  -13.6480 O   0  0  0  0  0  0  0  0  0  0  0  0
  1 17  1  0  0  0  0
  1 20  1  0  0  0  0
  2 15  1  6  0  0  0
  2  3  1  0  0  0  0
  2 11  1  0  0  0  0
  3  5  1  0  0  0  0
  4 16  1  1  0  0  0
  4 21  1  0  0  0  0
  4 22  2  0  0  0  0
  4 14  1  0  0  0  0
  5  1  1  6  0  0  0
  5  8  1  0  0  0  0
  6 17  2  0  0  0  0
  6 12  1  0  0  0  0
  8  7  1  1  0  0  0
  8 11  1  0  0  0  0
  9 19  1  0  0  0  0
 11 10  1  1  0  0  0
 12 20  2  0  0  0  0
 12 19  1  0  0  0  0
 13 20  1  0  0  0  0
 14 15  1  0  0  0  0
 18 19  2  0  0  0  0
M  CHG  1  21  -1
M  END
>  <CHROM.1>
28.30217258,164.54722776,52.43671877,-171.21233540,-130.70871582,-31.32144813
3.78233711,-9.84937812,2.15429716,0.59812211,0.25726334

>  <Name>
ligand

>  <RI>
0

>  <Rbt.Current_Directory>
/home/itssahil/PROJECTS/Mol_Feturizer/Test_systems_manuscript/rnas/4xwf

>  <Rbt.Executable>
rbdock ($Id: //depot/dev/client3/rdock/2013.1/src/exe/rbdock.cxx#4 $)

>  <Rbt.Library>
libRbt.so (2013.1, Build901 2013/11/27)

>  <Rbt.Parameter_File>
/export/apps/rDock/src/rDock_2013.1_src/data/scripts/dock_solv.prm

>  <Rbt.Receptor>
prm/pocket_docking_7.prm

>  <SCORE>
-6.36455

>  <SCORE.INTER>
-5.88569

>  <SCORE.INTER.CONST>
1

>  <SCORE.INTER.POLAR>
0

>  <SCORE.INTER.ROT>
5

>  <SCORE.INTER.SOLV>
16.5417

>  <SCORE.INTER.VDW>
-16.371

>  <SCORE.INTER.norm>
-0.267531

>  <SCORE.INTRA>
-0.478862

>  <SCORE.INTRA.DIHEDRAL>
-0.627711

>  <SCORE.INTRA.DIHEDRAL.0>
3.49807

>  <SCORE.INTRA.POLAR>
0

>  <SCORE.INTRA.POLAR.0>
0

>  <SCORE.INTRA.REPUL>
0

>  <SCORE.INTRA.REPUL.0>
0

>  <SCORE.INTRA.SOLV>
0.0593336

>  <SCORE.INTRA.SOLV.lig_0>
-73.062

>  <SCORE.INTRA.VDW>
-0.194673

>  <SCORE.INTRA.VDW.0>
-1.83782

>  <SCORE.INTRA.norm>
-0.0217664

>  <SCORE.RESTR>
0

>  <SCORE.RESTR.CAVITY>
0

>  <SCORE.RESTR.norm>
0

>  <SCORE.SYSTEM>
0

>  <SCORE.SYSTEM.CONST>
0

>  <SCORE.SYSTEM.DIHEDRAL>
0

>  <SCORE.SYSTEM.SOLV>
0

>  <SCORE.SYSTEM.norm>
0

>  <SCORE.heavy>
22

>  <SCORE.norm>
-0.289298

>  <RMSD>
6.515

$$$$
ligand
 OpenBabel02271912143D
libRbt.so/2013.1/901 2013/11/27
 22 23  0  0  0  0  0  0  0  0999 V2000
  -30.5556    4.0558   -9.1710 N   0  0  0  0  0  0  0  0  0  0  0  0
  -31.2655    0.9189  -10.2239 C   0  0  1  0  0  0  0  0  0  0  0  0
  -30.4813    1.7558   -9.3270 O   0  0  0  0  0  0  0  0  0  0  0  0
  -28.4447    0.3012  -12.6758 P   0  0  1  0  0  0  0  0  0  0  0  0
  -31.2785    2.8975   -8.9731 C   0  0  2  0  0  0  0  0  0  0  0  0
  -29.0743    5.4455   -9.9361 N   0  0  0  0  0  0  0  0  0  0  0  0
  -33.5072    3.6129   -9.4386 O   0  0  0  0  0  0  0  0  0  0  0  0
  -32.3746    2.9136   -9.9676 C   0  0  2  0  0  0  0  0  0  0  0  0
  -28.7903    8.3247   -9.3678 N   0  0  0  0  0  0  0  0  0  0  0  0
  -33.3349    0.9107   -9.1229 O   0  0  0  0  0  0  0  0  0  0  0  0
  -32.6256    1.5008  -10.2251 C   0  0  2  0  0  0  0  0  0  0  0  0
  -29.8836    6.1140   -9.1002 C   0  0  0  0  0  0  0  0  0  0  0  0
  -31.8734    5.5550   -7.7248 N   0  0  0  0  0  0  0  0  0  0  0  0
  -29.4244    0.3285  -11.4518 O   0  0  0  0  0  0  0  0  0  0  0  0
  -30.6327    1.0066  -11.5700 C   0  0  0  0  0  0  0  0  0  0  0  0
  -28.1143   -1.2270  -12.8370 O   0  0  0  0  0  0  0  0  0  0  0  0
  -29.4904    4.1653   -9.9734 C   0  0  0  0  0  0  0  0  0  0  0  0
  -30.5392    8.0506   -7.9353 O   0  0  0  0  0  0  0  0  0  0  0  0
  -29.7775    7.5448   -8.7593 C   0  0  0  0  0  0  0  0  0  0  0  0
  -30.8209    5.2462   -8.6167 C   0  0  0  0  0  0  0  0  0  0  0  0
  -29.1054    0.9211  -13.8620 O   0  5  0  0  0  0  0  0  0  0  0  0
  -27.3106    1.2171  -12.4577 O   0  0  0  0  0  0  0  0  0  0  0  0
  1 17  1  0  0  0  0
  1 20  1  0  0  0  0
  2 15  1  6  0  0  0
  2  3  1  0  0  0  0
  2 11  1  0  0  0  0
  3  5  1  0  0  0  0
  4 16  1  6  0  0  0
  4 21  1  0  0  0  0
  4 22  2  0  0  0  0
  4 14  1  0  0  0  0
  5  1  1  6  0  0  0
  5  8  1  0  0  0  0
  6 17  2  0  0  0  0
  6 12  1  0  0  0  0
  8  7  1  1  0  0  0
  8 11  1  0  0  0  0
  9 19  1  0  0  0  0
 11 10  1  1  0  0  0
 12 20  2  0  0  0  0
 12 19  1  0  0  0  0
 13 20  1  0  0  0  0
 14 15  1  0  0  0  0
 18 19  2  0  0  0  0
M  CHG  1  21  -1
M  END
>  <CHROM.1>
21.11381841,69.85196165,-129.12825513,-176.18099374,2.24432454,-30.27882798
2.99048510,-10.31596688,1.80358916,0.50267122,0.41777209

>  <Name>
ligand

>  <RI>
0

>  <Rbt.Current_Directory>
/home/itssahil/PROJECTS/Mol_Feturizer/Test_systems_manuscript/rnas/4xwf

>  <Rbt.Executable>
rbdock ($Id: //depot/dev/client3/rdock/2013.1/src/exe/rbdock.cxx#4 $)

>  <Rbt.Library>
libRbt.so (2013.1, Build901 2013/11/27)

>  <Rbt.Parameter_File>
/export/apps/rDock/src/rDock_2013.1_src/data/scripts/dock_solv.prm

>  <Rbt.Receptor>
prm/pocket_docking_8.prm

>  <SCORE>
-7.54929

>  <SCORE.INTER>
-8.5037

>  <SCORE.INTER.CONST>
1

>  <SCORE.INTER.POLAR>
0

>  <SCORE.INTER.ROT>
5

>  <SCORE.INTER.SOLV>
14.1238

>  <SCORE.INTER.VDW>
-17.3104

>  <SCORE.INTER.norm>
-0.386532

>  <SCORE.INTRA>
0.954415

>  <SCORE.INTRA.DIHEDRAL>
0.602665

>  <SCORE.INTRA.DIHEDRAL.0>
3.49807

>  <SCORE.INTRA.POLAR>
0

>  <SCORE.INTRA.POLAR.0>
0

>  <SCORE.INTRA.REPUL>
0

>  <SCORE.INTRA.REPUL.0>
0

>  <SCORE.INTRA.SOLV>
0.869875

>  <SCORE.INTRA.SOLV.lig_0>
-73.062

>  <SCORE.INTRA.VDW>
0.218144

>  <SCORE.INTRA.VDW.0>
-1.83782

>  <SCORE.INTRA.norm>
0.0433825

>  <SCORE.RESTR>
0

>  <SCORE.RESTR.CAVITY>
0

>  <SCORE.RESTR.norm>
0

>  <SCORE.SYSTEM>
0

>  <SCORE.SYSTEM.CONST>
0

>  <SCORE.SYSTEM.DIHEDRAL>
0

>  <SCORE.SYSTEM.SOLV>
0

>  <SCORE.SYSTEM.norm>
0

>  <SCORE.heavy>
22

>  <SCORE.norm>
-0.34315

>  <RMSD>
6.515

$$$$
ligand
 OpenBabel02271912143D
libRbt.so/2013.1/901 2013/11/27
 22 23  0  0  0  0  0  0  0  0999 V2000
  -28.5367    3.4597  -11.1647 N   0  0  0  0  0  0  0  0  0  0  0  0
  -30.6805    0.8575  -10.8736 C   0  0  1  0  0  0  0  0  0  0  0  0
  -30.3113    2.0563  -11.6128 O   0  0  0  0  0  0  0  0  0  0  0  0
  -33.1495    3.0326   -9.0177 P   0  0  1  0  0  0  0  0  0  0  0  0
  -28.8811    2.1854  -11.5653 C   0  0  2  0  0  0  0  0  0  0  0  0
  -28.5414    5.3450  -10.0891 N   0  0  0  0  0  0  0  0  0  0  0  0
  -27.0947    0.8796  -10.6712 O   0  0  0  0  0  0  0  0  0  0  0  0
  -28.4574    1.2759  -10.4772 C   0  0  2  0  0  0  0  0  0  0  0  0
  -25.1990    6.2523  -10.8026 N   0  0  0  0  0  0  0  0  0  0  0  0
  -29.0966   -0.6673  -11.6865 O   0  0  0  0  0  0  0  0  0  0  0  0
  -29.4067    0.1729  -10.5621 C   0  0  2  0  0  0  0  0  0  0  0  0
  -27.5065    5.3525  -10.9432 C   0  0  0  0  0  0  0  0  0  0  0  0
  -26.5543    3.7650  -12.5974 N   0  0  0  0  0  0  0  0  0  0  0  0
  -32.3910    2.1514  -10.0698 O   0  0  0  0  0  0  0  0  0  0  0  0
  -31.3777    1.3041   -9.6349 C   0  0  0  0  0  0  0  0  0  0  0  0
  -34.2641    3.7353   -9.8748 O   0  0  0  0  0  0  0  0  0  0  0  0
  -29.1835    4.1700  -10.2332 C   0  0  0  0  0  0  0  0  0  0  0  0
  -26.9196    7.5543  -11.5308 O   0  0  0  0  0  0  0  0  0  0  0  0
  -26.5445    6.4560  -11.1206 C   0  0  0  0  0  0  0  0  0  0  0  0
  -27.4951    4.1674  -11.6220 C   0  0  0  0  0  0  0  0  0  0  0  0
  -33.6672    2.1671   -7.9173 O   0  5  0  0  0  0  0  0  0  0  0  0
  -32.2088    3.9034   -8.2902 O   0  0  0  0  0  0  0  0  0  0  0  0
  1 17  1  0  0  0  0
  1 20  1  0  0  0  0
  2 15  1  1  0  0  0
  2  3  1  0  0  0  0
  2 11  1  0  0  0  0
  3  5  1  0  0  0  0
  4 16  1  6  0  0  0
  4 21  1  0  0  0  0
  4 22  2  0  0  0  0
  4 14  1  0  0  0  0
  5  1  1  1  0  0  0
  5  8  1  0  0  0  0
  6 17  2  0  0  0  0
  6 12  1  0  0  0  0
  8  7  1  6  0  0  0
  8 11  1  0  0  0  0
  9 19  1  0  0  0  0
 11 10  1  6  0  0  0
 12 20  2  0  0  0  0
 12 19  1  0  0  0  0
 13 20  1  0  0  0  0
 14 15  1  0  0  0  0
 18 19  2  0  0  0  0
M  CHG  1  21  -1
M  END
>  <CHROM.1>
38.25779359,53.13397313,-175.57217052,-167.88791223,115.98870319,-29.72909189
3.11346989,-10.45100998,-0.37449853,-0.38202726,-2.98795793

>  <Name>
ligand

>  <RI>
0

>  <Rbt.Current_Directory>
/home/itssahil/PROJECTS/Mol_Feturizer/Test_systems_manuscript/rnas/4xwf

>  <Rbt.Executable>
rbdock ($Id: //depot/dev/client3/rdock/2013.1/src/exe/rbdock.cxx#4 $)

>  <Rbt.Library>
libRbt.so (2013.1, Build901 2013/11/27)

>  <Rbt.Parameter_File>
/export/apps/rDock/src/rDock_2013.1_src/data/scripts/dock_solv.prm

>  <Rbt.Receptor>
prm/pocket_docking_3.prm

>  <SCORE>
-6.77466

>  <SCORE.INTER>
-6.06846

>  <SCORE.INTER.CONST>
1

>  <SCORE.INTER.POLAR>
0

>  <SCORE.INTER.ROT>
5

>  <SCORE.INTER.SOLV>
10.1789

>  <SCORE.INTER.VDW>
-14.372

>  <SCORE.INTER.norm>
-0.275839

>  <SCORE.INTRA>
-0.71101

>  <SCORE.INTRA.DIHEDRAL>
-1.13146

>  <SCORE.INTRA.DIHEDRAL.0>
3.49807

>  <SCORE.INTRA.POLAR>
0

>  <SCORE.INTRA.POLAR.0>
0

>  <SCORE.INTRA.REPUL>
0

>  <SCORE.INTRA.REPUL.0>
0

>  <SCORE.INTRA.SOLV>
0.761792

>  <SCORE.INTRA.SOLV.lig_0>
-73.062

>  <SCORE.INTRA.VDW>
-0.526176

>  <SCORE.INTRA.VDW.0>
-1.83782

>  <SCORE.INTRA.norm>
-0.0323186

>  <SCORE.RESTR>
0.00481269

>  <SCORE.RESTR.CAVITY>
0.00481269

>  <SCORE.RESTR.norm>
0.000218758

>  <SCORE.SYSTEM>
0

>  <SCORE.SYSTEM.CONST>
0

>  <SCORE.SYSTEM.DIHEDRAL>
0

>  <SCORE.SYSTEM.SOLV>
0

>  <SCORE.SYSTEM.norm>
0

>  <SCORE.heavy>
22

>  <SCORE.norm>
-0.307939

>  <RMSD>
6.518

$$$$
ligand
 OpenBabel02271912143D
libRbt.so/2013.1/901 2013/11/27
 22 23  0  0  0  0  0  0  0  0999 V2000
  -28.5117    3.4518  -11.2373 N   0  0  0  0  0  0  0  0  0  0  0  0
  -30.6972    0.8974  -10.8491 C   0  0  1  0  0  0  0  0  0  0  0  0
  -30.2950    2.0475  -11.6462 O   0  0  0  0  0  0  0  0  0  0  0  0
  -33.2715    3.1052   -9.1711 P   0  0  1  0  0  0  0  0  0  0  0  0
  -28.8646    2.1611  -11.5730 C   0  0  2  0  0  0  0  0  0  0  0  0
  -28.4483    5.3600  -10.2048 N   0  0  0  0  0  0  0  0  0  0  0  0
  -27.1169    0.8862  -10.5652 O   0  0  0  0  0  0  0  0  0  0  0  0
  -28.4780    1.3099  -10.4255 C   0  0  2  0  0  0  0  0  0  0  0  0
  -26.7612    7.7074  -10.7936 N   0  0  0  0  0  0  0  0  0  0  0  0
  -29.1167   -0.6909  -11.5373 O   0  0  0  0  0  0  0  0  0  0  0  0
  -29.4403    0.2158  -10.4698 C   0  0  2  0  0  0  0  0  0  0  0  0
  -27.5127    5.3728  -11.1667 C   0  0  0  0  0  0  0  0  0  0  0  0
  -26.7050    3.7716  -12.8834 N   0  0  0  0  0  0  0  0  0  0  0  0
  -32.4320    2.2253  -10.1609 O   0  0  0  0  0  0  0  0  0  0  0  0
  -31.4158    1.4226   -9.6541 C   0  0  0  0  0  0  0  0  0  0  0  0
  -34.4720    3.5974  -10.0582 O   0  0  0  0  0  0  0  0  0  0  0  0
  -29.0717    4.1673  -10.2550 C   0  0  0  0  0  0  0  0  0  0  0  0
  -25.7229    6.3743  -12.3202 O   0  0  0  0  0  0  0  0  0  0  0  0
  -26.6044    6.4943  -11.4695 C   0  0  0  0  0  0  0  0  0  0  0  0
  -27.5445    4.1734  -11.8192 C   0  0  0  0  0  0  0  0  0  0  0  0
  -33.6696    2.2883   -7.9870 O   0  5  0  0  0  0  0  0  0  0  0  0
  -32.4268    4.1387   -8.5459 O   0  0  0  0  0  0  0  0  0  0  0  0
  1 17  1  0  0  0  0
  1 20  1  0  0  0  0
  2 15  1  1  0  0  0
  2  3  1  0  0  0  0
  2 11  1  0  0  0  0
  3  5  1  0  0  0  0
  4 16  1  6  0  0  0
  4 21  1  0  0  0  0
  4 22  2  0  0  0  0
  4 14  1  0  0  0  0
  5  1  1  1  0  0  0
  5  8  1  0  0  0  0
  6 17  2  0  0  0  0
  6 12  1  0  0  0  0
  8  7  1  6  0  0  0
  8 11  1  0  0  0  0
  9 19  1  0  0  0  0
 11 10  1  6  0  0  0
 12 20  2  0  0  0  0
 12 19  1  0  0  0  0
 13 20  1  0  0  0  0
 14 15  1  0  0  0  0
 18 19  2  0  0  0  0
M  CHG  1  21  -1
M  END
>  <CHROM.1>
46.38043915,54.82745657,-168.34393196,-171.54811366,-5.38430436,-29.77824800
3.14936723,-10.56534214,-0.37651394,-0.38904793,-3.03757731

>  <Name>
ligand

>  <RI>
0

>  <Rbt.Current_Directory>
/home/itssahil/PROJECTS/Mol_Feturizer/Test_systems_manuscript/rnas/4xwf

>  <Rbt.Executable>
rbdock ($Id: //depot/dev/client3/rdock/2013.1/src/exe/rbdock.cxx#4 $)

>  <Rbt.Library>
libRbt.so (2013.1, Build901 2013/11/27)

>  <Rbt.Parameter_File>
/export/apps/rDock/src/rDock_2013.1_src/data/scripts/dock_solv.prm

>  <Rbt.Receptor>
prm/pocket_docking_4.prm

>  <SCORE>
-7.02908

>  <SCORE.INTER>
-6.33006

>  <SCORE.INTER.CONST>
1

>  <SCORE.INTER.POLAR>
0

>  <SCORE.INTER.ROT>
5

>  <SCORE.INTER.SOLV>
11.6671

>  <SCORE.INTER.VDW>
-15.0424

>  <SCORE.INTER.norm>
-0.28773

>  <SCORE.INTRA>
-0.699017

>  <SCORE.INTRA.DIHEDRAL>
-1.37555

>  <SCORE.INTRA.DIHEDRAL.0>
3.49807

>  <SCORE.INTRA.POLAR>
0

>  <SCORE.INTRA.POLAR.0>
0

>  <SCORE.INTRA.REPUL>
0

>  <SCORE.INTRA.REPUL.0>
0

>  <SCORE.INTRA.SOLV>
0.365493

>  <SCORE.INTRA.SOLV.lig_0>
-73.062

>  <SCORE.INTRA.VDW>
-0.193989

>  <SCORE.INTRA.VDW.0>
-1.83782

>  <SCORE.INTRA.norm>
-0.0317735

>  <SCORE.RESTR>
0

>  <SCORE.RESTR.CAVITY>
0

>  <SCORE.RESTR.norm>
0

>  <SCORE.SYSTEM>
0

>  <SCORE.SYSTEM.CONST>
0

>  <SCORE.SYSTEM.DIHEDRAL>
0

>  <SCORE.SYSTEM.SOLV>
0

>  <SCORE.SYSTEM.norm>
0

>  <SCORE.heavy>
22

>  <SCORE.norm>
-0.319504

>  <RMSD>
6.519

$$$$
ligand
 OpenBabel02271912143D
libRbt.so/2013.1/901 2013/11/27
 22 23  0  0  0  0  0  0  0  0999 V2000
  -28.7496    3.4987  -10.9054 N   0  0  0  0  0  0  0  0  0  0  0  0
  -30.8625    0.8657  -10.6697 C   0  0  1  0  0  0  0  0  0  0  0  0
  -30.4779    2.0578  -11.4120 O   0  0  0  0  0  0  0  0  0  0  0  0
  -33.3194    3.1564   -8.9531 P   0  0  1  0  0  0  0  0  0  0  0  0
  -29.0539    2.2120  -11.2991 C   0  0  2  0  0  0  0  0  0  0  0  0
  -28.8557    5.4137   -9.8893 N   0  0  0  0  0  0  0  0  0  0  0  0
  -27.2912    0.9524  -10.2978 O   0  0  0  0  0  0  0  0  0  0  0  0
  -28.6679    1.3287  -10.1758 C   0  0  2  0  0  0  0  0  0  0  0  0
  -26.5366    7.0755  -12.0191 N   0  0  0  0  0  0  0  0  0  0  0  0
  -29.2171   -0.6456  -11.3791 O   0  0  0  0  0  0  0  0  0  0  0  0
  -29.5941    0.2083  -10.2859 C   0  0  2  0  0  0  0  0  0  0  0  0
  -27.7473    5.4016  -10.6456 C   0  0  0  0  0  0  0  0  0  0  0  0
  -26.6457    3.7719  -12.1602 N   0  0  0  0  0  0  0  0  0  0  0  0
  -32.5700    2.2179   -9.9613 O   0  0  0  0  0  0  0  0  0  0  0  0
  -31.6252    1.3216   -9.4737 C   0  0  0  0  0  0  0  0  0  0  0  0
  -34.4243    3.8313   -9.8443 O   0  0  0  0  0  0  0  0  0  0  0  0
  -29.4798    4.2323  -10.0574 C   0  0  0  0  0  0  0  0  0  0  0  0
  -26.1644    6.9115   -9.7786 O   0  0  0  0  0  0  0  0  0  0  0  0
  -26.7751    6.5038  -10.7664 C   0  0  0  0  0  0  0  0  0  0  0  0
  -27.6721    4.1977  -11.2862 C   0  0  0  0  0  0  0  0  0  0  0  0
  -33.8488    2.3497   -7.8144 O   0  5  0  0  0  0  0  0  0  0  0  0
  -32.3693    4.0492   -8.2655 O   0  0  0  0  0  0  0  0  0  0  0  0
  1 17  1  0  0  0  0
  1 20  1  0  0  0  0
  2 15  1  1  0  0  0
  2  3  1  0  0  0  0
  2 11  1  0  0  0  0
  3  5  1  0  0  0  0
  4 16  1  6  0  0  0
  4 21  1  0  0  0  0
  4 22  2  0  0  0  0
  4 14  1  0  0  0  0
  5  1  1  1  0  0  0
  5  8  1  0  0  0  0
  6 17  2  0  0  0  0
  6 12  1  0  0  0  0
  8  7  1  6  0  0  0
  8 11  1  0  0  0  0
  9 19  1  0  0  0  0
 11 10  1  6  0  0  0
 12 20  2  0  0  0  0
 12 19  1  0  0  0  0
 13 20  1  0  0  0  0
 14 15  1  0  0  0  0
 18 19  2  0  0  0  0
M  CHG  1  21  -1
M  END
>  <CHROM.1>
35.57509433,49.03866825,-171.66840087,-165.31960528,-120.18312897,-29.92303363
3.17484627,-10.22680439,-0.38880015,-0.35214167,-2.98294323

>  <Name>
ligand

>  <RI>
0

>  <Rbt.Current_Directory>
/home/itssahil/PROJECTS/Mol_Feturizer/Test_systems_manuscript/rnas/4xwf

>  <Rbt.Executable>
rbdock ($Id: //depot/dev/client3/rdock/2013.1/src/exe/rbdock.cxx#4 $)

>  <Rbt.Library>
libRbt.so (2013.1, Build901 2013/11/27)

>  <Rbt.Parameter_File>
/export/apps/rDock/src/rDock_2013.1_src/data/scripts/dock_solv.prm

>  <Rbt.Receptor>
prm/pocket_docking_3.prm

>  <SCORE>
-6.83582

>  <SCORE.INTER>
-6.51944

>  <SCORE.INTER.CONST>
1

>  <SCORE.INTER.POLAR>
0

>  <SCORE.INTER.ROT>
5

>  <SCORE.INTER.SOLV>
11.0568

>  <SCORE.INTER.VDW>
-14.9652

>  <SCORE.INTER.norm>
-0.296338

>  <SCORE.INTRA>
-0.316379

>  <SCORE.INTRA.DIHEDRAL>
-0.528764

>  <SCORE.INTRA.DIHEDRAL.0>
3.49807

>  <SCORE.INTRA.POLAR>
0

>  <SCORE.INTRA.POLAR.0>
0

>  <SCORE.INTRA.REPUL>
0

>  <SCORE.INTRA.REPUL.0>
0

>  <SCORE.INTRA.SOLV>
1.04467

>  <SCORE.INTRA.SOLV.lig_0>
-73.062

>  <SCORE.INTRA.VDW>
-0.574333

>  <SCORE.INTRA.VDW.0>
-1.83782

>  <SCORE.INTRA.norm>
-0.0143808

>  <SCORE.RESTR>
0

>  <SCORE.RESTR.CAVITY>
0

>  <SCORE.RESTR.norm>
0

>  <SCORE.SYSTEM>
0

>  <SCORE.SYSTEM.CONST>
0

>  <SCORE.SYSTEM.DIHEDRAL>
0

>  <SCORE.SYSTEM.SOLV>
0

>  <SCORE.SYSTEM.norm>
0

>  <SCORE.heavy>
22

>  <SCORE.norm>
-0.310719

>  <RMSD>
6.522

$$$$
ligand
 OpenBabel02271912143D
libRbt.so/2013.1/901 2013/11/27
 22 23  0  0  0  0  0  0  0  0999 V2000
  -28.7319    3.5407  -10.9124 N   0  0  0  0  0  0  0  0  0  0  0  0
  -30.8458    0.9046  -10.7245 C   0  0  1  0  0  0  0  0  0  0  0  0
  -30.4641    2.1127  -11.4419 O   0  0  0  0  0  0  0  0  0  0  0  0
  -33.3087    3.1477   -8.9621 P   0  0  1  0  0  0  0  0  0  0  0  0
  -29.0394    2.2633  -11.3331 C   0  0  2  0  0  0  0  0  0  0  0  0
  -28.8265    5.4296   -9.8475 N   0  0  0  0  0  0  0  0  0  0  0  0
  -27.2726    0.9803  -10.3697 O   0  0  0  0  0  0  0  0  0  0  0  0
  -28.6483    1.3548  -10.2320 C   0  0  2  0  0  0  0  0  0  0  0  0
  -25.4421    6.3483  -10.3158 N   0  0  0  0  0  0  0  0  0  0  0  0
  -29.2055   -0.5917  -11.4762 O   0  0  0  0  0  0  0  0  0  0  0  0
  -29.5760    0.2379  -10.3622 C   0  0  2  0  0  0  0  0  0  0  0  0
  -27.7300    5.4391  -10.6209 C   0  0  0  0  0  0  0  0  0  0  0  0
  -26.6483    3.8504  -12.1923 N   0  0  0  0  0  0  0  0  0  0  0  0
  -32.5757    2.2095   -9.9824 O   0  0  0  0  0  0  0  0  0  0  0  0
  -31.6018    1.3342   -9.5145 C   0  0  0  0  0  0  0  0  0  0  0  0
  -34.4247    3.8266   -9.8363 O   0  0  0  0  0  0  0  0  0  0  0  0
  -29.4506    4.2511  -10.0352 C   0  0  0  0  0  0  0  0  0  0  0  0
  -27.1116    7.6433  -11.1654 O   0  0  0  0  0  0  0  0  0  0  0  0
  -26.7623    6.5465  -10.7293 C   0  0  0  0  0  0  0  0  0  0  0  0
  -27.6620    4.2517  -11.2923 C   0  0  0  0  0  0  0  0  0  0  0  0
  -33.8236    2.3400   -7.8173 O   0  5  0  0  0  0  0  0  0  0  0  0
  -32.3470    4.0372   -8.2864 O   0  0  0  0  0  0  0  0  0  0  0  0
  1 17  1  0  0  0  0
  1 20  1  0  0  0  0
  2 15  1  1  0  0  0
  2  3  1  0  0  0  0
  2 11  1  0  0  0  0
  3  5  1  0  0  0  0
  4 16  1  6  0  0  0
  4 21  1  0  0  0  0
  4 22  2  0  0  0  0
  4 14  1  0  0  0  0
  5  1  1  1  0  0  0
  5  8  1  0  0  0  0
  6 17  2  0  0  0  0
  6 12  1  0  0  0  0
  8  7  1  6  0  0  0
  8 11  1  0  0  0  0
  9 19  1  0  0  0  0
 11 10  1  6  0  0  0
 12 20  2  0  0  0  0
 12 19  1  0  0  0  0
 13 20  1  0  0  0  0
 14 15  1  0  0  0  0
 18 19  2  0  0  0  0
M  CHG  1  21  -1
M  END
>  <CHROM.1>
36.20017552,50.86432225,-173.28446643,-163.85201539,116.30691966,-29.90919503
3.20128580,-10.24156318,-0.39234876,-0.34140977,-2.98281208

>  <Name>
ligand

>  <RI>
0

>  <Rbt.Current_Directory>
/home/itssahil/PROJECTS/Mol_Feturizer/Test_systems_manuscript/rnas/4xwf

>  <Rbt.Executable>
rbdock ($Id: //depot/dev/client3/rdock/2013.1/src/exe/rbdock.cxx#4 $)

>  <Rbt.Library>
libRbt.so (2013.1, Build901 2013/11/27)

>  <Rbt.Parameter_File>
/export/apps/rDock/src/rDock_2013.1_src/data/scripts/dock_solv.prm

>  <Rbt.Receptor>
prm/pocket_docking_3.prm

>  <SCORE>
-6.91375

>  <SCORE.INTER>
-6.56019

>  <SCORE.INTER.CONST>
1

>  <SCORE.INTER.POLAR>
0

>  <SCORE.INTER.ROT>
5

>  <SCORE.INTER.SOLV>
10.8592

>  <SCORE.INTER.VDW>
-14.9265

>  <SCORE.INTER.norm>
-0.29819

>  <SCORE.INTRA>
-0.353558

>  <SCORE.INTRA.DIHEDRAL>
-0.470464

>  <SCORE.INTRA.DIHEDRAL.0>
3.49807

>  <SCORE.INTRA.POLAR>
0

>  <SCORE.INTRA.POLAR.0>
0

>  <SCORE.INTRA.REPUL>
0

>  <SCORE.INTRA.REPUL.0>
0

>  <SCORE.INTRA.SOLV>
1.01055

>  <SCORE.INTRA.SOLV.lig_0>
-73.062

>  <SCORE.INTRA.VDW>
-0.623601

>  <SCORE.INTRA.VDW.0>
-1.83782

>  <SCORE.INTRA.norm>
-0.0160708

>  <SCORE.RESTR>
0

>  <SCORE.RESTR.CAVITY>
0

>  <SCORE.RESTR.norm>
0

>  <SCORE.SYSTEM>
0

>  <SCORE.SYSTEM.CONST>
0

>  <SCORE.SYSTEM.DIHEDRAL>
0

>  <SCORE.SYSTEM.SOLV>
0

>  <SCORE.SYSTEM.norm>
0

>  <SCORE.heavy>
22

>  <SCORE.norm>
-0.314261

>  <RMSD>
6.523

$$$$
ligand
 OpenBabel02271912143D
libRbt.so/2013.1/901 2013/11/27
 22 23  0  0  0  0  0  0  0  0999 V2000
  -28.6964    3.5410  -10.9570 N   0  0  0  0  0  0  0  0  0  0  0  0
  -30.8367    0.9299  -10.7253 C   0  0  1  0  0  0  0  0  0  0  0  0
  -30.4488    2.1273  -11.4572 O   0  0  0  0  0  0  0  0  0  0  0  0
  -33.3121    3.1604   -8.9457 P   0  0  1  0  0  0  0  0  0  0  0  0
  -29.0215    2.2633  -11.3631 C   0  0  2  0  0  0  0  0  0  0  0  0
  -28.7579    5.4387   -9.9053 N   0  0  0  0  0  0  0  0  0  0  0  0
  -27.2597    0.9699  -10.4045 O   0  0  0  0  0  0  0  0  0  0  0  0
  -28.6299    1.3606  -10.2574 C   0  0  2  0  0  0  0  0  0  0  0  0
  -26.5115    7.1388  -12.0714 N   0  0  0  0  0  0  0  0  0  0  0  0
  -29.2198   -0.5908  -11.4785 O   0  0  0  0  0  0  0  0  0  0  0  0
  -29.5708    0.2527  -10.3688 C   0  0  2  0  0  0  0  0  0  0  0  0
  -27.6734    5.4326  -10.6955 C   0  0  0  0  0  0  0  0  0  0  0  0
  -26.6300    3.8224  -12.2710 N   0  0  0  0  0  0  0  0  0  0  0  0
  -32.5373    2.2699   -9.9778 O   0  0  0  0  0  0  0  0  0  0  0  0
  -31.5766    1.3786   -9.5124 C   0  0  0  0  0  0  0  0  0  0  0  0
  -34.4380    3.8244   -9.8185 O   0  0  0  0  0  0  0  0  0  0  0  0
  -29.3951    4.2645  -10.0744 C   0  0  0  0  0  0  0  0  0  0  0  0
  -26.0386    6.9025   -9.8565 O   0  0  0  0  0  0  0  0  0  0  0  0
  -26.6976    6.5304  -10.8271 C   0  0  0  0  0  0  0  0  0  0  0  0
  -27.6262    4.2396  -11.3587 C   0  0  0  0  0  0  0  0  0  0  0  0
  -33.8154    2.3103   -7.8268 O   0  5  0  0  0  0  0  0  0  0  0  0
  -32.3874    4.0635   -8.2371 O   0  0  0  0  0  0  0  0  0  0  0  0
  1 17  1  0  0  0  0
  1 20  1  0  0  0  0
  2 15  1  1  0  0  0
  2  3  1  0  0  0  0
  2 11  1  0  0  0  0
  3  5  1  0  0  0  0
  4 16  1  6  0  0  0
  4 21  1  0  0  0  0
  4 22  2  0  0  0  0
  4 14  1  0  0  0  0
  5  1  1  1  0  0  0
  5  8  1  0  0  0  0
  6 17  2  0  0  0  0
  6 12  1  0  0  0  0
  8  7  1  6  0  0  0
  8 11  1  0  0  0  0
  9 19  1  0  0  0  0
 11 10  1  6  0  0  0
 12 20  2  0  0  0  0
 12 19  1  0  0  0  0
 13 20  1  0  0  0  0
 14 15  1  0  0  0  0
 18 19  2  0  0  0  0
M  CHG  1  21  -1
M  END
>  <CHROM.1>
36.57186810,50.32100804,-170.91782157,-167.76764630,-119.01081803,-29.88649488
3.20517621,-10.27087008,-0.37653633,-0.36355668,-2.96968793

>  <Name>
ligand

>  <RI>
0

>  <Rbt.Current_Directory>
/home/itssahil/PROJECTS/Mol_Feturizer/Test_systems_manuscript/rnas/4xwf

>  <Rbt.Executable>
rbdock ($Id: //depot/dev/client3/rdock/2013.1/src/exe/rbdock.cxx#4 $)

>  <Rbt.Library>
libRbt.so (2013.1, Build901 2013/11/27)

>  <Rbt.Parameter_File>
/export/apps/rDock/src/rDock_2013.1_src/data/scripts/dock_solv.prm

>  <Rbt.Receptor>
prm/pocket_docking_3.prm

>  <SCORE>
-6.90902

>  <SCORE.INTER>
-6.42145

>  <SCORE.INTER.CONST>
1

>  <SCORE.INTER.POLAR>
0

>  <SCORE.INTER.ROT>
5

>  <SCORE.INTER.SOLV>
10.8324

>  <SCORE.INTER.VDW>
-14.8251

>  <SCORE.INTER.norm>
-0.291884

>  <SCORE.INTRA>
-0.487567

>  <SCORE.INTRA.DIHEDRAL>
-0.894304

>  <SCORE.INTRA.DIHEDRAL.0>
3.49807

>  <SCORE.INTRA.POLAR>
0

>  <SCORE.INTRA.POLAR.0>
0

>  <SCORE.INTRA.REPUL>
0

>  <SCORE.INTRA.REPUL.0>
0

>  <SCORE.INTRA.SOLV>
0.894456

>  <SCORE.INTRA.SOLV.lig_0>
-73.062

>  <SCORE.INTRA.VDW>
-0.487644

>  <SCORE.INTRA.VDW.0>
-1.83782

>  <SCORE.INTRA.norm>
-0.0221622

>  <SCORE.RESTR>
0

>  <SCORE.RESTR.CAVITY>
0

>  <SCORE.RESTR.norm>
0

>  <SCORE.SYSTEM>
0

>  <SCORE.SYSTEM.CONST>
0

>  <SCORE.SYSTEM.DIHEDRAL>
0

>  <SCORE.SYSTEM.SOLV>
0

>  <SCORE.SYSTEM.norm>
0

>  <SCORE.heavy>
22

>  <SCORE.norm>
-0.314046

>  <RMSD>
6.523

$$$$
ligand
 OpenBabel02271912143D
libRbt.so/2013.1/901 2013/11/27
 22 23  0  0  0  0  0  0  0  0999 V2000
  -28.7078    3.5458  -10.9131 N   0  0  0  0  0  0  0  0  0  0  0  0
  -30.8318    0.9175  -10.7306 C   0  0  1  0  0  0  0  0  0  0  0  0
  -30.4443    2.1246  -11.4466 O   0  0  0  0  0  0  0  0  0  0  0  0
  -33.3059    3.1511   -8.9639 P   0  0  1  0  0  0  0  0  0  0  0  0
  -29.0193    2.2698  -11.3352 C   0  0  2  0  0  0  0  0  0  0  0  0
  -28.7926    5.4314   -9.8415 N   0  0  0  0  0  0  0  0  0  0  0  0
  -27.2590    0.9797  -10.3694 O   0  0  0  0  0  0  0  0  0  0  0  0
  -28.6335    1.3592  -10.2339 C   0  0  2  0  0  0  0  0  0  0  0  0
  -25.4101    6.3481  -10.3451 N   0  0  0  0  0  0  0  0  0  0  0  0
  -29.1957   -0.5844  -11.4803 O   0  0  0  0  0  0  0  0  0  0  0  0
  -29.5651    0.2458  -10.3664 C   0  0  2  0  0  0  0  0  0  0  0  0
  -27.7029    5.4431  -10.6245 C   0  0  0  0  0  0  0  0  0  0  0  0
  -26.6354    3.8591  -12.2103 N   0  0  0  0  0  0  0  0  0  0  0  0
  -32.5526    2.2352   -9.9898 O   0  0  0  0  0  0  0  0  0  0  0  0
  -31.5884    1.3492   -9.5217 C   0  0  0  0  0  0  0  0  0  0  0  0
  -34.4239    3.8259   -9.8387 O   0  0  0  0  0  0  0  0  0  0  0  0
  -29.4185    4.2536  -10.0274 C   0  0  0  0  0  0  0  0  0  0  0  0
  -27.0905    7.6511  -11.1601 O   0  0  0  0  0  0  0  0  0  0  0  0
  -26.7358    6.5506  -10.7379 C   0  0  0  0  0  0  0  0  0  0  0  0
  -27.6410    4.2578  -11.3002 C   0  0  0  0  0  0  0  0  0  0  0  0
  -33.8189    2.3227   -7.8333 O   0  5  0  0  0  0  0  0  0  0  0  0
  -32.3614    4.0448   -8.2698 O   0  0  0  0  0  0  0  0  0  0  0  0
  1 17  1  0  0  0  0
  1 20  1  0  0  0  0
  2 15  1  1  0  0  0
  2  3  1  0  0  0  0
  2 11  1  0  0  0  0
  3  5  1  0  0  0  0
  4 16  1  6  0  0  0
  4 21  1  0  0  0  0
  4 22  2  0  0  0  0
  4 14  1  0  0  0  0
  5  1  1  1  0  0  0
  5  8  1  0  0  0  0
  6 17  2  0  0  0  0
  6 12  1  0  0  0  0
  8  7  1  6  0  0  0
  8 11  1  0  0  0  0
  9 19  1  0  0  0  0
 11 10  1  6  0  0  0
 12 20  2  0  0  0  0
 12 19  1  0  0  0  0
 13 20  1  0  0  0  0
 14 15  1  0  0  0  0
 18 19  2  0  0  0  0
M  CHG  1  21  -1
M  END
>  <CHROM.1>
36.85639335,50.48334793,-172.09210005,-165.34371796,116.73273696,-29.89390306
3.20679765,-10.24544703,-0.38959349,-0.34137917,-2.98248298

>  <Name>
ligand

>  <RI>
0

>  <Rbt.Current_Directory>
/home/itssahil/PROJECTS/Mol_Feturizer/Test_systems_manuscript/rnas/4xwf

>  <Rbt.Executable>
rbdock ($Id: //depot/dev/client3/rdock/2013.1/src/exe/rbdock.cxx#4 $)

>  <Rbt.Library>
libRbt.so (2013.1, Build901 2013/11/27)

>  <Rbt.Parameter_File>
/export/apps/rDock/src/rDock_2013.1_src/data/scripts/dock_solv.prm

>  <Rbt.Receptor>
prm/pocket_docking_3.prm

>  <SCORE>
-6.91758

>  <SCORE.INTER>
-6.50052

>  <SCORE.INTER.CONST>
1

>  <SCORE.INTER.POLAR>
0

>  <SCORE.INTER.ROT>
5

>  <SCORE.INTER.SOLV>
10.7896

>  <SCORE.INTER.VDW>
-14.8636

>  <SCORE.INTER.norm>
-0.295478

>  <SCORE.INTRA>
-0.417062

>  <SCORE.INTRA.DIHEDRAL>
-0.629277

>  <SCORE.INTRA.DIHEDRAL.0>
3.49807

>  <SCORE.INTRA.POLAR>
0

>  <SCORE.INTRA.POLAR.0>
0

>  <SCORE.INTRA.REPUL>
0

>  <SCORE.INTRA.REPUL.0>
0

>  <SCORE.INTRA.SOLV>
0.939419

>  <SCORE.INTRA.SOLV.lig_0>
-73.062

>  <SCORE.INTRA.VDW>
-0.572133

>  <SCORE.INTRA.VDW.0>
-1.83782

>  <SCORE.INTRA.norm>
-0.0189574

>  <SCORE.RESTR>
0

>  <SCORE.RESTR.CAVITY>
0

>  <SCORE.RESTR.norm>
0

>  <SCORE.SYSTEM>
0

>  <SCORE.SYSTEM.CONST>
0

>  <SCORE.SYSTEM.DIHEDRAL>
0

>  <SCORE.SYSTEM.SOLV>
0

>  <SCORE.SYSTEM.norm>
0

>  <SCORE.heavy>
22

>  <SCORE.norm>
-0.314436

>  <RMSD>
6.525

$$$$
ligand
 OpenBabel02271912143D
libRbt.so/2013.1/901 2013/11/27
 22 23  0  0  0  0  0  0  0  0999 V2000
  -28.6895    3.5020  -10.9564 N   0  0  0  0  0  0  0  0  0  0  0  0
  -30.8370    0.8979  -10.7125 C   0  0  1  0  0  0  0  0  0  0  0  0
  -30.4431    2.0883  -11.4525 O   0  0  0  0  0  0  0  0  0  0  0  0
  -33.2921    3.1726   -8.9697 P   0  0  1  0  0  0  0  0  0  0  0  0
  -29.0159    2.2218  -11.3534 C   0  0  2  0  0  0  0  0  0  0  0  0
  -28.7371    5.3998   -9.9040 N   0  0  0  0  0  0  0  0  0  0  0  0
  -27.2613    0.9322  -10.3767 O   0  0  0  0  0  0  0  0  0  0  0  0
  -28.6312    1.3273  -10.2387 C   0  0  2  0  0  0  0  0  0  0  0  0
  -25.3741    6.3092  -10.5190 N   0  0  0  0  0  0  0  0  0  0  0  0
  -29.2205   -0.6327  -11.4463 O   0  0  0  0  0  0  0  0  0  0  0  0
  -29.5742    0.2207  -10.3450 C   0  0  2  0  0  0  0  0  0  0  0  0
  -27.6737    5.4011  -10.7224 C   0  0  0  0  0  0  0  0  0  0  0  0
  -26.6604    3.7977  -12.3243 N   0  0  0  0  0  0  0  0  0  0  0  0
  -32.5444    2.2399   -9.9844 O   0  0  0  0  0  0  0  0  0  0  0  0
  -31.5810    1.3583   -9.5064 C   0  0  0  0  0  0  0  0  0  0  0  0
  -34.4174    3.8299   -9.8484 O   0  0  0  0  0  0  0  0  0  0  0  0
  -29.3700    4.2208  -10.0559 C   0  0  0  0  0  0  0  0  0  0  0  0
  -27.0751    7.5993  -11.3113 O   0  0  0  0  0  0  0  0  0  0  0  0
  -26.7097    6.5059  -10.8800 C   0  0  0  0  0  0  0  0  0  0  0  0
  -27.6353    4.2081  -11.3862 C   0  0  0  0  0  0  0  0  0  0  0  0
  -33.7959    2.3635   -7.8210 O   0  5  0  0  0  0  0  0  0  0  0  0
  -32.3444    4.0800   -8.2981 O   0  0  0  0  0  0  0  0  0  0  0  0
  1 17  1  0  0  0  0
  1 20  1  0  0  0  0
  2 15  1  1  0  0  0
  2  3  1  0  0  0  0
  2 11  1  0  0  0  0
  3  5  1  0  0  0  0
  4 16  1  6  0  0  0
  4 21  1  0  0  0  0
  4 22  2  0  0  0  0
  4 14  1  0  0  0  0
  5  1  1  1  0  0  0
  5  8  1  0  0  0  0
  6 17  2  0  0  0  0
  6 12  1  0  0  0  0
  8  7  1  6  0  0  0
  8 11  1  0  0  0  0
  9 19  1  0  0  0  0
 11 10  1  6  0  0  0
 12 20  2  0  0  0  0
 12 19  1  0  0  0  0
 13 20  1  0  0  0  0
 14 15  1  0  0  0  0
 18 19  2  0  0  0  0
M  CHG  1  21  -1
M  END
>  <CHROM.1>
38.45893471,50.77516446,-171.71743146,-165.82230318,116.24435518,-29.88287511
3.18580293,-10.28171172,-0.38241976,-0.35002971,-3.00111152

>  <Name>
ligand

>  <RI>
0

>  <Rbt.Current_Directory>
/home/itssahil/PROJECTS/Mol_Feturizer/Test_systems_manuscript/rnas/4xwf

>  <Rbt.Executable>
rbdock ($Id: //depot/dev/client3/rdock/2013.1/src/exe/rbdock.cxx#4 $)

>  <Rbt.Library>
libRbt.so (2013.1, Build901 2013/11/27)

>  <Rbt.Parameter_File>
/export/apps/rDock/src/rDock_2013.1_src/data/scripts/dock_solv.prm

>  <Rbt.Receptor>
prm/pocket_docking_3.prm

>  <SCORE>
-6.89615

>  <SCORE.INTER>
-6.41747

>  <SCORE.INTER.CONST>
1

>  <SCORE.INTER.POLAR>
0

>  <SCORE.INTER.ROT>
5

>  <SCORE.INTER.SOLV>
10.9101

>  <SCORE.INTER.VDW>
-14.8484

>  <SCORE.INTER.norm>
-0.291703

>  <SCORE.INTRA>
-0.478677

>  <SCORE.INTRA.DIHEDRAL>
-0.696543

>  <SCORE.INTRA.DIHEDRAL.0>
3.49807

>  <SCORE.INTRA.POLAR>
0

>  <SCORE.INTRA.POLAR.0>
0

>  <SCORE.INTRA.REPUL>
0

>  <SCORE.INTRA.REPUL.0>
0

>  <SCORE.INTRA.SOLV>
0.856855

>  <SCORE.INTRA.SOLV.lig_0>
-73.062

>  <SCORE.INTRA.VDW>
-0.558833

>  <SCORE.INTRA.VDW.0>
-1.83782

>  <SCORE.INTRA.norm>
-0.0217581

>  <SCORE.RESTR>
0

>  <SCORE.RESTR.CAVITY>
0

>  <SCORE.RESTR.norm>
0

>  <SCORE.SYSTEM>
0

>  <SCORE.SYSTEM.CONST>
0

>  <SCORE.SYSTEM.DIHEDRAL>
0

>  <SCORE.SYSTEM.SOLV>
0

>  <SCORE.SYSTEM.norm>
0

>  <SCORE.heavy>
22

>  <SCORE.norm>
-0.313461

>  <RMSD>
6.525

$$$$
ligand
 OpenBabel02271912143D
libRbt.so/2013.1/901 2013/11/27
 22 23  0  0  0  0  0  0  0  0999 V2000
  -28.3623    3.3863  -11.4392 N   0  0  0  0  0  0  0  0  0  0  0  0
  -30.5951    0.8980  -10.9144 C   0  0  1  0  0  0  0  0  0  0  0  0
  -30.1903    2.0157  -11.7550 O   0  0  0  0  0  0  0  0  0  0  0  0
  -33.1721    3.0916   -9.2166 P   0  0  1  0  0  0  0  0  0  0  0  0
  -28.7560    2.0960  -11.7280 C   0  0  2  0  0  0  0  0  0  0  0  0
  -28.1884    5.3037  -10.4370 N   0  0  0  0  0  0  0  0  0  0  0  0
  -27.0090    0.8063  -10.7379 O   0  0  0  0  0  0  0  0  0  0  0  0
  -28.3548    1.2670  -10.5694 C   0  0  2  0  0  0  0  0  0  0  0  0
  -26.4986    7.6085  -11.1625 N   0  0  0  0  0  0  0  0  0  0  0  0
  -29.0747   -0.7469  -11.6053 O   0  0  0  0  0  0  0  0  0  0  0  0
  -29.3437    0.1962  -10.5542 C   0  0  2  0  0  0  0  0  0  0  0  0
  -27.3433    5.2976  -11.4792 C   0  0  0  0  0  0  0  0  0  0  0  0
  -26.7085    3.6715  -13.2446 N   0  0  0  0  0  0  0  0  0  0  0  0
  -32.3295    2.2170  -10.2084 O   0  0  0  0  0  0  0  0  0  0  0  0
  -31.2640    1.4730   -9.7135 C   0  0  0  0  0  0  0  0  0  0  0  0
  -34.4131    3.5197  -10.0810 O   0  0  0  0  0  0  0  0  0  0  0  0
  -28.8248    4.1170  -10.4181 C   0  0  0  0  0  0  0  0  0  0  0  0
  -25.6914    6.2868  -12.8320 O   0  0  0  0  0  0  0  0  0  0  0  0
  -26.4555    6.4068  -11.8745 C   0  0  0  0  0  0  0  0  0  0  0  0
  -27.4448    4.0923  -12.1135 C   0  0  0  0  0  0  0  0  0  0  0  0
  -33.5087    2.2911   -8.0026 O   0  5  0  0  0  0  0  0  0  0  0  0
  -32.3476    4.1690   -8.6403 O   0  0  0  0  0  0  0  0  0  0  0  0
  1 17  1  0  0  0  0
  1 20  1  0  0  0  0
  2 15  1  1  0  0  0
  2  3  1  0  0  0  0
  2 11  1  0  0  0  0
  3  5  1  0  0  0  0
  4 16  1  6  0  0  0
  4 21  1  0  0  0  0
  4 22  2  0  0  0  0
  4 14  1  0  0  0  0
  5  1  1  1  0  0  0
  5  8  1  0  0  0  0
  6 17  2  0  0  0  0
  6 12  1  0  0  0  0
  8  7  1  6  0  0  0
  8 11  1  0  0  0  0
  9 19  1  0  0  0  0
 11 10  1  6  0  0  0
 12 20  2  0  0  0  0
 12 19  1  0  0  0  0
 13 20  1  0  0  0  0
 14 15  1  0  0  0  0
 18 19  2  0  0  0  0
M  CHG  1  21  -1
M  END
>  <CHROM.1>
50.04331341,58.57995229,-168.96803108,-173.67745121,-2.61094205,-29.65927501
3.10586499,-10.73294025,-0.36292815,-0.42058130,-3.06427809

>  <Name>
ligand

>  <RI>
0

>  <Rbt.Current_Directory>
/home/itssahil/PROJECTS/Mol_Feturizer/Test_systems_manuscript/rnas/4xwf

>  <Rbt.Executable>
rbdock ($Id: //depot/dev/client3/rdock/2013.1/src/exe/rbdock.cxx#4 $)

>  <Rbt.Library>
libRbt.so (2013.1, Build901 2013/11/27)

>  <Rbt.Parameter_File>
/export/apps/rDock/src/rDock_2013.1_src/data/scripts/dock_solv.prm

>  <Rbt.Receptor>
prm/pocket_docking_6.prm

>  <SCORE>
-7.03793

>  <SCORE.INTER>
-6.16297

>  <SCORE.INTER.CONST>
1

>  <SCORE.INTER.POLAR>
0

>  <SCORE.INTER.ROT>
5

>  <SCORE.INTER.SOLV>
11.3165

>  <SCORE.INTER.VDW>
-14.8141

>  <SCORE.INTER.norm>
-0.280135

>  <SCORE.INTRA>
-0.874959

>  <SCORE.INTRA.DIHEDRAL>
-1.64295

>  <SCORE.INTRA.DIHEDRAL.0>
3.49807

>  <SCORE.INTRA.POLAR>
0

>  <SCORE.INTRA.POLAR.0>
0

>  <SCORE.INTRA.REPUL>
0

>  <SCORE.INTRA.REPUL.0>
0

>  <SCORE.INTRA.SOLV>
0.150481

>  <SCORE.INTRA.SOLV.lig_0>
-73.062

>  <SCORE.INTRA.VDW>
-0.128724

>  <SCORE.INTRA.VDW.0>
-1.83782

>  <SCORE.INTRA.norm>
-0.0397708

>  <SCORE.RESTR>
0

>  <SCORE.RESTR.CAVITY>
0

>  <SCORE.RESTR.norm>
0

>  <SCORE.SYSTEM>
0

>  <SCORE.SYSTEM.CONST>
0

>  <SCORE.SYSTEM.DIHEDRAL>
0

>  <SCORE.SYSTEM.SOLV>
0

>  <SCORE.SYSTEM.norm>
0

>  <SCORE.heavy>
22

>  <SCORE.norm>
-0.319906

>  <RMSD>
6.525

$$$$
ligand
 OpenBabel02271912143D
libRbt.so/2013.1/901 2013/11/27
 22 23  0  0  0  0  0  0  0  0999 V2000
  -28.7137    3.5167  -10.9861 N   0  0  0  0  0  0  0  0  0  0  0  0
  -30.8568    0.9111  -10.7195 C   0  0  1  0  0  0  0  0  0  0  0  0
  -30.4743    2.1043  -11.4610 O   0  0  0  0  0  0  0  0  0  0  0  0
  -33.3005    3.1688   -8.9441 P   0  0  1  0  0  0  0  0  0  0  0  0
  -29.0458    2.2378  -11.3829 C   0  0  2  0  0  0  0  0  0  0  0  0
  -28.7427    5.4086   -9.9228 N   0  0  0  0  0  0  0  0  0  0  0  0
  -27.2764    0.9451  -10.4374 O   0  0  0  0  0  0  0  0  0  0  0  0
  -28.6442    1.3393  -10.2773 C   0  0  2  0  0  0  0  0  0  0  0  0
  -25.3929    6.3242  -10.6209 N   0  0  0  0  0  0  0  0  0  0  0  0
  -29.2512   -0.6164  -11.4831 O   0  0  0  0  0  0  0  0  0  0  0  0
  -29.5885    0.2329  -10.3735 C   0  0  2  0  0  0  0  0  0  0  0  0
  -27.6973    5.4168  -10.7640 C   0  0  0  0  0  0  0  0  0  0  0  0
  -26.7154    3.8243  -12.3961 N   0  0  0  0  0  0  0  0  0  0  0  0
  -32.5741    2.2249   -9.9639 O   0  0  0  0  0  0  0  0  0  0  0  0
  -31.5826    1.3669   -9.5007 C   0  0  0  0  0  0  0  0  0  0  0  0
  -34.4443    3.8162   -9.8061 O   0  0  0  0  0  0  0  0  0  0  0  0
  -29.3761    4.2291  -10.0673 C   0  0  0  0  0  0  0  0  0  0  0  0
  -27.1189    7.6237  -11.3405 O   0  0  0  0  0  0  0  0  0  0  0  0
  -26.7394    6.5247  -10.9365 C   0  0  0  0  0  0  0  0  0  0  0  0
  -27.6706    4.2275  -11.4349 C   0  0  0  0  0  0  0  0  0  0  0  0
  -33.7796    2.3725   -7.7760 O   0  5  0  0  0  0  0  0  0  0  0  0
  -32.3391    4.0837   -8.3028 O   0  0  0  0  0  0  0  0  0  0  0  0
  1 17  1  0  0  0  0
  1 20  1  0  0  0  0
  2 15  1  1  0  0  0
  2  3  1  0  0  0  0
  2 11  1  0  0  0  0
  3  5  1  0  0  0  0
  4 16  1  6  0  0  0
  4 21  1  0  0  0  0
  4 22  2  0  0  0  0
  4 14  1  0  0  0  0
  5  1  1  1  0  0  0
  5  8  1  0  0  0  0
  6 17  2  0  0  0  0
  6 12  1  0  0  0  0
  8  7  1  6  0  0  0
  8 11  1  0  0  0  0
  9 19  1  0  0  0  0
 11 10  1  6  0  0  0
 12 20  2  0  0  0  0
 12 19  1  0  0  0  0
 13 20  1  0  0  0  0
 14 15  1  0  0  0  0
 18 19  2  0  0  0  0
M  CHG  1  21  -1
M  END
>  <CHROM.1>
38.86933859,52.17205851,-172.93000180,-164.78684483,117.01708571,-29.90222582
3.19557070,-10.29993528,-0.38194015,-0.36344036,-2.99896756

>  <Name>
ligand

>  <RI>
0

>  <Rbt.Current_Directory>
/home/itssahil/PROJECTS/Mol_Feturizer/Test_systems_manuscript/rnas/4xwf

>  <Rbt.Executable>
rbdock ($Id: //depot/dev/client3/rdock/2013.1/src/exe/rbdock.cxx#4 $)

>  <Rbt.Library>
libRbt.so (2013.1, Build901 2013/11/27)

>  <Rbt.Parameter_File>
/export/apps/rDock/src/rDock_2013.1_src/data/scripts/dock_solv.prm

>  <Rbt.Receptor>
prm/pocket_docking_3.prm

>  <SCORE>
-6.87745

>  <SCORE.INTER>
-6.41383

>  <SCORE.INTER.CONST>
1

>  <SCORE.INTER.POLAR>
0

>  <SCORE.INTER.ROT>
5

>  <SCORE.INTER.SOLV>
10.9181

>  <SCORE.INTER.VDW>
-14.8486

>  <SCORE.INTER.norm>
-0.291538

>  <SCORE.INTRA>
-0.463618

>  <SCORE.INTRA.DIHEDRAL>
-0.669623

>  <SCORE.INTRA.DIHEDRAL.0>
3.49807

>  <SCORE.INTRA.POLAR>
0

>  <SCORE.INTRA.POLAR.0>
0

>  <SCORE.INTRA.REPUL>
0

>  <SCORE.INTRA.REPUL.0>
0

>  <SCORE.INTRA.SOLV>
0.864761

>  <SCORE.INTRA.SOLV.lig_0>
-73.062

>  <SCORE.INTRA.VDW>
-0.561187

>  <SCORE.INTRA.VDW.0>
-1.83782

>  <SCORE.INTRA.norm>
-0.0210736

>  <SCORE.RESTR>
0

>  <SCORE.RESTR.CAVITY>
0

>  <SCORE.RESTR.norm>
0

>  <SCORE.SYSTEM>
0

>  <SCORE.SYSTEM.CONST>
0

>  <SCORE.SYSTEM.DIHEDRAL>
0

>  <SCORE.SYSTEM.SOLV>
0

>  <SCORE.SYSTEM.norm>
0

>  <SCORE.heavy>
22

>  <SCORE.norm>
-0.312611

>  <RMSD>
6.526

$$$$
ligand
 OpenBabel02271912143D
libRbt.so/2013.1/901 2013/11/27
 22 23  0  0  0  0  0  0  0  0999 V2000
  -28.6752    3.5160  -10.9474 N   0  0  0  0  0  0  0  0  0  0  0  0
  -30.8389    0.9238  -10.7217 C   0  0  1  0  0  0  0  0  0  0  0  0
  -30.4404    2.1195  -11.4506 O   0  0  0  0  0  0  0  0  0  0  0  0
  -33.3046    3.1659   -8.9509 P   0  0  1  0  0  0  0  0  0  0  0  0
  -29.0120    2.2424  -11.3567 C   0  0  2  0  0  0  0  0  0  0  0  0
  -28.7208    5.4125   -9.8928 N   0  0  0  0  0  0  0  0  0  0  0  0
  -27.2615    0.9307  -10.4022 O   0  0  0  0  0  0  0  0  0  0  0  0
  -28.6281    1.3333  -10.2536 C   0  0  2  0  0  0  0  0  0  0  0  0
  -26.4509    7.0938  -12.0485 N   0  0  0  0  0  0  0  0  0  0  0  0
  -29.2360   -0.6095  -11.4795 O   0  0  0  0  0  0  0  0  0  0  0  0
  -29.5790    0.2342  -10.3674 C   0  0  2  0  0  0  0  0  0  0  0  0
  -27.6338    5.3966  -10.6794 C   0  0  0  0  0  0  0  0  0  0  0  0
  -26.6017    3.7785  -12.2542 N   0  0  0  0  0  0  0  0  0  0  0  0
  -32.5538    2.2454   -9.9744 O   0  0  0  0  0  0  0  0  0  0  0  0
  -31.5742    1.3760   -9.5072 C   0  0  0  0  0  0  0  0  0  0  0  0
  -34.4364    3.8226   -9.8217 O   0  0  0  0  0  0  0  0  0  0  0  0
  -29.3694    4.2451  -10.0659 C   0  0  0  0  0  0  0  0  0  0  0  0
  -25.9862    6.8478   -9.8328 O   0  0  0  0  0  0  0  0  0  0  0  0
  -26.6465    6.4847  -10.8061 C   0  0  0  0  0  0  0  0  0  0  0  0
  -27.5965    4.2043  -11.3445 C   0  0  0  0  0  0  0  0  0  0  0  0
  -33.8001    2.3453   -7.8068 O   0  5  0  0  0  0  0  0  0  0  0  0
  -32.3608    4.0744   -8.2752 O   0  0  0  0  0  0  0  0  0  0  0  0
  1 17  1  0  0  0  0
  1 20  1  0  0  0  0
  2 15  1  1  0  0  0
  2  3  1  0  0  0  0
  2 11  1  0  0  0  0
  3  5  1  0  0  0  0
  4 16  1  6  0  0  0
  4 21  1  0  0  0  0
  4 22  2  0  0  0  0
  4 14  1  0  0  0  0
  5  1  1  1  0  0  0
  5  8  1  0  0  0  0
  6 17  2  0  0  0  0
  6 12  1  0  0  0  0
  8  7  1  6  0  0  0
  8 11  1  0  0  0  0
  9 19  1  0  0  0  0
 11 10  1  6  0  0  0
 12 20  2  0  0  0  0
 12 19  1  0  0  0  0
 13 20  1  0  0  0  0
 14 15  1  0  0  0  0
 18 19  2  0  0  0  0
M  CHG  1  21  -1
M  END
>  <CHROM.1>
36.34420810,52.10166913,-172.34848926,-166.04763178,-118.96066416,-29.87066249
3.18685211,-10.26507424,-0.36734472,-0.35893148,-2.96437414

>  <Name>
ligand

>  <RI>
0

>  <Rbt.Current_Directory>
/home/itssahil/PROJECTS/Mol_Feturizer/Test_systems_manuscript/rnas/4xwf

>  <Rbt.Executable>
rbdock ($Id: //depot/dev/client3/rdock/2013.1/src/exe/rbdock.cxx#4 $)

>  <Rbt.Library>
libRbt.so (2013.1, Build901 2013/11/27)

>  <Rbt.Parameter_File>
/export/apps/rDock/src/rDock_2013.1_src/data/scripts/dock_solv.prm

>  <Rbt.Receptor>
prm/pocket_docking_3.prm

>  <SCORE>
-6.88326

>  <SCORE.INTER>
-6.38228

>  <SCORE.INTER.CONST>
1

>  <SCORE.INTER.POLAR>
0

>  <SCORE.INTER.ROT>
5

>  <SCORE.INTER.SOLV>
10.8208

>  <SCORE.INTER.VDW>
-14.7951

>  <SCORE.INTER.norm>
-0.290104

>  <SCORE.INTRA>
-0.500978

>  <SCORE.INTRA.DIHEDRAL>
-0.825512

>  <SCORE.INTRA.DIHEDRAL.0>
3.49807

>  <SCORE.INTRA.POLAR>
0

>  <SCORE.INTRA.POLAR.0>
0

>  <SCORE.INTRA.REPUL>
0

>  <SCORE.INTRA.REPUL.0>
0

>  <SCORE.INTRA.SOLV>
0.935488

>  <SCORE.INTRA.SOLV.lig_0>
-73.062

>  <SCORE.INTRA.VDW>
-0.555966

>  <SCORE.INTRA.VDW.0>
-1.83782

>  <SCORE.INTRA.norm>
-0.0227717

>  <SCORE.RESTR>
0

>  <SCORE.RESTR.CAVITY>
0

>  <SCORE.RESTR.norm>
0

>  <SCORE.SYSTEM>
0

>  <SCORE.SYSTEM.CONST>
0

>  <SCORE.SYSTEM.DIHEDRAL>
0

>  <SCORE.SYSTEM.SOLV>
0

>  <SCORE.SYSTEM.norm>
0

>  <SCORE.heavy>
22

>  <SCORE.norm>
-0.312875

>  <RMSD>
6.526

$$$$
ligand
 OpenBabel02271912143D
libRbt.so/2013.1/901 2013/11/27
 22 23  0  0  0  0  0  0  0  0999 V2000
  -28.7155    3.4830  -10.9752 N   0  0  0  0  0  0  0  0  0  0  0  0
  -30.8612    0.8803  -10.7020 C   0  0  1  0  0  0  0  0  0  0  0  0
  -30.4716    2.0658  -11.4522 O   0  0  0  0  0  0  0  0  0  0  0  0
  -33.3026    3.1699   -8.9590 P   0  0  1  0  0  0  0  0  0  0  0  0
  -29.0439    2.2001  -11.3618 C   0  0  2  0  0  0  0  0  0  0  0  0
  -28.7473    5.3816   -9.9238 N   0  0  0  0  0  0  0  0  0  0  0  0
  -27.2837    0.9173  -10.3861 O   0  0  0  0  0  0  0  0  0  0  0  0
  -28.6529    1.3131  -10.2432 C   0  0  2  0  0  0  0  0  0  0  0  0
  -25.3999    6.2974  -10.6824 N   0  0  0  0  0  0  0  0  0  0  0  0
  -29.2485   -0.6550  -11.4344 O   0  0  0  0  0  0  0  0  0  0  0  0
  -29.5963    0.2057  -10.3369 C   0  0  2  0  0  0  0  0  0  0  0  0
  -27.7068    5.3892  -10.7711 C   0  0  0  0  0  0  0  0  0  0  0  0
  -26.7269    3.7909  -12.3986 N   0  0  0  0  0  0  0  0  0  0  0  0
  -32.5605    2.2319   -9.9730 O   0  0  0  0  0  0  0  0  0  0  0  0
  -31.5986    1.3487   -9.4950 C   0  0  0  0  0  0  0  0  0  0  0  0
  -34.4280    3.8284   -9.8367 O   0  0  0  0  0  0  0  0  0  0  0  0
  -29.3760    4.1982  -10.0571 C   0  0  0  0  0  0  0  0  0  0  0  0
  -27.1470    7.6044  -11.3343 O   0  0  0  0  0  0  0  0  0  0  0  0
  -26.7552    6.5004  -10.9563 C   0  0  0  0  0  0  0  0  0  0  0  0
  -27.6784    4.1958  -11.4346 C   0  0  0  0  0  0  0  0  0  0  0  0
  -33.8060    2.3658   -7.8066 O   0  5  0  0  0  0  0  0  0  0  0  0
  -32.3502    4.0762   -8.2925 O   0  0  0  0  0  0  0  0  0  0  0  0
  1 17  1  0  0  0  0
  1 20  1  0  0  0  0
  2 15  1  1  0  0  0
  2  3  1  0  0  0  0
  2 11  1  0  0  0  0
  3  5  1  0  0  0  0
  4 16  1  6  0  0  0
  4 21  1  0  0  0  0
  4 22  2  0  0  0  0
  4 14  1  0  0  0  0
  5  1  1  1  0  0  0
  5  8  1  0  0  0  0
  6 17  2  0  0  0  0
  6 12  1  0  0  0  0
  8  7  1  6  0  0  0
  8 11  1  0  0  0  0
  9 19  1  0  0  0  0
 11 10  1  6  0  0  0
 12 20  2  0  0  0  0
 12 19  1  0  0  0  0
 13 20  1  0  0  0  0
 14 15  1  0  0  0  0
 18 19  2  0  0  0  0
M  CHG  1  21  -1
M  END
>  <CHROM.1>
39.81687311,50.49318643,-171.72471461,-165.93381777,118.77259877,-29.90794828
3.17495955,-10.29700967,-0.38455983,-0.35942501,-3.01067837

>  <Name>
ligand

>  <RI>
0

>  <Rbt.Current_Directory>
/home/itssahil/PROJECTS/Mol_Feturizer/Test_systems_manuscript/rnas/4xwf

>  <Rbt.Executable>
rbdock ($Id: //depot/dev/client3/rdock/2013.1/src/exe/rbdock.cxx#4 $)

>  <Rbt.Library>
libRbt.so (2013.1, Build901 2013/11/27)

>  <Rbt.Parameter_File>
/export/apps/rDock/src/rDock_2013.1_src/data/scripts/dock_solv.prm

>  <Rbt.Receptor>
prm/pocket_docking_3.prm

>  <SCORE>
-6.85811

>  <SCORE.INTER>
-6.39408

>  <SCORE.INTER.CONST>
1

>  <SCORE.INTER.POLAR>
0

>  <SCORE.INTER.ROT>
5

>  <SCORE.INTER.SOLV>
11.0666

>  <SCORE.INTER.VDW>
-14.8849

>  <SCORE.INTER.norm>
-0.29064

>  <SCORE.INTRA>
-0.464029

>  <SCORE.INTRA.DIHEDRAL>
-0.703586

>  <SCORE.INTRA.DIHEDRAL.0>
3.49807

>  <SCORE.INTRA.POLAR>
0

>  <SCORE.INTRA.POLAR.0>
0

>  <SCORE.INTRA.REPUL>
0

>  <SCORE.INTRA.REPUL.0>
0

>  <SCORE.INTRA.SOLV>
0.827051

>  <SCORE.INTRA.SOLV.lig_0>
-73.062

>  <SCORE.INTRA.VDW>
-0.525762

>  <SCORE.INTRA.VDW.0>
-1.83782

>  <SCORE.INTRA.norm>
-0.0210922

>  <SCORE.RESTR>
0

>  <SCORE.RESTR.CAVITY>
0

>  <SCORE.RESTR.norm>
0

>  <SCORE.SYSTEM>
0

>  <SCORE.SYSTEM.CONST>
0

>  <SCORE.SYSTEM.DIHEDRAL>
0

>  <SCORE.SYSTEM.SOLV>
0

>  <SCORE.SYSTEM.norm>
0

>  <SCORE.heavy>
22

>  <SCORE.norm>
-0.311732

>  <RMSD>
6.528

$$$$
ligand
 OpenBabel02271912143D
libRbt.so/2013.1/901 2013/11/27
 22 23  0  0  0  0  0  0  0  0999 V2000
  -32.8258    3.4872   -8.3526 N   0  0  0  0  0  0  0  0  0  0  0  0
  -30.6268    1.1720   -9.4734 C   0  0  1  0  0  0  0  0  0  0  0  0
  -30.8714    2.5747   -9.1696 O   0  0  0  0  0  0  0  0  0  0  0  0
  -29.0459    1.1600  -11.9860 P   0  0  1  0  0  0  0  0  0  0  0  0
  -31.7798    2.6373   -8.0582 C   0  0  2  0  0  0  0  0  0  0  0  0
  -34.5295    4.3714   -9.3661 N   0  0  0  0  0  0  0  0  0  0  0  0
  -32.8257    1.0302   -6.6371 O   0  0  0  0  0  0  0  0  0  0  0  0
  -32.3582    1.2778   -7.9683 C   0  0  2  0  0  0  0  0  0  0  0  0
  -34.5516    7.5056   -7.8901 N   0  0  0  0  0  0  0  0  0  0  0  0
  -30.2878    0.3072   -7.3212 O   0  0  0  0  0  0  0  0  0  0  0  0
  -31.2600    0.4097   -8.3751 C   0  0  2  0  0  0  0  0  0  0  0  0
  -34.3100    5.0610   -8.2361 C   0  0  0  0  0  0  0  0  0  0  0  0
  -32.6976    4.9233   -6.3534 N   0  0  0  0  0  0  0  0  0  0  0  0
  -30.5316    1.5871  -11.7239 O   0  0  0  0  0  0  0  0  0  0  0  0
  -31.2786    0.8873  -10.7826 C   0  0  0  0  0  0  0  0  0  0  0  0
  -29.1299   -0.4081  -12.0545 O   0  0  0  0  0  0  0  0  0  0  0  0
  -33.6019    3.3977   -9.4390 C   0  0  0  0  0  0  0  0  0  0  0  0
  -36.2029    6.0672   -7.2657 O   0  0  0  0  0  0  0  0  0  0  0  0
  -35.0909    6.2220   -7.7704 C   0  0  0  0  0  0  0  0  0  0  0  0
  -33.2406    4.5083   -7.5909 C   0  0  0  0  0  0  0  0  0  0  0  0
  -28.5494    1.8094  -13.2349 O   0  5  0  0  0  0  0  0  0  0  0  0
  -28.1481    1.7436  -10.9731 O   0  0  0  0  0  0  0  0  0  0  0  0
  1 17  1  0  0  0  0
  1 20  1  0  0  0  0
  2 15  1  6  0  0  0
  2  3  1  0  0  0  0
  2 11  1  0  0  0  0
  3  5  1  0  0  0  0
  4 16  1  6  0  0  0
  4 21  1  0  0  0  0
  4 22  2  0  0  0  0
  4 14  1  0  0  0  0
  5  1  1  6  0  0  0
  5  8  1  0  0  0  0
  6 17  2  0  0  0  0
  6 12  1  0  0  0  0
  8  7  1  1  0  0  0
  8 11  1  0  0  0  0
  9 19  1  0  0  0  0
 11 10  1  1  0  0  0
 12 20  2  0  0  0  0
 12 19  1  0  0  0  0
 13 20  1  0  0  0  0
 14 15  1  0  0  0  0
 18 19  2  0  0  0  0
M  CHG  1  21  -1
M  END
>  <CHROM.1>
53.44636652,68.97331319,44.03515303,65.97300926,-104.41267463,-31.73547655
2.64307809,-9.30307101,-3.11388073,0.84326936,-0.89063681

>  <Name>
ligand

>  <RI>
0

>  <Rbt.Current_Directory>
/home/itssahil/PROJECTS/Mol_Feturizer/Test_systems_manuscript/rnas/4xwf

>  <Rbt.Executable>
rbdock ($Id: //depot/dev/client3/rdock/2013.1/src/exe/rbdock.cxx#4 $)

>  <Rbt.Library>
libRbt.so (2013.1, Build901 2013/11/27)

>  <Rbt.Parameter_File>
/export/apps/rDock/src/rDock_2013.1_src/data/scripts/dock_solv.prm

>  <Rbt.Receptor>
prm/pocket_docking_6.prm

>  <SCORE>
-8.1896

>  <SCORE.INTER>
-8.97049

>  <SCORE.INTER.CONST>
1

>  <SCORE.INTER.POLAR>
0

>  <SCORE.INTER.ROT>
5

>  <SCORE.INTER.SOLV>
10.965

>  <SCORE.INTER.VDW>
-16.5687

>  <SCORE.INTER.norm>
-0.40775

>  <SCORE.INTRA>
0.78089

>  <SCORE.INTRA.DIHEDRAL>
-0.802624

>  <SCORE.INTRA.DIHEDRAL.0>
3.49807

>  <SCORE.INTRA.POLAR>
0

>  <SCORE.INTRA.POLAR.0>
0

>  <SCORE.INTRA.REPUL>
0

>  <SCORE.INTRA.REPUL.0>
0

>  <SCORE.INTRA.SOLV>
1.38229

>  <SCORE.INTRA.SOLV.lig_0>
-73.062

>  <SCORE.INTRA.VDW>
0.491055

>  <SCORE.INTRA.VDW.0>
-1.83782

>  <SCORE.INTRA.norm>
0.035495

>  <SCORE.RESTR>
0

>  <SCORE.RESTR.CAVITY>
0

>  <SCORE.RESTR.norm>
0

>  <SCORE.SYSTEM>
0

>  <SCORE.SYSTEM.CONST>
0

>  <SCORE.SYSTEM.DIHEDRAL>
0

>  <SCORE.SYSTEM.SOLV>
0

>  <SCORE.SYSTEM.norm>
0

>  <SCORE.heavy>
22

>  <SCORE.norm>
-0.372255

>  <RMSD>
6.528

$$$$
ligand
 OpenBabel02271912143D
libRbt.so/2013.1/901 2013/11/27
 22 23  0  0  0  0  0  0  0  0999 V2000
  -28.4013    3.3779  -11.4382 N   0  0  0  0  0  0  0  0  0  0  0  0
  -30.5725    0.8382  -10.9013 C   0  0  1  0  0  0  0  0  0  0  0  0
  -30.2037    1.9705  -11.7390 O   0  0  0  0  0  0  0  0  0  0  0  0
  -33.1647    2.9718   -9.1504 P   0  0  1  0  0  0  0  0  0  0  0  0
  -28.7712    2.0816  -11.7313 C   0  0  2  0  0  0  0  0  0  0  0  0
  -28.2663    5.2964  -10.4322 N   0  0  0  0  0  0  0  0  0  0  0  0
  -26.9832    0.8226  -10.7754 O   0  0  0  0  0  0  0  0  0  0  0  0
  -28.3360    1.2530  -10.5847 C   0  0  2  0  0  0  0  0  0  0  0  0
  -26.5648    7.6082  -11.1047 N   0  0  0  0  0  0  0  0  0  0  0  0
  -29.0270   -0.7684  -11.6257 O   0  0  0  0  0  0  0  0  0  0  0  0
  -29.3014    0.1609  -10.5639 C   0  0  2  0  0  0  0  0  0  0  0  0
  -27.4146    5.3062  -11.4691 C   0  0  0  0  0  0  0  0  0  0  0  0
  -26.7411    3.6938  -13.2326 N   0  0  0  0  0  0  0  0  0  0  0  0
  -32.3171    2.1251  -10.1620 O   0  0  0  0  0  0  0  0  0  0  0  0
  -31.2366    1.3898   -9.6869 C   0  0  0  0  0  0  0  0  0  0  0  0
  -34.3612    3.4885  -10.0290 O   0  0  0  0  0  0  0  0  0  0  0  0
  -28.8826    4.0991  -10.4191 C   0  0  0  0  0  0  0  0  0  0  0  0
  -25.8120    6.3453  -12.8436 O   0  0  0  0  0  0  0  0  0  0  0  0
  -26.5433    6.4309  -11.8572 C   0  0  0  0  0  0  0  0  0  0  0  0
  -27.4917    4.1003  -12.1057 C   0  0  0  0  0  0  0  0  0  0  0  0
  -33.5679    2.1176   -7.9946 O   0  5  0  0  0  0  0  0  0  0  0  0
  -32.3263    3.9873   -8.4883 O   0  0  0  0  0  0  0  0  0  0  0  0
  1 17  1  0  0  0  0
  1 20  1  0  0  0  0
  2 15  1  1  0  0  0
  2  3  1  0  0  0  0
  2 11  1  0  0  0  0
  3  5  1  0  0  0  0
  4 16  1  6  0  0  0
  4 21  1  0  0  0  0
  4 22  2  0  0  0  0
  4 14  1  0  0  0  0
  5  1  1  1  0  0  0
  5  8  1  0  0  0  0
  6 17  2  0  0  0  0
  6 12  1  0  0  0  0
  8  7  1  6  0  0  0
  8 11  1  0  0  0  0
  9 19  1  0  0  0  0
 11 10  1  6  0  0  0
 12 20  2  0  0  0  0
 12 19  1  0  0  0  0
 13 20  1  0  0  0  0
 14 15  1  0  0  0  0
 18 19  2  0  0  0  0
M  CHG  1  21  -1
M  END
>  <CHROM.1>
48.80013869,58.01513799,-173.26851203,-173.92125027,0.44223328,-29.67516167
3.06440051,-10.71174164,-0.38123270,-0.43466083,-3.06238828

>  <Name>
ligand

>  <RI>
0

>  <Rbt.Current_Directory>
/home/itssahil/PROJECTS/Mol_Feturizer/Test_systems_manuscript/rnas/4xwf

>  <Rbt.Executable>
rbdock ($Id: //depot/dev/client3/rdock/2013.1/src/exe/rbdock.cxx#4 $)

>  <Rbt.Library>
libRbt.so (2013.1, Build901 2013/11/27)

>  <Rbt.Parameter_File>
/export/apps/rDock/src/rDock_2013.1_src/data/scripts/dock_solv.prm

>  <Rbt.Receptor>
prm/pocket_docking_4.prm

>  <SCORE>
-7.00734

>  <SCORE.INTER>
-6.04826

>  <SCORE.INTER.CONST>
1

>  <SCORE.INTER.POLAR>
0

>  <SCORE.INTER.ROT>
5

>  <SCORE.INTER.SOLV>
10.8045

>  <SCORE.INTER.VDW>
-14.567

>  <SCORE.INTER.norm>
-0.274921

>  <SCORE.INTRA>
-0.959076

>  <SCORE.INTRA.DIHEDRAL>
-1.76119

>  <SCORE.INTRA.DIHEDRAL.0>
3.49807

>  <SCORE.INTRA.POLAR>
0

>  <SCORE.INTRA.POLAR.0>
0

>  <SCORE.INTRA.REPUL>
0

>  <SCORE.INTRA.REPUL.0>
0

>  <SCORE.INTRA.SOLV>
0.178986

>  <SCORE.INTRA.SOLV.lig_0>
-73.062

>  <SCORE.INTRA.VDW>
-0.167974

>  <SCORE.INTRA.VDW.0>
-1.83782

>  <SCORE.INTRA.norm>
-0.0435944

>  <SCORE.RESTR>
0

>  <SCORE.RESTR.CAVITY>
0

>  <SCORE.RESTR.norm>
0

>  <SCORE.SYSTEM>
0

>  <SCORE.SYSTEM.CONST>
0

>  <SCORE.SYSTEM.DIHEDRAL>
0

>  <SCORE.SYSTEM.SOLV>
0

>  <SCORE.SYSTEM.norm>
0

>  <SCORE.heavy>
22

>  <SCORE.norm>
-0.318515

>  <RMSD>
6.529

$$$$
ligand
 OpenBabel02271912143D
libRbt.so/2013.1/901 2013/11/27
 22 23  0  0  0  0  0  0  0  0999 V2000
  -28.6746    3.5013  -10.9926 N   0  0  0  0  0  0  0  0  0  0  0  0
  -30.8441    0.9169  -10.7347 C   0  0  1  0  0  0  0  0  0  0  0  0
  -30.4449    2.1044  -11.4766 O   0  0  0  0  0  0  0  0  0  0  0  0
  -33.2945    3.1844   -8.9709 P   0  0  1  0  0  0  0  0  0  0  0  0
  -29.0159    2.2245  -11.3883 C   0  0  2  0  0  0  0  0  0  0  0  0
  -28.7068    5.4048   -9.9501 N   0  0  0  0  0  0  0  0  0  0  0  0
  -27.2658    0.9178  -10.4262 O   0  0  0  0  0  0  0  0  0  0  0  0
  -28.6309    1.3254  -10.2774 C   0  0  2  0  0  0  0  0  0  0  0  0
  -25.3204    6.2561  -10.5225 N   0  0  0  0  0  0  0  0  0  0  0  0
  -29.2475   -0.6279  -11.4822 O   0  0  0  0  0  0  0  0  0  0  0  0
  -29.5849    0.2277  -10.3775 C   0  0  2  0  0  0  0  0  0  0  0  0
  -27.6317    5.3849  -10.7529 C   0  0  0  0  0  0  0  0  0  0  0  0
  -26.6213    3.7574  -12.3321 N   0  0  0  0  0  0  0  0  0  0  0  0
  -32.5408    2.2652   -9.9934 O   0  0  0  0  0  0  0  0  0  0  0  0
  -31.5746    1.3830   -9.5225 C   0  0  0  0  0  0  0  0  0  0  0  0
  -34.4336    3.8301   -9.8404 O   0  0  0  0  0  0  0  0  0  0  0  0
  -29.3564    4.2355  -10.1057 C   0  0  0  0  0  0  0  0  0  0  0  0
  -26.9896    7.5709  -11.3414 O   0  0  0  0  0  0  0  0  0  0  0  0
  -26.6478    6.4732  -10.9016 C   0  0  0  0  0  0  0  0  0  0  0  0
  -27.6029    4.1882  -11.4104 C   0  0  0  0  0  0  0  0  0  0  0  0
  -33.7806    2.3648   -7.8220 O   0  5  0  0  0  0  0  0  0  0  0  0
  -32.3546    4.1018   -8.3018 O   0  0  0  0  0  0  0  0  0  0  0  0
  1 17  1  0  0  0  0
  1 20  1  0  0  0  0
  2 15  1  1  0  0  0
  2  3  1  0  0  0  0
  2 11  1  0  0  0  0
  3  5  1  0  0  0  0
  4 16  1  6  0  0  0
  4 21  1  0  0  0  0
  4 22  2  0  0  0  0
  4 14  1  0  0  0  0
  5  1  1  1  0  0  0
  5  8  1  0  0  0  0
  6 17  2  0  0  0  0
  6 12  1  0  0  0  0
  8  7  1  6  0  0  0
  8 11  1  0  0  0  0
  9 19  1  0  0  0  0
 11 10  1  6  0  0  0
 12 20  2  0  0  0  0
 12 19  1  0  0  0  0
 13 20  1  0  0  0  0
 14 15  1  0  0  0  0
 18 19  2  0  0  0  0
M  CHG  1  21  -1
M  END
>  <CHROM.1>
37.08502567,51.26506153,-170.93953859,-166.92577764,116.36212423,-29.86999726
3.18457109,-10.30321520,-0.36805228,-0.35198630,-2.99336025

>  <Name>
ligand

>  <RI>
0

>  <Rbt.Current_Directory>
/home/itssahil/PROJECTS/Mol_Feturizer/Test_systems_manuscript/rnas/4xwf

>  <Rbt.Executable>
rbdock ($Id: //depot/dev/client3/rdock/2013.1/src/exe/rbdock.cxx#4 $)

>  <Rbt.Library>
libRbt.so (2013.1, Build901 2013/11/27)

>  <Rbt.Parameter_File>
/export/apps/rDock/src/rDock_2013.1_src/data/scripts/dock_solv.prm

>  <Rbt.Receptor>
prm/pocket_docking_3.prm

>  <SCORE>
-6.91676

>  <SCORE.INTER>
-6.40228

>  <SCORE.INTER.CONST>
1

>  <SCORE.INTER.POLAR>
0

>  <SCORE.INTER.ROT>
5

>  <SCORE.INTER.SOLV>
10.9339

>  <SCORE.INTER.VDW>
-14.8462

>  <SCORE.INTER.norm>
-0.291013

>  <SCORE.INTRA>
-0.514761

>  <SCORE.INTRA.DIHEDRAL>
-0.845741

>  <SCORE.INTRA.DIHEDRAL.0>
3.49807

>  <SCORE.INTRA.POLAR>
0

>  <SCORE.INTRA.POLAR.0>
0

>  <SCORE.INTRA.REPUL>
0

>  <SCORE.INTRA.REPUL.0>
0

>  <SCORE.INTRA.SOLV>
0.869157

>  <SCORE.INTRA.SOLV.lig_0>
-73.062

>  <SCORE.INTRA.VDW>
-0.526469

>  <SCORE.INTRA.VDW.0>
-1.83782

>  <SCORE.INTRA.norm>
-0.0233982

>  <SCORE.RESTR>
0.000280388

>  <SCORE.RESTR.CAVITY>
0.000280388

>  <SCORE.RESTR.norm>
1.27449e-05

>  <SCORE.SYSTEM>
0

>  <SCORE.SYSTEM.CONST>
0

>  <SCORE.SYSTEM.DIHEDRAL>
0

>  <SCORE.SYSTEM.SOLV>
0

>  <SCORE.SYSTEM.norm>
0

>  <SCORE.heavy>
22

>  <SCORE.norm>
-0.314398

>  <RMSD>
6.530

$$$$
ligand
 OpenBabel02271912143D
libRbt.so/2013.1/901 2013/11/27
 22 23  0  0  0  0  0  0  0  0999 V2000
  -28.4206    3.4562  -11.2300 N   0  0  0  0  0  0  0  0  0  0  0  0
  -30.6195    0.9106  -10.8588 C   0  0  1  0  0  0  0  0  0  0  0  0
  -30.2328    2.0857  -11.6267 O   0  0  0  0  0  0  0  0  0  0  0  0
  -33.1299    3.0599   -9.0219 P   0  0  1  0  0  0  0  0  0  0  0  0
  -28.7995    2.1824  -11.6004 C   0  0  2  0  0  0  0  0  0  0  0  0
  -28.3136    5.3311  -10.1418 N   0  0  0  0  0  0  0  0  0  0  0  0
  -27.0317    0.8536  -10.7034 O   0  0  0  0  0  0  0  0  0  0  0  0
  -28.3822    1.2852  -10.4997 C   0  0  2  0  0  0  0  0  0  0  0  0
  -25.0836    6.2393  -11.3746 N   0  0  0  0  0  0  0  0  0  0  0  0
  -29.0820   -0.6663  -11.6614 O   0  0  0  0  0  0  0  0  0  0  0  0
  -29.3576    0.2030  -10.5502 C   0  0  2  0  0  0  0  0  0  0  0  0
  -27.3871    5.3564  -11.1121 C   0  0  0  0  0  0  0  0  0  0  0  0
  -26.6241    3.7934  -12.8837 N   0  0  0  0  0  0  0  0  0  0  0  0
  -32.3478    2.1848  -10.0616 O   0  0  0  0  0  0  0  0  0  0  0  0
  -31.2896    1.3978   -9.6204 C   0  0  0  0  0  0  0  0  0  0  0  0
  -34.2478    3.7393   -9.8932 O   0  0  0  0  0  0  0  0  0  0  0  0
  -28.9585    4.1516  -10.2213 C   0  0  0  0  0  0  0  0  0  0  0  0
  -26.8929    7.6001  -11.6207 O   0  0  0  0  0  0  0  0  0  0  0  0
  -26.4618    6.4704  -11.3905 C   0  0  0  0  0  0  0  0  0  0  0  0
  -27.4463    4.1778  -11.7998 C   0  0  0  0  0  0  0  0  0  0  0  0
  -33.6434    2.1929   -7.9207 O   0  5  0  0  0  0  0  0  0  0  0  0
  -32.2099    3.9503   -8.2915 O   0  0  0  0  0  0  0  0  0  0  0  0
  1 17  1  0  0  0  0
  1 20  1  0  0  0  0
  2 15  1  1  0  0  0
  2  3  1  0  0  0  0
  2 11  1  0  0  0  0
  3  5  1  0  0  0  0
  4 16  1  6  0  0  0
  4 21  1  0  0  0  0
  4 22  2  0  0  0  0
  4 14  1  0  0  0  0
  5  1  1  1  0  0  0
  5  8  1  0  0  0  0
  6 17  2  0  0  0  0
  6 12  1  0  0  0  0
  8  7  1  6  0  0  0
  8 11  1  0  0  0  0
  9 19  1  0  0  0  0
 11 10  1  6  0  0  0
 12 20  2  0  0  0  0
 12 19  1  0  0  0  0
 13 20  1  0  0  0  0
 14 15  1  0  0  0  0
 18 19  2  0  0  0  0
M  CHG  1  21  -1
M  END
>  <CHROM.1>
44.78952524,57.20276749,-178.15549248,-169.75364379,122.76196640,-29.66611710
3.13165870,-10.52172971,-0.36693599,-0.40171352,-3.01717180

>  <Name>
ligand

>  <RI>
0

>  <Rbt.Current_Directory>
/home/itssahil/PROJECTS/Mol_Feturizer/Test_systems_manuscript/rnas/4xwf

>  <Rbt.Executable>
rbdock ($Id: //depot/dev/client3/rdock/2013.1/src/exe/rbdock.cxx#4 $)

>  <Rbt.Library>
libRbt.so (2013.1, Build901 2013/11/27)

>  <Rbt.Parameter_File>
/export/apps/rDock/src/rDock_2013.1_src/data/scripts/dock_solv.prm

>  <Rbt.Receptor>
prm/pocket_docking_3.prm

>  <SCORE>
-6.70709

>  <SCORE.INTER>
-5.77696

>  <SCORE.INTER.CONST>
1

>  <SCORE.INTER.POLAR>
0

>  <SCORE.INTER.ROT>
5

>  <SCORE.INTER.SOLV>
9.9165

>  <SCORE.INTER.VDW>
-14.0901

>  <SCORE.INTER.norm>
-0.262589

>  <SCORE.INTRA>
-0.931764

>  <SCORE.INTRA.DIHEDRAL>
-1.46714

>  <SCORE.INTRA.DIHEDRAL.0>
3.49807

>  <SCORE.INTRA.POLAR>
0

>  <SCORE.INTRA.POLAR.0>
0

>  <SCORE.INTRA.REPUL>
0

>  <SCORE.INTRA.REPUL.0>
0

>  <SCORE.INTRA.SOLV>
0.490687

>  <SCORE.INTRA.SOLV.lig_0>
-73.062

>  <SCORE.INTRA.VDW>
-0.443536

>  <SCORE.INTRA.VDW.0>
-1.83782

>  <SCORE.INTRA.norm>
-0.0423529

>  <SCORE.RESTR>
0.00163506

>  <SCORE.RESTR.CAVITY>
0.00163506

>  <SCORE.RESTR.norm>
7.43211e-05

>  <SCORE.SYSTEM>
0

>  <SCORE.SYSTEM.CONST>
0

>  <SCORE.SYSTEM.DIHEDRAL>
0

>  <SCORE.SYSTEM.SOLV>
0

>  <SCORE.SYSTEM.norm>
0

>  <SCORE.heavy>
22

>  <SCORE.norm>
-0.304868

>  <RMSD>
6.531

$$$$
ligand
 OpenBabel02271912143D
libRbt.so/2013.1/901 2013/11/27
 22 23  0  0  0  0  0  0  0  0999 V2000
  -28.4980    3.4835  -11.1823 N   0  0  0  0  0  0  0  0  0  0  0  0
  -30.6658    0.9049  -10.8599 C   0  0  1  0  0  0  0  0  0  0  0  0
  -30.2618    2.0684  -11.6364 O   0  0  0  0  0  0  0  0  0  0  0  0
  -33.2583    3.1018   -9.2054 P   0  0  1  0  0  0  0  0  0  0  0  0
  -28.8338    2.1940  -11.5394 C   0  0  2  0  0  0  0  0  0  0  0  0
  -28.4811    5.3856  -10.1369 N   0  0  0  0  0  0  0  0  0  0  0  0
  -27.0903    0.9223  -10.5201 O   0  0  0  0  0  0  0  0  0  0  0  0
  -28.4573    1.3320  -10.3966 C   0  0  2  0  0  0  0  0  0  0  0  0
  -26.6807    7.2265  -12.5292 N   0  0  0  0  0  0  0  0  0  0  0  0
  -29.0602   -0.6604  -11.5430 O   0  0  0  0  0  0  0  0  0  0  0  0
  -29.4087    0.2299  -10.4695 C   0  0  2  0  0  0  0  0  0  0  0  0
  -27.5077    5.4064  -11.0603 C   0  0  0  0  0  0  0  0  0  0  0  0
  -26.6276    3.8173  -12.7526 N   0  0  0  0  0  0  0  0  0  0  0  0
  -32.4324    2.1961  -10.1833 O   0  0  0  0  0  0  0  0  0  0  0  0
  -31.4077    1.4086   -9.6700 C   0  0  0  0  0  0  0  0  0  0  0  0
  -34.4695    3.5733  -10.0893 O   0  0  0  0  0  0  0  0  0  0  0  0
  -29.0988    4.1918  -10.2190 C   0  0  0  0  0  0  0  0  0  0  0  0
  -25.7413    6.8522  -10.4888 O   0  0  0  0  0  0  0  0  0  0  0  0
  -26.5908    6.5318  -11.3199 C   0  0  0  0  0  0  0  0  0  0  0  0
  -27.5101    4.2109  -11.7207 C   0  0  0  0  0  0  0  0  0  0  0  0
  -33.6424    2.3156   -7.9961 O   0  5  0  0  0  0  0  0  0  0  0  0
  -32.4046    4.1495   -8.6171 O   0  0  0  0  0  0  0  0  0  0  0  0
  1 17  1  0  0  0  0
  1 20  1  0  0  0  0
  2 15  1  1  0  0  0
  2  3  1  0  0  0  0
  2 11  1  0  0  0  0
  3  5  1  0  0  0  0
  4 16  1  6  0  0  0
  4 21  1  0  0  0  0
  4 22  2  0  0  0  0
  4 14  1  0  0  0  0
  5  1  1  1  0  0  0
  5  8  1  0  0  0  0
  6 17  2  0  0  0  0
  6 12  1  0  0  0  0
  8  7  1  6  0  0  0
  8 11  1  0  0  0  0
  9 19  1  0  0  0  0
 11 10  1  6  0  0  0
 12 20  2  0  0  0  0
 12 19  1  0  0  0  0
 13 20  1  0  0  0  0
 14 15  1  0  0  0  0
 18 19  2  0  0  0  0
M  CHG  1  21  -1
M  END
>  <CHROM.1>
44.87752745,55.48762646,-168.57536210,-168.88533757,-112.40389042,-29.75803888
3.16703209,-10.53107673,-0.39517426,-0.36216528,-3.04005310

>  <Name>
ligand

>  <RI>
0

>  <Rbt.Current_Directory>
/home/itssahil/PROJECTS/Mol_Feturizer/Test_systems_manuscript/rnas/4xwf

>  <Rbt.Executable>
rbdock ($Id: //depot/dev/client3/rdock/2013.1/src/exe/rbdock.cxx#4 $)

>  <Rbt.Library>
libRbt.so (2013.1, Build901 2013/11/27)

>  <Rbt.Parameter_File>
/export/apps/rDock/src/rDock_2013.1_src/data/scripts/dock_solv.prm

>  <Rbt.Receptor>
prm/pocket_docking_4.prm

>  <SCORE>
-7.17231

>  <SCORE.INTER>
-6.45692

>  <SCORE.INTER.CONST>
1

>  <SCORE.INTER.POLAR>
0

>  <SCORE.INTER.ROT>
5

>  <SCORE.INTER.SOLV>
11.7292

>  <SCORE.INTER.VDW>
-15.1477

>  <SCORE.INTER.norm>
-0.293496

>  <SCORE.INTRA>
-0.715391

>  <SCORE.INTRA.DIHEDRAL>
-1.11547

>  <SCORE.INTRA.DIHEDRAL.0>
3.49807

>  <SCORE.INTRA.POLAR>
0

>  <SCORE.INTRA.POLAR.0>
0

>  <SCORE.INTRA.REPUL>
0

>  <SCORE.INTRA.REPUL.0>
0

>  <SCORE.INTRA.SOLV>
0.5097

>  <SCORE.INTRA.SOLV.lig_0>
-73.062

>  <SCORE.INTRA.VDW>
-0.412508

>  <SCORE.INTRA.VDW.0>
-1.83782

>  <SCORE.INTRA.norm>
-0.0325178

>  <SCORE.RESTR>
0

>  <SCORE.RESTR.CAVITY>
0

>  <SCORE.RESTR.norm>
0

>  <SCORE.SYSTEM>
0

>  <SCORE.SYSTEM.CONST>
0

>  <SCORE.SYSTEM.DIHEDRAL>
0

>  <SCORE.SYSTEM.SOLV>
0

>  <SCORE.SYSTEM.norm>
0

>  <SCORE.heavy>
22

>  <SCORE.norm>
-0.326014

>  <RMSD>
6.531

$$$$
ligand
 OpenBabel02271912143D
libRbt.so/2013.1/901 2013/11/27
 22 23  0  0  0  0  0  0  0  0999 V2000
  -28.3832    3.3488  -11.5200 N   0  0  0  0  0  0  0  0  0  0  0  0
  -30.5810    0.8504  -10.9032 C   0  0  1  0  0  0  0  0  0  0  0  0
  -30.2004    1.9517  -11.7763 O   0  0  0  0  0  0  0  0  0  0  0  0
  -33.1312    3.0915   -9.2342 P   0  0  1  0  0  0  0  0  0  0  0  0
  -28.7669    2.0478  -11.7720 C   0  0  2  0  0  0  0  0  0  0  0  0
  -28.2069    5.2876  -10.5605 N   0  0  0  0  0  0  0  0  0  0  0  0
  -26.9920    0.8009  -10.7765 O   0  0  0  0  0  0  0  0  0  0  0  0
  -28.3402    1.2514  -10.5996 C   0  0  2  0  0  0  0  0  0  0  0  0
  -26.7743    6.9893  -13.3080 N   0  0  0  0  0  0  0  0  0  0  0  0
  -29.0527   -0.7945  -11.5762 O   0  0  0  0  0  0  0  0  0  0  0  0
  -29.3171    0.1708  -10.5444 C   0  0  2  0  0  0  0  0  0  0  0  0
  -27.3933    5.2727  -11.6274 C   0  0  0  0  0  0  0  0  0  0  0  0
  -26.7884    3.6212  -13.3796 N   0  0  0  0  0  0  0  0  0  0  0  0
  -32.3271    2.1570  -10.2030 O   0  0  0  0  0  0  0  0  0  0  0  0
  -31.2390    1.4472   -9.7070 C   0  0  0  0  0  0  0  0  0  0  0  0
  -34.3827    3.5050  -10.0907 O   0  0  0  0  0  0  0  0  0  0  0  0
  -28.8254    4.0930  -10.4996 C   0  0  0  0  0  0  0  0  0  0  0  0
  -25.6012    6.7755  -11.3679 O   0  0  0  0  0  0  0  0  0  0  0  0
  -26.5338    6.3860  -12.0706 C   0  0  0  0  0  0  0  0  0  0  0  0
  -27.4965    4.0539  -12.2351 C   0  0  0  0  0  0  0  0  0  0  0  0
  -33.4560    2.3531   -7.9784 O   0  5  0  0  0  0  0  0  0  0  0  0
  -32.2742    4.1772   -8.7247 O   0  0  0  0  0  0  0  0  0  0  0  0
  1 17  1  0  0  0  0
  1 20  1  0  0  0  0
  2 15  1  1  0  0  0
  2  3  1  0  0  0  0
  2 11  1  0  0  0  0
  3  5  1  0  0  0  0
  4 16  1  6  0  0  0
  4 21  1  0  0  0  0
  4 22  2  0  0  0  0
  4 14  1  0  0  0  0
  5  1  1  1  0  0  0
  5  8  1  0  0  0  0
  6 17  2  0  0  0  0
  6 12  1  0  0  0  0
  8  7  1  6  0  0  0
  8 11  1  0  0  0  0
  9 19  1  0  0  0  0
 11 10  1  6  0  0  0
 12 20  2  0  0  0  0
 12 19  1  0  0  0  0
 13 20  1  0  0  0  0
 14 15  1  0  0  0  0
 18 19  2  0  0  0  0
M  CHG  1  21  -1
M  END
>  <CHROM.1>
51.00336154,59.14671996,-170.97481571,-171.09794894,-115.80727519,-29.66248456
3.08247350,-10.79559341,-0.38912521,-0.42619943,-3.11510292

>  <Name>
ligand

>  <RI>
0

>  <Rbt.Current_Directory>
/home/itssahil/PROJECTS/Mol_Feturizer/Test_systems_manuscript/rnas/4xwf

>  <Rbt.Executable>
rbdock ($Id: //depot/dev/client3/rdock/2013.1/src/exe/rbdock.cxx#4 $)

>  <Rbt.Library>
libRbt.so (2013.1, Build901 2013/11/27)

>  <Rbt.Parameter_File>
/export/apps/rDock/src/rDock_2013.1_src/data/scripts/dock_solv.prm

>  <Rbt.Receptor>
prm/pocket_docking_4.prm

>  <SCORE>
-7.16443

>  <SCORE.INTER>
-6.20671

>  <SCORE.INTER.CONST>
1

>  <SCORE.INTER.POLAR>
0

>  <SCORE.INTER.ROT>
5

>  <SCORE.INTER.SOLV>
11.5055

>  <SCORE.INTER.VDW>
-14.9063

>  <SCORE.INTER.norm>
-0.282123

>  <SCORE.INTRA>
-0.957717

>  <SCORE.INTRA.DIHEDRAL>
-1.4918

>  <SCORE.INTRA.DIHEDRAL.0>
3.49807

>  <SCORE.INTRA.POLAR>
0

>  <SCORE.INTRA.POLAR.0>
0

>  <SCORE.INTRA.REPUL>
0

>  <SCORE.INTRA.REPUL.0>
0

>  <SCORE.INTRA.SOLV>
0.227281

>  <SCORE.INTRA.SOLV.lig_0>
-73.062

>  <SCORE.INTRA.VDW>
-0.325455

>  <SCORE.INTRA.VDW.0>
-1.83782

>  <SCORE.INTRA.norm>
-0.0435326

>  <SCORE.RESTR>
0

>  <SCORE.RESTR.CAVITY>
0

>  <SCORE.RESTR.norm>
0

>  <SCORE.SYSTEM>
0

>  <SCORE.SYSTEM.CONST>
0

>  <SCORE.SYSTEM.DIHEDRAL>
0

>  <SCORE.SYSTEM.SOLV>
0

>  <SCORE.SYSTEM.norm>
0

>  <SCORE.heavy>
22

>  <SCORE.norm>
-0.325656

>  <RMSD>
6.531

$$$$
ligand
 OpenBabel02271912143D
libRbt.so/2013.1/901 2013/11/27
 22 23  0  0  0  0  0  0  0  0999 V2000
  -28.4053    3.4240  -11.3599 N   0  0  0  0  0  0  0  0  0  0  0  0
  -30.6103    0.8962  -10.9120 C   0  0  1  0  0  0  0  0  0  0  0  0
  -30.2096    2.0348  -11.7262 O   0  0  0  0  0  0  0  0  0  0  0  0
  -33.1870    3.0872   -9.2150 P   0  0  1  0  0  0  0  0  0  0  0  0
  -28.7770    2.1341  -11.6778 C   0  0  2  0  0  0  0  0  0  0  0  0
  -28.2890    5.3328  -10.3332 N   0  0  0  0  0  0  0  0  0  0  0  0
  -27.0260    0.8501  -10.6873 O   0  0  0  0  0  0  0  0  0  0  0  0
  -28.3802    1.2893  -10.5291 C   0  0  2  0  0  0  0  0  0  0  0  0
  -26.6668    7.1225  -12.9019 N   0  0  0  0  0  0  0  0  0  0  0  0
  -29.0578   -0.7147  -11.6117 O   0  0  0  0  0  0  0  0  0  0  0  0
  -29.3543    0.2049  -10.5474 C   0  0  2  0  0  0  0  0  0  0  0  0
  -27.3984    5.3420  -11.3369 C   0  0  0  0  0  0  0  0  0  0  0  0
  -26.6750    3.7370  -13.0873 N   0  0  0  0  0  0  0  0  0  0  0  0
  -32.3530    2.2046  -10.2070 O   0  0  0  0  0  0  0  0  0  0  0  0
  -31.3034    1.4396   -9.7102 C   0  0  0  0  0  0  0  0  0  0  0  0
  -34.4295    3.5183  -10.0758 O   0  0  0  0  0  0  0  0  0  0  0  0
  -28.9176    4.1420  -10.3536 C   0  0  0  0  0  0  0  0  0  0  0  0
  -25.6035    6.8036  -10.9135 O   0  0  0  0  0  0  0  0  0  0  0  0
  -26.5016    6.4606  -11.6822 C   0  0  0  0  0  0  0  0  0  0  0  0
  -27.4636    4.1422  -11.9862 C   0  0  0  0  0  0  0  0  0  0  0  0
  -33.5225    2.2930   -7.9965 O   0  5  0  0  0  0  0  0  0  0  0  0
  -32.3547    4.1626   -8.6462 O   0  0  0  0  0  0  0  0  0  0  0  0
  1 17  1  0  0  0  0
  1 20  1  0  0  0  0
  2 15  1  1  0  0  0
  2  3  1  0  0  0  0
  2 11  1  0  0  0  0
  3  5  1  0  0  0  0
  4 16  1  6  0  0  0
  4 21  1  0  0  0  0
  4 22  2  0  0  0  0
  4 14  1  0  0  0  0
  5  1  1  1  0  0  0
  5  8  1  0  0  0  0
  6 17  2  0  0  0  0
  6 12  1  0  0  0  0
  8  7  1  6  0  0  0
  8 11  1  0  0  0  0
  9 19  1  0  0  0  0
 11 10  1  6  0  0  0
 12 20  2  0  0  0  0
 12 19  1  0  0  0  0
 13 20  1  0  0  0  0
 14 15  1  0  0  0  0
 18 19  2  0  0  0  0
M  CHG  1  21  -1
M  END
>  <CHROM.1>
48.17052354,57.17847625,-167.89130703,-171.91687042,-114.26581175,-29.68443957
3.12681425,-10.67189574,-0.38333013,-0.39600475,-3.06406356

>  <Name>
ligand

>  <RI>
0

>  <Rbt.Current_Directory>
/home/itssahil/PROJECTS/Mol_Feturizer/Test_systems_manuscript/rnas/4xwf

>  <Rbt.Executable>
rbdock ($Id: //depot/dev/client3/rdock/2013.1/src/exe/rbdock.cxx#4 $)

>  <Rbt.Library>
libRbt.so (2013.1, Build901 2013/11/27)

>  <Rbt.Parameter_File>
/export/apps/rDock/src/rDock_2013.1_src/data/scripts/dock_solv.prm

>  <Rbt.Receptor>
prm/pocket_docking_4.prm

>  <SCORE>
-7.2019

>  <SCORE.INTER>
-6.29847

>  <SCORE.INTER.CONST>
1

>  <SCORE.INTER.POLAR>
0

>  <SCORE.INTER.ROT>
5

>  <SCORE.INTER.SOLV>
11.4625

>  <SCORE.INTER.VDW>
-14.9532

>  <SCORE.INTER.norm>
-0.286294

>  <SCORE.INTRA>
-0.903435

>  <SCORE.INTRA.DIHEDRAL>
-1.43331

>  <SCORE.INTRA.DIHEDRAL.0>
3.49807

>  <SCORE.INTRA.POLAR>
0

>  <SCORE.INTRA.POLAR.0>
0

>  <SCORE.INTRA.REPUL>
0

>  <SCORE.INTRA.REPUL.0>
0

>  <SCORE.INTRA.SOLV>
0.310134

>  <SCORE.INTRA.SOLV.lig_0>
-73.062

>  <SCORE.INTRA.VDW>
-0.341847

>  <SCORE.INTRA.VDW.0>
-1.83782

>  <SCORE.INTRA.norm>
-0.0410652

>  <SCORE.RESTR>
0

>  <SCORE.RESTR.CAVITY>
0

>  <SCORE.RESTR.norm>
0

>  <SCORE.SYSTEM>
0

>  <SCORE.SYSTEM.CONST>
0

>  <SCORE.SYSTEM.DIHEDRAL>
0

>  <SCORE.SYSTEM.SOLV>
0

>  <SCORE.SYSTEM.norm>
0

>  <SCORE.heavy>
22

>  <SCORE.norm>
-0.327359

>  <RMSD>
6.535

$$$$
ligand
 OpenBabel02271912143D
libRbt.so/2013.1/901 2013/11/27
 22 23  0  0  0  0  0  0  0  0999 V2000
  -28.6365    3.5043  -10.8738 N   0  0  0  0  0  0  0  0  0  0  0  0
  -30.8253    0.9275  -10.7251 C   0  0  1  0  0  0  0  0  0  0  0  0
  -30.4031    2.1296  -11.4299 O   0  0  0  0  0  0  0  0  0  0  0  0
  -33.3048    3.1658   -8.9655 P   0  0  1  0  0  0  0  0  0  0  0  0
  -28.9758    2.2392  -11.3070 C   0  0  2  0  0  0  0  0  0  0  0  0
  -28.6517    5.3631   -9.7533 N   0  0  0  0  0  0  0  0  0  0  0  0
  -27.2548    0.8999  -10.3373 O   0  0  0  0  0  0  0  0  0  0  0  0
  -28.6206    1.3120  -10.2093 C   0  0  2  0  0  0  0  0  0  0  0  0
  -25.3070    6.2941  -10.4280 N   0  0  0  0  0  0  0  0  0  0  0  0
  -29.2207   -0.6088  -11.4732 O   0  0  0  0  0  0  0  0  0  0  0  0
  -29.5781    0.2226  -10.3564 C   0  0  2  0  0  0  0  0  0  0  0  0
  -27.6120    5.3935  -10.6011 C   0  0  0  0  0  0  0  0  0  0  0  0
  -26.6469    3.8483  -12.2877 N   0  0  0  0  0  0  0  0  0  0  0  0
  -32.5347    2.2636   -9.9910 O   0  0  0  0  0  0  0  0  0  0  0  0
  -31.5801    1.3694   -9.5189 C   0  0  0  0  0  0  0  0  0  0  0  0
  -34.4342    3.8206   -9.8408 O   0  0  0  0  0  0  0  0  0  0  0  0
  -29.2902    4.1906   -9.9292 C   0  0  0  0  0  0  0  0  0  0  0  0
  -27.0272    7.6105  -11.1305 O   0  0  0  0  0  0  0  0  0  0  0  0
  -26.6516    6.5030  -10.7465 C   0  0  0  0  0  0  0  0  0  0  0  0
  -27.5941    4.2251  -11.3081 C   0  0  0  0  0  0  0  0  0  0  0  0
  -33.8036    2.3282   -7.8352 O   0  5  0  0  0  0  0  0  0  0  0  0
  -32.3767    4.0761   -8.2708 O   0  0  0  0  0  0  0  0  0  0  0  0
  1 17  1  0  0  0  0
  1 20  1  0  0  0  0
  2 15  1  1  0  0  0
  2  3  1  0  0  0  0
  2 11  1  0  0  0  0
  3  5  1  0  0  0  0
  4 16  1  6  0  0  0
  4 21  1  0  0  0  0
  4 22  2  0  0  0  0
  4 14  1  0  0  0  0
  5  1  1  1  0  0  0
  5  8  1  0  0  0  0
  6 17  2  0  0  0  0
  6 12  1  0  0  0  0
  8  7  1  6  0  0  0
  8 11  1  0  0  0  0
  9 19  1  0  0  0  0
 11 10  1  6  0  0  0
 12 20  2  0  0  0  0
 12 19  1  0  0  0  0
 13 20  1  0  0  0  0
 14 15  1  0  0  0  0
 18 19  2  0  0  0  0
M  CHG  1  21  -1
M  END
>  <CHROM.1>
41.13579598,51.52168960,-170.40014596,-166.73742331,116.08939913,-29.86133511
3.18708433,-10.23648485,-0.37592324,-0.33829144,-2.97978347

>  <Name>
ligand

>  <RI>
0

>  <Rbt.Current_Directory>
/home/itssahil/PROJECTS/Mol_Feturizer/Test_systems_manuscript/rnas/4xwf

>  <Rbt.Executable>
rbdock ($Id: //depot/dev/client3/rdock/2013.1/src/exe/rbdock.cxx#4 $)

>  <Rbt.Library>
libRbt.so (2013.1, Build901 2013/11/27)

>  <Rbt.Parameter_File>
/export/apps/rDock/src/rDock_2013.1_src/data/scripts/dock_solv.prm

>  <Rbt.Receptor>
prm/pocket_docking_3.prm

>  <SCORE>
-6.82422

>  <SCORE.INTER>
-6.30714

>  <SCORE.INTER.CONST>
1

>  <SCORE.INTER.POLAR>
0

>  <SCORE.INTER.ROT>
5

>  <SCORE.INTER.SOLV>
10.7484

>  <SCORE.INTER.VDW>
-14.7209

>  <SCORE.INTER.norm>
-0.286688

>  <SCORE.INTRA>
-0.523236

>  <SCORE.INTRA.DIHEDRAL>
-0.818389

>  <SCORE.INTRA.DIHEDRAL.0>
3.49807

>  <SCORE.INTRA.POLAR>
0

>  <SCORE.INTRA.POLAR.0>
0

>  <SCORE.INTRA.REPUL>
0

>  <SCORE.INTRA.REPUL.0>
0

>  <SCORE.INTRA.SOLV>
0.738968

>  <SCORE.INTRA.SOLV.lig_0>
-73.062

>  <SCORE.INTRA.VDW>
-0.483525

>  <SCORE.INTRA.VDW.0>
-1.83782

>  <SCORE.INTRA.norm>
-0.0237835

>  <SCORE.RESTR>
0.0061585

>  <SCORE.RESTR.CAVITY>
0.0061585

>  <SCORE.RESTR.norm>
0.000279932

>  <SCORE.SYSTEM>
0

>  <SCORE.SYSTEM.CONST>
0

>  <SCORE.SYSTEM.DIHEDRAL>
0

>  <SCORE.SYSTEM.SOLV>
0

>  <SCORE.SYSTEM.norm>
0

>  <SCORE.heavy>
22

>  <SCORE.norm>
-0.310192

>  <RMSD>
6.537

$$$$
ligand
 OpenBabel02271912143D
libRbt.so/2013.1/901 2013/11/27
 22 23  0  0  0  0  0  0  0  0999 V2000
  -28.6720    3.5066  -10.9644 N   0  0  0  0  0  0  0  0  0  0  0  0
  -30.8444    0.9232  -10.7211 C   0  0  1  0  0  0  0  0  0  0  0  0
  -30.4441    2.1146  -11.4561 O   0  0  0  0  0  0  0  0  0  0  0  0
  -33.3123    3.1705   -8.9677 P   0  0  1  0  0  0  0  0  0  0  0  0
  -29.0149    2.2326  -11.3676 C   0  0  2  0  0  0  0  0  0  0  0  0
  -28.6899    5.3964   -9.8970 N   0  0  0  0  0  0  0  0  0  0  0  0
  -27.2660    0.9182  -10.4141 O   0  0  0  0  0  0  0  0  0  0  0  0
  -28.6305    1.3264  -10.2623 C   0  0  2  0  0  0  0  0  0  0  0  0
  -25.3232    6.2753  -10.5552 N   0  0  0  0  0  0  0  0  0  0  0  0
  -29.2498   -0.6189  -11.4785 O   0  0  0  0  0  0  0  0  0  0  0  0
  -29.5858    0.2304  -10.3686 C   0  0  2  0  0  0  0  0  0  0  0  0
  -27.6358    5.3942  -10.7273 C   0  0  0  0  0  0  0  0  0  0  0  0
  -26.6558    3.7941  -12.3529 N   0  0  0  0  0  0  0  0  0  0  0  0
  -32.5793    2.2202   -9.9767 O   0  0  0  0  0  0  0  0  0  0  0  0
  -31.5739    1.3828   -9.5059 C   0  0  0  0  0  0  0  0  0  0  0  0
  -34.4328    3.8336   -9.8482 O   0  0  0  0  0  0  0  0  0  0  0  0
  -29.3356    4.2247  -10.0509 C   0  0  0  0  0  0  0  0  0  0  0  0
  -27.0253    7.5947  -11.2953 O   0  0  0  0  0  0  0  0  0  0  0  0
  -26.6634    6.4912  -10.8873 C   0  0  0  0  0  0  0  0  0  0  0  0
  -27.6161    4.2062  -11.4008 C   0  0  0  0  0  0  0  0  0  0  0  0
  -33.8216    2.3775   -7.8102 O   0  5  0  0  0  0  0  0  0  0  0  0
  -32.3515    4.0724   -8.3073 O   0  0  0  0  0  0  0  0  0  0  0  0
  1 17  1  0  0  0  0
  1 20  1  0  0  0  0
  2 15  1  1  0  0  0
  2  3  1  0  0  0  0
  2 11  1  0  0  0  0
  3  5  1  0  0  0  0
  4 16  1  6  0  0  0
  4 21  1  0  0  0  0
  4 22  2  0  0  0  0
  4 14  1  0  0  0  0
  5  1  1  1  0  0  0
  5  8  1  0  0  0  0
  6 17  2  0  0  0  0
  6 12  1  0  0  0  0
  8  7  1  6  0  0  0
  8 11  1  0  0  0  0
  9 19  1  0  0  0  0
 11 10  1  6  0  0  0
 12 20  2  0  0  0  0
 12 19  1  0  0  0  0
 13 20  1  0  0  0  0
 14 15  1  0  0  0  0
 18 19  2  0  0  0  0
M  CHG  1  21  -1
M  END
>  <CHROM.1>
38.65829253,53.96967449,-175.16881327,-164.48752220,116.86183859,-29.87835261
3.18674266,-10.29018156,-0.37207171,-0.35136074,-2.99349221

>  <Name>
ligand

>  <RI>
0

>  <Rbt.Current_Directory>
/home/itssahil/PROJECTS/Mol_Feturizer/Test_systems_manuscript/rnas/4xwf

>  <Rbt.Executable>
rbdock ($Id: //depot/dev/client3/rdock/2013.1/src/exe/rbdock.cxx#4 $)

>  <Rbt.Library>
libRbt.so (2013.1, Build901 2013/11/27)

>  <Rbt.Parameter_File>
/export/apps/rDock/src/rDock_2013.1_src/data/scripts/dock_solv.prm

>  <Rbt.Receptor>
prm/pocket_docking_3.prm

>  <SCORE>
-6.85459

>  <SCORE.INTER>
-6.32001

>  <SCORE.INTER.CONST>
1

>  <SCORE.INTER.POLAR>
0

>  <SCORE.INTER.ROT>
5

>  <SCORE.INTER.SOLV>
10.9638

>  <SCORE.INTER.VDW>
-14.8013

>  <SCORE.INTER.norm>
-0.287273

>  <SCORE.INTRA>
-0.534913

>  <SCORE.INTRA.DIHEDRAL>
-0.745384

>  <SCORE.INTRA.DIHEDRAL.0>
3.49807

>  <SCORE.INTRA.POLAR>
0

>  <SCORE.INTRA.POLAR.0>
0

>  <SCORE.INTRA.REPUL>
0

>  <SCORE.INTRA.REPUL.0>
0

>  <SCORE.INTRA.SOLV>
0.855204

>  <SCORE.INTRA.SOLV.lig_0>
-73.062

>  <SCORE.INTRA.VDW>
-0.589823

>  <SCORE.INTRA.VDW.0>
-1.83782

>  <SCORE.INTRA.norm>
-0.0243142

>  <SCORE.RESTR>
0.000329249

>  <SCORE.RESTR.CAVITY>
0.000329249

>  <SCORE.RESTR.norm>
1.49659e-05

>  <SCORE.SYSTEM>
0

>  <SCORE.SYSTEM.CONST>
0

>  <SCORE.SYSTEM.DIHEDRAL>
0

>  <SCORE.SYSTEM.SOLV>
0

>  <SCORE.SYSTEM.norm>
0

>  <SCORE.heavy>
22

>  <SCORE.norm>
-0.311572

>  <RMSD>
6.537

$$$$
ligand
 OpenBabel02271912143D
libRbt.so/2013.1/901 2013/11/27
 22 23  0  0  0  0  0  0  0  0999 V2000
  -28.5312    3.4672  -11.1676 N   0  0  0  0  0  0  0  0  0  0  0  0
  -30.7126    0.9012  -10.8362 C   0  0  1  0  0  0  0  0  0  0  0  0
  -30.3042    2.0615  -11.6152 O   0  0  0  0  0  0  0  0  0  0  0  0
  -33.2894    3.1131   -9.1765 P   0  0  1  0  0  0  0  0  0  0  0  0
  -28.8753    2.1791  -11.5222 C   0  0  2  0  0  0  0  0  0  0  0  0
  -28.4842    5.3619  -10.1099 N   0  0  0  0  0  0  0  0  0  0  0  0
  -27.1362    0.8988  -10.5061 O   0  0  0  0  0  0  0  0  0  0  0  0
  -28.5005    1.3164  -10.3794 C   0  0  2  0  0  0  0  0  0  0  0  0
  -26.7417    7.1962  -12.5685 N   0  0  0  0  0  0  0  0  0  0  0  0
  -29.1178   -0.6740  -11.5216 O   0  0  0  0  0  0  0  0  0  0  0  0
  -29.4583    0.2196  -10.4483 C   0  0  2  0  0  0  0  0  0  0  0  0
  -27.5429    5.3922  -11.0658 C   0  0  0  0  0  0  0  0  0  0  0  0
  -26.7165    3.8178  -12.7984 N   0  0  0  0  0  0  0  0  0  0  0  0
  -32.4692    2.2044  -10.1563 O   0  0  0  0  0  0  0  0  0  0  0  0
  -31.4484    1.4105   -9.6448 C   0  0  0  0  0  0  0  0  0  0  0  0
  -34.5067    3.5803  -10.0543 O   0  0  0  0  0  0  0  0  0  0  0  0
  -29.1009    4.1668  -10.1794 C   0  0  0  0  0  0  0  0  0  0  0  0
  -25.7883    6.8647  -10.5272 O   0  0  0  0  0  0  0  0  0  0  0  0
  -26.6387    6.5223  -11.3485 C   0  0  0  0  0  0  0  0  0  0  0  0
  -27.5644    4.2013  -11.7341 C   0  0  0  0  0  0  0  0  0  0  0  0
  -33.6651    2.3312   -7.9618 O   0  5  0  0  0  0  0  0  0  0  0  0
  -32.4328    4.1637   -8.5977 O   0  0  0  0  0  0  0  0  0  0  0  0
  1 17  1  0  0  0  0
  1 20  1  0  0  0  0
  2 15  1  1  0  0  0
  2  3  1  0  0  0  0
  2 11  1  0  0  0  0
  3  5  1  0  0  0  0
  4 16  1  6  0  0  0
  4 21  1  0  0  0  0
  4 22  2  0  0  0  0
  4 14  1  0  0  0  0
  5  1  1  1  0  0  0
  5  8  1  0  0  0  0
  6 17  2  0  0  0  0
  6 12  1  0  0  0  0
  8  7  1  6  0  0  0
  8 11  1  0  0  0  0
  9 19  1  0  0  0  0
 11 10  1  6  0  0  0
 12 20  2  0  0  0  0
 12 19  1  0  0  0  0
 13 20  1  0  0  0  0
 14 15  1  0  0  0  0
 18 19  2  0  0  0  0
M  CHG  1  21  -1
M  END
>  <CHROM.1>
46.80206740,55.42034839,-167.99875695,-169.05283125,-114.57477688,-29.79830772
3.16197960,-10.51976835,-0.39442508,-0.36844010,-3.04401574

>  <Name>
ligand

>  <RI>
0

>  <Rbt.Current_Directory>
/home/itssahil/PROJECTS/Mol_Feturizer/Test_systems_manuscript/rnas/4xwf

>  <Rbt.Executable>
rbdock ($Id: //depot/dev/client3/rdock/2013.1/src/exe/rbdock.cxx#4 $)

>  <Rbt.Library>
libRbt.so (2013.1, Build901 2013/11/27)

>  <Rbt.Parameter_File>
/export/apps/rDock/src/rDock_2013.1_src/data/scripts/dock_solv.prm

>  <Rbt.Receptor>
prm/pocket_docking_6.prm

>  <SCORE>
-7.18006

>  <SCORE.INTER>
-6.46095

>  <SCORE.INTER.CONST>
1

>  <SCORE.INTER.POLAR>
0

>  <SCORE.INTER.ROT>
5

>  <SCORE.INTER.SOLV>
11.9266

>  <SCORE.INTER.VDW>
-15.2162

>  <SCORE.INTER.norm>
-0.29368

>  <SCORE.INTRA>
-0.719104

>  <SCORE.INTRA.DIHEDRAL>
-1.14263

>  <SCORE.INTRA.DIHEDRAL.0>
3.49807

>  <SCORE.INTRA.POLAR>
0

>  <SCORE.INTRA.POLAR.0>
0

>  <SCORE.INTRA.REPUL>
0

>  <SCORE.INTRA.REPUL.0>
0

>  <SCORE.INTRA.SOLV>
0.458589

>  <SCORE.INTRA.SOLV.lig_0>
-73.062

>  <SCORE.INTRA.VDW>
-0.377083

>  <SCORE.INTRA.VDW.0>
-1.83782

>  <SCORE.INTRA.norm>
-0.0326866

>  <SCORE.RESTR>
0

>  <SCORE.RESTR.CAVITY>
0

>  <SCORE.RESTR.norm>
0

>  <SCORE.SYSTEM>
0

>  <SCORE.SYSTEM.CONST>
0

>  <SCORE.SYSTEM.DIHEDRAL>
0

>  <SCORE.SYSTEM.SOLV>
0

>  <SCORE.SYSTEM.norm>
0

>  <SCORE.heavy>
22

>  <SCORE.norm>
-0.326366

>  <RMSD>
6.537

$$$$
ligand
 OpenBabel02271912143D
libRbt.so/2013.1/901 2013/11/27
 22 23  0  0  0  0  0  0  0  0999 V2000
  -28.7342    2.8421  -11.6504 N   0  0  0  0  0  0  0  0  0  0  0  0
  -31.1171    1.1426   -9.9516 C   0  0  1  0  0  0  0  0  0  0  0  0
  -30.7255    1.7658  -11.2079 O   0  0  0  0  0  0  0  0  0  0  0  0
  -33.3828    3.9872   -8.8880 P   0  0  1  0  0  0  0  0  0  0  0  0
  -29.3033    1.6214  -11.3518 C   0  0  2  0  0  0  0  0  0  0  0  0
  -28.1461    4.9257  -11.4954 N   0  0  0  0  0  0  0  0  0  0  0  0
  -27.5761    0.5584  -10.0936 O   0  0  0  0  0  0  0  0  0  0  0  0
  -28.8238    1.2558  -10.0000 C   0  0  2  0  0  0  0  0  0  0  0  0
  -25.7661    6.0385  -13.0551 N   0  0  0  0  0  0  0  0  0  0  0  0
  -29.9037   -0.8603  -10.0558 O   0  0  0  0  0  0  0  0  0  0  0  0
  -29.9086    0.4469   -9.4578 C   0  0  2  0  0  0  0  0  0  0  0  0
  -27.5841    4.4128  -12.6007 C   0  0  0  0  0  0  0  0  0  0  0  0
  -27.5500    2.1934  -13.7125 N   0  0  0  0  0  0  0  0  0  0  0  0
  -32.6528    2.8096   -9.6220 O   0  0  0  0  0  0  0  0  0  0  0  0
  -31.5319    2.2375   -9.0302 C   0  0  0  0  0  0  0  0  0  0  0  0
  -34.7421    4.1087   -9.6679 O   0  0  0  0  0  0  0  0  0  0  0  0
  -28.8652    3.9490  -10.9101 C   0  0  0  0  0  0  0  0  0  0  0  0
  -26.8456    4.9842  -14.7606 O   0  0  0  0  0  0  0  0  0  0  0  0
  -26.7209    5.1442  -13.5466 C   0  0  0  0  0  0  0  0  0  0  0  0
  -27.9473    3.1003  -12.7034 C   0  0  0  0  0  0  0  0  0  0  0  0
  -33.5268    3.6632   -7.4381 O   0  5  0  0  0  0  0  0  0  0  0  0
  -32.5243    5.1844   -8.8387 O   0  0  0  0  0  0  0  0  0  0  0  0
  1 17  1  0  0  0  0
  1 20  1  0  0  0  0
  2 15  1  1  0  0  0
  2  3  1  0  0  0  0
  2 11  1  0  0  0  0
  3  5  1  0  0  0  0
  4 16  1  6  0  0  0
  4 21  1  0  0  0  0
  4 22  2  0  0  0  0
  4 14  1  0  0  0  0
  5  1  1  1  0  0  0
  5  8  1  0  0  0  0
  6 17  2  0  0  0  0
  6 12  1  0  0  0  0
  8  7  1  6  0  0  0
  8 11  1  0  0  0  0
  9 19  1  0  0  0  0
 11 10  1  6  0  0  0
 12 20  2  0  0  0  0
 12 19  1  0  0  0  0
 13 20  1  0  0  0  0
 14 15  1  0  0  0  0
 18 19  2  0  0  0  0
M  CHG  1  21  -1
M  END
>  <CHROM.1>
56.05931114,64.01343061,-166.88676580,178.34500494,40.79317452,-30.02180900
3.01391457,-10.74405515,-0.26786871,-0.56186918,2.84487477

>  <Name>
ligand

>  <RI>
0

>  <Rbt.Current_Directory>
/home/itssahil/PROJECTS/Mol_Feturizer/Test_systems_manuscript/rnas/4xwf

>  <Rbt.Executable>
rbdock ($Id: //depot/dev/client3/rdock/2013.1/src/exe/rbdock.cxx#4 $)

>  <Rbt.Library>
libRbt.so (2013.1, Build901 2013/11/27)

>  <Rbt.Parameter_File>
/export/apps/rDock/src/rDock_2013.1_src/data/scripts/dock_solv.prm

>  <Rbt.Receptor>
prm/pocket_docking_3.prm

>  <SCORE>
-4.34176

>  <SCORE.INTER>
-3.92546

>  <SCORE.INTER.CONST>
1

>  <SCORE.INTER.POLAR>
0

>  <SCORE.INTER.ROT>
5

>  <SCORE.INTER.SOLV>
13.1451

>  <SCORE.INTER.VDW>
-13.932

>  <SCORE.INTER.norm>
-0.17843

>  <SCORE.INTRA>
-0.416409

>  <SCORE.INTRA.DIHEDRAL>
-0.405684

>  <SCORE.INTRA.DIHEDRAL.0>
3.49807

>  <SCORE.INTRA.POLAR>
0

>  <SCORE.INTRA.POLAR.0>
0

>  <SCORE.INTRA.REPUL>
0

>  <SCORE.INTRA.REPUL.0>
0

>  <SCORE.INTRA.SOLV>
-0.315164

>  <SCORE.INTRA.SOLV.lig_0>
-73.062

>  <SCORE.INTRA.VDW>
-0.0559848

>  <SCORE.INTRA.VDW.0>
-1.83782

>  <SCORE.INTRA.norm>
-0.0189277

>  <SCORE.RESTR>
0.000107738

>  <SCORE.RESTR.CAVITY>
0.000107738

>  <SCORE.RESTR.norm>
4.89718e-06

>  <SCORE.SYSTEM>
0

>  <SCORE.SYSTEM.CONST>
0

>  <SCORE.SYSTEM.DIHEDRAL>
0

>  <SCORE.SYSTEM.SOLV>
0

>  <SCORE.SYSTEM.norm>
0

>  <SCORE.heavy>
22

>  <SCORE.norm>
-0.197353

>  <RMSD>
6.539

$$$$
ligand
 OpenBabel02271912143D
libRbt.so/2013.1/901 2013/11/27
 22 23  0  0  0  0  0  0  0  0999 V2000
  -28.4711    3.4547  -11.2357 N   0  0  0  0  0  0  0  0  0  0  0  0
  -30.6632    0.9029  -10.8678 C   0  0  1  0  0  0  0  0  0  0  0  0
  -30.2551    2.0553  -11.6585 O   0  0  0  0  0  0  0  0  0  0  0  0
  -33.2534    3.0980   -9.2025 P   0  0  1  0  0  0  0  0  0  0  0  0
  -28.8249    2.1660  -11.5782 C   0  0  2  0  0  0  0  0  0  0  0  0
  -28.4059    5.3570  -10.1927 N   0  0  0  0  0  0  0  0  0  0  0  0
  -27.0843    0.8838  -10.5670 O   0  0  0  0  0  0  0  0  0  0  0  0
  -28.4453    1.3096  -10.4322 C   0  0  2  0  0  0  0  0  0  0  0  0
  -26.6669    7.1588  -12.6803 N   0  0  0  0  0  0  0  0  0  0  0  0
  -29.0824   -0.6857  -11.5548 O   0  0  0  0  0  0  0  0  0  0  0  0
  -29.4094    0.2174  -10.4853 C   0  0  2  0  0  0  0  0  0  0  0  0
  -27.4715    5.3749  -11.1556 C   0  0  0  0  0  0  0  0  0  0  0  0
  -26.6664    3.7830  -12.8823 N   0  0  0  0  0  0  0  0  0  0  0  0
  -32.4222    2.2004  -10.1834 O   0  0  0  0  0  0  0  0  0  0  0  0
  -31.3865    1.4247   -9.6742 C   0  0  0  0  0  0  0  0  0  0  0  0
  -34.4679    3.5644  -10.0846 O   0  0  0  0  0  0  0  0  0  0  0  0
  -29.0297    4.1649  -10.2487 C   0  0  0  0  0  0  0  0  0  0  0  0
  -25.7086    6.8453  -10.6385 O   0  0  0  0  0  0  0  0  0  0  0  0
  -26.5632    6.4978  -11.4534 C   0  0  0  0  0  0  0  0  0  0  0  0
  -27.5044    4.1792  -11.8148 C   0  0  0  0  0  0  0  0  0  0  0  0
  -33.6320    2.3058   -7.9955 O   0  5  0  0  0  0  0  0  0  0  0  0
  -32.4061    4.1493   -8.6114 O   0  0  0  0  0  0  0  0  0  0  0  0
  1 17  1  0  0  0  0
  1 20  1  0  0  0  0
  2 15  1  1  0  0  0
  2  3  1  0  0  0  0
  2 11  1  0  0  0  0
  3  5  1  0  0  0  0
  4 16  1  6  0  0  0
  4 21  1  0  0  0  0
  4 22  2  0  0  0  0
  4 14  1  0  0  0  0
  5  1  1  1  0  0  0
  5  8  1  0  0  0  0
  6 17  2  0  0  0  0
  6 12  1  0  0  0  0
  8  7  1  6  0  0  0
  8 11  1  0  0  0  0
  9 19  1  0  0  0  0
 11 10  1  6  0  0  0
 12 20  2  0  0  0  0
 12 19  1  0  0  0  0
 13 20  1  0  0  0  0
 14 15  1  0  0  0  0
 18 19  2  0  0  0  0
M  CHG  1  21  -1
M  END
>  <CHROM.1>
46.74536887,56.48565392,-169.00241228,-170.12969544,-114.88499880,-29.74529551
3.14867821,-10.57500813,-0.38862582,-0.37446473,-3.04955117

>  <Name>
ligand

>  <RI>
0

>  <Rbt.Current_Directory>
/home/itssahil/PROJECTS/Mol_Feturizer/Test_systems_manuscript/rnas/4xwf

>  <Rbt.Executable>
rbdock ($Id: //depot/dev/client3/rdock/2013.1/src/exe/rbdock.cxx#4 $)

>  <Rbt.Library>
libRbt.so (2013.1, Build901 2013/11/27)

>  <Rbt.Parameter_File>
/export/apps/rDock/src/rDock_2013.1_src/data/scripts/dock_solv.prm

>  <Rbt.Receptor>
prm/pocket_docking_5.prm

>  <SCORE>
-7.18773

>  <SCORE.INTER>
-6.35697

>  <SCORE.INTER.CONST>
1

>  <SCORE.INTER.POLAR>
0

>  <SCORE.INTER.ROT>
5

>  <SCORE.INTER.SOLV>
11.7347

>  <SCORE.INTER.VDW>
-15.0829

>  <SCORE.INTER.norm>
-0.288953

>  <SCORE.INTRA>
-0.830759

>  <SCORE.INTRA.DIHEDRAL>
-1.31217

>  <SCORE.INTRA.DIHEDRAL.0>
3.49807

>  <SCORE.INTRA.POLAR>
0

>  <SCORE.INTRA.POLAR.0>
0

>  <SCORE.INTRA.REPUL>
0

>  <SCORE.INTRA.REPUL.0>
0

>  <SCORE.INTRA.SOLV>
0.416976

>  <SCORE.INTRA.SOLV.lig_0>
-73.062

>  <SCORE.INTRA.VDW>
-0.383163

>  <SCORE.INTRA.VDW.0>
-1.83782

>  <SCORE.INTRA.norm>
-0.0377618

>  <SCORE.RESTR>
0

>  <SCORE.RESTR.CAVITY>
0

>  <SCORE.RESTR.norm>
0

>  <SCORE.SYSTEM>
0

>  <SCORE.SYSTEM.CONST>
0

>  <SCORE.SYSTEM.DIHEDRAL>
0

>  <SCORE.SYSTEM.SOLV>
0

>  <SCORE.SYSTEM.norm>
0

>  <SCORE.heavy>
22

>  <SCORE.norm>
-0.326715

>  <RMSD>
6.539

$$$$
ligand
 OpenBabel02271912143D
libRbt.so/2013.1/901 2013/11/27
 22 23  0  0  0  0  0  0  0  0999 V2000
  -28.3419    3.3782  -11.3705 N   0  0  0  0  0  0  0  0  0  0  0  0
  -30.4546    0.7470  -11.1130 C   0  0  1  0  0  0  0  0  0  0  0  0
  -30.0869    1.9479  -11.8495 O   0  0  0  0  0  0  0  0  0  0  0  0
  -33.0614    2.8145   -9.3083 P   0  0  1  0  0  0  0  0  0  0  0  0
  -28.6599    2.0974  -11.7727 C   0  0  2  0  0  0  0  0  0  0  0  0
  -28.3380    5.2356  -10.2476 N   0  0  0  0  0  0  0  0  0  0  0  0
  -26.8745    0.8208  -10.8356 O   0  0  0  0  0  0  0  0  0  0  0  0
  -28.2464    1.1985  -10.6719 C   0  0  2  0  0  0  0  0  0  0  0  0
  -25.1182    6.2790  -11.4575 N   0  0  0  0  0  0  0  0  0  0  0  0
  -28.8327   -0.7585  -11.8859 O   0  0  0  0  0  0  0  0  0  0  0  0
  -29.1781    0.0818  -10.7719 C   0  0  2  0  0  0  0  0  0  0  0  0
  -27.3888    5.3154  -11.1927 C   0  0  0  0  0  0  0  0  0  0  0  0
  -26.5190    3.8167  -12.9706 N   0  0  0  0  0  0  0  0  0  0  0  0
  -32.1954    2.0252  -10.3503 O   0  0  0  0  0  0  0  0  0  0  0  0
  -31.1839    1.1888   -9.8911 C   0  0  0  0  0  0  0  0  0  0  0  0
  -34.3801    3.1302  -10.1032 O   0  0  0  0  0  0  0  0  0  0  0  0
  -28.9328    4.0331  -10.3643 C   0  0  0  0  0  0  0  0  0  0  0  0
  -26.9703    7.5982  -11.5815 O   0  0  0  0  0  0  0  0  0  0  0  0
  -26.5022    6.4702  -11.4275 C   0  0  0  0  0  0  0  0  0  0  0  0
  -27.3832    4.1483  -11.9020 C   0  0  0  0  0  0  0  0  0  0  0  0
  -33.2590    1.9815   -8.0856 O   0  5  0  0  0  0  0  0  0  0  0  0
  -32.3101    3.9608   -8.7660 O   0  0  0  0  0  0  0  0  0  0  0  0
  1 17  1  0  0  0  0
  1 20  1  0  0  0  0
  2 15  1  1  0  0  0
  2  3  1  0  0  0  0
  2 11  1  0  0  0  0
  3  5  1  0  0  0  0
  4 16  1  6  0  0  0
  4 21  1  0  0  0  0
  4 22  2  0  0  0  0
  4 14  1  0  0  0  0
  5  1  1  1  0  0  0
  5  8  1  0  0  0  0
  6 17  2  0  0  0  0
  6 12  1  0  0  0  0
  8  7  1  6  0  0  0
  8 11  1  0  0  0  0
  9 19  1  0  0  0  0
 11 10  1  6  0  0  0
 12 20  2  0  0  0  0
 12 19  1  0  0  0  0
 13 20  1  0  0  0  0
 14 15  1  0  0  0  0
 18 19  2  0  0  0  0
M  CHG  1  21  -1
M  END
>  <CHROM.1>
45.29692205,52.84201222,-157.63670253,-172.68395425,126.49328347,-29.58574998
3.00998539,-10.70518844,-0.40890594,-0.37992111,-3.01333334

>  <Name>
ligand

>  <RI>
0

>  <Rbt.Current_Directory>
/home/itssahil/PROJECTS/Mol_Feturizer/Test_systems_manuscript/rnas/4xwf

>  <Rbt.Executable>
rbdock ($Id: //depot/dev/client3/rdock/2013.1/src/exe/rbdock.cxx#4 $)

>  <Rbt.Library>
libRbt.so (2013.1, Build901 2013/11/27)

>  <Rbt.Parameter_File>
/export/apps/rDock/src/rDock_2013.1_src/data/scripts/dock_solv.prm

>  <Rbt.Receptor>
prm/pocket_docking_3.prm

>  <SCORE>
-6.22166

>  <SCORE.INTER>
-5.80394

>  <SCORE.INTER.CONST>
1

>  <SCORE.INTER.POLAR>
0

>  <SCORE.INTER.ROT>
5

>  <SCORE.INTER.SOLV>
10.9053

>  <SCORE.INTER.VDW>
-14.4377

>  <SCORE.INTER.norm>
-0.263816

>  <SCORE.INTRA>
-0.417715

>  <SCORE.INTRA.DIHEDRAL>
-0.875275

>  <SCORE.INTRA.DIHEDRAL.0>
3.49807

>  <SCORE.INTRA.POLAR>
0

>  <SCORE.INTRA.POLAR.0>
0

>  <SCORE.INTRA.REPUL>
0

>  <SCORE.INTRA.REPUL.0>
0

>  <SCORE.INTRA.SOLV>
0.496435

>  <SCORE.INTRA.SOLV.lig_0>
-73.062

>  <SCORE.INTRA.VDW>
-0.228295

>  <SCORE.INTRA.VDW.0>
-1.83782

>  <SCORE.INTRA.norm>
-0.018987

>  <SCORE.RESTR>
0

>  <SCORE.RESTR.CAVITY>
0

>  <SCORE.RESTR.norm>
0

>  <SCORE.SYSTEM>
0

>  <SCORE.SYSTEM.CONST>
0

>  <SCORE.SYSTEM.DIHEDRAL>
0

>  <SCORE.SYSTEM.SOLV>
0

>  <SCORE.SYSTEM.norm>
0

>  <SCORE.heavy>
22

>  <SCORE.norm>
-0.282803

>  <RMSD>
6.541

$$$$
ligand
 OpenBabel02271912143D
libRbt.so/2013.1/901 2013/11/27
 22 23  0  0  0  0  0  0  0  0999 V2000
  -28.4060    3.3990  -11.3754 N   0  0  0  0  0  0  0  0  0  0  0  0
  -30.5674    0.8389  -10.8989 C   0  0  1  0  0  0  0  0  0  0  0  0
  -30.1955    1.9845  -11.7170 O   0  0  0  0  0  0  0  0  0  0  0  0
  -33.1607    2.9754   -9.1565 P   0  0  1  0  0  0  0  0  0  0  0  0
  -28.7640    2.1044  -11.6901 C   0  0  2  0  0  0  0  0  0  0  0  0
  -28.3154    5.3139  -10.3576 N   0  0  0  0  0  0  0  0  0  0  0  0
  -26.9798    0.8441  -10.7287 O   0  0  0  0  0  0  0  0  0  0  0  0
  -28.3376    1.2635  -10.5491 C   0  0  2  0  0  0  0  0  0  0  0  0
  -26.6301    7.0514  -12.9525 N   0  0  0  0  0  0  0  0  0  0  0  0
  -29.0028   -0.7482  -11.6251 O   0  0  0  0  0  0  0  0  0  0  0  0
  -29.2962    0.1652  -10.5547 C   0  0  2  0  0  0  0  0  0  0  0  0
  -27.4155    5.3255  -11.3530 C   0  0  0  0  0  0  0  0  0  0  0  0
  -26.6622    3.7176  -13.0882 N   0  0  0  0  0  0  0  0  0  0  0  0
  -32.3191    2.1192  -10.1650 O   0  0  0  0  0  0  0  0  0  0  0  0
  -31.2499    1.3703   -9.6857 C   0  0  0  0  0  0  0  0  0  0  0  0
  -34.3607    3.4865  -10.0337 O   0  0  0  0  0  0  0  0  0  0  0  0
  -28.9337    4.1178  -10.3777 C   0  0  0  0  0  0  0  0  0  0  0  0
  -25.6834    6.8499  -10.8913 O   0  0  0  0  0  0  0  0  0  0  0  0
  -26.5248    6.4497  -11.6956 C   0  0  0  0  0  0  0  0  0  0  0  0
  -27.4645    4.1219  -11.9966 C   0  0  0  0  0  0  0  0  0  0  0  0
  -33.5596    2.1315   -7.9918 O   0  5  0  0  0  0  0  0  0  0  0  0
  -32.3179    3.9953   -8.5069 O   0  0  0  0  0  0  0  0  0  0  0  0
  1 17  1  0  0  0  0
  1 20  1  0  0  0  0
  2 15  1  1  0  0  0
  2  3  1  0  0  0  0
  2 11  1  0  0  0  0
  3  5  1  0  0  0  0
  4 16  1  6  0  0  0
  4 21  1  0  0  0  0
  4 22  2  0  0  0  0
  4 14  1  0  0  0  0
  5  1  1  1  0  0  0
  5  8  1  0  0  0  0
  6 17  2  0  0  0  0
  6 12  1  0  0  0  0
  8  7  1  6  0  0  0
  8 11  1  0  0  0  0
  9 19  1  0  0  0  0
 11 10  1  6  0  0  0
 12 20  2  0  0  0  0
 12 19  1  0  0  0  0
 13 20  1  0  0  0  0
 14 15  1  0  0  0  0
 18 19  2  0  0  0  0
M  CHG  1  21  -1
M  END
>  <CHROM.1>
46.66618213,57.27276889,-172.29380386,-172.56999904,-118.12570140,-29.66793075
3.07516870,-10.66267027,-0.39249432,-0.41089824,-3.06143728

>  <Name>
ligand

>  <RI>
0

>  <Rbt.Current_Directory>
/home/itssahil/PROJECTS/Mol_Feturizer/Test_systems_manuscript/rnas/4xwf

>  <Rbt.Executable>
rbdock ($Id: //depot/dev/client3/rdock/2013.1/src/exe/rbdock.cxx#4 $)

>  <Rbt.Library>
libRbt.so (2013.1, Build901 2013/11/27)

>  <Rbt.Parameter_File>
/export/apps/rDock/src/rDock_2013.1_src/data/scripts/dock_solv.prm

>  <Rbt.Receptor>
prm/pocket_docking_4.prm

>  <SCORE>
-7.17898

>  <SCORE.INTER>
-6.14879

>  <SCORE.INTER.CONST>
1

>  <SCORE.INTER.POLAR>
0

>  <SCORE.INTER.ROT>
5

>  <SCORE.INTER.SOLV>
10.8189

>  <SCORE.INTER.VDW>
-14.6388

>  <SCORE.INTER.norm>
-0.279491

>  <SCORE.INTRA>
-1.03019

>  <SCORE.INTRA.DIHEDRAL>
-1.64177

>  <SCORE.INTRA.DIHEDRAL.0>
3.49807

>  <SCORE.INTRA.POLAR>
0

>  <SCORE.INTRA.POLAR.0>
0

>  <SCORE.INTRA.REPUL>
0

>  <SCORE.INTRA.REPUL.0>
0

>  <SCORE.INTRA.SOLV>
0.351499

>  <SCORE.INTRA.SOLV.lig_0>
-73.062

>  <SCORE.INTRA.VDW>
-0.385052

>  <SCORE.INTRA.VDW.0>
-1.83782

>  <SCORE.INTRA.norm>
-0.0468267

>  <SCORE.RESTR>
0

>  <SCORE.RESTR.CAVITY>
0

>  <SCORE.RESTR.norm>
0

>  <SCORE.SYSTEM>
0

>  <SCORE.SYSTEM.CONST>
0

>  <SCORE.SYSTEM.DIHEDRAL>
0

>  <SCORE.SYSTEM.SOLV>
0

>  <SCORE.SYSTEM.norm>
0

>  <SCORE.heavy>
22

>  <SCORE.norm>
-0.326317

>  <RMSD>
6.542

$$$$
ligand
 OpenBabel02271912143D
libRbt.so/2013.1/901 2013/11/27
 22 23  0  0  0  0  0  0  0  0999 V2000
  -28.6610    3.5021  -10.9625 N   0  0  0  0  0  0  0  0  0  0  0  0
  -30.8437    0.9267  -10.7257 C   0  0  1  0  0  0  0  0  0  0  0  0
  -30.4380    2.1178  -11.4583 O   0  0  0  0  0  0  0  0  0  0  0  0
  -33.3179    3.1609   -8.9491 P   0  0  1  0  0  0  0  0  0  0  0  0
  -29.0085    2.2301  -11.3682 C   0  0  2  0  0  0  0  0  0  0  0  0
  -28.6776    5.3933   -9.8976 N   0  0  0  0  0  0  0  0  0  0  0  0
  -27.2656    0.9073  -10.4153 O   0  0  0  0  0  0  0  0  0  0  0  0
  -28.6287    1.3206  -10.2641 C   0  0  2  0  0  0  0  0  0  0  0  0
  -25.3039    6.2573  -10.4863 N   0  0  0  0  0  0  0  0  0  0  0  0
  -29.2543   -0.6203  -11.4843 O   0  0  0  0  0  0  0  0  0  0  0  0
  -29.5881    0.2285  -10.3732 C   0  0  2  0  0  0  0  0  0  0  0  0
  -27.6140    5.3824  -10.7155 C   0  0  0  0  0  0  0  0  0  0  0  0
  -26.6267    3.7732  -12.3277 N   0  0  0  0  0  0  0  0  0  0  0  0
  -32.5476    2.2618   -9.9772 O   0  0  0  0  0  0  0  0  0  0  0  0
  -31.5725    1.3871   -9.5105 C   0  0  0  0  0  0  0  0  0  0  0  0
  -34.4406    3.8265   -9.8248 O   0  0  0  0  0  0  0  0  0  0  0  0
  -29.3300    4.2261  -10.0576 C   0  0  0  0  0  0  0  0  0  0  0  0
  -26.9753    7.5689  -11.3061 O   0  0  0  0  0  0  0  0  0  0  0  0
  -26.6317    6.4721  -10.8654 C   0  0  0  0  0  0  0  0  0  0  0  0
  -27.5950    4.1934  -11.3873 C   0  0  0  0  0  0  0  0  0  0  0  0
  -33.8252    2.3183   -7.8263 O   0  5  0  0  0  0  0  0  0  0  0  0
  -32.3887    4.0625   -8.2446 O   0  0  0  0  0  0  0  0  0  0  0  0
  1 17  1  0  0  0  0
  1 20  1  0  0  0  0
  2 15  1  1  0  0  0
  2  3  1  0  0  0  0
  2 11  1  0  0  0  0
  3  5  1  0  0  0  0
  4 16  1  6  0  0  0
  4 21  1  0  0  0  0
  4 22  2  0  0  0  0
  4 14  1  0  0  0  0
  5  1  1  1  0  0  0
  5  8  1  0  0  0  0
  6 17  2  0  0  0  0
  6 12  1  0  0  0  0
  8  7  1  6  0  0  0
  8 11  1  0  0  0  0
  9 19  1  0  0  0  0
 11 10  1  6  0  0  0
 12 20  2  0  0  0  0
 12 19  1  0  0  0  0
 13 20  1  0  0  0  0
 14 15  1  0  0  0  0
 18 19  2  0  0  0  0
M  CHG  1  21  -1
M  END
>  <CHROM.1>
37.99428326,52.16169943,-172.18666104,-167.76570034,115.28400692,-29.87086644
3.17886199,-10.28114373,-0.36567576,-0.35125058,-2.98747275

>  <Name>
ligand

>  <RI>
0

>  <Rbt.Current_Directory>
/home/itssahil/PROJECTS/Mol_Feturizer/Test_systems_manuscript/rnas/4xwf

>  <Rbt.Executable>
rbdock ($Id: //depot/dev/client3/rdock/2013.1/src/exe/rbdock.cxx#4 $)

>  <Rbt.Library>
libRbt.so (2013.1, Build901 2013/11/27)

>  <Rbt.Parameter_File>
/export/apps/rDock/src/rDock_2013.1_src/data/scripts/dock_solv.prm

>  <Rbt.Receptor>
prm/pocket_docking_3.prm

>  <SCORE>
-6.89533

>  <SCORE.INTER>
-6.27616

>  <SCORE.INTER.CONST>
1

>  <SCORE.INTER.POLAR>
0

>  <SCORE.INTER.ROT>
5

>  <SCORE.INTER.SOLV>
10.8497

>  <SCORE.INTER.VDW>
-14.734

>  <SCORE.INTER.norm>
-0.28528

>  <SCORE.INTRA>
-0.619175

>  <SCORE.INTRA.DIHEDRAL>
-1.01132

>  <SCORE.INTRA.DIHEDRAL.0>
3.49807

>  <SCORE.INTRA.POLAR>
0

>  <SCORE.INTRA.POLAR.0>
0

>  <SCORE.INTRA.REPUL>
0

>  <SCORE.INTRA.REPUL.0>
0

>  <SCORE.INTRA.SOLV>
0.793265

>  <SCORE.INTRA.SOLV.lig_0>
-73.062

>  <SCORE.INTRA.VDW>
-0.510149

>  <SCORE.INTRA.VDW.0>
-1.83782

>  <SCORE.INTRA.norm>
-0.0281443

>  <SCORE.RESTR>
0

>  <SCORE.RESTR.CAVITY>
0

>  <SCORE.RESTR.norm>
0

>  <SCORE.SYSTEM>
0

>  <SCORE.SYSTEM.CONST>
0

>  <SCORE.SYSTEM.DIHEDRAL>
0

>  <SCORE.SYSTEM.SOLV>
0

>  <SCORE.SYSTEM.norm>
0

>  <SCORE.heavy>
22

>  <SCORE.norm>
-0.313424

>  <RMSD>
6.543

$$$$
ligand
 OpenBabel02271912143D
libRbt.so/2013.1/901 2013/11/27
 22 23  0  0  0  0  0  0  0  0999 V2000
  -28.5382    3.4904  -11.1408 N   0  0  0  0  0  0  0  0  0  0  0  0
  -30.6979    0.9021  -10.8420 C   0  0  1  0  0  0  0  0  0  0  0  0
  -30.2962    2.0726  -11.6091 O   0  0  0  0  0  0  0  0  0  0  0  0
  -33.2766    3.1094   -9.1929 P   0  0  1  0  0  0  0  0  0  0  0  0
  -28.8689    2.2024  -11.5081 C   0  0  2  0  0  0  0  0  0  0  0  0
  -28.5590    5.4004  -10.1100 N   0  0  0  0  0  0  0  0  0  0  0  0
  -27.1232    0.9292  -10.4943 O   0  0  0  0  0  0  0  0  0  0  0  0
  -28.4919    1.3333  -10.3708 C   0  0  2  0  0  0  0  0  0  0  0  0
  -25.2416    6.3460  -10.8464 N   0  0  0  0  0  0  0  0  0  0  0  0
  -29.0855   -0.6527  -11.5329 O   0  0  0  0  0  0  0  0  0  0  0  0
  -29.4393    0.2285  -10.4538 C   0  0  2  0  0  0  0  0  0  0  0  0
  -27.5321    5.4016  -10.9738 C   0  0  0  0  0  0  0  0  0  0  0  0
  -26.5733    3.7882  -12.5990 N   0  0  0  0  0  0  0  0  0  0  0  0
  -32.4837    2.1642  -10.1606 O   0  0  0  0  0  0  0  0  0  0  0  0
  -31.4440    1.3946   -9.6500 C   0  0  0  0  0  0  0  0  0  0  0  0
  -34.4718    3.6120  -10.0814 O   0  0  0  0  0  0  0  0  0  0  0  0
  -29.1862    4.2138  -10.2203 C   0  0  0  0  0  0  0  0  0  0  0  0
  -26.9758    7.5874  -11.6446 O   0  0  0  0  0  0  0  0  0  0  0  0
  -26.5868    6.5133  -11.1862 C   0  0  0  0  0  0  0  0  0  0  0  0
  -27.5106    4.2009  -11.6244 C   0  0  0  0  0  0  0  0  0  0  0  0
  -33.6862    2.3513   -7.9741 O   0  5  0  0  0  0  0  0  0  0  0  0
  -32.3864    4.1338   -8.6177 O   0  0  0  0  0  0  0  0  0  0  0  0
  1 17  1  0  0  0  0
  1 20  1  0  0  0  0
  2 15  1  1  0  0  0
  2  3  1  0  0  0  0
  2 11  1  0  0  0  0
  3  5  1  0  0  0  0
  4 16  1  6  0  0  0
  4 21  1  0  0  0  0
  4 22  2  0  0  0  0
  4 14  1  0  0  0  0
  5  1  1  1  0  0  0
  5  8  1  0  0  0  0
  6 17  2  0  0  0  0
  6 12  1  0  0  0  0
  8  7  1  6  0  0  0
  8 11  1  0  0  0  0
  9 19  1  0  0  0  0
 11 10  1  6  0  0  0
 12 20  2  0  0  0  0
 12 19  1  0  0  0  0
 13 20  1  0  0  0  0
 14 15  1  0  0  0  0
 18 19  2  0  0  0  0
M  CHG  1  21  -1
M  END
>  <CHROM.1>
41.34625665,56.45028596,-171.58885155,-165.95945554,114.47815798,-29.78031233
3.16709858,-10.48348067,-0.38841158,-0.34311897,-3.03597898

>  <Name>
ligand

>  <RI>
0

>  <Rbt.Current_Directory>
/home/itssahil/PROJECTS/Mol_Feturizer/Test_systems_manuscript/rnas/4xwf

>  <Rbt.Executable>
rbdock ($Id: //depot/dev/client3/rdock/2013.1/src/exe/rbdock.cxx#4 $)

>  <Rbt.Library>
libRbt.so (2013.1, Build901 2013/11/27)

>  <Rbt.Parameter_File>
/export/apps/rDock/src/rDock_2013.1_src/data/scripts/dock_solv.prm

>  <Rbt.Receptor>
prm/pocket_docking_4.prm

>  <SCORE>
-7.18943

>  <SCORE.INTER>
-6.54516

>  <SCORE.INTER.CONST>
1

>  <SCORE.INTER.POLAR>
0

>  <SCORE.INTER.ROT>
5

>  <SCORE.INTER.SOLV>
11.6986

>  <SCORE.INTER.VDW>
-15.1963

>  <SCORE.INTER.norm>
-0.297507

>  <SCORE.INTRA>
-0.644261

>  <SCORE.INTRA.DIHEDRAL>
-0.933909

>  <SCORE.INTRA.DIHEDRAL.0>
3.49807

>  <SCORE.INTRA.POLAR>
0

>  <SCORE.INTRA.POLAR.0>
0

>  <SCORE.INTRA.REPUL>
0

>  <SCORE.INTRA.REPUL.0>
0

>  <SCORE.INTRA.SOLV>
0.697403

>  <SCORE.INTRA.SOLV.lig_0>
-73.062

>  <SCORE.INTRA.VDW>
-0.526008

>  <SCORE.INTRA.VDW.0>
-1.83782

>  <SCORE.INTRA.norm>
-0.0292846

>  <SCORE.RESTR>
0

>  <SCORE.RESTR.CAVITY>
0

>  <SCORE.RESTR.norm>
0

>  <SCORE.SYSTEM>
0

>  <SCORE.SYSTEM.CONST>
0

>  <SCORE.SYSTEM.DIHEDRAL>
0

>  <SCORE.SYSTEM.SOLV>
0

>  <SCORE.SYSTEM.norm>
0

>  <SCORE.heavy>
22

>  <SCORE.norm>
-0.326792

>  <RMSD>
6.544

$$$$
ligand
 OpenBabel02271912143D
libRbt.so/2013.1/901 2013/11/27
 22 23  0  0  0  0  0  0  0  0999 V2000
  -28.3648    3.2663  -11.6079 N   0  0  0  0  0  0  0  0  0  0  0  0
  -30.5504    0.7671  -10.9524 C   0  0  1  0  0  0  0  0  0  0  0  0
  -30.1880    1.8711  -11.8297 O   0  0  0  0  0  0  0  0  0  0  0  0
  -33.1191    2.9296   -9.1997 P   0  0  1  0  0  0  0  0  0  0  0  0
  -28.7546    1.9664  -11.8560 C   0  0  2  0  0  0  0  0  0  0  0  0
  -28.1741    5.2050  -10.6506 N   0  0  0  0  0  0  0  0  0  0  0  0
  -26.9595    0.7151  -10.9032 O   0  0  0  0  0  0  0  0  0  0  0  0
  -28.3032    1.1657  -10.6958 C   0  0  2  0  0  0  0  0  0  0  0  0
  -26.4764    7.4834  -11.4372 N   0  0  0  0  0  0  0  0  0  0  0  0
  -29.0380   -0.8764  -11.6638 O   0  0  0  0  0  0  0  0  0  0  0  0
  -29.2794    0.0855  -10.6232 C   0  0  2  0  0  0  0  0  0  0  0  0
  -27.3700    5.1871  -11.7247 C   0  0  0  0  0  0  0  0  0  0  0  0
  -26.7855    3.5332  -13.4815 N   0  0  0  0  0  0  0  0  0  0  0  0
  -32.2758    2.0784  -10.2110 O   0  0  0  0  0  0  0  0  0  0  0  0
  -31.1821    1.3602   -9.7402 C   0  0  0  0  0  0  0  0  0  0  0  0
  -34.3369    3.4148  -10.0670 O   0  0  0  0  0  0  0  0  0  0  0  0
  -28.7957    4.0122  -10.5839 C   0  0  0  0  0  0  0  0  0  0  0  0
  -25.8390    6.1930  -13.2018 O   0  0  0  0  0  0  0  0  0  0  0  0
  -26.5110    6.2976  -12.1758 C   0  0  0  0  0  0  0  0  0  0  0  0
  -27.4823    3.9685  -12.3310 C   0  0  0  0  0  0  0  0  0  0  0  0
  -33.4914    2.0890   -8.0238 O   0  5  0  0  0  0  0  0  0  0  0  0
  -32.2850    3.9677   -8.5679 O   0  0  0  0  0  0  0  0  0  0  0  0
  1 17  1  0  0  0  0
  1 20  1  0  0  0  0
  2 15  1  1  0  0  0
  2  3  1  0  0  0  0
  2 11  1  0  0  0  0
  3  5  1  0  0  0  0
  4 16  1  6  0  0  0
  4 21  1  0  0  0  0
  4 22  2  0  0  0  0
  4 14  1  0  0  0  0
  5  1  1  1  0  0  0
  5  8  1  0  0  0  0
  6 17  2  0  0  0  0
  6 12  1  0  0  0  0
  8  7  1  6  0  0  0
  8 11  1  0  0  0  0
  9 19  1  0  0  0  0
 11 10  1  6  0  0  0
 12 20  2  0  0  0  0
 12 19  1  0  0  0  0
 13 20  1  0  0  0  0
 14 15  1  0  0  0  0
 18 19  2  0  0  0  0
M  CHG  1  21  -1
M  END
>  <CHROM.1>
50.22659395,58.82030056,-172.88925715,-175.50629453,1.42421340,-29.64219842
2.97648782,-10.84819980,-0.37430002,-0.45729006,-3.08911964

>  <Name>
ligand

>  <RI>
0

>  <Rbt.Current_Directory>
/home/itssahil/PROJECTS/Mol_Feturizer/Test_systems_manuscript/rnas/4xwf

>  <Rbt.Executable>
rbdock ($Id: //depot/dev/client3/rdock/2013.1/src/exe/rbdock.cxx#4 $)

>  <Rbt.Library>
libRbt.so (2013.1, Build901 2013/11/27)

>  <Rbt.Parameter_File>
/export/apps/rDock/src/rDock_2013.1_src/data/scripts/dock_solv.prm

>  <Rbt.Receptor>
prm/pocket_docking_4.prm

>  <SCORE>
-6.95829

>  <SCORE.INTER>
-5.94487

>  <SCORE.INTER.CONST>
1

>  <SCORE.INTER.POLAR>
0

>  <SCORE.INTER.ROT>
5

>  <SCORE.INTER.SOLV>
11.0069

>  <SCORE.INTER.VDW>
-14.5655

>  <SCORE.INTER.norm>
-0.270221

>  <SCORE.INTRA>
-1.01342

>  <SCORE.INTRA.DIHEDRAL>
-1.83795

>  <SCORE.INTRA.DIHEDRAL.0>
3.49807

>  <SCORE.INTRA.POLAR>
0

>  <SCORE.INTRA.POLAR.0>
0

>  <SCORE.INTRA.REPUL>
0

>  <SCORE.INTRA.REPUL.0>
0

>  <SCORE.INTRA.SOLV>
0.083324

>  <SCORE.INTRA.SOLV.lig_0>
-73.062

>  <SCORE.INTRA.VDW>
-0.136105

>  <SCORE.INTRA.VDW.0>
-1.83782

>  <SCORE.INTRA.norm>
-0.0460645

>  <SCORE.RESTR>
0

>  <SCORE.RESTR.CAVITY>
0

>  <SCORE.RESTR.norm>
0

>  <SCORE.SYSTEM>
0

>  <SCORE.SYSTEM.CONST>
0

>  <SCORE.SYSTEM.DIHEDRAL>
0

>  <SCORE.SYSTEM.SOLV>
0

>  <SCORE.SYSTEM.norm>
0

>  <SCORE.heavy>
22

>  <SCORE.norm>
-0.316286

>  <RMSD>
6.544

$$$$
ligand
 OpenBabel02271912143D
libRbt.so/2013.1/901 2013/11/27
 22 23  0  0  0  0  0  0  0  0999 V2000
  -28.2279    3.3175  -11.5125 N   0  0  0  0  0  0  0  0  0  0  0  0
  -30.3780    0.7396  -11.0836 C   0  0  1  0  0  0  0  0  0  0  0  0
  -30.0234    1.9140  -11.8678 O   0  0  0  0  0  0  0  0  0  0  0  0
  -32.9326    2.8124   -9.2098 P   0  0  1  0  0  0  0  0  0  0  0  0
  -28.5917    2.0345  -11.8658 C   0  0  2  0  0  0  0  0  0  0  0  0
  -28.2010    5.2394  -10.5044 N   0  0  0  0  0  0  0  0  0  0  0  0
  -26.7877    0.7428  -10.9865 O   0  0  0  0  0  0  0  0  0  0  0  0
  -28.1418    1.1539  -10.7644 C   0  0  2  0  0  0  0  0  0  0  0  0
  -24.8483    6.0694  -11.2887 N   0  0  0  0  0  0  0  0  0  0  0  0
  -28.8279   -0.8189  -11.8977 O   0  0  0  0  0  0  0  0  0  0  0  0
  -29.0998    0.0555  -10.7896 C   0  0  2  0  0  0  0  0  0  0  0  0
  -27.1716    5.2030  -11.3644 C   0  0  0  0  0  0  0  0  0  0  0  0
  -26.2510    3.5454  -12.9671 N   0  0  0  0  0  0  0  0  0  0  0  0
  -32.1028    2.0076  -10.2692 O   0  0  0  0  0  0  0  0  0  0  0  0
  -31.0359    1.2266   -9.8386 C   0  0  0  0  0  0  0  0  0  0  0  0
  -34.1302    3.3850  -10.0515 O   0  0  0  0  0  0  0  0  0  0  0  0
  -28.8593    4.0688  -10.6029 C   0  0  0  0  0  0  0  0  0  0  0  0
  -26.5622    7.3804  -12.0163 O   0  0  0  0  0  0  0  0  0  0  0  0
  -26.1963    6.2865  -11.5865 C   0  0  0  0  0  0  0  0  0  0  0  0
  -27.1802    3.9946  -12.0008 C   0  0  0  0  0  0  0  0  0  0  0  0
  -33.3362    1.9065   -8.0942 O   0  5  0  0  0  0  0  0  0  0  0  0
  -32.0776    3.7847   -8.5055 O   0  0  0  0  0  0  0  0  0  0  0  0
  1 17  1  0  0  0  0
  1 20  1  0  0  0  0
  2 15  1  1  0  0  0
  2  3  1  0  0  0  0
  2 11  1  0  0  0  0
  3  5  1  0  0  0  0
  4 16  1  6  0  0  0
  4 21  1  0  0  0  0
  4 22  2  0  0  0  0
  4 14  1  0  0  0  0
  5  1  1  1  0  0  0
  5  8  1  0  0  0  0
  6 17  2  0  0  0  0
  6 12  1  0  0  0  0
  8  7  1  6  0  0  0
  8 11  1  0  0  0  0
  9 19  1  0  0  0  0
 11 10  1  6  0  0  0
 12 20  2  0  0  0  0
 12 19  1  0  0  0  0
 13 20  1  0  0  0  0
 14 15  1  0  0  0  0
 18 19  2  0  0  0  0
M  CHG  1  21  -1
M  END
>  <CHROM.1>
36.83520540,56.38626409,-172.57816584,-173.50831474,116.95950054,-29.44003779
2.94817406,-10.74582113,-0.36437926,-0.40209820,-3.01160562

>  <Name>
ligand

>  <RI>
0

>  <Rbt.Current_Directory>
/home/itssahil/PROJECTS/Mol_Feturizer/Test_systems_manuscript/rnas/4xwf

>  <Rbt.Executable>
rbdock ($Id: //depot/dev/client3/rdock/2013.1/src/exe/rbdock.cxx#4 $)

>  <Rbt.Library>
libRbt.so (2013.1, Build901 2013/11/27)

>  <Rbt.Parameter_File>
/export/apps/rDock/src/rDock_2013.1_src/data/scripts/dock_solv.prm

>  <Rbt.Receptor>
prm/pocket_docking_3.prm

>  <SCORE>
-6.6646

>  <SCORE.INTER>
-5.64562

>  <SCORE.INTER.CONST>
1

>  <SCORE.INTER.POLAR>
0

>  <SCORE.INTER.ROT>
5

>  <SCORE.INTER.SOLV>
9.46145

>  <SCORE.INTER.VDW>
-13.8509

>  <SCORE.INTER.norm>
-0.256619

>  <SCORE.INTRA>
-1.01924

>  <SCORE.INTRA.DIHEDRAL>
-1.7026

>  <SCORE.INTRA.DIHEDRAL.0>
3.49807

>  <SCORE.INTRA.POLAR>
0

>  <SCORE.INTRA.POLAR.0>
0

>  <SCORE.INTRA.REPUL>
0

>  <SCORE.INTRA.REPUL.0>
0

>  <SCORE.INTRA.SOLV>
0.635046

>  <SCORE.INTRA.SOLV.lig_0>
-73.062

>  <SCORE.INTRA.VDW>
-0.485464

>  <SCORE.INTRA.VDW.0>
-1.83782

>  <SCORE.INTRA.norm>
-0.046329

>  <SCORE.RESTR>
0.000257542

>  <SCORE.RESTR.CAVITY>
0.000257542

>  <SCORE.RESTR.norm>
1.17065e-05

>  <SCORE.SYSTEM>
0

>  <SCORE.SYSTEM.CONST>
0

>  <SCORE.SYSTEM.DIHEDRAL>
0

>  <SCORE.SYSTEM.SOLV>
0

>  <SCORE.SYSTEM.norm>
0

>  <SCORE.heavy>
22

>  <SCORE.norm>
-0.302936

>  <RMSD>
6.547

$$$$
ligand
 OpenBabel02271912143D
libRbt.so/2013.1/901 2013/11/27
 22 23  0  0  0  0  0  0  0  0999 V2000
  -28.3776    3.3777  -11.4082 N   0  0  0  0  0  0  0  0  0  0  0  0
  -30.5609    0.8386  -10.9194 C   0  0  1  0  0  0  0  0  0  0  0  0
  -30.1824    1.9803  -11.7398 O   0  0  0  0  0  0  0  0  0  0  0  0
  -33.1505    2.9676   -9.1590 P   0  0  1  0  0  0  0  0  0  0  0  0
  -28.7497    2.0865  -11.7206 C   0  0  2  0  0  0  0  0  0  0  0  0
  -28.2547    5.2878  -10.3849 N   0  0  0  0  0  0  0  0  0  0  0  0
  -26.9726    0.8093  -10.7684 O   0  0  0  0  0  0  0  0  0  0  0  0
  -28.3253    1.2417  -10.5817 C   0  0  2  0  0  0  0  0  0  0  0  0
  -26.6282    7.0413  -12.9976 N   0  0  0  0  0  0  0  0  0  0  0  0
  -29.0155   -0.7637  -11.6536 O   0  0  0  0  0  0  0  0  0  0  0  0
  -29.2944    0.1527  -10.5818 C   0  0  2  0  0  0  0  0  0  0  0  0
  -27.3753    5.2981  -11.3984 C   0  0  0  0  0  0  0  0  0  0  0  0
  -26.6673    3.6929  -13.1550 N   0  0  0  0  0  0  0  0  0  0  0  0
  -32.2996    2.1313  -10.1764 O   0  0  0  0  0  0  0  0  0  0  0  0
  -31.2318    1.3768   -9.7028 C   0  0  0  0  0  0  0  0  0  0  0  0
  -34.3551    3.4761  -10.0313 O   0  0  0  0  0  0  0  0  0  0  0  0
  -28.8805    4.0955  -10.3971 C   0  0  0  0  0  0  0  0  0  0  0  0
  -25.6114    6.7969  -10.9747 O   0  0  0  0  0  0  0  0  0  0  0  0
  -26.4851    6.4185  -11.7548 C   0  0  0  0  0  0  0  0  0  0  0  0
  -27.4447    4.0975  -12.0457 C   0  0  0  0  0  0  0  0  0  0  0  0
  -33.5413    2.1066   -8.0040 O   0  5  0  0  0  0  0  0  0  0  0  0
  -32.3185    3.9887   -8.4974 O   0  0  0  0  0  0  0  0  0  0  0  0
  1 17  1  0  0  0  0
  1 20  1  0  0  0  0
  2 15  1  1  0  0  0
  2  3  1  0  0  0  0
  2 11  1  0  0  0  0
  3  5  1  0  0  0  0
  4 16  1  6  0  0  0
  4 21  1  0  0  0  0
  4 22  2  0  0  0  0
  4 14  1  0  0  0  0
  5  1  1  1  0  0  0
  5  8  1  0  0  0  0
  6 17  2  0  0  0  0
  6 12  1  0  0  0  0
  8  7  1  6  0  0  0
  8 11  1  0  0  0  0
  9 19  1  0  0  0  0
 11 10  1  6  0  0  0
 12 20  2  0  0  0  0
 12 19  1  0  0  0  0
 13 20  1  0  0  0  0
 14 15  1  0  0  0  0
 18 19  2  0  0  0  0
M  CHG  1  21  -1
M  END
>  <CHROM.1>
47.59110244,57.51222332,-171.61405312,-174.04078112,-116.99701922,-29.64961980
3.05861400,-10.69069311,-0.38588177,-0.41592396,-3.06154560

>  <Name>
ligand

>  <RI>
0

>  <Rbt.Current_Directory>
/home/itssahil/PROJECTS/Mol_Feturizer/Test_systems_manuscript/rnas/4xwf

>  <Rbt.Executable>
rbdock ($Id: //depot/dev/client3/rdock/2013.1/src/exe/rbdock.cxx#4 $)

>  <Rbt.Library>
libRbt.so (2013.1, Build901 2013/11/27)

>  <Rbt.Parameter_File>
/export/apps/rDock/src/rDock_2013.1_src/data/scripts/dock_solv.prm

>  <Rbt.Receptor>
prm/pocket_docking_4.prm

>  <SCORE>
-7.16762

>  <SCORE.INTER>
-6.10391

>  <SCORE.INTER.CONST>
1

>  <SCORE.INTER.POLAR>
0

>  <SCORE.INTER.ROT>
5

>  <SCORE.INTER.SOLV>
10.7661

>  <SCORE.INTER.VDW>
-14.5913

>  <SCORE.INTER.norm>
-0.277451

>  <SCORE.INTRA>
-1.0637

>  <SCORE.INTRA.DIHEDRAL>
-1.71742

>  <SCORE.INTRA.DIHEDRAL.0>
3.49807

>  <SCORE.INTRA.POLAR>
0

>  <SCORE.INTRA.POLAR.0>
0

>  <SCORE.INTRA.REPUL>
0

>  <SCORE.INTRA.REPUL.0>
0

>  <SCORE.INTRA.SOLV>
0.273375

>  <SCORE.INTRA.SOLV.lig_0>
-73.062

>  <SCORE.INTRA.VDW>
-0.341676

>  <SCORE.INTRA.VDW.0>
-1.83782

>  <SCORE.INTRA.norm>
-0.04835

>  <SCORE.RESTR>
0

>  <SCORE.RESTR.CAVITY>
0

>  <SCORE.RESTR.norm>
0

>  <SCORE.SYSTEM>
0

>  <SCORE.SYSTEM.CONST>
0

>  <SCORE.SYSTEM.DIHEDRAL>
0

>  <SCORE.SYSTEM.SOLV>
0

>  <SCORE.SYSTEM.norm>
0

>  <SCORE.heavy>
22

>  <SCORE.norm>
-0.325801

>  <RMSD>
6.547

$$$$
ligand
 OpenBabel02271912143D
libRbt.so/2013.1/901 2013/11/27
 22 23  0  0  0  0  0  0  0  0999 V2000
  -31.7429    4.7962   -8.6610 N   0  0  0  0  0  0  0  0  0  0  0  0
  -31.0291    1.6339   -9.6319 C   0  0  1  0  0  0  0  0  0  0  0  0
  -30.8879    2.6548   -8.6035 O   0  0  0  0  0  0  0  0  0  0  0  0
  -28.8658    0.7560  -12.6162 P   0  0  1  0  0  0  0  0  0  0  0  0
  -32.0785    3.4591   -8.6087 C   0  0  2  0  0  0  0  0  0  0  0  0
  -30.6576    6.6247   -9.0967 N   0  0  0  0  0  0  0  0  0  0  0  0
  -34.1436    3.4143   -9.8044 O   0  0  0  0  0  0  0  0  0  0  0  0
  -32.7399    3.1433   -9.8947 C   0  0  2  0  0  0  0  0  0  0  0  0
  -31.4163    9.4045   -8.4728 N   0  0  0  0  0  0  0  0  0  0  0  0
  -33.2239    0.9113   -9.2379 O   0  0  0  0  0  0  0  0  0  0  0  0
  -32.4269    1.7352  -10.1053 C   0  0  2  0  0  0  0  0  0  0  0  0
  -31.8045    6.9543   -8.4830 C   0  0  0  0  0  0  0  0  0  0  0  0
  -33.7619    5.7171   -7.5878 N   0  0  0  0  0  0  0  0  0  0  0  0
  -29.8791    0.7813  -11.4198 O   0  0  0  0  0  0  0  0  0  0  0  0
  -30.0604    1.9658  -10.7143 C   0  0  0  0  0  0  0  0  0  0  0  0
  -29.6992    1.3576  -13.8053 O   0  0  0  0  0  0  0  0  0  0  0  0
  -30.6191    5.2825   -9.2005 C   0  0  0  0  0  0  0  0  0  0  0  0
  -33.3245    8.5191   -7.6007 O   0  0  0  0  0  0  0  0  0  0  0  0
  -32.2445    8.3238   -8.1580 C   0  0  0  0  0  0  0  0  0  0  0  0
  -32.4948    5.8083   -8.2082 C   0  0  0  0  0  0  0  0  0  0  0  0
  -27.6453    1.5366  -12.2572 O   0  5  0  0  0  0  0  0  0  0  0  0
  -28.3079   -0.5959  -12.7997 O   0  0  0  0  0  0  0  0  0  0  0  0
  1 17  1  0  0  0  0
  1 20  1  0  0  0  0
  2 15  1  6  0  0  0
  2  3  1  0  0  0  0
  2 11  1  0  0  0  0
  3  5  1  0  0  0  0
  4 16  1  6  0  0  0
  4 21  1  0  0  0  0
  4 22  2  0  0  0  0
  4 14  1  0  0  0  0
  5  1  1  6  0  0  0
  5  8  1  0  0  0  0
  6 17  2  0  0  0  0
  6 12  1  0  0  0  0
  8  7  1  1  0  0  0
  8 11  1  0  0  0  0
  9 19  1  0  0  0  0
 11 10  1  1  0  0  0
 12 20  2  0  0  0  0
 12 19  1  0  0  0  0
 13 20  1  0  0  0  0
 14 15  1  0  0  0  0
 18 19  2  0  0  0  0
M  CHG  1  21  -1
M  END
>  <CHROM.1>
27.17119065,159.84768971,-81.75818717,-177.82393690,-1.39733930,-31.15270877
3.54420502,-9.99558310,2.04779046,0.55716349,0.29262237

>  <Name>
ligand

>  <RI>
0

>  <Rbt.Current_Directory>
/home/itssahil/PROJECTS/Mol_Feturizer/Test_systems_manuscript/rnas/4xwf

>  <Rbt.Executable>
rbdock ($Id: //depot/dev/client3/rdock/2013.1/src/exe/rbdock.cxx#4 $)

>  <Rbt.Library>
libRbt.so (2013.1, Build901 2013/11/27)

>  <Rbt.Parameter_File>
/export/apps/rDock/src/rDock_2013.1_src/data/scripts/dock_solv.prm

>  <Rbt.Receptor>
prm/pocket_docking_7.prm

>  <SCORE>
-8.57444

>  <SCORE.INTER>
-8.62169

>  <SCORE.INTER.CONST>
1

>  <SCORE.INTER.POLAR>
0

>  <SCORE.INTER.ROT>
5

>  <SCORE.INTER.SOLV>
15.319

>  <SCORE.INTER.VDW>
-17.7875

>  <SCORE.INTER.norm>
-0.391895

>  <SCORE.INTRA>
0.0472519

>  <SCORE.INTRA.DIHEDRAL>
0.0440314

>  <SCORE.INTRA.DIHEDRAL.0>
3.49807

>  <SCORE.INTRA.POLAR>
0

>  <SCORE.INTRA.POLAR.0>
0

>  <SCORE.INTRA.REPUL>
0

>  <SCORE.INTRA.REPUL.0>
0

>  <SCORE.INTRA.SOLV>
0.261689

>  <SCORE.INTRA.SOLV.lig_0>
-73.062

>  <SCORE.INTRA.VDW>
-0.105608

>  <SCORE.INTRA.VDW.0>
-1.83782

>  <SCORE.INTRA.norm>
0.00214782

>  <SCORE.RESTR>
0

>  <SCORE.RESTR.CAVITY>
0

>  <SCORE.RESTR.norm>
0

>  <SCORE.SYSTEM>
0

>  <SCORE.SYSTEM.CONST>
0

>  <SCORE.SYSTEM.DIHEDRAL>
0

>  <SCORE.SYSTEM.SOLV>
0

>  <SCORE.SYSTEM.norm>
0

>  <SCORE.heavy>
22

>  <SCORE.norm>
-0.389747

>  <RMSD>
6.551

$$$$
ligand
 OpenBabel02271912143D
libRbt.so/2013.1/901 2013/11/27
 22 23  0  0  0  0  0  0  0  0999 V2000
  -28.3902    3.3378  -11.4916 N   0  0  0  0  0  0  0  0  0  0  0  0
  -30.5716    0.8192  -10.8998 C   0  0  1  0  0  0  0  0  0  0  0  0
  -30.2030    1.9367  -11.7571 O   0  0  0  0  0  0  0  0  0  0  0  0
  -33.1604    2.9637   -9.1543 P   0  0  1  0  0  0  0  0  0  0  0  0
  -28.7699    2.0395  -11.7624 C   0  0  2  0  0  0  0  0  0  0  0  0
  -28.2230    5.2645  -10.5062 N   0  0  0  0  0  0  0  0  0  0  0  0
  -26.9815    0.7844  -10.8020 O   0  0  0  0  0  0  0  0  0  0  0  0
  -28.3303    1.2255  -10.6070 C   0  0  2  0  0  0  0  0  0  0  0  0
  -26.7804    7.0057  -13.2228 N   0  0  0  0  0  0  0  0  0  0  0  0
  -29.0411   -0.8070  -11.6123 O   0  0  0  0  0  0  0  0  0  0  0  0
  -29.3017    0.1395  -10.5623 C   0  0  2  0  0  0  0  0  0  0  0  0
  -27.4036    5.2649  -11.5688 C   0  0  0  0  0  0  0  0  0  0  0  0
  -26.7860    3.6374  -13.3389 N   0  0  0  0  0  0  0  0  0  0  0  0
  -32.3018    2.1284  -10.1662 O   0  0  0  0  0  0  0  0  0  0  0  0
  -31.2228    1.3927   -9.6886 C   0  0  0  0  0  0  0  0  0  0  0  0
  -34.3562    3.4766  -10.0361 O   0  0  0  0  0  0  0  0  0  0  0  0
  -28.8394    4.0679  -10.4641 C   0  0  0  0  0  0  0  0  0  0  0  0
  -25.6149    6.7665  -11.2811 O   0  0  0  0  0  0  0  0  0  0  0  0
  -26.5440    6.3855  -11.9930 C   0  0  0  0  0  0  0  0  0  0  0  0
  -27.5011    4.0539  -12.1928 C   0  0  0  0  0  0  0  0  0  0  0  0
  -33.5631    2.1006   -8.0051 O   0  5  0  0  0  0  0  0  0  0  0  0
  -32.3325    3.9817   -8.4827 O   0  0  0  0  0  0  0  0  0  0  0  0
  1 17  1  0  0  0  0
  1 20  1  0  0  0  0
  2 15  1  1  0  0  0
  2  3  1  0  0  0  0
  2 11  1  0  0  0  0
  3  5  1  0  0  0  0
  4 16  1  6  0  0  0
  4 21  1  0  0  0  0
  4 22  2  0  0  0  0
  4 14  1  0  0  0  0
  5  1  1  1  0  0  0
  5  8  1  0  0  0  0
  6 17  2  0  0  0  0
  6 12  1  0  0  0  0
  8  7  1  6  0  0  0
  8 11  1  0  0  0  0
  9 19  1  0  0  0  0
 11 10  1  6  0  0  0
 12 20  2  0  0  0  0
 12 19  1  0  0  0  0
 13 20  1  0  0  0  0
 14 15  1  0  0  0  0
 18 19  2  0  0  0  0
M  CHG  1  21  -1
M  END
>  <CHROM.1>
50.19706519,57.94174516,-172.92443149,-175.60893337,-115.70856300,-29.67109424
3.03590509,-10.75403232,-0.39281984,-0.43331838,-3.09860625

>  <Name>
ligand

>  <RI>
0

>  <Rbt.Current_Directory>
/home/itssahil/PROJECTS/Mol_Feturizer/Test_systems_manuscript/rnas/4xwf

>  <Rbt.Executable>
rbdock ($Id: //depot/dev/client3/rdock/2013.1/src/exe/rbdock.cxx#4 $)

>  <Rbt.Library>
libRbt.so (2013.1, Build901 2013/11/27)

>  <Rbt.Parameter_File>
/export/apps/rDock/src/rDock_2013.1_src/data/scripts/dock_solv.prm

>  <Rbt.Receptor>
prm/pocket_docking_5.prm

>  <SCORE>
-7.1947

>  <SCORE.INTER>
-6.06149

>  <SCORE.INTER.CONST>
1

>  <SCORE.INTER.POLAR>
0

>  <SCORE.INTER.ROT>
5

>  <SCORE.INTER.SOLV>
10.9575

>  <SCORE.INTER.VDW>
-14.6268

>  <SCORE.INTER.norm>
-0.275522

>  <SCORE.INTRA>
-1.1332

>  <SCORE.INTRA.DIHEDRAL>
-1.813

>  <SCORE.INTRA.DIHEDRAL.0>
3.49807

>  <SCORE.INTRA.POLAR>
0

>  <SCORE.INTRA.POLAR.0>
0

>  <SCORE.INTRA.REPUL>
0

>  <SCORE.INTRA.REPUL.0>
0

>  <SCORE.INTRA.SOLV>
0.134106

>  <SCORE.INTRA.SOLV.lig_0>
-73.062

>  <SCORE.INTRA.VDW>
-0.293757

>  <SCORE.INTRA.VDW.0>
-1.83782

>  <SCORE.INTRA.norm>
-0.0515093

>  <SCORE.RESTR>
0

>  <SCORE.RESTR.CAVITY>
0

>  <SCORE.RESTR.norm>
0

>  <SCORE.SYSTEM>
0

>  <SCORE.SYSTEM.CONST>
0

>  <SCORE.SYSTEM.DIHEDRAL>
0

>  <SCORE.SYSTEM.SOLV>
0

>  <SCORE.SYSTEM.norm>
0

>  <SCORE.heavy>
22

>  <SCORE.norm>
-0.327032

>  <RMSD>
6.554

$$$$
ligand
 OpenBabel02271912143D
libRbt.so/2013.1/901 2013/11/27
 22 23  0  0  0  0  0  0  0  0999 V2000
  -28.3962    3.3383  -11.4768 N   0  0  0  0  0  0  0  0  0  0  0  0
  -30.5751    0.8138  -10.9007 C   0  0  1  0  0  0  0  0  0  0  0  0
  -30.2054    1.9347  -11.7532 O   0  0  0  0  0  0  0  0  0  0  0  0
  -33.1616    2.9647   -9.1615 P   0  0  1  0  0  0  0  0  0  0  0  0
  -28.7725    2.0401  -11.7530 C   0  0  2  0  0  0  0  0  0  0  0  0
  -28.2545    5.2703  -10.4977 N   0  0  0  0  0  0  0  0  0  0  0  0
  -26.9853    0.7854  -10.7900 O   0  0  0  0  0  0  0  0  0  0  0  0
  -28.3356    1.2233  -10.5986 C   0  0  2  0  0  0  0  0  0  0  0  0
  -26.6929    6.9725  -13.1812 N   0  0  0  0  0  0  0  0  0  0  0  0
  -29.0391   -0.8073  -11.6128 O   0  0  0  0  0  0  0  0  0  0  0  0
  -29.3052    0.1354  -10.5608 C   0  0  2  0  0  0  0  0  0  0  0  0
  -27.3979    5.2601  -11.5305 C   0  0  0  0  0  0  0  0  0  0  0  0
  -26.7258    3.6186  -13.2675 N   0  0  0  0  0  0  0  0  0  0  0  0
  -32.3122    2.1151  -10.1691 O   0  0  0  0  0  0  0  0  0  0  0  0
  -31.2318    1.3823   -9.6901 C   0  0  0  0  0  0  0  0  0  0  0  0
  -34.3570    3.4781  -10.0435 O   0  0  0  0  0  0  0  0  0  0  0  0
  -28.8780    4.0769  -10.4703 C   0  0  0  0  0  0  0  0  0  0  0  0
  -25.6257    6.7680  -11.1800 O   0  0  0  0  0  0  0  0  0  0  0  0
  -26.5181    6.3739  -11.9306 C   0  0  0  0  0  0  0  0  0  0  0  0
  -27.4792    4.0457  -12.1501 C   0  0  0  0  0  0  0  0  0  0  0  0
  -33.5660    2.1142   -8.0035 O   0  5  0  0  0  0  0  0  0  0  0  0
  -32.3246    3.9829   -8.5015 O   0  0  0  0  0  0  0  0  0  0  0  0
  1 17  1  0  0  0  0
  1 20  1  0  0  0  0
  2 15  1  1  0  0  0
  2  3  1  0  0  0  0
  2 11  1  0  0  0  0
  3  5  1  0  0  0  0
  4 16  1  6  0  0  0
  4 21  1  0  0  0  0
  4 22  2  0  0  0  0
  4 14  1  0  0  0  0
  5  1  1  1  0  0  0
  5  8  1  0  0  0  0
  6 17  2  0  0  0  0
  6 12  1  0  0  0  0
  8  7  1  6  0  0  0
  8 11  1  0  0  0  0
  9 19  1  0  0  0  0
 11 10  1  6  0  0  0
 12 20  2  0  0  0  0
 12 19  1  0  0  0  0
 13 20  1  0  0  0  0
 14 15  1  0  0  0  0
 18 19  2  0  0  0  0
M  CHG  1  21  -1
M  END
>  <CHROM.1>
48.25044205,58.07092049,-173.28777099,-174.56392681,-116.79267999,-29.66798689
3.03275433,-10.73889572,-0.38758897,-0.42749023,-3.08866726

>  <Name>
ligand

>  <RI>
0

>  <Rbt.Current_Directory>
/home/itssahil/PROJECTS/Mol_Feturizer/Test_systems_manuscript/rnas/4xwf

>  <Rbt.Executable>
rbdock ($Id: //depot/dev/client3/rdock/2013.1/src/exe/rbdock.cxx#4 $)

>  <Rbt.Library>
libRbt.so (2013.1, Build901 2013/11/27)

>  <Rbt.Parameter_File>
/export/apps/rDock/src/rDock_2013.1_src/data/scripts/dock_solv.prm

>  <Rbt.Receptor>
prm/pocket_docking_5.prm

>  <SCORE>
-7.1915

>  <SCORE.INTER>
-6.07369

>  <SCORE.INTER.CONST>
1

>  <SCORE.INTER.POLAR>
0

>  <SCORE.INTER.ROT>
5

>  <SCORE.INTER.SOLV>
10.9841

>  <SCORE.INTER.VDW>
-14.6438

>  <SCORE.INTER.norm>
-0.276077

>  <SCORE.INTRA>
-1.11781

>  <SCORE.INTRA.DIHEDRAL>
-1.78485

>  <SCORE.INTRA.DIHEDRAL.0>
3.49807

>  <SCORE.INTRA.POLAR>
0

>  <SCORE.INTRA.POLAR.0>
0

>  <SCORE.INTRA.REPUL>
0

>  <SCORE.INTRA.REPUL.0>
0

>  <SCORE.INTRA.SOLV>
0.226486

>  <SCORE.INTRA.SOLV.lig_0>
-73.062

>  <SCORE.INTRA.VDW>
-0.338628

>  <SCORE.INTRA.VDW.0>
-1.83782

>  <SCORE.INTRA.norm>
-0.0508096

>  <SCORE.RESTR>
0

>  <SCORE.RESTR.CAVITY>
0

>  <SCORE.RESTR.norm>
0

>  <SCORE.SYSTEM>
0

>  <SCORE.SYSTEM.CONST>
0

>  <SCORE.SYSTEM.DIHEDRAL>
0

>  <SCORE.SYSTEM.SOLV>
0

>  <SCORE.SYSTEM.norm>
0

>  <SCORE.heavy>
22

>  <SCORE.norm>
-0.326886

>  <RMSD>
6.555

$$$$
ligand
 OpenBabel02271912143D
libRbt.so/2013.1/901 2013/11/27
 22 23  0  0  0  0  0  0  0  0999 V2000
  -27.6198    3.7225  -10.2647 N   0  0  0  0  0  0  0  0  0  0  0  0
  -29.6713    1.6688  -12.0043 C   0  0  1  0  0  0  0  0  0  0  0  0
  -29.2603    3.0393  -11.7350 O   0  0  0  0  0  0  0  0  0  0  0  0
  -32.8223    1.9055   -9.9420 P   0  0  1  0  0  0  0  0  0  0  0  0
  -27.8551    3.0317  -11.4355 C   0  0  2  0  0  0  0  0  0  0  0  0
  -27.7360    4.3409   -8.1875 N   0  0  0  0  0  0  0  0  0  0  0  0
  -26.1462    1.3664  -11.3861 O   0  0  0  0  0  0  0  0  0  0  0  0
  -27.5382    1.6133  -11.1552 C   0  0  2  0  0  0  0  0  0  0  0  0
  -26.2300    6.4776   -6.8220 N   0  0  0  0  0  0  0  0  0  0  0  0
  -27.9322    0.9537  -13.4039 O   0  0  0  0  0  0  0  0  0  0  0  0
  -28.4209    0.8799  -12.0541 C   0  0  2  0  0  0  0  0  0  0  0  0
  -26.7917    5.0781   -8.7919 C   0  0  0  0  0  0  0  0  0  0  0  0
  -25.8246    5.2045  -11.0749 N   0  0  0  0  0  0  0  0  0  0  0  0
  -31.5424    2.2047  -10.7970 O   0  0  0  0  0  0  0  0  0  0  0  0
  -30.5416    1.2422  -10.8727 C   0  0  0  0  0  0  0  0  0  0  0  0
  -33.5492    0.7811  -10.7653 O   0  0  0  0  0  0  0  0  0  0  0  0
  -28.2533    3.5035   -9.1066 C   0  0  0  0  0  0  0  0  0  0  0  0
  -25.0966    6.7103   -8.7834 O   0  0  0  0  0  0  0  0  0  0  0  0
  -25.9794    6.1296   -8.1521 C   0  0  0  0  0  0  0  0  0  0  0  0
  -26.7105    4.6923  -10.0995 C   0  0  0  0  0  0  0  0  0  0  0  0
  -32.4216    1.5026   -8.5618 O   0  5  0  0  0  0  0  0  0  0  0  0
  -33.5770    3.1443   -9.6802 O   0  0  0  0  0  0  0  0  0  0  0  0
  1 17  1  0  0  0  0
  1 20  1  0  0  0  0
  2 15  1  1  0  0  0
  2  3  1  0  0  0  0
  2 11  1  0  0  0  0
  3  5  1  0  0  0  0
  4 16  1  6  0  0  0
  4 21  1  0  0  0  0
  4 22  2  0  0  0  0
  4 14  1  0  0  0  0
  5  1  1  1  0  0  0
  5  8  1  0  0  0  0
  6 17  2  0  0  0  0
  6 12  1  0  0  0  0
  8  7  1  6  0  0  0
  8 11  1  0  0  0  0
  9 19  1  0  0  0  0
 11 10  1  6  0  0  0
 12 20  2  0  0  0  0
 12 19  1  0  0  0  0
 13 20  1  0  0  0  0
 14 15  1  0  0  0  0
 18 19  2  0  0  0  0
M  CHG  1  21  -1
M  END
>  <CHROM.1>
51.81558501,54.45723654,-69.24338541,165.77588559,-3.93260038,-29.02461446
3.02286390,-10.24740201,-0.49123558,-0.28245455,-2.31839081

>  <Name>
ligand

>  <RI>
0

>  <Rbt.Current_Directory>
/home/itssahil/PROJECTS/Mol_Feturizer/Test_systems_manuscript/rnas/4xwf

>  <Rbt.Executable>
rbdock ($Id: //depot/dev/client3/rdock/2013.1/src/exe/rbdock.cxx#4 $)

>  <Rbt.Library>
libRbt.so (2013.1, Build901 2013/11/27)

>  <Rbt.Parameter_File>
/export/apps/rDock/src/rDock_2013.1_src/data/scripts/dock_solv.prm

>  <Rbt.Receptor>
prm/pocket_docking_3.prm

>  <SCORE>
-1.89567

>  <SCORE.INTER>
-1.24627

>  <SCORE.INTER.CONST>
1

>  <SCORE.INTER.POLAR>
0

>  <SCORE.INTER.ROT>
5

>  <SCORE.INTER.SOLV>
11.5864

>  <SCORE.INTER.VDW>
-11.6263

>  <SCORE.INTER.norm>
-0.0566484

>  <SCORE.INTRA>
-0.651628

>  <SCORE.INTRA.DIHEDRAL>
-0.756749

>  <SCORE.INTRA.DIHEDRAL.0>
3.49807

>  <SCORE.INTRA.POLAR>
0

>  <SCORE.INTRA.POLAR.0>
0

>  <SCORE.INTRA.REPUL>
0

>  <SCORE.INTRA.REPUL.0>
0

>  <SCORE.INTRA.SOLV>
-0.643756

>  <SCORE.INTRA.SOLV.lig_0>
-73.062

>  <SCORE.INTRA.VDW>
0.048624

>  <SCORE.INTRA.VDW.0>
-1.83782

>  <SCORE.INTRA.norm>
-0.0296195

>  <SCORE.RESTR>
0.00222917

>  <SCORE.RESTR.CAVITY>
0.00222917

>  <SCORE.RESTR.norm>
0.000101326

>  <SCORE.SYSTEM>
0

>  <SCORE.SYSTEM.CONST>
0

>  <SCORE.SYSTEM.DIHEDRAL>
0

>  <SCORE.SYSTEM.SOLV>
0

>  <SCORE.SYSTEM.norm>
0

>  <SCORE.heavy>
22

>  <SCORE.norm>
-0.0861666

>  <RMSD>
6.561

$$$$
ligand
 OpenBabel02271912143D
libRbt.so/2013.1/901 2013/11/27
 22 23  0  0  0  0  0  0  0  0999 V2000
  -28.5374    3.4816  -11.1765 N   0  0  0  0  0  0  0  0  0  0  0  0
  -30.6872    0.8897  -10.8406 C   0  0  1  0  0  0  0  0  0  0  0  0
  -30.3128    2.0723  -11.6029 O   0  0  0  0  0  0  0  0  0  0  0  0
  -33.2620    2.9976   -9.0423 P   0  0  1  0  0  0  0  0  0  0  0  0
  -28.8825    2.1998  -11.5521 C   0  0  2  0  0  0  0  0  0  0  0  0
  -28.5215    5.3764  -10.1179 N   0  0  0  0  0  0  0  0  0  0  0  0
  -27.1022    0.9098  -10.6237 O   0  0  0  0  0  0  0  0  0  0  0  0
  -28.4650    1.3124  -10.4436 C   0  0  2  0  0  0  0  0  0  0  0  0
  -25.2099    6.2864  -11.0680 N   0  0  0  0  0  0  0  0  0  0  0  0
  -29.1028   -0.6543  -11.6151 O   0  0  0  0  0  0  0  0  0  0  0  0
  -29.4160    0.2095  -10.5097 C   0  0  2  0  0  0  0  0  0  0  0  0
  -27.5216    5.3880  -11.0126 C   0  0  0  0  0  0  0  0  0  0  0  0
  -26.6174    3.7964  -12.6898 N   0  0  0  0  0  0  0  0  0  0  0  0
  -32.4386    2.1509  -10.0736 O   0  0  0  0  0  0  0  0  0  0  0  0
  -31.3887    1.3632   -9.6143 C   0  0  0  0  0  0  0  0  0  0  0  0
  -33.6605    1.9419   -7.9480 O   0  0  0  0  0  0  0  0  0  0  0  0
  -29.1549    4.1929  -10.2261 C   0  0  0  0  0  0  0  0  0  0  0  0
  -26.9931    7.6152  -11.5582 O   0  0  0  0  0  0  0  0  0  0  0  0
  -26.5803    6.5007  -11.2378 C   0  0  0  0  0  0  0  0  0  0  0  0
  -27.5233    4.1969  -11.6811 C   0  0  0  0  0  0  0  0  0  0  0  0
  -32.4264    4.1272   -8.5387 O   0  5  0  0  0  0  0  0  0  0  0  0
  -34.3579    3.7184   -9.7147 O   0  0  0  0  0  0  0  0  0  0  0  0
  1 17  1  0  0  0  0
  1 20  1  0  0  0  0
  2 15  1  1  0  0  0
  2  3  1  0  0  0  0
  2 11  1  0  0  0  0
  3  5  1  0  0  0  0
  4 16  1  1  0  0  0
  4 21  1  0  0  0  0
  4 22  2  0  0  0  0
  4 14  1  0  0  0  0
  5  1  1  1  0  0  0
  5  8  1  0  0  0  0
  6 17  2  0  0  0  0
  6 12  1  0  0  0  0
  8  7  1  6  0  0  0
  8 11  1  0  0  0  0
  9 19  1  0  0  0  0
 11 10  1  6  0  0  0
 12 20  2  0  0  0  0
 12 19  1  0  0  0  0
 13 20  1  0  0  0  0
 14 15  1  0  0  0  0
 18 19  2  0  0  0  0
M  CHG  1  21  -1
M  END
>  <CHROM.1>
40.98080706,55.94259100,-51.51424075,-170.64073344,120.73859937,-29.76673947
3.13223989,-10.47391102,-0.38697015,-0.38000790,-3.02227957

>  <Name>
ligand

>  <RI>
0

>  <Rbt.Current_Directory>
/home/itssahil/PROJECTS/Mol_Feturizer/Test_systems_manuscript/rnas/4xwf

>  <Rbt.Executable>
rbdock ($Id: //depot/dev/client3/rdock/2013.1/src/exe/rbdock.cxx#4 $)

>  <Rbt.Library>
libRbt.so (2013.1, Build901 2013/11/27)

>  <Rbt.Parameter_File>
/export/apps/rDock/src/rDock_2013.1_src/data/scripts/dock_solv.prm

>  <Rbt.Receptor>
prm/pocket_docking_3.prm

>  <SCORE>
-4.95983

>  <SCORE.INTER>
-3.8671

>  <SCORE.INTER.CONST>
1

>  <SCORE.INTER.POLAR>
0

>  <SCORE.INTER.ROT>
5

>  <SCORE.INTER.SOLV>
15.9517

>  <SCORE.INTER.VDW>
-14.8286

>  <SCORE.INTER.norm>
-0.175777

>  <SCORE.INTRA>
-1.09273

>  <SCORE.INTRA.DIHEDRAL>
-1.45307

>  <SCORE.INTRA.DIHEDRAL.0>
3.49807

>  <SCORE.INTRA.POLAR>
0

>  <SCORE.INTRA.POLAR.0>
0

>  <SCORE.INTRA.REPUL>
0

>  <SCORE.INTRA.REPUL.0>
0

>  <SCORE.INTRA.SOLV>
-0.0369478

>  <SCORE.INTRA.SOLV.lig_0>
-73.062

>  <SCORE.INTRA.VDW>
-0.347724

>  <SCORE.INTRA.VDW.0>
-1.83782

>  <SCORE.INTRA.norm>
-0.0496698

>  <SCORE.RESTR>
0

>  <SCORE.RESTR.CAVITY>
0

>  <SCORE.RESTR.norm>
0

>  <SCORE.SYSTEM>
0

>  <SCORE.SYSTEM.CONST>
0

>  <SCORE.SYSTEM.DIHEDRAL>
0

>  <SCORE.SYSTEM.SOLV>
0

>  <SCORE.SYSTEM.norm>
0

>  <SCORE.heavy>
22

>  <SCORE.norm>
-0.225447

>  <RMSD>
6.562

$$$$
ligand
 OpenBabel02271912143D
libRbt.so/2013.1/901 2013/11/27
 22 23  0  0  0  0  0  0  0  0999 V2000
  -28.3517    3.3478  -11.5680 N   0  0  0  0  0  0  0  0  0  0  0  0
  -30.5922    0.8980  -10.9117 C   0  0  1  0  0  0  0  0  0  0  0  0
  -30.1982    1.9848  -11.7968 O   0  0  0  0  0  0  0  0  0  0  0  0
  -33.1556    3.1109   -9.2161 P   0  0  1  0  0  0  0  0  0  0  0  0
  -28.7631    2.0527  -11.8062 C   0  0  2  0  0  0  0  0  0  0  0  0
  -28.1278    5.2898  -10.6248 N   0  0  0  0  0  0  0  0  0  0  0  0
  -27.0039    0.7788  -10.8171 O   0  0  0  0  0  0  0  0  0  0  0  0
  -28.3412    1.2571  -10.6316 C   0  0  2  0  0  0  0  0  0  0  0  0
  -25.0646    6.1582  -12.1675 N   0  0  0  0  0  0  0  0  0  0  0  0
  -29.1027   -0.7818  -11.5856 O   0  0  0  0  0  0  0  0  0  0  0  0
  -29.3386    0.1964  -10.5590 C   0  0  2  0  0  0  0  0  0  0  0  0
  -27.3259    5.2513  -11.7000 C   0  0  0  0  0  0  0  0  0  0  0  0
  -26.7715    3.5756  -13.4460 N   0  0  0  0  0  0  0  0  0  0  0  0
  -32.3193    2.2253  -10.2035 O   0  0  0  0  0  0  0  0  0  0  0  0
  -31.2273    1.5168   -9.7143 C   0  0  0  0  0  0  0  0  0  0  0  0
  -34.4126    3.5119  -10.0703 O   0  0  0  0  0  0  0  0  0  0  0  0
  -28.7686    4.1078  -10.5487 C   0  0  0  0  0  0  0  0  0  0  0  0
  -26.9270    7.4196  -12.5224 O   0  0  0  0  0  0  0  0  0  0  0  0
  -26.4496    6.3444  -12.1604 C   0  0  0  0  0  0  0  0  0  0  0  0
  -27.4591    4.0303  -12.2975 C   0  0  0  0  0  0  0  0  0  0  0  0
  -33.4676    2.3305   -7.9826 O   0  5  0  0  0  0  0  0  0  0  0  0
  -32.3328    4.2061   -8.6718 O   0  0  0  0  0  0  0  0  0  0  0  0
  1 17  1  0  0  0  0
  1 20  1  0  0  0  0
  2 15  1  1  0  0  0
  2  3  1  0  0  0  0
  2 11  1  0  0  0  0
  3  5  1  0  0  0  0
  4 16  1  6  0  0  0
  4 21  1  0  0  0  0
  4 22  2  0  0  0  0
  4 14  1  0  0  0  0
  5  1  1  1  0  0  0
  5  8  1  0  0  0  0
  6 17  2  0  0  0  0
  6 12  1  0  0  0  0
  8  7  1  6  0  0  0
  8 11  1  0  0  0  0
  9 19  1  0  0  0  0
 11 10  1  6  0  0  0
 12 20  2  0  0  0  0
 12 19  1  0  0  0  0
 13 20  1  0  0  0  0
 14 15  1  0  0  0  0
 18 19  2  0  0  0  0
M  CHG  1  21  -1
M  END
>  <CHROM.1>
51.08137097,60.13214438,-169.97917078,-174.81821718,116.28759087,-29.65015082
3.08712670,-10.82302066,-0.36821500,-0.42750607,-3.12406714

>  <Name>
ligand

>  <RI>
0

>  <Rbt.Current_Directory>
/home/itssahil/PROJECTS/Mol_Feturizer/Test_systems_manuscript/rnas/4xwf

>  <Rbt.Executable>
rbdock ($Id: //depot/dev/client3/rdock/2013.1/src/exe/rbdock.cxx#4 $)

>  <Rbt.Library>
libRbt.so (2013.1, Build901 2013/11/27)

>  <Rbt.Parameter_File>
/export/apps/rDock/src/rDock_2013.1_src/data/scripts/dock_solv.prm

>  <Rbt.Receptor>
prm/pocket_docking_4.prm

>  <SCORE>
-7.22653

>  <SCORE.INTER>
-6.13034

>  <SCORE.INTER.CONST>
1

>  <SCORE.INTER.POLAR>
0

>  <SCORE.INTER.ROT>
5

>  <SCORE.INTER.SOLV>
11.3953

>  <SCORE.INTER.VDW>
-14.8187

>  <SCORE.INTER.norm>
-0.278652

>  <SCORE.INTRA>
-1.09619

>  <SCORE.INTRA.DIHEDRAL>
-1.73175

>  <SCORE.INTRA.DIHEDRAL.0>
3.49807

>  <SCORE.INTRA.POLAR>
0

>  <SCORE.INTRA.POLAR.0>
0

>  <SCORE.INTRA.REPUL>
0

>  <SCORE.INTRA.REPUL.0>
0

>  <SCORE.INTRA.SOLV>
0.102157

>  <SCORE.INTRA.SOLV.lig_0>
-73.062

>  <SCORE.INTRA.VDW>
-0.281393

>  <SCORE.INTRA.VDW.0>
-1.83782

>  <SCORE.INTRA.norm>
-0.0498268

>  <SCORE.RESTR>
0

>  <SCORE.RESTR.CAVITY>
0

>  <SCORE.RESTR.norm>
0

>  <SCORE.SYSTEM>
0

>  <SCORE.SYSTEM.CONST>
0

>  <SCORE.SYSTEM.DIHEDRAL>
0

>  <SCORE.SYSTEM.SOLV>
0

>  <SCORE.SYSTEM.norm>
0

>  <SCORE.heavy>
22

>  <SCORE.norm>
-0.328479

>  <RMSD>
6.566

$$$$
ligand
 OpenBabel02271912143D
libRbt.so/2013.1/901 2013/11/27
 22 23  0  0  0  0  0  0  0  0999 V2000
  -28.6375    3.4754  -11.0196 N   0  0  0  0  0  0  0  0  0  0  0  0
  -30.8156    0.8983  -10.7599 C   0  0  1  0  0  0  0  0  0  0  0  0
  -30.3900    2.0629  -11.5231 O   0  0  0  0  0  0  0  0  0  0  0  0
  -33.3967    3.1500   -9.1688 P   0  0  1  0  0  0  0  0  0  0  0  0
  -28.9650    2.1869  -11.3880 C   0  0  2  0  0  0  0  0  0  0  0  0
  -28.6872    5.3982  -10.0140 N   0  0  0  0  0  0  0  0  0  0  0  0
  -27.2504    0.9114  -10.3253 O   0  0  0  0  0  0  0  0  0  0  0  0
  -28.6198    1.3223  -10.2373 C   0  0  2  0  0  0  0  0  0  0  0  0
  -25.3080    6.2682  -10.6638 N   0  0  0  0  0  0  0  0  0  0  0  0
  -29.1940   -0.6673  -11.4032 O   0  0  0  0  0  0  0  0  0  0  0  0
  -29.5700    0.2213  -10.3376 C   0  0  2  0  0  0  0  0  0  0  0  0
  -27.6174    5.3764  -10.8237 C   0  0  0  0  0  0  0  0  0  0  0  0
  -26.5967    3.7314  -12.3780 N   0  0  0  0  0  0  0  0  0  0  0  0
  -32.5792    2.2152  -10.1261 O   0  0  0  0  0  0  0  0  0  0  0  0
  -31.5883    1.4005   -9.5892 C   0  0  0  0  0  0  0  0  0  0  0  0
  -34.5889    3.6340  -10.0716 O   0  0  0  0  0  0  0  0  0  0  0  0
  -29.3228    4.2179  -10.1423 C   0  0  0  0  0  0  0  0  0  0  0  0
  -27.0141    7.5696  -11.4261 O   0  0  0  0  0  0  0  0  0  0  0  0
  -26.6486    6.4741  -11.0004 C   0  0  0  0  0  0  0  0  0  0  0  0
  -27.5776    4.1675  -11.4581 C   0  0  0  0  0  0  0  0  0  0  0  0
  -33.8090    2.3877   -7.9536 O   0  5  0  0  0  0  0  0  0  0  0  0
  -32.5281    4.1881   -8.5851 O   0  0  0  0  0  0  0  0  0  0  0  0
  1 17  1  0  0  0  0
  1 20  1  0  0  0  0
  2 15  1  1  0  0  0
  2  3  1  0  0  0  0
  2 11  1  0  0  0  0
  3  5  1  0  0  0  0
  4 16  1  6  0  0  0
  4 21  1  0  0  0  0
  4 22  2  0  0  0  0
  4 14  1  0  0  0  0
  5  1  1  1  0  0  0
  5  8  1  0  0  0  0
  6 17  2  0  0  0  0
  6 12  1  0  0  0  0
  8  7  1  6  0  0  0
  8 11  1  0  0  0  0
  9 19  1  0  0  0  0
 11 10  1  6  0  0  0
 12 20  2  0  0  0  0
 12 19  1  0  0  0  0
 13 20  1  0  0  0  0
 14 15  1  0  0  0  0
 18 19  2  0  0  0  0
M  CHG  1  21  -1
M  END
>  <CHROM.1>
39.68532906,54.13537539,-167.69825647,-167.38505775,118.27026885,-29.88381940
3.16487201,-10.37910434,-0.38015759,-0.31852359,-3.03375813

>  <Name>
ligand

>  <RI>
0

>  <Rbt.Current_Directory>
/home/itssahil/PROJECTS/Mol_Feturizer/Test_systems_manuscript/rnas/4xwf

>  <Rbt.Executable>
rbdock ($Id: //depot/dev/client3/rdock/2013.1/src/exe/rbdock.cxx#4 $)

>  <Rbt.Library>
libRbt.so (2013.1, Build901 2013/11/27)

>  <Rbt.Parameter_File>
/export/apps/rDock/src/rDock_2013.1_src/data/scripts/dock_solv.prm

>  <Rbt.Receptor>
prm/pocket_docking_4.prm

>  <SCORE>
-7.17666

>  <SCORE.INTER>
-6.60055

>  <SCORE.INTER.CONST>
1

>  <SCORE.INTER.POLAR>
0

>  <SCORE.INTER.ROT>
5

>  <SCORE.INTER.SOLV>
12.389

>  <SCORE.INTER.VDW>
-15.4634

>  <SCORE.INTER.norm>
-0.300025

>  <SCORE.INTRA>
-0.576116

>  <SCORE.INTRA.DIHEDRAL>
-0.952679

>  <SCORE.INTRA.DIHEDRAL.0>
3.49807

>  <SCORE.INTRA.POLAR>
0

>  <SCORE.INTRA.POLAR.0>
0

>  <SCORE.INTRA.REPUL>
0

>  <SCORE.INTRA.REPUL.0>
0

>  <SCORE.INTRA.SOLV>
0.76404

>  <SCORE.INTRA.SOLV.lig_0>
-73.062

>  <SCORE.INTRA.VDW>
-0.481796

>  <SCORE.INTRA.VDW.0>
-1.83782

>  <SCORE.INTRA.norm>
-0.0261871

>  <SCORE.RESTR>
0

>  <SCORE.RESTR.CAVITY>
0

>  <SCORE.RESTR.norm>
0

>  <SCORE.SYSTEM>
0

>  <SCORE.SYSTEM.CONST>
0

>  <SCORE.SYSTEM.DIHEDRAL>
0

>  <SCORE.SYSTEM.SOLV>
0

>  <SCORE.SYSTEM.norm>
0

>  <SCORE.heavy>
22

>  <SCORE.norm>
-0.326212

>  <RMSD>
6.569

$$$$
ligand
 OpenBabel02271912143D
libRbt.so/2013.1/901 2013/11/27
 22 23  0  0  0  0  0  0  0  0999 V2000
  -31.6560    4.8597   -8.6160 N   0  0  0  0  0  0  0  0  0  0  0  0
  -31.0365    1.6919   -9.6327 C   0  0  1  0  0  0  0  0  0  0  0  0
  -30.8389    2.7029   -8.6038 O   0  0  0  0  0  0  0  0  0  0  0  0
  -28.8890    0.7675  -12.6141 P   0  0  1  0  0  0  0  0  0  0  0  0
  -32.0139    3.5286   -8.5599 C   0  0  2  0  0  0  0  0  0  0  0  0
  -30.5700    6.6745   -9.1041 N   0  0  0  0  0  0  0  0  0  0  0  0
  -34.1220    3.5296   -9.6788 O   0  0  0  0  0  0  0  0  0  0  0  0
  -32.7278    3.2339   -9.8225 C   0  0  2  0  0  0  0  0  0  0  0  0
  -32.1235    8.7284   -6.6655 N   0  0  0  0  0  0  0  0  0  0  0  0
  -33.2282    1.0065   -9.1626 O   0  0  0  0  0  0  0  0  0  0  0  0
  -32.4487    1.8219  -10.0536 C   0  0  2  0  0  0  0  0  0  0  0  0
  -31.6594    7.0151   -8.3986 C   0  0  0  0  0  0  0  0  0  0  0  0
  -33.5673    5.7998   -7.3755 N   0  0  0  0  0  0  0  0  0  0  0  0
  -29.8887    0.8080  -11.4068 O   0  0  0  0  0  0  0  0  0  0  0  0
  -30.1023    2.0138  -10.7480 C   0  0  0  0  0  0  0  0  0  0  0  0
  -29.7239    1.3877  -13.7926 O   0  0  0  0  0  0  0  0  0  0  0  0
  -30.5671    5.3340   -9.2325 C   0  0  0  0  0  0  0  0  0  0  0  0
  -32.3115    9.2242   -8.8801 O   0  0  0  0  0  0  0  0  0  0  0  0
  -32.0451    8.3867   -8.0183 C   0  0  0  0  0  0  0  0  0  0  0  0
  -32.3500    5.8778   -8.0901 C   0  0  0  0  0  0  0  0  0  0  0  0
  -27.6505    1.5246  -12.2663 O   0  5  0  0  0  0  0  0  0  0  0  0
  -28.3580   -0.5938  -12.8073 O   0  0  0  0  0  0  0  0  0  0  0  0
  1 17  1  0  0  0  0
  1 20  1  0  0  0  0
  2 15  1  6  0  0  0
  2  3  1  0  0  0  0
  2 11  1  0  0  0  0
  3  5  1  0  0  0  0
  4 16  1  6  0  0  0
  4 21  1  0  0  0  0
  4 22  2  0  0  0  0
  4 14  1  0  0  0  0
  5  1  1  6  0  0  0
  5  8  1  0  0  0  0
  6 17  2  0  0  0  0
  6 12  1  0  0  0  0
  8  7  1  1  0  0  0
  8 11  1  0  0  0  0
  9 19  1  0  0  0  0
 11 10  1  1  0  0  0
 12 20  2  0  0  0  0
 12 19  1  0  0  0  0
 13 20  1  0  0  0  0
 14 15  1  0  0  0  0
 18 19  2  0  0  0  0
M  CHG  1  21  -1
M  END
>  <CHROM.1>
29.54828248,155.44188422,-77.84362555,-177.30498489,-117.77945451,-31.10131748
3.59701319,-9.94316748,2.02380736,0.58770158,0.30840391

>  <Name>
ligand

>  <RI>
0

>  <Rbt.Current_Directory>
/home/itssahil/PROJECTS/Mol_Feturizer/Test_systems_manuscript/rnas/4xwf

>  <Rbt.Executable>
rbdock ($Id: //depot/dev/client3/rdock/2013.1/src/exe/rbdock.cxx#4 $)

>  <Rbt.Library>
libRbt.so (2013.1, Build901 2013/11/27)

>  <Rbt.Parameter_File>
/export/apps/rDock/src/rDock_2013.1_src/data/scripts/dock_solv.prm

>  <Rbt.Receptor>
prm/pocket_docking_7.prm

>  <SCORE>
-8.43784

>  <SCORE.INTER>
-8.39788

>  <SCORE.INTER.CONST>
1

>  <SCORE.INTER.POLAR>
0

>  <SCORE.INTER.ROT>
5

>  <SCORE.INTER.SOLV>
14.1817

>  <SCORE.INTER.VDW>
-17.2591

>  <SCORE.INTER.norm>
-0.381722

>  <SCORE.INTRA>
-0.039964

>  <SCORE.INTRA.DIHEDRAL>
0.392433

>  <SCORE.INTRA.DIHEDRAL.0>
3.49807

>  <SCORE.INTRA.POLAR>
0

>  <SCORE.INTRA.POLAR.0>
0

>  <SCORE.INTRA.REPUL>
0

>  <SCORE.INTRA.REPUL.0>
0

>  <SCORE.INTRA.SOLV>
0.182266

>  <SCORE.INTRA.SOLV.lig_0>
-73.062

>  <SCORE.INTRA.VDW>
-0.327314

>  <SCORE.INTRA.VDW.0>
-1.83782

>  <SCORE.INTRA.norm>
-0.00181654

>  <SCORE.RESTR>
0

>  <SCORE.RESTR.CAVITY>
0

>  <SCORE.RESTR.norm>
0

>  <SCORE.SYSTEM>
0

>  <SCORE.SYSTEM.CONST>
0

>  <SCORE.SYSTEM.DIHEDRAL>
0

>  <SCORE.SYSTEM.SOLV>
0

>  <SCORE.SYSTEM.norm>
0

>  <SCORE.heavy>
22

>  <SCORE.norm>
-0.383538

>  <RMSD>
6.569

$$$$
ligand
 OpenBabel02271912143D
libRbt.so/2013.1/901 2013/11/27
 22 23  0  0  0  0  0  0  0  0999 V2000
  -28.3635    3.3375  -11.4935 N   0  0  0  0  0  0  0  0  0  0  0  0
  -30.5645    0.8315  -10.9207 C   0  0  1  0  0  0  0  0  0  0  0  0
  -30.1860    1.9514  -11.7707 O   0  0  0  0  0  0  0  0  0  0  0  0
  -33.1505    2.9726   -9.1671 P   0  0  1  0  0  0  0  0  0  0  0  0
  -28.7522    2.0437  -11.7728 C   0  0  2  0  0  0  0  0  0  0  0  0
  -28.1903    5.2598  -10.5006 N   0  0  0  0  0  0  0  0  0  0  0  0
  -26.9749    0.7697  -10.8166 O   0  0  0  0  0  0  0  0  0  0  0  0
  -28.3208    1.2195  -10.6215 C   0  0  2  0  0  0  0  0  0  0  0  0
  -25.0951    6.1914  -11.9529 N   0  0  0  0  0  0  0  0  0  0  0  0
  -29.0447   -0.8016  -11.6402 O   0  0  0  0  0  0  0  0  0  0  0  0
  -29.3003    0.1405  -10.5851 C   0  0  2  0  0  0  0  0  0  0  0  0
  -27.3573    5.2551  -11.5526 C   0  0  0  0  0  0  0  0  0  0  0  0
  -26.7325    3.6263  -13.3190 N   0  0  0  0  0  0  0  0  0  0  0  0
  -32.2952    2.1370  -10.1815 O   0  0  0  0  0  0  0  0  0  0  0  0
  -31.2137    1.4026   -9.7073 C   0  0  0  0  0  0  0  0  0  0  0  0
  -34.3575    3.4719  -10.0413 O   0  0  0  0  0  0  0  0  0  0  0  0
  -28.8188    4.0692  -10.4698 C   0  0  0  0  0  0  0  0  0  0  0  0
  -26.9602    7.4518  -12.2967 O   0  0  0  0  0  0  0  0  0  0  0  0
  -26.4813    6.3684  -11.9624 C   0  0  0  0  0  0  0  0  0  0  0  0
  -27.4584    4.0467  -12.1810 C   0  0  0  0  0  0  0  0  0  0  0  0
  -33.5371    2.1138   -8.0091 O   0  5  0  0  0  0  0  0  0  0  0  0
  -32.3238    4.0003   -8.5090 O   0  0  0  0  0  0  0  0  0  0  0  0
  1 17  1  0  0  0  0
  1 20  1  0  0  0  0
  2 15  1  1  0  0  0
  2  3  1  0  0  0  0
  2 11  1  0  0  0  0
  3  5  1  0  0  0  0
  4 16  1  6  0  0  0
  4 21  1  0  0  0  0
  4 22  2  0  0  0  0
  4 14  1  0  0  0  0
  5  1  1  1  0  0  0
  5  8  1  0  0  0  0
  6 17  2  0  0  0  0
  6 12  1  0  0  0  0
  8  7  1  6  0  0  0
  8 11  1  0  0  0  0
  9 19  1  0  0  0  0
 11 10  1  6  0  0  0
 12 20  2  0  0  0  0
 12 19  1  0  0  0  0
 13 20  1  0  0  0  0
 14 15  1  0  0  0  0
 18 19  2  0  0  0  0
M  CHG  1  21  -1
M  END
>  <CHROM.1>
49.51845173,58.58066974,-172.38534489,-175.45681349,117.26242504,-29.64804148
3.03638474,-10.75632746,-0.38085714,-0.42300754,-3.09668958

>  <Name>
ligand

>  <RI>
0

>  <Rbt.Current_Directory>
/home/itssahil/PROJECTS/Mol_Feturizer/Test_systems_manuscript/rnas/4xwf

>  <Rbt.Executable>
rbdock ($Id: //depot/dev/client3/rdock/2013.1/src/exe/rbdock.cxx#4 $)

>  <Rbt.Library>
libRbt.so (2013.1, Build901 2013/11/27)

>  <Rbt.Parameter_File>
/export/apps/rDock/src/rDock_2013.1_src/data/scripts/dock_solv.prm

>  <Rbt.Receptor>
prm/pocket_docking_4.prm

>  <SCORE>
-7.19561

>  <SCORE.INTER>
-6.05047

>  <SCORE.INTER.CONST>
1

>  <SCORE.INTER.POLAR>
0

>  <SCORE.INTER.ROT>
5

>  <SCORE.INTER.SOLV>
10.8668

>  <SCORE.INTER.VDW>
-14.5893

>  <SCORE.INTER.norm>
-0.275021

>  <SCORE.INTRA>
-1.14514

>  <SCORE.INTRA.DIHEDRAL>
-1.82372

>  <SCORE.INTRA.DIHEDRAL.0>
3.49807

>  <SCORE.INTRA.POLAR>
0

>  <SCORE.INTRA.POLAR.0>
0

>  <SCORE.INTRA.REPUL>
0

>  <SCORE.INTRA.REPUL.0>
0

>  <SCORE.INTRA.SOLV>
0.15237

>  <SCORE.INTRA.SOLV.lig_0>
-73.062

>  <SCORE.INTRA.VDW>
-0.309468

>  <SCORE.INTRA.VDW.0>
-1.83782

>  <SCORE.INTRA.norm>
-0.0520519

>  <SCORE.RESTR>
0

>  <SCORE.RESTR.CAVITY>
0

>  <SCORE.RESTR.norm>
0

>  <SCORE.SYSTEM>
0

>  <SCORE.SYSTEM.CONST>
0

>  <SCORE.SYSTEM.DIHEDRAL>
0

>  <SCORE.SYSTEM.SOLV>
0

>  <SCORE.SYSTEM.norm>
0

>  <SCORE.heavy>
22

>  <SCORE.norm>
-0.327073

>  <RMSD>
6.571

$$$$
ligand
 OpenBabel02271912143D
libRbt.so/2013.1/901 2013/11/27
 22 23  0  0  0  0  0  0  0  0999 V2000
  -27.8670    3.3763  -10.0318 N   0  0  0  0  0  0  0  0  0  0  0  0
  -29.8262    1.3247  -11.8771 C   0  0  1  0  0  0  0  0  0  0  0  0
  -29.3745    2.6877  -11.6359 O   0  0  0  0  0  0  0  0  0  0  0  0
  -33.0512    1.9704  -10.0145 P   0  0  1  0  0  0  0  0  0  0  0  0
  -28.0118    2.6313  -11.1838 C   0  0  2  0  0  0  0  0  0  0  0  0
  -28.1941    4.1406   -8.0268 N   0  0  0  0  0  0  0  0  0  0  0  0
  -26.4086    0.8932  -10.8607 O   0  0  0  0  0  0  0  0  0  0  0  0
  -27.8022    1.2180  -10.7971 C   0  0  2  0  0  0  0  0  0  0  0  0
  -26.8009    6.4038   -6.7132 N   0  0  0  0  0  0  0  0  0  0  0  0
  -27.9876    0.4496  -13.0382 O   0  0  0  0  0  0  0  0  0  0  0  0
  -28.6212    0.4765  -11.7481 C   0  0  2  0  0  0  0  0  0  0  0  0
  -27.1137    4.7515   -8.5370 C   0  0  0  0  0  0  0  0  0  0  0  0
  -25.8498    4.6405  -10.6710 N   0  0  0  0  0  0  0  0  0  0  0  0
  -31.7108    2.0846  -10.8201 O   0  0  0  0  0  0  0  0  0  0  0  0
  -30.8341    1.0052  -10.8272 C   0  0  0  0  0  0  0  0  0  0  0  0
  -33.8595    0.8854  -10.8145 O   0  0  0  0  0  0  0  0  0  0  0  0
  -28.6638    3.2911   -8.9602 C   0  0  0  0  0  0  0  0  0  0  0  0
  -25.1841    6.0740   -8.2825 O   0  0  0  0  0  0  0  0  0  0  0  0
  -26.2963    5.7697   -7.8517 C   0  0  0  0  0  0  0  0  0  0  0  0
  -26.8996    4.2732   -9.7982 C   0  0  0  0  0  0  0  0  0  0  0  0
  -32.7563    1.6043   -8.5979 O   0  5  0  0  0  0  0  0  0  0  0  0
  -33.6777    3.2947   -9.8526 O   0  0  0  0  0  0  0  0  0  0  0  0
  1 17  1  0  0  0  0
  1 20  1  0  0  0  0
  2 15  1  1  0  0  0
  2  3  1  0  0  0  0
  2 11  1  0  0  0  0
  3  5  1  0  0  0  0
  4 16  1  6  0  0  0
  4 21  1  0  0  0  0
  4 22  2  0  0  0  0
  4 14  1  0  0  0  0
  5  1  1  1  0  0  0
  5  8  1  0  0  0  0
  6 17  2  0  0  0  0
  6 12  1  0  0  0  0
  8  7  1  6  0  0  0
  8 11  1  0  0  0  0
  9 19  1  0  0  0  0
 11 10  1  6  0  0  0
 12 20  2  0  0  0  0
 12 19  1  0  0  0  0
 13 20  1  0  0  0  0
 14 15  1  0  0  0  0
 18 19  2  0  0  0  0
M  CHG  1  21  -1
M  END
>  <CHROM.1>
49.05929418,48.63416063,-67.55720570,168.97149751,-15.52852823,-29.25955757
2.77528361,-10.07703445,-0.51585594,-0.17085393,-2.37778533

>  <Name>
ligand

>  <RI>
0

>  <Rbt.Current_Directory>
/home/itssahil/PROJECTS/Mol_Feturizer/Test_systems_manuscript/rnas/4xwf

>  <Rbt.Executable>
rbdock ($Id: //depot/dev/client3/rdock/2013.1/src/exe/rbdock.cxx#4 $)

>  <Rbt.Library>
libRbt.so (2013.1, Build901 2013/11/27)

>  <Rbt.Parameter_File>
/export/apps/rDock/src/rDock_2013.1_src/data/scripts/dock_solv.prm

>  <Rbt.Receptor>
prm/pocket_docking_3.prm

>  <SCORE>
-2.74076

>  <SCORE.INTER>
-2.16848

>  <SCORE.INTER.CONST>
1

>  <SCORE.INTER.POLAR>
0

>  <SCORE.INTER.ROT>
5

>  <SCORE.INTER.SOLV>
13.1371

>  <SCORE.INTER.VDW>
-12.758

>  <SCORE.INTER.norm>
-0.0985674

>  <SCORE.INTRA>
-0.572278

>  <SCORE.INTRA.DIHEDRAL>
-0.624061

>  <SCORE.INTRA.DIHEDRAL.0>
3.49807

>  <SCORE.INTRA.POLAR>
0

>  <SCORE.INTRA.POLAR.0>
0

>  <SCORE.INTRA.REPUL>
0

>  <SCORE.INTRA.REPUL.0>
0

>  <SCORE.INTRA.SOLV>
-0.578298

>  <SCORE.INTRA.SOLV.lig_0>
-73.062

>  <SCORE.INTRA.VDW>
0.0289013

>  <SCORE.INTRA.VDW.0>
-1.83782

>  <SCORE.INTRA.norm>
-0.0260126

>  <SCORE.RESTR>
0

>  <SCORE.RESTR.CAVITY>
0

>  <SCORE.RESTR.norm>
0

>  <SCORE.SYSTEM>
0

>  <SCORE.SYSTEM.CONST>
0

>  <SCORE.SYSTEM.DIHEDRAL>
0

>  <SCORE.SYSTEM.SOLV>
0

>  <SCORE.SYSTEM.norm>
0

>  <SCORE.heavy>
22

>  <SCORE.norm>
-0.12458

>  <RMSD>
6.576

$$$$
ligand
 OpenBabel02271912143D
libRbt.so/2013.1/901 2013/11/27
 22 23  0  0  0  0  0  0  0  0999 V2000
  -29.4123    3.7230  -10.0651 N   0  0  0  0  0  0  0  0  0  0  0  0
  -31.2054    0.9524  -10.8143 C   0  0  1  0  0  0  0  0  0  0  0  0
  -30.4592    2.0956  -11.3203 O   0  0  0  0  0  0  0  0  0  0  0  0
  -33.4816    3.2599   -8.8544 P   0  0  1  0  0  0  0  0  0  0  0  0
  -29.4011    2.3826  -10.3916 C   0  0  2  0  0  0  0  0  0  0  0  0
  -30.1037    5.6634   -9.3811 N   0  0  0  0  0  0  0  0  0  0  0  0
  -28.6032    1.3833   -8.3766 O   0  0  0  0  0  0  0  0  0  0  0  0
  -29.7720    1.6492   -9.1607 C   0  0  2  0  0  0  0  0  0  0  0  0
  -27.3571    7.5020  -10.7103 N   0  0  0  0  0  0  0  0  0  0  0  0
  -29.4546   -0.4726  -10.1828 O   0  0  0  0  0  0  0  0  0  0  0  0
  -30.4282    0.4475   -9.6613 C   0  0  2  0  0  0  0  0  0  0  0  0
  -28.8001    5.7654   -9.6825 C   0  0  0  0  0  0  0  0  0  0  0  0
  -27.0383    4.2209  -10.5035 N   0  0  0  0  0  0  0  0  0  0  0  0
  -32.2836    2.5439   -9.5691 O   0  0  0  0  0  0  0  0  0  0  0  0
  -32.5435    1.4545  -10.3933 C   0  0  0  0  0  0  0  0  0  0  0  0
  -34.4978    3.5152  -10.0260 O   0  0  0  0  0  0  0  0  0  0  0  0
  -30.4829    4.3945   -9.6256 C   0  0  0  0  0  0  0  0  0  0  0  0
  -27.8395    7.5490   -8.4852 O   0  0  0  0  0  0  0  0  0  0  0  0
  -27.9838    6.9886   -9.5716 C   0  0  0  0  0  0  0  0  0  0  0  0
  -28.3568    4.5468  -10.1111 C   0  0  0  0  0  0  0  0  0  0  0  0
  -34.0043    2.3917   -7.7585 O   0  5  0  0  0  0  0  0  0  0  0  0
  -33.0124    4.4363   -8.1004 O   0  0  0  0  0  0  0  0  0  0  0  0
  1 17  1  0  0  0  0
  1 20  1  0  0  0  0
  2 15  1  1  0  0  0
  2  3  1  0  0  0  0
  2 11  1  0  0  0  0
  3  5  1  0  0  0  0
  4 16  1  6  0  0  0
  4 21  1  0  0  0  0
  4 22  2  0  0  0  0
  4 14  1  0  0  0  0
  5  1  1  1  0  0  0
  5  8  1  0  0  0  0
  6 17  2  0  0  0  0
  6 12  1  0  0  0  0
  8  7  1  6  0  0  0
  8 11  1  0  0  0  0
  9 19  1  0  0  0  0
 11 10  1  6  0  0  0
 12 20  2  0  0  0  0
 12 19  1  0  0  0  0
 13 20  1  0  0  0  0
 14 15  1  0  0  0  0
 18 19  2  0  0  0  0
M  CHG  1  21  -1
M  END
>  <CHROM.1>
52.28817992,-50.82708169,-50.08710097,-175.53806401,-120.57297130,-30.54274562
3.41312704,-9.60086268,-0.69504066,-0.20961149,-2.98572943

>  <Name>
ligand

>  <RI>
0

>  <Rbt.Current_Directory>
/home/itssahil/PROJECTS/Mol_Feturizer/Test_systems_manuscript/rnas/4xwf

>  <Rbt.Executable>
rbdock ($Id: //depot/dev/client3/rdock/2013.1/src/exe/rbdock.cxx#4 $)

>  <Rbt.Library>
libRbt.so (2013.1, Build901 2013/11/27)

>  <Rbt.Parameter_File>
/export/apps/rDock/src/rDock_2013.1_src/data/scripts/dock_solv.prm

>  <Rbt.Receptor>
prm/pocket_docking_6.prm

>  <SCORE>
-7.64353

>  <SCORE.INTER>
-8.34948

>  <SCORE.INTER.CONST>
1

>  <SCORE.INTER.POLAR>
0

>  <SCORE.INTER.ROT>
5

>  <SCORE.INTER.SOLV>
12.2379

>  <SCORE.INTER.VDW>
-16.579

>  <SCORE.INTER.norm>
-0.379522

>  <SCORE.INTRA>
0.705954

>  <SCORE.INTRA.DIHEDRAL>
-1.47225

>  <SCORE.INTRA.DIHEDRAL.0>
3.49807

>  <SCORE.INTRA.POLAR>
0

>  <SCORE.INTRA.POLAR.0>
0

>  <SCORE.INTRA.REPUL>
0

>  <SCORE.INTRA.REPUL.0>
0

>  <SCORE.INTRA.SOLV>
1.3175

>  <SCORE.INTRA.SOLV.lig_0>
-73.062

>  <SCORE.INTRA.VDW>
0.783328

>  <SCORE.INTRA.VDW.0>
-1.83782

>  <SCORE.INTRA.norm>
0.0320888

>  <SCORE.RESTR>
0

>  <SCORE.RESTR.CAVITY>
0

>  <SCORE.RESTR.norm>
0

>  <SCORE.SYSTEM>
0

>  <SCORE.SYSTEM.CONST>
0

>  <SCORE.SYSTEM.DIHEDRAL>
0

>  <SCORE.SYSTEM.SOLV>
0

>  <SCORE.SYSTEM.norm>
0

>  <SCORE.heavy>
22

>  <SCORE.norm>
-0.347433

>  <RMSD>
6.581

$$$$
ligand
 OpenBabel02271912143D
libRbt.so/2013.1/901 2013/11/27
 22 23  0  0  0  0  0  0  0  0999 V2000
  -29.3955    3.7086  -10.0358 N   0  0  0  0  0  0  0  0  0  0  0  0
  -31.2044    0.9584  -10.8212 C   0  0  1  0  0  0  0  0  0  0  0  0
  -30.4405    2.0965  -11.3121 O   0  0  0  0  0  0  0  0  0  0  0  0
  -33.4842    3.2655   -8.8659 P   0  0  1  0  0  0  0  0  0  0  0  0
  -29.3926    2.3696  -10.3678 C   0  0  2  0  0  0  0  0  0  0  0  0
  -30.0875    5.6617   -9.3894 N   0  0  0  0  0  0  0  0  0  0  0  0
  -28.6320    1.3545   -8.3461 O   0  0  0  0  0  0  0  0  0  0  0  0
  -29.7874    1.6347   -9.1451 C   0  0  2  0  0  0  0  0  0  0  0  0
  -26.9244    6.9456   -8.4613 N   0  0  0  0  0  0  0  0  0  0  0  0
  -29.4761   -0.4858  -10.1716 O   0  0  0  0  0  0  0  0  0  0  0  0
  -30.4480    0.4414   -9.6598 C   0  0  2  0  0  0  0  0  0  0  0  0
  -28.7647    5.7353   -9.6026 C   0  0  0  0  0  0  0  0  0  0  0  0
  -26.9870    4.1541  -10.3122 N   0  0  0  0  0  0  0  0  0  0  0  0
  -32.2845    2.5517   -9.5798 O   0  0  0  0  0  0  0  0  0  0  0  0
  -32.5434    1.4715  -10.4165 C   0  0  0  0  0  0  0  0  0  0  0  0
  -34.4997    3.5200  -10.0383 O   0  0  0  0  0  0  0  0  0  0  0  0
  -30.4779    4.4027   -9.6653 C   0  0  0  0  0  0  0  0  0  0  0  0
  -28.1234    7.9387  -10.1232 O   0  0  0  0  0  0  0  0  0  0  0  0
  -27.9305    6.9392   -9.4312 C   0  0  0  0  0  0  0  0  0  0  0  0
  -28.3212    4.5084  -10.0070 C   0  0  0  0  0  0  0  0  0  0  0  0
  -34.0067    2.3958   -7.7711 O   0  5  0  0  0  0  0  0  0  0  0  0
  -33.0175    4.4420   -8.1106 O   0  0  0  0  0  0  0  0  0  0  0  0
  1 17  1  0  0  0  0
  1 20  1  0  0  0  0
  2 15  1  1  0  0  0
  2  3  1  0  0  0  0
  2 11  1  0  0  0  0
  3  5  1  0  0  0  0
  4 16  1  6  0  0  0
  4 21  1  0  0  0  0
  4 22  2  0  0  0  0
  4 14  1  0  0  0  0
  5  1  1  1  0  0  0
  5  8  1  0  0  0  0
  6 17  2  0  0  0  0
  6 12  1  0  0  0  0
  8  7  1  6  0  0  0
  8 11  1  0  0  0  0
  9 19  1  0  0  0  0
 11 10  1  6  0  0  0
 12 20  2  0  0  0  0
 12 19  1  0  0  0  0
 13 20  1  0  0  0  0
 14 15  1  0  0  0  0
 18 19  2  0  0  0  0
M  CHG  1  21  -1
M  END
>  <CHROM.1>
49.15551552,-51.06129268,-49.39648766,-174.89962828,116.24031778,-30.53311677
3.40010581,-9.56587237,-0.69133330,-0.16166921,-2.99337190

>  <Name>
ligand

>  <RI>
0

>  <Rbt.Current_Directory>
/home/itssahil/PROJECTS/Mol_Feturizer/Test_systems_manuscript/rnas/4xwf

>  <Rbt.Executable>
rbdock ($Id: //depot/dev/client3/rdock/2013.1/src/exe/rbdock.cxx#4 $)

>  <Rbt.Library>
libRbt.so (2013.1, Build901 2013/11/27)

>  <Rbt.Parameter_File>
/export/apps/rDock/src/rDock_2013.1_src/data/scripts/dock_solv.prm

>  <Rbt.Receptor>
prm/pocket_docking_5.prm

>  <SCORE>
-7.65738

>  <SCORE.INTER>
-8.32245

>  <SCORE.INTER.CONST>
1

>  <SCORE.INTER.POLAR>
0

>  <SCORE.INTER.ROT>
5

>  <SCORE.INTER.SOLV>
11.9594

>  <SCORE.INTER.VDW>
-16.4681

>  <SCORE.INTER.norm>
-0.378293

>  <SCORE.INTRA>
0.665068

>  <SCORE.INTRA.DIHEDRAL>
-1.43167

>  <SCORE.INTRA.DIHEDRAL.0>
3.49807

>  <SCORE.INTRA.POLAR>
0

>  <SCORE.INTRA.POLAR.0>
0

>  <SCORE.INTRA.REPUL>
0

>  <SCORE.INTRA.REPUL.0>
0

>  <SCORE.INTRA.SOLV>
1.36138

>  <SCORE.INTRA.SOLV.lig_0>
-73.062

>  <SCORE.INTRA.VDW>
0.70021

>  <SCORE.INTRA.VDW.0>
-1.83782

>  <SCORE.INTRA.norm>
0.0302304

>  <SCORE.RESTR>
0

>  <SCORE.RESTR.CAVITY>
0

>  <SCORE.RESTR.norm>
0

>  <SCORE.SYSTEM>
0

>  <SCORE.SYSTEM.CONST>
0

>  <SCORE.SYSTEM.DIHEDRAL>
0

>  <SCORE.SYSTEM.SOLV>
0

>  <SCORE.SYSTEM.norm>
0

>  <SCORE.heavy>
22

>  <SCORE.norm>
-0.348063

>  <RMSD>
6.584

$$$$
ligand
 OpenBabel02271912143D
libRbt.so/2013.1/901 2013/11/27
 22 23  0  0  0  0  0  0  0  0999 V2000
  -33.0393    3.3766   -8.0318 N   0  0  0  0  0  0  0  0  0  0  0  0
  -30.2177    1.7226   -8.9012 C   0  0  1  0  0  0  0  0  0  0  0  0
  -30.7980    2.8583   -8.1988 O   0  0  0  0  0  0  0  0  0  0  0  0
  -29.2334    1.1209  -12.5102 P   0  0  1  0  0  0  0  0  0  0  0  0
  -32.0754    2.4547   -7.6793 C   0  0  2  0  0  0  0  0  0  0  0  0
  -34.4129    4.5535   -9.2315 N   0  0  0  0  0  0  0  0  0  0  0  0
  -33.3193    0.4183   -7.6448 O   0  0  0  0  0  0  0  0  0  0  0  0
  -32.4014    1.2089   -8.4090 C   0  0  2  0  0  0  0  0  0  0  0  0
  -36.6532    5.4481   -6.6803 N   0  0  0  0  0  0  0  0  0  0  0  0
  -30.6399   -0.0037   -7.3728 O   0  0  0  0  0  0  0  0  0  0  0  0
  -31.1031    0.5753   -8.6042 C   0  0  2  0  0  0  0  0  0  0  0  0
  -34.5943    4.8822   -7.9432 C   0  0  0  0  0  0  0  0  0  0  0  0
  -33.6226    4.1706   -5.7724 N   0  0  0  0  0  0  0  0  0  0  0  0
  -29.4093    1.1015  -10.9522 O   0  0  0  0  0  0  0  0  0  0  0  0
  -30.2241    2.0560  -10.3534 C   0  0  0  0  0  0  0  0  0  0  0  0
  -30.6876    0.8450  -13.0391 O   0  0  0  0  0  0  0  0  0  0  0  0
  -33.4417    3.6221   -9.2842 C   0  0  0  0  0  0  0  0  0  0  0  0
  -35.4134    7.0730   -7.6844 O   0  0  0  0  0  0  0  0  0  0  0  0
  -35.5582    5.8762   -7.4357 C   0  0  0  0  0  0  0  0  0  0  0  0
  -33.7350    4.1430   -7.1813 C   0  0  0  0  0  0  0  0  0  0  0  0
  -28.6576    2.4310  -12.9344 O   0  5  0  0  0  0  0  0  0  0  0  0
  -28.1748    0.1843  -12.9281 O   0  0  0  0  0  0  0  0  0  0  0  0
  1 17  1  0  0  0  0
  1 20  1  0  0  0  0
  2 15  1  6  0  0  0
  2  3  1  0  0  0  0
  2 11  1  0  0  0  0
  3  5  1  0  0  0  0
  4 16  1  6  0  0  0
  4 21  1  0  0  0  0
  4 22  2  0  0  0  0
  4 14  1  0  0  0  0
  5  1  1  6  0  0  0
  5  8  1  0  0  0  0
  6 17  2  0  0  0  0
  6 12  1  0  0  0  0
  8  7  1  1  0  0  0
  8 11  1  0  0  0  0
  9 19  1  0  0  0  0
 11 10  1  1  0  0  0
 12 20  2  0  0  0  0
 12 19  1  0  0  0  0
 13 20  1  0  0  0  0
 14 15  1  0  0  0  0
 18 19  2  0  0  0  0
M  CHG  1  21  -1
M  END
>  <CHROM.1>
65.67650740,167.23615610,-62.92300705,177.66419049,111.81691558,-31.89863361
2.57630216,-9.29931524,-2.95068450,0.81596762,-0.96487174

>  <Name>
ligand

>  <RI>
0

>  <Rbt.Current_Directory>
/home/itssahil/PROJECTS/Mol_Feturizer/Test_systems_manuscript/rnas/4xwf

>  <Rbt.Executable>
rbdock ($Id: //depot/dev/client3/rdock/2013.1/src/exe/rbdock.cxx#4 $)

>  <Rbt.Library>
libRbt.so (2013.1, Build901 2013/11/27)

>  <Rbt.Parameter_File>
/export/apps/rDock/src/rDock_2013.1_src/data/scripts/dock_solv.prm

>  <Rbt.Receptor>
prm/pocket_docking_7.prm

>  <SCORE>
-8.83048

>  <SCORE.INTER>
-7.94082

>  <SCORE.INTER.CONST>
1

>  <SCORE.INTER.POLAR>
0

>  <SCORE.INTER.ROT>
5

>  <SCORE.INTER.SOLV>
14.0936

>  <SCORE.INTER.VDW>
-16.9251

>  <SCORE.INTER.norm>
-0.360947

>  <SCORE.INTRA>
-0.889653

>  <SCORE.INTRA.DIHEDRAL>
-1.30831

>  <SCORE.INTRA.DIHEDRAL.0>
3.49807

>  <SCORE.INTRA.POLAR>
0

>  <SCORE.INTRA.POLAR.0>
0

>  <SCORE.INTRA.REPUL>
0

>  <SCORE.INTRA.REPUL.0>
0

>  <SCORE.INTRA.SOLV>
-0.976181

>  <SCORE.INTRA.SOLV.lig_0>
-73.062

>  <SCORE.INTRA.VDW>
0.252593

>  <SCORE.INTRA.VDW.0>
-1.83782

>  <SCORE.INTRA.norm>
-0.0404388

>  <SCORE.RESTR>
0

>  <SCORE.RESTR.CAVITY>
0

>  <SCORE.RESTR.norm>
0

>  <SCORE.SYSTEM>
0

>  <SCORE.SYSTEM.CONST>
0

>  <SCORE.SYSTEM.DIHEDRAL>
0

>  <SCORE.SYSTEM.SOLV>
0

>  <SCORE.SYSTEM.norm>
0

>  <SCORE.heavy>
22

>  <SCORE.norm>
-0.401385

>  <RMSD>
6.585

$$$$
ligand
 OpenBabel02271912143D
libRbt.so/2013.1/901 2013/11/27
 22 23  0  0  0  0  0  0  0  0999 V2000
  -31.6921    4.8924   -8.5448 N   0  0  0  0  0  0  0  0  0  0  0  0
  -31.0573    1.7260   -9.5565 C   0  0  1  0  0  0  0  0  0  0  0  0
  -30.8903    2.7300   -8.5153 O   0  0  0  0  0  0  0  0  0  0  0  0
  -28.8327    0.8042  -12.4801 P   0  0  1  0  0  0  0  0  0  0  0  0
  -32.0607    3.5634   -8.5093 C   0  0  2  0  0  0  0  0  0  0  0  0
  -30.6203    6.7127   -9.0436 N   0  0  0  0  0  0  0  0  0  0  0  0
  -34.1269    3.5849   -9.7035 O   0  0  0  0  0  0  0  0  0  0  0  0
  -32.7305    3.2805   -9.7985 C   0  0  2  0  0  0  0  0  0  0  0  0
  -33.2918    8.8900   -8.0218 N   0  0  0  0  0  0  0  0  0  0  0  0
  -33.2691    1.0530   -9.1697 O   0  0  0  0  0  0  0  0  0  0  0  0
  -32.4525    1.8679  -10.0273 C   0  0  2  0  0  0  0  0  0  0  0  0
  -31.6568    7.0391   -8.2563 C   0  0  0  0  0  0  0  0  0  0  0  0
  -33.5064    5.8074   -7.1495 N   0  0  0  0  0  0  0  0  0  0  0  0
  -29.8963    0.8567  -11.3292 O   0  0  0  0  0  0  0  0  0  0  0  0
  -30.0813    2.0476  -10.6355 C   0  0  0  0  0  0  0  0  0  0  0  0
  -28.5216   -0.7309  -12.6118 O   0  0  0  0  0  0  0  0  0  0  0  0
  -30.6412    5.3773   -9.2163 C   0  0  0  0  0  0  0  0  0  0  0  0
  -31.1581    9.1106   -7.2574 O   0  0  0  0  0  0  0  0  0  0  0  0
  -32.0008    8.4006   -7.8060 C   0  0  0  0  0  0  0  0  0  0  0  0
  -32.3383    5.8984   -7.9405 C   0  0  0  0  0  0  0  0  0  0  0  0
  -29.3949    1.4308  -13.7126 O   0  5  0  0  0  0  0  0  0  0  0  0
  -27.6992    1.6991  -12.1850 O   0  0  0  0  0  0  0  0  0  0  0  0
  1 17  1  0  0  0  0
  1 20  1  0  0  0  0
  2 15  1  6  0  0  0
  2  3  1  0  0  0  0
  2 11  1  0  0  0  0
  3  5  1  0  0  0  0
  4 16  1  6  0  0  0
  4 21  1  0  0  0  0
  4 22  2  0  0  0  0
  4 14  1  0  0  0  0
  5  1  1  6  0  0  0
  5  8  1  0  0  0  0
  6 17  2  0  0  0  0
  6 12  1  0  0  0  0
  8  7  1  1  0  0  0
  8 11  1  0  0  0  0
  9 19  1  0  0  0  0
 11 10  1  1  0  0  0
 12 20  2  0  0  0  0
 12 19  1  0  0  0  0
 13 20  1  0  0  0  0
 14 15  1  0  0  0  0
 18 19  2  0  0  0  0
M  CHG  1  21  -1
M  END
>  <CHROM.1>
35.64007690,157.94336248,158.79740346,-175.33433061,126.55651593,-31.09277936
3.62925257,-9.83951392,2.00161294,0.52417898,0.34907886

>  <Name>
ligand

>  <RI>
0

>  <Rbt.Current_Directory>
/home/itssahil/PROJECTS/Mol_Feturizer/Test_systems_manuscript/rnas/4xwf

>  <Rbt.Executable>
rbdock ($Id: //depot/dev/client3/rdock/2013.1/src/exe/rbdock.cxx#4 $)

>  <Rbt.Library>
libRbt.so (2013.1, Build901 2013/11/27)

>  <Rbt.Parameter_File>
/export/apps/rDock/src/rDock_2013.1_src/data/scripts/dock_solv.prm

>  <Rbt.Receptor>
prm/pocket_docking_6.prm

>  <SCORE>
-7.90367

>  <SCORE.INTER>
-8.1342

>  <SCORE.INTER.CONST>
1

>  <SCORE.INTER.POLAR>
0

>  <SCORE.INTER.ROT>
5

>  <SCORE.INTER.SOLV>
13.3703

>  <SCORE.INTER.VDW>
-16.8129

>  <SCORE.INTER.norm>
-0.369737

>  <SCORE.INTRA>
0.230533

>  <SCORE.INTRA.DIHEDRAL>
0.379203

>  <SCORE.INTRA.DIHEDRAL.0>
3.49807

>  <SCORE.INTRA.POLAR>
0

>  <SCORE.INTRA.POLAR.0>
0

>  <SCORE.INTRA.REPUL>
0

>  <SCORE.INTRA.REPUL.0>
0

>  <SCORE.INTRA.SOLV>
0.48415

>  <SCORE.INTRA.SOLV.lig_0>
-73.062

>  <SCORE.INTRA.VDW>
-0.201143

>  <SCORE.INTRA.VDW.0>
-1.83782

>  <SCORE.INTRA.norm>
0.0104788

>  <SCORE.RESTR>
0

>  <SCORE.RESTR.CAVITY>
0

>  <SCORE.RESTR.norm>
0

>  <SCORE.SYSTEM>
0

>  <SCORE.SYSTEM.CONST>
0

>  <SCORE.SYSTEM.DIHEDRAL>
0

>  <SCORE.SYSTEM.SOLV>
0

>  <SCORE.SYSTEM.norm>
0

>  <SCORE.heavy>
22

>  <SCORE.norm>
-0.359258

>  <RMSD>
6.589

$$$$
ligand
 OpenBabel02271912143D
libRbt.so/2013.1/901 2013/11/27
 22 23  0  0  0  0  0  0  0  0999 V2000
  -28.1909    3.2827  -11.7683 N   0  0  0  0  0  0  0  0  0  0  0  0
  -30.2175    0.6222  -11.2512 C   0  0  1  0  0  0  0  0  0  0  0  0
  -29.9311    1.7975  -12.0615 O   0  0  0  0  0  0  0  0  0  0  0  0
  -32.9043    2.4919   -9.3431 P   0  0  1  0  0  0  0  0  0  0  0  0
  -28.5062    1.9795  -12.0931 C   0  0  2  0  0  0  0  0  0  0  0  0
  -28.1329    5.1787  -10.7135 N   0  0  0  0  0  0  0  0  0  0  0  0
  -26.6294    0.7815  -11.2338 O   0  0  0  0  0  0  0  0  0  0  0  0
  -27.9949    1.1376  -10.9883 C   0  0  2  0  0  0  0  0  0  0  0  0
  -25.0792    6.2957  -12.1816 N   0  0  0  0  0  0  0  0  0  0  0  0
  -28.6191   -0.8816  -12.0748 O   0  0  0  0  0  0  0  0  0  0  0  0
  -28.9048   -0.0013  -10.9749 C   0  0  2  0  0  0  0  0  0  0  0  0
  -27.2888    5.2521  -11.7540 C   0  0  0  0  0  0  0  0  0  0  0  0
  -26.5569    3.7164  -13.5621 N   0  0  0  0  0  0  0  0  0  0  0  0
  -31.9998    1.7945  -10.4174 O   0  0  0  0  0  0  0  0  0  0  0  0
  -30.8690    1.1012   -9.9998 C   0  0  0  0  0  0  0  0  0  0  0  0
  -33.3499    1.2999   -8.4205 O   0  0  0  0  0  0  0  0  0  0  0  0
  -28.6968    3.9559  -10.7284 C   0  0  0  0  0  0  0  0  0  0  0  0
  -26.9981    7.5105  -12.3479 O   0  0  0  0  0  0  0  0  0  0  0  0
  -26.4693    6.4232  -12.1171 C   0  0  0  0  0  0  0  0  0  0  0  0
  -27.3175    4.0608  -12.4213 C   0  0  0  0  0  0  0  0  0  0  0  0
  -32.1256    3.5576   -8.6462 O   0  5  0  0  0  0  0  0  0  0  0  0
  -33.9696    3.2796   -9.9890 O   0  0  0  0  0  0  0  0  0  0  0  0
  1 17  1  0  0  0  0
  1 20  1  0  0  0  0
  2 15  1  1  0  0  0
  2  3  1  0  0  0  0
  2 11  1  0  0  0  0
  3  5  1  0  0  0  0
  4 16  1  1  0  0  0
  4 21  1  0  0  0  0
  4 22  2  0  0  0  0
  4 14  1  0  0  0  0
  5  1  1  1  0  0  0
  5  8  1  0  0  0  0
  6 17  2  0  0  0  0
  6 12  1  0  0  0  0
  8  7  1  6  0  0  0
  8 11  1  0  0  0  0
  9 19  1  0  0  0  0
 11 10  1  6  0  0  0
 12 20  2  0  0  0  0
 12 19  1  0  0  0  0
 13 20  1  0  0  0  0
 14 15  1  0  0  0  0
 18 19  2  0  0  0  0
M  CHG  1  21  -1
M  END
>  <CHROM.1>
47.26073446,58.11321572,-59.30885197,-177.60848286,121.51685332,-29.42773573
2.86437677,-11.00666950,-0.44601949,-0.44760497,-3.07934324

>  <Name>
ligand

>  <RI>
0

>  <Rbt.Current_Directory>
/home/itssahil/PROJECTS/Mol_Feturizer/Test_systems_manuscript/rnas/4xwf

>  <Rbt.Executable>
rbdock ($Id: //depot/dev/client3/rdock/2013.1/src/exe/rbdock.cxx#4 $)

>  <Rbt.Library>
libRbt.so (2013.1, Build901 2013/11/27)

>  <Rbt.Parameter_File>
/export/apps/rDock/src/rDock_2013.1_src/data/scripts/dock_solv.prm

>  <Rbt.Receptor>
prm/pocket_docking_4.prm

>  <SCORE>
-5.48325

>  <SCORE.INTER>
-3.97763

>  <SCORE.INTER.CONST>
1

>  <SCORE.INTER.POLAR>
0

>  <SCORE.INTER.ROT>
5

>  <SCORE.INTER.SOLV>
14.505

>  <SCORE.INTER.VDW>
-14.4201

>  <SCORE.INTER.norm>
-0.180801

>  <SCORE.INTRA>
-1.50562

>  <SCORE.INTRA.DIHEDRAL>
-1.9618

>  <SCORE.INTRA.DIHEDRAL.0>
3.49807

>  <SCORE.INTRA.POLAR>
0

>  <SCORE.INTRA.POLAR.0>
0

>  <SCORE.INTRA.REPUL>
0

>  <SCORE.INTRA.REPUL.0>
0

>  <SCORE.INTRA.SOLV>
-0.425541

>  <SCORE.INTRA.SOLV.lig_0>
-73.062

>  <SCORE.INTRA.VDW>
-0.311953

>  <SCORE.INTRA.VDW.0>
-1.83782

>  <SCORE.INTRA.norm>
-0.0684373

>  <SCORE.RESTR>
0

>  <SCORE.RESTR.CAVITY>
0

>  <SCORE.RESTR.norm>
0

>  <SCORE.SYSTEM>
0

>  <SCORE.SYSTEM.CONST>
0

>  <SCORE.SYSTEM.DIHEDRAL>
0

>  <SCORE.SYSTEM.SOLV>
0

>  <SCORE.SYSTEM.norm>
0

>  <SCORE.heavy>
22

>  <SCORE.norm>
-0.249239

>  <RMSD>
6.594

$$$$
ligand
 OpenBabel02271912143D
libRbt.so/2013.1/901 2013/11/27
 22 23  0  0  0  0  0  0  0  0999 V2000
  -29.4023    3.7126  -10.0620 N   0  0  0  0  0  0  0  0  0  0  0  0
  -31.2075    0.9651  -10.8652 C   0  0  1  0  0  0  0  0  0  0  0  0
  -30.4420    2.1054  -11.3487 O   0  0  0  0  0  0  0  0  0  0  0  0
  -33.5005    3.2291   -8.8734 P   0  0  1  0  0  0  0  0  0  0  0  0
  -29.3978    2.3749  -10.3993 C   0  0  2  0  0  0  0  0  0  0  0  0
  -30.0913    5.6571   -9.3870 N   0  0  0  0  0  0  0  0  0  0  0  0
  -28.6448    1.3519   -8.3788 O   0  0  0  0  0  0  0  0  0  0  0  0
  -29.7971    1.6351   -9.1811 C   0  0  2  0  0  0  0  0  0  0  0  0
  -26.8860    6.9509   -8.5807 N   0  0  0  0  0  0  0  0  0  0  0  0
  -29.4814   -0.4813  -10.2148 O   0  0  0  0  0  0  0  0  0  0  0  0
  -30.4555    0.4437   -9.7030 C   0  0  2  0  0  0  0  0  0  0  0  0
  -28.7763    5.7431   -9.6401 C   0  0  0  0  0  0  0  0  0  0  0  0
  -27.0074    4.1804  -10.4098 N   0  0  0  0  0  0  0  0  0  0  0  0
  -32.2933    2.5126   -9.5720 O   0  0  0  0  0  0  0  0  0  0  0  0
  -32.5482    1.4764  -10.4636 C   0  0  0  0  0  0  0  0  0  0  0  0
  -33.9596    2.1860   -7.7910 O   0  0  0  0  0  0  0  0  0  0  0  0
  -30.4789    4.3957   -9.6559 C   0  0  0  0  0  0  0  0  0  0  0  0
  -28.1933    7.9664  -10.1444 O   0  0  0  0  0  0  0  0  0  0  0  0
  -27.9478    6.9537   -9.4893 C   0  0  0  0  0  0  0  0  0  0  0  0
  -28.3346    4.5218  -10.0627 C   0  0  0  0  0  0  0  0  0  0  0  0
  -33.0537    4.5413   -8.3197 O   0  5  0  0  0  0  0  0  0  0  0  0
  -34.5021    3.6543   -9.8678 O   0  0  0  0  0  0  0  0  0  0  0  0
  1 17  1  0  0  0  0
  1 20  1  0  0  0  0
  2 15  1  1  0  0  0
  2  3  1  0  0  0  0
  2 11  1  0  0  0  0
  3  5  1  0  0  0  0
  4 16  1  1  0  0  0
  4 21  1  0  0  0  0
  4 22  2  0  0  0  0
  4 14  1  0  0  0  0
  5  1  1  1  0  0  0
  5  8  1  0  0  0  0
  6 17  2  0  0  0  0
  6 12  1  0  0  0  0
  8  7  1  6  0  0  0
  8 11  1  0  0  0  0
  9 19  1  0  0  0  0
 11 10  1  6  0  0  0
 12 20  2  0  0  0  0
 12 19  1  0  0  0  0
 13 20  1  0  0  0  0
 14 15  1  0  0  0  0
 18 19  2  0  0  0  0
M  CHG  1  21  -1
M  END
>  <CHROM.1>
51.18101255,-53.80467008,75.21463936,-176.24562020,118.25575535,-30.54150241
3.40097629,-9.59910157,-0.69965157,-0.16921429,-3.00196568

>  <Name>
ligand

>  <RI>
0

>  <Rbt.Current_Directory>
/home/itssahil/PROJECTS/Mol_Feturizer/Test_systems_manuscript/rnas/4xwf

>  <Rbt.Executable>
rbdock ($Id: //depot/dev/client3/rdock/2013.1/src/exe/rbdock.cxx#4 $)

>  <Rbt.Library>
libRbt.so (2013.1, Build901 2013/11/27)

>  <Rbt.Parameter_File>
/export/apps/rDock/src/rDock_2013.1_src/data/scripts/dock_solv.prm

>  <Rbt.Receptor>
prm/pocket_docking_4.prm

>  <SCORE>
-5.60413

>  <SCORE.INTER>
-6.02834

>  <SCORE.INTER.CONST>
1

>  <SCORE.INTER.POLAR>
0

>  <SCORE.INTER.ROT>
5

>  <SCORE.INTER.SOLV>
17.3609

>  <SCORE.INTER.VDW>
-16.7392

>  <SCORE.INTER.norm>
-0.274016

>  <SCORE.INTRA>
0.424217

>  <SCORE.INTRA.DIHEDRAL>
-1.48092

>  <SCORE.INTRA.DIHEDRAL.0>
3.49807

>  <SCORE.INTRA.POLAR>
0

>  <SCORE.INTRA.POLAR.0>
0

>  <SCORE.INTRA.REPUL>
0

>  <SCORE.INTRA.REPUL.0>
0

>  <SCORE.INTRA.SOLV>
1.26927

>  <SCORE.INTRA.SOLV.lig_0>
-73.062

>  <SCORE.INTRA.VDW>
0.530043

>  <SCORE.INTRA.VDW.0>
-1.83782

>  <SCORE.INTRA.norm>
0.0192826

>  <SCORE.RESTR>
0

>  <SCORE.RESTR.CAVITY>
0

>  <SCORE.RESTR.norm>
0

>  <SCORE.SYSTEM>
0

>  <SCORE.SYSTEM.CONST>
0

>  <SCORE.SYSTEM.DIHEDRAL>
0

>  <SCORE.SYSTEM.SOLV>
0

>  <SCORE.SYSTEM.norm>
0

>  <SCORE.heavy>
22

>  <SCORE.norm>
-0.254733

>  <RMSD>
6.598

$$$$
ligand
 OpenBabel02271912143D
libRbt.so/2013.1/901 2013/11/27
 22 23  0  0  0  0  0  0  0  0999 V2000
  -28.1826    3.2686  -11.8479 N   0  0  0  0  0  0  0  0  0  0  0  0
  -30.2191    0.6187  -11.3155 C   0  0  1  0  0  0  0  0  0  0  0  0
  -29.9376    1.7974  -12.1226 O   0  0  0  0  0  0  0  0  0  0  0  0
  -32.8756    2.4727   -9.3504 P   0  0  1  0  0  0  0  0  0  0  0  0
  -28.5122    1.9698  -12.1762 C   0  0  2  0  0  0  0  0  0  0  0  0
  -28.0915    5.1559  -10.7798 N   0  0  0  0  0  0  0  0  0  0  0  0
  -26.6302    0.7532  -11.3554 O   0  0  0  0  0  0  0  0  0  0  0  0
  -27.9890    1.1171  -11.0854 C   0  0  2  0  0  0  0  0  0  0  0  0
  -25.0577    6.2898  -12.2210 N   0  0  0  0  0  0  0  0  0  0  0  0
  -28.6447   -0.8905  -12.1749 O   0  0  0  0  0  0  0  0  0  0  0  0
  -28.9064   -0.0156  -11.0647 C   0  0  2  0  0  0  0  0  0  0  0  0
  -27.2690    5.2328  -11.8373 C   0  0  0  0  0  0  0  0  0  0  0  0
  -26.5844    3.7074  -13.6724 N   0  0  0  0  0  0  0  0  0  0  0  0
  -31.9872    1.7853  -10.4444 O   0  0  0  0  0  0  0  0  0  0  0  0
  -30.8468    1.0938  -10.0505 C   0  0  0  0  0  0  0  0  0  0  0  0
  -33.2918    1.2752   -8.4214 O   0  0  0  0  0  0  0  0  0  0  0  0
  -28.6626    3.9364  -10.7923 C   0  0  0  0  0  0  0  0  0  0  0  0
  -26.9833    7.4751  -12.4914 O   0  0  0  0  0  0  0  0  0  0  0  0
  -26.4507    6.4021  -12.2084 C   0  0  0  0  0  0  0  0  0  0  0  0
  -27.3187    4.0470  -12.5131 C   0  0  0  0  0  0  0  0  0  0  0  0
  -32.0923    3.5441   -8.6674 O   0  5  0  0  0  0  0  0  0  0  0  0
  -33.9609    3.2522   -9.9729 O   0  0  0  0  0  0  0  0  0  0  0  0
  1 17  1  0  0  0  0
  1 20  1  0  0  0  0
  2 15  1  1  0  0  0
  2  3  1  0  0  0  0
  2 11  1  0  0  0  0
  3  5  1  0  0  0  0
  4 16  1  1  0  0  0
  4 21  1  0  0  0  0
  4 22  2  0  0  0  0
  4 14  1  0  0  0  0
  5  1  1  1  0  0  0
  5  8  1  0  0  0  0
  6 17  2  0  0  0  0
  6 12  1  0  0  0  0
  8  7  1  6  0  0  0
  8 11  1  0  0  0  0
  9 19  1  0  0  0  0
 11 10  1  6  0  0  0
 12 20  2  0  0  0  0
 12 19  1  0  0  0  0
 13 20  1  0  0  0  0
 14 15  1  0  0  0  0
 18 19  2  0  0  0  0
M  CHG  1  21  -1
M  END
>  <CHROM.1>
47.55699770,58.73281035,-58.88116599,-177.90139261,117.48736452,-29.41515595
2.84828480,-11.06971075,-0.44005014,-0.46239222,-3.07125983

>  <Name>
ligand

>  <RI>
0

>  <Rbt.Current_Directory>
/home/itssahil/PROJECTS/Mol_Feturizer/Test_systems_manuscript/rnas/4xwf

>  <Rbt.Executable>
rbdock ($Id: //depot/dev/client3/rdock/2013.1/src/exe/rbdock.cxx#4 $)

>  <Rbt.Library>
libRbt.so (2013.1, Build901 2013/11/27)

>  <Rbt.Parameter_File>
/export/apps/rDock/src/rDock_2013.1_src/data/scripts/dock_solv.prm

>  <Rbt.Receptor>
prm/pocket_docking_4.prm

>  <SCORE>
-5.53817

>  <SCORE.INTER>
-4.00381

>  <SCORE.INTER.CONST>
1

>  <SCORE.INTER.POLAR>
0

>  <SCORE.INTER.ROT>
5

>  <SCORE.INTER.SOLV>
14.4926

>  <SCORE.INTER.VDW>
-14.4334

>  <SCORE.INTER.norm>
-0.181991

>  <SCORE.INTRA>
-1.53435

>  <SCORE.INTRA.DIHEDRAL>
-1.97389

>  <SCORE.INTRA.DIHEDRAL.0>
3.49807

>  <SCORE.INTRA.POLAR>
0

>  <SCORE.INTRA.POLAR.0>
0

>  <SCORE.INTRA.REPUL>
0

>  <SCORE.INTRA.REPUL.0>
0

>  <SCORE.INTRA.SOLV>
-0.475935

>  <SCORE.INTRA.SOLV.lig_0>
-73.062

>  <SCORE.INTRA.VDW>
-0.30944

>  <SCORE.INTRA.VDW.0>
-1.83782

>  <SCORE.INTRA.norm>
-0.0697434

>  <SCORE.RESTR>
0

>  <SCORE.RESTR.CAVITY>
0

>  <SCORE.RESTR.norm>
0

>  <SCORE.SYSTEM>
0

>  <SCORE.SYSTEM.CONST>
0

>  <SCORE.SYSTEM.DIHEDRAL>
0

>  <SCORE.SYSTEM.SOLV>
0

>  <SCORE.SYSTEM.norm>
0

>  <SCORE.heavy>
22

>  <SCORE.norm>
-0.251735

>  <RMSD>
6.599

$$$$
ligand
 OpenBabel02271912143D
libRbt.so/2013.1/901 2013/11/27
 22 23  0  0  0  0  0  0  0  0999 V2000
  -28.4314    2.9815  -14.0828 N   0  0  0  0  0  0  0  0  0  0  0  0
  -29.5439    0.4630  -12.1149 C   0  0  1  0  0  0  0  0  0  0  0  0
  -29.8064    1.3221  -13.2607 O   0  0  0  0  0  0  0  0  0  0  0  0
  -31.8104    2.4616   -9.8285 P   0  0  1  0  0  0  0  0  0  0  0  0
  -28.5498    1.6205  -13.8901 C   0  0  2  0  0  0  0  0  0  0  0  0
  -28.1765    5.0979  -13.6744 N   0  0  0  0  0  0  0  0  0  0  0  0
  -26.2825    0.9666  -13.5326 O   0  0  0  0  0  0  0  0  0  0  0  0
  -27.5284    1.2499  -12.8851 C   0  0  2  0  0  0  0  0  0  0  0  0
  -27.1456    5.9941  -16.9565 N   0  0  0  0  0  0  0  0  0  0  0  0
  -28.0324   -1.0667  -13.0476 O   0  0  0  0  0  0  0  0  0  0  0  0
  -28.1134    0.0983  -12.2093 C   0  0  2  0  0  0  0  0  0  0  0  0
  -28.2492    4.9336  -15.0042 C   0  0  0  0  0  0  0  0  0  0  0  0
  -28.5022    3.0047  -16.5465 N   0  0  0  0  0  0  0  0  0  0  0  0
  -31.1728    1.5924  -10.9672 O   0  0  0  0  0  0  0  0  0  0  0  0
  -29.8230    1.2669  -10.8918 C   0  0  0  0  0  0  0  0  0  0  0  0
  -33.3186    2.5663  -10.2586 O   0  0  0  0  0  0  0  0  0  0  0  0
  -28.2962    3.8839  -13.1040 C   0  0  0  0  0  0  0  0  0  0  0  0
  -28.9978    6.9236  -16.0124 O   0  0  0  0  0  0  0  0  0  0  0  0
  -28.1738    6.0092  -16.0102 C   0  0  0  0  0  0  0  0  0  0  0  0
  -28.4067    3.6030  -15.2692 C   0  0  0  0  0  0  0  0  0  0  0  0
  -31.5866    1.8023   -8.5082 O   0  5  0  0  0  0  0  0  0  0  0  0
  -31.0687    3.7238   -9.6573 O   0  0  0  0  0  0  0  0  0  0  0  0
  1 17  1  0  0  0  0
  1 20  1  0  0  0  0
  2 15  1  1  0  0  0
  2  3  1  0  0  0  0
  2 11  1  0  0  0  0
  3  5  1  0  0  0  0
  4 16  1  6  0  0  0
  4 21  1  0  0  0  0
  4 22  2  0  0  0  0
  4 14  1  0  0  0  0
  5  1  1  1  0  0  0
  5  8  1  0  0  0  0
  6 17  2  0  0  0  0
  6 12  1  0  0  0  0
  8  7  1  6  0  0  0
  8 11  1  0  0  0  0
  9 19  1  0  0  0  0
 11 10  1  6  0  0  0
 12 20  2  0  0  0  0
 12 19  1  0  0  0  0
 13 20  1  0  0  0  0
 14 15  1  0  0  0  0
 18 19  2  0  0  0  0
M  CHG  1  21  -1
M  END
>  <CHROM.1>
68.14919049,61.96804734,-178.49655487,-179.40043898,119.25099773,-29.34756328
2.68739128,-12.81413392,-0.83099496,-0.79749244,2.63070895

>  <Name>
ligand

>  <RI>
0

>  <Rbt.Current_Directory>
/home/itssahil/PROJECTS/Mol_Feturizer/Test_systems_manuscript/rnas/4xwf

>  <Rbt.Executable>
rbdock ($Id: //depot/dev/client3/rdock/2013.1/src/exe/rbdock.cxx#4 $)

>  <Rbt.Library>
libRbt.so (2013.1, Build901 2013/11/27)

>  <Rbt.Parameter_File>
/export/apps/rDock/src/rDock_2013.1_src/data/scripts/dock_solv.prm

>  <Rbt.Receptor>
prm/pocket_docking_5.prm

>  <SCORE>
-7.81098

>  <SCORE.INTER>
-6.8976

>  <SCORE.INTER.CONST>
1

>  <SCORE.INTER.POLAR>
0

>  <SCORE.INTER.ROT>
5

>  <SCORE.INTER.SOLV>
11.9417

>  <SCORE.INTER.VDW>
-15.5123

>  <SCORE.INTER.norm>
-0.313527

>  <SCORE.INTRA>
-0.913379

>  <SCORE.INTRA.DIHEDRAL>
-1.94223

>  <SCORE.INTRA.DIHEDRAL.0>
3.49807

>  <SCORE.INTRA.POLAR>
0

>  <SCORE.INTRA.POLAR.0>
0

>  <SCORE.INTRA.REPUL>
0

>  <SCORE.INTRA.REPUL.0>
0

>  <SCORE.INTRA.SOLV>
-0.351982

>  <SCORE.INTRA.SOLV.lig_0>
-73.062

>  <SCORE.INTRA.VDW>
0.233727

>  <SCORE.INTRA.VDW.0>
-1.83782

>  <SCORE.INTRA.norm>
-0.0415172

>  <SCORE.RESTR>
0

>  <SCORE.RESTR.CAVITY>
0

>  <SCORE.RESTR.norm>
0

>  <SCORE.SYSTEM>
0

>  <SCORE.SYSTEM.CONST>
0

>  <SCORE.SYSTEM.DIHEDRAL>
0

>  <SCORE.SYSTEM.SOLV>
0

>  <SCORE.SYSTEM.norm>
0

>  <SCORE.heavy>
22

>  <SCORE.norm>
-0.355044

>  <RMSD>
6.606

$$$$
ligand
 OpenBabel02271912143D
libRbt.so/2013.1/901 2013/11/27
 22 23  0  0  0  0  0  0  0  0999 V2000
  -28.3753    2.8620  -13.7167 N   0  0  0  0  0  0  0  0  0  0  0  0
  -29.7485    0.3791  -11.8723 C   0  0  1  0  0  0  0  0  0  0  0  0
  -29.8772    1.2516  -13.0308 O   0  0  0  0  0  0  0  0  0  0  0  0
  -32.1334    2.4530   -9.7819 P   0  0  1  0  0  0  0  0  0  0  0  0
  -28.5599    1.5057  -13.5448 C   0  0  2  0  0  0  0  0  0  0  0  0
  -28.0920    4.9676  -13.2726 N   0  0  0  0  0  0  0  0  0  0  0  0
  -26.3585    0.7670  -12.9933 O   0  0  0  0  0  0  0  0  0  0  0  0
  -27.6455    1.0938  -12.4562 C   0  0  2  0  0  0  0  0  0  0  0  0
  -28.8397    6.2172  -16.4783 N   0  0  0  0  0  0  0  0  0  0  0  0
  -28.2174   -1.2020  -12.6787 O   0  0  0  0  0  0  0  0  0  0  0  0
  -28.3296   -0.0380  -11.8428 C   0  0  2  0  0  0  0  0  0  0  0  0
  -28.0308    4.8082  -14.6036 C   0  0  0  0  0  0  0  0  0  0  0  0
  -28.1873    2.8919  -16.1743 N   0  0  0  0  0  0  0  0  0  0  0  0
  -31.4324    1.5577  -10.8616 O   0  0  0  0  0  0  0  0  0  0  0  0
  -30.1051    1.1881  -10.6730 C   0  0  0  0  0  0  0  0  0  0  0  0
  -33.6159    2.5414  -10.2964 O   0  0  0  0  0  0  0  0  0  0  0  0
  -28.3122    3.7574  -12.7244 C   0  0  0  0  0  0  0  0  0  0  0  0
  -26.7352    6.4726  -15.6468 O   0  0  0  0  0  0  0  0  0  0  0  0
  -27.8138    5.8823  -15.5905 C   0  0  0  0  0  0  0  0  0  0  0  0
  -28.2053    3.4844  -14.8908 C   0  0  0  0  0  0  0  0  0  0  0  0
  -31.9809    1.8279   -8.4351 O   0  5  0  0  0  0  0  0  0  0  0  0
  -31.4050    3.7217   -9.6023 O   0  0  0  0  0  0  0  0  0  0  0  0
  1 17  1  0  0  0  0
  1 20  1  0  0  0  0
  2 15  1  1  0  0  0
  2  3  1  0  0  0  0
  2 11  1  0  0  0  0
  3  5  1  0  0  0  0
  4 16  1  6  0  0  0
  4 21  1  0  0  0  0
  4 22  2  0  0  0  0
  4 14  1  0  0  0  0
  5  1  1  1  0  0  0
  5  8  1  0  0  0  0
  6 17  2  0  0  0  0
  6 12  1  0  0  0  0
  8  7  1  6  0  0  0
  8 11  1  0  0  0  0
  9 19  1  0  0  0  0
 11 10  1  6  0  0  0
 12 20  2  0  0  0  0
 12 19  1  0  0  0  0
 13 20  1  0  0  0  0
 14 15  1  0  0  0  0
 18 19  2  0  0  0  0
M  CHG  1  21  -1
M  END
>  <CHROM.1>
67.20293610,62.26920463,-175.56901390,-178.94614321,-113.43587194,-29.40521347
2.59632615,-12.53663827,-0.73497267,-0.73024205,2.70566502

>  <Name>
ligand

>  <RI>
0

>  <Rbt.Current_Directory>
/home/itssahil/PROJECTS/Mol_Feturizer/Test_systems_manuscript/rnas/4xwf

>  <Rbt.Executable>
rbdock ($Id: //depot/dev/client3/rdock/2013.1/src/exe/rbdock.cxx#4 $)

>  <Rbt.Library>
libRbt.so (2013.1, Build901 2013/11/27)

>  <Rbt.Parameter_File>
/export/apps/rDock/src/rDock_2013.1_src/data/scripts/dock_solv.prm

>  <Rbt.Receptor>
prm/pocket_docking_7.prm

>  <SCORE>
-7.67477

>  <SCORE.INTER>
-6.75401

>  <SCORE.INTER.CONST>
1

>  <SCORE.INTER.POLAR>
0

>  <SCORE.INTER.ROT>
5

>  <SCORE.INTER.SOLV>
12.1368

>  <SCORE.INTER.VDW>
-15.4816

>  <SCORE.INTER.norm>
-0.307

>  <SCORE.INTRA>
-0.920762

>  <SCORE.INTRA.DIHEDRAL>
-1.86408

>  <SCORE.INTRA.DIHEDRAL.0>
3.49807

>  <SCORE.INTRA.POLAR>
0

>  <SCORE.INTRA.POLAR.0>
0

>  <SCORE.INTRA.REPUL>
0

>  <SCORE.INTRA.REPUL.0>
0

>  <SCORE.INTRA.SOLV>
-0.358262

>  <SCORE.INTRA.SOLV.lig_0>
-73.062

>  <SCORE.INTRA.VDW>
0.190409

>  <SCORE.INTRA.VDW.0>
-1.83782

>  <SCORE.INTRA.norm>
-0.0418528

>  <SCORE.RESTR>
0

>  <SCORE.RESTR.CAVITY>
0

>  <SCORE.RESTR.norm>
0

>  <SCORE.SYSTEM>
0

>  <SCORE.SYSTEM.CONST>
0

>  <SCORE.SYSTEM.DIHEDRAL>
0

>  <SCORE.SYSTEM.SOLV>
0

>  <SCORE.SYSTEM.norm>
0

>  <SCORE.heavy>
22

>  <SCORE.norm>
-0.348853

>  <RMSD>
6.612

$$$$
ligand
 OpenBabel02271912143D
libRbt.so/2013.1/901 2013/11/27
 22 23  0  0  0  0  0  0  0  0999 V2000
  -28.4751    2.9747  -14.0214 N   0  0  0  0  0  0  0  0  0  0  0  0
  -28.7691    5.6551  -16.0663 C   0  0  1  0  0  0  0  0  0  0  0  0
  -28.9309    5.1251  -14.7199 O   0  0  0  0  0  0  0  0  0  0  0  0
  -32.4753    5.2944  -16.7683 P   0  0  1  0  0  0  0  0  0  0  0  0
  -27.9104    4.1367  -14.5053 C   0  0  2  0  0  0  0  0  0  0  0  0
  -29.6057    1.1241  -13.9325 N   0  0  0  0  0  0  0  0  0  0  0  0
  -26.0673    3.3068  -15.7741 O   0  0  0  0  0  0  0  0  0  0  0  0
  -27.4011    3.8221  -15.8589 C   0  0  2  0  0  0  0  0  0  0  0  0
  -29.5977    0.8784  -10.3789 N   0  0  0  0  0  0  0  0  0  0  0  0
  -26.4490    5.9817  -16.1359 O   0  0  0  0  0  0  0  0  0  0  0  0
  -27.4947    5.0938  -16.5654 C   0  0  2  0  0  0  0  0  0  0  0  0
  -28.9991    1.3017  -12.7488 C   0  0  0  0  0  0  0  0  0  0  0  0
  -27.4814    3.0028  -11.7658 N   0  0  0  0  0  0  0  0  0  0  0  0
  -31.0562    5.6147  -16.1833 O   0  0  0  0  0  0  0  0  0  0  0  0
  -29.9291    5.1744  -16.8685 C   0  0  0  0  0  0  0  0  0  0  0  0
  -33.3096    4.9059  -15.4941 O   0  0  0  0  0  0  0  0  0  0  0  0
  -29.2833    2.1683  -14.7193 C   0  0  0  0  0  0  0  0  0  0  0  0
  -28.7152   -0.7729  -11.6751 O   0  0  0  0  0  0  0  0  0  0  0  0
  -29.0921    0.3957  -11.5890 C   0  0  0  0  0  0  0  0  0  0  0  0
  -28.2827    2.4635  -12.7981 C   0  0  0  0  0  0  0  0  0  0  0  0
  -32.9927    6.4819  -17.5098 O   0  5  0  0  0  0  0  0  0  0  0  0
  -32.3824    4.2920  -17.8450 O   0  0  0  0  0  0  0  0  0  0  0  0
  1 17  1  0  0  0  0
  1 20  1  0  0  0  0
  2 15  1  6  0  0  0
  2  3  1  0  0  0  0
  2 11  1  0  0  0  0
  3  5  1  0  0  0  0
  4 16  1  1  0  0  0
  4 21  1  0  0  0  0
  4 22  2  0  0  0  0
  4 14  1  0  0  0  0
  5  1  1  6  0  0  0
  5  8  1  0  0  0  0
  6 17  2  0  0  0  0
  6 12  1  0  0  0  0
  8  7  1  1  0  0  0
  8 11  1  0  0  0  0
  9 19  1  0  0  0  0
 11 10  1  1  0  0  0
 12 20  2  0  0  0  0
 12 19  1  0  0  0  0
 13 20  1  0  0  0  0
 14 15  1  0  0  0  0
 18 19  2  0  0  0  0
M  CHG  1  21  -1
M  END
>  <CHROM.1>
68.11900540,56.57352800,138.80348602,179.20991938,-120.50810700,-29.52754554
3.72743995,-14.90540437,-1.10141717,-0.07152049,-0.78585665

>  <Name>
ligand

>  <RI>
0

>  <Rbt.Current_Directory>
/home/itssahil/PROJECTS/Mol_Feturizer/Test_systems_manuscript/rnas/4xwf

>  <Rbt.Executable>
rbdock ($Id: //depot/dev/client3/rdock/2013.1/src/exe/rbdock.cxx#4 $)

>  <Rbt.Library>
libRbt.so (2013.1, Build901 2013/11/27)

>  <Rbt.Parameter_File>
/export/apps/rDock/src/rDock_2013.1_src/data/scripts/dock_solv.prm

>  <Rbt.Receptor>
prm/pocket_docking_7.prm

>  <SCORE>
-9.46155

>  <SCORE.INTER>
-9.9166

>  <SCORE.INTER.CONST>
1

>  <SCORE.INTER.POLAR>
0

>  <SCORE.INTER.ROT>
5

>  <SCORE.INTER.SOLV>
12.0823

>  <SCORE.INTER.VDW>
-17.5718

>  <SCORE.INTER.norm>
-0.450754

>  <SCORE.INTRA>
0.45505

>  <SCORE.INTRA.DIHEDRAL>
-0.0295614

>  <SCORE.INTRA.DIHEDRAL.0>
3.49807

>  <SCORE.INTRA.POLAR>
0

>  <SCORE.INTRA.POLAR.0>
0

>  <SCORE.INTRA.REPUL>
0

>  <SCORE.INTRA.REPUL.0>
0

>  <SCORE.INTRA.SOLV>
-0.429255

>  <SCORE.INTRA.SOLV.lig_0>
-73.062

>  <SCORE.INTRA.VDW>
0.684458

>  <SCORE.INTRA.VDW.0>
-1.83782

>  <SCORE.INTRA.norm>
0.0206841

>  <SCORE.RESTR>
0

>  <SCORE.RESTR.CAVITY>
0

>  <SCORE.RESTR.norm>
0

>  <SCORE.SYSTEM>
0

>  <SCORE.SYSTEM.CONST>
0

>  <SCORE.SYSTEM.DIHEDRAL>
0

>  <SCORE.SYSTEM.SOLV>
0

>  <SCORE.SYSTEM.norm>
0

>  <SCORE.heavy>
22

>  <SCORE.norm>
-0.43007

>  <RMSD>
6.625

$$$$
ligand
 OpenBabel02271912143D
libRbt.so/2013.1/901 2013/11/27
 22 23  0  0  0  0  0  0  0  0999 V2000
  -28.3674    2.8516  -13.6821 N   0  0  0  0  0  0  0  0  0  0  0  0
  -29.8076    0.4181  -11.8229 C   0  0  1  0  0  0  0  0  0  0  0  0
  -29.9046    1.2748  -12.9962 O   0  0  0  0  0  0  0  0  0  0  0  0
  -32.2151    2.5029   -9.7708 P   0  0  1  0  0  0  0  0  0  0  0  0
  -28.5755    1.5010  -13.4929 C   0  0  2  0  0  0  0  0  0  0  0  0
  -28.0610    4.9595  -13.2650 N   0  0  0  0  0  0  0  0  0  0  0  0
  -26.3948    0.7373  -12.8955 O   0  0  0  0  0  0  0  0  0  0  0  0
  -27.6849    1.0918  -12.3839 C   0  0  2  0  0  0  0  0  0  0  0  0
  -28.7191    6.1522  -16.5195 N   0  0  0  0  0  0  0  0  0  0  0  0
  -28.2886   -1.1982  -12.5813 O   0  0  0  0  0  0  0  0  0  0  0  0
  -28.3959   -0.0201  -11.7646 C   0  0  2  0  0  0  0  0  0  0  0  0
  -27.9767    4.7784  -14.5919 C   0  0  0  0  0  0  0  0  0  0  0  0
  -28.1318    2.8402  -16.1356 N   0  0  0  0  0  0  0  0  0  0  0  0
  -31.5140    1.5651  -10.8137 O   0  0  0  0  0  0  0  0  0  0  0  0
  -30.1704    1.2505  -10.6416 C   0  0  0  0  0  0  0  0  0  0  0  0
  -33.7111    2.5207  -10.2528 O   0  0  0  0  0  0  0  0  0  0  0  0
  -28.3099    3.7614  -12.7026 C   0  0  0  0  0  0  0  0  0  0  0  0
  -26.6440    6.4221  -15.6211 O   0  0  0  0  0  0  0  0  0  0  0  0
  -27.7247    5.8335  -15.5907 C   0  0  0  0  0  0  0  0  0  0  0  0
  -28.1655    3.4529  -14.8620 C   0  0  0  0  0  0  0  0  0  0  0  0
  -32.0137    1.9625   -8.3941 O   0  5  0  0  0  0  0  0  0  0  0  0
  -31.5193    3.7994   -9.6835 O   0  0  0  0  0  0  0  0  0  0  0  0
  1 17  1  0  0  0  0
  1 20  1  0  0  0  0
  2 15  1  1  0  0  0
  2  3  1  0  0  0  0
  2 11  1  0  0  0  0
  3  5  1  0  0  0  0
  4 16  1  6  0  0  0
  4 21  1  0  0  0  0
  4 22  2  0  0  0  0
  4 14  1  0  0  0  0
  5  1  1  1  0  0  0
  5  8  1  0  0  0  0
  6 17  2  0  0  0  0
  6 12  1  0  0  0  0
  8  7  1  6  0  0  0
  8 11  1  0  0  0  0
  9 19  1  0  0  0  0
 11 10  1  6  0  0  0
 12 20  2  0  0  0  0
 12 19  1  0  0  0  0
 13 20  1  0  0  0  0
 14 15  1  0  0  0  0
 18 19  2  0  0  0  0
M  CHG  1  21  -1
M  END
>  <CHROM.1>
66.99714546,66.02436437,-175.98600242,-177.09922118,-114.62738634,-29.42476524
2.60314209,-12.50542047,-0.70823591,-0.72102286,2.71096289

>  <Name>
ligand

>  <RI>
0

>  <Rbt.Current_Directory>
/home/itssahil/PROJECTS/Mol_Feturizer/Test_systems_manuscript/rnas/4xwf

>  <Rbt.Executable>
rbdock ($Id: //depot/dev/client3/rdock/2013.1/src/exe/rbdock.cxx#4 $)

>  <Rbt.Library>
libRbt.so (2013.1, Build901 2013/11/27)

>  <Rbt.Parameter_File>
/export/apps/rDock/src/rDock_2013.1_src/data/scripts/dock_solv.prm

>  <Rbt.Receptor>
prm/pocket_docking_7.prm

>  <SCORE>
-7.68851

>  <SCORE.INTER>
-6.82947

>  <SCORE.INTER.CONST>
1

>  <SCORE.INTER.POLAR>
0

>  <SCORE.INTER.ROT>
5

>  <SCORE.INTER.SOLV>
12.5404

>  <SCORE.INTER.VDW>
-15.6665

>  <SCORE.INTER.norm>
-0.310431

>  <SCORE.INTRA>
-0.859036

>  <SCORE.INTRA.DIHEDRAL>
-1.73458

>  <SCORE.INTRA.DIHEDRAL.0>
3.49807

>  <SCORE.INTRA.POLAR>
0

>  <SCORE.INTRA.POLAR.0>
0

>  <SCORE.INTRA.REPUL>
0

>  <SCORE.INTRA.REPUL.0>
0

>  <SCORE.INTRA.SOLV>
-0.354577

>  <SCORE.INTRA.SOLV.lig_0>
-73.062

>  <SCORE.INTRA.VDW>
0.18554

>  <SCORE.INTRA.VDW.0>
-1.83782

>  <SCORE.INTRA.norm>
-0.0390471

>  <SCORE.RESTR>
0

>  <SCORE.RESTR.CAVITY>
0

>  <SCORE.RESTR.norm>
0

>  <SCORE.SYSTEM>
0

>  <SCORE.SYSTEM.CONST>
0

>  <SCORE.SYSTEM.DIHEDRAL>
0

>  <SCORE.SYSTEM.SOLV>
0

>  <SCORE.SYSTEM.norm>
0

>  <SCORE.heavy>
22

>  <SCORE.norm>
-0.349478

>  <RMSD>
6.631

$$$$
ligand
 OpenBabel02271912143D
libRbt.so/2013.1/901 2013/11/27
 22 23  0  0  0  0  0  0  0  0999 V2000
  -28.4489    2.7867  -13.9057 N   0  0  0  0  0  0  0  0  0  0  0  0
  -29.6872    0.3780  -11.8766 C   0  0  1  0  0  0  0  0  0  0  0  0
  -29.8872    1.1897  -13.0686 O   0  0  0  0  0  0  0  0  0  0  0  0
  -32.0221    2.4605   -9.7391 P   0  0  1  0  0  0  0  0  0  0  0  0
  -28.6009    1.4380  -13.6587 C   0  0  2  0  0  0  0  0  0  0  0  0
  -28.1584    4.9130  -13.5809 N   0  0  0  0  0  0  0  0  0  0  0  0
  -26.3627    0.7613  -13.1807 O   0  0  0  0  0  0  0  0  0  0  0  0
  -27.6279    1.0948  -12.5976 C   0  0  2  0  0  0  0  0  0  0  0  0
  -27.0168    5.6616  -16.8557 N   0  0  0  0  0  0  0  0  0  0  0  0
  -28.1692   -1.2177  -12.6791 O   0  0  0  0  0  0  0  0  0  0  0  0
  -28.2613   -0.0154  -11.8966 C   0  0  2  0  0  0  0  0  0  0  0  0
  -28.2033    4.6936  -14.9040 C   0  0  0  0  0  0  0  0  0  0  0  0
  -28.4612    2.7061  -16.3692 N   0  0  0  0  0  0  0  0  0  0  0  0
  -31.3426    1.5736  -10.8392 O   0  0  0  0  0  0  0  0  0  0  0  0
  -29.9996    1.2401  -10.7022 C   0  0  0  0  0  0  0  0  0  0  0  0
  -33.4999    2.6030  -10.2551 O   0  0  0  0  0  0  0  0  0  0  0  0
  -28.3174    3.7271  -12.9629 C   0  0  0  0  0  0  0  0  0  0  0  0
  -28.8983    6.6410  -16.0272 O   0  0  0  0  0  0  0  0  0  0  0  0
  -28.0812    5.7234  -15.9523 C   0  0  0  0  0  0  0  0  0  0  0  0
  -28.3830    3.3564  -15.1164 C   0  0  0  0  0  0  0  0  0  0  0  0
  -31.8914    1.7977   -8.4081 O   0  5  0  0  0  0  0  0  0  0  0  0
  -31.2595    3.7037   -9.5257 O   0  0  0  0  0  0  0  0  0  0  0  0
  1 17  1  0  0  0  0
  1 20  1  0  0  0  0
  2 15  1  1  0  0  0
  2  3  1  0  0  0  0
  2 11  1  0  0  0  0
  3  5  1  0  0  0  0
  4 16  1  6  0  0  0
  4 21  1  0  0  0  0
  4 22  2  0  0  0  0
  4 14  1  0  0  0  0
  5  1  1  1  0  0  0
  5  8  1  0  0  0  0
  6 17  2  0  0  0  0
  6 12  1  0  0  0  0
  8  7  1  6  0  0  0
  8 11  1  0  0  0  0
  9 19  1  0  0  0  0
 11 10  1  6  0  0  0
 12 20  2  0  0  0  0
 12 19  1  0  0  0  0
 13 20  1  0  0  0  0
 14 15  1  0  0  0  0
 18 19  2  0  0  0  0
M  CHG  1  21  -1
M  END
>  <CHROM.1>
69.10709461,62.58568550,-179.99369332,178.55927370,118.01070265,-29.43088348
2.55019535,-12.65418753,-0.78856499,-0.76868115,2.61746540

>  <Name>
ligand

>  <RI>
0

>  <Rbt.Current_Directory>
/home/itssahil/PROJECTS/Mol_Feturizer/Test_systems_manuscript/rnas/4xwf

>  <Rbt.Executable>
rbdock ($Id: //depot/dev/client3/rdock/2013.1/src/exe/rbdock.cxx#4 $)

>  <Rbt.Library>
libRbt.so (2013.1, Build901 2013/11/27)

>  <Rbt.Parameter_File>
/export/apps/rDock/src/rDock_2013.1_src/data/scripts/dock_solv.prm

>  <Rbt.Receptor>
prm/pocket_docking_7.prm

>  <SCORE>
-7.87029

>  <SCORE.INTER>
-7.02661

>  <SCORE.INTER.CONST>
1

>  <SCORE.INTER.POLAR>
0

>  <SCORE.INTER.ROT>
5

>  <SCORE.INTER.SOLV>
12.6487

>  <SCORE.INTER.VDW>
-15.834

>  <SCORE.INTER.norm>
-0.319391

>  <SCORE.INTRA>
-0.843679

>  <SCORE.INTRA.DIHEDRAL>
-1.91598

>  <SCORE.INTRA.DIHEDRAL.0>
3.49807

>  <SCORE.INTRA.POLAR>
0

>  <SCORE.INTRA.POLAR.0>
0

>  <SCORE.INTRA.REPUL>
0

>  <SCORE.INTRA.REPUL.0>
0

>  <SCORE.INTRA.SOLV>
-0.388609

>  <SCORE.INTRA.SOLV.lig_0>
-73.062

>  <SCORE.INTRA.VDW>
0.308616

>  <SCORE.INTRA.VDW.0>
-1.83782

>  <SCORE.INTRA.norm>
-0.038349

>  <SCORE.RESTR>
0

>  <SCORE.RESTR.CAVITY>
0

>  <SCORE.RESTR.norm>
0

>  <SCORE.SYSTEM>
0

>  <SCORE.SYSTEM.CONST>
0

>  <SCORE.SYSTEM.DIHEDRAL>
0

>  <SCORE.SYSTEM.SOLV>
0

>  <SCORE.SYSTEM.norm>
0

>  <SCORE.heavy>
22

>  <SCORE.norm>
-0.357741

>  <RMSD>
6.631

$$$$
ligand
 OpenBabel02271912143D
libRbt.so/2013.1/901 2013/11/27
 22 23  0  0  0  0  0  0  0  0999 V2000
  -28.4495    2.8203  -13.9224 N   0  0  0  0  0  0  0  0  0  0  0  0
  -29.6542    0.3569  -11.9394 C   0  0  1  0  0  0  0  0  0  0  0  0
  -29.8685    1.1925  -13.1122 O   0  0  0  0  0  0  0  0  0  0  0  0
  -31.9935    2.3754   -9.7457 P   0  0  1  0  0  0  0  0  0  0  0  0
  -28.5880    1.4652  -13.7041 C   0  0  2  0  0  0  0  0  0  0  0  0
  -28.1809    4.9421  -13.5526 N   0  0  0  0  0  0  0  0  0  0  0  0
  -26.3411    0.7985  -13.2538 O   0  0  0  0  0  0  0  0  0  0  0  0
  -27.6056    1.1077  -12.6563 C   0  0  2  0  0  0  0  0  0  0  0  0
  -27.0280    5.7872  -16.7913 N   0  0  0  0  0  0  0  0  0  0  0  0
  -28.1268   -1.2072  -12.7852 O   0  0  0  0  0  0  0  0  0  0  0  0
  -28.2250   -0.0231  -11.9761 C   0  0  2  0  0  0  0  0  0  0  0  0
  -28.2222    4.7501  -14.8801 C   0  0  0  0  0  0  0  0  0  0  0  0
  -28.4584    2.7915  -16.3872 N   0  0  0  0  0  0  0  0  0  0  0  0
  -31.3176    1.5025  -10.8591 O   0  0  0  0  0  0  0  0  0  0  0  0
  -29.9673    1.1904  -10.7447 C   0  0  0  0  0  0  0  0  0  0  0  0
  -33.4821    2.4934  -10.2363 O   0  0  0  0  0  0  0  0  0  0  0  0
  -28.3285    3.7420  -12.9599 C   0  0  0  0  0  0  0  0  0  0  0  0
  -28.9496    6.6998  -15.9787 O   0  0  0  0  0  0  0  0  0  0  0  0
  -28.1095    5.8031  -15.9064 C   0  0  0  0  0  0  0  0  0  0  0  0
  -28.3880    3.4160  -15.1208 C   0  0  0  0  0  0  0  0  0  0  0  0
  -31.8289    1.7124   -8.4186 O   0  5  0  0  0  0  0  0  0  0  0  0
  -31.2488    3.6311   -9.5424 O   0  0  0  0  0  0  0  0  0  0  0  0
  1 17  1  0  0  0  0
  1 20  1  0  0  0  0
  2 15  1  1  0  0  0
  2  3  1  0  0  0  0
  2 11  1  0  0  0  0
  3  5  1  0  0  0  0
  4 16  1  6  0  0  0
  4 21  1  0  0  0  0
  4 22  2  0  0  0  0
  4 14  1  0  0  0  0
  5  1  1  1  0  0  0
  5  8  1  0  0  0  0
  6 17  2  0  0  0  0
  6 12  1  0  0  0  0
  8  7  1  6  0  0  0
  8 11  1  0  0  0  0
  9 19  1  0  0  0  0
 11 10  1  6  0  0  0
 12 20  2  0  0  0  0
 12 19  1  0  0  0  0
 13 20  1  0  0  0  0
 14 15  1  0  0  0  0
 18 19  2  0  0  0  0
M  CHG  1  21  -1
M  END
>  <CHROM.1>
68.70068281,63.21720470,-179.91155050,179.55243805,116.65260517,-29.41916538
2.54870080,-12.67124755,-0.80138683,-0.76901604,2.63032726

>  <Name>
ligand

>  <RI>
0

>  <Rbt.Current_Directory>
/home/itssahil/PROJECTS/Mol_Feturizer/Test_systems_manuscript/rnas/4xwf

>  <Rbt.Executable>
rbdock ($Id: //depot/dev/client3/rdock/2013.1/src/exe/rbdock.cxx#4 $)

>  <Rbt.Library>
libRbt.so (2013.1, Build901 2013/11/27)

>  <Rbt.Parameter_File>
/export/apps/rDock/src/rDock_2013.1_src/data/scripts/dock_solv.prm

>  <Rbt.Receptor>
prm/pocket_docking_6.prm

>  <SCORE>
-7.71603

>  <SCORE.INTER>
-6.85145

>  <SCORE.INTER.CONST>
1

>  <SCORE.INTER.POLAR>
0

>  <SCORE.INTER.ROT>
5

>  <SCORE.INTER.SOLV>
12.4507

>  <SCORE.INTER.VDW>
-15.6512

>  <SCORE.INTER.norm>
-0.311429

>  <SCORE.INTRA>
-0.864586

>  <SCORE.INTRA.DIHEDRAL>
-1.90571

>  <SCORE.INTRA.DIHEDRAL.0>
3.49807

>  <SCORE.INTRA.POLAR>
0

>  <SCORE.INTRA.POLAR.0>
0

>  <SCORE.INTRA.REPUL>
0

>  <SCORE.INTRA.REPUL.0>
0

>  <SCORE.INTRA.SOLV>
-0.389037

>  <SCORE.INTRA.SOLV.lig_0>
-73.062

>  <SCORE.INTRA.VDW>
0.282787

>  <SCORE.INTRA.VDW.0>
-1.83782

>  <SCORE.INTRA.norm>
-0.0392994

>  <SCORE.RESTR>
0

>  <SCORE.RESTR.CAVITY>
0

>  <SCORE.RESTR.norm>
0

>  <SCORE.SYSTEM>
0

>  <SCORE.SYSTEM.CONST>
0

>  <SCORE.SYSTEM.DIHEDRAL>
0

>  <SCORE.SYSTEM.SOLV>
0

>  <SCORE.SYSTEM.norm>
0

>  <SCORE.heavy>
22

>  <SCORE.norm>
-0.350729

>  <RMSD>
6.636

$$$$
ligand
 OpenBabel02271912143D
libRbt.so/2013.1/901 2013/11/27
 22 23  0  0  0  0  0  0  0  0999 V2000
  -28.4583    3.0042  -14.0957 N   0  0  0  0  0  0  0  0  0  0  0  0
  -29.6458    0.4943  -12.1610 C   0  0  1  0  0  0  0  0  0  0  0  0
  -29.8715    1.3592  -13.3103 O   0  0  0  0  0  0  0  0  0  0  0  0
  -31.9590    2.4521   -9.8862 P   0  0  1  0  0  0  0  0  0  0  0  0
  -28.5971    1.6443  -13.9095 C   0  0  2  0  0  0  0  0  0  0  0  0
  -28.1882    5.1165  -13.6758 N   0  0  0  0  0  0  0  0  0  0  0  0
  -26.3467    0.9627  -13.5011 O   0  0  0  0  0  0  0  0  0  0  0  0
  -27.6038    1.2592  -12.8820 C   0  0  2  0  0  0  0  0  0  0  0  0
  -27.1069    5.9757  -16.9695 N   0  0  0  0  0  0  0  0  0  0  0  0
  -28.1312   -1.0509  -13.0624 O   0  0  0  0  0  0  0  0  0  0  0  0
  -28.2179    0.1129  -12.2232 C   0  0  2  0  0  0  0  0  0  0  0  0
  -28.2315    4.9562  -15.0073 C   0  0  0  0  0  0  0  0  0  0  0  0
  -28.4707    3.0341  -16.5604 N   0  0  0  0  0  0  0  0  0  0  0  0
  -31.3023    1.5863  -11.0166 O   0  0  0  0  0  0  0  0  0  0  0  0
  -29.9438    1.2985  -10.9425 C   0  0  0  0  0  0  0  0  0  0  0  0
  -31.2549    3.8480  -10.0482 O   0  0  0  0  0  0  0  0  0  0  0  0
  -28.3355    3.9026  -13.1116 C   0  0  0  0  0  0  0  0  0  0  0  0
  -28.8997    6.9854  -15.9938 O   0  0  0  0  0  0  0  0  0  0  0  0
  -28.1198    6.0332  -16.0084 C   0  0  0  0  0  0  0  0  0  0  0  0
  -28.3983    3.6283  -15.2796 C   0  0  0  0  0  0  0  0  0  0  0  0
  -33.4399    2.4796  -10.0708 O   0  5  0  0  0  0  0  0  0  0  0  0
  -31.8372    1.7831   -8.5784 O   0  0  0  0  0  0  0  0  0  0  0  0
  1 17  1  0  0  0  0
  1 20  1  0  0  0  0
  2 15  1  1  0  0  0
  2  3  1  0  0  0  0
  2 11  1  0  0  0  0
  3  5  1  0  0  0  0
  4 16  1  1  0  0  0
  4 21  1  0  0  0  0
  4 22  2  0  0  0  0
  4 14  1  0  0  0  0
  5  1  1  1  0  0  0
  5  8  1  0  0  0  0
  6 17  2  0  0  0  0
  6 12  1  0  0  0  0
  8  7  1  6  0  0  0
  8 11  1  0  0  0  0
  9 19  1  0  0  0  0
 11 10  1  6  0  0  0
 12 20  2  0  0  0  0
 12 19  1  0  0  0  0
 13 20  1  0  0  0  0
 14 15  1  0  0  0  0
 18 19  2  0  0  0  0
M  CHG  1  21  -1
M  END
>  <CHROM.1>
68.13177969,64.71164458,65.05213520,-179.06312617,122.22219999,-29.41660587
2.70248168,-12.84357672,-0.79799354,-0.77928830,2.66101458

>  <Name>
ligand

>  <RI>
0

>  <Rbt.Current_Directory>
/home/itssahil/PROJECTS/Mol_Feturizer/Test_systems_manuscript/rnas/4xwf

>  <Rbt.Executable>
rbdock ($Id: //depot/dev/client3/rdock/2013.1/src/exe/rbdock.cxx#4 $)

>  <Rbt.Library>
libRbt.so (2013.1, Build901 2013/11/27)

>  <Rbt.Parameter_File>
/export/apps/rDock/src/rDock_2013.1_src/data/scripts/dock_solv.prm

>  <Rbt.Receptor>
prm/pocket_docking_6.prm

>  <SCORE>
-7.6055

>  <SCORE.INTER>
-6.38778

>  <SCORE.INTER.CONST>
1

>  <SCORE.INTER.POLAR>
0

>  <SCORE.INTER.ROT>
5

>  <SCORE.INTER.SOLV>
14.23

>  <SCORE.INTER.VDW>
-15.9352

>  <SCORE.INTER.norm>
-0.290354

>  <SCORE.INTRA>
-1.21772

>  <SCORE.INTRA.DIHEDRAL>
-1.83974

>  <SCORE.INTRA.DIHEDRAL.0>
3.49807

>  <SCORE.INTRA.POLAR>
0

>  <SCORE.INTRA.POLAR.0>
0

>  <SCORE.INTRA.REPUL>
0

>  <SCORE.INTRA.REPUL.0>
0

>  <SCORE.INTRA.SOLV>
-0.997007

>  <SCORE.INTRA.SOLV.lig_0>
-73.062

>  <SCORE.INTRA.VDW>
0.200655

>  <SCORE.INTRA.VDW.0>
-1.83782

>  <SCORE.INTRA.norm>
-0.0553508

>  <SCORE.RESTR>
0

>  <SCORE.RESTR.CAVITY>
0

>  <SCORE.RESTR.norm>
0

>  <SCORE.SYSTEM>
0

>  <SCORE.SYSTEM.CONST>
0

>  <SCORE.SYSTEM.DIHEDRAL>
0

>  <SCORE.SYSTEM.SOLV>
0

>  <SCORE.SYSTEM.norm>
0

>  <SCORE.heavy>
22

>  <SCORE.norm>
-0.345705

>  <RMSD>
6.640

$$$$
ligand
 OpenBabel02271912143D
libRbt.so/2013.1/901 2013/11/27
 22 23  0  0  0  0  0  0  0  0999 V2000
  -28.3751    2.8748  -13.6290 N   0  0  0  0  0  0  0  0  0  0  0  0
  -29.8482    0.4358  -11.8030 C   0  0  1  0  0  0  0  0  0  0  0  0
  -29.9267    1.2995  -12.9725 O   0  0  0  0  0  0  0  0  0  0  0  0
  -32.2921    2.4673   -9.7395 P   0  0  1  0  0  0  0  0  0  0  0  0
  -28.5904    1.5239  -13.4504 C   0  0  2  0  0  0  0  0  0  0  0  0
  -28.0545    4.9773  -13.1954 N   0  0  0  0  0  0  0  0  0  0  0  0
  -26.4204    0.7493  -12.8285 O   0  0  0  0  0  0  0  0  0  0  0  0
  -27.7159    1.1053  -12.3320 C   0  0  2  0  0  0  0  0  0  0  0  0
  -28.6932    6.1546  -16.4800 N   0  0  0  0  0  0  0  0  0  0  0  0
  -28.3248   -1.1813  -12.5505 O   0  0  0  0  0  0  0  0  0  0  0  0
  -28.4388   -0.0075  -11.7286 C   0  0  2  0  0  0  0  0  0  0  0  0
  -27.9772    4.8070  -14.5242 C   0  0  0  0  0  0  0  0  0  0  0  0
  -28.1506    2.8830  -16.0836 N   0  0  0  0  0  0  0  0  0  0  0  0
  -31.5559    1.6067  -10.8239 O   0  0  0  0  0  0  0  0  0  0  0  0
  -30.2237    1.2628  -10.6219 C   0  0  0  0  0  0  0  0  0  0  0  0
  -33.7672    2.5378  -10.2777 O   0  0  0  0  0  0  0  0  0  0  0  0
  -28.3079    3.7760  -12.6421 C   0  0  0  0  0  0  0  0  0  0  0  0
  -26.6621    6.4926  -15.5073 O   0  0  0  0  0  0  0  0  0  0  0  0
  -27.7234    5.8692  -15.5152 C   0  0  0  0  0  0  0  0  0  0  0  0
  -28.1751    3.4851  -14.8047 C   0  0  0  0  0  0  0  0  0  0  0  0
  -32.1504    1.8191   -8.4024 O   0  5  0  0  0  0  0  0  0  0  0  0
  -31.5914    3.7459   -9.5231 O   0  0  0  0  0  0  0  0  0  0  0  0
  1 17  1  0  0  0  0
  1 20  1  0  0  0  0
  2 15  1  1  0  0  0
  2  3  1  0  0  0  0
  2 11  1  0  0  0  0
  3  5  1  0  0  0  0
  4 16  1  6  0  0  0
  4 21  1  0  0  0  0
  4 22  2  0  0  0  0
  4 14  1  0  0  0  0
  5  1  1  1  0  0  0
  5  8  1  0  0  0  0
  6 17  2  0  0  0  0
  6 12  1  0  0  0  0
  8  7  1  6  0  0  0
  8 11  1  0  0  0  0
  9 19  1  0  0  0  0
 11 10  1  6  0  0  0
 12 20  2  0  0  0  0
 12 19  1  0  0  0  0
 13 20  1  0  0  0  0
 14 15  1  0  0  0  0
 18 19  2  0  0  0  0
M  CHG  1  21  -1
M  END
>  <CHROM.1>
68.03539834,64.80215709,-175.80368989,178.80398265,-117.89250753,-29.45929105
2.60998140,-12.45992017,-0.70465306,-0.70992462,2.71990457

>  <Name>
ligand

>  <RI>
0

>  <Rbt.Current_Directory>
/home/itssahil/PROJECTS/Mol_Feturizer/Test_systems_manuscript/rnas/4xwf

>  <Rbt.Executable>
rbdock ($Id: //depot/dev/client3/rdock/2013.1/src/exe/rbdock.cxx#4 $)

>  <Rbt.Library>
libRbt.so (2013.1, Build901 2013/11/27)

>  <Rbt.Parameter_File>
/export/apps/rDock/src/rDock_2013.1_src/data/scripts/dock_solv.prm

>  <Rbt.Receptor>
prm/pocket_docking_5.prm

>  <SCORE>
-7.79911

>  <SCORE.INTER>
-6.94439

>  <SCORE.INTER.CONST>
1

>  <SCORE.INTER.POLAR>
0

>  <SCORE.INTER.ROT>
5

>  <SCORE.INTER.SOLV>
12.1396

>  <SCORE.INTER.VDW>
-15.6095

>  <SCORE.INTER.norm>
-0.315654

>  <SCORE.INTRA>
-0.854724

>  <SCORE.INTRA.DIHEDRAL>
-1.84401

>  <SCORE.INTRA.DIHEDRAL.0>
3.49807

>  <SCORE.INTRA.POLAR>
0

>  <SCORE.INTRA.POLAR.0>
0

>  <SCORE.INTRA.REPUL>
0

>  <SCORE.INTRA.REPUL.0>
0

>  <SCORE.INTRA.SOLV>
-0.367362

>  <SCORE.INTRA.SOLV.lig_0>
-73.062

>  <SCORE.INTRA.VDW>
0.25096

>  <SCORE.INTRA.VDW.0>
-1.83782

>  <SCORE.INTRA.norm>
-0.0388511

>  <SCORE.RESTR>
0

>  <SCORE.RESTR.CAVITY>
0

>  <SCORE.RESTR.norm>
0

>  <SCORE.SYSTEM>
0

>  <SCORE.SYSTEM.CONST>
0

>  <SCORE.SYSTEM.DIHEDRAL>
0

>  <SCORE.SYSTEM.SOLV>
0

>  <SCORE.SYSTEM.norm>
0

>  <SCORE.heavy>
22

>  <SCORE.norm>
-0.354505

>  <RMSD>
6.642

$$$$
ligand
 OpenBabel02271912143D
libRbt.so/2013.1/901 2013/11/27
 22 23  0  0  0  0  0  0  0  0999 V2000
  -28.4275    2.7833  -13.8060 N   0  0  0  0  0  0  0  0  0  0  0  0
  -29.7956    0.4036  -11.8267 C   0  0  1  0  0  0  0  0  0  0  0  0
  -29.9270    1.2116  -13.0307 O   0  0  0  0  0  0  0  0  0  0  0  0
  -32.2211    2.4576   -9.7634 P   0  0  1  0  0  0  0  0  0  0  0  0
  -28.6107    1.4383  -13.5602 C   0  0  2  0  0  0  0  0  0  0  0  0
  -28.1344    4.9087  -13.4777 N   0  0  0  0  0  0  0  0  0  0  0  0
  -26.4078    0.7322  -12.9732 O   0  0  0  0  0  0  0  0  0  0  0  0
  -27.6942    1.0869  -12.4524 C   0  0  2  0  0  0  0  0  0  0  0  0
  -27.6802    7.0306  -15.4739 N   0  0  0  0  0  0  0  0  0  0  0  0
  -28.2647   -1.2180  -12.5486 O   0  0  0  0  0  0  0  0  0  0  0  0
  -28.3763   -0.0103  -11.7771 C   0  0  2  0  0  0  0  0  0  0  0  0
  -28.0957    4.6797  -14.7993 C   0  0  0  0  0  0  0  0  0  0  0  0
  -28.2805    2.6841  -16.2645 N   0  0  0  0  0  0  0  0  0  0  0  0
  -31.5028    1.5607  -10.8304 O   0  0  0  0  0  0  0  0  0  0  0  0
  -30.1508    1.2765  -10.6726 C   0  0  0  0  0  0  0  0  0  0  0  0
  -33.7148    2.4709  -10.2525 O   0  0  0  0  0  0  0  0  0  0  0  0
  -28.3469    3.7294  -12.8632 C   0  0  0  0  0  0  0  0  0  0  0  0
  -27.9273    5.3919  -17.0358 O   0  0  0  0  0  0  0  0  0  0  0  0
  -27.8939    5.7002  -15.8446 C   0  0  0  0  0  0  0  0  0  0  0  0
  -28.2765    3.3430  -15.0138 C   0  0  0  0  0  0  0  0  0  0  0  0
  -32.0195    1.8784   -8.4026 O   0  5  0  0  0  0  0  0  0  0  0  0
  -31.5424    3.7595   -9.6333 O   0  0  0  0  0  0  0  0  0  0  0  0
  1 17  1  0  0  0  0
  1 20  1  0  0  0  0
  2 15  1  1  0  0  0
  2  3  1  0  0  0  0
  2 11  1  0  0  0  0
  3  5  1  0  0  0  0
  4 16  1  6  0  0  0
  4 21  1  0  0  0  0
  4 22  2  0  0  0  0
  4 14  1  0  0  0  0
  5  1  1  1  0  0  0
  5  8  1  0  0  0  0
  6 17  2  0  0  0  0
  6 12  1  0  0  0  0
  8  7  1  6  0  0  0
  8 11  1  0  0  0  0
  9 19  1  0  0  0  0
 11 10  1  6  0  0  0
 12 20  2  0  0  0  0
 12 19  1  0  0  0  0
 13 20  1  0  0  0  0
 14 15  1  0  0  0  0
 18 19  2  0  0  0  0
M  CHG  1  21  -1
M  END
>  <CHROM.1>
68.07393305,66.17336095,-177.04752797,179.24185229,2.06025761,-29.47271785
2.54612016,-12.58700781,-0.72857129,-0.75440894,2.67448533

>  <Name>
ligand

>  <RI>
0

>  <Rbt.Current_Directory>
/home/itssahil/PROJECTS/Mol_Feturizer/Test_systems_manuscript/rnas/4xwf

>  <Rbt.Executable>
rbdock ($Id: //depot/dev/client3/rdock/2013.1/src/exe/rbdock.cxx#4 $)

>  <Rbt.Library>
libRbt.so (2013.1, Build901 2013/11/27)

>  <Rbt.Parameter_File>
/export/apps/rDock/src/rDock_2013.1_src/data/scripts/dock_solv.prm

>  <Rbt.Receptor>
prm/pocket_docking_8.prm

>  <SCORE>
-7.53402

>  <SCORE.INTER>
-6.82447

>  <SCORE.INTER.CONST>
1

>  <SCORE.INTER.POLAR>
0

>  <SCORE.INTER.ROT>
5

>  <SCORE.INTER.SOLV>
13.3609

>  <SCORE.INTER.VDW>
-15.9366

>  <SCORE.INTER.norm>
-0.310203

>  <SCORE.INTRA>
-0.709542

>  <SCORE.INTRA.DIHEDRAL>
-1.80312

>  <SCORE.INTRA.DIHEDRAL.0>
3.49807

>  <SCORE.INTRA.POLAR>
0

>  <SCORE.INTRA.POLAR.0>
0

>  <SCORE.INTRA.REPUL>
0

>  <SCORE.INTRA.REPUL.0>
0

>  <SCORE.INTRA.SOLV>
-0.427601

>  <SCORE.INTRA.SOLV.lig_0>
-73.062

>  <SCORE.INTRA.VDW>
0.405817

>  <SCORE.INTRA.VDW.0>
-1.83782

>  <SCORE.INTRA.norm>
-0.0322519

>  <SCORE.RESTR>
0

>  <SCORE.RESTR.CAVITY>
0

>  <SCORE.RESTR.norm>
0

>  <SCORE.SYSTEM>
0

>  <SCORE.SYSTEM.CONST>
0

>  <SCORE.SYSTEM.DIHEDRAL>
0

>  <SCORE.SYSTEM.SOLV>
0

>  <SCORE.SYSTEM.norm>
0

>  <SCORE.heavy>
22

>  <SCORE.norm>
-0.342455

>  <RMSD>
6.647

$$$$
ligand
 OpenBabel02271912143D
libRbt.so/2013.1/901 2013/11/27
 22 23  0  0  0  0  0  0  0  0999 V2000
  -29.0713    1.9270  -11.3273 N   0  0  0  0  0  0  0  0  0  0  0  0
  -31.2120    0.6858   -9.0188 C   0  0  1  0  0  0  0  0  0  0  0  0
  -30.9282    0.8926  -10.4318 O   0  0  0  0  0  0  0  0  0  0  0  0
  -33.5516    3.6636   -8.9944 P   0  0  1  0  0  0  0  0  0  0  0  0
  -29.5044    0.8288  -10.6135 C   0  0  2  0  0  0  0  0  0  0  0  0
  -28.6929    3.9876  -11.8946 N   0  0  0  0  0  0  0  0  0  0  0  0
  -27.6372    0.3863   -9.1943 O   0  0  0  0  0  0  0  0  0  0  0  0
  -28.9447    0.9687   -9.2504 C   0  0  2  0  0  0  0  0  0  0  0  0
  -27.2159    5.0080  -14.2331 N   0  0  0  0  0  0  0  0  0  0  0  0
  -29.8078   -1.1311   -8.5482 O   0  0  0  0  0  0  0  0  0  0  0  0
  -29.9236    0.2946   -8.4063 C   0  0  2  0  0  0  0  0  0  0  0  0
  -28.1160    3.1894  -12.8060 C   0  0  0  0  0  0  0  0  0  0  0  0
  -27.8914    0.7391  -13.1363 N   0  0  0  0  0  0  0  0  0  0  0  0
  -32.8406    2.2840   -9.2176 O   0  0  0  0  0  0  0  0  0  0  0  0
  -31.7031    1.9836   -8.4762 C   0  0  0  0  0  0  0  0  0  0  0  0
  -34.6936    3.6578  -10.0744 O   0  0  0  0  0  0  0  0  0  0  0  0
  -29.2911    3.2005  -10.9802 C   0  0  0  0  0  0  0  0  0  0  0  0
  -26.8727    2.8217  -14.7698 O   0  0  0  0  0  0  0  0  0  0  0  0
  -27.3609    3.6395  -13.9900 C   0  0  0  0  0  0  0  0  0  0  0  0
  -28.3473    1.8903  -12.4539 C   0  0  0  0  0  0  0  0  0  0  0  0
  -34.0323    3.7587   -7.5845 O   0  5  0  0  0  0  0  0  0  0  0  0
  -32.5773    4.7683   -9.0490 O   0  0  0  0  0  0  0  0  0  0  0  0
  1 17  1  0  0  0  0
  1 20  1  0  0  0  0
  2 15  1  1  0  0  0
  2  3  1  0  0  0  0
  2 11  1  0  0  0  0
  3  5  1  0  0  0  0
  4 16  1  6  0  0  0
  4 21  1  0  0  0  0
  4 22  2  0  0  0  0
  4 14  1  0  0  0  0
  5  1  1  6  0  0  0
  5  8  1  0  0  0  0
  6 17  2  0  0  0  0
  6 12  1  0  0  0  0
  8  7  1  6  0  0  0
  8 11  1  0  0  0  0
  9 19  1  0  0  0  0
 11 10  1  6  0  0  0
 12 20  2  0  0  0  0
 12 19  1  0  0  0  0
 13 20  1  0  0  0  0
 14 15  1  0  0  0  0
 18 19  2  0  0  0  0
M  CHG  1  21  -1
M  END
>  <CHROM.1>
55.84668894,59.63726671,175.77039362,-174.61439381,-0.58977148,-30.29222335
2.31806572,-10.50226960,-0.37316690,-0.57175209,2.45213428

>  <Name>
ligand

>  <RI>
0

>  <Rbt.Current_Directory>
/home/itssahil/PROJECTS/Mol_Feturizer/Test_systems_manuscript/rnas/4xwf

>  <Rbt.Executable>
rbdock ($Id: //depot/dev/client3/rdock/2013.1/src/exe/rbdock.cxx#4 $)

>  <Rbt.Library>
libRbt.so (2013.1, Build901 2013/11/27)

>  <Rbt.Parameter_File>
/export/apps/rDock/src/rDock_2013.1_src/data/scripts/dock_solv.prm

>  <Rbt.Receptor>
prm/pocket_docking_5.prm

>  <SCORE>
-5.32399

>  <SCORE.INTER>
-4.36068

>  <SCORE.INTER.CONST>
1

>  <SCORE.INTER.POLAR>
0

>  <SCORE.INTER.ROT>
5

>  <SCORE.INTER.SOLV>
15.6437

>  <SCORE.INTER.VDW>
-15.055

>  <SCORE.INTER.norm>
-0.198213

>  <SCORE.INTRA>
-0.963318

>  <SCORE.INTRA.DIHEDRAL>
-1.79749

>  <SCORE.INTRA.DIHEDRAL.0>
3.49807

>  <SCORE.INTRA.POLAR>
0

>  <SCORE.INTRA.POLAR.0>
0

>  <SCORE.INTRA.REPUL>
0

>  <SCORE.INTRA.REPUL.0>
0

>  <SCORE.INTRA.SOLV>
-0.0988366

>  <SCORE.INTRA.SOLV.lig_0>
-73.062

>  <SCORE.INTRA.VDW>
-0.0151565

>  <SCORE.INTRA.VDW.0>
-1.83782

>  <SCORE.INTRA.norm>
-0.0437872

>  <SCORE.RESTR>
0

>  <SCORE.RESTR.CAVITY>
0

>  <SCORE.RESTR.norm>
0

>  <SCORE.SYSTEM>
0

>  <SCORE.SYSTEM.CONST>
0

>  <SCORE.SYSTEM.DIHEDRAL>
0

>  <SCORE.SYSTEM.SOLV>
0

>  <SCORE.SYSTEM.norm>
0

>  <SCORE.heavy>
22

>  <SCORE.norm>
-0.242

>  <RMSD>
6.652

$$$$
ligand
 OpenBabel02271912143D
libRbt.so/2013.1/901 2013/11/27
 22 23  0  0  0  0  0  0  0  0999 V2000
  -28.4089    2.8159  -13.8336 N   0  0  0  0  0  0  0  0  0  0  0  0
  -29.6177    0.2698  -11.9605 C   0  0  1  0  0  0  0  0  0  0  0  0
  -29.8195    1.1409  -13.1095 O   0  0  0  0  0  0  0  0  0  0  0  0
  -32.0532    2.1129   -9.7196 P   0  0  1  0  0  0  0  0  0  0  0  0
  -28.5309    1.4523  -13.6634 C   0  0  2  0  0  0  0  0  0  0  0  0
  -28.1694    4.9267  -13.3885 N   0  0  0  0  0  0  0  0  0  0  0  0
  -26.2842    0.8045  -13.1857 O   0  0  0  0  0  0  0  0  0  0  0  0
  -27.5661    1.0747  -12.6065 C   0  0  2  0  0  0  0  0  0  0  0  0
  -27.0501    5.8622  -16.6345 N   0  0  0  0  0  0  0  0  0  0  0  0
  -28.0481   -1.2422  -12.8235 O   0  0  0  0  0  0  0  0  0  0  0  0
  -28.1823   -0.0874  -11.9780 C   0  0  2  0  0  0  0  0  0  0  0  0
  -28.2021    4.7808  -14.7220 C   0  0  0  0  0  0  0  0  0  0  0  0
  -28.4061    2.8732  -16.2978 N   0  0  0  0  0  0  0  0  0  0  0  0
  -31.3212    1.3558  -10.8813 O   0  0  0  0  0  0  0  0  0  0  0  0
  -29.9696    1.0581  -10.7461 C   0  0  0  0  0  0  0  0  0  0  0  0
  -32.0109    1.0803   -8.5353 O   0  0  0  0  0  0  0  0  0  0  0  0
  -28.3042    3.7048  -12.8388 C   0  0  0  0  0  0  0  0  0  0  0  0
  -28.9163    6.7901  -15.7169 O   0  0  0  0  0  0  0  0  0  0  0  0
  -28.0983    5.8704  -15.7103 C   0  0  0  0  0  0  0  0  0  0  0  0
  -28.3496    3.4539  -15.0101 C   0  0  0  0  0  0  0  0  0  0  0  0
  -31.3552    3.4029   -9.4425 O   0  5  0  0  0  0  0  0  0  0  0  0
  -33.3798    2.5835  -10.1570 O   0  0  0  0  0  0  0  0  0  0  0  0
  1 17  1  0  0  0  0
  1 20  1  0  0  0  0
  2 15  1  1  0  0  0
  2  3  1  0  0  0  0
  2 11  1  0  0  0  0
  3  5  1  0  0  0  0
  4 16  1  1  0  0  0
  4 21  1  0  0  0  0
  4 22  2  0  0  0  0
  4 14  1  0  0  0  0
  5  1  1  1  0  0  0
  5  8  1  0  0  0  0
  6 17  2  0  0  0  0
  6 12  1  0  0  0  0
  8  7  1  6  0  0  0
  8 11  1  0  0  0  0
  9 19  1  0  0  0  0
 11 10  1  6  0  0  0
 12 20  2  0  0  0  0
 12 19  1  0  0  0  0
 13 20  1  0  0  0  0
 14 15  1  0  0  0  0
 18 19  2  0  0  0  0
M  CHG  1  21  -1
M  END
>  <CHROM.1>
69.69668890,63.10802509,-65.66044418,176.23523170,119.90423355,-29.40962547
2.47589355,-12.60728177,-0.81506096,-0.74329126,2.65894559

>  <Name>
ligand

>  <RI>
0

>  <Rbt.Current_Directory>
/home/itssahil/PROJECTS/Mol_Feturizer/Test_systems_manuscript/rnas/4xwf

>  <Rbt.Executable>
rbdock ($Id: //depot/dev/client3/rdock/2013.1/src/exe/rbdock.cxx#4 $)

>  <Rbt.Library>
libRbt.so (2013.1, Build901 2013/11/27)

>  <Rbt.Parameter_File>
/export/apps/rDock/src/rDock_2013.1_src/data/scripts/dock_solv.prm

>  <Rbt.Receptor>
prm/pocket_docking_5.prm

>  <SCORE>
-5.98747

>  <SCORE.INTER>
-4.94972

>  <SCORE.INTER.CONST>
1

>  <SCORE.INTER.POLAR>
0

>  <SCORE.INTER.ROT>
5

>  <SCORE.INTER.SOLV>
16.4978

>  <SCORE.INTER.VDW>
-15.7324

>  <SCORE.INTER.norm>
-0.224987

>  <SCORE.INTRA>
-1.03775

>  <SCORE.INTRA.DIHEDRAL>
-1.77267

>  <SCORE.INTRA.DIHEDRAL.0>
3.49807

>  <SCORE.INTRA.POLAR>
0

>  <SCORE.INTRA.POLAR.0>
0

>  <SCORE.INTRA.REPUL>
0

>  <SCORE.INTRA.REPUL.0>
0

>  <SCORE.INTRA.SOLV>
-1.01909

>  <SCORE.INTRA.SOLV.lig_0>
-73.062

>  <SCORE.INTRA.VDW>
0.358129

>  <SCORE.INTRA.VDW.0>
-1.83782

>  <SCORE.INTRA.norm>
-0.0471704

>  <SCORE.RESTR>
0

>  <SCORE.RESTR.CAVITY>
0

>  <SCORE.RESTR.norm>
0

>  <SCORE.SYSTEM>
0

>  <SCORE.SYSTEM.CONST>
0

>  <SCORE.SYSTEM.DIHEDRAL>
0

>  <SCORE.SYSTEM.SOLV>
0

>  <SCORE.SYSTEM.norm>
0

>  <SCORE.heavy>
22

>  <SCORE.norm>
-0.272158

>  <RMSD>
6.675

$$$$
ligand
 OpenBabel02271912143D
libRbt.so/2013.1/901 2013/11/27
 22 23  0  0  0  0  0  0  0  0999 V2000
  -28.3819    2.8360  -13.7865 N   0  0  0  0  0  0  0  0  0  0  0  0
  -29.6209    0.2761  -11.9523 C   0  0  1  0  0  0  0  0  0  0  0  0
  -29.8071    1.1599  -13.0943 O   0  0  0  0  0  0  0  0  0  0  0  0
  -32.0724    2.0964   -9.7091 P   0  0  1  0  0  0  0  0  0  0  0  0
  -28.5116    1.4713  -13.6318 C   0  0  2  0  0  0  0  0  0  0  0  0
  -28.1472    4.9420  -13.3167 N   0  0  0  0  0  0  0  0  0  0  0  0
  -26.2726    0.8087  -13.1378 O   0  0  0  0  0  0  0  0  0  0  0  0
  -27.5592    1.0785  -12.5689 C   0  0  2  0  0  0  0  0  0  0  0  0
  -27.0212    5.8442  -16.6035 N   0  0  0  0  0  0  0  0  0  0  0  0
  -28.0490   -1.2338  -12.8149 O   0  0  0  0  0  0  0  0  0  0  0  0
  -28.1869   -0.0872  -11.9589 C   0  0  2  0  0  0  0  0  0  0  0  0
  -28.1492    4.8083  -14.6519 C   0  0  0  0  0  0  0  0  0  0  0  0
  -28.3215    2.9157  -16.2494 N   0  0  0  0  0  0  0  0  0  0  0  0
  -31.3389    1.3283  -10.8626 O   0  0  0  0  0  0  0  0  0  0  0  0
  -29.9818    1.0534  -10.7335 C   0  0  0  0  0  0  0  0  0  0  0  0
  -31.9319    1.1225   -8.4834 O   0  0  0  0  0  0  0  0  0  0  0  0
  -28.2981    3.7155  -12.7815 C   0  0  0  0  0  0  0  0  0  0  0  0
  -28.7713    6.8798  -15.5787 O   0  0  0  0  0  0  0  0  0  0  0  0
  -28.0194    5.9065  -15.6275 C   0  0  0  0  0  0  0  0  0  0  0  0
  -28.2935    3.4845  -14.9554 C   0  0  0  0  0  0  0  0  0  0  0  0
  -31.4392    3.4338   -9.5140 O   0  5  0  0  0  0  0  0  0  0  0  0
  -33.4375    2.4732  -10.1181 O   0  0  0  0  0  0  0  0  0  0  0  0
  1 17  1  0  0  0  0
  1 20  1  0  0  0  0
  2 15  1  1  0  0  0
  2  3  1  0  0  0  0
  2 11  1  0  0  0  0
  3  5  1  0  0  0  0
  4 16  1  1  0  0  0
  4 21  1  0  0  0  0
  4 22  2  0  0  0  0
  4 14  1  0  0  0  0
  5  1  1  1  0  0  0
  5  8  1  0  0  0  0
  6 17  2  0  0  0  0
  6 12  1  0  0  0  0
  8  7  1  6  0  0  0
  8 11  1  0  0  0  0
  9 19  1  0  0  0  0
 11 10  1  6  0  0  0
 12 20  2  0  0  0  0
 12 19  1  0  0  0  0
 13 20  1  0  0  0  0
 14 15  1  0  0  0  0
 18 19  2  0  0  0  0
M  CHG  1  21  -1
M  END
>  <CHROM.1>
68.93971985,64.62281835,-62.51353262,177.58180251,125.56985945,-29.39295520
2.48443643,-12.57180802,-0.79932873,-0.73836900,2.68086806

>  <Name>
ligand

>  <RI>
0

>  <Rbt.Current_Directory>
/home/itssahil/PROJECTS/Mol_Feturizer/Test_systems_manuscript/rnas/4xwf

>  <Rbt.Executable>
rbdock ($Id: //depot/dev/client3/rdock/2013.1/src/exe/rbdock.cxx#4 $)

>  <Rbt.Library>
libRbt.so (2013.1, Build901 2013/11/27)

>  <Rbt.Parameter_File>
/export/apps/rDock/src/rDock_2013.1_src/data/scripts/dock_solv.prm

>  <Rbt.Receptor>
prm/pocket_docking_6.prm

>  <SCORE>
-5.98795

>  <SCORE.INTER>
-4.91071

>  <SCORE.INTER.CONST>
1

>  <SCORE.INTER.POLAR>
0

>  <SCORE.INTER.ROT>
5

>  <SCORE.INTER.SOLV>
16.3541

>  <SCORE.INTER.VDW>
-15.6585

>  <SCORE.INTER.norm>
-0.223214

>  <SCORE.INTRA>
-1.07724

>  <SCORE.INTRA.DIHEDRAL>
-1.78431

>  <SCORE.INTRA.DIHEDRAL.0>
3.49807

>  <SCORE.INTRA.POLAR>
0

>  <SCORE.INTRA.POLAR.0>
0

>  <SCORE.INTRA.REPUL>
0

>  <SCORE.INTRA.REPUL.0>
0

>  <SCORE.INTRA.SOLV>
-0.990171

>  <SCORE.INTRA.SOLV.lig_0>
-73.062

>  <SCORE.INTRA.VDW>
0.309998

>  <SCORE.INTRA.VDW.0>
-1.83782

>  <SCORE.INTRA.norm>
-0.0489655

>  <SCORE.RESTR>
0

>  <SCORE.RESTR.CAVITY>
0

>  <SCORE.RESTR.norm>
0

>  <SCORE.SYSTEM>
0

>  <SCORE.SYSTEM.CONST>
0

>  <SCORE.SYSTEM.DIHEDRAL>
0

>  <SCORE.SYSTEM.SOLV>
0

>  <SCORE.SYSTEM.norm>
0

>  <SCORE.heavy>
22

>  <SCORE.norm>
-0.27218

>  <RMSD>
6.676

$$$$
ligand
 OpenBabel02271912143D
libRbt.so/2013.1/901 2013/11/27
 22 23  0  0  0  0  0  0  0  0999 V2000
  -28.7105    0.8633  -13.0285 N   0  0  0  0  0  0  0  0  0  0  0  0
  -30.4782    0.8311  -10.1429 C   0  0  1  0  0  0  0  0  0  0  0  0
  -30.2184    0.1839  -11.4210 O   0  0  0  0  0  0  0  0  0  0  0  0
  -32.7095    3.7054   -9.0862 P   0  0  1  0  0  0  0  0  0  0  0  0
  -28.8316    0.3764  -11.7434 C   0  0  2  0  0  0  0  0  0  0  0  0
  -29.1724    1.8755  -14.8922 N   0  0  0  0  0  0  0  0  0  0  0  0
  -26.9655    1.3839  -10.6486 O   0  0  0  0  0  0  0  0  0  0  0  0
  -28.3828    1.4606  -10.8413 C   0  0  2  0  0  0  0  0  0  0  0  0
  -25.7906    2.1835  -15.9745 N   0  0  0  0  0  0  0  0  0  0  0  0
  -28.6256    0.1121   -8.8998 O   0  0  0  0  0  0  0  0  0  0  0  0
  -29.1532    1.2359   -9.6243 C   0  0  2  0  0  0  0  0  0  0  0  0
  -27.9205    1.3994  -14.9731 C   0  0  0  0  0  0  0  0  0  0  0  0
  -26.3949    0.1431  -13.4705 N   0  0  0  0  0  0  0  0  0  0  0  0
  -31.7956    2.4342   -9.1731 O   0  0  0  0  0  0  0  0  0  0  0  0
  -31.3415    2.0138  -10.4184 C   0  0  0  0  0  0  0  0  0  0  0  0
  -33.9505    3.3163   -9.9687 O   0  0  0  0  0  0  0  0  0  0  0  0
  -29.6631    1.5356  -13.6850 C   0  0  0  0  0  0  0  0  0  0  0  0
  -27.3486    1.1038  -17.2365 O   0  0  0  0  0  0  0  0  0  0  0  0
  -27.0198    1.5378  -16.1326 C   0  0  0  0  0  0  0  0  0  0  0  0
  -27.6213    0.7633  -13.8021 C   0  0  0  0  0  0  0  0  0  0  0  0
  -33.0312    3.9961   -7.6579 O   0  5  0  0  0  0  0  0  0  0  0  0
  -31.9603    4.9148   -9.4718 O   0  0  0  0  0  0  0  0  0  0  0  0
  1 17  1  0  0  0  0
  1 20  1  0  0  0  0
  2 15  1  6  0  0  0
  2  3  1  0  0  0  0
  2 11  1  0  0  0  0
  3  5  1  0  0  0  0
  4 16  1  6  0  0  0
  4 21  1  0  0  0  0
  4 22  2  0  0  0  0
  4 14  1  0  0  0  0
  5  1  1  6  0  0  0
  5  8  1  0  0  0  0
  6 17  2  0  0  0  0
  6 12  1  0  0  0  0
  8  7  1  1  0  0  0
  8 11  1  0  0  0  0
  9 19  1  0  0  0  0
 11 10  1  1  0  0  0
 12 20  2  0  0  0  0
 12 19  1  0  0  0  0
 13 20  1  0  0  0  0
 14 15  1  0  0  0  0
 18 19  2  0  0  0  0
M  CHG  1  21  -1
M  END
>  <CHROM.1>
23.94247766,167.82259322,59.61364247,178.14135948,120.87995907,-29.67038615
1.84355595,-11.65996540,-0.70731776,-0.60467953,1.82430509

>  <Name>
ligand

>  <RI>
0

>  <Rbt.Current_Directory>
/home/itssahil/PROJECTS/Mol_Feturizer/Test_systems_manuscript/rnas/4xwf

>  <Rbt.Executable>
rbdock ($Id: //depot/dev/client3/rdock/2013.1/src/exe/rbdock.cxx#4 $)

>  <Rbt.Library>
libRbt.so (2013.1, Build901 2013/11/27)

>  <Rbt.Parameter_File>
/export/apps/rDock/src/rDock_2013.1_src/data/scripts/dock_solv.prm

>  <Rbt.Receptor>
prm/pocket_docking_7.prm

>  <SCORE>
-8.48745

>  <SCORE.INTER>
-7.63573

>  <SCORE.INTER.CONST>
1

>  <SCORE.INTER.POLAR>
0

>  <SCORE.INTER.ROT>
5

>  <SCORE.INTER.SOLV>
12.0857

>  <SCORE.INTER.VDW>
-16.0524

>  <SCORE.INTER.norm>
-0.347079

>  <SCORE.INTRA>
-0.851722

>  <SCORE.INTRA.DIHEDRAL>
-1.50435

>  <SCORE.INTRA.DIHEDRAL.0>
3.49807

>  <SCORE.INTRA.POLAR>
0

>  <SCORE.INTRA.POLAR.0>
0

>  <SCORE.INTRA.REPUL>
0

>  <SCORE.INTRA.REPUL.0>
0

>  <SCORE.INTRA.SOLV>
0.331373

>  <SCORE.INTRA.SOLV.lig_0>
-73.062

>  <SCORE.INTRA.VDW>
-0.265234

>  <SCORE.INTRA.VDW.0>
-1.83782

>  <SCORE.INTRA.norm>
-0.0387147

>  <SCORE.RESTR>
0

>  <SCORE.RESTR.CAVITY>
0

>  <SCORE.RESTR.norm>
0

>  <SCORE.SYSTEM>
0

>  <SCORE.SYSTEM.CONST>
0

>  <SCORE.SYSTEM.DIHEDRAL>
0

>  <SCORE.SYSTEM.SOLV>
0

>  <SCORE.SYSTEM.norm>
0

>  <SCORE.heavy>
22

>  <SCORE.norm>
-0.385793

>  <RMSD>
6.742

$$$$
ligand
 OpenBabel02271912143D
libRbt.so/2013.1/901 2013/11/27
 22 23  0  0  0  0  0  0  0  0999 V2000
  -29.1364    0.6178  -12.1938 N   0  0  0  0  0  0  0  0  0  0  0  0
  -31.1502    0.9860   -9.4990 C   0  0  1  0  0  0  0  0  0  0  0  0
  -30.8578    0.2299  -10.7084 O   0  0  0  0  0  0  0  0  0  0  0  0
  -33.1110    4.1582   -8.8276 P   0  0  1  0  0  0  0  0  0  0  0  0
  -29.4341    0.2342  -10.9025 C   0  0  2  0  0  0  0  0  0  0  0  0
  -29.3476    1.4410  -14.1910 N   0  0  0  0  0  0  0  0  0  0  0  0
  -27.5647    1.0819   -9.6850 O   0  0  0  0  0  0  0  0  0  0  0  0
  -28.9377    1.3142  -10.0204 C   0  0  2  0  0  0  0  0  0  0  0  0
  -27.2993    1.7069  -16.2948 N   0  0  0  0  0  0  0  0  0  0  0  0
  -29.5231    0.1345   -8.0423 O   0  0  0  0  0  0  0  0  0  0  0  0
  -29.8380    1.2632   -8.8749 C   0  0  2  0  0  0  0  0  0  0  0  0
  -28.0781    1.0341  -14.0376 C   0  0  0  0  0  0  0  0  0  0  0  0
  -26.7502    0.0001  -12.2125 N   0  0  0  0  0  0  0  0  0  0  0  0
  -32.3362    2.7971   -8.7513 O   0  0  0  0  0  0  0  0  0  0  0  0
  -31.8303    2.2424   -9.9218 C   0  0  0  0  0  0  0  0  0  0  0  0
  -34.3382    3.8215   -9.7501 O   0  0  0  0  0  0  0  0  0  0  0  0
  -30.0045    1.1755  -13.0458 C   0  0  0  0  0  0  0  0  0  0  0  0
  -25.8887    0.6867  -14.8268 O   0  0  0  0  0  0  0  0  0  0  0  0
  -27.0151    1.1274  -15.0554 C   0  0  0  0  0  0  0  0  0  0  0  0
  -27.9366    0.5173  -12.7813 C   0  0  0  0  0  0  0  0  0  0  0  0
  -33.4747    4.6070   -7.4513 O   0  5  0  0  0  0  0  0  0  0  0  0
  -32.2163    5.2447   -9.2652 O   0  0  0  0  0  0  0  0  0  0  0  0
  1 17  1  0  0  0  0
  1 20  1  0  0  0  0
  2 15  1  6  0  0  0
  2  3  1  0  0  0  0
  2 11  1  0  0  0  0
  3  5  1  0  0  0  0
  4 16  1  6  0  0  0
  4 21  1  0  0  0  0
  4 22  2  0  0  0  0
  4 14  1  0  0  0  0
  5  1  1  6  0  0  0
  5  8  1  0  0  0  0
  6 17  2  0  0  0  0
  6 12  1  0  0  0  0
  8  7  1  1  0  0  0
  8 11  1  0  0  0  0
  9 19  1  0  0  0  0
 11 10  1  1  0  0  0
 12 20  2  0  0  0  0
 12 19  1  0  0  0  0
 13 20  1  0  0  0  0
 14 15  1  0  0  0  0
 18 19  2  0  0  0  0
M  CHG  1  21  -1
M  END
>  <CHROM.1>
13.26213140,168.01624492,61.50062954,179.29142212,1.37023879,-30.07488874
1.84228383,-10.96284521,-0.52444070,-0.68420855,1.90203122

>  <Name>
ligand

>  <RI>
0

>  <Rbt.Current_Directory>
/home/itssahil/PROJECTS/Mol_Feturizer/Test_systems_manuscript/rnas/4xwf

>  <Rbt.Executable>
rbdock ($Id: //depot/dev/client3/rdock/2013.1/src/exe/rbdock.cxx#4 $)

>  <Rbt.Library>
libRbt.so (2013.1, Build901 2013/11/27)

>  <Rbt.Parameter_File>
/export/apps/rDock/src/rDock_2013.1_src/data/scripts/dock_solv.prm

>  <Rbt.Receptor>
prm/pocket_docking_6.prm

>  <SCORE>
-8.58522

>  <SCORE.INTER>
-8.20975

>  <SCORE.INTER.CONST>
1

>  <SCORE.INTER.POLAR>
0

>  <SCORE.INTER.ROT>
5

>  <SCORE.INTER.SOLV>
12.4899

>  <SCORE.INTER.VDW>
-16.5698

>  <SCORE.INTER.norm>
-0.37317

>  <SCORE.INTRA>
-0.375473

>  <SCORE.INTRA.DIHEDRAL>
-1.52275

>  <SCORE.INTRA.DIHEDRAL.0>
3.49807

>  <SCORE.INTRA.POLAR>
0

>  <SCORE.INTRA.POLAR.0>
0

>  <SCORE.INTRA.REPUL>
0

>  <SCORE.INTRA.REPUL.0>
0

>  <SCORE.INTRA.SOLV>
0.686617

>  <SCORE.INTRA.SOLV.lig_0>
-73.062

>  <SCORE.INTRA.VDW>
0.0425958

>  <SCORE.INTRA.VDW.0>
-1.83782

>  <SCORE.INTRA.norm>
-0.0170669

>  <SCORE.RESTR>
0

>  <SCORE.RESTR.CAVITY>
0

>  <SCORE.RESTR.norm>
0

>  <SCORE.SYSTEM>
0

>  <SCORE.SYSTEM.CONST>
0

>  <SCORE.SYSTEM.DIHEDRAL>
0

>  <SCORE.SYSTEM.SOLV>
0

>  <SCORE.SYSTEM.norm>
0

>  <SCORE.heavy>
22

>  <SCORE.norm>
-0.390237

>  <RMSD>
6.743

$$$$
ligand
 OpenBabel02271912143D
libRbt.so/2013.1/901 2013/11/27
 22 23  0  0  0  0  0  0  0  0999 V2000
  -28.7734    0.8265  -13.0080 N   0  0  0  0  0  0  0  0  0  0  0  0
  -30.5653    0.8399  -10.1372 C   0  0  1  0  0  0  0  0  0  0  0  0
  -30.3333    0.2050  -11.4267 O   0  0  0  0  0  0  0  0  0  0  0  0
  -32.7262    3.7569   -9.0505 P   0  0  1  0  0  0  0  0  0  0  0  0
  -28.9346    0.3211  -11.7345 C   0  0  2  0  0  0  0  0  0  0  0  0
  -29.1702    1.8794  -14.8640 N   0  0  0  0  0  0  0  0  0  0  0  0
  -27.0217    1.1925  -10.6044 O   0  0  0  0  0  0  0  0  0  0  0  0
  -28.4301    1.3577  -10.8061 C   0  0  2  0  0  0  0  0  0  0  0  0
  -25.7410    2.0906  -15.8547 N   0  0  0  0  0  0  0  0  0  0  0  0
  -28.7698   -0.0140   -8.8956 O   0  0  0  0  0  0  0  0  0  0  0  0
  -29.2232    1.1541   -9.6001 C   0  0  2  0  0  0  0  0  0  0  0  0
  -27.9274    1.3771  -14.9247 C   0  0  0  0  0  0  0  0  0  0  0  0
  -26.4645    0.0625  -13.4097 N   0  0  0  0  0  0  0  0  0  0  0  0
  -31.8421    2.4658   -9.1511 O   0  0  0  0  0  0  0  0  0  0  0  0
  -31.3542    2.0775  -10.3940 C   0  0  0  0  0  0  0  0  0  0  0  0
  -33.9721    3.4093   -9.9435 O   0  0  0  0  0  0  0  0  0  0  0  0
  -29.6958    1.5305  -13.6743 C   0  0  0  0  0  0  0  0  0  0  0  0
  -27.3250    1.1414  -17.1872 O   0  0  0  0  0  0  0  0  0  0  0  0
  -26.9975    1.5148  -16.0610 C   0  0  0  0  0  0  0  0  0  0  0  0
  -27.6691    0.7152  -13.7583 C   0  0  0  0  0  0  0  0  0  0  0  0
  -33.0474    4.0355   -7.6197 O   0  5  0  0  0  0  0  0  0  0  0  0
  -31.9470    4.9534   -9.4162 O   0  0  0  0  0  0  0  0  0  0  0  0
  1 17  1  0  0  0  0
  1 20  1  0  0  0  0
  2 15  1  6  0  0  0
  2  3  1  0  0  0  0
  2 11  1  0  0  0  0
  3  5  1  0  0  0  0
  4 16  1  6  0  0  0
  4 21  1  0  0  0  0
  4 22  2  0  0  0  0
  4 14  1  0  0  0  0
  5  1  1  6  0  0  0
  5  8  1  0  0  0  0
  6 17  2  0  0  0  0
  6 12  1  0  0  0  0
  8  7  1  1  0  0  0
  8 11  1  0  0  0  0
  9 19  1  0  0  0  0
 11 10  1  6  0  0  0
 12 20  2  0  0  0  0
 12 19  1  0  0  0  0
 13 20  1  0  0  0  0
 14 15  1  0  0  0  0
 18 19  2  0  0  0  0
M  CHG  1  21  -1
M  END
>  <CHROM.1>
21.61598972,165.30070817,61.80187546,179.79712915,122.97339413,-29.70809590
1.82686394,-11.62519472,-0.67607912,-0.63616208,1.86061986

>  <Name>
ligand

>  <RI>
0

>  <Rbt.Current_Directory>
/home/itssahil/PROJECTS/Mol_Feturizer/Test_systems_manuscript/rnas/4xwf

>  <Rbt.Executable>
rbdock ($Id: //depot/dev/client3/rdock/2013.1/src/exe/rbdock.cxx#4 $)

>  <Rbt.Library>
libRbt.so (2013.1, Build901 2013/11/27)

>  <Rbt.Parameter_File>
/export/apps/rDock/src/rDock_2013.1_src/data/scripts/dock_solv.prm

>  <Rbt.Receptor>
prm/pocket_docking_5.prm

>  <SCORE>
-8.53685

>  <SCORE.INTER>
-7.81883

>  <SCORE.INTER.CONST>
1

>  <SCORE.INTER.POLAR>
0

>  <SCORE.INTER.ROT>
5

>  <SCORE.INTER.SOLV>
12.0485

>  <SCORE.INTER.VDW>
-16.162

>  <SCORE.INTER.norm>
-0.355401

>  <SCORE.INTRA>
-0.71802

>  <SCORE.INTRA.DIHEDRAL>
-1.29433

>  <SCORE.INTRA.DIHEDRAL.0>
3.49807

>  <SCORE.INTRA.POLAR>
0

>  <SCORE.INTRA.POLAR.0>
0

>  <SCORE.INTRA.REPUL>
0

>  <SCORE.INTRA.REPUL.0>
0

>  <SCORE.INTRA.SOLV>
0.411424

>  <SCORE.INTRA.SOLV.lig_0>
-73.062

>  <SCORE.INTRA.VDW>
-0.276567

>  <SCORE.INTRA.VDW.0>
-1.83782

>  <SCORE.INTRA.norm>
-0.0326373

>  <SCORE.RESTR>
0

>  <SCORE.RESTR.CAVITY>
0

>  <SCORE.RESTR.norm>
0

>  <SCORE.SYSTEM>
0

>  <SCORE.SYSTEM.CONST>
0

>  <SCORE.SYSTEM.DIHEDRAL>
0

>  <SCORE.SYSTEM.SOLV>
0

>  <SCORE.SYSTEM.norm>
0

>  <SCORE.heavy>
22

>  <SCORE.norm>
-0.388039

>  <RMSD>
6.749

$$$$
ligand
 OpenBabel02271912143D
libRbt.so/2013.1/901 2013/11/27
 22 23  0  0  0  0  0  0  0  0999 V2000
  -28.7759    0.8383  -13.0064 N   0  0  0  0  0  0  0  0  0  0  0  0
  -30.5734    0.8365  -10.1391 C   0  0  1  0  0  0  0  0  0  0  0  0
  -30.3349    0.2048  -11.4290 O   0  0  0  0  0  0  0  0  0  0  0  0
  -32.7327    3.7533   -9.0488 P   0  0  1  0  0  0  0  0  0  0  0  0
  -28.9364    0.3301  -11.7339 C   0  0  2  0  0  0  0  0  0  0  0  0
  -29.1765    1.8897  -14.8625 N   0  0  0  0  0  0  0  0  0  0  0  0
  -27.0312    1.2120  -10.5988 O   0  0  0  0  0  0  0  0  0  0  0  0
  -28.4403    1.3686  -10.8031 C   0  0  2  0  0  0  0  0  0  0  0  0
  -25.7408    2.1192  -15.8398 N   0  0  0  0  0  0  0  0  0  0  0  0
  -28.7751   -0.0079   -8.8952 O   0  0  0  0  0  0  0  0  0  0  0  0
  -29.2344    1.1583   -9.5989 C   0  0  2  0  0  0  0  0  0  0  0  0
  -27.9291    1.3985  -14.9200 C   0  0  0  0  0  0  0  0  0  0  0  0
  -26.4592    0.0953  -13.4020 N   0  0  0  0  0  0  0  0  0  0  0  0
  -31.8453    2.4645   -9.1502 O   0  0  0  0  0  0  0  0  0  0  0  0
  -31.3697    2.0694  -10.3958 C   0  0  0  0  0  0  0  0  0  0  0  0
  -33.9694    3.4100   -9.9560 O   0  0  0  0  0  0  0  0  0  0  0  0
  -29.7025    1.5349  -13.6746 C   0  0  0  0  0  0  0  0  0  0  0  0
  -27.3226    1.1821  -17.1833 O   0  0  0  0  0  0  0  0  0  0  0  0
  -26.9971    1.5456  -16.0533 C   0  0  0  0  0  0  0  0  0  0  0  0
  -27.6685    0.7377  -13.7535 C   0  0  0  0  0  0  0  0  0  0  0  0
  -33.0678    4.0211   -7.6191 O   0  5  0  0  0  0  0  0  0  0  0  0
  -31.9522    4.9538   -9.3986 O   0  0  0  0  0  0  0  0  0  0  0  0
  1 17  1  0  0  0  0
  1 20  1  0  0  0  0
  2 15  1  6  0  0  0
  2  3  1  0  0  0  0
  2 11  1  0  0  0  0
  3  5  1  0  0  0  0
  4 16  1  6  0  0  0
  4 21  1  0  0  0  0
  4 22  2  0  0  0  0
  4 14  1  0  0  0  0
  5  1  1  6  0  0  0
  5  8  1  0  0  0  0
  6 17  2  0  0  0  0
  6 12  1  0  0  0  0
  8  7  1  1  0  0  0
  8 11  1  0  0  0  0
  9 19  1  0  0  0  0
 11 10  1  6  0  0  0
 12 20  2  0  0  0  0
 12 19  1  0  0  0  0
 13 20  1  0  0  0  0
 14 15  1  0  0  0  0
 18 19  2  0  0  0  0
M  CHG  1  21  -1
M  END
>  <CHROM.1>
21.45834725,166.19540801,60.38665562,179.78135430,123.65614787,-29.71296864
1.83594379,-11.62260325,-0.67573117,-0.63388093,1.86400552

>  <Name>
ligand

>  <RI>
0

>  <Rbt.Current_Directory>
/home/itssahil/PROJECTS/Mol_Feturizer/Test_systems_manuscript/rnas/4xwf

>  <Rbt.Executable>
rbdock ($Id: //depot/dev/client3/rdock/2013.1/src/exe/rbdock.cxx#4 $)

>  <Rbt.Library>
libRbt.so (2013.1, Build901 2013/11/27)

>  <Rbt.Parameter_File>
/export/apps/rDock/src/rDock_2013.1_src/data/scripts/dock_solv.prm

>  <Rbt.Receptor>
prm/pocket_docking_6.prm

>  <SCORE>
-8.53901

>  <SCORE.INTER>
-7.80765

>  <SCORE.INTER.CONST>
1

>  <SCORE.INTER.POLAR>
0

>  <SCORE.INTER.ROT>
5

>  <SCORE.INTER.SOLV>
11.9715

>  <SCORE.INTER.VDW>
-16.1289

>  <SCORE.INTER.norm>
-0.354893

>  <SCORE.INTRA>
-0.731362

>  <SCORE.INTRA.DIHEDRAL>
-1.36864

>  <SCORE.INTRA.DIHEDRAL.0>
3.49807

>  <SCORE.INTRA.POLAR>
0

>  <SCORE.INTRA.POLAR.0>
0

>  <SCORE.INTRA.REPUL>
0

>  <SCORE.INTRA.REPUL.0>
0

>  <SCORE.INTRA.SOLV>
0.418139

>  <SCORE.INTRA.SOLV.lig_0>
-73.062

>  <SCORE.INTRA.VDW>
-0.25611

>  <SCORE.INTRA.VDW.0>
-1.83782

>  <SCORE.INTRA.norm>
-0.0332437

>  <SCORE.RESTR>
0

>  <SCORE.RESTR.CAVITY>
0

>  <SCORE.RESTR.norm>
0

>  <SCORE.SYSTEM>
0

>  <SCORE.SYSTEM.CONST>
0

>  <SCORE.SYSTEM.DIHEDRAL>
0

>  <SCORE.SYSTEM.SOLV>
0

>  <SCORE.SYSTEM.norm>
0

>  <SCORE.heavy>
22

>  <SCORE.norm>
-0.388137

>  <RMSD>
6.749

$$$$
ligand
 OpenBabel02271912143D
libRbt.so/2013.1/901 2013/11/27
 22 23  0  0  0  0  0  0  0  0999 V2000
  -29.1164   -0.2936   -8.9032 N   0  0  0  0  0  0  0  0  0  0  0  0
  -30.3177    2.2568  -10.7754 C   0  0  1  0  0  0  0  0  0  0  0  0
  -29.5209    1.8600   -9.6232 O   0  0  0  0  0  0  0  0  0  0  0  0
  -33.3921    3.3933   -8.8751 P   0  0  1  0  0  0  0  0  0  0  0  0
  -28.8940    0.6035   -9.9274 C   0  0  2  0  0  0  0  0  0  0  0  0
  -30.1393   -1.6130   -7.5162 N   0  0  0  0  0  0  0  0  0  0  0  0
  -28.8121   -0.8266  -11.8364 O   0  0  0  0  0  0  0  0  0  0  0  0
  -29.6332    0.0891  -11.1020 C   0  0  2  0  0  0  0  0  0  0  0  0
  -27.4636   -1.9727   -5.2316 N   0  0  0  0  0  0  0  0  0  0  0  0
  -28.8194    1.8118  -12.5223 O   0  0  0  0  0  0  0  0  0  0  0  0
  -29.9776    1.2944  -11.8461 C   0  0  2  0  0  0  0  0  0  0  0  0
  -28.8199   -1.7112   -7.2923 C   0  0  0  0  0  0  0  0  0  0  0  0
  -26.7703   -0.7113   -8.2735 N   0  0  0  0  0  0  0  0  0  0  0  0
  -31.9802    3.2315   -9.5376 O   0  0  0  0  0  0  0  0  0  0  0  0
  -31.7492    2.1470  -10.3767 C   0  0  0  0  0  0  0  0  0  0  0  0
  -34.3637    3.4486  -10.1094 O   0  0  0  0  0  0  0  0  0  0  0  0
  -30.3211   -0.7268   -8.5137 C   0  0  0  0  0  0  0  0  0  0  0  0
  -28.2609   -3.7918   -6.3457 O   0  0  0  0  0  0  0  0  0  0  0  0
  -28.1804   -2.5656   -6.2745 C   0  0  0  0  0  0  0  0  0  0  0  0
  -28.1689   -0.8855   -8.1640 C   0  0  0  0  0  0  0  0  0  0  0  0
  -33.6416    2.2568   -7.9402 O   0  5  0  0  0  0  0  0  0  0  0  0
  -33.4076    4.5429   -7.9526 O   0  0  0  0  0  0  0  0  0  0  0  0
  1 17  1  0  0  0  0
  1 20  1  0  0  0  0
  2 15  1  1  0  0  0
  2  3  1  0  0  0  0
  2 11  1  0  0  0  0
  3  5  1  0  0  0  0
  4 16  1  6  0  0  0
  4 21  1  0  0  0  0
  4 22  2  0  0  0  0
  4 14  1  0  0  0  0
  5  1  1  1  0  0  0
  5  8  1  0  0  0  0
  6 17  2  0  0  0  0
  6 12  1  0  0  0  0
  8  7  1  6  0  0  0
  8 11  1  0  0  0  0
  9 19  1  0  0  0  0
 11 10  1  1  0  0  0
 12 20  2  0  0  0  0
 12 19  1  0  0  0  0
 13 20  1  0  0  0  0
 14 15  1  0  0  0  0
 18 19  2  0  0  0  0
M  CHG  1  21  -1
M  END
>  <CHROM.1>
61.63096770,74.17192999,-57.73163040,-177.37973145,-116.07403539,-30.33363835
0.77766787,-9.06896321,-0.59864957,0.66932877,-1.11419198

>  <Name>
ligand

>  <RI>
0

>  <Rbt.Current_Directory>
/home/itssahil/PROJECTS/Mol_Feturizer/Test_systems_manuscript/rnas/4xwf

>  <Rbt.Executable>
rbdock ($Id: //depot/dev/client3/rdock/2013.1/src/exe/rbdock.cxx#4 $)

>  <Rbt.Library>
libRbt.so (2013.1, Build901 2013/11/27)

>  <Rbt.Parameter_File>
/export/apps/rDock/src/rDock_2013.1_src/data/scripts/dock_solv.prm

>  <Rbt.Receptor>
prm/pocket_docking_8.prm

>  <SCORE>
-10.429

>  <SCORE.INTER>
-9.37029

>  <SCORE.INTER.CONST>
1

>  <SCORE.INTER.POLAR>
0

>  <SCORE.INTER.ROT>
5

>  <SCORE.INTER.SOLV>
12.5014

>  <SCORE.INTER.VDW>
-17.3473

>  <SCORE.INTER.norm>
-0.425922

>  <SCORE.INTRA>
-1.05869

>  <SCORE.INTRA.DIHEDRAL>
-1.21863

>  <SCORE.INTRA.DIHEDRAL.0>
3.49807

>  <SCORE.INTRA.POLAR>
0

>  <SCORE.INTRA.POLAR.0>
0

>  <SCORE.INTRA.REPUL>
0

>  <SCORE.INTRA.REPUL.0>
0

>  <SCORE.INTRA.SOLV>
-0.930348

>  <SCORE.INTRA.SOLV.lig_0>
-73.062

>  <SCORE.INTRA.VDW>
0.0157921

>  <SCORE.INTRA.VDW.0>
-1.83782

>  <SCORE.INTRA.norm>
-0.0481225

>  <SCORE.RESTR>
0

>  <SCORE.RESTR.CAVITY>
0

>  <SCORE.RESTR.norm>
0

>  <SCORE.SYSTEM>
0

>  <SCORE.SYSTEM.CONST>
0

>  <SCORE.SYSTEM.DIHEDRAL>
0

>  <SCORE.SYSTEM.SOLV>
0

>  <SCORE.SYSTEM.norm>
0

>  <SCORE.heavy>
22

>  <SCORE.norm>
-0.474045

>  <RMSD>
6.751

$$$$
ligand
 OpenBabel02271912143D
libRbt.so/2013.1/901 2013/11/27
 22 23  0  0  0  0  0  0  0  0999 V2000
  -28.9741    0.6484  -12.4814 N   0  0  0  0  0  0  0  0  0  0  0  0
  -30.9577    0.8680   -9.7484 C   0  0  1  0  0  0  0  0  0  0  0  0
  -30.6711    0.1710  -10.9941 O   0  0  0  0  0  0  0  0  0  0  0  0
  -32.9748    3.9656   -8.9147 P   0  0  1  0  0  0  0  0  0  0  0  0
  -29.2502    0.2033  -11.2052 C   0  0  2  0  0  0  0  0  0  0  0  0
  -29.1883    1.6367  -14.4019 N   0  0  0  0  0  0  0  0  0  0  0  0
  -27.3764    1.0206   -9.9737 O   0  0  0  0  0  0  0  0  0  0  0  0
  -28.7565    1.2491  -10.2815 C   0  0  2  0  0  0  0  0  0  0  0  0
  -27.2439    1.7983  -16.6122 N   0  0  0  0  0  0  0  0  0  0  0  0
  -29.3012   -0.0259   -8.3515 O   0  0  0  0  0  0  0  0  0  0  0  0
  -29.6413    1.1346   -9.1285 C   0  0  2  0  0  0  0  0  0  0  0  0
  -27.9658    1.0861  -14.3482 C   0  0  0  0  0  0  0  0  0  0  0  0
  -26.6746   -0.2177  -12.6759 N   0  0  0  0  0  0  0  0  0  0  0  0
  -32.1749    2.6170   -8.9084 O   0  0  0  0  0  0  0  0  0  0  0  0
  -31.6594    2.1329  -10.1058 C   0  0  0  0  0  0  0  0  0  0  0  0
  -34.1745    3.6669   -9.8853 O   0  0  0  0  0  0  0  0  0  0  0  0
  -29.8149    1.3580  -13.2430 C   0  0  0  0  0  0  0  0  0  0  0  0
  -25.8528    0.6016  -15.2636 O   0  0  0  0  0  0  0  0  0  0  0  0
  -26.9489    1.1410  -15.4147 C   0  0  0  0  0  0  0  0  0  0  0  0
  -27.8223    0.4645  -13.1405 C   0  0  0  0  0  0  0  0  0  0  0  0
  -33.3776    4.3173   -7.5211 O   0  5  0  0  0  0  0  0  0  0  0  0
  -32.0926    5.0947   -9.2605 O   0  0  0  0  0  0  0  0  0  0  0  0
  1 17  1  0  0  0  0
  1 20  1  0  0  0  0
  2 15  1  6  0  0  0
  2  3  1  0  0  0  0
  2 11  1  0  0  0  0
  3  5  1  0  0  0  0
  4 16  1  6  0  0  0
  4 21  1  0  0  0  0
  4 22  2  0  0  0  0
  4 14  1  0  0  0  0
  5  1  1  6  0  0  0
  5  8  1  0  0  0  0
  6 17  2  0  0  0  0
  6 12  1  0  0  0  0
  8  7  1  1  0  0  0
  8 11  1  0  0  0  0
  9 19  1  0  0  0  0
 11 10  1  1  0  0  0
 12 20  2  0  0  0  0
 12 19  1  0  0  0  0
 13 20  1  0  0  0  0
 14 15  1  0  0  0  0
 18 19  2  0  0  0  0
M  CHG  1  21  -1
M  END
>  <CHROM.1>
20.79298695,167.13217956,59.99624864,179.38052039,-0.89584509,-29.93079005
1.76189363,-11.20182761,-0.55308459,-0.68417184,1.91442335

>  <Name>
ligand

>  <RI>
0

>  <Rbt.Current_Directory>
/home/itssahil/PROJECTS/Mol_Feturizer/Test_systems_manuscript/rnas/4xwf

>  <Rbt.Executable>
rbdock ($Id: //depot/dev/client3/rdock/2013.1/src/exe/rbdock.cxx#4 $)

>  <Rbt.Library>
libRbt.so (2013.1, Build901 2013/11/27)

>  <Rbt.Parameter_File>
/export/apps/rDock/src/rDock_2013.1_src/data/scripts/dock_solv.prm

>  <Rbt.Receptor>
prm/pocket_docking_7.prm

>  <SCORE>
-8.50733

>  <SCORE.INTER>
-7.88048

>  <SCORE.INTER.CONST>
1

>  <SCORE.INTER.POLAR>
0

>  <SCORE.INTER.ROT>
5

>  <SCORE.INTER.SOLV>
12.4101

>  <SCORE.INTER.VDW>
-16.3237

>  <SCORE.INTER.norm>
-0.358204

>  <SCORE.INTRA>
-0.626855

>  <SCORE.INTRA.DIHEDRAL>
-1.46415

>  <SCORE.INTRA.DIHEDRAL.0>
3.49807

>  <SCORE.INTRA.POLAR>
0

>  <SCORE.INTRA.POLAR.0>
0

>  <SCORE.INTRA.REPUL>
0

>  <SCORE.INTRA.REPUL.0>
0

>  <SCORE.INTRA.SOLV>
0.369495

>  <SCORE.INTRA.SOLV.lig_0>
-73.062

>  <SCORE.INTRA.VDW>
-0.0795256

>  <SCORE.INTRA.VDW.0>
-1.83782

>  <SCORE.INTRA.norm>
-0.0284934

>  <SCORE.RESTR>
0

>  <SCORE.RESTR.CAVITY>
0

>  <SCORE.RESTR.norm>
0

>  <SCORE.SYSTEM>
0

>  <SCORE.SYSTEM.CONST>
0

>  <SCORE.SYSTEM.DIHEDRAL>
0

>  <SCORE.SYSTEM.SOLV>
0

>  <SCORE.SYSTEM.norm>
0

>  <SCORE.heavy>
22

>  <SCORE.norm>
-0.386697

>  <RMSD>
6.766

$$$$
ligand
 OpenBabel02271912143D
libRbt.so/2013.1/901 2013/11/27
 22 23  0  0  0  0  0  0  0  0999 V2000
  -29.0255    0.4402  -12.1776 N   0  0  0  0  0  0  0  0  0  0  0  0
  -30.5109    0.6103   -9.1416 C   0  0  1  0  0  0  0  0  0  0  0  0
  -30.6064    0.1576  -10.5221 O   0  0  0  0  0  0  0  0  0  0  0  0
  -32.8989    3.5246   -9.2178 P   0  0  1  0  0  0  0  0  0  0  0  0
  -29.2842   -0.1791  -10.9723 C   0  0  2  0  0  0  0  0  0  0  0  0
  -29.2459    1.7199  -13.9168 N   0  0  0  0  0  0  0  0  0  0  0  0
  -27.1206   -0.2409   -9.9669 O   0  0  0  0  0  0  0  0  0  0  0  0
  -28.3793    0.4427   -9.9798 C   0  0  2  0  0  0  0  0  0  0  0  0
  -25.7329    1.4978  -14.7719 N   0  0  0  0  0  0  0  0  0  0  0  0
  -29.0835   -1.0166   -8.2415 O   0  0  0  0  0  0  0  0  0  0  0  0
  -29.1176    0.3358   -8.7273 C   0  0  2  0  0  0  0  0  0  0  0  0
  -28.0567    1.1036  -13.9981 C   0  0  0  0  0  0  0  0  0  0  0  0
  -26.7886   -0.5065  -12.5969 N   0  0  0  0  0  0  0  0  0  0  0  0
  -32.1453    2.1767   -9.4897 O   0  0  0  0  0  0  0  0  0  0  0  0
  -30.8039    2.0712   -9.1386 C   0  0  0  0  0  0  0  0  0  0  0  0
  -34.2351    3.3588  -10.0288 O   0  0  0  0  0  0  0  0  0  0  0  0
  -29.8484    1.3011  -12.7876 C   0  0  0  0  0  0  0  0  0  0  0  0
  -27.4303    1.2159  -16.2636 O   0  0  0  0  0  0  0  0  0  0  0  0
  -27.0748    1.2667  -15.0862 C   0  0  0  0  0  0  0  0  0  0  0  0
  -27.9094    0.2983  -12.9048 C   0  0  0  0  0  0  0  0  0  0  0  0
  -33.0845    3.7088   -7.7483 O   0  5  0  0  0  0  0  0  0  0  0  0
  -32.0446    4.6778   -9.5540 O   0  0  0  0  0  0  0  0  0  0  0  0
  1 17  1  0  0  0  0
  1 20  1  0  0  0  0
  2 15  1  6  0  0  0
  2  3  1  0  0  0  0
  2 11  1  0  0  0  0
  3  5  1  0  0  0  0
  4 16  1  6  0  0  0
  4 21  1  0  0  0  0
  4 22  2  0  0  0  0
  4 14  1  0  0  0  0
  5  1  1  6  0  0  0
  5  8  1  0  0  0  0
  6 17  2  0  0  0  0
  6 12  1  0  0  0  0
  8  7  1  1  0  0  0
  8 11  1  0  0  0  0
  9 19  1  0  0  0  0
 11 10  1  6  0  0  0
 12 20  2  0  0  0  0
 12 19  1  0  0  0  0
 13 20  1  0  0  0  0
 14 15  1  0  0  0  0
 18 19  2  0  0  0  0
M  CHG  1  21  -1
M  END
>  <CHROM.1>
4.36027815,67.25006224,167.59431267,163.74754926,132.14317478,-29.82818000
1.42916066,-11.04341398,-0.48320424,-0.67185120,1.99947876

>  <Name>
ligand

>  <RI>
0

>  <Rbt.Current_Directory>
/home/itssahil/PROJECTS/Mol_Feturizer/Test_systems_manuscript/rnas/4xwf

>  <Rbt.Executable>
rbdock ($Id: //depot/dev/client3/rdock/2013.1/src/exe/rbdock.cxx#4 $)

>  <Rbt.Library>
libRbt.so (2013.1, Build901 2013/11/27)

>  <Rbt.Parameter_File>
/export/apps/rDock/src/rDock_2013.1_src/data/scripts/dock_solv.prm

>  <Rbt.Receptor>
prm/pocket_docking_8.prm

>  <SCORE>
-6.79232

>  <SCORE.INTER>
-7.85371

>  <SCORE.INTER.CONST>
1

>  <SCORE.INTER.POLAR>
0

>  <SCORE.INTER.ROT>
5

>  <SCORE.INTER.SOLV>
14.1423

>  <SCORE.INTER.VDW>
-16.8833

>  <SCORE.INTER.norm>
-0.356987

>  <SCORE.INTRA>
1.06138

>  <SCORE.INTRA.DIHEDRAL>
-0.101258

>  <SCORE.INTRA.DIHEDRAL.0>
3.49807

>  <SCORE.INTRA.POLAR>
0

>  <SCORE.INTRA.POLAR.0>
0

>  <SCORE.INTRA.REPUL>
0

>  <SCORE.INTRA.REPUL.0>
0

>  <SCORE.INTRA.SOLV>
1.77943

>  <SCORE.INTRA.SOLV.lig_0>
-73.062

>  <SCORE.INTRA.VDW>
0.222299

>  <SCORE.INTRA.VDW.0>
-1.83782

>  <SCORE.INTRA.norm>
0.0482447

>  <SCORE.RESTR>
0

>  <SCORE.RESTR.CAVITY>
0

>  <SCORE.RESTR.norm>
0

>  <SCORE.SYSTEM>
0

>  <SCORE.SYSTEM.CONST>
0

>  <SCORE.SYSTEM.DIHEDRAL>
0

>  <SCORE.SYSTEM.SOLV>
0

>  <SCORE.SYSTEM.norm>
0

>  <SCORE.heavy>
22

>  <SCORE.norm>
-0.308742

>  <RMSD>
6.773

$$$$
ligand
 OpenBabel02271912143D
libRbt.so/2013.1/901 2013/11/27
 22 23  0  0  0  0  0  0  0  0999 V2000
  -29.0118    0.6069  -12.2350 N   0  0  0  0  0  0  0  0  0  0  0  0
  -31.0403    0.9432   -9.5472 C   0  0  1  0  0  0  0  0  0  0  0  0
  -30.7388    0.1989  -10.7617 O   0  0  0  0  0  0  0  0  0  0  0  0
  -33.0461    4.0844   -8.8624 P   0  0  1  0  0  0  0  0  0  0  0  0
  -29.3143    0.2109  -10.9486 C   0  0  2  0  0  0  0  0  0  0  0  0
  -29.2234    1.4251  -14.2343 N   0  0  0  0  0  0  0  0  0  0  0  0
  -27.4544    1.0556   -9.7145 O   0  0  0  0  0  0  0  0  0  0  0  0
  -28.8267    1.2851  -10.0547 C   0  0  2  0  0  0  0  0  0  0  0  0
  -26.1716    0.0596  -15.4802 N   0  0  0  0  0  0  0  0  0  0  0  0
  -29.4170    0.0858   -8.0899 O   0  0  0  0  0  0  0  0  0  0  0  0
  -29.7324    1.2204   -8.9142 C   0  0  2  0  0  0  0  0  0  0  0  0
  -27.9424    1.0641  -14.0627 C   0  0  0  0  0  0  0  0  0  0  0  0
  -26.6048    0.0761  -12.2194 N   0  0  0  0  0  0  0  0  0  0  0  0
  -32.2608    2.7289   -8.7936 O   0  0  0  0  0  0  0  0  0  0  0  0
  -31.7236    2.2005   -9.9624 C   0  0  0  0  0  0  0  0  0  0  0  0
  -34.2342    3.7618   -9.8396 O   0  0  0  0  0  0  0  0  0  0  0  0
  -29.8870    1.1342  -13.0991 C   0  0  0  0  0  0  0  0  0  0  0  0
  -26.5738    2.3006  -15.5239 O   0  0  0  0  0  0  0  0  0  0  0  0
  -26.8686    1.1973  -15.0647 C   0  0  0  0  0  0  0  0  0  0  0  0
  -27.8007    0.5508  -12.8050 C   0  0  0  0  0  0  0  0  0  0  0  0
  -33.4660    4.4919   -7.4893 O   0  5  0  0  0  0  0  0  0  0  0  0
  -32.1467    5.1907   -9.2363 O   0  0  0  0  0  0  0  0  0  0  0  0
  1 17  1  0  0  0  0
  1 20  1  0  0  0  0
  2 15  1  6  0  0  0
  2  3  1  0  0  0  0
  2 11  1  0  0  0  0
  3  5  1  0  0  0  0
  4 16  1  6  0  0  0
  4 21  1  0  0  0  0
  4 22  2  0  0  0  0
  4 14  1  0  0  0  0
  5  1  1  6  0  0  0
  5  8  1  0  0  0  0
  6 17  2  0  0  0  0
  6 12  1  0  0  0  0
  8  7  1  1  0  0  0
  8 11  1  0  0  0  0
  9 19  1  0  0  0  0
 11 10  1  1  0  0  0
 12 20  2  0  0  0  0
 12 19  1  0  0  0  0
 13 20  1  0  0  0  0
 14 15  1  0  0  0  0
 18 19  2  0  0  0  0
M  CHG  1  21  -1
M  END
>  <CHROM.1>
11.29497046,166.84657150,60.49362484,179.22850344,-121.56288851,-29.96673840
1.82230362,-10.99485607,-0.48415021,-0.69580224,1.96736068

>  <Name>
ligand

>  <RI>
0

>  <Rbt.Current_Directory>
/home/itssahil/PROJECTS/Mol_Feturizer/Test_systems_manuscript/rnas/4xwf

>  <Rbt.Executable>
rbdock ($Id: //depot/dev/client3/rdock/2013.1/src/exe/rbdock.cxx#4 $)

>  <Rbt.Library>
libRbt.so (2013.1, Build901 2013/11/27)

>  <Rbt.Parameter_File>
/export/apps/rDock/src/rDock_2013.1_src/data/scripts/dock_solv.prm

>  <Rbt.Receptor>
prm/pocket_docking_7.prm

>  <SCORE>
-8.54058

>  <SCORE.INTER>
-8.1763

>  <SCORE.INTER.CONST>
1

>  <SCORE.INTER.POLAR>
0

>  <SCORE.INTER.ROT>
5

>  <SCORE.INTER.SOLV>
12.0566

>  <SCORE.INTER.VDW>
-16.4031

>  <SCORE.INTER.norm>
-0.37165

>  <SCORE.INTRA>
-0.364279

>  <SCORE.INTRA.DIHEDRAL>
-1.42514

>  <SCORE.INTRA.DIHEDRAL.0>
3.49807

>  <SCORE.INTRA.POLAR>
0

>  <SCORE.INTRA.POLAR.0>
0

>  <SCORE.INTRA.REPUL>
0

>  <SCORE.INTRA.REPUL.0>
0

>  <SCORE.INTRA.SOLV>
0.832162

>  <SCORE.INTRA.SOLV.lig_0>
-73.062

>  <SCORE.INTRA.VDW>
-0.0677904

>  <SCORE.INTRA.VDW.0>
-1.83782

>  <SCORE.INTRA.norm>
-0.0165581

>  <SCORE.RESTR>
0

>  <SCORE.RESTR.CAVITY>
0

>  <SCORE.RESTR.norm>
0

>  <SCORE.SYSTEM>
0

>  <SCORE.SYSTEM.CONST>
0

>  <SCORE.SYSTEM.DIHEDRAL>
0

>  <SCORE.SYSTEM.SOLV>
0

>  <SCORE.SYSTEM.norm>
0

>  <SCORE.heavy>
22

>  <SCORE.norm>
-0.388208

>  <RMSD>
6.774

$$$$
ligand
 OpenBabel02271912143D
libRbt.so/2013.1/901 2013/11/27
 22 23  0  0  0  0  0  0  0  0999 V2000
  -29.0621    0.6269  -12.2453 N   0  0  0  0  0  0  0  0  0  0  0  0
  -31.0647    0.9077   -9.5318 C   0  0  1  0  0  0  0  0  0  0  0  0
  -30.7391    0.1539  -10.7341 O   0  0  0  0  0  0  0  0  0  0  0  0
  -33.2065    3.9648   -8.8795 P   0  0  1  0  0  0  0  0  0  0  0  0
  -29.3208    0.2443  -10.9454 C   0  0  2  0  0  0  0  0  0  0  0  0
  -29.3355    1.4429  -14.2380 N   0  0  0  0  0  0  0  0  0  0  0  0
  -27.4945    1.2245   -9.7623 O   0  0  0  0  0  0  0  0  0  0  0  0
  -28.8831    1.3657  -10.0843 C   0  0  2  0  0  0  0  0  0  0  0  0
  -27.3645    1.6616  -16.4197 N   0  0  0  0  0  0  0  0  0  0  0  0
  -29.3713    0.1807   -8.0832 O   0  0  0  0  0  0  0  0  0  0  0  0
  -29.7655    1.2753   -8.9274 C   0  0  2  0  0  0  0  0  0  0  0  0
  -28.0587    1.0474  -14.1186 C   0  0  0  0  0  0  0  0  0  0  0  0
  -26.6720    0.0300  -12.3283 N   0  0  0  0  0  0  0  0  0  0  0  0
  -32.3547    2.6510   -8.7950 O   0  0  0  0  0  0  0  0  0  0  0  0
  -31.8268    2.1131   -9.9636 C   0  0  0  0  0  0  0  0  0  0  0  0
  -34.3473    3.5884   -9.8931 O   0  0  0  0  0  0  0  0  0  0  0  0
  -29.9582    1.1748  -13.0744 C   0  0  0  0  0  0  0  0  0  0  0  0
  -25.8743    0.7682  -14.9477 O   0  0  0  0  0  0  0  0  0  0  0  0
  -27.0250    1.1471  -15.1655 C   0  0  0  0  0  0  0  0  0  0  0  0
  -27.8782    0.5352  -12.8655 C   0  0  0  0  0  0  0  0  0  0  0  0
  -33.6868    4.3406   -7.5171 O   0  5  0  0  0  0  0  0  0  0  0  0
  -32.3548    5.1185   -9.2206 O   0  0  0  0  0  0  0  0  0  0  0  0
  1 17  1  0  0  0  0
  1 20  1  0  0  0  0
  2 15  1  6  0  0  0
  2  3  1  0  0  0  0
  2 11  1  0  0  0  0
  3  5  1  0  0  0  0
  4 16  1  6  0  0  0
  4 21  1  0  0  0  0
  4 22  2  0  0  0  0
  4 14  1  0  0  0  0
  5  1  1  6  0  0  0
  5  8  1  0  0  0  0
  6 17  2  0  0  0  0
  6 12  1  0  0  0  0
  8  7  1  1  0  0  0
  8 11  1  0  0  0  0
  9 19  1  0  0  0  0
 11 10  1  1  0  0  0
 12 20  2  0  0  0  0
 12 19  1  0  0  0  0
 13 20  1  0  0  0  0
 14 15  1  0  0  0  0
 18 19  2  0  0  0  0
M  CHG  1  21  -1
M  END
>  <CHROM.1>
16.54351371,167.94067182,56.50793714,178.89460692,-1.69817865,-30.06356436
1.79195821,-11.02560513,-0.56725978,-0.63294908,1.85431970

>  <Name>
ligand

>  <RI>
0

>  <Rbt.Current_Directory>
/home/itssahil/PROJECTS/Mol_Feturizer/Test_systems_manuscript/rnas/4xwf

>  <Rbt.Executable>
rbdock ($Id: //depot/dev/client3/rdock/2013.1/src/exe/rbdock.cxx#4 $)

>  <Rbt.Library>
libRbt.so (2013.1, Build901 2013/11/27)

>  <Rbt.Parameter_File>
/export/apps/rDock/src/rDock_2013.1_src/data/scripts/dock_solv.prm

>  <Rbt.Receptor>
prm/pocket_docking_5.prm

>  <SCORE>
-8.77413

>  <SCORE.INTER>
-8.32258

>  <SCORE.INTER.CONST>
1

>  <SCORE.INTER.POLAR>
0

>  <SCORE.INTER.ROT>
5

>  <SCORE.INTER.SOLV>
12.9312

>  <SCORE.INTER.VDW>
-16.7921

>  <SCORE.INTER.norm>
-0.378299

>  <SCORE.INTRA>
-0.451544

>  <SCORE.INTRA.DIHEDRAL>
-1.48468

>  <SCORE.INTRA.DIHEDRAL.0>
3.49807

>  <SCORE.INTRA.POLAR>
0

>  <SCORE.INTRA.POLAR.0>
0

>  <SCORE.INTRA.REPUL>
0

>  <SCORE.INTRA.REPUL.0>
0

>  <SCORE.INTRA.SOLV>
0.528292

>  <SCORE.INTRA.SOLV.lig_0>
-73.062

>  <SCORE.INTRA.VDW>
0.0266509

>  <SCORE.INTRA.VDW.0>
-1.83782

>  <SCORE.INTRA.norm>
-0.0205247

>  <SCORE.RESTR>
0

>  <SCORE.RESTR.CAVITY>
0

>  <SCORE.RESTR.norm>
0

>  <SCORE.SYSTEM>
0

>  <SCORE.SYSTEM.CONST>
0

>  <SCORE.SYSTEM.DIHEDRAL>
0

>  <SCORE.SYSTEM.SOLV>
0

>  <SCORE.SYSTEM.norm>
0

>  <SCORE.heavy>
22

>  <SCORE.norm>
-0.398824

>  <RMSD>
6.797

$$$$
ligand
 OpenBabel02271912143D
libRbt.so/2013.1/901 2013/11/27
 22 23  0  0  0  0  0  0  0  0999 V2000
  -29.2053    0.3365  -11.9114 N   0  0  0  0  0  0  0  0  0  0  0  0
  -30.6800    0.6386   -8.8804 C   0  0  1  0  0  0  0  0  0  0  0  0
  -30.7742    0.1141  -10.2354 O   0  0  0  0  0  0  0  0  0  0  0  0
  -33.1015    3.5153   -9.1818 P   0  0  1  0  0  0  0  0  0  0  0  0
  -29.4487   -0.2242  -10.6746 C   0  0  2  0  0  0  0  0  0  0  0  0
  -29.4548    1.5199  -13.7137 N   0  0  0  0  0  0  0  0  0  0  0  0
  -27.2801   -0.2000   -9.6785 O   0  0  0  0  0  0  0  0  0  0  0  0
  -28.5496    0.4620   -9.7199 C   0  0  2  0  0  0  0  0  0  0  0  0
  -27.5566    1.9003  -15.9380 N   0  0  0  0  0  0  0  0  0  0  0  0
  -29.2227   -0.9172   -7.9056 O   0  0  0  0  0  0  0  0  0  0  0  0
  -29.2806    0.4078   -8.4599 C   0  0  2  0  0  0  0  0  0  0  0  0
  -28.2545    0.9224  -13.7676 C   0  0  0  0  0  0  0  0  0  0  0  0
  -26.9523   -0.5890  -12.2900 N   0  0  0  0  0  0  0  0  0  0  0  0
  -32.3299    2.1594   -9.3397 O   0  0  0  0  0  0  0  0  0  0  0  0
  -30.9965    2.0929   -8.9507 C   0  0  0  0  0  0  0  0  0  0  0  0
  -34.3874    3.3009  -10.0599 O   0  0  0  0  0  0  0  0  0  0  0  0
  -30.0460    1.1492  -12.5619 C   0  0  0  0  0  0  0  0  0  0  0  0
  -26.2343    0.3966  -14.8536 O   0  0  0  0  0  0  0  0  0  0  0  0
  -27.2791    1.0471  -14.8666 C   0  0  0  0  0  0  0  0  0  0  0  0
  -28.0889    0.1778  -12.6347 C   0  0  0  0  0  0  0  0  0  0  0  0
  -33.3733    3.7733   -7.7370 O   0  5  0  0  0  0  0  0  0  0  0  0
  -32.2318    4.6544   -9.5263 O   0  0  0  0  0  0  0  0  0  0  0  0
  1 17  1  0  0  0  0
  1 20  1  0  0  0  0
  2 15  1  6  0  0  0
  2  3  1  0  0  0  0
  2 11  1  0  0  0  0
  3  5  1  0  0  0  0
  4 16  1  6  0  0  0
  4 21  1  0  0  0  0
  4 22  2  0  0  0  0
  4 14  1  0  0  0  0
  5  1  1  6  0  0  0
  5  8  1  0  0  0  0
  6 17  2  0  0  0  0
  6 12  1  0  0  0  0
  8  7  1  1  0  0  0
  8 11  1  0  0  0  0
  9 19  1  0  0  0  0
 11 10  1  6  0  0  0
 12 20  2  0  0  0  0
 12 19  1  0  0  0  0
 13 20  1  0  0  0  0
 14 15  1  0  0  0  0
 18 19  2  0  0  0  0
M  CHG  1  21  -1
M  END
>  <CHROM.1>
4.18698412,65.48343668,165.28226935,165.28920249,3.27245742,-30.01543579
1.37149611,-10.85063198,-0.47064782,-0.66763721,1.96296312

>  <Name>
ligand

>  <RI>
0

>  <Rbt.Current_Directory>
/home/itssahil/PROJECTS/Mol_Feturizer/Test_systems_manuscript/rnas/4xwf

>  <Rbt.Executable>
rbdock ($Id: //depot/dev/client3/rdock/2013.1/src/exe/rbdock.cxx#4 $)

>  <Rbt.Library>
libRbt.so (2013.1, Build901 2013/11/27)

>  <Rbt.Parameter_File>
/export/apps/rDock/src/rDock_2013.1_src/data/scripts/dock_solv.prm

>  <Rbt.Receptor>
prm/pocket_docking_6.prm

>  <SCORE>
-7.24116

>  <SCORE.INTER>
-8.24376

>  <SCORE.INTER.CONST>
1

>  <SCORE.INTER.POLAR>
0

>  <SCORE.INTER.ROT>
5

>  <SCORE.INTER.SOLV>
15.4841

>  <SCORE.INTER.VDW>
-17.5905

>  <SCORE.INTER.norm>
-0.374716

>  <SCORE.INTRA>
1.0026

>  <SCORE.INTRA.DIHEDRAL>
-0.4502

>  <SCORE.INTRA.DIHEDRAL.0>
3.49807

>  <SCORE.INTRA.POLAR>
0

>  <SCORE.INTRA.POLAR.0>
0

>  <SCORE.INTRA.REPUL>
0

>  <SCORE.INTRA.REPUL.0>
0

>  <SCORE.INTRA.SOLV>
1.64542

>  <SCORE.INTRA.SOLV.lig_0>
-73.062

>  <SCORE.INTRA.VDW>
0.404989

>  <SCORE.INTRA.VDW.0>
-1.83782

>  <SCORE.INTRA.norm>
0.0455727

>  <SCORE.RESTR>
0

>  <SCORE.RESTR.CAVITY>
0

>  <SCORE.RESTR.norm>
0

>  <SCORE.SYSTEM>
0

>  <SCORE.SYSTEM.CONST>
0

>  <SCORE.SYSTEM.DIHEDRAL>
0

>  <SCORE.SYSTEM.SOLV>
0

>  <SCORE.SYSTEM.norm>
0

>  <SCORE.heavy>
22

>  <SCORE.norm>
-0.329144

>  <RMSD>
6.805

$$$$
ligand
 OpenBabel02271912143D
libRbt.so/2013.1/901 2013/11/27
 22 23  0  0  0  0  0  0  0  0999 V2000
  -29.7585    2.9628   -9.6614 N   0  0  0  0  0  0  0  0  0  0  0  0
  -33.0998    2.6070  -10.0633 C   0  0  1  0  0  0  0  0  0  0  0  0
  -31.9014    3.3528  -10.4202 O   0  0  0  0  0  0  0  0  0  0  0  0
  -34.1253    5.3067   -7.6386 P   0  0  1  0  0  0  0  0  0  0  0  0
  -30.7912    2.4409  -10.4127 C   0  0  2  0  0  0  0  0  0  0  0  0
  -28.6861    3.9667   -8.0635 N   0  0  0  0  0  0  0  0  0  0  0  0
  -30.5327    0.0951  -10.0571 O   0  0  0  0  0  0  0  0  0  0  0  0
  -31.2843    1.2541   -9.6784 C   0  0  2  0  0  0  0  0  0  0  0  0
  -25.7778    4.3590   -7.7695 N   0  0  0  0  0  0  0  0  0  0  0  0
  -32.8370    0.6903  -11.3867 O   0  0  0  0  0  0  0  0  0  0  0  0
  -32.6936    1.1847  -10.0446 C   0  0  2  0  0  0  0  0  0  0  0  0
  -27.7854    3.4755   -8.9285 C   0  0  0  0  0  0  0  0  0  0  0  0
  -27.8739    2.1667  -11.0363 N   0  0  0  0  0  0  0  0  0  0  0  0
  -33.9515    4.3823   -8.8932 O   0  0  0  0  0  0  0  0  0  0  0  0
  -33.5194    3.0731   -8.7117 C   0  0  0  0  0  0  0  0  0  0  0  0
  -35.4577    6.0819   -7.9458 O   0  0  0  0  0  0  0  0  0  0  0  0
  -29.9116    3.6519   -8.5247 C   0  0  0  0  0  0  0  0  0  0  0  0
  -25.5779    3.0632   -9.6314 O   0  0  0  0  0  0  0  0  0  0  0  0
  -26.3209    3.6031   -8.8120 C   0  0  0  0  0  0  0  0  0  0  0  0
  -28.4531    2.8393   -9.9359 C   0  0  0  0  0  0  0  0  0  0  0  0
  -34.1645    4.4725   -6.4015 O   0  5  0  0  0  0  0  0  0  0  0  0
  -32.9126    6.1133   -7.4121 O   0  0  0  0  0  0  0  0  0  0  0  0
  1 17  1  0  0  0  0
  1 20  1  0  0  0  0
  2 15  1  1  0  0  0
  2  3  1  0  0  0  0
  2 11  1  0  0  0  0
  3  5  1  0  0  0  0
  4 16  1  6  0  0  0
  4 21  1  0  0  0  0
  4 22  2  0  0  0  0
  4 14  1  0  0  0  0
  5  1  1  1  0  0  0
  5  8  1  0  0  0  0
  6 17  2  0  0  0  0
  6 12  1  0  0  0  0
  8  7  1  6  0  0  0
  8 11  1  0  0  0  0
  9 19  1  0  0  0  0
 11 10  1  6  0  0  0
 12 20  2  0  0  0  0
 12 19  1  0  0  0  0
 13 20  1  0  0  0  0
 14 15  1  0  0  0  0
 18 19  2  0  0  0  0
M  CHG  1  21  -1
M  END
>  <CHROM.1>
38.21444433,68.62818209,-138.99213224,-164.67192087,-4.05823721,-31.08101660
3.36753375,-9.06280623,0.30217930,-0.00005002,-2.49791640

>  <Name>
ligand

>  <RI>
0

>  <Rbt.Current_Directory>
/home/itssahil/PROJECTS/Mol_Feturizer/Test_systems_manuscript/rnas/4xwf

>  <Rbt.Executable>
rbdock ($Id: //depot/dev/client3/rdock/2013.1/src/exe/rbdock.cxx#4 $)

>  <Rbt.Library>
libRbt.so (2013.1, Build901 2013/11/27)

>  <Rbt.Parameter_File>
/export/apps/rDock/src/rDock_2013.1_src/data/scripts/dock_solv.prm

>  <Rbt.Receptor>
prm/pocket_docking_4.prm

>  <SCORE>
-4.48037

>  <SCORE.INTER>
-5.27249

>  <SCORE.INTER.CONST>
1

>  <SCORE.INTER.POLAR>
0

>  <SCORE.INTER.ROT>
5

>  <SCORE.INTER.SOLV>
10.2774

>  <SCORE.INTER.VDW>
-13.8741

>  <SCORE.INTER.norm>
-0.239659

>  <SCORE.INTRA>
0.792115

>  <SCORE.INTRA.DIHEDRAL>
1.12274

>  <SCORE.INTRA.DIHEDRAL.0>
3.49807

>  <SCORE.INTRA.POLAR>
0

>  <SCORE.INTRA.POLAR.0>
0

>  <SCORE.INTRA.REPUL>
0

>  <SCORE.INTRA.REPUL.0>
0

>  <SCORE.INTRA.SOLV>
0.520562

>  <SCORE.INTRA.SOLV.lig_0>
-73.062

>  <SCORE.INTRA.VDW>
-0.0295336

>  <SCORE.INTRA.VDW.0>
-1.83782

>  <SCORE.INTRA.norm>
0.0360052

>  <SCORE.RESTR>
0

>  <SCORE.RESTR.CAVITY>
0

>  <SCORE.RESTR.norm>
0

>  <SCORE.SYSTEM>
0

>  <SCORE.SYSTEM.CONST>
0

>  <SCORE.SYSTEM.DIHEDRAL>
0

>  <SCORE.SYSTEM.SOLV>
0

>  <SCORE.SYSTEM.norm>
0

>  <SCORE.heavy>
22

>  <SCORE.norm>
-0.203653

>  <RMSD>
6.807

$$$$
ligand
 OpenBabel02271912143D
libRbt.so/2013.1/901 2013/11/27
 22 23  0  0  0  0  0  0  0  0999 V2000
  -29.1709    0.6504  -12.0527 N   0  0  0  0  0  0  0  0  0  0  0  0
  -31.2215    0.9888   -9.3820 C   0  0  1  0  0  0  0  0  0  0  0  0
  -30.8532    0.1913  -10.5432 O   0  0  0  0  0  0  0  0  0  0  0  0
  -33.3954    4.0516   -8.8918 P   0  0  1  0  0  0  0  0  0  0  0  0
  -29.4358    0.3201  -10.7398 C   0  0  2  0  0  0  0  0  0  0  0  0
  -29.4400    1.3693  -14.0830 N   0  0  0  0  0  0  0  0  0  0  0  0
  -27.6609    1.4160   -9.5801 O   0  0  0  0  0  0  0  0  0  0  0  0
  -29.0485    1.4946   -9.9266 C   0  0  2  0  0  0  0  0  0  0  0  0
  -27.4554    1.5071  -16.2598 N   0  0  0  0  0  0  0  0  0  0  0  0
  -29.5264    0.3880   -7.8786 O   0  0  0  0  0  0  0  0  0  0  0  0
  -29.9444    1.4281   -8.7785 C   0  0  2  0  0  0  0  0  0  0  0  0
  -28.1556    1.0113  -13.9320 C   0  0  0  0  0  0  0  0  0  0  0  0
  -26.7661    0.1098  -12.0826 N   0  0  0  0  0  0  0  0  0  0  0  0
  -32.5703    2.7265   -8.7439 O   0  0  0  0  0  0  0  0  0  0  0  0
  -32.0170    2.1460   -9.8800 C   0  0  0  0  0  0  0  0  0  0  0  0
  -34.4908    3.6757   -9.9545 O   0  0  0  0  0  0  0  0  0  0  0  0
  -30.0700    1.1382  -12.9154 C   0  0  0  0  0  0  0  0  0  0  0  0
  -25.9492    0.7771  -14.7158 O   0  0  0  0  0  0  0  0  0  0  0  0
  -27.1120    1.0897  -14.9710 C   0  0  0  0  0  0  0  0  0  0  0  0
  -27.9777    0.5605  -12.6552 C   0  0  0  0  0  0  0  0  0  0  0  0
  -33.9361    4.4579   -7.5612 O   0  5  0  0  0  0  0  0  0  0  0  0
  -32.5093    5.1861   -9.2089 O   0  0  0  0  0  0  0  0  0  0  0  0
  1 17  1  0  0  0  0
  1 20  1  0  0  0  0
  2 15  1  6  0  0  0
  2  3  1  0  0  0  0
  2 11  1  0  0  0  0
  3  5  1  0  0  0  0
  4 16  1  6  0  0  0
  4 21  1  0  0  0  0
  4 22  2  0  0  0  0
  4 14  1  0  0  0  0
  5  1  1  6  0  0  0
  5  8  1  0  0  0  0
  6 17  2  0  0  0  0
  6 12  1  0  0  0  0
  8  7  1  1  0  0  0
  8 11  1  0  0  0  0
  9 19  1  0  0  0  0
 11 10  1  1  0  0  0
 12 20  2  0  0  0  0
 12 19  1  0  0  0  0
 13 20  1  0  0  0  0
 14 15  1  0  0  0  0
 18 19  2  0  0  0  0
M  CHG  1  21  -1
M  END
>  <CHROM.1>
17.10063150,168.45145537,55.21140524,175.54351249,-3.28164551,-30.20707798
1.84828343,-10.90030523,-0.56164938,-0.61192917,1.81543147

>  <Name>
ligand

>  <RI>
0

>  <Rbt.Current_Directory>
/home/itssahil/PROJECTS/Mol_Feturizer/Test_systems_manuscript/rnas/4xwf

>  <Rbt.Executable>
rbdock ($Id: //depot/dev/client3/rdock/2013.1/src/exe/rbdock.cxx#4 $)

>  <Rbt.Library>
libRbt.so (2013.1, Build901 2013/11/27)

>  <Rbt.Parameter_File>
/export/apps/rDock/src/rDock_2013.1_src/data/scripts/dock_solv.prm

>  <Rbt.Receptor>
prm/pocket_docking_8.prm

>  <SCORE>
-8.69703

>  <SCORE.INTER>
-8.30539

>  <SCORE.INTER.CONST>
1

>  <SCORE.INTER.POLAR>
0

>  <SCORE.INTER.ROT>
5

>  <SCORE.INTER.SOLV>
14.079

>  <SCORE.INTER.VDW>
-17.1633

>  <SCORE.INTER.norm>
-0.377518

>  <SCORE.INTRA>
-0.391638

>  <SCORE.INTRA.DIHEDRAL>
-1.40379

>  <SCORE.INTRA.DIHEDRAL.0>
3.49807

>  <SCORE.INTRA.POLAR>
0

>  <SCORE.INTRA.POLAR.0>
0

>  <SCORE.INTRA.REPUL>
0

>  <SCORE.INTRA.REPUL.0>
0

>  <SCORE.INTRA.SOLV>
0.557316

>  <SCORE.INTRA.SOLV.lig_0>
-73.062

>  <SCORE.INTRA.VDW>
0.0316007

>  <SCORE.INTRA.VDW.0>
-1.83782

>  <SCORE.INTRA.norm>
-0.0178017

>  <SCORE.RESTR>
0

>  <SCORE.RESTR.CAVITY>
0

>  <SCORE.RESTR.norm>
0

>  <SCORE.SYSTEM>
0

>  <SCORE.SYSTEM.CONST>
0

>  <SCORE.SYSTEM.DIHEDRAL>
0

>  <SCORE.SYSTEM.SOLV>
0

>  <SCORE.SYSTEM.norm>
0

>  <SCORE.heavy>
22

>  <SCORE.norm>
-0.395319

>  <RMSD>
6.813

$$$$
ligand
 OpenBabel02271912143D
libRbt.so/2013.1/901 2013/11/27
 22 23  0  0  0  0  0  0  0  0999 V2000
  -29.1814    0.6306  -12.0496 N   0  0  0  0  0  0  0  0  0  0  0  0
  -31.2347    0.9406   -9.3774 C   0  0  1  0  0  0  0  0  0  0  0  0
  -30.8476    0.1417  -10.5314 O   0  0  0  0  0  0  0  0  0  0  0  0
  -33.3995    4.0028   -8.8914 P   0  0  1  0  0  0  0  0  0  0  0  0
  -29.4345    0.3065  -10.7327 C   0  0  2  0  0  0  0  0  0  0  0  0
  -29.4747    1.3196  -14.0868 N   0  0  0  0  0  0  0  0  0  0  0  0
  -27.6872    1.4612   -9.5883 O   0  0  0  0  0  0  0  0  0  0  0  0
  -29.0772    1.4991   -9.9323 C   0  0  2  0  0  0  0  0  0  0  0  0
  -27.4888    1.5450  -16.2541 N   0  0  0  0  0  0  0  0  0  0  0  0
  -29.5207    0.4006   -7.8722 O   0  0  0  0  0  0  0  0  0  0  0  0
  -29.9685    1.4201   -8.7814 C   0  0  2  0  0  0  0  0  0  0  0  0
  -28.1799    1.0018  -13.9343 C   0  0  0  0  0  0  0  0  0  0  0  0
  -26.7617    0.1618  -12.0778 N   0  0  0  0  0  0  0  0  0  0  0  0
  -32.6433    2.6360   -8.7550 O   0  0  0  0  0  0  0  0  0  0  0  0
  -32.0621    2.0710   -9.8849 C   0  0  0  0  0  0  0  0  0  0  0  0
  -34.5582    3.6729   -9.9008 O   0  0  0  0  0  0  0  0  0  0  0  0
  -30.0959    1.0822  -12.9158 C   0  0  0  0  0  0  0  0  0  0  0  0
  -25.9772    0.7806  -14.7320 O   0  0  0  0  0  0  0  0  0  0  0  0
  -27.1406    1.1003  -14.9758 C   0  0  0  0  0  0  0  0  0  0  0  0
  -27.9869    0.5700  -12.6530 C   0  0  0  0  0  0  0  0  0  0  0  0
  -33.8597    4.4587   -7.5467 O   0  5  0  0  0  0  0  0  0  0  0  0
  -32.4664    5.0810   -9.2648 O   0  0  0  0  0  0  0  0  0  0  0  0
  1 17  1  0  0  0  0
  1 20  1  0  0  0  0
  2 15  1  6  0  0  0
  2  3  1  0  0  0  0
  2 11  1  0  0  0  0
  3  5  1  0  0  0  0
  4 16  1  6  0  0  0
  4 21  1  0  0  0  0
  4 22  2  0  0  0  0
  4 14  1  0  0  0  0
  5  1  1  6  0  0  0
  5  8  1  0  0  0  0
  6 17  2  0  0  0  0
  6 12  1  0  0  0  0
  8  7  1  1  0  0  0
  8 11  1  0  0  0  0
  9 19  1  0  0  0  0
 11 10  1  1  0  0  0
 12 20  2  0  0  0  0
 12 19  1  0  0  0  0
 13 20  1  0  0  0  0
 14 15  1  0  0  0  0
 18 19  2  0  0  0  0
M  CHG  1  21  -1
M  END
>  <CHROM.1>
16.92015804,167.62977129,61.23247219,170.07011191,-0.72941938,-30.22142741
1.82809800,-10.90037746,-0.57040866,-0.60401869,1.81064002

>  <Name>
ligand

>  <RI>
0

>  <Rbt.Current_Directory>
/home/itssahil/PROJECTS/Mol_Feturizer/Test_systems_manuscript/rnas/4xwf

>  <Rbt.Executable>
rbdock ($Id: //depot/dev/client3/rdock/2013.1/src/exe/rbdock.cxx#4 $)

>  <Rbt.Library>
libRbt.so (2013.1, Build901 2013/11/27)

>  <Rbt.Parameter_File>
/export/apps/rDock/src/rDock_2013.1_src/data/scripts/dock_solv.prm

>  <Rbt.Receptor>
prm/pocket_docking_4.prm

>  <SCORE>
-8.51186

>  <SCORE.INTER>
-8.2777

>  <SCORE.INTER.CONST>
1

>  <SCORE.INTER.POLAR>
0

>  <SCORE.INTER.ROT>
5

>  <SCORE.INTER.SOLV>
14.056

>  <SCORE.INTER.VDW>
-17.1371

>  <SCORE.INTER.norm>
-0.376259

>  <SCORE.INTRA>
-0.234153

>  <SCORE.INTRA.DIHEDRAL>
-1.02866

>  <SCORE.INTRA.DIHEDRAL.0>
3.49807

>  <SCORE.INTRA.POLAR>
0

>  <SCORE.INTRA.POLAR.0>
0

>  <SCORE.INTRA.REPUL>
0

>  <SCORE.INTRA.REPUL.0>
0

>  <SCORE.INTRA.SOLV>
0.704532

>  <SCORE.INTRA.SOLV.lig_0>
-73.062

>  <SCORE.INTRA.VDW>
-0.0720873

>  <SCORE.INTRA.VDW.0>
-1.83782

>  <SCORE.INTRA.norm>
-0.0106433

>  <SCORE.RESTR>
0

>  <SCORE.RESTR.CAVITY>
0

>  <SCORE.RESTR.norm>
0

>  <SCORE.SYSTEM>
0

>  <SCORE.SYSTEM.CONST>
0

>  <SCORE.SYSTEM.DIHEDRAL>
0

>  <SCORE.SYSTEM.SOLV>
0

>  <SCORE.SYSTEM.norm>
0

>  <SCORE.heavy>
22

>  <SCORE.norm>
-0.386903

>  <RMSD>
6.822

$$$$
ligand
 OpenBabel02271912143D
libRbt.so/2013.1/901 2013/11/27
 22 23  0  0  0  0  0  0  0  0999 V2000
  -28.9141    0.7313  -12.5235 N   0  0  0  0  0  0  0  0  0  0  0  0
  -30.9374    0.8669   -9.8142 C   0  0  1  0  0  0  0  0  0  0  0  0
  -30.6060    0.1818  -11.0554 O   0  0  0  0  0  0  0  0  0  0  0  0
  -33.1247    3.8540   -9.0114 P   0  0  1  0  0  0  0  0  0  0  0  0
  -29.1856    0.2759  -11.2499 C   0  0  2  0  0  0  0  0  0  0  0  0
  -29.1828    1.6089  -14.4904 N   0  0  0  0  0  0  0  0  0  0  0  0
  -27.3638    1.1756   -9.9978 O   0  0  0  0  0  0  0  0  0  0  0  0
  -28.7489    1.3432  -10.3221 C   0  0  2  0  0  0  0  0  0  0  0  0
  -25.8988    0.5102  -15.5992 N   0  0  0  0  0  0  0  0  0  0  0  0
  -29.2600    0.0476   -8.3966 O   0  0  0  0  0  0  0  0  0  0  0  0
  -29.6413    1.1914   -9.1794 C   0  0  2  0  0  0  0  0  0  0  0  0
  -27.8847    1.3035  -14.3417 C   0  0  0  0  0  0  0  0  0  0  0  0
  -26.4847    0.3154  -12.5453 N   0  0  0  0  0  0  0  0  0  0  0  0
  -32.3054    2.5171   -9.0070 O   0  0  0  0  0  0  0  0  0  0  0  0
  -31.6894    2.0996  -10.1817 C   0  0  0  0  0  0  0  0  0  0  0  0
  -34.3036    3.5493  -10.0055 O   0  0  0  0  0  0  0  0  0  0  0  0
  -29.8213    1.2466  -13.3614 C   0  0  0  0  0  0  0  0  0  0  0  0
  -26.7499    2.5930  -15.9500 O   0  0  0  0  0  0  0  0  0  0  0  0
  -26.8278    1.5231  -15.3464 C   0  0  0  0  0  0  0  0  0  0  0  0
  -27.7071    0.7532  -13.1044 C   0  0  0  0  0  0  0  0  0  0  0  0
  -33.5558    4.1836   -7.6210 O   0  5  0  0  0  0  0  0  0  0  0  0
  -32.2534    4.9996   -9.3295 O   0  0  0  0  0  0  0  0  0  0  0  0
  1 17  1  0  0  0  0
  1 20  1  0  0  0  0
  2 15  1  6  0  0  0
  2  3  1  0  0  0  0
  2 11  1  0  0  0  0
  3  5  1  0  0  0  0
  4 16  1  6  0  0  0
  4 21  1  0  0  0  0
  4 22  2  0  0  0  0
  4 14  1  0  0  0  0
  5  1  1  6  0  0  0
  5  8  1  0  0  0  0
  6 17  2  0  0  0  0
  6 12  1  0  0  0  0
  8  7  1  1  0  0  0
  8 11  1  0  0  0  0
  9 19  1  0  0  0  0
 11 10  1  1  0  0  0
 12 20  2  0  0  0  0
 12 19  1  0  0  0  0
 13 20  1  0  0  0  0
 14 15  1  0  0  0  0
 18 19  2  0  0  0  0
M  CHG  1  21  -1
M  END
>  <CHROM.1>
11.64397440,163.66441317,64.16439531,176.45152189,-135.12148764,-29.92999296
1.84407746,-11.23787503,-0.52371972,-0.64085889,1.97024765

>  <Name>
ligand

>  <RI>
0

>  <Rbt.Current_Directory>
/home/itssahil/PROJECTS/Mol_Feturizer/Test_systems_manuscript/rnas/4xwf

>  <Rbt.Executable>
rbdock ($Id: //depot/dev/client3/rdock/2013.1/src/exe/rbdock.cxx#4 $)

>  <Rbt.Library>
libRbt.so (2013.1, Build901 2013/11/27)

>  <Rbt.Parameter_File>
/export/apps/rDock/src/rDock_2013.1_src/data/scripts/dock_solv.prm

>  <Rbt.Receptor>
prm/pocket_docking_4.prm

>  <SCORE>
-7.99299

>  <SCORE.INTER>
-7.9447

>  <SCORE.INTER.CONST>
1

>  <SCORE.INTER.POLAR>
0

>  <SCORE.INTER.ROT>
5

>  <SCORE.INTER.SOLV>
12.6651

>  <SCORE.INTER.VDW>
-16.4515

>  <SCORE.INTER.norm>
-0.361123

>  <SCORE.INTRA>
-0.0482896

>  <SCORE.INTRA.DIHEDRAL>
-0.827936

>  <SCORE.INTRA.DIHEDRAL.0>
3.49807

>  <SCORE.INTRA.POLAR>
0

>  <SCORE.INTRA.POLAR.0>
0

>  <SCORE.INTRA.REPUL>
0

>  <SCORE.INTRA.REPUL.0>
0

>  <SCORE.INTRA.SOLV>
0.953223

>  <SCORE.INTRA.SOLV.lig_0>
-73.062

>  <SCORE.INTRA.VDW>
-0.110933

>  <SCORE.INTRA.VDW.0>
-1.83782

>  <SCORE.INTRA.norm>
-0.00219498

>  <SCORE.RESTR>
0

>  <SCORE.RESTR.CAVITY>
0

>  <SCORE.RESTR.norm>
0

>  <SCORE.SYSTEM>
0

>  <SCORE.SYSTEM.CONST>
0

>  <SCORE.SYSTEM.DIHEDRAL>
0

>  <SCORE.SYSTEM.SOLV>
0

>  <SCORE.SYSTEM.norm>
0

>  <SCORE.heavy>
22

>  <SCORE.norm>
-0.363318

>  <RMSD>
6.834

$$$$
ligand
 OpenBabel02271912143D
libRbt.so/2013.1/901 2013/11/27
 22 23  0  0  0  0  0  0  0  0999 V2000
  -29.2329    0.7047  -11.9896 N   0  0  0  0  0  0  0  0  0  0  0  0
  -31.3143    0.9683   -9.3343 C   0  0  1  0  0  0  0  0  0  0  0  0
  -30.9098    0.1857  -10.4935 O   0  0  0  0  0  0  0  0  0  0  0  0
  -33.4845    4.0313   -8.8484 P   0  0  1  0  0  0  0  0  0  0  0  0
  -29.4962    0.3637  -10.6791 C   0  0  2  0  0  0  0  0  0  0  0  0
  -29.5283    1.3291  -14.0473 N   0  0  0  0  0  0  0  0  0  0  0  0
  -27.7693    1.5189   -9.5047 O   0  0  0  0  0  0  0  0  0  0  0  0
  -29.1561    1.5499   -9.8618 C   0  0  2  0  0  0  0  0  0  0  0  0
  -26.1815    0.4206  -15.0442 N   0  0  0  0  0  0  0  0  0  0  0  0
  -29.6109    0.4247   -7.8187 O   0  0  0  0  0  0  0  0  0  0  0  0
  -30.0578    1.4509   -8.7206 C   0  0  2  0  0  0  0  0  0  0  0  0
  -28.2107    1.1840  -13.8385 C   0  0  0  0  0  0  0  0  0  0  0  0
  -26.7737    0.5544  -11.9144 N   0  0  0  0  0  0  0  0  0  0  0  0
  -32.6846    2.6908   -8.7006 O   0  0  0  0  0  0  0  0  0  0  0  0
  -32.1457    2.0980   -9.8372 C   0  0  0  0  0  0  0  0  0  0  0  0
  -34.5655    3.6862   -9.9359 O   0  0  0  0  0  0  0  0  0  0  0  0
  -30.1615    1.0247  -12.8984 C   0  0  0  0  0  0  0  0  0  0  0  0
  -27.1055    2.4555  -15.4814 O   0  0  0  0  0  0  0  0  0  0  0  0
  -27.1507    1.4063  -14.8393 C   0  0  0  0  0  0  0  0  0  0  0  0
  -28.0166    0.7939  -12.5441 C   0  0  0  0  0  0  0  0  0  0  0  0
  -34.0436    4.4314   -7.5236 O   0  5  0  0  0  0  0  0  0  0  0  0
  -32.5737    5.1541   -9.1354 O   0  0  0  0  0  0  0  0  0  0  0  0
  1 17  1  0  0  0  0
  1 20  1  0  0  0  0
  2 15  1  6  0  0  0
  2  3  1  0  0  0  0
  2 11  1  0  0  0  0
  3  5  1  0  0  0  0
  4 16  1  6  0  0  0
  4 21  1  0  0  0  0
  4 22  2  0  0  0  0
  4 14  1  0  0  0  0
  5  1  1  6  0  0  0
  5  8  1  0  0  0  0
  6 17  2  0  0  0  0
  6 12  1  0  0  0  0
  8  7  1  1  0  0  0
  8 11  1  0  0  0  0
  9 19  1  0  0  0  0
 11 10  1  1  0  0  0
 12 20  2  0  0  0  0
 12 19  1  0  0  0  0
 13 20  1  0  0  0  0
 14 15  1  0  0  0  0
 18 19  2  0  0  0  0
M  CHG  1  21  -1
M  END
>  <CHROM.1>
9.55479918,170.77310653,53.75439672,172.71943233,-129.25604434,-30.28231215
1.92786682,-10.82908066,-0.52163193,-0.61698381,1.89926858

>  <Name>
ligand

>  <RI>
0

>  <Rbt.Current_Directory>
/home/itssahil/PROJECTS/Mol_Feturizer/Test_systems_manuscript/rnas/4xwf

>  <Rbt.Executable>
rbdock ($Id: //depot/dev/client3/rdock/2013.1/src/exe/rbdock.cxx#4 $)

>  <Rbt.Library>
libRbt.so (2013.1, Build901 2013/11/27)

>  <Rbt.Parameter_File>
/export/apps/rDock/src/rDock_2013.1_src/data/scripts/dock_solv.prm

>  <Rbt.Receptor>
prm/pocket_docking_4.prm

>  <SCORE>
-8.1582

>  <SCORE.INTER>
-8.13562

>  <SCORE.INTER.CONST>
1

>  <SCORE.INTER.POLAR>
0

>  <SCORE.INTER.ROT>
5

>  <SCORE.INTER.SOLV>
13.4538

>  <SCORE.INTER.VDW>
-16.8417

>  <SCORE.INTER.norm>
-0.369801

>  <SCORE.INTRA>
-0.0225868

>  <SCORE.INTRA.DIHEDRAL>
-1.28078

>  <SCORE.INTRA.DIHEDRAL.0>
3.49807

>  <SCORE.INTRA.POLAR>
0

>  <SCORE.INTRA.POLAR.0>
0

>  <SCORE.INTRA.REPUL>
0

>  <SCORE.INTRA.REPUL.0>
0

>  <SCORE.INTRA.SOLV>
1.03868

>  <SCORE.INTRA.SOLV.lig_0>
-73.062

>  <SCORE.INTRA.VDW>
0.0984621

>  <SCORE.INTRA.VDW.0>
-1.83782

>  <SCORE.INTRA.norm>
-0.00102667

>  <SCORE.RESTR>
0

>  <SCORE.RESTR.CAVITY>
0

>  <SCORE.RESTR.norm>
0

>  <SCORE.SYSTEM>
0

>  <SCORE.SYSTEM.CONST>
0

>  <SCORE.SYSTEM.DIHEDRAL>
0

>  <SCORE.SYSTEM.SOLV>
0

>  <SCORE.SYSTEM.norm>
0

>  <SCORE.heavy>
22

>  <SCORE.norm>
-0.370827

>  <RMSD>
6.844

$$$$
ligand
 OpenBabel02271912143D
libRbt.so/2013.1/901 2013/11/27
 22 23  0  0  0  0  0  0  0  0999 V2000
  -28.1643    2.8026  -11.7480 N   0  0  0  0  0  0  0  0  0  0  0  0
  -31.0079    1.2700  -10.7390 C   0  0  1  0  0  0  0  0  0  0  0  0
  -30.1632    1.6572  -11.8599 O   0  0  0  0  0  0  0  0  0  0  0  0
  -33.4703    3.1145   -8.5322 P   0  0  1  0  0  0  0  0  0  0  0  0
  -28.7959    1.6208  -11.4200 C   0  0  2  0  0  0  0  0  0  0  0  0
  -27.7140    4.9219  -11.8785 N   0  0  0  0  0  0  0  0  0  0  0  0
  -27.6862    1.0047   -9.3988 O   0  0  0  0  0  0  0  0  0  0  0  0
  -28.8771    1.5861   -9.9425 C   0  0  2  0  0  0  0  0  0  0  0  0
  -25.3455    6.2232  -13.0622 N   0  0  0  0  0  0  0  0  0  0  0  0
  -29.8349   -0.5887   -9.9241 O   0  0  0  0  0  0  0  0  0  0  0  0
  -30.0815    0.8068   -9.6828 C   0  0  2  0  0  0  0  0  0  0  0  0
  -26.7344    4.2464  -12.4987 C   0  0  0  0  0  0  0  0  0  0  0  0
  -26.2163    1.8561  -12.9249 N   0  0  0  0  0  0  0  0  0  0  0  0
  -32.6227    2.0536   -9.3162 O   0  0  0  0  0  0  0  0  0  0  0  0
  -31.7563    2.4863  -10.3141 C   0  0  0  0  0  0  0  0  0  0  0  0
  -34.4126    3.7107   -9.6399 O   0  0  0  0  0  0  0  0  0  0  0  0
  -28.6044    4.0225  -11.4183 C   0  0  0  0  0  0  0  0  0  0  0  0
  -24.7780    4.1457  -13.8024 O   0  0  0  0  0  0  0  0  0  0  0  0
  -25.5594    4.8455  -13.1584 C   0  0  0  0  0  0  0  0  0  0  0  0
  -27.0093    2.9110  -12.4181 C   0  0  0  0  0  0  0  0  0  0  0  0
  -34.1847    2.4510   -7.4020 O   0  5  0  0  0  0  0  0  0  0  0  0
  -32.5933    4.0567   -7.8141 O   0  0  0  0  0  0  0  0  0  0  0  0
  1 17  1  0  0  0  0
  1 20  1  0  0  0  0
  2 15  1  1  0  0  0
  2  3  1  0  0  0  0
  2 11  1  0  0  0  0
  3  5  1  0  0  0  0
  4 16  1  6  0  0  0
  4 21  1  0  0  0  0
  4 22  2  0  0  0  0
  4 14  1  0  0  0  0
  5  1  1  1  0  0  0
  5  8  1  0  0  0  0
  6 17  2  0  0  0  0
  6 12  1  0  0  0  0
  8  7  1  1  0  0  0
  8 11  1  0  0  0  0
  9 19  1  0  0  0  0
 11 10  1  6  0  0  0
 12 20  2  0  0  0  0
 12 19  1  0  0  0  0
 13 20  1  0  0  0  0
 14 15  1  0  0  0  0
 18 19  2  0  0  0  0
M  CHG  1  21  -1
M  END
>  <CHROM.1>
53.77917502,175.52816838,64.90179806,173.77409347,5.69368086,-29.68177421
2.76418005,-10.66042385,-0.24639406,-0.49100445,2.95730277

>  <Name>
ligand

>  <RI>
0

>  <Rbt.Current_Directory>
/home/itssahil/PROJECTS/Mol_Feturizer/Test_systems_manuscript/rnas/4xwf

>  <Rbt.Executable>
rbdock ($Id: //depot/dev/client3/rdock/2013.1/src/exe/rbdock.cxx#4 $)

>  <Rbt.Library>
libRbt.so (2013.1, Build901 2013/11/27)

>  <Rbt.Parameter_File>
/export/apps/rDock/src/rDock_2013.1_src/data/scripts/dock_solv.prm

>  <Rbt.Receptor>
prm/pocket_docking_3.prm

>  <SCORE>
-4.57849

>  <SCORE.INTER>
-3.55449

>  <SCORE.INTER.CONST>
1

>  <SCORE.INTER.POLAR>
0

>  <SCORE.INTER.ROT>
5

>  <SCORE.INTER.SOLV>
9.56577

>  <SCORE.INTER.VDW>
-12.4916

>  <SCORE.INTER.norm>
-0.161568

>  <SCORE.INTRA>
-1.024

>  <SCORE.INTRA.DIHEDRAL>
-1.67513

>  <SCORE.INTRA.DIHEDRAL.0>
3.49807

>  <SCORE.INTRA.POLAR>
0

>  <SCORE.INTRA.POLAR.0>
0

>  <SCORE.INTRA.REPUL>
0

>  <SCORE.INTRA.REPUL.0>
0

>  <SCORE.INTRA.SOLV>
-0.559638

>  <SCORE.INTRA.SOLV.lig_0>
-73.062

>  <SCORE.INTRA.VDW>
0.0933841

>  <SCORE.INTRA.VDW.0>
-1.83782

>  <SCORE.INTRA.norm>
-0.0465455

>  <SCORE.RESTR>
0

>  <SCORE.RESTR.CAVITY>
0

>  <SCORE.RESTR.norm>
0

>  <SCORE.SYSTEM>
0

>  <SCORE.SYSTEM.CONST>
0

>  <SCORE.SYSTEM.DIHEDRAL>
0

>  <SCORE.SYSTEM.SOLV>
0

>  <SCORE.SYSTEM.norm>
0

>  <SCORE.heavy>
22

>  <SCORE.norm>
-0.208113

>  <RMSD>
6.856

$$$$
ligand
 OpenBabel02271912143D
libRbt.so/2013.1/901 2013/11/27
 22 23  0  0  0  0  0  0  0  0999 V2000
  -28.5035    3.5802  -14.2896 N   0  0  0  0  0  0  0  0  0  0  0  0
  -29.1817    6.6212  -15.6104 C   0  0  1  0  0  0  0  0  0  0  0  0
  -29.3751    5.7057  -14.4948 O   0  0  0  0  0  0  0  0  0  0  0  0
  -32.5175    5.4559  -16.9787 P   0  0  1  0  0  0  0  0  0  0  0  0
  -28.1807    4.9200  -14.3521 C   0  0  2  0  0  0  0  0  0  0  0  0
  -29.2438    1.6187  -14.8515 N   0  0  0  0  0  0  0  0  0  0  0  0
  -26.0503    4.8718  -15.4269 O   0  0  0  0  0  0  0  0  0  0  0  0
  -27.4482    5.1148  -15.6234 C   0  0  2  0  0  0  0  0  0  0  0  0
  -29.3314    0.2036  -11.6359 N   0  0  0  0  0  0  0  0  0  0  0  0
  -27.0184    7.4069  -15.1663 O   0  0  0  0  0  0  0  0  0  0  0  0
  -27.7582    6.4910  -15.9911 C   0  0  2  0  0  0  0  0  0  0  0  0
  -28.6857    1.5232  -13.6349 C   0  0  0  0  0  0  0  0  0  0  0  0
  -27.5373    3.0791  -12.0780 N   0  0  0  0  0  0  0  0  0  0  0  0
  -31.3222    5.9741  -16.1062 O   0  0  0  0  0  0  0  0  0  0  0  0
  -30.0839    6.1714  -16.7075 C   0  0  0  0  0  0  0  0  0  0  0  0
  -33.5728    4.9995  -15.9070 O   0  0  0  0  0  0  0  0  0  0  0  0
  -29.1346    2.8994  -15.2533 C   0  0  0  0  0  0  0  0  0  0  0  0
  -27.8745   -0.6365  -13.1713 O   0  0  0  0  0  0  0  0  0  0  0  0
  -28.5978    0.2961  -12.8217 C   0  0  0  0  0  0  0  0  0  0  0  0
  -28.2145    2.7537  -13.2756 C   0  0  0  0  0  0  0  0  0  0  0  0
  -32.9863    6.5447  -17.8858 O   0  5  0  0  0  0  0  0  0  0  0  0
  -32.0577    4.4435  -17.9462 O   0  0  0  0  0  0  0  0  0  0  0  0
  1 17  1  0  0  0  0
  1 20  1  0  0  0  0
  2 15  1  6  0  0  0
  2  3  1  0  0  0  0
  2 11  1  0  0  0  0
  3  5  1  0  0  0  0
  4 16  1  1  0  0  0
  4 21  1  0  0  0  0
  4 22  2  0  0  0  0
  4 14  1  0  0  0  0
  5  1  1  6  0  0  0
  5  8  1  0  0  0  0
  6 17  2  0  0  0  0
  6 12  1  0  0  0  0
  8  7  1  1  0  0  0
  8 11  1  0  0  0  0
  9 19  1  0  0  0  0
 11 10  1  1  0  0  0
 12 20  2  0  0  0  0
 12 19  1  0  0  0  0
 13 20  1  0  0  0  0
 14 15  1  0  0  0  0
 18 19  2  0  0  0  0
M  CHG  1  21  -1
M  END
>  <CHROM.1>
60.44007469,48.05947286,165.19550867,-178.49062565,-112.32929835,-29.53408146
4.23641771,-15.13103795,-0.98215431,-0.35330923,-0.46837990

>  <Name>
ligand

>  <RI>
0

>  <Rbt.Current_Directory>
/home/itssahil/PROJECTS/Mol_Feturizer/Test_systems_manuscript/rnas/4xwf

>  <Rbt.Executable>
rbdock ($Id: //depot/dev/client3/rdock/2013.1/src/exe/rbdock.cxx#4 $)

>  <Rbt.Library>
libRbt.so (2013.1, Build901 2013/11/27)

>  <Rbt.Parameter_File>
/export/apps/rDock/src/rDock_2013.1_src/data/scripts/dock_solv.prm

>  <Rbt.Receptor>
prm/pocket_docking_8.prm

>  <SCORE>
-9.76471

>  <SCORE.INTER>
-9.33056

>  <SCORE.INTER.CONST>
1

>  <SCORE.INTER.POLAR>
0

>  <SCORE.INTER.ROT>
5

>  <SCORE.INTER.SOLV>
12.4953

>  <SCORE.INTER.VDW>
-17.3188

>  <SCORE.INTER.norm>
-0.424117

>  <SCORE.INTRA>
-0.434145

>  <SCORE.INTRA.DIHEDRAL>
-1.02979

>  <SCORE.INTRA.DIHEDRAL.0>
3.49807

>  <SCORE.INTRA.POLAR>
0

>  <SCORE.INTRA.POLAR.0>
0

>  <SCORE.INTRA.REPUL>
0

>  <SCORE.INTRA.REPUL.0>
0

>  <SCORE.INTRA.SOLV>
-0.183

>  <SCORE.INTRA.SOLV.lig_0>
-73.062

>  <SCORE.INTRA.VDW>
0.172248

>  <SCORE.INTRA.VDW.0>
-1.83782

>  <SCORE.INTRA.norm>
-0.0197339

>  <SCORE.RESTR>
0

>  <SCORE.RESTR.CAVITY>
0

>  <SCORE.RESTR.norm>
0

>  <SCORE.SYSTEM>
0

>  <SCORE.SYSTEM.CONST>
0

>  <SCORE.SYSTEM.DIHEDRAL>
0

>  <SCORE.SYSTEM.SOLV>
0

>  <SCORE.SYSTEM.norm>
0

>  <SCORE.heavy>
22

>  <SCORE.norm>
-0.44385

>  <RMSD>
6.891

$$$$
ligand
 OpenBabel02271912143D
libRbt.so/2013.1/901 2013/11/27
 22 23  0  0  0  0  0  0  0  0999 V2000
  -28.9334    0.6163  -12.8116 N   0  0  0  0  0  0  0  0  0  0  0  0
  -30.6758    1.1261   -9.9556 C   0  0  1  0  0  0  0  0  0  0  0  0
  -30.6827    0.5884  -11.3087 O   0  0  0  0  0  0  0  0  0  0  0  0
  -33.1280    3.4571   -9.3650 P   0  0  1  0  0  0  0  0  0  0  0  0
  -29.3613    0.1072  -11.6029 C   0  0  2  0  0  0  0  0  0  0  0  0
  -28.8663    1.7890  -14.6368 N   0  0  0  0  0  0  0  0  0  0  0  0
  -27.3174   -0.0727  -10.3839 O   0  0  0  0  0  0  0  0  0  0  0  0
  -28.4998    0.7154  -10.5643 C   0  0  2  0  0  0  0  0  0  0  0  0
  -25.3457    1.3376  -15.1481 N   0  0  0  0  0  0  0  0  0  0  0  0
  -29.4981   -0.5525   -8.8200 O   0  0  0  0  0  0  0  0  0  0  0  0
  -29.3596    0.7607   -9.3880 C   0  0  2  0  0  0  0  0  0  0  0  0
  -27.7410    1.0616  -14.5645 C   0  0  0  0  0  0  0  0  0  0  0  0
  -26.7713   -0.5589  -12.9529 N   0  0  0  0  0  0  0  0  0  0  0  0
  -32.1617    2.8075  -10.4151 O   0  0  0  0  0  0  0  0  0  0  0  0
  -30.8299    2.6036  -10.0707 C   0  0  0  0  0  0  0  0  0  0  0  0
  -32.5111    4.8860   -9.1452 O   0  0  0  0  0  0  0  0  0  0  0  0
  -29.6082    1.5057  -13.5492 C   0  0  0  0  0  0  0  0  0  0  0  0
  -26.8873    0.8287  -16.7450 O   0  0  0  0  0  0  0  0  0  0  0  0
  -26.6520    1.0589  -15.5589 C   0  0  0  0  0  0  0  0  0  0  0  0
  -27.7745    0.3228  -13.4163 C   0  0  0  0  0  0  0  0  0  0  0  0
  -34.5219    3.4591   -9.8987 O   0  5  0  0  0  0  0  0  0  0  0  0
  -33.2676    2.5931   -8.1789 O   0  0  0  0  0  0  0  0  0  0  0  0
  1 17  1  0  0  0  0
  1 20  1  0  0  0  0
  2 15  1  6  0  0  0
  2  3  1  0  0  0  0
  2 11  1  0  0  0  0
  3  5  1  0  0  0  0
  4 16  1  1  0  0  0
  4 21  1  0  0  0  0
  4 22  2  0  0  0  0
  4 14  1  0  0  0  0
  5  1  1  6  0  0  0
  5  8  1  0  0  0  0
  6 17  2  0  0  0  0
  6 12  1  0  0  0  0
  8  7  1  1  0  0  0
  8 11  1  0  0  0  0
  9 19  1  0  0  0  0
 11 10  1  6  0  0  0
 12 20  2  0  0  0  0
 12 19  1  0  0  0  0
 13 20  1  0  0  0  0
 14 15  1  0  0  0  0
 18 19  2  0  0  0  0
M  CHG  1  21  -1
M  END
>  <CHROM.1>
4.67810455,73.74781919,62.88960040,110.46736166,124.91237845,-29.85017573
1.52972252,-11.52628133,-0.49291581,-0.64189564,1.98333225

>  <Name>
ligand

>  <RI>
0

>  <Rbt.Current_Directory>
/home/itssahil/PROJECTS/Mol_Feturizer/Test_systems_manuscript/rnas/4xwf

>  <Rbt.Executable>
rbdock ($Id: //depot/dev/client3/rdock/2013.1/src/exe/rbdock.cxx#4 $)

>  <Rbt.Library>
libRbt.so (2013.1, Build901 2013/11/27)

>  <Rbt.Parameter_File>
/export/apps/rDock/src/rDock_2013.1_src/data/scripts/dock_solv.prm

>  <Rbt.Receptor>
prm/pocket_docking_6.prm

>  <SCORE>
-5.0218

>  <SCORE.INTER>
-8.68007

>  <SCORE.INTER.CONST>
1

>  <SCORE.INTER.POLAR>
0

>  <SCORE.INTER.ROT>
5

>  <SCORE.INTER.SOLV>
18.2993

>  <SCORE.INTER.VDW>
-18.8198

>  <SCORE.INTER.norm>
-0.394549

>  <SCORE.INTRA>
3.65827

>  <SCORE.INTRA.DIHEDRAL>
5.47224

>  <SCORE.INTRA.DIHEDRAL.0>
3.49807

>  <SCORE.INTRA.POLAR>
0

>  <SCORE.INTRA.POLAR.0>
0

>  <SCORE.INTRA.REPUL>
0

>  <SCORE.INTRA.REPUL.0>
0

>  <SCORE.INTRA.SOLV>
1.88424

>  <SCORE.INTRA.SOLV.lig_0>
-73.062

>  <SCORE.INTRA.VDW>
-0.019963

>  <SCORE.INTRA.VDW.0>
-1.83782

>  <SCORE.INTRA.norm>
0.166285

>  <SCORE.RESTR>
0

>  <SCORE.RESTR.CAVITY>
0

>  <SCORE.RESTR.norm>
0

>  <SCORE.SYSTEM>
0

>  <SCORE.SYSTEM.CONST>
0

>  <SCORE.SYSTEM.DIHEDRAL>
0

>  <SCORE.SYSTEM.SOLV>
0

>  <SCORE.SYSTEM.norm>
0

>  <SCORE.heavy>
22

>  <SCORE.norm>
-0.228264

>  <RMSD>
6.901

$$$$
ligand
 OpenBabel02271912143D
libRbt.so/2013.1/901 2013/11/27
 22 23  0  0  0  0  0  0  0  0999 V2000
  -32.8707    4.0783   -9.2287 N   0  0  0  0  0  0  0  0  0  0  0  0
  -34.7286    6.3991   -7.6117 C   0  0  1  0  0  0  0  0  0  0  0  0
  -34.3289    5.8334   -8.8924 O   0  0  0  0  0  0  0  0  0  0  0  0
  -32.1140    9.0870   -8.1322 P   0  0  1  0  0  0  0  0  0  0  0  0
  -34.0983    4.4277   -8.7052 C   0  0  2  0  0  0  0  0  0  0  0  0
  -30.7780    4.1767   -9.7963 N   0  0  0  0  0  0  0  0  0  0  0  0
  -34.3139    2.9078   -6.8778 O   0  0  0  0  0  0  0  0  0  0  0  0
  -33.9919    4.2560   -7.2389 C   0  0  2  0  0  0  0  0  0  0  0  0
  -29.1049    2.0707  -11.0074 N   0  0  0  0  0  0  0  0  0  0  0  0
  -36.2788    4.7974   -6.8866 O   0  0  0  0  0  0  0  0  0  0  0  0
  -34.9240    5.2437   -6.7089 C   0  0  2  0  0  0  0  0  0  0  0  0
  -31.2482    2.9672  -10.1375 C   0  0  0  0  0  0  0  0  0  0  0  0
  -33.4228    1.7851   -9.9441 N   0  0  0  0  0  0  0  0  0  0  0  0
  -33.3512    8.1272   -8.2138 O   0  0  0  0  0  0  0  0  0  0  0  0
  -33.6115    7.2703   -7.1500 C   0  0  0  0  0  0  0  0  0  0  0  0
  -32.4512   10.0032   -6.9003 O   0  0  0  0  0  0  0  0  0  0  0  0
  -31.7900    4.8674   -9.2373 C   0  0  0  0  0  0  0  0  0  0  0  0
  -31.0264    0.8578  -11.1567 O   0  0  0  0  0  0  0  0  0  0  0  0
  -30.4741    1.8951  -10.7902 C   0  0  0  0  0  0  0  0  0  0  0  0
  -32.5646    2.8965   -9.7805 C   0  0  0  0  0  0  0  0  0  0  0  0
  -30.8643    8.2843   -7.9841 O   0  5  0  0  0  0  0  0  0  0  0  0
  -31.8843    9.7544   -9.4262 O   0  0  0  0  0  0  0  0  0  0  0  0
  1 17  1  0  0  0  0
  1 20  1  0  0  0  0
  2 15  1  1  0  0  0
  2  3  1  0  0  0  0
  2 11  1  0  0  0  0
  3  5  1  0  0  0  0
  4 16  1  1  0  0  0
  4 21  1  0  0  0  0
  4 22  2  0  0  0  0
  4 14  1  0  0  0  0
  5  1  1  6  0  0  0
  5  8  1  0  0  0  0
  6 17  2  0  0  0  0
  6 12  1  0  0  0  0
  8  7  1  6  0  0  0
  8 11  1  0  0  0  0
  9 19  1  0  0  0  0
 11 10  1  6  0  0  0
 12 20  2  0  0  0  0
 12 19  1  0  0  0  0
 13 20  1  0  0  0  0
 14 15  1  0  0  0  0
 18 19  2  0  0  0  0
M  CHG  1  21  -1
M  END
>  <CHROM.1>
33.47805158,52.41702362,-62.63564936,-173.28580716,4.90543981,-32.73012508
5.40306364,-8.65061239,1.36980945,-0.54347846,-2.90164567

>  <Name>
ligand

>  <RI>
0

>  <Rbt.Current_Directory>
/home/itssahil/PROJECTS/Mol_Feturizer/Test_systems_manuscript/rnas/4xwf

>  <Rbt.Executable>
rbdock ($Id: //depot/dev/client3/rdock/2013.1/src/exe/rbdock.cxx#4 $)

>  <Rbt.Library>
libRbt.so (2013.1, Build901 2013/11/27)

>  <Rbt.Parameter_File>
/export/apps/rDock/src/rDock_2013.1_src/data/scripts/dock_solv.prm

>  <Rbt.Receptor>
prm/pocket_docking_7.prm

>  <SCORE>
-8.62059

>  <SCORE.INTER>
-7.62081

>  <SCORE.INTER.CONST>
1

>  <SCORE.INTER.POLAR>
0

>  <SCORE.INTER.ROT>
5

>  <SCORE.INTER.SOLV>
18.8037

>  <SCORE.INTER.VDW>
-18.2818

>  <SCORE.INTER.norm>
-0.3464

>  <SCORE.INTRA>
-1.00205

>  <SCORE.INTRA.DIHEDRAL>
-1.55301

>  <SCORE.INTRA.DIHEDRAL.0>
3.49807

>  <SCORE.INTRA.POLAR>
0

>  <SCORE.INTRA.POLAR.0>
0

>  <SCORE.INTRA.REPUL>
0

>  <SCORE.INTRA.REPUL.0>
0

>  <SCORE.INTRA.SOLV>
0.147042

>  <SCORE.INTRA.SOLV.lig_0>
-73.062

>  <SCORE.INTRA.VDW>
-0.299067

>  <SCORE.INTRA.VDW.0>
-1.83782

>  <SCORE.INTRA.norm>
-0.0455477

>  <SCORE.RESTR>
0.00227101

>  <SCORE.RESTR.CAVITY>
0.00227101

>  <SCORE.RESTR.norm>
0.000103228

>  <SCORE.SYSTEM>
0

>  <SCORE.SYSTEM.CONST>
0

>  <SCORE.SYSTEM.DIHEDRAL>
0

>  <SCORE.SYSTEM.SOLV>
0

>  <SCORE.SYSTEM.norm>
0

>  <SCORE.heavy>
22

>  <SCORE.norm>
-0.391845

>  <RMSD>
6.901

$$$$
ligand
 OpenBabel02271912143D
libRbt.so/2013.1/901 2013/11/27
 22 23  0  0  0  0  0  0  0  0999 V2000
  -30.5234    4.6844   -8.8597 N   0  0  0  0  0  0  0  0  0  0  0  0
  -32.3785    1.8903   -9.3115 C   0  0  1  0  0  0  0  0  0  0  0  0
  -31.2316    2.4992   -8.6527 O   0  0  0  0  0  0  0  0  0  0  0  0
  -29.8038    0.8236  -11.8085 P   0  0  1  0  0  0  0  0  0  0  0  0
  -31.5443    3.8785   -8.3999 C   0  0  2  0  0  0  0  0  0  0  0  0
  -28.8605    5.4131  -10.0492 N   0  0  0  0  0  0  0  0  0  0  0  0
  -33.4602    5.2643   -8.7237 O   0  0  0  0  0  0  0  0  0  0  0  0
  -32.7181    4.1610   -9.2563 C   0  0  2  0  0  0  0  0  0  0  0  0
  -29.2193    8.8322   -9.1396 N   0  0  0  0  0  0  0  0  0  0  0  0
  -34.1339    2.7237   -8.0005 O   0  0  0  0  0  0  0  0  0  0  0  0
  -33.4551    2.9033   -9.2548 C   0  0  2  0  0  0  0  0  0  0  0  0
  -29.1695    6.3519   -9.1416 C   0  0  0  0  0  0  0  0  0  0  0  0
  -30.8620    6.5968   -7.3418 N   0  0  0  0  0  0  0  0  0  0  0  0
  -30.8197    0.8323  -10.6141 O   0  0  0  0  0  0  0  0  0  0  0  0
  -31.9740    1.6009  -10.7160 C   0  0  0  0  0  0  0  0  0  0  0  0
  -30.7367    0.8420  -13.0734 O   0  0  0  0  0  0  0  0  0  0  0  0
  -29.6994    4.3754   -9.8677 C   0  0  0  0  0  0  0  0  0  0  0  0
  -27.2874    7.7009   -8.7231 O   0  0  0  0  0  0  0  0  0  0  0  0
  -28.4900    7.6507   -8.9806 C   0  0  0  0  0  0  0  0  0  0  0  0
  -30.2177    5.9016   -8.3907 C   0  0  0  0  0  0  0  0  0  0  0  0
  -28.8873    1.9964  -11.6971 O   0  5  0  0  0  0  0  0  0  0  0  0
  -28.8597   -0.3014  -11.6831 O   0  0  0  0  0  0  0  0  0  0  0  0
  1 17  1  0  0  0  0
  1 20  1  0  0  0  0
  2 15  1  6  0  0  0
  2  3  1  0  0  0  0
  2 11  1  0  0  0  0
  3  5  1  0  0  0  0
  4 16  1  6  0  0  0
  4 21  1  0  0  0  0
  4 22  2  0  0  0  0
  4 14  1  0  0  0  0
  5  1  1  6  0  0  0
  5  8  1  0  0  0  0
  6 17  2  0  0  0  0
  6 12  1  0  0  0  0
  8  7  1  1  0  0  0
  8 11  1  0  0  0  0
  9 19  1  0  0  0  0
 11 10  1  1  0  0  0
 12 20  2  0  0  0  0
 12 19  1  0  0  0  0
 13 20  1  0  0  0  0
 14 15  1  0  0  0  0
 18 19  2  0  0  0  0
M  CHG  1  21  -1
M  END
>  <CHROM.1>
27.61298355,54.65673407,-38.21253387,-155.42190938,119.45163679,-30.61709747
3.67350032,-9.77980350,1.39346161,0.42983072,0.48257228

>  <Name>
ligand

>  <RI>
0

>  <Rbt.Current_Directory>
/home/itssahil/PROJECTS/Mol_Feturizer/Test_systems_manuscript/rnas/4xwf

>  <Rbt.Executable>
rbdock ($Id: //depot/dev/client3/rdock/2013.1/src/exe/rbdock.cxx#4 $)

>  <Rbt.Library>
libRbt.so (2013.1, Build901 2013/11/27)

>  <Rbt.Parameter_File>
/export/apps/rDock/src/rDock_2013.1_src/data/scripts/dock_solv.prm

>  <Rbt.Receptor>
prm/pocket_docking_4.prm

>  <SCORE>
-7.10657

>  <SCORE.INTER>
-7.92713

>  <SCORE.INTER.CONST>
1

>  <SCORE.INTER.POLAR>
0

>  <SCORE.INTER.ROT>
5

>  <SCORE.INTER.SOLV>
12.6321

>  <SCORE.INTER.VDW>
-16.4288

>  <SCORE.INTER.norm>
-0.360324

>  <SCORE.INTRA>
0.81554

>  <SCORE.INTRA.DIHEDRAL>
1.28244

>  <SCORE.INTRA.DIHEDRAL.0>
3.49807

>  <SCORE.INTRA.POLAR>
0

>  <SCORE.INTRA.POLAR.0>
0

>  <SCORE.INTRA.REPUL>
0

>  <SCORE.INTRA.REPUL.0>
0

>  <SCORE.INTRA.SOLV>
1.03717

>  <SCORE.INTRA.SOLV.lig_0>
-73.062

>  <SCORE.INTRA.VDW>
-0.344266

>  <SCORE.INTRA.VDW.0>
-1.83782

>  <SCORE.INTRA.norm>
0.03707

>  <SCORE.RESTR>
0.00501812

>  <SCORE.RESTR.CAVITY>
0.00501812

>  <SCORE.RESTR.norm>
0.000228097

>  <SCORE.SYSTEM>
0

>  <SCORE.SYSTEM.CONST>
0

>  <SCORE.SYSTEM.DIHEDRAL>
0

>  <SCORE.SYSTEM.SOLV>
0

>  <SCORE.SYSTEM.norm>
0

>  <SCORE.heavy>
22

>  <SCORE.norm>
-0.323026

>  <RMSD>
6.904

$$$$
ligand
 OpenBabel02271912143D
libRbt.so/2013.1/901 2013/11/27
 22 23  0  0  0  0  0  0  0  0999 V2000
  -30.5756    4.7277   -8.8108 N   0  0  0  0  0  0  0  0  0  0  0  0
  -32.4268    1.9322   -9.2698 C   0  0  1  0  0  0  0  0  0  0  0  0
  -31.2899    2.5450   -8.5977 O   0  0  0  0  0  0  0  0  0  0  0  0
  -29.7986    0.8872  -11.7175 P   0  0  1  0  0  0  0  0  0  0  0  0
  -31.6049    3.9267   -8.3611 C   0  0  2  0  0  0  0  0  0  0  0  0
  -28.9167    5.4626  -10.0021 N   0  0  0  0  0  0  0  0  0  0  0  0
  -33.5135    5.3121   -8.7269 O   0  0  0  0  0  0  0  0  0  0  0  0
  -32.7643    4.2037   -9.2385 C   0  0  2  0  0  0  0  0  0  0  0  0
  -27.7627    7.8738   -7.6947 N   0  0  0  0  0  0  0  0  0  0  0  0
  -34.2020    2.7783   -7.9942 O   0  0  0  0  0  0  0  0  0  0  0  0
  -33.5029    2.9468   -9.2388 C   0  0  2  0  0  0  0  0  0  0  0  0
  -29.1944    6.3778   -9.0609 C   0  0  0  0  0  0  0  0  0  0  0  0
  -30.8554    6.5970   -7.2288 N   0  0  0  0  0  0  0  0  0  0  0  0
  -30.8328    0.8861  -10.5389 O   0  0  0  0  0  0  0  0  0  0  0  0
  -32.0002    1.6309  -10.6653 C   0  0  0  0  0  0  0  0  0  0  0  0
  -30.7087    0.7729  -12.9939 O   0  0  0  0  0  0  0  0  0  0  0  0
  -29.7725    4.4354   -9.8405 C   0  0  0  0  0  0  0  0  0  0  0  0
  -28.5451    8.5392   -9.7271 O   0  0  0  0  0  0  0  0  0  0  0  0
  -28.4880    7.6580   -8.8696 C   0  0  0  0  0  0  0  0  0  0  0  0
  -30.2400    5.9235   -8.3087 C   0  0  0  0  0  0  0  0  0  0  0  0
  -28.9689    2.1264  -11.6566 O   0  5  0  0  0  0  0  0  0  0  0  0
  -28.7800   -0.1597  -11.5197 O   0  0  0  0  0  0  0  0  0  0  0  0
  1 17  1  0  0  0  0
  1 20  1  0  0  0  0
  2 15  1  6  0  0  0
  2  3  1  0  0  0  0
  2 11  1  0  0  0  0
  3  5  1  0  0  0  0
  4 16  1  6  0  0  0
  4 21  1  0  0  0  0
  4 22  2  0  0  0  0
  4 14  1  0  0  0  0
  5  1  1  6  0  0  0
  5  8  1  0  0  0  0
  6 17  2  0  0  0  0
  6 12  1  0  0  0  0
  8  7  1  1  0  0  0
  8 11  1  0  0  0  0
  9 19  1  0  0  0  0
 11 10  1  1  0  0  0
 12 20  2  0  0  0  0
 12 19  1  0  0  0  0
 13 20  1  0  0  0  0
 14 15  1  0  0  0  0
 18 19  2  0  0  0  0
M  CHG  1  21  -1
M  END
>  <CHROM.1>
30.66712638,53.41662786,-42.09177338,-155.04568419,-115.15154404,-30.64164718
3.71552367,-9.71174174,1.38134577,0.43075587,0.49499063

>  <Name>
ligand

>  <RI>
0

>  <Rbt.Current_Directory>
/home/itssahil/PROJECTS/Mol_Feturizer/Test_systems_manuscript/rnas/4xwf

>  <Rbt.Executable>
rbdock ($Id: //depot/dev/client3/rdock/2013.1/src/exe/rbdock.cxx#4 $)

>  <Rbt.Library>
libRbt.so (2013.1, Build901 2013/11/27)

>  <Rbt.Parameter_File>
/export/apps/rDock/src/rDock_2013.1_src/data/scripts/dock_solv.prm

>  <Rbt.Receptor>
prm/pocket_docking_4.prm

>  <SCORE>
-7.03288

>  <SCORE.INTER>
-7.68701

>  <SCORE.INTER.CONST>
1

>  <SCORE.INTER.POLAR>
0

>  <SCORE.INTER.ROT>
5

>  <SCORE.INTER.SOLV>
11.9134

>  <SCORE.INTER.VDW>
-16.0292

>  <SCORE.INTER.norm>
-0.34941

>  <SCORE.INTRA>
0.65414

>  <SCORE.INTRA.DIHEDRAL>
1.23404

>  <SCORE.INTRA.DIHEDRAL.0>
3.49807

>  <SCORE.INTRA.POLAR>
0

>  <SCORE.INTRA.POLAR.0>
0

>  <SCORE.INTRA.REPUL>
0

>  <SCORE.INTRA.REPUL.0>
0

>  <SCORE.INTRA.SOLV>
1.02414

>  <SCORE.INTRA.SOLV.lig_0>
-73.062

>  <SCORE.INTRA.VDW>
-0.474948

>  <SCORE.INTRA.VDW.0>
-1.83782

>  <SCORE.INTRA.norm>
0.0297336

>  <SCORE.RESTR>
0

>  <SCORE.RESTR.CAVITY>
0

>  <SCORE.RESTR.norm>
0

>  <SCORE.SYSTEM>
0

>  <SCORE.SYSTEM.CONST>
0

>  <SCORE.SYSTEM.DIHEDRAL>
0

>  <SCORE.SYSTEM.SOLV>
0

>  <SCORE.SYSTEM.norm>
0

>  <SCORE.heavy>
22

>  <SCORE.norm>
-0.319676

>  <RMSD>
6.924

$$$$
ligand
 OpenBabel02271912143D
libRbt.so/2013.1/901 2013/11/27
 22 23  0  0  0  0  0  0  0  0999 V2000
  -28.5190    1.2417  -12.2558 N   0  0  0  0  0  0  0  0  0  0  0  0
  -31.2653    0.7890  -10.3308 C   0  0  1  0  0  0  0  0  0  0  0  0
  -30.6205    0.5417  -11.6126 O   0  0  0  0  0  0  0  0  0  0  0  0
  -33.2592    3.6874   -8.9268 P   0  0  1  0  0  0  0  0  0  0  0  0
  -29.2069    0.4233  -11.3839 C   0  0  2  0  0  0  0  0  0  0  0  0
  -27.9040    3.0028  -13.3654 N   0  0  0  0  0  0  0  0  0  0  0  0
  -27.7982    0.4479   -9.4576 O   0  0  0  0  0  0  0  0  0  0  0  0
  -28.9968    0.9838  -10.0302 C   0  0  2  0  0  0  0  0  0  0  0  0
  -25.6423    3.3004  -15.2334 N   0  0  0  0  0  0  0  0  0  0  0  0
  -30.1800   -0.7889   -8.9793 O   0  0  0  0  0  0  0  0  0  0  0  0
  -30.2085    0.6094   -9.3114 C   0  0  2  0  0  0  0  0  0  0  0  0
  -27.0704    1.9987  -13.6775 C   0  0  0  0  0  0  0  0  0  0  0  0
  -26.8197   -0.3783  -13.0065 N   0  0  0  0  0  0  0  0  0  0  0  0
  -32.4929    2.3430   -9.1801 O   0  0  0  0  0  0  0  0  0  0  0  0
  -31.7668    2.1919  -10.3564 C   0  0  0  0  0  0  0  0  0  0  0  0
  -34.4427    3.6261   -9.9594 O   0  0  0  0  0  0  0  0  0  0  0  0
  -28.8070    2.5279  -12.4864 C   0  0  0  0  0  0  0  0  0  0  0  0
  -25.2608    1.0846  -14.8721 O   0  0  0  0  0  0  0  0  0  0  0  0
  -25.9367    2.0812  -14.6170 C   0  0  0  0  0  0  0  0  0  0  0  0
  -27.4494    0.8871  -12.9804 C   0  0  0  0  0  0  0  0  0  0  0  0
  -33.6860    3.7608   -7.4984 O   0  5  0  0  0  0  0  0  0  0  0  0
  -32.3418    4.8372   -9.0200 O   0  0  0  0  0  0  0  0  0  0  0  0
  1 17  1  0  0  0  0
  1 20  1  0  0  0  0
  2 15  1  6  0  0  0
  2  3  1  0  0  0  0
  2 11  1  0  0  0  0
  3  5  1  0  0  0  0
  4 16  1  6  0  0  0
  4 21  1  0  0  0  0
  4 22  2  0  0  0  0
  4 14  1  0  0  0  0
  5  1  1  6  0  0  0
  5  8  1  0  0  0  0
  6 17  2  0  0  0  0
  6 12  1  0  0  0  0
  8  7  1  1  0  0  0
  8 11  1  0  0  0  0
  9 19  1  0  0  0  0
 11 10  1  6  0  0  0
 12 20  2  0  0  0  0
 12 19  1  0  0  0  0
 13 20  1  0  0  0  0
 14 15  1  0  0  0  0
 18 19  2  0  0  0  0
M  CHG  1  21  -1
M  END
>  <CHROM.1>
48.26133661,173.96363756,70.97437230,-175.59152766,1.90503322,-29.83611763
1.90043637,-11.07617587,-0.16472267,-0.65562340,2.54671011

>  <Name>
ligand

>  <RI>
0

>  <Rbt.Current_Directory>
/home/itssahil/PROJECTS/Mol_Feturizer/Test_systems_manuscript/rnas/4xwf

>  <Rbt.Executable>
rbdock ($Id: //depot/dev/client3/rdock/2013.1/src/exe/rbdock.cxx#4 $)

>  <Rbt.Library>
libRbt.so (2013.1, Build901 2013/11/27)

>  <Rbt.Parameter_File>
/export/apps/rDock/src/rDock_2013.1_src/data/scripts/dock_solv.prm

>  <Rbt.Receptor>
prm/pocket_docking_8.prm

>  <SCORE>
-7.15932

>  <SCORE.INTER>
-6.09699

>  <SCORE.INTER.CONST>
1

>  <SCORE.INTER.POLAR>
0

>  <SCORE.INTER.ROT>
5

>  <SCORE.INTER.SOLV>
13.782

>  <SCORE.INTER.VDW>
-15.592

>  <SCORE.INTER.norm>
-0.277136

>  <SCORE.INTRA>
-1.06233

>  <SCORE.INTRA.DIHEDRAL>
-1.63322

>  <SCORE.INTRA.DIHEDRAL.0>
3.49807

>  <SCORE.INTRA.POLAR>
0

>  <SCORE.INTRA.POLAR.0>
0

>  <SCORE.INTRA.REPUL>
0

>  <SCORE.INTRA.REPUL.0>
0

>  <SCORE.INTRA.SOLV>
-0.521423

>  <SCORE.INTRA.SOLV.lig_0>
-73.062

>  <SCORE.INTRA.VDW>
0.0149926

>  <SCORE.INTRA.VDW.0>
-1.83782

>  <SCORE.INTRA.norm>
-0.0482877

>  <SCORE.RESTR>
0

>  <SCORE.RESTR.CAVITY>
0

>  <SCORE.RESTR.norm>
0

>  <SCORE.SYSTEM>
0

>  <SCORE.SYSTEM.CONST>
0

>  <SCORE.SYSTEM.DIHEDRAL>
0

>  <SCORE.SYSTEM.SOLV>
0

>  <SCORE.SYSTEM.norm>
0

>  <SCORE.heavy>
22

>  <SCORE.norm>
-0.325424

>  <RMSD>
6.924

$$$$
ligand
 OpenBabel02271912143D
libRbt.so/2013.1/901 2013/11/27
 22 23  0  0  0  0  0  0  0  0999 V2000
  -28.4946    1.4858  -12.2058 N   0  0  0  0  0  0  0  0  0  0  0  0
  -31.2665    0.8003  -10.3895 C   0  0  1  0  0  0  0  0  0  0  0  0
  -30.5817    0.6650  -11.6672 O   0  0  0  0  0  0  0  0  0  0  0  0
  -33.4109    3.5204   -8.8542 P   0  0  1  0  0  0  0  0  0  0  0  0
  -29.1705    0.5848  -11.4093 C   0  0  2  0  0  0  0  0  0  0  0  0
  -27.8693    3.3537  -13.1175 N   0  0  0  0  0  0  0  0  0  0  0  0
  -27.8107    0.5318   -9.4486 O   0  0  0  0  0  0  0  0  0  0  0  0
  -29.0154    1.0597  -10.0160 C   0  0  2  0  0  0  0  0  0  0  0  0
  -25.6745    3.8195  -15.0307 N   0  0  0  0  0  0  0  0  0  0  0  0
  -30.1527   -0.8236   -9.1179 O   0  0  0  0  0  0  0  0  0  0  0  0
  -30.2283    0.5919   -9.3565 C   0  0  2  0  0  0  0  0  0  0  0  0
  -27.0862    2.3729  -13.5923 C   0  0  0  0  0  0  0  0  0  0  0  0
  -26.8885   -0.0758  -13.2342 N   0  0  0  0  0  0  0  0  0  0  0  0
  -32.6109    2.2142   -9.1898 O   0  0  0  0  0  0  0  0  0  0  0  0
  -31.8222    2.1817  -10.3346 C   0  0  0  0  0  0  0  0  0  0  0  0
  -34.4615    3.6074  -10.0201 O   0  0  0  0  0  0  0  0  0  0  0  0
  -28.7476    2.7986  -12.2607 C   0  0  0  0  0  0  0  0  0  0  0  0
  -25.3750    1.5624  -14.9895 O   0  0  0  0  0  0  0  0  0  0  0  0
  -25.9940    2.5397  -14.5690 C   0  0  0  0  0  0  0  0  0  0  0  0
  -27.4719    1.1941  -13.0205 C   0  0  0  0  0  0  0  0  0  0  0  0
  -34.0064    3.4083   -7.4901 O   0  5  0  0  0  0  0  0  0  0  0  0
  -32.4964    4.6638   -8.6838 O   0  0  0  0  0  0  0  0  0  0  0  0
  1 17  1  0  0  0  0
  1 20  1  0  0  0  0
  2 15  1  1  0  0  0
  2  3  1  0  0  0  0
  2 11  1  0  0  0  0
  3  5  1  0  0  0  0
  4 16  1  6  0  0  0
  4 21  1  0  0  0  0
  4 22  2  0  0  0  0
  4 14  1  0  0  0  0
  5  1  1  6  0  0  0
  5  8  1  0  0  0  0
  6 17  2  0  0  0  0
  6 12  1  0  0  0  0
  8  7  1  1  0  0  0
  8 11  1  0  0  0  0
  9 19  1  0  0  0  0
 11 10  1  6  0  0  0
 12 20  2  0  0  0  0
 12 19  1  0  0  0  0
 13 20  1  0  0  0  0
 14 15  1  0  0  0  0
 18 19  2  0  0  0  0
M  CHG  1  21  -1
M  END
>  <CHROM.1>
54.94787520,172.40920292,66.38954998,-177.28643276,2.69264243,-29.88866613
2.00405525,-11.05104940,-0.19750871,-0.62932466,2.59122505

>  <Name>
ligand

>  <RI>
0

>  <Rbt.Current_Directory>
/home/itssahil/PROJECTS/Mol_Feturizer/Test_systems_manuscript/rnas/4xwf

>  <Rbt.Executable>
rbdock ($Id: //depot/dev/client3/rdock/2013.1/src/exe/rbdock.cxx#4 $)

>  <Rbt.Library>
libRbt.so (2013.1, Build901 2013/11/27)

>  <Rbt.Parameter_File>
/export/apps/rDock/src/rDock_2013.1_src/data/scripts/dock_solv.prm

>  <Rbt.Receptor>
prm/pocket_docking_4.prm

>  <SCORE>
-6.6456

>  <SCORE.INTER>
-5.55596

>  <SCORE.INTER.CONST>
1

>  <SCORE.INTER.POLAR>
0

>  <SCORE.INTER.ROT>
5

>  <SCORE.INTER.SOLV>
13.9579

>  <SCORE.INTER.VDW>
-15.2899

>  <SCORE.INTER.norm>
-0.252543

>  <SCORE.INTRA>
-1.08964

>  <SCORE.INTRA.DIHEDRAL>
-1.71034

>  <SCORE.INTRA.DIHEDRAL.0>
3.49807

>  <SCORE.INTRA.POLAR>
0

>  <SCORE.INTRA.POLAR.0>
0

>  <SCORE.INTRA.REPUL>
0

>  <SCORE.INTRA.REPUL.0>
0

>  <SCORE.INTRA.SOLV>
-0.736774

>  <SCORE.INTRA.SOLV.lig_0>
-73.062

>  <SCORE.INTRA.VDW>
0.133915

>  <SCORE.INTRA.VDW.0>
-1.83782

>  <SCORE.INTRA.norm>
-0.0495292

>  <SCORE.RESTR>
0

>  <SCORE.RESTR.CAVITY>
0

>  <SCORE.RESTR.norm>
0

>  <SCORE.SYSTEM>
0

>  <SCORE.SYSTEM.CONST>
0

>  <SCORE.SYSTEM.DIHEDRAL>
0

>  <SCORE.SYSTEM.SOLV>
0

>  <SCORE.SYSTEM.norm>
0

>  <SCORE.heavy>
22

>  <SCORE.norm>
-0.302073

>  <RMSD>
6.941

$$$$
ligand
 OpenBabel02271912143D
libRbt.so/2013.1/901 2013/11/27
 22 23  0  0  0  0  0  0  0  0999 V2000
  -28.6702    1.1828  -11.9709 N   0  0  0  0  0  0  0  0  0  0  0  0
  -31.4806    0.8204  -10.1208 C   0  0  1  0  0  0  0  0  0  0  0  0
  -30.7891    0.5045  -11.3626 O   0  0  0  0  0  0  0  0  0  0  0  0
  -33.3959    3.8420   -8.8733 P   0  0  1  0  0  0  0  0  0  0  0  0
  -29.3840    0.4108  -11.0777 C   0  0  2  0  0  0  0  0  0  0  0  0
  -28.0392    2.8756  -13.1740 N   0  0  0  0  0  0  0  0  0  0  0  0
  -28.0449    0.5579   -9.1077 O   0  0  0  0  0  0  0  0  0  0  0  0
  -29.2255    1.0503   -9.7523 C   0  0  2  0  0  0  0  0  0  0  0  0
  -24.7131    1.7306  -13.7078 N   0  0  0  0  0  0  0  0  0  0  0  0
  -30.4349   -0.6680   -8.6425 O   0  0  0  0  0  0  0  0  0  0  0  0
  -30.4598    0.7084   -9.0561 C   0  0  2  0  0  0  0  0  0  0  0  0
  -27.1663    1.8751  -13.3680 C   0  0  0  0  0  0  0  0  0  0  0  0
  -26.8950   -0.4394  -12.5119 N   0  0  0  0  0  0  0  0  0  0  0  0
  -32.6678    2.4656   -9.0578 O   0  0  0  0  0  0  0  0  0  0  0  0
  -31.9891    2.2154  -10.2455 C   0  0  0  0  0  0  0  0  0  0  0  0
  -34.5829    3.7607   -9.9005 O   0  0  0  0  0  0  0  0  0  0  0  0
  -28.9762    2.4406  -12.3100 C   0  0  0  0  0  0  0  0  0  0  0  0
  -26.1139    2.1394  -15.4560 O   0  0  0  0  0  0  0  0  0  0  0  0
  -25.9864    1.9209  -14.2514 C   0  0  0  0  0  0  0  0  0  0  0  0
  -27.5553    0.8067  -12.6114 C   0  0  0  0  0  0  0  0  0  0  0  0
  -33.8174    4.0006   -7.4502 O   0  5  0  0  0  0  0  0  0  0  0  0
  -32.4471    4.9596   -9.0262 O   0  0  0  0  0  0  0  0  0  0  0  0
  1 17  1  0  0  0  0
  1 20  1  0  0  0  0
  2 15  1  6  0  0  0
  2  3  1  0  0  0  0
  2 11  1  0  0  0  0
  3  5  1  0  0  0  0
  4 16  1  6  0  0  0
  4 21  1  0  0  0  0
  4 22  2  0  0  0  0
  4 14  1  0  0  0  0
  5  1  1  6  0  0  0
  5  8  1  0  0  0  0
  6 17  2  0  0  0  0
  6 12  1  0  0  0  0
  8  7  1  1  0  0  0
  8 11  1  0  0  0  0
  9 19  1  0  0  0  0
 11 10  1  6  0  0  0
 12 20  2  0  0  0  0
 12 19  1  0  0  0  0
 13 20  1  0  0  0  0
 14 15  1  0  0  0  0
 18 19  2  0  0  0  0
M  CHG  1  21  -1
M  END
>  <CHROM.1>
46.56723251,178.60446649,68.66934200,-177.27540444,119.75646230,-29.98503670
1.92029724,-10.84612843,-0.16537253,-0.63114428,2.47353073

>  <Name>
ligand

>  <RI>
0

>  <Rbt.Current_Directory>
/home/itssahil/PROJECTS/Mol_Feturizer/Test_systems_manuscript/rnas/4xwf

>  <Rbt.Executable>
rbdock ($Id: //depot/dev/client3/rdock/2013.1/src/exe/rbdock.cxx#4 $)

>  <Rbt.Library>
libRbt.so (2013.1, Build901 2013/11/27)

>  <Rbt.Parameter_File>
/export/apps/rDock/src/rDock_2013.1_src/data/scripts/dock_solv.prm

>  <Rbt.Receptor>
prm/pocket_docking_4.prm

>  <SCORE>
-6.69644

>  <SCORE.INTER>
-5.44067

>  <SCORE.INTER.CONST>
1

>  <SCORE.INTER.POLAR>
0

>  <SCORE.INTER.ROT>
5

>  <SCORE.INTER.SOLV>
14.1725

>  <SCORE.INTER.VDW>
-15.2846

>  <SCORE.INTER.norm>
-0.247303

>  <SCORE.INTRA>
-1.25628

>  <SCORE.INTRA.DIHEDRAL>
-1.87669

>  <SCORE.INTRA.DIHEDRAL.0>
3.49807

>  <SCORE.INTRA.POLAR>
0

>  <SCORE.INTRA.POLAR.0>
0

>  <SCORE.INTRA.REPUL>
0

>  <SCORE.INTRA.REPUL.0>
0

>  <SCORE.INTRA.SOLV>
-0.398206

>  <SCORE.INTRA.SOLV.lig_0>
-73.062

>  <SCORE.INTRA.VDW>
-0.118832

>  <SCORE.INTRA.VDW.0>
-1.83782

>  <SCORE.INTRA.norm>
-0.0571037

>  <SCORE.RESTR>
0.000509708

>  <SCORE.RESTR.CAVITY>
0.000509708

>  <SCORE.RESTR.norm>
2.31686e-05

>  <SCORE.SYSTEM>
0

>  <SCORE.SYSTEM.CONST>
0

>  <SCORE.SYSTEM.DIHEDRAL>
0

>  <SCORE.SYSTEM.SOLV>
0

>  <SCORE.SYSTEM.norm>
0

>  <SCORE.heavy>
22

>  <SCORE.norm>
-0.304384

>  <RMSD>
6.942

$$$$
ligand
 OpenBabel02271912143D
libRbt.so/2013.1/901 2013/11/27
 22 23  0  0  0  0  0  0  0  0999 V2000
  -27.3025    5.0241  -10.3261 N   0  0  0  0  0  0  0  0  0  0  0  0
  -30.1234    3.1609  -10.4801 C   0  0  1  0  0  0  0  0  0  0  0  0
  -29.3886    4.3059  -10.9987 O   0  0  0  0  0  0  0  0  0  0  0  0
  -33.1571    2.9532   -9.5599 P   0  0  1  0  0  0  0  0  0  0  0  0
  -27.9865    3.9970  -10.9429 C   0  0  2  0  0  0  0  0  0  0  0  0
  -26.6899    6.4782   -8.8357 N   0  0  0  0  0  0  0  0  0  0  0  0
  -26.6997    2.0887  -10.3114 O   0  0  0  0  0  0  0  0  0  0  0  0
  -27.8943    2.8299  -10.0372 C   0  0  2  0  0  0  0  0  0  0  0  0
  -23.4333    7.0311  -10.1147 N   0  0  0  0  0  0  0  0  0  0  0  0
  -29.0203    1.4004  -11.5655 O   0  0  0  0  0  0  0  0  0  0  0  0
  -29.1198    2.0880  -10.3071 C   0  0  2  0  0  0  0  0  0  0  0  0
  -25.8623    6.5816   -9.8869 C   0  0  0  0  0  0  0  0  0  0  0  0
  -25.6149    5.4351  -12.0750 N   0  0  0  0  0  0  0  0  0  0  0  0
  -31.9994    4.0073   -9.4748 O   0  0  0  0  0  0  0  0  0  0  0  0
  -30.7127    3.5733   -9.1752 C   0  0  0  0  0  0  0  0  0  0  0  0
  -32.6174    1.9108  -10.6052 O   0  0  0  0  0  0  0  0  0  0  0  0
  -27.5876    5.5137   -9.1139 C   0  0  0  0  0  0  0  0  0  0  0  0
  -24.9329    8.7407   -9.9965 O   0  0  0  0  0  0  0  0  0  0  0  0
  -24.7358    7.5257  -10.0064 C   0  0  0  0  0  0  0  0  0  0  0  0
  -26.2399    5.6670  -10.8283 C   0  0  0  0  0  0  0  0  0  0  0  0
  -33.4240    2.3897   -8.2037 O   0  5  0  0  0  0  0  0  0  0  0  0
  -34.4408    3.6105   -9.8640 O   0  0  0  0  0  0  0  0  0  0  0  0
  1 17  1  0  0  0  0
  1 20  1  0  0  0  0
  2 15  1  1  0  0  0
  2  3  1  0  0  0  0
  2 11  1  0  0  0  0
  3  5  1  0  0  0  0
  4 16  1  6  0  0  0
  4 21  1  0  0  0  0
  4 22  2  0  0  0  0
  4 14  1  0  0  0  0
  5  1  1  1  0  0  0
  5  8  1  0  0  0  0
  6 17  2  0  0  0  0
  6 12  1  0  0  0  0
  8  7  1  6  0  0  0
  8 11  1  0  0  0  0
  9 19  1  0  0  0  0
 11 10  1  6  0  0  0
 12 20  2  0  0  0  0
 12 19  1  0  0  0  0
 13 20  1  0  0  0  0
 14 15  1  0  0  0  0
 18 19  2  0  0  0  0
M  CHG  1  21  -1
M  END
>  <CHROM.1>
54.62129422,94.19076524,-54.68776827,85.27934224,117.01814782,-28.96721296
4.23374290,-10.09441738,-0.42031974,-0.23800655,-2.80001059

>  <Name>
ligand

>  <RI>
0

>  <Rbt.Current_Directory>
/home/itssahil/PROJECTS/Mol_Feturizer/Test_systems_manuscript/rnas/4xwf

>  <Rbt.Executable>
rbdock ($Id: //depot/dev/client3/rdock/2013.1/src/exe/rbdock.cxx#4 $)

>  <Rbt.Library>
libRbt.so (2013.1, Build901 2013/11/27)

>  <Rbt.Parameter_File>
/export/apps/rDock/src/rDock_2013.1_src/data/scripts/dock_solv.prm

>  <Rbt.Receptor>
prm/pocket_docking_2.prm

>  <SCORE>
1.15253

>  <SCORE.INTER>
-0.853411

>  <SCORE.INTER.CONST>
1

>  <SCORE.INTER.POLAR>
0

>  <SCORE.INTER.ROT>
5

>  <SCORE.INTER.SOLV>
13.7909

>  <SCORE.INTER.VDW>
-12.0992

>  <SCORE.INTER.norm>
-0.0387914

>  <SCORE.INTRA>
1.99494

>  <SCORE.INTRA.DIHEDRAL>
3.93532

>  <SCORE.INTRA.DIHEDRAL.0>
3.49807

>  <SCORE.INTRA.POLAR>
0

>  <SCORE.INTRA.POLAR.0>
0

>  <SCORE.INTRA.REPUL>
0

>  <SCORE.INTRA.REPUL.0>
0

>  <SCORE.INTRA.SOLV>
-0.0916438

>  <SCORE.INTRA.SOLV.lig_0>
-73.062

>  <SCORE.INTRA.VDW>
0.0730989

>  <SCORE.INTRA.VDW.0>
-1.83782

>  <SCORE.INTRA.norm>
0.0906789

>  <SCORE.RESTR>
0.0110021

>  <SCORE.RESTR.CAVITY>
0.0110021

>  <SCORE.RESTR.norm>
0.000500096

>  <SCORE.SYSTEM>
0

>  <SCORE.SYSTEM.CONST>
0

>  <SCORE.SYSTEM.DIHEDRAL>
0

>  <SCORE.SYSTEM.SOLV>
0

>  <SCORE.SYSTEM.norm>
0

>  <SCORE.heavy>
22

>  <SCORE.norm>
0.0523877

>  <RMSD>
6.951

$$$$
ligand
 OpenBabel02271912143D
libRbt.so/2013.1/901 2013/11/27
 22 23  0  0  0  0  0  0  0  0999 V2000
  -28.5144    1.4643  -12.2299 N   0  0  0  0  0  0  0  0  0  0  0  0
  -31.2930    0.8111  -10.4118 C   0  0  1  0  0  0  0  0  0  0  0  0
  -30.6049    0.6560  -11.6855 O   0  0  0  0  0  0  0  0  0  0  0  0
  -33.4639    3.5473   -8.9436 P   0  0  1  0  0  0  0  0  0  0  0  0
  -29.1946    0.5763  -11.4225 C   0  0  2  0  0  0  0  0  0  0  0  0
  -27.8966    3.3146  -13.1818 N   0  0  0  0  0  0  0  0  0  0  0  0
  -27.8405    0.5484   -9.4574 O   0  0  0  0  0  0  0  0  0  0  0  0
  -29.0423    1.0709  -10.0357 C   0  0  2  0  0  0  0  0  0  0  0  0
  -25.6252    3.7661  -15.0099 N   0  0  0  0  0  0  0  0  0  0  0  0
  -30.1865   -0.7969   -9.1139 O   0  0  0  0  0  0  0  0  0  0  0  0
  -30.2582    0.6152   -9.3730 C   0  0  2  0  0  0  0  0  0  0  0  0
  -27.0885    2.3328  -13.6104 C   0  0  0  0  0  0  0  0  0  0  0  0
  -26.8626   -0.1013  -13.1766 N   0  0  0  0  0  0  0  0  0  0  0  0
  -32.6652    2.2346   -9.2556 O   0  0  0  0  0  0  0  0  0  0  0  0
  -31.8456    2.1944  -10.3783 C   0  0  0  0  0  0  0  0  0  0  0  0
  -34.6013    3.5420  -10.0284 O   0  0  0  0  0  0  0  0  0  0  0  0
  -28.7856    2.7710  -12.3288 C   0  0  0  0  0  0  0  0  0  0  0  0
  -25.3706    1.5033  -14.9880 O   0  0  0  0  0  0  0  0  0  0  0  0
  -25.9773    2.4881  -14.5673 C   0  0  0  0  0  0  0  0  0  0  0  0
  -27.4694    1.1651  -13.0130 C   0  0  0  0  0  0  0  0  0  0  0  0
  -33.9521    3.5151   -7.5334 O   0  5  0  0  0  0  0  0  0  0  0  0
  -32.5627    4.7134   -8.9171 O   0  0  0  0  0  0  0  0  0  0  0  0
  1 17  1  0  0  0  0
  1 20  1  0  0  0  0
  2 15  1  6  0  0  0
  2  3  1  0  0  0  0
  2 11  1  0  0  0  0
  3  5  1  0  0  0  0
  4 16  1  6  0  0  0
  4 21  1  0  0  0  0
  4 22  2  0  0  0  0
  4 14  1  0  0  0  0
  5  1  1  6  0  0  0
  5  8  1  0  0  0  0
  6 17  2  0  0  0  0
  6 12  1  0  0  0  0
  8  7  1  1  0  0  0
  8 11  1  0  0  0  0
  9 19  1  0  0  0  0
 11 10  1  6  0  0  0
 12 20  2  0  0  0  0
 12 19  1  0  0  0  0
 13 20  1  0  0  0  0
 14 15  1  0  0  0  0
 18 19  2  0  0  0  0
M  CHG  1  21  -1
M  END
>  <CHROM.1>
53.23167953,170.89825172,73.51108357,-177.61538811,5.73008163,-29.91249209
2.00145139,-11.08551030,-0.19050172,-0.61970699,2.58055729

>  <Name>
ligand

>  <RI>
0

>  <Rbt.Current_Directory>
/home/itssahil/PROJECTS/Mol_Feturizer/Test_systems_manuscript/rnas/4xwf

>  <Rbt.Executable>
rbdock ($Id: //depot/dev/client3/rdock/2013.1/src/exe/rbdock.cxx#4 $)

>  <Rbt.Library>
libRbt.so (2013.1, Build901 2013/11/27)

>  <Rbt.Parameter_File>
/export/apps/rDock/src/rDock_2013.1_src/data/scripts/dock_solv.prm

>  <Rbt.Receptor>
prm/pocket_docking_4.prm

>  <SCORE>
-6.63822

>  <SCORE.INTER>
-5.67853

>  <SCORE.INTER.CONST>
1

>  <SCORE.INTER.POLAR>
0

>  <SCORE.INTER.ROT>
5

>  <SCORE.INTER.SOLV>
14.8106

>  <SCORE.INTER.VDW>
-15.6559

>  <SCORE.INTER.norm>
-0.258115

>  <SCORE.INTRA>
-0.960945

>  <SCORE.INTRA.DIHEDRAL>
-1.41407

>  <SCORE.INTRA.DIHEDRAL.0>
3.49807

>  <SCORE.INTRA.POLAR>
0

>  <SCORE.INTRA.POLAR.0>
0

>  <SCORE.INTRA.REPUL>
0

>  <SCORE.INTRA.REPUL.0>
0

>  <SCORE.INTRA.SOLV>
-0.644789

>  <SCORE.INTRA.SOLV.lig_0>
-73.062

>  <SCORE.INTRA.VDW>
0.0684829

>  <SCORE.INTRA.VDW.0>
-1.83782

>  <SCORE.INTRA.norm>
-0.0436793

>  <SCORE.RESTR>
0.00125045

>  <SCORE.RESTR.CAVITY>
0.00125045

>  <SCORE.RESTR.norm>
5.68388e-05

>  <SCORE.SYSTEM>
0

>  <SCORE.SYSTEM.CONST>
0

>  <SCORE.SYSTEM.DIHEDRAL>
0

>  <SCORE.SYSTEM.SOLV>
0

>  <SCORE.SYSTEM.norm>
0

>  <SCORE.heavy>
22

>  <SCORE.norm>
-0.301737

>  <RMSD>
6.957

$$$$
ligand
 OpenBabel02271912143D
libRbt.so/2013.1/901 2013/11/27
 22 23  0  0  0  0  0  0  0  0999 V2000
  -33.3482    5.6034   -8.1780 N   0  0  0  0  0  0  0  0  0  0  0  0
  -30.3281    4.5580   -9.2908 C   0  0  1  0  0  0  0  0  0  0  0  0
  -31.5981    5.1883   -9.6218 O   0  0  0  0  0  0  0  0  0  0  0  0
  -31.1396    1.1776  -10.7978 P   0  0  1  0  0  0  0  0  0  0  0  0
  -32.0403    5.9285   -8.4725 C   0  0  2  0  0  0  0  0  0  0  0  0
  -35.2016    4.4835   -8.0299 N   0  0  0  0  0  0  0  0  0  0  0  0
  -31.1406    6.3908   -6.3108 O   0  0  0  0  0  0  0  0  0  0  0  0
  -31.2191    5.4126   -7.3543 C   0  0  2  0  0  0  0  0  0  0  0  0
  -36.6381    7.3635   -6.1232 N   0  0  0  0  0  0  0  0  0  0  0  0
  -29.2152    6.3332   -8.2399 O   0  0  0  0  0  0  0  0  0  0  0  0
  -29.9354    5.1169   -7.9787 C   0  0  2  0  0  0  0  0  0  0  0  0
  -35.3722    5.6600   -7.4076 C   0  0  0  0  0  0  0  0  0  0  0  0
  -33.9606    7.6500   -6.9483 N   0  0  0  0  0  0  0  0  0  0  0  0
  -30.7928    2.6811  -10.5186 O   0  0  0  0  0  0  0  0  0  0  0  0
  -30.5758    3.0911   -9.2077 C   0  0  0  0  0  0  0  0  0  0  0  0
  -32.6990    1.1274  -10.6068 O   0  0  0  0  0  0  0  0  0  0  0  0
  -33.9449    4.4535   -8.5129 C   0  0  0  0  0  0  0  0  0  0  0  0
  -37.6065    5.3909   -6.7203 O   0  0  0  0  0  0  0  0  0  0  0  0
  -36.6091    6.1118   -6.7439 C   0  0  0  0  0  0  0  0  0  0  0  0
  -34.2084    6.3696   -7.4940 C   0  0  0  0  0  0  0  0  0  0  0  0
  -30.6697    0.7988  -12.1629 O   0  5  0  0  0  0  0  0  0  0  0  0
  -30.3273    0.2877   -9.9488 O   0  0  0  0  0  0  0  0  0  0  0  0
  1 17  1  0  0  0  0
  1 20  1  0  0  0  0
  2 15  1  1  0  0  0
  2  3  1  0  0  0  0
  2 11  1  0  0  0  0
  3  5  1  0  0  0  0
  4 16  1  1  0  0  0
  4 21  1  0  0  0  0
  4 22  2  0  0  0  0
  4 14  1  0  0  0  0
  5  1  1  1  0  0  0
  5  8  1  0  0  0  0
  6 17  2  0  0  0  0
  6 12  1  0  0  0  0
  8  7  1  1  0  0  0
  8 11  1  0  0  0  0
  9 19  1  0  0  0  0
 11 10  1  6  0  0  0
 12 20  2  0  0  0  0
 12 19  1  0  0  0  0
 13 20  1  0  0  0  0
 14 15  1  0  0  0  0
 18 19  2  0  0  0  0
M  CHG  1  21  -1
M  END
>  <CHROM.1>
24.65979849,70.99297094,85.88845527,-177.84866522,179.43611052,-32.50365862
4.33718695,-8.66754869,-2.23169783,-0.13324297,-2.58098945

>  <Name>
ligand

>  <RI>
0

>  <Rbt.Current_Directory>
/home/itssahil/PROJECTS/Mol_Feturizer/Test_systems_manuscript/rnas/4xwf

>  <Rbt.Executable>
rbdock ($Id: //depot/dev/client3/rdock/2013.1/src/exe/rbdock.cxx#4 $)

>  <Rbt.Library>
libRbt.so (2013.1, Build901 2013/11/27)

>  <Rbt.Parameter_File>
/export/apps/rDock/src/rDock_2013.1_src/data/scripts/dock_solv.prm

>  <Rbt.Receptor>
prm/pocket_docking_8.prm

>  <SCORE>
-8.51989

>  <SCORE.INTER>
-9.04497

>  <SCORE.INTER.CONST>
1

>  <SCORE.INTER.POLAR>
0

>  <SCORE.INTER.ROT>
5

>  <SCORE.INTER.SOLV>
19.7643

>  <SCORE.INTER.VDW>
-19.5514

>  <SCORE.INTER.norm>
-0.411135

>  <SCORE.INTRA>
0.525084

>  <SCORE.INTRA.DIHEDRAL>
0.941009

>  <SCORE.INTRA.DIHEDRAL.0>
3.49807

>  <SCORE.INTRA.POLAR>
0

>  <SCORE.INTRA.POLAR.0>
0

>  <SCORE.INTRA.REPUL>
0

>  <SCORE.INTRA.REPUL.0>
0

>  <SCORE.INTRA.SOLV>
0.675568

>  <SCORE.INTRA.SOLV.lig_0>
-73.062

>  <SCORE.INTRA.VDW>
-0.283205

>  <SCORE.INTRA.VDW.0>
-1.83782

>  <SCORE.INTRA.norm>
0.0238674

>  <SCORE.RESTR>
0

>  <SCORE.RESTR.CAVITY>
0

>  <SCORE.RESTR.norm>
0

>  <SCORE.SYSTEM>
0

>  <SCORE.SYSTEM.CONST>
0

>  <SCORE.SYSTEM.DIHEDRAL>
0

>  <SCORE.SYSTEM.SOLV>
0

>  <SCORE.SYSTEM.norm>
0

>  <SCORE.heavy>
22

>  <SCORE.norm>
-0.387268

>  <RMSD>
6.970

$$$$
ligand
 OpenBabel02271912143D
libRbt.so/2013.1/901 2013/11/27
 22 23  0  0  0  0  0  0  0  0999 V2000
  -32.8068    4.3790   -9.1087 N   0  0  0  0  0  0  0  0  0  0  0  0
  -30.6264    1.9130   -9.8942 C   0  0  1  0  0  0  0  0  0  0  0  0
  -31.7000    2.7831  -10.3527 O   0  0  0  0  0  0  0  0  0  0  0  0
  -32.7157    0.6021   -7.0183 P   0  0  1  0  0  0  0  0  0  0  0  0
  -31.5878    4.0338   -9.6546 C   0  0  2  0  0  0  0  0  0  0  0  0
  -34.8697    4.2500   -8.4461 N   0  0  0  0  0  0  0  0  0  0  0  0
  -30.0534    4.9577   -8.0772 O   0  0  0  0  0  0  0  0  0  0  0  0
  -30.6853    3.7495   -8.5164 C   0  0  2  0  0  0  0  0  0  0  0  0
  -34.4389    7.4898   -6.6759 N   0  0  0  0  0  0  0  0  0  0  0  0
  -28.8106    3.3948   -9.9331 O   0  0  0  0  0  0  0  0  0  0  0  0
  -29.7557    2.7632   -9.0532 C   0  0  2  0  0  0  0  0  0  0  0  0
  -34.3886    5.4500   -8.0870 C   0  0  0  0  0  0  0  0  0  0  0  0
  -32.2141    6.6296   -8.2966 N   0  0  0  0  0  0  0  0  0  0  0  0
  -31.9705    1.4653   -8.0945 O   0  0  0  0  0  0  0  0  0  0  0  0
  -31.2565    0.8216   -9.0992 C   0  0  0  0  0  0  0  0  0  0  0  0
  -33.9207   -0.0101   -7.8207 O   0  0  0  0  0  0  0  0  0  0  0  0
  -33.8865    3.5889   -9.0863 C   0  0  0  0  0  0  0  0  0  0  0  0
  -36.3687    6.4987   -7.3682 O   0  0  0  0  0  0  0  0  0  0  0  0
  -35.1378    6.4989   -7.3706 C   0  0  0  0  0  0  0  0  0  0  0  0
  -33.0891    5.5376   -8.4981 C   0  0  0  0  0  0  0  0  0  0  0  0
  -31.7765   -0.4064   -6.4450 O   0  5  0  0  0  0  0  0  0  0  0  0
  -33.0389    1.4128   -5.8305 O   0  0  0  0  0  0  0  0  0  0  0  0
  1 17  1  0  0  0  0
  1 20  1  0  0  0  0
  2 15  1  1  0  0  0
  2  3  1  0  0  0  0
  2 11  1  0  0  0  0
  3  5  1  0  0  0  0
  4 16  1  6  0  0  0
  4 21  1  0  0  0  0
  4 22  2  0  0  0  0
  4 14  1  0  0  0  0
  5  1  1  1  0  0  0
  5  8  1  0  0  0  0
  6 17  2  0  0  0  0
  6 12  1  0  0  0  0
  8  7  1  6  0  0  0
  8 11  1  0  0  0  0
  9 19  1  0  0  0  0
 11 10  1  6  0  0  0
 12 20  2  0  0  0  0
 12 19  1  0  0  0  0
 13 20  1  0  0  0  0
 14 15  1  0  0  0  0
 18 19  2  0  0  0  0
M  CHG  1  21  -1
M  END
>  <CHROM.1>
7.83923780,-56.78123961,-71.77224847,-177.21369815,158.87071925,-32.48354114
3.29848214,-8.21358339,-2.15346843,-0.47678541,2.91440727

>  <Name>
ligand

>  <RI>
0

>  <Rbt.Current_Directory>
/home/itssahil/PROJECTS/Mol_Feturizer/Test_systems_manuscript/rnas/4xwf

>  <Rbt.Executable>
rbdock ($Id: //depot/dev/client3/rdock/2013.1/src/exe/rbdock.cxx#4 $)

>  <Rbt.Library>
libRbt.so (2013.1, Build901 2013/11/27)

>  <Rbt.Parameter_File>
/export/apps/rDock/src/rDock_2013.1_src/data/scripts/dock_solv.prm

>  <Rbt.Receptor>
prm/pocket_docking_6.prm

>  <SCORE>
-6.0802

>  <SCORE.INTER>
-7.37872

>  <SCORE.INTER.CONST>
1

>  <SCORE.INTER.POLAR>
0

>  <SCORE.INTER.ROT>
5

>  <SCORE.INTER.SOLV>
11.2875

>  <SCORE.INTER.VDW>
-15.615

>  <SCORE.INTER.norm>
-0.335396

>  <SCORE.INTRA>
1.29852

>  <SCORE.INTRA.DIHEDRAL>
-0.435409

>  <SCORE.INTRA.DIHEDRAL.0>
3.49807

>  <SCORE.INTRA.POLAR>
0

>  <SCORE.INTRA.POLAR.0>
0

>  <SCORE.INTRA.REPUL>
0

>  <SCORE.INTRA.REPUL.0>
0

>  <SCORE.INTRA.SOLV>
2.43626

>  <SCORE.INTRA.SOLV.lig_0>
-73.062

>  <SCORE.INTRA.VDW>
0.298097

>  <SCORE.INTRA.VDW.0>
-1.83782

>  <SCORE.INTRA.norm>
0.0590237

>  <SCORE.RESTR>
0

>  <SCORE.RESTR.CAVITY>
0

>  <SCORE.RESTR.norm>
0

>  <SCORE.SYSTEM>
0

>  <SCORE.SYSTEM.CONST>
0

>  <SCORE.SYSTEM.DIHEDRAL>
0

>  <SCORE.SYSTEM.SOLV>
0

>  <SCORE.SYSTEM.norm>
0

>  <SCORE.heavy>
22

>  <SCORE.norm>
-0.276373

>  <RMSD>
6.977

$$$$
ligand
 OpenBabel02271912143D
libRbt.so/2013.1/901 2013/11/27
 22 23  0  0  0  0  0  0  0  0999 V2000
  -29.9881    3.2533   -9.1730 N   0  0  0  0  0  0  0  0  0  0  0  0
  -33.2910    2.9638   -9.8509 C   0  0  1  0  0  0  0  0  0  0  0  0
  -32.0494    3.6759  -10.1176 O   0  0  0  0  0  0  0  0  0  0  0  0
  -34.5228    5.6972   -7.5379 P   0  0  1  0  0  0  0  0  0  0  0  0
  -30.9657    2.7400  -10.0000 C   0  0  2  0  0  0  0  0  0  0  0  0
  -29.0148    4.1188   -7.4367 N   0  0  0  0  0  0  0  0  0  0  0  0
  -30.7939    0.3963   -9.5831 O   0  0  0  0  0  0  0  0  0  0  0  0
  -31.5471    1.5788   -9.2897 C   0  0  2  0  0  0  0  0  0  0  0  0
  -25.7263    3.0671   -8.2838 N   0  0  0  0  0  0  0  0  0  0  0  0
  -32.9628    1.0166  -11.1137 O   0  0  0  0  0  0  0  0  0  0  0  0
  -32.9217    1.5335   -9.7731 C   0  0  2  0  0  0  0  0  0  0  0  0
  -28.0749    3.8624   -8.3596 C   0  0  0  0  0  0  0  0  0  0  0  0
  -28.0423    2.8798  -10.6393 N   0  0  0  0  0  0  0  0  0  0  0  0
  -34.0839    4.8129   -8.7561 O   0  0  0  0  0  0  0  0  0  0  0  0
  -33.8122    3.4651   -8.5481 C   0  0  0  0  0  0  0  0  0  0  0  0
  -33.2205    5.7723   -6.6611 O   0  0  0  0  0  0  0  0  0  0  0  0
  -30.2035    3.7450   -7.9472 C   0  0  0  0  0  0  0  0  0  0  0  0
  -26.2227    5.2742   -8.0233 O   0  0  0  0  0  0  0  0  0  0  0  0
  -26.6318    4.1294   -8.2161 C   0  0  0  0  0  0  0  0  0  0  0  0
  -28.6798    3.3144   -9.4546 C   0  0  0  0  0  0  0  0  0  0  0  0
  -35.0174    7.0175   -8.0279 O   0  5  0  0  0  0  0  0  0  0  0  0
  -35.7332    5.1464   -6.9019 O   0  0  0  0  0  0  0  0  0  0  0  0
  1 17  1  0  0  0  0
  1 20  1  0  0  0  0
  2 15  1  1  0  0  0
  2  3  1  0  0  0  0
  2 11  1  0  0  0  0
  3  5  1  0  0  0  0
  4 16  1  1  0  0  0
  4 21  1  0  0  0  0
  4 22  2  0  0  0  0
  4 14  1  0  0  0  0
  5  1  1  1  0  0  0
  5  8  1  0  0  0  0
  6 17  2  0  0  0  0
  6 12  1  0  0  0  0
  8  7  1  6  0  0  0
  8 11  1  0  0  0  0
  9 19  1  0  0  0  0
 11 10  1  6  0  0  0
 12 20  2  0  0  0  0
 12 19  1  0  0  0  0
 13 20  1  0  0  0  0
 14 15  1  0  0  0  0
 18 19  2  0  0  0  0
M  CHG  1  21  -1
M  END
>  <CHROM.1>
51.42324482,63.43681804,68.66417414,-174.09369352,119.23150093,-31.36795822
3.75812201,-8.72786059,0.25276173,0.03516387,-2.55312377

>  <Name>
ligand

>  <RI>
0

>  <Rbt.Current_Directory>
/home/itssahil/PROJECTS/Mol_Feturizer/Test_systems_manuscript/rnas/4xwf

>  <Rbt.Executable>
rbdock ($Id: //depot/dev/client3/rdock/2013.1/src/exe/rbdock.cxx#4 $)

>  <Rbt.Library>
libRbt.so (2013.1, Build901 2013/11/27)

>  <Rbt.Parameter_File>
/export/apps/rDock/src/rDock_2013.1_src/data/scripts/dock_solv.prm

>  <Rbt.Receptor>
prm/pocket_docking_5.prm

>  <SCORE>
-5.99306

>  <SCORE.INTER>
-4.44619

>  <SCORE.INTER.CONST>
1

>  <SCORE.INTER.POLAR>
0

>  <SCORE.INTER.ROT>
5

>  <SCORE.INTER.SOLV>
16.2647

>  <SCORE.INTER.VDW>
-15.319

>  <SCORE.INTER.norm>
-0.2021

>  <SCORE.INTRA>
-1.54686

>  <SCORE.INTRA.DIHEDRAL>
-1.69132

>  <SCORE.INTRA.DIHEDRAL.0>
3.49807

>  <SCORE.INTRA.POLAR>
0

>  <SCORE.INTRA.POLAR.0>
0

>  <SCORE.INTRA.REPUL>
0

>  <SCORE.INTRA.REPUL.0>
0

>  <SCORE.INTRA.SOLV>
-0.588059

>  <SCORE.INTRA.SOLV.lig_0>
-73.062

>  <SCORE.INTRA.VDW>
-0.407174

>  <SCORE.INTRA.VDW.0>
-1.83782

>  <SCORE.INTRA.norm>
-0.0703119

>  <SCORE.RESTR>
0

>  <SCORE.RESTR.CAVITY>
0

>  <SCORE.RESTR.norm>
0

>  <SCORE.SYSTEM>
0

>  <SCORE.SYSTEM.CONST>
0

>  <SCORE.SYSTEM.DIHEDRAL>
0

>  <SCORE.SYSTEM.SOLV>
0

>  <SCORE.SYSTEM.norm>
0

>  <SCORE.heavy>
22

>  <SCORE.norm>
-0.272412

>  <RMSD>
6.980

$$$$
ligand
 OpenBabel02271912143D
libRbt.so/2013.1/901 2013/11/27
 22 23  0  0  0  0  0  0  0  0999 V2000
  -28.4984    1.4591  -12.2017 N   0  0  0  0  0  0  0  0  0  0  0  0
  -31.2743    0.8003  -10.3816 C   0  0  1  0  0  0  0  0  0  0  0  0
  -30.5932    0.6598  -11.6608 O   0  0  0  0  0  0  0  0  0  0  0  0
  -33.4470    3.5182   -8.8834 P   0  0  1  0  0  0  0  0  0  0  0  0
  -29.1825    0.5640  -11.4055 C   0  0  2  0  0  0  0  0  0  0  0  0
  -27.8736    3.3181  -13.1317 N   0  0  0  0  0  0  0  0  0  0  0  0
  -27.8200    0.4931   -9.4473 O   0  0  0  0  0  0  0  0  0  0  0  0
  -29.0199    1.0349  -10.0117 C   0  0  2  0  0  0  0  0  0  0  0  0
  -26.0297    1.8934  -15.7785 N   0  0  0  0  0  0  0  0  0  0  0  0
  -30.1758   -0.8376   -9.1147 O   0  0  0  0  0  0  0  0  0  0  0  0
  -30.2366    0.5790   -9.3508 C   0  0  2  0  0  0  0  0  0  0  0  0
  -27.0674    2.3389  -13.5697 C   0  0  0  0  0  0  0  0  0  0  0  0
  -26.8491   -0.1004  -13.1627 N   0  0  0  0  0  0  0  0  0  0  0  0
  -32.6391    2.2130   -9.2037 O   0  0  0  0  0  0  0  0  0  0  0  0
  -31.8150    2.1875  -10.3235 C   0  0  0  0  0  0  0  0  0  0  0  0
  -34.5067    3.5780  -10.0427 O   0  0  0  0  0  0  0  0  0  0  0  0
  -28.7658    2.7674  -12.2865 C   0  0  0  0  0  0  0  0  0  0  0  0
  -24.9567    3.1545  -14.2152 O   0  0  0  0  0  0  0  0  0  0  0  0
  -25.9539    2.5018  -14.5227 C   0  0  0  0  0  0  0  0  0  0  0  0
  -27.4527    1.1657  -12.9861 C   0  0  0  0  0  0  0  0  0  0  0  0
  -34.0316    3.4237   -7.5134 O   0  5  0  0  0  0  0  0  0  0  0  0
  -32.5404    4.6713   -8.7383 O   0  0  0  0  0  0  0  0  0  0  0  0
  1 17  1  0  0  0  0
  1 20  1  0  0  0  0
  2 15  1  1  0  0  0
  2  3  1  0  0  0  0
  2 11  1  0  0  0  0
  3  5  1  0  0  0  0
  4 16  1  6  0  0  0
  4 21  1  0  0  0  0
  4 22  2  0  0  0  0
  4 14  1  0  0  0  0
  5  1  1  6  0  0  0
  5  8  1  0  0  0  0
  6 17  2  0  0  0  0
  6 12  1  0  0  0  0
  8  7  1  1  0  0  0
  8 11  1  0  0  0  0
  9 19  1  0  0  0  0
 11 10  1  6  0  0  0
 12 20  2  0  0  0  0
 12 19  1  0  0  0  0
 13 20  1  0  0  0  0
 14 15  1  0  0  0  0
 18 19  2  0  0  0  0
M  CHG  1  21  -1
M  END
>  <CHROM.1>
52.66452418,170.35615307,69.04491978,-176.55929902,-114.33406779,-29.89337387
1.98552197,-11.04623453,-0.19991430,-0.61819289,2.57448804

>  <Name>
ligand

>  <RI>
0

>  <Rbt.Current_Directory>
/home/itssahil/PROJECTS/Mol_Feturizer/Test_systems_manuscript/rnas/4xwf

>  <Rbt.Executable>
rbdock ($Id: //depot/dev/client3/rdock/2013.1/src/exe/rbdock.cxx#4 $)

>  <Rbt.Library>
libRbt.so (2013.1, Build901 2013/11/27)

>  <Rbt.Parameter_File>
/export/apps/rDock/src/rDock_2013.1_src/data/scripts/dock_solv.prm

>  <Rbt.Receptor>
prm/pocket_docking_4.prm

>  <SCORE>
-6.76536

>  <SCORE.INTER>
-5.59356

>  <SCORE.INTER.CONST>
1

>  <SCORE.INTER.POLAR>
0

>  <SCORE.INTER.ROT>
5

>  <SCORE.INTER.SOLV>
14.3509

>  <SCORE.INTER.VDW>
-15.446

>  <SCORE.INTER.norm>
-0.254253

>  <SCORE.INTRA>
-1.17225

>  <SCORE.INTRA.DIHEDRAL>
-1.48982

>  <SCORE.INTRA.DIHEDRAL.0>
3.49807

>  <SCORE.INTRA.POLAR>
0

>  <SCORE.INTRA.POLAR.0>
0

>  <SCORE.INTRA.REPUL>
0

>  <SCORE.INTRA.REPUL.0>
0

>  <SCORE.INTRA.SOLV>
-0.634132

>  <SCORE.INTRA.SOLV.lig_0>
-73.062

>  <SCORE.INTRA.VDW>
-0.110273

>  <SCORE.INTRA.VDW.0>
-1.83782

>  <SCORE.INTRA.norm>
-0.053284

>  <SCORE.RESTR>
0.000446643

>  <SCORE.RESTR.CAVITY>
0.000446643

>  <SCORE.RESTR.norm>
2.03019e-05

>  <SCORE.SYSTEM>
0

>  <SCORE.SYSTEM.CONST>
0

>  <SCORE.SYSTEM.DIHEDRAL>
0

>  <SCORE.SYSTEM.SOLV>
0

>  <SCORE.SYSTEM.norm>
0

>  <SCORE.heavy>
22

>  <SCORE.norm>
-0.307516

>  <RMSD>
6.982

$$$$
ligand
 OpenBabel02271912143D
libRbt.so/2013.1/901 2013/11/27
 22 23  0  0  0  0  0  0  0  0999 V2000
  -30.1928    2.5694  -10.6697 N   0  0  0  0  0  0  0  0  0  0  0  0
  -33.3280    2.6119   -9.3965 C   0  0  1  0  0  0  0  0  0  0  0  0
  -32.4929    2.4268  -10.5747 O   0  0  0  0  0  0  0  0  0  0  0  0
  -34.5225    5.6133   -7.4376 P   0  0  1  0  0  0  0  0  0  0  0  0
  -31.2480    1.8478  -10.1512 C   0  0  2  0  0  0  0  0  0  0  0  0
  -28.8214    4.2050  -11.0640 N   0  0  0  0  0  0  0  0  0  0  0  0
  -30.3590    1.0856   -8.0716 O   0  0  0  0  0  0  0  0  0  0  0  0
  -31.2163    2.0548   -8.6859 C   0  0  2  0  0  0  0  0  0  0  0  0
  -26.2948    4.1402  -12.5933 N   0  0  0  0  0  0  0  0  0  0  0  0
  -33.0224    0.5564   -8.3120 O   0  0  0  0  0  0  0  0  0  0  0  0
  -32.6146    1.9346   -8.2917 C   0  0  2  0  0  0  0  0  0  0  0  0
  -28.3866    3.1240  -11.7295 C   0  0  0  0  0  0  0  0  0  0  0  0
  -29.1320    0.7688  -11.9767 N   0  0  0  0  0  0  0  0  0  0  0  0
  -34.3682    4.2203   -8.1407 O   0  0  0  0  0  0  0  0  0  0  0  0
  -33.4333    4.0792   -9.1604 C   0  0  0  0  0  0  0  0  0  0  0  0
  -34.9787    6.5577   -8.6082 O   0  0  0  0  0  0  0  0  0  0  0  0
  -29.9474    3.8592  -10.4112 C   0  0  0  0  0  0  0  0  0  0  0  0
  -26.9736    2.0837  -13.2975 O   0  0  0  0  0  0  0  0  0  0  0  0
  -27.1864    3.0641  -12.5843 C   0  0  0  0  0  0  0  0  0  0  0  0
  -29.2433    2.0891  -11.4837 C   0  0  0  0  0  0  0  0  0  0  0  0
  -35.4984    5.5033   -6.3136 O   0  5  0  0  0  0  0  0  0  0  0  0
  -33.2867    5.9763   -6.7208 O   0  0  0  0  0  0  0  0  0  0  0  0
  1 17  1  0  0  0  0
  1 20  1  0  0  0  0
  2 15  1  1  0  0  0
  2  3  1  0  0  0  0
  2 11  1  0  0  0  0
  3  5  1  0  0  0  0
  4 16  1  6  0  0  0
  4 21  1  0  0  0  0
  4 22  2  0  0  0  0
  4 14  1  0  0  0  0
  5  1  1  6  0  0  0
  5  8  1  0  0  0  0
  6 17  2  0  0  0  0
  6 12  1  0  0  0  0
  8  7  1  1  0  0  0
  8 11  1  0  0  0  0
  9 19  1  0  0  0  0
 11 10  1  6  0  0  0
 12 20  2  0  0  0  0
 12 19  1  0  0  0  0
 13 20  1  0  0  0  0
 14 15  1  0  0  0  0
 18 19  2  0  0  0  0
M  CHG  1  21  -1
M  END
>  <CHROM.1>
61.52562559,172.64659113,61.91167387,167.98387553,9.34447260,-31.49661615
3.35733906,-9.59627222,0.27724943,-0.62183484,3.09297048

>  <Name>
ligand

>  <RI>
0

>  <Rbt.Current_Directory>
/home/itssahil/PROJECTS/Mol_Feturizer/Test_systems_manuscript/rnas/4xwf

>  <Rbt.Executable>
rbdock ($Id: //depot/dev/client3/rdock/2013.1/src/exe/rbdock.cxx#4 $)

>  <Rbt.Library>
libRbt.so (2013.1, Build901 2013/11/27)

>  <Rbt.Parameter_File>
/export/apps/rDock/src/rDock_2013.1_src/data/scripts/dock_solv.prm

>  <Rbt.Receptor>
prm/pocket_docking_5.prm

>  <SCORE>
-7.39207

>  <SCORE.INTER>
-6.90236

>  <SCORE.INTER.CONST>
1

>  <SCORE.INTER.POLAR>
0

>  <SCORE.INTER.ROT>
5

>  <SCORE.INTER.SOLV>
10.1148

>  <SCORE.INTER.VDW>
-14.9065

>  <SCORE.INTER.norm>
-0.313743

>  <SCORE.INTRA>
-0.57871

>  <SCORE.INTRA.DIHEDRAL>
-1.00109

>  <SCORE.INTRA.DIHEDRAL.0>
3.49807

>  <SCORE.INTRA.POLAR>
0

>  <SCORE.INTRA.POLAR.0>
0

>  <SCORE.INTRA.REPUL>
0

>  <SCORE.INTRA.REPUL.0>
0

>  <SCORE.INTRA.SOLV>
-0.683894

>  <SCORE.INTRA.SOLV.lig_0>
-73.062

>  <SCORE.INTRA.VDW>
0.263784

>  <SCORE.INTRA.VDW.0>
-1.83782

>  <SCORE.INTRA.norm>
-0.026305

>  <SCORE.RESTR>
0.0889976

>  <SCORE.RESTR.CAVITY>
0.0889976

>  <SCORE.RESTR.norm>
0.00404535

>  <SCORE.SYSTEM>
0

>  <SCORE.SYSTEM.CONST>
0

>  <SCORE.SYSTEM.DIHEDRAL>
0

>  <SCORE.SYSTEM.SOLV>
0

>  <SCORE.SYSTEM.norm>
0

>  <SCORE.heavy>
22

>  <SCORE.norm>
-0.336003

>  <RMSD>
6.994

$$$$
ligand
 OpenBabel02271912143D
libRbt.so/2013.1/901 2013/11/27
 22 23  0  0  0  0  0  0  0  0999 V2000
  -33.3379    5.5837   -8.1263 N   0  0  0  0  0  0  0  0  0  0  0  0
  -30.3265    4.5126   -9.2384 C   0  0  1  0  0  0  0  0  0  0  0  0
  -31.5825    5.1727   -9.5649 O   0  0  0  0  0  0  0  0  0  0  0  0
  -31.1487    1.1768  -10.8366 P   0  0  1  0  0  0  0  0  0  0  0  0
  -32.0220    5.8929   -8.4018 C   0  0  2  0  0  0  0  0  0  0  0  0
  -35.2045    4.4834   -7.9980 N   0  0  0  0  0  0  0  0  0  0  0  0
  -31.1337    6.2876   -6.2222 O   0  0  0  0  0  0  0  0  0  0  0  0
  -31.2197    5.3362   -7.2895 C   0  0  2  0  0  0  0  0  0  0  0  0
  -37.7114    5.2746   -6.6594 N   0  0  0  0  0  0  0  0  0  0  0  0
  -29.1925    6.2426   -8.1357 O   0  0  0  0  0  0  0  0  0  0  0  0
  -29.9359    5.0331   -7.9099 C   0  0  2  0  0  0  0  0  0  0  0  0
  -35.3740    5.6683   -7.3914 C   0  0  0  0  0  0  0  0  0  0  0  0
  -33.9509    7.6495   -6.9294 N   0  0  0  0  0  0  0  0  0  0  0  0
  -30.8027    2.6721  -10.5158 O   0  0  0  0  0  0  0  0  0  0  0  0
  -30.6001    3.0487   -9.1926 C   0  0  0  0  0  0  0  0  0  0  0  0
  -32.7093    1.1230  -10.6574 O   0  0  0  0  0  0  0  0  0  0  0  0
  -33.9401    4.4360   -8.4591 C   0  0  0  0  0  0  0  0  0  0  0  0
  -36.7030    7.2880   -6.3201 O   0  0  0  0  0  0  0  0  0  0  0  0
  -36.6176    6.1393   -6.7539 C   0  0  0  0  0  0  0  0  0  0  0  0
  -34.2020    6.3656   -7.4655 C   0  0  0  0  0  0  0  0  0  0  0  0
  -30.6700    0.8335  -12.2081 O   0  5  0  0  0  0  0  0  0  0  0  0
  -30.3426    0.2643  -10.0059 O   0  0  0  0  0  0  0  0  0  0  0  0
  1 17  1  0  0  0  0
  1 20  1  0  0  0  0
  2 15  1  1  0  0  0
  2  3  1  0  0  0  0
  2 11  1  0  0  0  0
  3  5  1  0  0  0  0
  4 16  1  1  0  0  0
  4 21  1  0  0  0  0
  4 22  2  0  0  0  0
  4 14  1  0  0  0  0
  5  1  1  1  0  0  0
  5  8  1  0  0  0  0
  6 17  2  0  0  0  0
  6 12  1  0  0  0  0
  8  7  1  1  0  0  0
  8 11  1  0  0  0  0
  9 19  1  0  0  0  0
 11 10  1  6  0  0  0
 12 20  2  0  0  0  0
 12 19  1  0  0  0  0
 13 20  1  0  0  0  0
 14 15  1  0  0  0  0
 18 19  2  0  0  0  0
M  CHG  1  21  -1
M  END
>  <CHROM.1>
26.75705649,71.42428233,85.59419421,-178.76997176,5.18577890,-32.50532829
4.31847042,-8.65133528,-2.22818873,-0.11287653,-2.56285682

>  <Name>
ligand

>  <RI>
0

>  <Rbt.Current_Directory>
/home/itssahil/PROJECTS/Mol_Feturizer/Test_systems_manuscript/rnas/4xwf

>  <Rbt.Executable>
rbdock ($Id: //depot/dev/client3/rdock/2013.1/src/exe/rbdock.cxx#4 $)

>  <Rbt.Library>
libRbt.so (2013.1, Build901 2013/11/27)

>  <Rbt.Parameter_File>
/export/apps/rDock/src/rDock_2013.1_src/data/scripts/dock_solv.prm

>  <Rbt.Receptor>
prm/pocket_docking_7.prm

>  <SCORE>
-9.4386

>  <SCORE.INTER>
-8.92489

>  <SCORE.INTER.CONST>
1

>  <SCORE.INTER.POLAR>
0

>  <SCORE.INTER.ROT>
5

>  <SCORE.INTER.SOLV>
20.387

>  <SCORE.INTER.VDW>
-19.6789

>  <SCORE.INTER.norm>
-0.405677

>  <SCORE.INTRA>
-0.513711

>  <SCORE.INTRA.DIHEDRAL>
-0.675906

>  <SCORE.INTRA.DIHEDRAL.0>
3.49807

>  <SCORE.INTRA.POLAR>
0

>  <SCORE.INTRA.POLAR.0>
0

>  <SCORE.INTRA.REPUL>
0

>  <SCORE.INTRA.REPUL.0>
0

>  <SCORE.INTRA.SOLV>
0.249426

>  <SCORE.INTRA.SOLV.lig_0>
-73.062

>  <SCORE.INTRA.VDW>
-0.300471

>  <SCORE.INTRA.VDW.0>
-1.83782

>  <SCORE.INTRA.norm>
-0.0233505

>  <SCORE.RESTR>
0

>  <SCORE.RESTR.CAVITY>
0

>  <SCORE.RESTR.norm>
0

>  <SCORE.SYSTEM>
0

>  <SCORE.SYSTEM.CONST>
0

>  <SCORE.SYSTEM.DIHEDRAL>
0

>  <SCORE.SYSTEM.SOLV>
0

>  <SCORE.SYSTEM.norm>
0

>  <SCORE.heavy>
22

>  <SCORE.norm>
-0.429027

>  <RMSD>
7.003

$$$$
ligand
 OpenBabel02271912143D
libRbt.so/2013.1/901 2013/11/27
 22 23  0  0  0  0  0  0  0  0999 V2000
  -28.2227    2.3418  -14.3796 N   0  0  0  0  0  0  0  0  0  0  0  0
  -29.8775    0.5472  -12.0358 C   0  0  1  0  0  0  0  0  0  0  0  0
  -29.8381    1.0064  -13.4169 O   0  0  0  0  0  0  0  0  0  0  0  0
  -31.9400    2.0388   -9.2354 P   0  0  1  0  0  0  0  0  0  0  0  0
  -28.4608    1.1065  -13.8133 C   0  0  2  0  0  0  0  0  0  0  0  0
  -28.0205    4.4907  -14.6078 N   0  0  0  0  0  0  0  0  0  0  0  0
  -26.3649    0.6165  -12.7821 O   0  0  0  0  0  0  0  0  0  0  0  0
  -27.7008    1.0751  -12.5436 C   0  0  2  0  0  0  0  0  0  0  0  0
  -25.9060    4.3988  -17.4512 N   0  0  0  0  0  0  0  0  0  0  0  0
  -28.2967   -1.1824  -12.1008 O   0  0  0  0  0  0  0  0  0  0  0  0
  -28.4842    0.1842  -11.6963 C   0  0  2  0  0  0  0  0  0  0  0  0
  -27.6555    3.9108  -15.7615 C   0  0  0  0  0  0  0  0  0  0  0  0
  -27.4712    1.5816  -16.6007 N   0  0  0  0  0  0  0  0  0  0  0  0
  -31.1163    1.1102  -10.1934 O   0  0  0  0  0  0  0  0  0  0  0  0
  -30.3618    1.6879  -11.2086 C   0  0  0  0  0  0  0  0  0  0  0  0
  -33.0681    2.6085  -10.1700 O   0  0  0  0  0  0  0  0  0  0  0  0
  -28.3783    3.5137  -13.7529 C   0  0  0  0  0  0  0  0  0  0  0  0
  -27.9469    5.4033  -17.5573 O   0  0  0  0  0  0  0  0  0  0  0  0
  -27.2014    4.6164  -16.9741 C   0  0  0  0  0  0  0  0  0  0  0  0
  -27.7772    2.5573  -15.6246 C   0  0  0  0  0  0  0  0  0  0  0  0
  -32.4393    1.2456   -8.0737 O   0  5  0  0  0  0  0  0  0  0  0  0
  -31.0593    3.0150   -8.5692 O   0  0  0  0  0  0  0  0  0  0  0  0
  1 17  1  0  0  0  0
  1 20  1  0  0  0  0
  2 15  1  1  0  0  0
  2  3  1  0  0  0  0
  2 11  1  0  0  0  0
  3  5  1  0  0  0  0
  4 16  1  6  0  0  0
  4 21  1  0  0  0  0
  4 22  2  0  0  0  0
  4 14  1  0  0  0  0
  5  1  1  1  0  0  0
  5  8  1  0  0  0  0
  6 17  2  0  0  0  0
  6 12  1  0  0  0  0
  8  7  1  6  0  0  0
  8 11  1  0  0  0  0
  9 19  1  0  0  0  0
 11 10  1  6  0  0  0
 12 20  2  0  0  0  0
 12 19  1  0  0  0  0
 13 20  1  0  0  0  0
 14 15  1  0  0  0  0
 18 19  2  0  0  0  0
M  CHG  1  21  -1
M  END
>  <CHROM.1>
60.92519652,145.60023058,68.92487103,-172.06993668,117.45021233,-29.21798688
2.12890754,-12.79127154,-0.74396809,-0.78662699,2.50791938

>  <Name>
ligand

>  <RI>
0

>  <Rbt.Current_Directory>
/home/itssahil/PROJECTS/Mol_Feturizer/Test_systems_manuscript/rnas/4xwf

>  <Rbt.Executable>
rbdock ($Id: //depot/dev/client3/rdock/2013.1/src/exe/rbdock.cxx#4 $)

>  <Rbt.Library>
libRbt.so (2013.1, Build901 2013/11/27)

>  <Rbt.Parameter_File>
/export/apps/rDock/src/rDock_2013.1_src/data/scripts/dock_solv.prm

>  <Rbt.Receptor>
prm/pocket_docking_6.prm

>  <SCORE>
-4.97014

>  <SCORE.INTER>
-5.29606

>  <SCORE.INTER.CONST>
1

>  <SCORE.INTER.POLAR>
0

>  <SCORE.INTER.ROT>
5

>  <SCORE.INTER.SOLV>
8.85982

>  <SCORE.INTER.VDW>
-13.4173

>  <SCORE.INTER.norm>
-0.24073

>  <SCORE.INTRA>
0.325911

>  <SCORE.INTRA.DIHEDRAL>
1.56905

>  <SCORE.INTRA.DIHEDRAL.0>
3.49807

>  <SCORE.INTRA.POLAR>
0

>  <SCORE.INTRA.POLAR.0>
0

>  <SCORE.INTRA.REPUL>
0

>  <SCORE.INTRA.REPUL.0>
0

>  <SCORE.INTRA.SOLV>
-0.971515

>  <SCORE.INTRA.SOLV.lig_0>
-73.062

>  <SCORE.INTRA.VDW>
0.0271419

>  <SCORE.INTRA.VDW.0>
-1.83782

>  <SCORE.INTRA.norm>
0.0148142

>  <SCORE.RESTR>
0

>  <SCORE.RESTR.CAVITY>
0

>  <SCORE.RESTR.norm>
0

>  <SCORE.SYSTEM>
0

>  <SCORE.SYSTEM.CONST>
0

>  <SCORE.SYSTEM.DIHEDRAL>
0

>  <SCORE.SYSTEM.SOLV>
0

>  <SCORE.SYSTEM.norm>
0

>  <SCORE.heavy>
22

>  <SCORE.norm>
-0.225916

>  <RMSD>
7.025

$$$$
ligand
 OpenBabel02271912143D
libRbt.so/2013.1/901 2013/11/27
 22 23  0  0  0  0  0  0  0  0999 V2000
  -28.2604    2.3230  -14.4482 N   0  0  0  0  0  0  0  0  0  0  0  0
  -29.8870    0.5429  -12.0738 C   0  0  1  0  0  0  0  0  0  0  0  0
  -29.8694    1.0020  -13.4554 O   0  0  0  0  0  0  0  0  0  0  0  0
  -31.8747    2.0363   -9.2258 P   0  0  1  0  0  0  0  0  0  0  0  0
  -28.4989    1.0898  -13.8776 C   0  0  2  0  0  0  0  0  0  0  0  0
  -28.0482    4.4705  -14.6813 N   0  0  0  0  0  0  0  0  0  0  0  0
  -26.3886    0.5806  -12.8861 O   0  0  0  0  0  0  0  0  0  0  0  0
  -27.7155    1.0512  -12.6224 C   0  0  2  0  0  0  0  0  0  0  0  0
  -25.9755    4.3489  -17.5605 N   0  0  0  0  0  0  0  0  0  0  0  0
  -28.3233   -1.2009  -12.1686 O   0  0  0  0  0  0  0  0  0  0  0  0
  -28.4908    0.1673  -11.7606 C   0  0  2  0  0  0  0  0  0  0  0  0
  -27.7007    3.8871  -15.8387 C   0  0  0  0  0  0  0  0  0  0  0  0
  -27.5405    1.5559  -16.6774 N   0  0  0  0  0  0  0  0  0  0  0  0
  -31.0365    1.1131  -10.1766 O   0  0  0  0  0  0  0  0  0  0  0  0
  -30.3453    1.6877  -11.2376 C   0  0  0  0  0  0  0  0  0  0  0  0
  -33.0286    2.5575  -10.1571 O   0  0  0  0  0  0  0  0  0  0  0  0
  -28.4014    3.4965  -13.8209 C   0  0  0  0  0  0  0  0  0  0  0  0
  -27.9992    5.3913  -17.6235 O   0  0  0  0  0  0  0  0  0  0  0  0
  -27.2571    4.5887  -17.0575 C   0  0  0  0  0  0  0  0  0  0  0  0
  -27.8288    2.5346  -15.6987 C   0  0  0  0  0  0  0  0  0  0  0  0
  -32.3386    1.2512   -8.0441 O   0  5  0  0  0  0  0  0  0  0  0  0
  -31.0136    3.0484   -8.5880 O   0  0  0  0  0  0  0  0  0  0  0  0
  1 17  1  0  0  0  0
  1 20  1  0  0  0  0
  2 15  1  1  0  0  0
  2  3  1  0  0  0  0
  2 11  1  0  0  0  0
  3  5  1  0  0  0  0
  4 16  1  6  0  0  0
  4 21  1  0  0  0  0
  4 22  2  0  0  0  0
  4 14  1  0  0  0  0
  5  1  1  1  0  0  0
  5  8  1  0  0  0  0
  6 17  2  0  0  0  0
  6 12  1  0  0  0  0
  8  7  1  6  0  0  0
  8 11  1  0  0  0  0
  9 19  1  0  0  0  0
 11 10  1  6  0  0  0
 12 20  2  0  0  0  0
 12 19  1  0  0  0  0
 13 20  1  0  0  0  0
 14 15  1  0  0  0  0
 18 19  2  0  0  0  0
M  CHG  1  21  -1
M  END
>  <CHROM.1>
60.49992976,148.10503837,66.82973874,-169.43141953,118.31874474,-29.22255657
2.11412904,-12.83779533,-0.74911257,-0.80849292,2.50678836

>  <Name>
ligand

>  <RI>
0

>  <Rbt.Current_Directory>
/home/itssahil/PROJECTS/Mol_Feturizer/Test_systems_manuscript/rnas/4xwf

>  <Rbt.Executable>
rbdock ($Id: //depot/dev/client3/rdock/2013.1/src/exe/rbdock.cxx#4 $)

>  <Rbt.Library>
libRbt.so (2013.1, Build901 2013/11/27)

>  <Rbt.Parameter_File>
/export/apps/rDock/src/rDock_2013.1_src/data/scripts/dock_solv.prm

>  <Rbt.Receptor>
prm/pocket_docking_6.prm

>  <SCORE>
-4.98431

>  <SCORE.INTER>
-5.22786

>  <SCORE.INTER.CONST>
1

>  <SCORE.INTER.POLAR>
0

>  <SCORE.INTER.ROT>
5

>  <SCORE.INTER.SOLV>
9.2203

>  <SCORE.INTER.VDW>
-13.492

>  <SCORE.INTER.norm>
-0.23763

>  <SCORE.INTRA>
0.243547

>  <SCORE.INTRA.DIHEDRAL>
1.41798

>  <SCORE.INTRA.DIHEDRAL.0>
3.49807

>  <SCORE.INTRA.POLAR>
0

>  <SCORE.INTRA.POLAR.0>
0

>  <SCORE.INTRA.REPUL>
0

>  <SCORE.INTRA.REPUL.0>
0

>  <SCORE.INTRA.SOLV>
-0.97453

>  <SCORE.INTRA.SOLV.lig_0>
-73.062

>  <SCORE.INTRA.VDW>
0.0218238

>  <SCORE.INTRA.VDW.0>
-1.83782

>  <SCORE.INTRA.norm>
0.0110703

>  <SCORE.RESTR>
0

>  <SCORE.RESTR.CAVITY>
0

>  <SCORE.RESTR.norm>
0

>  <SCORE.SYSTEM>
0

>  <SCORE.SYSTEM.CONST>
0

>  <SCORE.SYSTEM.DIHEDRAL>
0

>  <SCORE.SYSTEM.SOLV>
0

>  <SCORE.SYSTEM.norm>
0

>  <SCORE.heavy>
22

>  <SCORE.norm>
-0.22656

>  <RMSD>
7.029

$$$$
ligand
 OpenBabel02271912143D
libRbt.so/2013.1/901 2013/11/27
 22 23  0  0  0  0  0  0  0  0999 V2000
  -30.0906    3.2099   -9.1465 N   0  0  0  0  0  0  0  0  0  0  0  0
  -33.4016    2.9844   -9.8093 C   0  0  1  0  0  0  0  0  0  0  0  0
  -32.1467    3.6691  -10.0855 O   0  0  0  0  0  0  0  0  0  0  0  0
  -34.5679    5.7525   -7.4995 P   0  0  1  0  0  0  0  0  0  0  0  0
  -31.0820    2.7117   -9.9664 C   0  0  2  0  0  0  0  0  0  0  0  0
  -29.0986    4.1055   -7.4363 N   0  0  0  0  0  0  0  0  0  0  0  0
  -30.9567    0.3676   -9.5355 O   0  0  0  0  0  0  0  0  0  0  0  0
  -31.6842    1.5672   -9.2465 C   0  0  2  0  0  0  0  0  0  0  0  0
  -25.8706    2.8239   -8.0861 N   0  0  0  0  0  0  0  0  0  0  0  0
  -33.1187    1.0229  -11.0612 O   0  0  0  0  0  0  0  0  0  0  0  0
  -33.0614    1.5472   -9.7240 C   0  0  2  0  0  0  0  0  0  0  0  0
  -28.1596    3.7497   -8.3263 C   0  0  0  0  0  0  0  0  0  0  0  0
  -28.1449    2.6527  -10.5534 N   0  0  0  0  0  0  0  0  0  0  0  0
  -34.0661    4.8728   -8.6965 O   0  0  0  0  0  0  0  0  0  0  0  0
  -33.9069    3.5043   -8.5077 C   0  0  0  0  0  0  0  0  0  0  0  0
  -36.0230    5.2156   -7.2446 O   0  0  0  0  0  0  0  0  0  0  0  0
  -30.2981    3.7744   -7.9512 C   0  0  0  0  0  0  0  0  0  0  0  0
  -26.2279    5.0729   -8.0918 O   0  0  0  0  0  0  0  0  0  0  0  0
  -26.7061    3.9412   -8.1676 C   0  0  0  0  0  0  0  0  0  0  0  0
  -28.7764    3.1822   -9.4047 C   0  0  0  0  0  0  0  0  0  0  0  0
  -33.6393    5.6008   -6.3407 O   0  5  0  0  0  0  0  0  0  0  0  0
  -34.4225    7.1865   -7.8081 O   0  0  0  0  0  0  0  0  0  0  0  0
  1 17  1  0  0  0  0
  1 20  1  0  0  0  0
  2 15  1  1  0  0  0
  2  3  1  0  0  0  0
  2 11  1  0  0  0  0
  3  5  1  0  0  0  0
  4 16  1  1  0  0  0
  4 21  1  0  0  0  0
  4 22  2  0  0  0  0
  4 14  1  0  0  0  0
  5  1  1  1  0  0  0
  5  8  1  0  0  0  0
  6 17  2  0  0  0  0
  6 12  1  0  0  0  0
  8  7  1  6  0  0  0
  8 11  1  0  0  0  0
  9 19  1  0  0  0  0
 11 10  1  6  0  0  0
 12 20  2  0  0  0  0
 12 19  1  0  0  0  0
 13 20  1  0  0  0  0
 14 15  1  0  0  0  0
 18 19  2  0  0  0  0
M  CHG  1  21  -1
M  END
>  <CHROM.1>
47.89712699,59.54676283,-64.76604798,-178.91419559,115.52184324,-31.45250312
3.72256660,-8.68242610,0.27449206,0.04818842,-2.55536863

>  <Name>
ligand

>  <RI>
0

>  <Rbt.Current_Directory>
/home/itssahil/PROJECTS/Mol_Feturizer/Test_systems_manuscript/rnas/4xwf

>  <Rbt.Executable>
rbdock ($Id: //depot/dev/client3/rdock/2013.1/src/exe/rbdock.cxx#4 $)

>  <Rbt.Library>
libRbt.so (2013.1, Build901 2013/11/27)

>  <Rbt.Parameter_File>
/export/apps/rDock/src/rDock_2013.1_src/data/scripts/dock_solv.prm

>  <Rbt.Receptor>
prm/pocket_docking_5.prm

>  <SCORE>
-7.62455

>  <SCORE.INTER>
-6.08444

>  <SCORE.INTER.CONST>
1

>  <SCORE.INTER.POLAR>
0

>  <SCORE.INTER.ROT>
5

>  <SCORE.INTER.SOLV>
11.9236

>  <SCORE.INTER.VDW>
-14.9642

>  <SCORE.INTER.norm>
-0.276565

>  <SCORE.INTRA>
-1.54011

>  <SCORE.INTRA.DIHEDRAL>
-1.92147

>  <SCORE.INTRA.DIHEDRAL.0>
3.49807

>  <SCORE.INTRA.POLAR>
0

>  <SCORE.INTRA.POLAR.0>
0

>  <SCORE.INTRA.REPUL>
0

>  <SCORE.INTRA.REPUL.0>
0

>  <SCORE.INTRA.SOLV>
-0.47975

>  <SCORE.INTRA.SOLV.lig_0>
-73.062

>  <SCORE.INTRA.VDW>
-0.339504

>  <SCORE.INTRA.VDW.0>
-1.83782

>  <SCORE.INTRA.norm>
-0.0700052

>  <SCORE.RESTR>
0

>  <SCORE.RESTR.CAVITY>
0

>  <SCORE.RESTR.norm>
0

>  <SCORE.SYSTEM>
0

>  <SCORE.SYSTEM.CONST>
0

>  <SCORE.SYSTEM.DIHEDRAL>
0

>  <SCORE.SYSTEM.SOLV>
0

>  <SCORE.SYSTEM.norm>
0

>  <SCORE.heavy>
22

>  <SCORE.norm>
-0.34657

>  <RMSD>
7.034

$$$$
ligand
 OpenBabel02271912143D
libRbt.so/2013.1/901 2013/11/27
 22 23  0  0  0  0  0  0  0  0999 V2000
  -30.1148    3.3049   -9.0957 N   0  0  0  0  0  0  0  0  0  0  0  0
  -33.4114    3.0125   -9.8022 C   0  0  1  0  0  0  0  0  0  0  0  0
  -32.1647    3.7153  -10.0699 O   0  0  0  0  0  0  0  0  0  0  0  0
  -34.6258    5.7970   -7.5386 P   0  0  1  0  0  0  0  0  0  0  0  0
  -31.0854    2.7784   -9.9227 C   0  0  2  0  0  0  0  0  0  0  0  0
  -29.1563    4.1998   -7.3661 N   0  0  0  0  0  0  0  0  0  0  0  0
  -30.9258    0.4429   -9.4581 O   0  0  0  0  0  0  0  0  0  0  0  0
  -31.6781    1.6333   -9.1958 C   0  0  2  0  0  0  0  0  0  0  0  0
  -26.1242    5.0384   -9.0312 N   0  0  0  0  0  0  0  0  0  0  0  0
  -33.0766    1.0397  -11.0231 O   0  0  0  0  0  0  0  0  0  0  0  0
  -33.0477    1.5828   -9.6925 C   0  0  2  0  0  0  0  0  0  0  0  0
  -28.2082    3.9252   -8.2752 C   0  0  0  0  0  0  0  0  0  0  0  0
  -28.1558    2.9017  -10.5365 N   0  0  0  0  0  0  0  0  0  0  0  0
  -34.1406    4.9007   -8.7301 O   0  0  0  0  0  0  0  0  0  0  0  0
  -33.9444    3.5409   -8.5150 C   0  0  0  0  0  0  0  0  0  0  0  0
  -36.0758    5.2613   -7.2537 O   0  0  0  0  0  0  0  0  0  0  0  0
  -30.3408    3.8189   -7.8811 C   0  0  0  0  0  0  0  0  0  0  0  0
  -26.1239    3.6655   -7.2144 O   0  0  0  0  0  0  0  0  0  0  0  0
  -26.7660    4.1923   -8.1229 C   0  0  0  0  0  0  0  0  0  0  0  0
  -28.8037    3.3586   -9.3660 C   0  0  0  0  0  0  0  0  0  0  0  0
  -33.6794    5.6640   -6.3921 O   0  5  0  0  0  0  0  0  0  0  0  0
  -34.4881    7.2265   -7.8704 O   0  0  0  0  0  0  0  0  0  0  0  0
  1 17  1  0  0  0  0
  1 20  1  0  0  0  0
  2 15  1  1  0  0  0
  2  3  1  0  0  0  0
  2 11  1  0  0  0  0
  3  5  1  0  0  0  0
  4 16  1  1  0  0  0
  4 21  1  0  0  0  0
  4 22  2  0  0  0  0
  4 14  1  0  0  0  0
  5  1  1  1  0  0  0
  5  8  1  0  0  0  0
  6 17  2  0  0  0  0
  6 12  1  0  0  0  0
  8  7  1  6  0  0  0
  8 11  1  0  0  0  0
  9 19  1  0  0  0  0
 11 10  1  6  0  0  0
 12 20  2  0  0  0  0
 12 19  1  0  0  0  0
 13 20  1  0  0  0  0
 14 15  1  0  0  0  0
 18 19  2  0  0  0  0
M  CHG  1  21  -1
M  END
>  <CHROM.1>
51.55826139,60.28058053,-66.32208616,-176.55685555,-120.03053586,-31.48414709
3.81950972,-8.66662345,0.23988528,0.03968369,-2.55831572

>  <Name>
ligand

>  <RI>
0

>  <Rbt.Current_Directory>
/home/itssahil/PROJECTS/Mol_Feturizer/Test_systems_manuscript/rnas/4xwf

>  <Rbt.Executable>
rbdock ($Id: //depot/dev/client3/rdock/2013.1/src/exe/rbdock.cxx#4 $)

>  <Rbt.Library>
libRbt.so (2013.1, Build901 2013/11/27)

>  <Rbt.Parameter_File>
/export/apps/rDock/src/rDock_2013.1_src/data/scripts/dock_solv.prm

>  <Rbt.Receptor>
prm/pocket_docking_5.prm

>  <SCORE>
-7.61547

>  <SCORE.INTER>
-6.14582

>  <SCORE.INTER.CONST>
1

>  <SCORE.INTER.POLAR>
0

>  <SCORE.INTER.ROT>
5

>  <SCORE.INTER.SOLV>
12.3549

>  <SCORE.INTER.VDW>
-15.1488

>  <SCORE.INTER.norm>
-0.279355

>  <SCORE.INTRA>
-1.46965

>  <SCORE.INTRA.DIHEDRAL>
-1.84592

>  <SCORE.INTRA.DIHEDRAL.0>
3.49807

>  <SCORE.INTRA.POLAR>
0

>  <SCORE.INTRA.POLAR.0>
0

>  <SCORE.INTRA.REPUL>
0

>  <SCORE.INTRA.REPUL.0>
0

>  <SCORE.INTRA.SOLV>
-0.515255

>  <SCORE.INTRA.SOLV.lig_0>
-73.062

>  <SCORE.INTRA.VDW>
-0.289069

>  <SCORE.INTRA.VDW.0>
-1.83782

>  <SCORE.INTRA.norm>
-0.0668025

>  <SCORE.RESTR>
0

>  <SCORE.RESTR.CAVITY>
0

>  <SCORE.RESTR.norm>
0

>  <SCORE.SYSTEM>
0

>  <SCORE.SYSTEM.CONST>
0

>  <SCORE.SYSTEM.DIHEDRAL>
0

>  <SCORE.SYSTEM.SOLV>
0

>  <SCORE.SYSTEM.norm>
0

>  <SCORE.heavy>
22

>  <SCORE.norm>
-0.346158

>  <RMSD>
7.039

$$$$
ligand
 OpenBabel02271912143D
libRbt.so/2013.1/901 2013/11/27
 22 23  0  0  0  0  0  0  0  0999 V2000
  -32.8853    4.1702   -9.1453 N   0  0  0  0  0  0  0  0  0  0  0  0
  -34.8726    6.4895   -7.6879 C   0  0  1  0  0  0  0  0  0  0  0  0
  -34.4222    5.8764   -8.9293 O   0  0  0  0  0  0  0  0  0  0  0  0
  -32.5148    9.3789   -8.2755 P   0  0  1  0  0  0  0  0  0  0  0  0
  -34.1375    4.4932   -8.6647 C   0  0  2  0  0  0  0  0  0  0  0  0
  -30.7821    4.3216   -9.6596 N   0  0  0  0  0  0  0  0  0  0  0  0
  -34.3290    3.0613   -6.7650 O   0  0  0  0  0  0  0  0  0  0  0  0
  -34.0557    4.4017   -7.1897 C   0  0  2  0  0  0  0  0  0  0  0  0
  -30.2988    0.7788   -9.9533 N   0  0  0  0  0  0  0  0  0  0  0  0
  -36.3702    4.8624   -6.9104 O   0  0  0  0  0  0  0  0  0  0  0  0
  -35.0392    5.3746   -6.7300 C   0  0  2  0  0  0  0  0  0  0  0  0
  -31.2038    3.0884   -9.9792 C   0  0  0  0  0  0  0  0  0  0  0  0
  -33.3440    1.8415   -9.8106 N   0  0  0  0  0  0  0  0  0  0  0  0
  -33.7403    8.4012   -8.2439 O   0  0  0  0  0  0  0  0  0  0  0  0
  -33.8029    7.4300   -7.2506 C   0  0  0  0  0  0  0  0  0  0  0  0
  -32.8348   10.3163   -9.4960 O   0  0  0  0  0  0  0  0  0  0  0  0
  -31.8306    4.9936   -9.1473 C   0  0  0  0  0  0  0  0  0  0  0  0
  -29.7499    2.2314  -11.6189 O   0  0  0  0  0  0  0  0  0  0  0  0
  -30.3782    2.0249  -10.5808 C   0  0  0  0  0  0  0  0  0  0  0  0
  -32.5266    2.9845   -9.6554 C   0  0  0  0  0  0  0  0  0  0  0  0
  -32.4011   10.0844   -6.9651 O   0  5  0  0  0  0  0  0  0  0  0  0
  -31.2477    8.6271   -8.3166 O   0  0  0  0  0  0  0  0  0  0  0  0
  1 17  1  0  0  0  0
  1 20  1  0  0  0  0
  2 15  1  1  0  0  0
  2  3  1  0  0  0  0
  2 11  1  0  0  0  0
  3  5  1  0  0  0  0
  4 16  1  6  0  0  0
  4 21  1  0  0  0  0
  4 22  2  0  0  0  0
  4 14  1  0  0  0  0
  5  1  1  6  0  0  0
  5  8  1  0  0  0  0
  6 17  2  0  0  0  0
  6 12  1  0  0  0  0
  8  7  1  6  0  0  0
  8 11  1  0  0  0  0
  9 19  1  0  0  0  0
 11 10  1  6  0  0  0
 12 20  2  0  0  0  0
 12 19  1  0  0  0  0
 13 20  1  0  0  0  0
 14 15  1  0  0  0  0
 18 19  2  0  0  0  0
M  CHG  1  21  -1
M  END
>  <CHROM.1>
35.01806781,63.84891010,-178.77894696,-166.69498914,125.20461904,-32.86252950
5.56964363,-8.63162810,1.29780395,-0.56514484,-3.00582400

>  <Name>
ligand

>  <RI>
0

>  <Rbt.Current_Directory>
/home/itssahil/PROJECTS/Mol_Feturizer/Test_systems_manuscript/rnas/4xwf

>  <Rbt.Executable>
rbdock ($Id: //depot/dev/client3/rdock/2013.1/src/exe/rbdock.cxx#4 $)

>  <Rbt.Library>
libRbt.so (2013.1, Build901 2013/11/27)

>  <Rbt.Parameter_File>
/export/apps/rDock/src/rDock_2013.1_src/data/scripts/dock_solv.prm

>  <Rbt.Receptor>
prm/pocket_docking_7.prm

>  <SCORE>
-10.026

>  <SCORE.INTER>
-9.31439

>  <SCORE.INTER.CONST>
1

>  <SCORE.INTER.POLAR>
0

>  <SCORE.INTER.ROT>
5

>  <SCORE.INTER.SOLV>
17.0008

>  <SCORE.INTER.VDW>
-18.8099

>  <SCORE.INTER.norm>
-0.423381

>  <SCORE.INTRA>
-0.711641

>  <SCORE.INTRA.DIHEDRAL>
-1.08511

>  <SCORE.INTRA.DIHEDRAL.0>
3.49807

>  <SCORE.INTRA.POLAR>
0

>  <SCORE.INTRA.POLAR.0>
0

>  <SCORE.INTRA.REPUL>
0

>  <SCORE.INTRA.REPUL.0>
0

>  <SCORE.INTRA.SOLV>
0.84924

>  <SCORE.INTRA.SOLV.lig_0>
-73.062

>  <SCORE.INTRA.VDW>
-0.593706

>  <SCORE.INTRA.VDW.0>
-1.83782

>  <SCORE.INTRA.norm>
-0.0323473

>  <SCORE.RESTR>
0

>  <SCORE.RESTR.CAVITY>
0

>  <SCORE.RESTR.norm>
0

>  <SCORE.SYSTEM>
0

>  <SCORE.SYSTEM.CONST>
0

>  <SCORE.SYSTEM.DIHEDRAL>
0

>  <SCORE.SYSTEM.SOLV>
0

>  <SCORE.SYSTEM.norm>
0

>  <SCORE.heavy>
22

>  <SCORE.norm>
-0.455729

>  <RMSD>
7.059

$$$$
ligand
 OpenBabel02271912143D
libRbt.so/2013.1/901 2013/11/27
 22 23  0  0  0  0  0  0  0  0999 V2000
  -30.1074    3.5898   -9.2929 N   0  0  0  0  0  0  0  0  0  0  0  0
  -33.4248    3.0324   -9.6631 C   0  0  1  0  0  0  0  0  0  0  0  0
  -32.2605    3.7925  -10.0948 O   0  0  0  0  0  0  0  0  0  0  0  0
  -34.7439    5.8631   -7.5200 P   0  0  1  0  0  0  0  0  0  0  0  0
  -31.1082    2.9412   -9.9865 C   0  0  2  0  0  0  0  0  0  0  0  0
  -29.0912    4.7780   -7.7874 N   0  0  0  0  0  0  0  0  0  0  0  0
  -30.7411    0.6622   -9.3803 O   0  0  0  0  0  0  0  0  0  0  0  0
  -31.5500    1.8176   -9.1302 C   0  0  2  0  0  0  0  0  0  0  0  0
  -26.2051    5.3120   -7.5082 N   0  0  0  0  0  0  0  0  0  0  0  0
  -33.0606    0.9997  -10.7723 O   0  0  0  0  0  0  0  0  0  0  0  0
  -32.9515    1.6415   -9.4906 C   0  0  2  0  0  0  0  0  0  0  0  0
  -28.1688    4.2996   -8.6365 C   0  0  0  0  0  0  0  0  0  0  0  0
  -28.1885    2.8486  -10.6508 N   0  0  0  0  0  0  0  0  0  0  0  0
  -34.3001    4.9074   -8.6812 O   0  0  0  0  0  0  0  0  0  0  0  0
  -33.8766    3.6198   -8.3705 C   0  0  0  0  0  0  0  0  0  0  0  0
  -35.3440    7.0997   -8.2824 O   0  0  0  0  0  0  0  0  0  0  0  0
  -30.2957    4.3404   -8.2012 C   0  0  0  0  0  0  0  0  0  0  0  0
  -25.9585    4.0960   -9.4177 O   0  0  0  0  0  0  0  0  0  0  0  0
  -26.7169    4.5459   -8.5589 C   0  0  0  0  0  0  0  0  0  0  0  0
  -28.8008    3.5478   -9.5856 C   0  0  0  0  0  0  0  0  0  0  0  0
  -35.7098    5.1558   -6.6287 O   0  5  0  0  0  0  0  0  0  0  0  0
  -33.6235    6.1187   -6.5969 O   0  0  0  0  0  0  0  0  0  0  0  0
  1 17  1  0  0  0  0
  1 20  1  0  0  0  0
  2 15  1  1  0  0  0
  2  3  1  0  0  0  0
  2 11  1  0  0  0  0
  3  5  1  0  0  0  0
  4 16  1  6  0  0  0
  4 21  1  0  0  0  0
  4 22  2  0  0  0  0
  4 14  1  0  0  0  0
  5  1  1  1  0  0  0
  5  8  1  0  0  0  0
  6 17  2  0  0  0  0
  6 12  1  0  0  0  0
  8  7  1  6  0  0  0
  8 11  1  0  0  0  0
  9 19  1  0  0  0  0
 11 10  1  6  0  0  0
 12 20  2  0  0  0  0
 12 19  1  0  0  0  0
 13 20  1  0  0  0  0
 14 15  1  0  0  0  0
 18 19  2  0  0  0  0
M  CHG  1  21  -1
M  END
>  <CHROM.1>
41.37011388,65.41353245,-171.64342994,-175.30160861,1.68904853,-31.49740739
3.98905406,-8.74989527,0.25184348,-0.03745103,-2.60065052

>  <Name>
ligand

>  <RI>
0

>  <Rbt.Current_Directory>
/home/itssahil/PROJECTS/Mol_Feturizer/Test_systems_manuscript/rnas/4xwf

>  <Rbt.Executable>
rbdock ($Id: //depot/dev/client3/rdock/2013.1/src/exe/rbdock.cxx#4 $)

>  <Rbt.Library>
libRbt.so (2013.1, Build901 2013/11/27)

>  <Rbt.Parameter_File>
/export/apps/rDock/src/rDock_2013.1_src/data/scripts/dock_solv.prm

>  <Rbt.Receptor>
prm/pocket_docking_5.prm

>  <SCORE>
-7.99298

>  <SCORE.INTER>
-6.993

>  <SCORE.INTER.CONST>
1

>  <SCORE.INTER.POLAR>
0

>  <SCORE.INTER.ROT>
5

>  <SCORE.INTER.SOLV>
10.3737

>  <SCORE.INTER.VDW>
-15.0532

>  <SCORE.INTER.norm>
-0.317864

>  <SCORE.INTRA>
-0.999978

>  <SCORE.INTRA.DIHEDRAL>
-1.70735

>  <SCORE.INTRA.DIHEDRAL.0>
3.49807

>  <SCORE.INTRA.POLAR>
0

>  <SCORE.INTRA.POLAR.0>
0

>  <SCORE.INTRA.REPUL>
0

>  <SCORE.INTRA.REPUL.0>
0

>  <SCORE.INTRA.SOLV>
0.291236

>  <SCORE.INTRA.SOLV.lig_0>
-73.062

>  <SCORE.INTRA.VDW>
-0.291922

>  <SCORE.INTRA.VDW.0>
-1.83782

>  <SCORE.INTRA.norm>
-0.0454535

>  <SCORE.RESTR>
0

>  <SCORE.RESTR.CAVITY>
0

>  <SCORE.RESTR.norm>
0

>  <SCORE.SYSTEM>
0

>  <SCORE.SYSTEM.CONST>
0

>  <SCORE.SYSTEM.DIHEDRAL>
0

>  <SCORE.SYSTEM.SOLV>
0

>  <SCORE.SYSTEM.norm>
0

>  <SCORE.heavy>
22

>  <SCORE.norm>
-0.363317

>  <RMSD>
7.061

$$$$
ligand
 OpenBabel02271912143D
libRbt.so/2013.1/901 2013/11/27
 22 23  0  0  0  0  0  0  0  0999 V2000
  -28.3468    0.6382  -13.3485 N   0  0  0  0  0  0  0  0  0  0  0  0
  -29.1088   -0.1312  -10.1423 C   0  0  1  0  0  0  0  0  0  0  0  0
  -29.2396   -0.4917  -11.5468 O   0  0  0  0  0  0  0  0  0  0  0  0
  -32.5714    1.4030  -10.0908 P   0  0  1  0  0  0  0  0  0  0  0  0
  -28.0351   -0.0947  -12.2221 C   0  0  2  0  0  0  0  0  0  0  0  0
  -29.4370    1.8926  -14.7447 N   0  0  0  0  0  0  0  0  0  0  0  0
  -25.9624    0.8786  -11.5495 O   0  0  0  0  0  0  0  0  0  0  0  0
  -27.3698    0.8393  -11.2862 C   0  0  2  0  0  0  0  0  0  0  0  0
  -26.7215    3.1322  -16.5689 N   0  0  0  0  0  0  0  0  0  0  0  0
  -26.9300   -0.8725   -9.6977 O   0  0  0  0  0  0  0  0  0  0  0  0
  -27.7059    0.3061   -9.9717 C   0  0  2  0  0  0  0  0  0  0  0  0
  -28.2208    1.6528  -15.2584 C   0  0  0  0  0  0  0  0  0  0  0  0
  -26.1997    0.4049  -14.5363 N   0  0  0  0  0  0  0  0  0  0  0  0
  -31.2995    0.5141  -10.3163 O   0  0  0  0  0  0  0  0  0  0  0  0
  -30.0635    0.9835   -9.8855 C   0  0  0  0  0  0  0  0  0  0  0  0
  -33.6349    0.7584  -11.0520 O   0  0  0  0  0  0  0  0  0  0  0  0
  -29.5148    1.2559  -13.5606 C   0  0  0  0  0  0  0  0  0  0  0  0
  -28.1794    1.7264  -17.6101 O   0  0  0  0  0  0  0  0  0  0  0  0
  -27.7183    2.1529  -16.5515 C   0  0  0  0  0  0  0  0  0  0  0  0
  -27.5273    0.8660  -14.3835 C   0  0  0  0  0  0  0  0  0  0  0  0
  -32.9484    1.3834   -8.6467 O   0  5  0  0  0  0  0  0  0  0  0  0
  -32.2552    2.8283  -10.2937 O   0  0  0  0  0  0  0  0  0  0  0  0
  1 17  1  0  0  0  0
  1 20  1  0  0  0  0
  2 15  1  6  0  0  0
  2  3  1  0  0  0  0
  2 11  1  0  0  0  0
  3  5  1  0  0  0  0
  4 16  1  6  0  0  0
  4 21  1  0  0  0  0
  4 22  2  0  0  0  0
  4 14  1  0  0  0  0
  5  1  1  6  0  0  0
  5  8  1  0  0  0  0
  6 17  2  0  0  0  0
  6 12  1  0  0  0  0
  8  7  1  6  0  0  0
  8 11  1  0  0  0  0
  9 19  1  0  0  0  0
 11 10  1  6  0  0  0
 12 20  2  0  0  0  0
 12 19  1  0  0  0  0
 13 20  1  0  0  0  0
 14 15  1  0  0  0  0
 18 19  2  0  0  0  0
M  CHG  1  21  -1
M  END
>  <CHROM.1>
19.97791398,54.16828855,164.03677865,175.36440701,109.75570087,-29.30712512
1.01173905,-12.20552132,-0.85592250,-0.27204536,1.88237392

>  <Name>
ligand

>  <RI>
0

>  <Rbt.Current_Directory>
/home/itssahil/PROJECTS/Mol_Feturizer/Test_systems_manuscript/rnas/4xwf

>  <Rbt.Executable>
rbdock ($Id: //depot/dev/client3/rdock/2013.1/src/exe/rbdock.cxx#4 $)

>  <Rbt.Library>
libRbt.so (2013.1, Build901 2013/11/27)

>  <Rbt.Parameter_File>
/export/apps/rDock/src/rDock_2013.1_src/data/scripts/dock_solv.prm

>  <Rbt.Receptor>
prm/pocket_docking_7.prm

>  <SCORE>
-7.7038

>  <SCORE.INTER>
-7.40153

>  <SCORE.INTER.CONST>
1

>  <SCORE.INTER.POLAR>
0

>  <SCORE.INTER.ROT>
5

>  <SCORE.INTER.SOLV>
15.73

>  <SCORE.INTER.VDW>
-17.111

>  <SCORE.INTER.norm>
-0.336433

>  <SCORE.INTRA>
-0.302273

>  <SCORE.INTRA.DIHEDRAL>
-1.24429

>  <SCORE.INTRA.DIHEDRAL.0>
3.49807

>  <SCORE.INTRA.POLAR>
0

>  <SCORE.INTRA.POLAR.0>
0

>  <SCORE.INTRA.REPUL>
0

>  <SCORE.INTRA.REPUL.0>
0

>  <SCORE.INTRA.SOLV>
1.06214

>  <SCORE.INTRA.SOLV.lig_0>
-73.062

>  <SCORE.INTRA.VDW>
-0.211195

>  <SCORE.INTRA.VDW.0>
-1.83782

>  <SCORE.INTRA.norm>
-0.0137397

>  <SCORE.RESTR>
0

>  <SCORE.RESTR.CAVITY>
0

>  <SCORE.RESTR.norm>
0

>  <SCORE.SYSTEM>
0

>  <SCORE.SYSTEM.CONST>
0

>  <SCORE.SYSTEM.DIHEDRAL>
0

>  <SCORE.SYSTEM.SOLV>
0

>  <SCORE.SYSTEM.norm>
0

>  <SCORE.heavy>
22

>  <SCORE.norm>
-0.350173

>  <RMSD>
7.078

$$$$
ligand
 OpenBabel02271912143D
libRbt.so/2013.1/901 2013/11/27
 22 23  0  0  0  0  0  0  0  0999 V2000
  -32.5058    0.1725   -7.6216 N   0  0  0  0  0  0  0  0  0  0  0  0
  -32.4666    2.6135   -9.9652 C   0  0  1  0  0  0  0  0  0  0  0  0
  -32.8116    1.2356   -9.6455 O   0  0  0  0  0  0  0  0  0  0  0  0
  -29.2845    1.5157  -11.7050 P   0  0  1  0  0  0  0  0  0  0  0  0
  -33.1940    1.1825   -8.2616 C   0  0  2  0  0  0  0  0  0  0  0  0
  -30.8750   -1.0812   -6.9290 N   0  0  0  0  0  0  0  0  0  0  0  0
  -33.4588    2.7904   -6.5179 O   0  0  0  0  0  0  0  0  0  0  0  0
  -32.7014    2.4541   -7.6862 C   0  0  2  0  0  0  0  0  0  0  0  0
  -32.5540   -2.4479   -4.1301 N   0  0  0  0  0  0  0  0  0  0  0  0
  -34.2376    3.7601   -8.9438 O   0  0  0  0  0  0  0  0  0  0  0  0
  -32.8539    3.4073   -8.7785 C   0  0  2  0  0  0  0  0  0  0  0  0
  -32.0106   -1.5225   -6.3667 C   0  0  0  0  0  0  0  0  0  0  0  0
  -34.4000   -0.8505   -6.4211 N   0  0  0  0  0  0  0  0  0  0  0  0
  -30.7581    1.7520  -11.2242 O   0  0  0  0  0  0  0  0  0  0  0  0
  -30.9947    2.6548  -10.1933 C   0  0  0  0  0  0  0  0  0  0  0  0
  -28.8124    2.9520  -12.1348 O   0  0  0  0  0  0  0  0  0  0  0  0
  -31.1865   -0.0316   -7.7131 C   0  0  0  0  0  0  0  0  0  0  0  0
  -31.8357   -3.8029   -5.8134 O   0  0  0  0  0  0  0  0  0  0  0  0
  -32.1263   -2.6658   -5.4425 C   0  0  0  0  0  0  0  0  0  0  0  0
  -33.0416   -0.7361   -6.7957 C   0  0  0  0  0  0  0  0  0  0  0  0
  -28.4873    0.9059  -10.6002 O   0  5  0  0  0  0  0  0  0  0  0  0
  -29.2322    0.4547  -12.7268 O   0  0  0  0  0  0  0  0  0  0  0  0
  1 17  1  0  0  0  0
  1 20  1  0  0  0  0
  2 15  1  1  0  0  0
  2  3  1  0  0  0  0
  2 11  1  0  0  0  0
  3  5  1  0  0  0  0
  4 16  1  6  0  0  0
  4 21  1  0  0  0  0
  4 22  2  0  0  0  0
  4 14  1  0  0  0  0
  5  1  1  1  0  0  0
  5  8  1  0  0  0  0
  6 17  2  0  0  0  0
  6 12  1  0  0  0  0
  8  7  1  1  0  0  0
  8 11  1  0  0  0  0
  9 19  1  0  0  0  0
 11 10  1  6  0  0  0
 12 20  2  0  0  0  0
 12 19  1  0  0  0  0
 13 20  1  0  0  0  0
 14 15  1  0  0  0  0
 18 19  2  0  0  0  0
M  CHG  1  21  -1
M  END
>  <CHROM.1>
47.83192354,57.98765928,-58.07492051,-178.56977281,116.38574986,-31.63201730
0.76629106,-8.70910013,2.09457148,-0.69234592,2.48998238

>  <Name>
ligand

>  <RI>
0

>  <Rbt.Current_Directory>
/home/itssahil/PROJECTS/Mol_Feturizer/Test_systems_manuscript/rnas/4xwf

>  <Rbt.Executable>
rbdock ($Id: //depot/dev/client3/rdock/2013.1/src/exe/rbdock.cxx#4 $)

>  <Rbt.Library>
libRbt.so (2013.1, Build901 2013/11/27)

>  <Rbt.Parameter_File>
/export/apps/rDock/src/rDock_2013.1_src/data/scripts/dock_solv.prm

>  <Rbt.Receptor>
prm/pocket_docking_8.prm

>  <SCORE>
-6.09691

>  <SCORE.INTER>
-4.57249

>  <SCORE.INTER.CONST>
1

>  <SCORE.INTER.POLAR>
0

>  <SCORE.INTER.ROT>
5

>  <SCORE.INTER.SOLV>
11.6119

>  <SCORE.INTER.VDW>
-13.8523

>  <SCORE.INTER.norm>
-0.20784

>  <SCORE.INTRA>
-1.52442

>  <SCORE.INTRA.DIHEDRAL>
-1.97043

>  <SCORE.INTRA.DIHEDRAL.0>
3.49807

>  <SCORE.INTRA.POLAR>
0

>  <SCORE.INTRA.POLAR.0>
0

>  <SCORE.INTRA.REPUL>
0

>  <SCORE.INTRA.REPUL.0>
0

>  <SCORE.INTRA.SOLV>
-0.50218

>  <SCORE.INTRA.SOLV.lig_0>
-73.062

>  <SCORE.INTRA.VDW>
-0.288114

>  <SCORE.INTRA.VDW.0>
-1.83782

>  <SCORE.INTRA.norm>
-0.0692918

>  <SCORE.RESTR>
0

>  <SCORE.RESTR.CAVITY>
0

>  <SCORE.RESTR.norm>
0

>  <SCORE.SYSTEM>
0

>  <SCORE.SYSTEM.CONST>
0

>  <SCORE.SYSTEM.DIHEDRAL>
0

>  <SCORE.SYSTEM.SOLV>
0

>  <SCORE.SYSTEM.norm>
0

>  <SCORE.heavy>
22

>  <SCORE.norm>
-0.277132

>  <RMSD>
7.097

$$$$
ligand
 OpenBabel02271912143D
libRbt.so/2013.1/901 2013/11/27
 22 23  0  0  0  0  0  0  0  0999 V2000
  -30.1525    3.6420   -9.3253 N   0  0  0  0  0  0  0  0  0  0  0  0
  -33.4609    3.0026   -9.6384 C   0  0  1  0  0  0  0  0  0  0  0  0
  -32.3222    3.7870  -10.0943 O   0  0  0  0  0  0  0  0  0  0  0  0
  -34.7650    5.8325   -7.4847 P   0  0  1  0  0  0  0  0  0  0  0  0
  -31.1482    2.9643   -9.9981 C   0  0  2  0  0  0  0  0  0  0  0  0
  -29.1482    4.8986   -7.8681 N   0  0  0  0  0  0  0  0  0  0  0  0
  -30.7169    0.6996   -9.3811 O   0  0  0  0  0  0  0  0  0  0  0  0
  -31.5493    1.8372   -9.1266 C   0  0  2  0  0  0  0  0  0  0  0  0
  -25.9106    3.5655   -8.2648 N   0  0  0  0  0  0  0  0  0  0  0  0
  -33.0655    0.9707  -10.7383 O   0  0  0  0  0  0  0  0  0  0  0  0
  -32.9516    1.6248   -9.4633 C   0  0  2  0  0  0  0  0  0  0  0  0
  -28.2183    4.3750   -8.6816 C   0  0  0  0  0  0  0  0  0  0  0  0
  -28.2214    2.8267  -10.6222 N   0  0  0  0  0  0  0  0  0  0  0  0
  -34.3209    4.8807   -8.6489 O   0  0  0  0  0  0  0  0  0  0  0  0
  -33.9063    3.5890   -8.3431 C   0  0  0  0  0  0  0  0  0  0  0  0
  -35.2997    7.1015   -8.2426 O   0  0  0  0  0  0  0  0  0  0  0  0
  -30.3499    4.4463   -8.2743 C   0  0  0  0  0  0  0  0  0  0  0  0
  -26.3067    5.7416   -8.8067 O   0  0  0  0  0  0  0  0  0  0  0  0
  -26.7662    4.6187   -8.5990 C   0  0  0  0  0  0  0  0  0  0  0  0
  -28.8427    3.5801   -9.6000 C   0  0  0  0  0  0  0  0  0  0  0  0
  -35.7804    5.1453   -6.6335 O   0  5  0  0  0  0  0  0  0  0  0  0
  -33.6639    6.0339   -6.5257 O   0  0  0  0  0  0  0  0  0  0  0  0
  1 17  1  0  0  0  0
  1 20  1  0  0  0  0
  2 15  1  1  0  0  0
  2  3  1  0  0  0  0
  2 11  1  0  0  0  0
  3  5  1  0  0  0  0
  4 16  1  6  0  0  0
  4 21  1  0  0  0  0
  4 22  2  0  0  0  0
  4 14  1  0  0  0  0
  5  1  1  1  0  0  0
  5  8  1  0  0  0  0
  6 17  2  0  0  0  0
  6 12  1  0  0  0  0
  8  7  1  6  0  0  0
  8 11  1  0  0  0  0
  9 19  1  0  0  0  0
 11 10  1  6  0  0  0
 12 20  2  0  0  0  0
 12 19  1  0  0  0  0
 13 20  1  0  0  0  0
 14 15  1  0  0  0  0
 18 19  2  0  0  0  0
M  CHG  1  21  -1
M  END
>  <CHROM.1>
38.06865711,63.35187992,-173.89403063,-175.71412426,113.89177750,-31.52720921
4.00156933,-8.74767355,0.24368258,-0.05606048,-2.63919981

>  <Name>
ligand

>  <RI>
0

>  <Rbt.Current_Directory>
/home/itssahil/PROJECTS/Mol_Feturizer/Test_systems_manuscript/rnas/4xwf

>  <Rbt.Executable>
rbdock ($Id: //depot/dev/client3/rdock/2013.1/src/exe/rbdock.cxx#4 $)

>  <Rbt.Library>
libRbt.so (2013.1, Build901 2013/11/27)

>  <Rbt.Parameter_File>
/export/apps/rDock/src/rDock_2013.1_src/data/scripts/dock_solv.prm

>  <Rbt.Receptor>
prm/pocket_docking_5.prm

>  <SCORE>
-8.13067

>  <SCORE.INTER>
-6.94877

>  <SCORE.INTER.CONST>
1

>  <SCORE.INTER.POLAR>
0

>  <SCORE.INTER.ROT>
5

>  <SCORE.INTER.SOLV>
10.459

>  <SCORE.INTER.VDW>
-15.0522

>  <SCORE.INTER.norm>
-0.315853

>  <SCORE.INTRA>
-1.18338

>  <SCORE.INTRA.DIHEDRAL>
-1.80756

>  <SCORE.INTRA.DIHEDRAL.0>
3.49807

>  <SCORE.INTRA.POLAR>
0

>  <SCORE.INTRA.POLAR.0>
0

>  <SCORE.INTRA.REPUL>
0

>  <SCORE.INTRA.REPUL.0>
0

>  <SCORE.INTRA.SOLV>
0.435616

>  <SCORE.INTRA.SOLV.lig_0>
-73.062

>  <SCORE.INTRA.VDW>
-0.497406

>  <SCORE.INTRA.VDW.0>
-1.83782

>  <SCORE.INTRA.norm>
-0.0537899

>  <SCORE.RESTR>
0.00147868

>  <SCORE.RESTR.CAVITY>
0.00147868

>  <SCORE.RESTR.norm>
6.72126e-05

>  <SCORE.SYSTEM>
0

>  <SCORE.SYSTEM.CONST>
0

>  <SCORE.SYSTEM.DIHEDRAL>
0

>  <SCORE.SYSTEM.SOLV>
0

>  <SCORE.SYSTEM.norm>
0

>  <SCORE.heavy>
22

>  <SCORE.norm>
-0.369576

>  <RMSD>
7.098

$$$$
ligand
 OpenBabel02271912143D
libRbt.so/2013.1/901 2013/11/27
 22 23  0  0  0  0  0  0  0  0999 V2000
  -30.9838    5.4121   -8.4433 N   0  0  0  0  0  0  0  0  0  0  0  0
  -32.4956    2.4252   -8.9384 C   0  0  1  0  0  0  0  0  0  0  0  0
  -31.4677    3.1678   -8.2230 O   0  0  0  0  0  0  0  0  0  0  0  0
  -29.8692    1.1294  -11.3328 P   0  0  1  0  0  0  0  0  0  0  0  0
  -31.9420    4.5101   -8.0294 C   0  0  2  0  0  0  0  0  0  0  0  0
  -29.3444    6.3000   -9.5547 N   0  0  0  0  0  0  0  0  0  0  0  0
  -33.9681    5.6737   -8.5163 O   0  0  0  0  0  0  0  0  0  0  0  0
  -33.0781    4.6465   -8.9684 C   0  0  2  0  0  0  0  0  0  0  0  0
  -28.6664    8.9097   -7.2577 N   0  0  0  0  0  0  0  0  0  0  0  0
  -34.4150    3.0905   -7.7690 O   0  0  0  0  0  0  0  0  0  0  0  0
  -33.6753    3.3167   -8.9806 C   0  0  2  0  0  0  0  0  0  0  0  0
  -29.7876    7.2042   -8.6678 C   0  0  0  0  0  0  0  0  0  0  0  0
  -31.5814    7.2825   -6.9533 N   0  0  0  0  0  0  0  0  0  0  0  0
  -30.8075    1.4117  -10.1086 O   0  0  0  0  0  0  0  0  0  0  0  0
  -31.9678    2.1526  -10.3049 C   0  0  0  0  0  0  0  0  0  0  0  0
  -30.8732    0.6994  -12.4630 O   0  0  0  0  0  0  0  0  0  0  0  0
  -30.0855    5.1851   -9.4088 C   0  0  0  0  0  0  0  0  0  0  0  0
  -29.3174    9.3955   -9.3850 O   0  0  0  0  0  0  0  0  0  0  0  0
  -29.2472    8.5635   -8.4807 C   0  0  0  0  0  0  0  0  0  0  0  0
  -30.8220    6.6535   -7.9663 C   0  0  0  0  0  0  0  0  0  0  0  0
  -29.0699    2.3506  -11.6453 O   0  5  0  0  0  0  0  0  0  0  0  0
  -28.8112    0.1695  -10.9696 O   0  0  0  0  0  0  0  0  0  0  0  0
  1 17  1  0  0  0  0
  1 20  1  0  0  0  0
  2 15  1  6  0  0  0
  2  3  1  0  0  0  0
  2 11  1  0  0  0  0
  3  5  1  0  0  0  0
  4 16  1  6  0  0  0
  4 21  1  0  0  0  0
  4 22  2  0  0  0  0
  4 14  1  0  0  0  0
  5  1  1  6  0  0  0
  5  8  1  0  0  0  0
  6 17  2  0  0  0  0
  6 12  1  0  0  0  0
  8  7  1  1  0  0  0
  8 11  1  0  0  0  0
  9 19  1  0  0  0  0
 11 10  1  1  0  0  0
 12 20  2  0  0  0  0
 12 19  1  0  0  0  0
 13 20  1  0  0  0  0
 14 15  1  0  0  0  0
 18 19  2  0  0  0  0
M  CHG  1  21  -1
M  END
>  <CHROM.1>
29.32080887,59.77264111,-45.23339975,-170.93571259,-117.00008727,-30.96096132
4.24400975,-9.36124046,1.51993203,0.43531412,0.41718004

>  <Name>
ligand

>  <RI>
0

>  <Rbt.Current_Directory>
/home/itssahil/PROJECTS/Mol_Feturizer/Test_systems_manuscript/rnas/4xwf

>  <Rbt.Executable>
rbdock ($Id: //depot/dev/client3/rdock/2013.1/src/exe/rbdock.cxx#4 $)

>  <Rbt.Library>
libRbt.so (2013.1, Build901 2013/11/27)

>  <Rbt.Parameter_File>
/export/apps/rDock/src/rDock_2013.1_src/data/scripts/dock_solv.prm

>  <Rbt.Receptor>
prm/pocket_docking_5.prm

>  <SCORE>
-7.70609

>  <SCORE.INTER>
-6.87578

>  <SCORE.INTER.CONST>
1

>  <SCORE.INTER.POLAR>
0

>  <SCORE.INTER.ROT>
5

>  <SCORE.INTER.SOLV>
10.3606

>  <SCORE.INTER.VDW>
-14.9707

>  <SCORE.INTER.norm>
-0.312535

>  <SCORE.INTRA>
-0.83031

>  <SCORE.INTRA.DIHEDRAL>
-1.32531

>  <SCORE.INTRA.DIHEDRAL.0>
3.49807

>  <SCORE.INTRA.POLAR>
0

>  <SCORE.INTRA.POLAR.0>
0

>  <SCORE.INTRA.REPUL>
0

>  <SCORE.INTRA.REPUL.0>
0

>  <SCORE.INTRA.SOLV>
0.260874

>  <SCORE.INTRA.SOLV.lig_0>
-73.062

>  <SCORE.INTRA.VDW>
-0.298091

>  <SCORE.INTRA.VDW.0>
-1.83782

>  <SCORE.INTRA.norm>
-0.0377414

>  <SCORE.RESTR>
0

>  <SCORE.RESTR.CAVITY>
0

>  <SCORE.RESTR.norm>
0

>  <SCORE.SYSTEM>
0

>  <SCORE.SYSTEM.CONST>
0

>  <SCORE.SYSTEM.DIHEDRAL>
0

>  <SCORE.SYSTEM.SOLV>
0

>  <SCORE.SYSTEM.norm>
0

>  <SCORE.heavy>
22

>  <SCORE.norm>
-0.350277

>  <RMSD>
7.104

$$$$
ligand
 OpenBabel02271912143D
libRbt.so/2013.1/901 2013/11/27
 22 23  0  0  0  0  0  0  0  0999 V2000
  -30.6107    4.2223   -9.7756 N   0  0  0  0  0  0  0  0  0  0  0  0
  -33.7301    3.1441   -9.0277 C   0  0  1  0  0  0  0  0  0  0  0  0
  -32.8928    3.9244   -9.9276 O   0  0  0  0  0  0  0  0  0  0  0  0
  -34.8136    6.2931   -7.2215 P   0  0  1  0  0  0  0  0  0  0  0  0
  -31.6047    3.2917   -9.9975 C   0  0  2  0  0  0  0  0  0  0  0  0
  -29.5783    5.9915   -9.0579 N   0  0  0  0  0  0  0  0  0  0  0  0
  -30.6446    1.3066   -9.0846 O   0  0  0  0  0  0  0  0  0  0  0  0
  -31.5770    2.3667   -8.8424 C   0  0  2  0  0  0  0  0  0  0  0  0
  -26.2932    4.6550   -9.5202 N   0  0  0  0  0  0  0  0  0  0  0  0
  -33.2626    0.9688   -9.7653 O   0  0  0  0  0  0  0  0  0  0  0  0
  -32.9592    1.9174   -8.7288 C   0  0  2  0  0  0  0  0  0  0  0  0
  -28.6962    5.2349   -9.7289 C   0  0  0  0  0  0  0  0  0  0  0  0
  -28.7624    3.0542  -10.9137 N   0  0  0  0  0  0  0  0  0  0  0  0
  -34.5200    5.1498   -8.2536 O   0  0  0  0  0  0  0  0  0  0  0  0
  -33.9433    3.9670   -7.8040 C   0  0  0  0  0  0  0  0  0  0  0  0
  -35.3215    7.4729   -8.1274 O   0  0  0  0  0  0  0  0  0  0  0  0
  -30.7686    5.3628   -9.0938 C   0  0  0  0  0  0  0  0  0  0  0  0
  -26.9442    6.6164  -10.4767 O   0  0  0  0  0  0  0  0  0  0  0  0
  -27.2732    5.5569   -9.9434 C   0  0  0  0  0  0  0  0  0  0  0  0
  -29.3382    4.1176  -10.1813 C   0  0  0  0  0  0  0  0  0  0  0  0
  -35.8040    5.8162   -6.2118 O   0  5  0  0  0  0  0  0  0  0  0  0
  -33.6330    6.5509   -6.3775 O   0  0  0  0  0  0  0  0  0  0  0  0
  1 17  1  0  0  0  0
  1 20  1  0  0  0  0
  2 15  1  1  0  0  0
  2  3  1  0  0  0  0
  2 11  1  0  0  0  0
  3  5  1  0  0  0  0
  4 16  1  6  0  0  0
  4 21  1  0  0  0  0
  4 22  2  0  0  0  0
  4 14  1  0  0  0  0
  5  1  1  1  0  0  0
  5  8  1  0  0  0  0
  6 17  2  0  0  0  0
  6 12  1  0  0  0  0
  8  7  1  6  0  0  0
  8 11  1  0  0  0  0
  9 19  1  0  0  0  0
 11 10  1  6  0  0  0
 12 20  2  0  0  0  0
 12 19  1  0  0  0  0
 13 20  1  0  0  0  0
 14 15  1  0  0  0  0
 18 19  2  0  0  0  0
M  CHG  1  21  -1
M  END
>  <CHROM.1>
24.64452041,57.55066316,174.89850839,-176.79648510,123.12488231,-31.78505339
4.52549269,-8.86834036,0.23066048,-0.31798838,-2.86211048

>  <Name>
ligand

>  <RI>
0

>  <Rbt.Current_Directory>
/home/itssahil/PROJECTS/Mol_Feturizer/Test_systems_manuscript/rnas/4xwf

>  <Rbt.Executable>
rbdock ($Id: //depot/dev/client3/rdock/2013.1/src/exe/rbdock.cxx#4 $)

>  <Rbt.Library>
libRbt.so (2013.1, Build901 2013/11/27)

>  <Rbt.Parameter_File>
/export/apps/rDock/src/rDock_2013.1_src/data/scripts/dock_solv.prm

>  <Rbt.Receptor>
prm/pocket_docking_8.prm

>  <SCORE>
-8.68991

>  <SCORE.INTER>
-7.81658

>  <SCORE.INTER.CONST>
1

>  <SCORE.INTER.POLAR>
0

>  <SCORE.INTER.ROT>
5

>  <SCORE.INTER.SOLV>
10.3882

>  <SCORE.INTER.VDW>
-15.6071

>  <SCORE.INTER.norm>
-0.355299

>  <SCORE.INTRA>
-0.873333

>  <SCORE.INTRA.DIHEDRAL>
-1.87037

>  <SCORE.INTRA.DIHEDRAL.0>
3.49807

>  <SCORE.INTRA.POLAR>
0

>  <SCORE.INTRA.POLAR.0>
0

>  <SCORE.INTRA.REPUL>
0

>  <SCORE.INTRA.REPUL.0>
0

>  <SCORE.INTRA.SOLV>
0.979069

>  <SCORE.INTRA.SOLV.lig_0>
-73.062

>  <SCORE.INTRA.VDW>
-0.427684

>  <SCORE.INTRA.VDW.0>
-1.83782

>  <SCORE.INTRA.norm>
-0.0396969

>  <SCORE.RESTR>
0

>  <SCORE.RESTR.CAVITY>
0

>  <SCORE.RESTR.norm>
0

>  <SCORE.SYSTEM>
0

>  <SCORE.SYSTEM.CONST>
0

>  <SCORE.SYSTEM.DIHEDRAL>
0

>  <SCORE.SYSTEM.SOLV>
0

>  <SCORE.SYSTEM.norm>
0

>  <SCORE.heavy>
22

>  <SCORE.norm>
-0.394996

>  <RMSD>
7.159

$$$$
ligand
 OpenBabel02271912143D
libRbt.so/2013.1/901 2013/11/27
 22 23  0  0  0  0  0  0  0  0999 V2000
  -30.5529    4.2357   -9.6193 N   0  0  0  0  0  0  0  0  0  0  0  0
  -33.7061    3.1391   -9.0649 C   0  0  1  0  0  0  0  0  0  0  0  0
  -32.8255    3.9515   -9.8922 O   0  0  0  0  0  0  0  0  0  0  0  0
  -34.8807    6.2144   -7.1897 P   0  0  1  0  0  0  0  0  0  0  0  0
  -31.5364    3.3178   -9.9251 C   0  0  2  0  0  0  0  0  0  0  0  0
  -29.5699    6.0116   -8.8506 N   0  0  0  0  0  0  0  0  0  0  0  0
  -30.6241    1.2952   -9.0462 O   0  0  0  0  0  0  0  0  0  0  0  0
  -31.5655    2.3480   -8.8074 C   0  0  2  0  0  0  0  0  0  0  0  0
  -26.7061    6.7079   -8.9357 N   0  0  0  0  0  0  0  0  0  0  0  0
  -33.2068    0.9930   -9.8644 O   0  0  0  0  0  0  0  0  0  0  0  0
  -32.9522    1.8992   -8.7780 C   0  0  2  0  0  0  0  0  0  0  0  0
  -28.6325    5.2083   -9.3765 C   0  0  0  0  0  0  0  0  0  0  0  0
  -28.6105    2.9807  -10.4724 N   0  0  0  0  0  0  0  0  0  0  0  0
  -34.5385    5.1115   -8.2505 O   0  0  0  0  0  0  0  0  0  0  0  0
  -33.9767    3.9140   -7.8213 C   0  0  0  0  0  0  0  0  0  0  0  0
  -35.4045    7.4075   -8.0686 O   0  0  0  0  0  0  0  0  0  0  0  0
  -30.7631    5.4074   -9.0084 C   0  0  0  0  0  0  0  0  0  0  0  0
  -26.4040    4.6709   -9.9079 O   0  0  0  0  0  0  0  0  0  0  0  0
  -27.1859    5.4904   -9.4261 C   0  0  0  0  0  0  0  0  0  0  0  0
  -29.2435    4.0865   -9.8599 C   0  0  0  0  0  0  0  0  0  0  0  0
  -35.8751    5.6806   -6.2129 O   0  5  0  0  0  0  0  0  0  0  0  0
  -33.7221    6.4773   -6.3172 O   0  0  0  0  0  0  0  0  0  0  0  0
  1 17  1  0  0  0  0
  1 20  1  0  0  0  0
  2 15  1  1  0  0  0
  2  3  1  0  0  0  0
  2 11  1  0  0  0  0
  3  5  1  0  0  0  0
  4 16  1  6  0  0  0
  4 21  1  0  0  0  0
  4 22  2  0  0  0  0
  4 14  1  0  0  0  0
  5  1  1  1  0  0  0
  5  8  1  0  0  0  0
  6 17  2  0  0  0  0
  6 12  1  0  0  0  0
  8  7  1  6  0  0  0
  8 11  1  0  0  0  0
  9 19  1  0  0  0  0
 11 10  1  6  0  0  0
 12 20  2  0  0  0  0
 12 19  1  0  0  0  0
 13 20  1  0  0  0  0
 14 15  1  0  0  0  0
 18 19  2  0  0  0  0
M  CHG  1  21  -1
M  END
>  <CHROM.1>
18.18047214,57.97522676,176.90980398,-176.71240145,-2.33852105,-31.76700301
4.49012213,-8.72724202,0.23404786,-0.24809478,-2.79981781

>  <Name>
ligand

>  <RI>
0

>  <Rbt.Current_Directory>
/home/itssahil/PROJECTS/Mol_Feturizer/Test_systems_manuscript/rnas/4xwf

>  <Rbt.Executable>
rbdock ($Id: //depot/dev/client3/rdock/2013.1/src/exe/rbdock.cxx#4 $)

>  <Rbt.Library>
libRbt.so (2013.1, Build901 2013/11/27)

>  <Rbt.Parameter_File>
/export/apps/rDock/src/rDock_2013.1_src/data/scripts/dock_solv.prm

>  <Rbt.Receptor>
prm/pocket_docking_8.prm

>  <SCORE>
-8.63347

>  <SCORE.INTER>
-8.0518

>  <SCORE.INTER.CONST>
1

>  <SCORE.INTER.POLAR>
0

>  <SCORE.INTER.ROT>
5

>  <SCORE.INTER.SOLV>
8.64627

>  <SCORE.INTER.VDW>
-15.1833

>  <SCORE.INTER.norm>
-0.365991

>  <SCORE.INTRA>
-0.581671

>  <SCORE.INTRA.DIHEDRAL>
-1.91192

>  <SCORE.INTRA.DIHEDRAL.0>
3.49807

>  <SCORE.INTRA.POLAR>
0

>  <SCORE.INTRA.POLAR.0>
0

>  <SCORE.INTRA.REPUL>
0

>  <SCORE.INTRA.REPUL.0>
0

>  <SCORE.INTRA.SOLV>
1.1602

>  <SCORE.INTRA.SOLV.lig_0>
-73.062

>  <SCORE.INTRA.VDW>
-0.205811

>  <SCORE.INTRA.VDW.0>
-1.83782

>  <SCORE.INTRA.norm>
-0.0264396

>  <SCORE.RESTR>
0

>  <SCORE.RESTR.CAVITY>
0

>  <SCORE.RESTR.norm>
0

>  <SCORE.SYSTEM>
0

>  <SCORE.SYSTEM.CONST>
0

>  <SCORE.SYSTEM.DIHEDRAL>
0

>  <SCORE.SYSTEM.SOLV>
0

>  <SCORE.SYSTEM.norm>
0

>  <SCORE.heavy>
22

>  <SCORE.norm>
-0.392431

>  <RMSD>
7.171

$$$$
ligand
 OpenBabel02271912143D
libRbt.so/2013.1/901 2013/11/27
 22 23  0  0  0  0  0  0  0  0999 V2000
  -30.5379    4.2310   -9.6105 N   0  0  0  0  0  0  0  0  0  0  0  0
  -33.7016    3.1558   -9.0747 C   0  0  1  0  0  0  0  0  0  0  0  0
  -32.8111    3.9642   -9.8953 O   0  0  0  0  0  0  0  0  0  0  0  0
  -34.8364    6.2446   -7.1987 P   0  0  1  0  0  0  0  0  0  0  0  0
  -31.5265    3.3213   -9.9238 C   0  0  2  0  0  0  0  0  0  0  0  0
  -29.5442    5.9927   -8.8229 N   0  0  0  0  0  0  0  0  0  0  0  0
  -30.6331    1.2895   -9.0466 O   0  0  0  0  0  0  0  0  0  0  0  0
  -31.5681    2.3483   -8.8092 C   0  0  2  0  0  0  0  0  0  0  0  0
  -26.2808    4.6394   -8.7219 N   0  0  0  0  0  0  0  0  0  0  0  0
  -33.2140    1.0085   -9.8784 O   0  0  0  0  0  0  0  0  0  0  0  0
  -32.9581    1.9095   -8.7879 C   0  0  2  0  0  0  0  0  0  0  0  0
  -28.6124    5.1927   -9.3637 C   0  0  0  0  0  0  0  0  0  0  0  0
  -28.6044    2.9798  -10.4891 N   0  0  0  0  0  0  0  0  0  0  0  0
  -34.5187    5.1338   -8.2587 O   0  0  0  0  0  0  0  0  0  0  0  0
  -33.9726    3.9289   -7.8302 C   0  0  0  0  0  0  0  0  0  0  0  0
  -35.3477    7.4435   -8.0772 O   0  0  0  0  0  0  0  0  0  0  0  0
  -30.7405    5.3954   -8.9831 C   0  0  0  0  0  0  0  0  0  0  0  0
  -26.7338    6.4313  -10.0522 O   0  0  0  0  0  0  0  0  0  0  0  0
  -27.1649    5.4696   -9.4162 C   0  0  0  0  0  0  0  0  0  0  0  0
  -29.2301    4.0799   -9.8591 C   0  0  0  0  0  0  0  0  0  0  0  0
  -35.8323    5.7290   -6.2137 O   0  5  0  0  0  0  0  0  0  0  0  0
  -33.6680    6.4918   -6.3348 O   0  0  0  0  0  0  0  0  0  0  0  0
  1 17  1  0  0  0  0
  1 20  1  0  0  0  0
  2 15  1  1  0  0  0
  2  3  1  0  0  0  0
  2 11  1  0  0  0  0
  3  5  1  0  0  0  0
  4 16  1  6  0  0  0
  4 21  1  0  0  0  0
  4 22  2  0  0  0  0
  4 14  1  0  0  0  0
  5  1  1  1  0  0  0
  5  8  1  0  0  0  0
  6 17  2  0  0  0  0
  6 12  1  0  0  0  0
  8  7  1  6  0  0  0
  8 11  1  0  0  0  0
  9 19  1  0  0  0  0
 11 10  1  6  0  0  0
 12 20  2  0  0  0  0
 12 19  1  0  0  0  0
 13 20  1  0  0  0  0
 14 15  1  0  0  0  0
 18 19  2  0  0  0  0
M  CHG  1  21  -1
M  END
>  <CHROM.1>
19.00170386,57.74594760,176.90662394,-175.79337116,115.65929072,-31.74720482
4.49630164,-8.72710612,0.22911560,-0.24578919,-2.81634571

>  <Name>
ligand

>  <RI>
0

>  <Rbt.Current_Directory>
/home/itssahil/PROJECTS/Mol_Feturizer/Test_systems_manuscript/rnas/4xwf

>  <Rbt.Executable>
rbdock ($Id: //depot/dev/client3/rdock/2013.1/src/exe/rbdock.cxx#4 $)

>  <Rbt.Library>
libRbt.so (2013.1, Build901 2013/11/27)

>  <Rbt.Parameter_File>
/export/apps/rDock/src/rDock_2013.1_src/data/scripts/dock_solv.prm

>  <Rbt.Receptor>
prm/pocket_docking_6.prm

>  <SCORE>
-8.76179

>  <SCORE.INTER>
-8.02864

>  <SCORE.INTER.CONST>
1

>  <SCORE.INTER.POLAR>
0

>  <SCORE.INTER.ROT>
5

>  <SCORE.INTER.SOLV>
8.61277

>  <SCORE.INTER.VDW>
-15.1567

>  <SCORE.INTER.norm>
-0.364938

>  <SCORE.INTRA>
-0.733158

>  <SCORE.INTRA.DIHEDRAL>
-1.86312

>  <SCORE.INTRA.DIHEDRAL.0>
3.49807

>  <SCORE.INTRA.POLAR>
0

>  <SCORE.INTRA.POLAR.0>
0

>  <SCORE.INTRA.REPUL>
0

>  <SCORE.INTRA.REPUL.0>
0

>  <SCORE.INTRA.SOLV>
1.16933

>  <SCORE.INTRA.SOLV.lig_0>
-73.062

>  <SCORE.INTRA.VDW>
-0.386259

>  <SCORE.INTRA.VDW.0>
-1.83782

>  <SCORE.INTRA.norm>
-0.0333254

>  <SCORE.RESTR>
0

>  <SCORE.RESTR.CAVITY>
0

>  <SCORE.RESTR.norm>
0

>  <SCORE.SYSTEM>
0

>  <SCORE.SYSTEM.CONST>
0

>  <SCORE.SYSTEM.DIHEDRAL>
0

>  <SCORE.SYSTEM.SOLV>
0

>  <SCORE.SYSTEM.norm>
0

>  <SCORE.heavy>
22

>  <SCORE.norm>
-0.398263

>  <RMSD>
7.175

$$$$
ligand
 OpenBabel02271912143D
libRbt.so/2013.1/901 2013/11/27
 22 23  0  0  0  0  0  0  0  0999 V2000
  -30.5042    4.2274   -9.5843 N   0  0  0  0  0  0  0  0  0  0  0  0
  -33.6800    3.1683   -9.0893 C   0  0  1  0  0  0  0  0  0  0  0  0
  -32.7763    3.9788   -9.8932 O   0  0  0  0  0  0  0  0  0  0  0  0
  -34.8691    6.2234   -7.1911 P   0  0  1  0  0  0  0  0  0  0  0  0
  -31.4958    3.3276   -9.9161 C   0  0  2  0  0  0  0  0  0  0  0  0
  -29.5042    5.9680   -8.7587 N   0  0  0  0  0  0  0  0  0  0  0  0
  -30.6244    1.2811   -9.0510 O   0  0  0  0  0  0  0  0  0  0  0  0
  -31.5545    2.3438   -8.8118 C   0  0  2  0  0  0  0  0  0  0  0  0
  -26.5062    5.6415  -10.6072 N   0  0  0  0  0  0  0  0  0  0  0  0
  -33.1990    1.0259   -9.9099 O   0  0  0  0  0  0  0  0  0  0  0  0
  -32.9475    1.9142   -8.8081 C   0  0  2  0  0  0  0  0  0  0  0  0
  -28.5758    5.1784   -9.3202 C   0  0  0  0  0  0  0  0  0  0  0  0
  -28.5760    2.9921  -10.4963 N   0  0  0  0  0  0  0  0  0  0  0  0
  -34.5268    5.1280   -8.2596 O   0  0  0  0  0  0  0  0  0  0  0  0
  -33.9577    3.9307   -7.8397 C   0  0  0  0  0  0  0  0  0  0  0  0
  -35.3936    7.4224   -8.0616 O   0  0  0  0  0  0  0  0  0  0  0  0
  -30.7024    5.3775   -8.9297 C   0  0  0  0  0  0  0  0  0  0  0  0
  -26.4636    5.5022   -8.3347 O   0  0  0  0  0  0  0  0  0  0  0  0
  -27.1277    5.4530   -9.3699 C   0  0  0  0  0  0  0  0  0  0  0  0
  -29.1974    4.0788   -9.8395 C   0  0  0  0  0  0  0  0  0  0  0  0
  -35.8630    5.6825   -6.2178 O   0  5  0  0  0  0  0  0  0  0  0  0
  -33.7103    6.4808   -6.3172 O   0  0  0  0  0  0  0  0  0  0  0  0
  1 17  1  0  0  0  0
  1 20  1  0  0  0  0
  2 15  1  1  0  0  0
  2  3  1  0  0  0  0
  2 11  1  0  0  0  0
  3  5  1  0  0  0  0
  4 16  1  6  0  0  0
  4 21  1  0  0  0  0
  4 22  2  0  0  0  0
  4 14  1  0  0  0  0
  5  1  1  1  0  0  0
  5  8  1  0  0  0  0
  6 17  2  0  0  0  0
  6 12  1  0  0  0  0
  8  7  1  6  0  0  0
  8 11  1  0  0  0  0
  9 19  1  0  0  0  0
 11 10  1  6  0  0  0
 12 20  2  0  0  0  0
 12 19  1  0  0  0  0
 13 20  1  0  0  0  0
 14 15  1  0  0  0  0
 18 19  2  0  0  0  0
M  CHG  1  21  -1
M  END
>  <CHROM.1>
20.04280133,59.39067805,176.56061335,-176.30030578,-116.16587928,-31.73677715
4.48715920,-8.71550766,0.23597875,-0.23676494,-2.77866522

>  <Name>
ligand

>  <RI>
0

>  <Rbt.Current_Directory>
/home/itssahil/PROJECTS/Mol_Feturizer/Test_systems_manuscript/rnas/4xwf

>  <Rbt.Executable>
rbdock ($Id: //depot/dev/client3/rdock/2013.1/src/exe/rbdock.cxx#4 $)

>  <Rbt.Library>
libRbt.so (2013.1, Build901 2013/11/27)

>  <Rbt.Parameter_File>
/export/apps/rDock/src/rDock_2013.1_src/data/scripts/dock_solv.prm

>  <Rbt.Receptor>
prm/pocket_docking_7.prm

>  <SCORE>
-8.74364

>  <SCORE.INTER>
-7.9546

>  <SCORE.INTER.CONST>
1

>  <SCORE.INTER.POLAR>
0

>  <SCORE.INTER.ROT>
5

>  <SCORE.INTER.SOLV>
8.63407

>  <SCORE.INTER.VDW>
-15.1144

>  <SCORE.INTER.norm>
-0.361573

>  <SCORE.INTRA>
-0.78904

>  <SCORE.INTRA.DIHEDRAL>
-1.88914

>  <SCORE.INTRA.DIHEDRAL.0>
3.49807

>  <SCORE.INTRA.POLAR>
0

>  <SCORE.INTRA.POLAR.0>
0

>  <SCORE.INTRA.REPUL>
0

>  <SCORE.INTRA.REPUL.0>
0

>  <SCORE.INTRA.SOLV>
1.13109

>  <SCORE.INTRA.SOLV.lig_0>
-73.062

>  <SCORE.INTRA.VDW>
-0.410019

>  <SCORE.INTRA.VDW.0>
-1.83782

>  <SCORE.INTRA.norm>
-0.0358654

>  <SCORE.RESTR>
0

>  <SCORE.RESTR.CAVITY>
0

>  <SCORE.RESTR.norm>
0

>  <SCORE.SYSTEM>
0

>  <SCORE.SYSTEM.CONST>
0

>  <SCORE.SYSTEM.DIHEDRAL>
0

>  <SCORE.SYSTEM.SOLV>
0

>  <SCORE.SYSTEM.norm>
0

>  <SCORE.heavy>
22

>  <SCORE.norm>
-0.397438

>  <RMSD>
7.183

$$$$
ligand
 OpenBabel02271912143D
libRbt.so/2013.1/901 2013/11/27
 22 23  0  0  0  0  0  0  0  0999 V2000
  -30.5376    4.2352   -9.6262 N   0  0  0  0  0  0  0  0  0  0  0  0
  -33.6861    3.1291   -9.0640 C   0  0  1  0  0  0  0  0  0  0  0  0
  -32.8083    3.9366   -9.8991 O   0  0  0  0  0  0  0  0  0  0  0  0
  -34.8874    6.2161   -7.2262 P   0  0  1  0  0  0  0  0  0  0  0  0
  -31.5161    3.3090   -9.9231 C   0  0  2  0  0  0  0  0  0  0  0  0
  -29.5628    6.0195   -8.8665 N   0  0  0  0  0  0  0  0  0  0  0  0
  -30.5949    1.3010   -9.0202 O   0  0  0  0  0  0  0  0  0  0  0  0
  -31.5420    2.3517   -8.7946 C   0  0  2  0  0  0  0  0  0  0  0  0
  -26.5553    5.6337  -10.7083 N   0  0  0  0  0  0  0  0  0  0  0  0
  -33.1749    0.9767   -9.8387 O   0  0  0  0  0  0  0  0  0  0  0  0
  -32.9264    1.8963   -8.7622 C   0  0  2  0  0  0  0  0  0  0  0  0
  -28.6234    5.2240   -9.4008 C   0  0  0  0  0  0  0  0  0  0  0  0
  -28.5924    2.9965  -10.4966 N   0  0  0  0  0  0  0  0  0  0  0  0
  -34.5458    5.0988   -8.2720 O   0  0  0  0  0  0  0  0  0  0  0  0
  -33.9624    3.9166   -7.8297 C   0  0  0  0  0  0  0  0  0  0  0  0
  -35.3997    7.4017   -8.1220 O   0  0  0  0  0  0  0  0  0  0  0  0
  -30.7522    5.4052   -9.0135 C   0  0  0  0  0  0  0  0  0  0  0  0
  -26.5214    5.6476   -8.4314 O   0  0  0  0  0  0  0  0  0  0  0  0
  -27.1797    5.5183   -9.4634 C   0  0  0  0  0  0  0  0  0  0  0  0
  -29.2292    4.0971   -9.8786 C   0  0  0  0  0  0  0  0  0  0  0  0
  -35.8901    5.6996   -6.2486 O   0  5  0  0  0  0  0  0  0  0  0  0
  -33.7321    6.4828   -6.3505 O   0  0  0  0  0  0  0  0  0  0  0  0
  1 17  1  0  0  0  0
  1 20  1  0  0  0  0
  2 15  1  1  0  0  0
  2  3  1  0  0  0  0
  2 11  1  0  0  0  0
  3  5  1  0  0  0  0
  4 16  1  6  0  0  0
  4 21  1  0  0  0  0
  4 22  2  0  0  0  0
  4 14  1  0  0  0  0
  5  1  1  1  0  0  0
  5  8  1  0  0  0  0
  6 17  2  0  0  0  0
  6 12  1  0  0  0  0
  8  7  1  6  0  0  0
  8 11  1  0  0  0  0
  9 19  1  0  0  0  0
 11 10  1  6  0  0  0
 12 20  2  0  0  0  0
 12 19  1  0  0  0  0
 13 20  1  0  0  0  0
 14 15  1  0  0  0  0
 18 19  2  0  0  0  0
M  CHG  1  21  -1
M  END
>  <CHROM.1>
19.07710643,58.74101163,175.32033837,-176.13110730,-117.95812475,-31.75711428
4.49338427,-8.74336903,0.22479765,-0.25223214,-2.80435917

>  <Name>
ligand

>  <RI>
0

>  <Rbt.Current_Directory>
/home/itssahil/PROJECTS/Mol_Feturizer/Test_systems_manuscript/rnas/4xwf

>  <Rbt.Executable>
rbdock ($Id: //depot/dev/client3/rdock/2013.1/src/exe/rbdock.cxx#4 $)

>  <Rbt.Library>
libRbt.so (2013.1, Build901 2013/11/27)

>  <Rbt.Parameter_File>
/export/apps/rDock/src/rDock_2013.1_src/data/scripts/dock_solv.prm

>  <Rbt.Receptor>
prm/pocket_docking_7.prm

>  <SCORE>
-8.73224

>  <SCORE.INTER>
-8.00074

>  <SCORE.INTER.CONST>
1

>  <SCORE.INTER.POLAR>
0

>  <SCORE.INTER.ROT>
5

>  <SCORE.INTER.SOLV>
8.9741

>  <SCORE.INTER.VDW>
-15.2585

>  <SCORE.INTER.norm>
-0.36367

>  <SCORE.INTRA>
-0.731498

>  <SCORE.INTRA.DIHEDRAL>
-1.87116

>  <SCORE.INTRA.DIHEDRAL.0>
3.49807

>  <SCORE.INTRA.POLAR>
0

>  <SCORE.INTRA.POLAR.0>
0

>  <SCORE.INTRA.REPUL>
0

>  <SCORE.INTRA.REPUL.0>
0

>  <SCORE.INTRA.SOLV>
1.18237

>  <SCORE.INTRA.SOLV.lig_0>
-73.062

>  <SCORE.INTRA.VDW>
-0.387105

>  <SCORE.INTRA.VDW.0>
-1.83782

>  <SCORE.INTRA.norm>
-0.0332499

>  <SCORE.RESTR>
0

>  <SCORE.RESTR.CAVITY>
0

>  <SCORE.RESTR.norm>
0

>  <SCORE.SYSTEM>
0

>  <SCORE.SYSTEM.CONST>
0

>  <SCORE.SYSTEM.DIHEDRAL>
0

>  <SCORE.SYSTEM.SOLV>
0

>  <SCORE.SYSTEM.norm>
0

>  <SCORE.heavy>
22

>  <SCORE.norm>
-0.39692

>  <RMSD>
7.188

$$$$
ligand
 OpenBabel02271912143D
libRbt.so/2013.1/901 2013/11/27
 22 23  0  0  0  0  0  0  0  0999 V2000
  -30.5404    4.2530   -9.5936 N   0  0  0  0  0  0  0  0  0  0  0  0
  -33.6961    3.1481   -9.0706 C   0  0  1  0  0  0  0  0  0  0  0  0
  -32.8108    3.9693   -9.8841 O   0  0  0  0  0  0  0  0  0  0  0  0
  -34.8767    6.2085   -7.1772 P   0  0  1  0  0  0  0  0  0  0  0  0
  -31.5209    3.3372   -9.9148 C   0  0  2  0  0  0  0  0  0  0  0  0
  -29.5654    6.0255   -8.8071 N   0  0  0  0  0  0  0  0  0  0  0  0
  -30.6123    1.3070   -9.0496 O   0  0  0  0  0  0  0  0  0  0  0  0
  -31.5564    2.3565   -8.8067 C   0  0  2  0  0  0  0  0  0  0  0  0
  -26.5211    5.6114  -10.5832 N   0  0  0  0  0  0  0  0  0  0  0  0
  -33.1894    1.0103   -9.8877 O   0  0  0  0  0  0  0  0  0  0  0  0
  -32.9428    1.9061   -8.7909 C   0  0  2  0  0  0  0  0  0  0  0  0
  -28.6222    5.2225   -9.3230 C   0  0  0  0  0  0  0  0  0  0  0  0
  -28.5885    2.9979  -10.4246 N   0  0  0  0  0  0  0  0  0  0  0  0
  -34.5540    5.1033   -8.2416 O   0  0  0  0  0  0  0  0  0  0  0  0
  -33.9756    3.9105   -7.8214 C   0  0  0  0  0  0  0  0  0  0  0  0
  -35.4037    7.4046   -8.0501 O   0  0  0  0  0  0  0  0  0  0  0  0
  -30.7571    5.4233   -8.9821 C   0  0  0  0  0  0  0  0  0  0  0  0
  -26.5389    5.6266   -8.3062 O   0  0  0  0  0  0  0  0  0  0  0  0
  -27.1747    5.5029   -9.3528 C   0  0  0  0  0  0  0  0  0  0  0  0
  -29.2281    4.1028   -9.8174 C   0  0  0  0  0  0  0  0  0  0  0  0
  -35.8626    5.6811   -6.1884 O   0  5  0  0  0  0  0  0  0  0  0  0
  -33.7062    6.4646   -6.3186 O   0  0  0  0  0  0  0  0  0  0  0  0
  1 17  1  0  0  0  0
  1 20  1  0  0  0  0
  2 15  1  1  0  0  0
  2  3  1  0  0  0  0
  2 11  1  0  0  0  0
  3  5  1  0  0  0  0
  4 16  1  6  0  0  0
  4 21  1  0  0  0  0
  4 22  2  0  0  0  0
  4 14  1  0  0  0  0
  5  1  1  1  0  0  0
  5  8  1  0  0  0  0
  6 17  2  0  0  0  0
  6 12  1  0  0  0  0
  8  7  1  6  0  0  0
  8 11  1  0  0  0  0
  9 19  1  0  0  0  0
 11 10  1  6  0  0  0
 12 20  2  0  0  0  0
 12 19  1  0  0  0  0
 13 20  1  0  0  0  0
 14 15  1  0  0  0  0
 18 19  2  0  0  0  0
M  CHG  1  21  -1
M  END
>  <CHROM.1>
17.62032929,58.83006500,175.93848645,-175.19452892,-118.16781439,-31.75750058
4.49631454,-8.70494220,0.22926506,-0.24092997,-2.78110368

>  <Name>
ligand

>  <RI>
0

>  <Rbt.Current_Directory>
/home/itssahil/PROJECTS/Mol_Feturizer/Test_systems_manuscript/rnas/4xwf

>  <Rbt.Executable>
rbdock ($Id: //depot/dev/client3/rdock/2013.1/src/exe/rbdock.cxx#4 $)

>  <Rbt.Library>
libRbt.so (2013.1, Build901 2013/11/27)

>  <Rbt.Parameter_File>
/export/apps/rDock/src/rDock_2013.1_src/data/scripts/dock_solv.prm

>  <Rbt.Receptor>
prm/pocket_docking_8.prm

>  <SCORE>
-8.7883

>  <SCORE.INTER>
-8.11763

>  <SCORE.INTER.CONST>
1

>  <SCORE.INTER.POLAR>
0

>  <SCORE.INTER.ROT>
5

>  <SCORE.INTER.SOLV>
8.50876

>  <SCORE.INTER.VDW>
-15.1813

>  <SCORE.INTER.norm>
-0.368983

>  <SCORE.INTRA>
-0.670675

>  <SCORE.INTRA.DIHEDRAL>
-1.84229

>  <SCORE.INTRA.DIHEDRAL.0>
3.49807

>  <SCORE.INTRA.POLAR>
0

>  <SCORE.INTRA.POLAR.0>
0

>  <SCORE.INTRA.REPUL>
0

>  <SCORE.INTRA.REPUL.0>
0

>  <SCORE.INTRA.SOLV>
1.24736

>  <SCORE.INTRA.SOLV.lig_0>
-73.062

>  <SCORE.INTRA.VDW>
-0.37321

>  <SCORE.INTRA.VDW.0>
-1.83782

>  <SCORE.INTRA.norm>
-0.0304852

>  <SCORE.RESTR>
0

>  <SCORE.RESTR.CAVITY>
0

>  <SCORE.RESTR.norm>
0

>  <SCORE.SYSTEM>
0

>  <SCORE.SYSTEM.CONST>
0

>  <SCORE.SYSTEM.DIHEDRAL>
0

>  <SCORE.SYSTEM.SOLV>
0

>  <SCORE.SYSTEM.norm>
0

>  <SCORE.heavy>
22

>  <SCORE.norm>
-0.399468

>  <RMSD>
7.192

$$$$
ligand
 OpenBabel02271912143D
libRbt.so/2013.1/901 2013/11/27
 22 23  0  0  0  0  0  0  0  0999 V2000
  -27.4977    1.2870  -14.9178 N   0  0  0  0  0  0  0  0  0  0  0  0
  -28.0693    4.0487  -16.7883 C   0  0  1  0  0  0  0  0  0  0  0  0
  -27.2937    3.4412  -15.7163 O   0  0  0  0  0  0  0  0  0  0  0  0
  -31.3473    5.9263  -16.8565 P   0  0  1  0  0  0  0  0  0  0  0  0
  -27.1408    2.0441  -16.0145 C   0  0  2  0  0  0  0  0  0  0  0  0
  -28.6961    0.3793  -13.3523 N   0  0  0  0  0  0  0  0  0  0  0  0
  -27.7666    0.6242  -17.8278 O   0  0  0  0  0  0  0  0  0  0  0  0
  -28.1526    1.7697  -17.0594 C   0  0  2  0  0  0  0  0  0  0  0  0
  -26.3023   -2.2288  -12.6844 N   0  0  0  0  0  0  0  0  0  0  0  0
  -27.0319    3.1108  -18.6695 O   0  0  0  0  0  0  0  0  0  0  0  0
  -28.1944    3.0062  -17.8303 C   0  0  2  0  0  0  0  0  0  0  0  0
  -27.4481   -0.1047  -13.2584 C   0  0  0  0  0  0  0  0  0  0  0  0
  -25.3234    0.2017  -14.5055 N   0  0  0  0  0  0  0  0  0  0  0  0
  -30.0364    5.1429  -17.2120 O   0  0  0  0  0  0  0  0  0  0  0  0
  -29.3966    4.4119  -16.2170 C   0  0  0  0  0  0  0  0  0  0  0  0
  -30.8569    6.9897  -15.8080 O   0  0  0  0  0  0  0  0  0  0  0  0
  -28.7226    1.2485  -14.3805 C   0  0  0  0  0  0  0  0  0  0  0  0
  -27.1832   -0.8989  -11.0592 O   0  0  0  0  0  0  0  0  0  0  0  0
  -26.9758   -1.0806  -12.2589 C   0  0  0  0  0  0  0  0  0  0  0  0
  -26.6883    0.4600  -14.2429 C   0  0  0  0  0  0  0  0  0  0  0  0
  -31.9380    6.5068  -18.0983 O   0  5  0  0  0  0  0  0  0  0  0  0
  -32.4106    4.9990  -16.4298 O   0  0  0  0  0  0  0  0  0  0  0  0
  1 17  1  0  0  0  0
  1 20  1  0  0  0  0
  2 15  1  1  0  0  0
  2  3  1  0  0  0  0
  2 11  1  0  0  0  0
  3  5  1  0  0  0  0
  4 16  1  1  0  0  0
  4 21  1  0  0  0  0
  4 22  2  0  0  0  0
  4 14  1  0  0  0  0
  5  1  1  1  0  0  0
  5  8  1  0  0  0  0
  6 17  2  0  0  0  0
  6 12  1  0  0  0  0
  8  7  1  6  0  0  0
  8 11  1  0  0  0  0
  9 19  1  0  0  0  0
 11 10  1  6  0  0  0
 12 20  2  0  0  0  0
 12 19  1  0  0  0  0
 13 20  1  0  0  0  0
 14 15  1  0  0  0  0
 18 19  2  0  0  0  0
M  CHG  1  21  -1
M  END
>  <CHROM.1>
63.19005315,172.34011591,63.78635440,-168.16482028,128.09992516,-28.61132981
2.63354692,-15.64983650,-0.87596155,0.71526514,-1.05241676

>  <Name>
ligand

>  <RI>
0

>  <Rbt.Current_Directory>
/home/itssahil/PROJECTS/Mol_Feturizer/Test_systems_manuscript/rnas/4xwf

>  <Rbt.Executable>
rbdock ($Id: //depot/dev/client3/rdock/2013.1/src/exe/rbdock.cxx#4 $)

>  <Rbt.Library>
libRbt.so (2013.1, Build901 2013/11/27)

>  <Rbt.Parameter_File>
/export/apps/rDock/src/rDock_2013.1_src/data/scripts/dock_solv.prm

>  <Rbt.Receptor>
prm/pocket_docking_7.prm

>  <SCORE>
-5.86239

>  <SCORE.INTER>
-5.13653

>  <SCORE.INTER.CONST>
1

>  <SCORE.INTER.POLAR>
0

>  <SCORE.INTER.ROT>
5

>  <SCORE.INTER.SOLV>
12.289

>  <SCORE.INTER.VDW>
-14.454

>  <SCORE.INTER.norm>
-0.233479

>  <SCORE.INTRA>
-0.725859

>  <SCORE.INTRA.DIHEDRAL>
-1.0172

>  <SCORE.INTRA.DIHEDRAL.0>
3.49807

>  <SCORE.INTRA.POLAR>
0

>  <SCORE.INTRA.POLAR.0>
0

>  <SCORE.INTRA.REPUL>
0

>  <SCORE.INTRA.REPUL.0>
0

>  <SCORE.INTRA.SOLV>
-0.891131

>  <SCORE.INTRA.SOLV.lig_0>
-73.062

>  <SCORE.INTRA.VDW>
0.228304

>  <SCORE.INTRA.VDW.0>
-1.83782

>  <SCORE.INTRA.norm>
-0.0329936

>  <SCORE.RESTR>
0

>  <SCORE.RESTR.CAVITY>
0

>  <SCORE.RESTR.norm>
0

>  <SCORE.SYSTEM>
0

>  <SCORE.SYSTEM.CONST>
0

>  <SCORE.SYSTEM.DIHEDRAL>
0

>  <SCORE.SYSTEM.SOLV>
0

>  <SCORE.SYSTEM.norm>
0

>  <SCORE.heavy>
22

>  <SCORE.norm>
-0.266472

>  <RMSD>
7.197

$$$$
ligand
 OpenBabel02271912143D
libRbt.so/2013.1/901 2013/11/27
 22 23  0  0  0  0  0  0  0  0999 V2000
  -30.6841    3.0035  -10.1454 N   0  0  0  0  0  0  0  0  0  0  0  0
  -33.8350    3.2335   -8.9325 C   0  0  1  0  0  0  0  0  0  0  0  0
  -32.9900    3.0113  -10.0972 O   0  0  0  0  0  0  0  0  0  0  0  0
  -34.8939    6.3093   -6.9931 P   0  0  1  0  0  0  0  0  0  0  0  0
  -31.7947    2.3454   -9.6590 C   0  0  2  0  0  0  0  0  0  0  0  0
  -29.2043    4.5531  -10.4918 N   0  0  0  0  0  0  0  0  0  0  0  0
  -31.0001    1.4955   -7.5751 O   0  0  0  0  0  0  0  0  0  0  0  0
  -31.7793    2.5281   -8.1903 C   0  0  2  0  0  0  0  0  0  0  0  0
  -27.7295    3.1336  -13.3607 N   0  0  0  0  0  0  0  0  0  0  0  0
  -33.6870    1.1466   -7.8755 O   0  0  0  0  0  0  0  0  0  0  0  0
  -33.1902    2.4945   -7.8251 C   0  0  2  0  0  0  0  0  0  0  0  0
  -28.8211    3.4519  -11.1559 C   0  0  0  0  0  0  0  0  0  0  0  0
  -29.7051    1.1496  -11.4418 N   0  0  0  0  0  0  0  0  0  0  0  0
  -34.7290    4.8786   -7.6132 O   0  0  0  0  0  0  0  0  0  0  0  0
  -33.8487    4.7010   -8.6749 C   0  0  0  0  0  0  0  0  0  0  0  0
  -35.4528    7.1580   -8.1922 O   0  0  0  0  0  0  0  0  0  0  0  0
  -30.3655    4.2735   -9.8697 C   0  0  0  0  0  0  0  0  0  0  0  0
  -26.4898    3.3671  -11.4648 O   0  0  0  0  0  0  0  0  0  0  0  0
  -27.6061    3.3234  -11.9817 C   0  0  0  0  0  0  0  0  0  0  0  0
  -29.7463    2.4707  -10.9401 C   0  0  0  0  0  0  0  0  0  0  0  0
  -35.7976    6.2417   -5.8071 O   0  5  0  0  0  0  0  0  0  0  0  0
  -33.6328    6.7604   -6.3776 O   0  0  0  0  0  0  0  0  0  0  0  0
  1 17  1  0  0  0  0
  1 20  1  0  0  0  0
  2 15  1  1  0  0  0
  2  3  1  0  0  0  0
  2 11  1  0  0  0  0
  3  5  1  0  0  0  0
  4 16  1  6  0  0  0
  4 21  1  0  0  0  0
  4 22  2  0  0  0  0
  4 14  1  0  0  0  0
  5  1  1  6  0  0  0
  5  8  1  0  0  0  0
  6 17  2  0  0  0  0
  6 12  1  0  0  0  0
  8  7  1  1  0  0  0
  8 11  1  0  0  0  0
  9 19  1  0  0  0  0
 11 10  1  6  0  0  0
 12 20  2  0  0  0  0
 12 19  1  0  0  0  0
 13 20  1  0  0  0  0
 14 15  1  0  0  0  0
 18 19  2  0  0  0  0
M  CHG  1  21  -1
M  END
>  <CHROM.1>
60.98042042,176.36034462,62.03648448,174.84174377,-113.99905616,-31.95947838
3.86621348,-9.09377407,0.34073718,-0.60635657,3.11842320

>  <Name>
ligand

>  <RI>
0

>  <Rbt.Current_Directory>
/home/itssahil/PROJECTS/Mol_Feturizer/Test_systems_manuscript/rnas/4xwf

>  <Rbt.Executable>
rbdock ($Id: //depot/dev/client3/rdock/2013.1/src/exe/rbdock.cxx#4 $)

>  <Rbt.Library>
libRbt.so (2013.1, Build901 2013/11/27)

>  <Rbt.Parameter_File>
/export/apps/rDock/src/rDock_2013.1_src/data/scripts/dock_solv.prm

>  <Rbt.Receptor>
prm/pocket_docking_7.prm

>  <SCORE>
-9.90341

>  <SCORE.INTER>
-8.82303

>  <SCORE.INTER.CONST>
1

>  <SCORE.INTER.POLAR>
0

>  <SCORE.INTER.ROT>
5

>  <SCORE.INTER.SOLV>
9.76294

>  <SCORE.INTER.VDW>
-16.0697

>  <SCORE.INTER.norm>
-0.401047

>  <SCORE.INTRA>
-1.08038

>  <SCORE.INTRA.DIHEDRAL>
-1.75712

>  <SCORE.INTRA.DIHEDRAL.0>
3.49807

>  <SCORE.INTRA.POLAR>
0

>  <SCORE.INTRA.POLAR.0>
0

>  <SCORE.INTRA.REPUL>
0

>  <SCORE.INTRA.REPUL.0>
0

>  <SCORE.INTRA.SOLV>
-0.734093

>  <SCORE.INTRA.SOLV.lig_0>
-73.062

>  <SCORE.INTRA.VDW>
0.165222

>  <SCORE.INTRA.VDW.0>
-1.83782

>  <SCORE.INTRA.norm>
-0.0491083

>  <SCORE.RESTR>
0

>  <SCORE.RESTR.CAVITY>
0

>  <SCORE.RESTR.norm>
0

>  <SCORE.SYSTEM>
0

>  <SCORE.SYSTEM.CONST>
0

>  <SCORE.SYSTEM.DIHEDRAL>
0

>  <SCORE.SYSTEM.SOLV>
0

>  <SCORE.SYSTEM.norm>
0

>  <SCORE.heavy>
22

>  <SCORE.norm>
-0.450155

>  <RMSD>
7.202

$$$$
ligand
 OpenBabel02271912143D
libRbt.so/2013.1/901 2013/11/27
 22 23  0  0  0  0  0  0  0  0999 V2000
  -30.5844    4.2786   -9.6326 N   0  0  0  0  0  0  0  0  0  0  0  0
  -33.7131    3.1181   -9.0701 C   0  0  1  0  0  0  0  0  0  0  0  0
  -32.8503    3.9436   -9.9031 O   0  0  0  0  0  0  0  0  0  0  0  0
  -34.9138    6.1971   -7.2190 P   0  0  1  0  0  0  0  0  0  0  0  0
  -31.5478    3.3377   -9.9319 C   0  0  2  0  0  0  0  0  0  0  0  0
  -29.6363    6.0715   -8.8594 N   0  0  0  0  0  0  0  0  0  0  0  0
  -30.5920    1.3413   -9.0393 O   0  0  0  0  0  0  0  0  0  0  0  0
  -31.5560    2.3751   -8.8076 C   0  0  2  0  0  0  0  0  0  0  0  0
  -26.6549    5.8315  -10.7331 N   0  0  0  0  0  0  0  0  0  0  0  0
  -33.1677    0.9778   -9.8550 O   0  0  0  0  0  0  0  0  0  0  0  0
  -32.9326    1.8967   -8.7748 C   0  0  2  0  0  0  0  0  0  0  0  0
  -28.6872    5.3011   -9.4130 C   0  0  0  0  0  0  0  0  0  0  0  0
  -28.6246    3.0888  -10.5379 N   0  0  0  0  0  0  0  0  0  0  0  0
  -34.5719    5.0850   -8.2701 O   0  0  0  0  0  0  0  0  0  0  0  0
  -34.0003    3.8954   -7.8318 C   0  0  0  0  0  0  0  0  0  0  0  0
  -35.4424    7.3808   -8.1078 O   0  0  0  0  0  0  0  0  0  0  0  0
  -30.8151    5.4364   -9.0027 C   0  0  0  0  0  0  0  0  0  0  0  0
  -26.5718    5.6967   -8.4614 O   0  0  0  0  0  0  0  0  0  0  0  0
  -27.2502    5.6239   -9.4859 C   0  0  0  0  0  0  0  0  0  0  0  0
  -29.2761    4.1689   -9.8995 C   0  0  0  0  0  0  0  0  0  0  0  0
  -35.9046    5.6705   -6.2347 O   0  5  0  0  0  0  0  0  0  0  0  0
  -33.7536    6.4708   -6.3519 O   0  0  0  0  0  0  0  0  0  0  0  0
  1 17  1  0  0  0  0
  1 20  1  0  0  0  0
  2 15  1  1  0  0  0
  2  3  1  0  0  0  0
  2 11  1  0  0  0  0
  3  5  1  0  0  0  0
  4 16  1  6  0  0  0
  4 21  1  0  0  0  0
  4 22  2  0  0  0  0
  4 14  1  0  0  0  0
  5  1  1  1  0  0  0
  5  8  1  0  0  0  0
  6 17  2  0  0  0  0
  6 12  1  0  0  0  0
  8  7  1  6  0  0  0
  8 11  1  0  0  0  0
  9 19  1  0  0  0  0
 11 10  1  6  0  0  0
 12 20  2  0  0  0  0
 12 19  1  0  0  0  0
 13 20  1  0  0  0  0
 14 15  1  0  0  0  0
 18 19  2  0  0  0  0
M  CHG  1  21  -1
M  END
>  <CHROM.1>
19.76897368,57.21962999,176.59533597,-175.83500839,-114.85400161,-31.79304480
4.52021476,-8.75079007,0.21009289,-0.26209224,-2.80566422

>  <Name>
ligand

>  <RI>
0

>  <Rbt.Current_Directory>
/home/itssahil/PROJECTS/Mol_Feturizer/Test_systems_manuscript/rnas/4xwf

>  <Rbt.Executable>
rbdock ($Id: //depot/dev/client3/rdock/2013.1/src/exe/rbdock.cxx#4 $)

>  <Rbt.Library>
libRbt.so (2013.1, Build901 2013/11/27)

>  <Rbt.Parameter_File>
/export/apps/rDock/src/rDock_2013.1_src/data/scripts/dock_solv.prm

>  <Rbt.Receptor>
prm/pocket_docking_7.prm

>  <SCORE>
-8.715

>  <SCORE.INTER>
-7.97926

>  <SCORE.INTER.CONST>
1

>  <SCORE.INTER.POLAR>
0

>  <SCORE.INTER.ROT>
5

>  <SCORE.INTER.SOLV>
9.52447

>  <SCORE.INTER.VDW>
-15.4277

>  <SCORE.INTER.norm>
-0.362693

>  <SCORE.INTRA>
-0.735743

>  <SCORE.INTRA.DIHEDRAL>
-1.83429

>  <SCORE.INTRA.DIHEDRAL.0>
3.49807

>  <SCORE.INTRA.POLAR>
0

>  <SCORE.INTRA.POLAR.0>
0

>  <SCORE.INTRA.REPUL>
0

>  <SCORE.INTRA.REPUL.0>
0

>  <SCORE.INTRA.SOLV>
1.14696

>  <SCORE.INTRA.SOLV.lig_0>
-73.062

>  <SCORE.INTRA.VDW>
-0.392079

>  <SCORE.INTRA.VDW.0>
-1.83782

>  <SCORE.INTRA.norm>
-0.0334429

>  <SCORE.RESTR>
0

>  <SCORE.RESTR.CAVITY>
0

>  <SCORE.RESTR.norm>
0

>  <SCORE.SYSTEM>
0

>  <SCORE.SYSTEM.CONST>
0

>  <SCORE.SYSTEM.DIHEDRAL>
0

>  <SCORE.SYSTEM.SOLV>
0

>  <SCORE.SYSTEM.norm>
0

>  <SCORE.heavy>
22

>  <SCORE.norm>
-0.396136

>  <RMSD>
7.202

$$$$
ligand
 OpenBabel02271912143D
libRbt.so/2013.1/901 2013/11/27
 22 23  0  0  0  0  0  0  0  0999 V2000
  -30.5218    4.2422   -9.5632 N   0  0  0  0  0  0  0  0  0  0  0  0
  -33.6912    3.1570   -9.0836 C   0  0  1  0  0  0  0  0  0  0  0  0
  -32.7915    3.9800   -9.8792 O   0  0  0  0  0  0  0  0  0  0  0  0
  -34.9118    6.1861   -7.1631 P   0  0  1  0  0  0  0  0  0  0  0  0
  -31.5064    3.3380   -9.9042 C   0  0  2  0  0  0  0  0  0  0  0  0
  -29.5374    5.9875   -8.7289 N   0  0  0  0  0  0  0  0  0  0  0  0
  -30.6225    1.2911   -9.0528 O   0  0  0  0  0  0  0  0  0  0  0  0
  -31.5606    2.3454   -8.8075 C   0  0  2  0  0  0  0  0  0  0  0  0
  -26.5271    5.7098  -10.5448 N   0  0  0  0  0  0  0  0  0  0  0  0
  -33.1933    1.0244   -9.9195 O   0  0  0  0  0  0  0  0  0  0  0  0
  -32.9506    1.9060   -8.8103 C   0  0  2  0  0  0  0  0  0  0  0  0
  -28.6001    5.2015   -9.2806 C   0  0  0  0  0  0  0  0  0  0  0  0
  -28.5796    3.0143  -10.4552 N   0  0  0  0  0  0  0  0  0  0  0  0
  -34.5450    5.1083   -8.2412 O   0  0  0  0  0  0  0  0  0  0  0  0
  -33.9771    3.9078   -7.8288 C   0  0  0  0  0  0  0  0  0  0  0  0
  -35.4253    7.3959   -8.0253 O   0  0  0  0  0  0  0  0  0  0  0  0
  -30.7313    5.3919   -8.9114 C   0  0  0  0  0  0  0  0  0  0  0  0
  -26.4929    5.5021   -8.2773 O   0  0  0  0  0  0  0  0  0  0  0  0
  -27.1529    5.4821   -9.3162 C   0  0  0  0  0  0  0  0  0  0  0  0
  -29.2120    4.0989   -9.8054 C   0  0  0  0  0  0  0  0  0  0  0  0
  -35.9214    5.6267   -6.2167 O   0  5  0  0  0  0  0  0  0  0  0  0
  -33.7707    6.4350   -6.2639 O   0  0  0  0  0  0  0  0  0  0  0  0
  1 17  1  0  0  0  0
  1 20  1  0  0  0  0
  2 15  1  1  0  0  0
  2  3  1  0  0  0  0
  2 11  1  0  0  0  0
  3  5  1  0  0  0  0
  4 16  1  6  0  0  0
  4 21  1  0  0  0  0
  4 22  2  0  0  0  0
  4 14  1  0  0  0  0
  5  1  1  1  0  0  0
  5  8  1  0  0  0  0
  6 17  2  0  0  0  0
  6 12  1  0  0  0  0
  8  7  1  6  0  0  0
  8 11  1  0  0  0  0
  9 19  1  0  0  0  0
 11 10  1  6  0  0  0
 12 20  2  0  0  0  0
 12 19  1  0  0  0  0
 13 20  1  0  0  0  0
 14 15  1  0  0  0  0
 18 19  2  0  0  0  0
M  CHG  1  21  -1
M  END
>  <CHROM.1>
19.37383757,58.97944891,176.48341063,-177.08744159,-114.36630265,-31.75944084
4.48413132,-8.69151699,0.22837810,-0.23530845,-2.77314202

>  <Name>
ligand

>  <RI>
0

>  <Rbt.Current_Directory>
/home/itssahil/PROJECTS/Mol_Feturizer/Test_systems_manuscript/rnas/4xwf

>  <Rbt.Executable>
rbdock ($Id: //depot/dev/client3/rdock/2013.1/src/exe/rbdock.cxx#4 $)

>  <Rbt.Library>
libRbt.so (2013.1, Build901 2013/11/27)

>  <Rbt.Parameter_File>
/export/apps/rDock/src/rDock_2013.1_src/data/scripts/dock_solv.prm

>  <Rbt.Receptor>
prm/pocket_docking_8.prm

>  <SCORE>
-8.74852

>  <SCORE.INTER>
-7.98243

>  <SCORE.INTER.CONST>
1

>  <SCORE.INTER.POLAR>
0

>  <SCORE.INTER.ROT>
5

>  <SCORE.INTER.SOLV>
8.66359

>  <SCORE.INTER.VDW>
-15.1428

>  <SCORE.INTER.norm>
-0.362838

>  <SCORE.INTRA>
-0.766089

>  <SCORE.INTRA.DIHEDRAL>
-1.89007

>  <SCORE.INTRA.DIHEDRAL.0>
3.49807

>  <SCORE.INTRA.POLAR>
0

>  <SCORE.INTRA.POLAR.0>
0

>  <SCORE.INTRA.REPUL>
0

>  <SCORE.INTRA.REPUL.0>
0

>  <SCORE.INTRA.SOLV>
1.1453

>  <SCORE.INTRA.SOLV.lig_0>
-73.062

>  <SCORE.INTRA.VDW>
-0.393702

>  <SCORE.INTRA.VDW.0>
-1.83782

>  <SCORE.INTRA.norm>
-0.0348222

>  <SCORE.RESTR>
0

>  <SCORE.RESTR.CAVITY>
0

>  <SCORE.RESTR.norm>
0

>  <SCORE.SYSTEM>
0

>  <SCORE.SYSTEM.CONST>
0

>  <SCORE.SYSTEM.DIHEDRAL>
0

>  <SCORE.SYSTEM.SOLV>
0

>  <SCORE.SYSTEM.norm>
0

>  <SCORE.heavy>
22

>  <SCORE.norm>
-0.39766

>  <RMSD>
7.204

$$$$
ligand
 OpenBabel02271912143D
libRbt.so/2013.1/901 2013/11/27
 22 23  0  0  0  0  0  0  0  0999 V2000
  -28.1351    1.0378  -13.6688 N   0  0  0  0  0  0  0  0  0  0  0  0
  -29.7077    0.2708  -10.7721 C   0  0  1  0  0  0  0  0  0  0  0  0
  -29.2401   -0.2011  -12.0677 O   0  0  0  0  0  0  0  0  0  0  0  0
  -32.8209    2.1018   -9.6256 P   0  0  1  0  0  0  0  0  0  0  0  0
  -28.0390    0.5160  -12.3954 C   0  0  2  0  0  0  0  0  0  0  0  0
  -28.9506    1.9880  -15.4417 N   0  0  0  0  0  0  0  0  0  0  0  0
  -26.6854    2.1411  -11.2895 O   0  0  0  0  0  0  0  0  0  0  0  0
  -28.0264    1.6711  -11.4699 C   0  0  2  0  0  0  0  0  0  0  0  0
  -26.1370    1.0470  -17.5040 N   0  0  0  0  0  0  0  0  0  0  0  0
  -27.7011    0.2941   -9.5607 O   0  0  0  0  0  0  0  0  0  0  0  0
  -28.6315    1.1432  -10.2533 C   0  0  2  0  0  0  0  0  0  0  0  0
  -27.6520    1.7324  -15.6631 C   0  0  0  0  0  0  0  0  0  0  0  0
  -25.7904    0.7280  -14.3634 N   0  0  0  0  0  0  0  0  0  0  0  0
  -31.4764    1.3042   -9.7475 O   0  0  0  0  0  0  0  0  0  0  0  0
  -30.9634    1.0362  -11.0119 C   0  0  0  0  0  0  0  0  0  0  0  0
  -33.7541    1.3946  -10.6742 O   0  0  0  0  0  0  0  0  0  0  0  0
  -29.2496    1.5498  -14.2039 C   0  0  0  0  0  0  0  0  0  0  0  0
  -26.9619    3.1668  -17.3962 O   0  0  0  0  0  0  0  0  0  0  0  0
  -26.9126    2.0409  -16.9011 C   0  0  0  0  0  0  0  0  0  0  0  0
  -27.1308    1.1369  -14.5500 C   0  0  0  0  0  0  0  0  0  0  0  0
  -33.3139    2.0432   -8.2180 O   0  5  0  0  0  0  0  0  0  0  0  0
  -32.5882    3.5472   -9.7967 O   0  0  0  0  0  0  0  0  0  0  0  0
  1 17  1  0  0  0  0
  1 20  1  0  0  0  0
  2 15  1  6  0  0  0
  2  3  1  0  0  0  0
  2 11  1  0  0  0  0
  3  5  1  0  0  0  0
  4 16  1  6  0  0  0
  4 21  1  0  0  0  0
  4 22  2  0  0  0  0
  4 14  1  0  0  0  0
  5  1  1  6  0  0  0
  5  8  1  0  0  0  0
  6 17  2  0  0  0  0
  6 12  1  0  0  0  0
  8  7  1  1  0  0  0
  8 11  1  0  0  0  0
  9 19  1  0  0  0  0
 11 10  1  6  0  0  0
 12 20  2  0  0  0  0
 12 19  1  0  0  0  0
 13 20  1  0  0  0  0
 14 15  1  0  0  0  0
 18 19  2  0  0  0  0
M  CHG  1  21  -1
M  END
>  <CHROM.1>
37.82168709,171.78618955,46.59394959,-179.65927319,-130.23684837,-29.37088411
1.48989026,-12.29734742,-0.81785427,-0.29837160,1.80979896

>  <Name>
ligand

>  <RI>
0

>  <Rbt.Current_Directory>
/home/itssahil/PROJECTS/Mol_Feturizer/Test_systems_manuscript/rnas/4xwf

>  <Rbt.Executable>
rbdock ($Id: //depot/dev/client3/rdock/2013.1/src/exe/rbdock.cxx#4 $)

>  <Rbt.Library>
libRbt.so (2013.1, Build901 2013/11/27)

>  <Rbt.Parameter_File>
/export/apps/rDock/src/rDock_2013.1_src/data/scripts/dock_solv.prm

>  <Rbt.Receptor>
prm/pocket_docking_6.prm

>  <SCORE>
-6.76218

>  <SCORE.INTER>
-5.95591

>  <SCORE.INTER.CONST>
1

>  <SCORE.INTER.POLAR>
0

>  <SCORE.INTER.ROT>
5

>  <SCORE.INTER.SOLV>
13.5648

>  <SCORE.INTER.VDW>
-15.4255

>  <SCORE.INTER.norm>
-0.270723

>  <SCORE.INTRA>
-0.806277

>  <SCORE.INTRA.DIHEDRAL>
-1.35765

>  <SCORE.INTRA.DIHEDRAL.0>
3.49807

>  <SCORE.INTRA.POLAR>
0

>  <SCORE.INTRA.POLAR.0>
0

>  <SCORE.INTRA.REPUL>
0

>  <SCORE.INTRA.REPUL.0>
0

>  <SCORE.INTRA.SOLV>
-0.208774

>  <SCORE.INTRA.SOLV.lig_0>
-73.062

>  <SCORE.INTRA.VDW>
-0.0230661

>  <SCORE.INTRA.VDW.0>
-1.83782

>  <SCORE.INTRA.norm>
-0.0366489

>  <SCORE.RESTR>
0

>  <SCORE.RESTR.CAVITY>
0

>  <SCORE.RESTR.norm>
0

>  <SCORE.SYSTEM>
0

>  <SCORE.SYSTEM.CONST>
0

>  <SCORE.SYSTEM.DIHEDRAL>
0

>  <SCORE.SYSTEM.SOLV>
0

>  <SCORE.SYSTEM.norm>
0

>  <SCORE.heavy>
22

>  <SCORE.norm>
-0.307372

>  <RMSD>
7.206

$$$$
ligand
 OpenBabel02271912143D
libRbt.so/2013.1/901 2013/11/27
 22 23  0  0  0  0  0  0  0  0999 V2000
  -33.4654    5.7580   -8.1162 N   0  0  0  0  0  0  0  0  0  0  0  0
  -30.4873    4.6119   -9.2430 C   0  0  1  0  0  0  0  0  0  0  0  0
  -31.7768    5.1961   -9.5833 O   0  0  0  0  0  0  0  0  0  0  0  0
  -31.8754    1.2138  -10.1603 P   0  0  1  0  0  0  0  0  0  0  0  0
  -32.1750    6.0554   -8.5029 C   0  0  2  0  0  0  0  0  0  0  0  0
  -35.3164    4.6669   -7.8089 N   0  0  0  0  0  0  0  0  0  0  0  0
  -31.1853    6.7555   -6.4471 O   0  0  0  0  0  0  0  0  0  0  0  0
  -31.3003    5.6688   -7.3731 C   0  0  2  0  0  0  0  0  0  0  0  0
  -37.7227    5.5140   -6.3292 N   0  0  0  0  0  0  0  0  0  0  0  0
  -29.3465    6.4968   -8.4429 O   0  0  0  0  0  0  0  0  0  0  0  0
  -30.0426    5.3128   -8.0186 C   0  0  2  0  0  0  0  0  0  0  0  0
  -35.4380    5.8703   -7.2277 C   0  0  0  0  0  0  0  0  0  0  0  0
  -33.9830    7.8611   -6.9393 N   0  0  0  0  0  0  0  0  0  0  0  0
  -31.3089    2.6758  -10.1501 O   0  0  0  0  0  0  0  0  0  0  0  0
  -30.7168    3.1617   -8.9894 C   0  0  0  0  0  0  0  0  0  0  0  0
  -32.2932    1.0011  -11.6606 O   0  0  0  0  0  0  0  0  0  0  0  0
  -34.0918    4.6022   -8.3655 C   0  0  0  0  0  0  0  0  0  0  0  0
  -36.6690    7.5179   -6.0844 O   0  0  0  0  0  0  0  0  0  0  0  0
  -36.6280    6.3636   -6.5100 C   0  0  0  0  0  0  0  0  0  0  0  0
  -34.2752    6.5620   -7.4143 C   0  0  0  0  0  0  0  0  0  0  0  0
  -30.8319    0.2672   -9.6672 O   0  5  0  0  0  0  0  0  0  0  0  0
  -32.9256    1.0533   -9.1386 O   0  0  0  0  0  0  0  0  0  0  0  0
  1 17  1  0  0  0  0
  1 20  1  0  0  0  0
  2 15  1  1  0  0  0
  2  3  1  0  0  0  0
  2 11  1  0  0  0  0
  3  5  1  0  0  0  0
  4 16  1  6  0  0  0
  4 21  1  0  0  0  0
  4 22  2  0  0  0  0
  4 14  1  0  0  0  0
  5  1  1  1  0  0  0
  5  8  1  0  0  0  0
  6 17  2  0  0  0  0
  6 12  1  0  0  0  0
  8  7  1  1  0  0  0
  8 11  1  0  0  0  0
  9 19  1  0  0  0  0
 11 10  1  6  0  0  0
 12 20  2  0  0  0  0
 12 19  1  0  0  0  0
 13 20  1  0  0  0  0
 14 15  1  0  0  0  0
 18 19  2  0  0  0  0
M  CHG  1  21  -1
M  END
>  <CHROM.1>
20.55892445,56.45942992,-173.75408217,-171.46405387,3.81120529,-32.77707662
4.47703665,-8.42918481,-2.18218863,-0.19228478,-2.68466094

>  <Name>
ligand

>  <RI>
0

>  <Rbt.Current_Directory>
/home/itssahil/PROJECTS/Mol_Feturizer/Test_systems_manuscript/rnas/4xwf

>  <Rbt.Executable>
rbdock ($Id: //depot/dev/client3/rdock/2013.1/src/exe/rbdock.cxx#4 $)

>  <Rbt.Library>
libRbt.so (2013.1, Build901 2013/11/27)

>  <Rbt.Parameter_File>
/export/apps/rDock/src/rDock_2013.1_src/data/scripts/dock_solv.prm

>  <Rbt.Receptor>
prm/pocket_docking_7.prm

>  <SCORE>
-9.36395

>  <SCORE.INTER>
-8.9179

>  <SCORE.INTER.CONST>
1

>  <SCORE.INTER.POLAR>
0

>  <SCORE.INTER.ROT>
5

>  <SCORE.INTER.SOLV>
17.2131

>  <SCORE.INTER.VDW>
-18.6163

>  <SCORE.INTER.norm>
-0.405359

>  <SCORE.INTRA>
-0.446049

>  <SCORE.INTRA.DIHEDRAL>
-1.56073

>  <SCORE.INTRA.DIHEDRAL.0>
3.49807

>  <SCORE.INTRA.POLAR>
0

>  <SCORE.INTRA.POLAR.0>
0

>  <SCORE.INTRA.REPUL>
0

>  <SCORE.INTRA.REPUL.0>
0

>  <SCORE.INTRA.SOLV>
1.24144

>  <SCORE.INTRA.SOLV.lig_0>
-73.062

>  <SCORE.INTRA.VDW>
-0.286404

>  <SCORE.INTRA.VDW.0>
-1.83782

>  <SCORE.INTRA.norm>
-0.020275

>  <SCORE.RESTR>
0

>  <SCORE.RESTR.CAVITY>
0

>  <SCORE.RESTR.norm>
0

>  <SCORE.SYSTEM>
0

>  <SCORE.SYSTEM.CONST>
0

>  <SCORE.SYSTEM.DIHEDRAL>
0

>  <SCORE.SYSTEM.SOLV>
0

>  <SCORE.SYSTEM.norm>
0

>  <SCORE.heavy>
22

>  <SCORE.norm>
-0.425634

>  <RMSD>
7.226

$$$$
ligand
 OpenBabel02271912143D
libRbt.so/2013.1/901 2013/11/27
 22 23  0  0  0  0  0  0  0  0999 V2000
  -31.3230    5.9049   -8.3362 N   0  0  0  0  0  0  0  0  0  0  0  0
  -32.5768    2.7880   -8.7429 C   0  0  1  0  0  0  0  0  0  0  0  0
  -31.6180    3.6355   -8.0486 O   0  0  0  0  0  0  0  0  0  0  0  0
  -30.0063    1.3256  -11.1086 P   0  0  1  0  0  0  0  0  0  0  0  0
  -32.2041    4.9385   -7.8968 C   0  0  2  0  0  0  0  0  0  0  0  0
  -29.7026    6.8691   -9.4111 N   0  0  0  0  0  0  0  0  0  0  0  0
  -34.3184    5.9127   -8.4224 O   0  0  0  0  0  0  0  0  0  0  0  0
  -33.3435    4.9506   -8.8415 C   0  0  2  0  0  0  0  0  0  0  0  0
  -30.8603   10.1854   -9.0932 N   0  0  0  0  0  0  0  0  0  0  0  0
  -34.5504    3.3247   -7.5976 O   0  0  0  0  0  0  0  0  0  0  0  0
  -33.8270    3.5756   -8.8142 C   0  0  2  0  0  0  0  0  0  0  0  0
  -30.3276    7.7992   -8.6729 C   0  0  0  0  0  0  0  0  0  0  0  0
  -32.2685    7.8324   -7.1253 N   0  0  0  0  0  0  0  0  0  0  0  0
  -30.9141    1.7064   -9.8882 O   0  0  0  0  0  0  0  0  0  0  0  0
  -32.0222    2.5196  -10.0995 C   0  0  0  0  0  0  0  0  0  0  0  0
  -31.0338    0.7721  -12.1614 O   0  0  0  0  0  0  0  0  0  0  0  0
  -30.3194    5.6917   -9.1952 C   0  0  0  0  0  0  0  0  0  0  0  0
  -28.8866    9.5794   -8.1324 O   0  0  0  0  0  0  0  0  0  0  0  0
  -29.9682    9.2277   -8.6032 C   0  0  0  0  0  0  0  0  0  0  0  0
  -31.3511    7.2002   -7.9955 C   0  0  0  0  0  0  0  0  0  0  0  0
  -29.2420    2.5257  -11.5600 O   0  5  0  0  0  0  0  0  0  0  0  0
  -28.9185    0.4238  -10.6892 O   0  0  0  0  0  0  0  0  0  0  0  0
  1 17  1  0  0  0  0
  1 20  1  0  0  0  0
  2 15  1  6  0  0  0
  2  3  1  0  0  0  0
  2 11  1  0  0  0  0
  3  5  1  0  0  0  0
  4 16  1  6  0  0  0
  4 21  1  0  0  0  0
  4 22  2  0  0  0  0
  4 14  1  0  0  0  0
  5  1  1  6  0  0  0
  5  8  1  0  0  0  0
  6 17  2  0  0  0  0
  6 12  1  0  0  0  0
  8  7  1  1  0  0  0
  8 11  1  0  0  0  0
  9 19  1  0  0  0  0
 11 10  1  1  0  0  0
 12 20  2  0  0  0  0
 12 19  1  0  0  0  0
 13 20  1  0  0  0  0
 14 15  1  0  0  0  0
 18 19  2  0  0  0  0
M  CHG  1  21  -1
M  END
>  <CHROM.1>
22.33384130,68.73629633,-51.70944216,-174.79926834,114.42929300,-31.26893943
4.63236178,-9.25408899,1.61213980,0.44666852,0.32021180

>  <Name>
ligand

>  <RI>
0

>  <Rbt.Current_Directory>
/home/itssahil/PROJECTS/Mol_Feturizer/Test_systems_manuscript/rnas/4xwf

>  <Rbt.Executable>
rbdock ($Id: //depot/dev/client3/rdock/2013.1/src/exe/rbdock.cxx#4 $)

>  <Rbt.Library>
libRbt.so (2013.1, Build901 2013/11/27)

>  <Rbt.Parameter_File>
/export/apps/rDock/src/rDock_2013.1_src/data/scripts/dock_solv.prm

>  <Rbt.Receptor>
prm/pocket_docking_8.prm

>  <SCORE>
-8.16525

>  <SCORE.INTER>
-7.24083

>  <SCORE.INTER.CONST>
1

>  <SCORE.INTER.POLAR>
0

>  <SCORE.INTER.ROT>
5

>  <SCORE.INTER.SOLV>
10.7197

>  <SCORE.INTER.VDW>
-15.3338

>  <SCORE.INTER.norm>
-0.329128

>  <SCORE.INTRA>
-0.924428

>  <SCORE.INTRA.DIHEDRAL>
-1.49563

>  <SCORE.INTRA.DIHEDRAL.0>
3.49807

>  <SCORE.INTRA.POLAR>
0

>  <SCORE.INTRA.POLAR.0>
0

>  <SCORE.INTRA.REPUL>
0

>  <SCORE.INTRA.REPUL.0>
0

>  <SCORE.INTRA.SOLV>
0.310807

>  <SCORE.INTRA.SOLV.lig_0>
-73.062

>  <SCORE.INTRA.VDW>
-0.332016

>  <SCORE.INTRA.VDW.0>
-1.83782

>  <SCORE.INTRA.norm>
-0.0420195

>  <SCORE.RESTR>
0

>  <SCORE.RESTR.CAVITY>
0

>  <SCORE.RESTR.norm>
0

>  <SCORE.SYSTEM>
0

>  <SCORE.SYSTEM.CONST>
0

>  <SCORE.SYSTEM.DIHEDRAL>
0

>  <SCORE.SYSTEM.SOLV>
0

>  <SCORE.SYSTEM.norm>
0

>  <SCORE.heavy>
22

>  <SCORE.norm>
-0.371148

>  <RMSD>
7.258

$$$$
ligand
 OpenBabel02271912143D
libRbt.so/2013.1/901 2013/11/27
 22 23  0  0  0  0  0  0  0  0999 V2000
  -30.3161    4.0572   -8.9079 N   0  0  0  0  0  0  0  0  0  0  0  0
  -33.5773    3.3962   -9.5245 C   0  0  1  0  0  0  0  0  0  0  0  0
  -32.4204    4.2229   -9.8375 O   0  0  0  0  0  0  0  0  0  0  0  0
  -35.1021    6.0632   -7.3073 P   0  0  1  0  0  0  0  0  0  0  0  0
  -31.2431    3.4111   -9.6994 C   0  0  2  0  0  0  0  0  0  0  0  0
  -29.4548    5.2445   -7.3081 N   0  0  0  0  0  0  0  0  0  0  0  0
  -30.8212    1.1173   -9.1933 O   0  0  0  0  0  0  0  0  0  0  0  0
  -31.6915    2.2254   -8.9354 C   0  0  2  0  0  0  0  0  0  0  0  0
  -26.2870    5.7414   -8.7675 N   0  0  0  0  0  0  0  0  0  0  0  0
  -33.0596    1.4442  -10.7145 O   0  0  0  0  0  0  0  0  0  0  0  0
  -33.0588    2.0168   -9.3960 C   0  0  2  0  0  0  0  0  0  0  0  0
  -28.4522    4.7608   -8.0573 C   0  0  0  0  0  0  0  0  0  0  0  0
  -28.2711    3.3058  -10.0607 N   0  0  0  0  0  0  0  0  0  0  0  0
  -34.5273    5.2029   -8.4855 O   0  0  0  0  0  0  0  0  0  0  0  0
  -34.1343    3.8928   -8.2348 C   0  0  0  0  0  0  0  0  0  0  0  0
  -35.3824    7.4547   -7.9823 O   0  0  0  0  0  0  0  0  0  0  0  0
  -30.6123    4.8107   -7.8425 C   0  0  0  0  0  0  0  0  0  0  0  0
  -26.4518    4.5451   -6.8369 O   0  0  0  0  0  0  0  0  0  0  0  0
  -27.0149    5.0017   -7.8316 C   0  0  0  0  0  0  0  0  0  0  0  0
  -28.9865    4.0096   -9.0650 C   0  0  0  0  0  0  0  0  0  0  0  0
  -36.3100    5.3948   -6.7399 O   0  5  0  0  0  0  0  0  0  0  0  0
  -34.1859    6.0461   -6.1527 O   0  0  0  0  0  0  0  0  0  0  0  0
  1 17  1  0  0  0  0
  1 20  1  0  0  0  0
  2 15  1  1  0  0  0
  2  3  1  0  0  0  0
  2 11  1  0  0  0  0
  3  5  1  0  0  0  0
  4 16  1  6  0  0  0
  4 21  1  0  0  0  0
  4 22  2  0  0  0  0
  4 14  1  0  0  0  0
  5  1  1  1  0  0  0
  5  8  1  0  0  0  0
  6 17  2  0  0  0  0
  6 12  1  0  0  0  0
  8  7  1  6  0  0  0
  8 11  1  0  0  0  0
  9 19  1  0  0  0  0
 11 10  1  6  0  0  0
 12 20  2  0  0  0  0
 12 19  1  0  0  0  0
 13 20  1  0  0  0  0
 14 15  1  0  0  0  0
 18 19  2  0  0  0  0
M  CHG  1  21  -1
M  END
>  <CHROM.1>
36.72752504,62.43907382,178.59640275,-177.00277549,-113.79522207,-31.73923075
4.35462617,-8.41758765,0.18826280,0.00725049,-2.55761949

>  <Name>
ligand

>  <RI>
0

>  <Rbt.Current_Directory>
/home/itssahil/PROJECTS/Mol_Feturizer/Test_systems_manuscript/rnas/4xwf

>  <Rbt.Executable>
rbdock ($Id: //depot/dev/client3/rdock/2013.1/src/exe/rbdock.cxx#4 $)

>  <Rbt.Library>
libRbt.so (2013.1, Build901 2013/11/27)

>  <Rbt.Parameter_File>
/export/apps/rDock/src/rDock_2013.1_src/data/scripts/dock_solv.prm

>  <Rbt.Receptor>
prm/pocket_docking_7.prm

>  <SCORE>
-8.66879

>  <SCORE.INTER>
-7.46466

>  <SCORE.INTER.CONST>
1

>  <SCORE.INTER.POLAR>
0

>  <SCORE.INTER.ROT>
5

>  <SCORE.INTER.SOLV>
10.7699

>  <SCORE.INTER.VDW>
-15.4998

>  <SCORE.INTER.norm>
-0.339303

>  <SCORE.INTRA>
-1.20413

>  <SCORE.INTRA.DIHEDRAL>
-1.88699

>  <SCORE.INTRA.DIHEDRAL.0>
3.49807

>  <SCORE.INTRA.POLAR>
0

>  <SCORE.INTRA.POLAR.0>
0

>  <SCORE.INTRA.REPUL>
0

>  <SCORE.INTRA.REPUL.0>
0

>  <SCORE.INTRA.SOLV>
0.475658

>  <SCORE.INTRA.SOLV.lig_0>
-73.062

>  <SCORE.INTRA.VDW>
-0.498461

>  <SCORE.INTRA.VDW.0>
-1.83782

>  <SCORE.INTRA.norm>
-0.0547331

>  <SCORE.RESTR>
0

>  <SCORE.RESTR.CAVITY>
0

>  <SCORE.RESTR.norm>
0

>  <SCORE.SYSTEM>
0

>  <SCORE.SYSTEM.CONST>
0

>  <SCORE.SYSTEM.DIHEDRAL>
0

>  <SCORE.SYSTEM.SOLV>
0

>  <SCORE.SYSTEM.norm>
0

>  <SCORE.heavy>
22

>  <SCORE.norm>
-0.394036

>  <RMSD>
7.262

$$$$
ligand
 OpenBabel02271912143D
libRbt.so/2013.1/901 2013/11/27
 22 23  0  0  0  0  0  0  0  0999 V2000
  -30.3354    4.0571   -8.8118 N   0  0  0  0  0  0  0  0  0  0  0  0
  -33.5879    3.4415   -9.5153 C   0  0  1  0  0  0  0  0  0  0  0  0
  -32.4181    4.2669   -9.7802 O   0  0  0  0  0  0  0  0  0  0  0  0
  -35.1462    6.0540   -7.2561 P   0  0  1  0  0  0  0  0  0  0  0  0
  -31.2504    3.4416   -9.6407 C   0  0  2  0  0  0  0  0  0  0  0  0
  -29.4967    5.1703   -7.1479 N   0  0  0  0  0  0  0  0  0  0  0  0
  -30.8574    1.1308   -9.1915 O   0  0  0  0  0  0  0  0  0  0  0  0
  -31.7242    2.2384   -8.9204 C   0  0  2  0  0  0  0  0  0  0  0  0
  -26.6630    5.7156   -6.5440 N   0  0  0  0  0  0  0  0  0  0  0  0
  -33.0603    1.5197  -10.7494 O   0  0  0  0  0  0  0  0  0  0  0  0
  -33.0830    2.0546   -9.4154 C   0  0  2  0  0  0  0  0  0  0  0  0
  -28.4845    4.7384   -7.9157 C   0  0  0  0  0  0  0  0  0  0  0  0
  -28.2756    3.3917   -9.9909 N   0  0  0  0  0  0  0  0  0  0  0  0
  -34.5270    5.2320   -8.4391 O   0  0  0  0  0  0  0  0  0  0  0  0
  -34.1681    3.9059   -8.2239 C   0  0  0  0  0  0  0  0  0  0  0  0
  -35.4009    7.4671   -7.8955 O   0  0  0  0  0  0  0  0  0  0  0  0
  -30.6460    4.7506   -7.7104 C   0  0  0  0  0  0  0  0  0  0  0  0
  -26.2004    4.5663   -8.4547 O   0  0  0  0  0  0  0  0  0  0  0  0
  -27.0514    4.9849   -7.6702 C   0  0  0  0  0  0  0  0  0  0  0  0
  -29.0046    4.0340   -8.9639 C   0  0  0  0  0  0  0  0  0  0  0  0
  -36.3748    5.3688   -6.7572 O   0  5  0  0  0  0  0  0  0  0  0  0
  -34.2746    5.9982   -6.0688 O   0  0  0  0  0  0  0  0  0  0  0  0
  1 17  1  0  0  0  0
  1 20  1  0  0  0  0
  2 15  1  1  0  0  0
  2  3  1  0  0  0  0
  2 11  1  0  0  0  0
  3  5  1  0  0  0  0
  4 16  1  6  0  0  0
  4 21  1  0  0  0  0
  4 22  2  0  0  0  0
  4 14  1  0  0  0  0
  5  1  1  1  0  0  0
  5  8  1  0  0  0  0
  6 17  2  0  0  0  0
  6 12  1  0  0  0  0
  8  7  1  6  0  0  0
  8 11  1  0  0  0  0
  9 19  1  0  0  0  0
 11 10  1  6  0  0  0
 12 20  2  0  0  0  0
 12 19  1  0  0  0  0
 13 20  1  0  0  0  0
 14 15  1  0  0  0  0
 18 19  2  0  0  0  0
M  CHG  1  21  -1
M  END
>  <CHROM.1>
38.73404366,61.57033461,179.85595092,-178.43960244,0.72381816,-31.76876604
4.36190630,-8.34948388,0.18476594,0.02393132,-2.51826761

>  <Name>
ligand

>  <RI>
0

>  <Rbt.Current_Directory>
/home/itssahil/PROJECTS/Mol_Feturizer/Test_systems_manuscript/rnas/4xwf

>  <Rbt.Executable>
rbdock ($Id: //depot/dev/client3/rdock/2013.1/src/exe/rbdock.cxx#4 $)

>  <Rbt.Library>
libRbt.so (2013.1, Build901 2013/11/27)

>  <Rbt.Parameter_File>
/export/apps/rDock/src/rDock_2013.1_src/data/scripts/dock_solv.prm

>  <Rbt.Receptor>
prm/pocket_docking_8.prm

>  <SCORE>
-8.5163

>  <SCORE.INTER>
-7.39761

>  <SCORE.INTER.CONST>
1

>  <SCORE.INTER.POLAR>
0

>  <SCORE.INTER.ROT>
5

>  <SCORE.INTER.SOLV>
10.8091

>  <SCORE.INTER.VDW>
-15.4681

>  <SCORE.INTER.norm>
-0.336255

>  <SCORE.INTRA>
-1.11869

>  <SCORE.INTRA.DIHEDRAL>
-1.98781

>  <SCORE.INTRA.DIHEDRAL.0>
3.49807

>  <SCORE.INTRA.POLAR>
0

>  <SCORE.INTRA.POLAR.0>
0

>  <SCORE.INTRA.REPUL>
0

>  <SCORE.INTRA.REPUL.0>
0

>  <SCORE.INTRA.SOLV>
0.37396

>  <SCORE.INTRA.SOLV.lig_0>
-73.062

>  <SCORE.INTRA.VDW>
-0.311767

>  <SCORE.INTRA.VDW.0>
-1.83782

>  <SCORE.INTRA.norm>
-0.0508496

>  <SCORE.RESTR>
0

>  <SCORE.RESTR.CAVITY>
0

>  <SCORE.RESTR.norm>
0

>  <SCORE.SYSTEM>
0

>  <SCORE.SYSTEM.CONST>
0

>  <SCORE.SYSTEM.DIHEDRAL>
0

>  <SCORE.SYSTEM.SOLV>
0

>  <SCORE.SYSTEM.norm>
0

>  <SCORE.heavy>
22

>  <SCORE.norm>
-0.387105

>  <RMSD>
7.282

$$$$
ligand
 OpenBabel02271912143D
libRbt.so/2013.1/901 2013/11/27
 22 23  0  0  0  0  0  0  0  0999 V2000
  -30.3252    4.0596   -8.7661 N   0  0  0  0  0  0  0  0  0  0  0  0
  -33.5526    3.4386   -9.5730 C   0  0  1  0  0  0  0  0  0  0  0  0
  -32.3811    4.2756   -9.7892 O   0  0  0  0  0  0  0  0  0  0  0  0
  -35.1420    6.0142   -7.2945 P   0  0  1  0  0  0  0  0  0  0  0  0
  -31.2126    3.4546   -9.6321 C   0  0  2  0  0  0  0  0  0  0  0  0
  -29.5392    5.1317   -7.0504 N   0  0  0  0  0  0  0  0  0  0  0  0
  -30.8178    1.1380   -9.2153 O   0  0  0  0  0  0  0  0  0  0  0  0
  -31.6989    2.2353   -8.9482 C   0  0  2  0  0  0  0  0  0  0  0  0
  -26.2033    3.9413   -7.3584 N   0  0  0  0  0  0  0  0  0  0  0  0
  -32.9783    1.5436  -10.8275 O   0  0  0  0  0  0  0  0  0  0  0  0
  -33.0420    2.0530   -9.4848 C   0  0  2  0  0  0  0  0  0  0  0  0
  -28.5049    4.7470   -7.8139 C   0  0  0  0  0  0  0  0  0  0  0  0
  -28.2317    3.4768   -9.9294 N   0  0  0  0  0  0  0  0  0  0  0  0
  -34.5295    5.2041   -8.4892 O   0  0  0  0  0  0  0  0  0  0  0  0
  -34.1721    3.8751   -8.2901 C   0  0  0  0  0  0  0  0  0  0  0  0
  -35.3854    7.4382   -7.9137 O   0  0  0  0  0  0  0  0  0  0  0  0
  -30.6695    4.7085   -7.6477 C   0  0  0  0  0  0  0  0  0  0  0  0
  -26.6679    6.1691   -7.4396 O   0  0  0  0  0  0  0  0  0  0  0  0
  -27.0819    5.0138   -7.5339 C   0  0  0  0  0  0  0  0  0  0  0  0
  -28.9918    4.0686   -8.8947 C   0  0  0  0  0  0  0  0  0  0  0  0
  -36.3760    5.3318   -6.8052 O   0  5  0  0  0  0  0  0  0  0  0  0
  -34.2708    5.9345   -6.1082 O   0  0  0  0  0  0  0  0  0  0  0  0
  1 17  1  0  0  0  0
  1 20  1  0  0  0  0
  2 15  1  1  0  0  0
  2  3  1  0  0  0  0
  2 11  1  0  0  0  0
  3  5  1  0  0  0  0
  4 16  1  6  0  0  0
  4 21  1  0  0  0  0
  4 22  2  0  0  0  0
  4 14  1  0  0  0  0
  5  1  1  1  0  0  0
  5  8  1  0  0  0  0
  6 17  2  0  0  0  0
  6 12  1  0  0  0  0
  8  7  1  6  0  0  0
  8 11  1  0  0  0  0
  9 19  1  0  0  0  0
 11 10  1  6  0  0  0
 12 20  2  0  0  0  0
 12 19  1  0  0  0  0
 13 20  1  0  0  0  0
 14 15  1  0  0  0  0
 18 19  2  0  0  0  0
M  CHG  1  21  -1
M  END
>  <CHROM.1>
40.08024146,61.40018836,179.38195031,-176.42217644,119.30535525,-31.75949190
4.35692102,-8.33775987,0.16412973,0.03932888,-2.53098984

>  <Name>
ligand

>  <RI>
0

>  <Rbt.Current_Directory>
/home/itssahil/PROJECTS/Mol_Feturizer/Test_systems_manuscript/rnas/4xwf

>  <Rbt.Executable>
rbdock ($Id: //depot/dev/client3/rdock/2013.1/src/exe/rbdock.cxx#4 $)

>  <Rbt.Library>
libRbt.so (2013.1, Build901 2013/11/27)

>  <Rbt.Parameter_File>
/export/apps/rDock/src/rDock_2013.1_src/data/scripts/dock_solv.prm

>  <Rbt.Receptor>
prm/pocket_docking_8.prm

>  <SCORE>
-8.65177

>  <SCORE.INTER>
-7.42444

>  <SCORE.INTER.CONST>
1

>  <SCORE.INTER.POLAR>
0

>  <SCORE.INTER.ROT>
5

>  <SCORE.INTER.SOLV>
11.0493

>  <SCORE.INTER.VDW>
-15.5661

>  <SCORE.INTER.norm>
-0.337474

>  <SCORE.INTRA>
-1.22734

>  <SCORE.INTRA.DIHEDRAL>
-1.93663

>  <SCORE.INTRA.DIHEDRAL.0>
3.49807

>  <SCORE.INTRA.POLAR>
0

>  <SCORE.INTRA.POLAR.0>
0

>  <SCORE.INTRA.REPUL>
0

>  <SCORE.INTRA.REPUL.0>
0

>  <SCORE.INTRA.SOLV>
0.396545

>  <SCORE.INTRA.SOLV.lig_0>
-73.062

>  <SCORE.INTRA.VDW>
-0.457297

>  <SCORE.INTRA.VDW.0>
-1.83782

>  <SCORE.INTRA.norm>
-0.055788

>  <SCORE.RESTR>
0

>  <SCORE.RESTR.CAVITY>
0

>  <SCORE.RESTR.norm>
0

>  <SCORE.SYSTEM>
0

>  <SCORE.SYSTEM.CONST>
0

>  <SCORE.SYSTEM.DIHEDRAL>
0

>  <SCORE.SYSTEM.SOLV>
0

>  <SCORE.SYSTEM.norm>
0

>  <SCORE.heavy>
22

>  <SCORE.norm>
-0.393262

>  <RMSD>
7.301

$$$$
ligand
 OpenBabel02271912143D
libRbt.so/2013.1/901 2013/11/27
 22 23  0  0  0  0  0  0  0  0999 V2000
  -28.0758    1.8296  -14.8609 N   0  0  0  0  0  0  0  0  0  0  0  0
  -29.0933    0.3125  -12.0121 C   0  0  1  0  0  0  0  0  0  0  0  0
  -28.8216    0.1764  -13.4360 O   0  0  0  0  0  0  0  0  0  0  0  0
  -32.0979    1.5052  -10.0351 P   0  0  1  0  0  0  0  0  0  0  0  0
  -27.7372    1.0584  -13.7683 C   0  0  2  0  0  0  0  0  0  0  0  0
  -29.0743    3.3028  -16.1035 N   0  0  0  0  0  0  0  0  0  0  0  0
  -26.3173    2.5300  -12.5377 O   0  0  0  0  0  0  0  0  0  0  0  0
  -27.6391    1.9839  -12.6174 C   0  0  2  0  0  0  0  0  0  0  0  0
  -28.0049    2.1465  -19.2293 N   0  0  0  0  0  0  0  0  0  0  0  0
  -26.9175    0.2669  -11.1415 O   0  0  0  0  0  0  0  0  0  0  0  0
  -27.9997    1.1519  -11.4759 C   0  0  2  0  0  0  0  0  0  0  0  0
  -28.0881    2.7465  -16.8236 C   0  0  0  0  0  0  0  0  0  0  0  0
  -26.3438    1.0265  -16.4201 N   0  0  0  0  0  0  0  0  0  0  0  0
  -30.7545    0.8717  -10.5377 O   0  0  0  0  0  0  0  0  0  0  0  0
  -30.4149    0.9880  -11.8812 C   0  0  0  0  0  0  0  0  0  0  0  0
  -33.1759    0.8536  -10.9752 O   0  0  0  0  0  0  0  0  0  0  0  0
  -29.0682    2.7268  -14.8862 C   0  0  0  0  0  0  0  0  0  0  0  0
  -27.2302    4.1593  -18.4985 O   0  0  0  0  0  0  0  0  0  0  0  0
  -27.7488    3.0783  -18.2198 C   0  0  0  0  0  0  0  0  0  0  0  0
  -27.4528    1.8199  -16.0469 C   0  0  0  0  0  0  0  0  0  0  0  0
  -32.2808    1.2092   -8.5837 O   0  5  0  0  0  0  0  0  0  0  0  0
  -32.0108    2.9766  -10.0273 O   0  0  0  0  0  0  0  0  0  0  0  0
  1 17  1  0  0  0  0
  1 20  1  0  0  0  0
  2 15  1  6  0  0  0
  2  3  1  0  0  0  0
  2 11  1  0  0  0  0
  3  5  1  0  0  0  0
  4 16  1  6  0  0  0
  4 21  1  0  0  0  0
  4 22  2  0  0  0  0
  4 14  1  0  0  0  0
  5  1  1  6  0  0  0
  5  8  1  0  0  0  0
  6 17  2  0  0  0  0
  6 12  1  0  0  0  0
  8  7  1  1  0  0  0
  8 11  1  0  0  0  0
  9 19  1  0  0  0  0
 11 10  1  6  0  0  0
 12 20  2  0  0  0  0
 12 19  1  0  0  0  0
 13 20  1  0  0  0  0
 14 15  1  0  0  0  0
 18 19  2  0  0  0  0
M  CHG  1  21  -1
M  END
>  <CHROM.1>
63.93705679,169.00488970,55.15324944,178.96518947,-110.04330469,-29.15547633
1.72796382,-13.31948948,-1.04418557,-0.24217828,1.88899944

>  <Name>
ligand

>  <RI>
0

>  <Rbt.Current_Directory>
/home/itssahil/PROJECTS/Mol_Feturizer/Test_systems_manuscript/rnas/4xwf

>  <Rbt.Executable>
rbdock ($Id: //depot/dev/client3/rdock/2013.1/src/exe/rbdock.cxx#4 $)

>  <Rbt.Library>
libRbt.so (2013.1, Build901 2013/11/27)

>  <Rbt.Parameter_File>
/export/apps/rDock/src/rDock_2013.1_src/data/scripts/dock_solv.prm

>  <Rbt.Receptor>
prm/pocket_docking_8.prm

>  <SCORE>
-7.65395

>  <SCORE.INTER>
-6.74709

>  <SCORE.INTER.CONST>
1

>  <SCORE.INTER.POLAR>
0

>  <SCORE.INTER.ROT>
5

>  <SCORE.INTER.SOLV>
13.7509

>  <SCORE.INTER.VDW>
-16.015

>  <SCORE.INTER.norm>
-0.306686

>  <SCORE.INTRA>
-0.906855

>  <SCORE.INTRA.DIHEDRAL>
-1.38561

>  <SCORE.INTRA.DIHEDRAL.0>
3.49807

>  <SCORE.INTRA.POLAR>
0

>  <SCORE.INTRA.POLAR.0>
0

>  <SCORE.INTRA.REPUL>
0

>  <SCORE.INTRA.REPUL.0>
0

>  <SCORE.INTRA.SOLV>
-0.987552

>  <SCORE.INTRA.SOLV.lig_0>
-73.062

>  <SCORE.INTRA.VDW>
0.279727

>  <SCORE.INTRA.VDW.0>
-1.83782

>  <SCORE.INTRA.norm>
-0.0412207

>  <SCORE.RESTR>
0

>  <SCORE.RESTR.CAVITY>
0

>  <SCORE.RESTR.norm>
0

>  <SCORE.SYSTEM>
0

>  <SCORE.SYSTEM.CONST>
0

>  <SCORE.SYSTEM.DIHEDRAL>
0

>  <SCORE.SYSTEM.SOLV>
0

>  <SCORE.SYSTEM.norm>
0

>  <SCORE.heavy>
22

>  <SCORE.norm>
-0.347907

>  <RMSD>
7.311

$$$$
ligand
 OpenBabel02271912143D
libRbt.so/2013.1/901 2013/11/27
 22 23  0  0  0  0  0  0  0  0999 V2000
  -33.5825    4.6840   -8.6555 N   0  0  0  0  0  0  0  0  0  0  0  0
  -31.7615    1.9803   -9.5646 C   0  0  1  0  0  0  0  0  0  0  0  0
  -32.9232    2.8151   -9.8354 O   0  0  0  0  0  0  0  0  0  0  0  0
  -30.9392   -0.6152   -6.9360 P   0  0  1  0  0  0  0  0  0  0  0  0
  -32.5962    4.1652   -9.4686 C   0  0  2  0  0  0  0  0  0  0  0  0
  -35.3757    4.8303   -7.4413 N   0  0  0  0  0  0  0  0  0  0  0  0
  -30.6437    5.2699   -8.6542 O   0  0  0  0  0  0  0  0  0  0  0  0
  -31.3832    4.0434   -8.6292 C   0  0  2  0  0  0  0  0  0  0  0  0
  -35.1446    8.4459   -7.2278 N   0  0  0  0  0  0  0  0  0  0  0  0
  -30.0467    3.3095  -10.4520 O   0  0  0  0  0  0  0  0  0  0  0  0
  -30.6699    2.9165   -9.2177 C   0  0  2  0  0  0  0  0  0  0  0  0
  -34.7297    6.0047   -7.3777 C   0  0  0  0  0  0  0  0  0  0  0  0
  -32.6276    6.9314   -8.3191 N   0  0  0  0  0  0  0  0  0  0  0  0
  -30.9886    0.3107   -8.2005 O   0  0  0  0  0  0  0  0  0  0  0  0
  -32.1128    1.1006   -8.4145 C   0  0  0  0  0  0  0  0  0  0  0  0
  -32.0571   -1.6810   -7.2275 O   0  0  0  0  0  0  0  0  0  0  0  0
  -34.6637    4.0134   -8.2409 C   0  0  0  0  0  0  0  0  0  0  0  0
  -35.5415    7.0807   -5.4489 O   0  0  0  0  0  0  0  0  0  0  0  0
  -35.1692    7.1891   -6.6171 C   0  0  0  0  0  0  0  0  0  0  0  0
  -33.5979    5.9193   -8.1374 C   0  0  0  0  0  0  0  0  0  0  0  0
  -29.5671   -1.1823   -6.7819 O   0  5  0  0  0  0  0  0  0  0  0  0
  -31.0703    0.1792   -5.7014 O   0  0  0  0  0  0  0  0  0  0  0  0
  1 17  1  0  0  0  0
  1 20  1  0  0  0  0
  2 15  1  1  0  0  0
  2  3  1  0  0  0  0
  2 11  1  0  0  0  0
  3  5  1  0  0  0  0
  4 16  1  6  0  0  0
  4 21  1  0  0  0  0
  4 22  2  0  0  0  0
  4 14  1  0  0  0  0
  5  1  1  1  0  0  0
  5  8  1  0  0  0  0
  6 17  2  0  0  0  0
  6 12  1  0  0  0  0
  8  7  1  6  0  0  0
  8 11  1  0  0  0  0
  9 19  1  0  0  0  0
 11 10  1  6  0  0  0
 12 20  2  0  0  0  0
 12 19  1  0  0  0  0
 13 20  1  0  0  0  0
 14 15  1  0  0  0  0
 18 19  2  0  0  0  0
M  CHG  1  21  -1
M  END
>  <CHROM.1>
1.74048502,179.22319444,67.25588066,172.23412927,-133.62962752,-32.43071498
3.19327012,-7.95348489,-2.26109070,-0.76159347,2.62944950

>  <Name>
ligand

>  <RI>
0

>  <Rbt.Current_Directory>
/home/itssahil/PROJECTS/Mol_Feturizer/Test_systems_manuscript/rnas/4xwf

>  <Rbt.Executable>
rbdock ($Id: //depot/dev/client3/rdock/2013.1/src/exe/rbdock.cxx#4 $)

>  <Rbt.Library>
libRbt.so (2013.1, Build901 2013/11/27)

>  <Rbt.Parameter_File>
/export/apps/rDock/src/rDock_2013.1_src/data/scripts/dock_solv.prm

>  <Rbt.Receptor>
prm/pocket_docking_7.prm

>  <SCORE>
-6.50872

>  <SCORE.INTER>
-6.99886

>  <SCORE.INTER.CONST>
1

>  <SCORE.INTER.POLAR>
0

>  <SCORE.INTER.ROT>
5

>  <SCORE.INTER.SOLV>
13.8969

>  <SCORE.INTER.VDW>
-16.2315

>  <SCORE.INTER.norm>
-0.31813

>  <SCORE.INTRA>
0.490135

>  <SCORE.INTRA.DIHEDRAL>
-1.43878

>  <SCORE.INTRA.DIHEDRAL.0>
3.49807

>  <SCORE.INTRA.POLAR>
0

>  <SCORE.INTRA.POLAR.0>
0

>  <SCORE.INTRA.REPUL>
0

>  <SCORE.INTRA.REPUL.0>
0

>  <SCORE.INTRA.SOLV>
1.53773

>  <SCORE.INTRA.SOLV.lig_0>
-73.062

>  <SCORE.INTRA.VDW>
0.44066

>  <SCORE.INTRA.VDW.0>
-1.83782

>  <SCORE.INTRA.norm>
0.0222788

>  <SCORE.RESTR>
0

>  <SCORE.RESTR.CAVITY>
0

>  <SCORE.RESTR.norm>
0

>  <SCORE.SYSTEM>
0

>  <SCORE.SYSTEM.CONST>
0

>  <SCORE.SYSTEM.DIHEDRAL>
0

>  <SCORE.SYSTEM.SOLV>
0

>  <SCORE.SYSTEM.norm>
0

>  <SCORE.heavy>
22

>  <SCORE.norm>
-0.295851

>  <RMSD>
7.320

$$$$
ligand
 OpenBabel02271912143D
libRbt.so/2013.1/901 2013/11/27
 22 23  0  0  0  0  0  0  0  0999 V2000
  -34.1934    2.3394   -6.8896 N   0  0  0  0  0  0  0  0  0  0  0  0
  -32.7219    3.4287   -9.7357 C   0  0  1  0  0  0  0  0  0  0  0  0
  -33.9642    3.0764   -9.0630 O   0  0  0  0  0  0  0  0  0  0  0  0
  -29.9153    1.4199  -11.2998 P   0  0  1  0  0  0  0  0  0  0  0  0
  -33.8289    3.4147   -7.6732 C   0  0  2  0  0  0  0  0  0  0  0  0
  -34.4339    0.3003   -6.1857 N   0  0  0  0  0  0  0  0  0  0  0  0
  -32.1423    4.4545   -6.3428 O   0  0  0  0  0  0  0  0  0  0  0  0
  -32.3749    3.6048   -7.4723 C   0  0  2  0  0  0  0  0  0  0  0  0
  -36.9124    1.0157   -3.7519 N   0  0  0  0  0  0  0  0  0  0  0  0
  -32.3178    5.5533   -8.8315 O   0  0  0  0  0  0  0  0  0  0  0  0
  -31.9249    4.1738   -8.7367 C   0  0  2  0  0  0  0  0  0  0  0  0
  -34.9460    1.1261   -5.2602 C   0  0  0  0  0  0  0  0  0  0  0  0
  -35.1814    3.5844   -5.0055 N   0  0  0  0  0  0  0  0  0  0  0  0
  -30.8806    2.5319  -10.7611 O   0  0  0  0  0  0  0  0  0  0  0  0
  -32.0570    2.1530  -10.1236 C   0  0  0  0  0  0  0  0  0  0  0  0
  -30.7521    0.7417  -12.4444 O   0  0  0  0  0  0  0  0  0  0  0  0
  -33.9725    1.0566   -7.1999 C   0  0  0  0  0  0  0  0  0  0  0  0
  -34.9114    0.1226   -3.1321 O   0  0  0  0  0  0  0  0  0  0  0  0
  -35.5685    0.7142   -3.9885 C   0  0  0  0  0  0  0  0  0  0  0  0
  -34.7955    2.4121   -5.6950 C   0  0  0  0  0  0  0  0  0  0  0  0
  -28.6358    2.0415  -11.7522 O   0  5  0  0  0  0  0  0  0  0  0  0
  -29.4503    0.5546  -10.2009 O   0  0  0  0  0  0  0  0  0  0  0  0
  1 17  1  0  0  0  0
  1 20  1  0  0  0  0
  2 15  1  1  0  0  0
  2  3  1  0  0  0  0
  2 11  1  0  0  0  0
  3  5  1  0  0  0  0
  4 16  1  6  0  0  0
  4 21  1  0  0  0  0
  4 22  2  0  0  0  0
  4 14  1  0  0  0  0
  5  1  1  1  0  0  0
  5  8  1  0  0  0  0
  6 17  2  0  0  0  0
  6 12  1  0  0  0  0
  8  7  1  1  0  0  0
  8 11  1  0  0  0  0
  9 19  1  0  0  0  0
 11 10  1  1  0  0  0
 12 20  2  0  0  0  0
 12 19  1  0  0  0  0
 13 20  1  0  0  0  0
 14 15  1  0  0  0  0
 18 19  2  0  0  0  0
M  CHG  1  21  -1
M  END
>  <CHROM.1>
35.28203513,179.94795308,66.09793766,179.60365787,-117.77227934,-32.72888387
2.23285871,-8.08722373,3.02474915,-0.90382198,3.04952995

>  <Name>
ligand

>  <RI>
0

>  <Rbt.Current_Directory>
/home/itssahil/PROJECTS/Mol_Feturizer/Test_systems_manuscript/rnas/4xwf

>  <Rbt.Executable>
rbdock ($Id: //depot/dev/client3/rdock/2013.1/src/exe/rbdock.cxx#4 $)

>  <Rbt.Library>
libRbt.so (2013.1, Build901 2013/11/27)

>  <Rbt.Parameter_File>
/export/apps/rDock/src/rDock_2013.1_src/data/scripts/dock_solv.prm

>  <Rbt.Receptor>
prm/pocket_docking_8.prm

>  <SCORE>
-6.98549

>  <SCORE.INTER>
-5.79756

>  <SCORE.INTER.CONST>
1

>  <SCORE.INTER.POLAR>
0

>  <SCORE.INTER.ROT>
5

>  <SCORE.INTER.SOLV>
9.85026

>  <SCORE.INTER.VDW>
-14.0818

>  <SCORE.INTER.norm>
-0.263525

>  <SCORE.INTRA>
-1.18793

>  <SCORE.INTRA.DIHEDRAL>
-1.97166

>  <SCORE.INTRA.DIHEDRAL.0>
3.49807

>  <SCORE.INTRA.POLAR>
0

>  <SCORE.INTRA.POLAR.0>
0

>  <SCORE.INTRA.REPUL>
0

>  <SCORE.INTRA.REPUL.0>
0

>  <SCORE.INTRA.SOLV>
-0.00546433

>  <SCORE.INTRA.SOLV.lig_0>
-73.062

>  <SCORE.INTRA.VDW>
-0.199371

>  <SCORE.INTRA.VDW.0>
-1.83782

>  <SCORE.INTRA.norm>
-0.0539969

>  <SCORE.RESTR>
0

>  <SCORE.RESTR.CAVITY>
0

>  <SCORE.RESTR.norm>
0

>  <SCORE.SYSTEM>
0

>  <SCORE.SYSTEM.CONST>
0

>  <SCORE.SYSTEM.DIHEDRAL>
0

>  <SCORE.SYSTEM.SOLV>
0

>  <SCORE.SYSTEM.norm>
0

>  <SCORE.heavy>
22

>  <SCORE.norm>
-0.317522

>  <RMSD>
7.341

$$$$
ligand
 OpenBabel02271912143D
libRbt.so/2013.1/901 2013/11/27
 22 23  0  0  0  0  0  0  0  0999 V2000
  -31.2698    5.7776   -8.3784 N   0  0  0  0  0  0  0  0  0  0  0  0
  -32.6747    2.7132   -8.6753 C   0  0  1  0  0  0  0  0  0  0  0  0
  -31.6771    3.5377   -8.0084 O   0  0  0  0  0  0  0  0  0  0  0  0
  -30.1941    1.0083  -10.9731 P   0  0  1  0  0  0  0  0  0  0  0  0
  -32.1986    4.8727   -7.9076 C   0  0  2  0  0  0  0  0  0  0  0  0
  -29.5875    6.6152   -9.4643 N   0  0  0  0  0  0  0  0  0  0  0  0
  -34.2609    5.9295   -8.4785 O   0  0  0  0  0  0  0  0  0  0  0  0
  -33.3335    4.9057   -8.8572 C   0  0  2  0  0  0  0  0  0  0  0  0
  -29.3636    9.6218   -7.6054 N   0  0  0  0  0  0  0  0  0  0  0  0
  -34.6225    3.3885   -7.5596 O   0  0  0  0  0  0  0  0  0  0  0  0
  -33.8843    3.5582   -8.7814 C   0  0  2  0  0  0  0  0  0  0  0  0
  -30.1923    7.6097   -8.7966 C   0  0  0  0  0  0  0  0  0  0  0  0
  -32.1662    7.8068   -7.3039 N   0  0  0  0  0  0  0  0  0  0  0  0
  -31.0880    1.4801   -9.7743 O   0  0  0  0  0  0  0  0  0  0  0  0
  -32.1303    2.3676  -10.0185 C   0  0  0  0  0  0  0  0  0  0  0  0
  -29.4740   -0.2675  -10.4036 O   0  0  0  0  0  0  0  0  0  0  0  0
  -30.2555    5.4767   -9.1977 C   0  0  0  0  0  0  0  0  0  0  0  0
  -29.8095    9.6851   -9.8376 O   0  0  0  0  0  0  0  0  0  0  0  0
  -29.7782    9.0251   -8.7991 C   0  0  0  0  0  0  0  0  0  0  0  0
  -31.2544    7.0906   -8.1128 C   0  0  0  0  0  0  0  0  0  0  0  0
  -31.0505    0.7549  -12.1690 O   0  5  0  0  0  0  0  0  0  0  0  0
  -29.3381    2.1089  -11.4512 O   0  0  0  0  0  0  0  0  0  0  0  0
  1 17  1  0  0  0  0
  1 20  1  0  0  0  0
  2 15  1  6  0  0  0
  2  3  1  0  0  0  0
  2 11  1  0  0  0  0
  3  5  1  0  0  0  0
  4 16  1  1  0  0  0
  4 21  1  0  0  0  0
  4 22  2  0  0  0  0
  4 14  1  0  0  0  0
  5  1  1  6  0  0  0
  5  8  1  0  0  0  0
  6 17  2  0  0  0  0
  6 12  1  0  0  0  0
  8  7  1  1  0  0  0
  8 11  1  0  0  0  0
  9 19  1  0  0  0  0
 11 10  1  1  0  0  0
 12 20  2  0  0  0  0
 12 19  1  0  0  0  0
 13 20  1  0  0  0  0
 14 15  1  0  0  0  0
 18 19  2  0  0  0  0
M  CHG  1  21  -1
M  END
>  <CHROM.1>
20.55670020,70.34901875,-163.02728719,-174.33620055,-116.97797589,-31.29318971
4.45914334,-9.25682215,1.56132265,0.47151374,0.30285090

>  <Name>
ligand

>  <RI>
0

>  <Rbt.Current_Directory>
/home/itssahil/PROJECTS/Mol_Feturizer/Test_systems_manuscript/rnas/4xwf

>  <Rbt.Executable>
rbdock ($Id: //depot/dev/client3/rdock/2013.1/src/exe/rbdock.cxx#4 $)

>  <Rbt.Library>
libRbt.so (2013.1, Build901 2013/11/27)

>  <Rbt.Parameter_File>
/export/apps/rDock/src/rDock_2013.1_src/data/scripts/dock_solv.prm

>  <Rbt.Receptor>
prm/pocket_docking_7.prm

>  <SCORE>
-6.54862

>  <SCORE.INTER>
-6.19122

>  <SCORE.INTER.CONST>
1

>  <SCORE.INTER.POLAR>
0

>  <SCORE.INTER.ROT>
5

>  <SCORE.INTER.SOLV>
15.6482

>  <SCORE.INTER.VDW>
-16.2769

>  <SCORE.INTER.norm>
-0.281419

>  <SCORE.INTRA>
-0.357405

>  <SCORE.INTRA.DIHEDRAL>
-1.08031

>  <SCORE.INTRA.DIHEDRAL.0>
3.49807

>  <SCORE.INTRA.POLAR>
0

>  <SCORE.INTRA.POLAR.0>
0

>  <SCORE.INTRA.REPUL>
0

>  <SCORE.INTRA.REPUL.0>
0

>  <SCORE.INTRA.SOLV>
1.08514

>  <SCORE.INTRA.SOLV.lig_0>
-73.062

>  <SCORE.INTRA.VDW>
-0.35982

>  <SCORE.INTRA.VDW.0>
-1.83782

>  <SCORE.INTRA.norm>
-0.0162457

>  <SCORE.RESTR>
0

>  <SCORE.RESTR.CAVITY>
0

>  <SCORE.RESTR.norm>
0

>  <SCORE.SYSTEM>
0

>  <SCORE.SYSTEM.CONST>
0

>  <SCORE.SYSTEM.DIHEDRAL>
0

>  <SCORE.SYSTEM.SOLV>
0

>  <SCORE.SYSTEM.norm>
0

>  <SCORE.heavy>
22

>  <SCORE.norm>
-0.297665

>  <RMSD>
7.344

$$$$
ligand
 OpenBabel02271912143D
libRbt.so/2013.1/901 2013/11/27
 22 23  0  0  0  0  0  0  0  0999 V2000
  -30.4435    4.2683   -8.7823 N   0  0  0  0  0  0  0  0  0  0  0  0
  -33.6855    3.5417   -9.4257 C   0  0  1  0  0  0  0  0  0  0  0  0
  -32.5424    4.3905   -9.7306 O   0  0  0  0  0  0  0  0  0  0  0  0
  -35.2704    6.1856   -7.2220 P   0  0  1  0  0  0  0  0  0  0  0  0
  -31.3505    3.6023   -9.5804 C   0  0  2  0  0  0  0  0  0  0  0  0
  -29.6216    5.4906   -7.1881 N   0  0  0  0  0  0  0  0  0  0  0  0
  -30.8879    1.3183   -9.0653 O   0  0  0  0  0  0  0  0  0  0  0  0
  -31.7821    2.4096   -8.8176 C   0  0  2  0  0  0  0  0  0  0  0  0
  -26.7916    6.0247   -6.5557 N   0  0  0  0  0  0  0  0  0  0  0  0
  -33.1189    1.5978  -10.6067 O   0  0  0  0  0  0  0  0  0  0  0  0
  -33.1409    2.1731   -9.2896 C   0  0  2  0  0  0  0  0  0  0  0  0
  -28.6012    4.9977   -7.9066 C   0  0  0  0  0  0  0  0  0  0  0  0
  -28.3711    3.5053   -9.8772 N   0  0  0  0  0  0  0  0  0  0  0  0
  -34.6013    5.3587   -8.3741 O   0  0  0  0  0  0  0  0  0  0  0  0
  -34.2634    4.0299   -8.1421 C   0  0  0  0  0  0  0  0  0  0  0  0
  -36.6619    5.4792   -7.0345 O   0  0  0  0  0  0  0  0  0  0  0  0
  -30.7655    5.0407   -7.7382 C   0  0  0  0  0  0  0  0  0  0  0  0
  -26.3119    4.7980   -8.4133 O   0  0  0  0  0  0  0  0  0  0  0  0
  -27.1701    5.2502   -7.6556 C   0  0  0  0  0  0  0  0  0  0  0  0
  -29.1107    4.2244   -8.9105 C   0  0  0  0  0  0  0  0  0  0  0  0
  -34.3953    6.1620   -6.0131 O   0  5  0  0  0  0  0  0  0  0  0  0
  -35.2823    7.6227   -7.5495 O   0  0  0  0  0  0  0  0  0  0  0  0
  1 17  1  0  0  0  0
  1 20  1  0  0  0  0
  2 15  1  1  0  0  0
  2  3  1  0  0  0  0
  2 11  1  0  0  0  0
  3  5  1  0  0  0  0
  4 16  1  1  0  0  0
  4 21  1  0  0  0  0
  4 22  2  0  0  0  0
  4 14  1  0  0  0  0
  5  1  1  1  0  0  0
  5  8  1  0  0  0  0
  6 17  2  0  0  0  0
  6 12  1  0  0  0  0
  8  7  1  6  0  0  0
  8 11  1  0  0  0  0
  9 19  1  0  0  0  0
 11 10  1  6  0  0  0
 12 20  2  0  0  0  0
 12 19  1  0  0  0  0
 13 20  1  0  0  0  0
 14 15  1  0  0  0  0
 18 19  2  0  0  0  0
M  CHG  1  21  -1
M  END
>  <CHROM.1>
35.25018398,58.72471713,-66.09359117,178.89538025,2.53616413,-31.86668430
4.53585632,-8.29543436,0.17207525,0.00765986,-2.54635804

>  <Name>
ligand

>  <RI>
0

>  <Rbt.Current_Directory>
/home/itssahil/PROJECTS/Mol_Feturizer/Test_systems_manuscript/rnas/4xwf

>  <Rbt.Executable>
rbdock ($Id: //depot/dev/client3/rdock/2013.1/src/exe/rbdock.cxx#4 $)

>  <Rbt.Library>
libRbt.so (2013.1, Build901 2013/11/27)

>  <Rbt.Parameter_File>
/export/apps/rDock/src/rDock_2013.1_src/data/scripts/dock_solv.prm

>  <Rbt.Receptor>
prm/pocket_docking_6.prm

>  <SCORE>
-8.20771

>  <SCORE.INTER>
-6.89433

>  <SCORE.INTER.CONST>
1

>  <SCORE.INTER.POLAR>
0

>  <SCORE.INTER.ROT>
5

>  <SCORE.INTER.SOLV>
12.6967

>  <SCORE.INTER.VDW>
-15.7618

>  <SCORE.INTER.norm>
-0.313379

>  <SCORE.INTRA>
-1.31338

>  <SCORE.INTRA.DIHEDRAL>
-1.91228

>  <SCORE.INTRA.DIHEDRAL.0>
3.49807

>  <SCORE.INTRA.POLAR>
0

>  <SCORE.INTRA.POLAR.0>
0

>  <SCORE.INTRA.REPUL>
0

>  <SCORE.INTRA.REPUL.0>
0

>  <SCORE.INTRA.SOLV>
-0.117591

>  <SCORE.INTRA.SOLV.lig_0>
-73.062

>  <SCORE.INTRA.VDW>
-0.298445

>  <SCORE.INTRA.VDW.0>
-1.83782

>  <SCORE.INTRA.norm>
-0.0596991

>  <SCORE.RESTR>
0

>  <SCORE.RESTR.CAVITY>
0

>  <SCORE.RESTR.norm>
0

>  <SCORE.SYSTEM>
0

>  <SCORE.SYSTEM.CONST>
0

>  <SCORE.SYSTEM.DIHEDRAL>
0

>  <SCORE.SYSTEM.SOLV>
0

>  <SCORE.SYSTEM.norm>
0

>  <SCORE.heavy>
22

>  <SCORE.norm>
-0.373078

>  <RMSD>
7.356

$$$$
ligand
 OpenBabel02271912143D
libRbt.so/2013.1/901 2013/11/27
 22 23  0  0  0  0  0  0  0  0999 V2000
  -30.5763    3.3995   -9.9584 N   0  0  0  0  0  0  0  0  0  0  0  0
  -33.8223    3.2129   -9.0197 C   0  0  1  0  0  0  0  0  0  0  0  0
  -32.8679    3.1931  -10.1191 O   0  0  0  0  0  0  0  0  0  0  0  0
  -35.4262    5.9548   -6.9649 P   0  0  1  0  0  0  0  0  0  0  0  0
  -31.6517    2.5955   -9.6416 C   0  0  2  0  0  0  0  0  0  0  0  0
  -29.2267    5.0988  -10.0035 N   0  0  0  0  0  0  0  0  0  0  0  0
  -30.9478    1.6048   -7.5875 O   0  0  0  0  0  0  0  0  0  0  0  0
  -31.7735    2.6220   -8.1667 C   0  0  2  0  0  0  0  0  0  0  0  0
  -26.6302    5.3457  -11.3792 N   0  0  0  0  0  0  0  0  0  0  0  0
  -33.5535    1.0476   -8.1632 O   0  0  0  0  0  0  0  0  0  0  0  0
  -33.1990    2.4220   -7.9361 C   0  0  2  0  0  0  0  0  0  0  0  0
  -28.6983    4.1239  -10.7591 C   0  0  0  0  0  0  0  0  0  0  0  0
  -29.3428    1.8083  -11.3806 N   0  0  0  0  0  0  0  0  0  0  0  0
  -35.0836    4.6397   -7.7471 O   0  0  0  0  0  0  0  0  0  0  0  0
  -34.0027    4.6374   -8.6220 C   0  0  0  0  0  0  0  0  0  0  0  0
  -34.2694    6.0541   -5.9055 O   0  0  0  0  0  0  0  0  0  0  0  0
  -30.3968    4.6481   -9.5121 C   0  0  0  0  0  0  0  0  0  0  0  0
  -27.0610    3.2736  -12.2198 O   0  0  0  0  0  0  0  0  0  0  0  0
  -27.4229    4.2006  -11.4954 C   0  0  0  0  0  0  0  0  0  0  0  0
  -29.5409    3.0494  -10.7331 C   0  0  0  0  0  0  0  0  0  0  0  0
  -35.4950    7.1021   -7.9171 O   0  5  0  0  0  0  0  0  0  0  0  0
  -36.8078    5.9131   -6.4530 O   0  0  0  0  0  0  0  0  0  0  0  0
  1 17  1  0  0  0  0
  1 20  1  0  0  0  0
  2 15  1  1  0  0  0
  2  3  1  0  0  0  0
  2 11  1  0  0  0  0
  3  5  1  0  0  0  0
  4 16  1  1  0  0  0
  4 21  1  0  0  0  0
  4 22  2  0  0  0  0
  4 14  1  0  0  0  0
  5  1  1  1  0  0  0
  5  8  1  0  0  0  0
  6 17  2  0  0  0  0
  6 12  1  0  0  0  0
  8  7  1  1  0  0  0
  8 11  1  0  0  0  0
  9 19  1  0  0  0  0
 11 10  1  6  0  0  0
 12 20  2  0  0  0  0
 12 19  1  0  0  0  0
 13 20  1  0  0  0  0
 14 15  1  0  0  0  0
 18 19  2  0  0  0  0
M  CHG  1  21  -1
M  END
>  <CHROM.1>
62.27529866,169.68016834,-72.30977415,171.19610854,3.12048691,-32.03888756
4.03377277,-8.98051057,0.22854171,-0.50820340,-3.12702685

>  <Name>
ligand

>  <RI>
0

>  <Rbt.Current_Directory>
/home/itssahil/PROJECTS/Mol_Feturizer/Test_systems_manuscript/rnas/4xwf

>  <Rbt.Executable>
rbdock ($Id: //depot/dev/client3/rdock/2013.1/src/exe/rbdock.cxx#4 $)

>  <Rbt.Library>
libRbt.so (2013.1, Build901 2013/11/27)

>  <Rbt.Parameter_File>
/export/apps/rDock/src/rDock_2013.1_src/data/scripts/dock_solv.prm

>  <Rbt.Receptor>
prm/pocket_docking_8.prm

>  <SCORE>
-7.03044

>  <SCORE.INTER>
-6.43082

>  <SCORE.INTER.CONST>
1

>  <SCORE.INTER.POLAR>
0

>  <SCORE.INTER.ROT>
5

>  <SCORE.INTER.SOLV>
18.0598

>  <SCORE.INTER.VDW>
-17.2405

>  <SCORE.INTER.norm>
-0.29231

>  <SCORE.INTRA>
-0.599618

>  <SCORE.INTRA.DIHEDRAL>
-0.946502

>  <SCORE.INTRA.DIHEDRAL.0>
3.49807

>  <SCORE.INTRA.POLAR>
0

>  <SCORE.INTRA.POLAR.0>
0

>  <SCORE.INTRA.REPUL>
0

>  <SCORE.INTRA.REPUL.0>
0

>  <SCORE.INTRA.SOLV>
-0.826101

>  <SCORE.INTRA.SOLV.lig_0>
-73.062

>  <SCORE.INTRA.VDW>
0.286683

>  <SCORE.INTRA.VDW.0>
-1.83782

>  <SCORE.INTRA.norm>
-0.0272554

>  <SCORE.RESTR>
0

>  <SCORE.RESTR.CAVITY>
0

>  <SCORE.RESTR.norm>
0

>  <SCORE.SYSTEM>
0

>  <SCORE.SYSTEM.CONST>
0

>  <SCORE.SYSTEM.DIHEDRAL>
0

>  <SCORE.SYSTEM.SOLV>
0

>  <SCORE.SYSTEM.norm>
0

>  <SCORE.heavy>
22

>  <SCORE.norm>
-0.319566

>  <RMSD>
7.365

$$$$
ligand
 OpenBabel02271912143D
libRbt.so/2013.1/901 2013/11/27
 22 23  0  0  0  0  0  0  0  0999 V2000
  -30.5435    3.3525   -9.9675 N   0  0  0  0  0  0  0  0  0  0  0  0
  -33.7975    3.2037   -9.0499 C   0  0  1  0  0  0  0  0  0  0  0  0
  -32.8354    3.1616  -10.1419 O   0  0  0  0  0  0  0  0  0  0  0  0
  -35.3251    5.9793   -6.9808 P   0  0  1  0  0  0  0  0  0  0  0  0
  -31.6274    2.5612   -9.6476 C   0  0  2  0  0  0  0  0  0  0  0  0
  -29.1990    5.0542  -10.0552 N   0  0  0  0  0  0  0  0  0  0  0  0
  -30.9460    1.5931   -7.5753 O   0  0  0  0  0  0  0  0  0  0  0  0
  -31.7595    2.6086   -8.1741 C   0  0  2  0  0  0  0  0  0  0  0  0
  -26.3240    3.2037  -11.0394 N   0  0  0  0  0  0  0  0  0  0  0  0
  -33.5518    1.0482   -8.1622 O   0  0  0  0  0  0  0  0  0  0  0  0
  -33.1881    2.4228   -7.9512 C   0  0  2  0  0  0  0  0  0  0  0  0
  -28.6389    4.0422  -10.7354 C   0  0  0  0  0  0  0  0  0  0  0  0
  -29.2515    1.6925  -11.2524 N   0  0  0  0  0  0  0  0  0  0  0  0
  -35.0029    4.6470   -7.7423 O   0  0  0  0  0  0  0  0  0  0  0  0
  -33.9696    4.6348   -8.6728 C   0  0  0  0  0  0  0  0  0  0  0  0
  -35.5393    7.0147   -8.1438 O   0  0  0  0  0  0  0  0  0  0  0  0
  -30.3853    4.6247   -9.5842 C   0  0  0  0  0  0  0  0  0  0  0  0
  -27.1323    4.8991  -12.3270 O   0  0  0  0  0  0  0  0  0  0  0  0
  -27.3368    4.0854  -11.4263 C   0  0  0  0  0  0  0  0  0  0  0  0
  -29.4783    2.9661  -10.6821 C   0  0  0  0  0  0  0  0  0  0  0  0
  -36.5144    5.7802   -6.1012 O   0  5  0  0  0  0  0  0  0  0  0  0
  -34.2748    6.2831   -5.9923 O   0  0  0  0  0  0  0  0  0  0  0  0
  1 17  1  0  0  0  0
  1 20  1  0  0  0  0
  2 15  1  1  0  0  0
  2  3  1  0  0  0  0
  2 11  1  0  0  0  0
  3  5  1  0  0  0  0
  4 16  1  6  0  0  0
  4 21  1  0  0  0  0
  4 22  2  0  0  0  0
  4 14  1  0  0  0  0
  5  1  1  1  0  0  0
  5  8  1  0  0  0  0
  6 17  2  0  0  0  0
  6 12  1  0  0  0  0
  8  7  1  1  0  0  0
  8 11  1  0  0  0  0
  9 19  1  0  0  0  0
 11 10  1  6  0  0  0
 12 20  2  0  0  0  0
 12 19  1  0  0  0  0
 13 20  1  0  0  0  0
 14 15  1  0  0  0  0
 18 19  2  0  0  0  0
M  CHG  1  21  -1
M  END
>  <CHROM.1>
59.23991852,173.26356757,54.13003345,171.79527079,119.75737611,-31.98347498
4.00040172,-8.97014633,0.21285447,-0.51374691,3.09952955

>  <Name>
ligand

>  <RI>
0

>  <Rbt.Current_Directory>
/home/itssahil/PROJECTS/Mol_Feturizer/Test_systems_manuscript/rnas/4xwf

>  <Rbt.Executable>
rbdock ($Id: //depot/dev/client3/rdock/2013.1/src/exe/rbdock.cxx#4 $)

>  <Rbt.Library>
libRbt.so (2013.1, Build901 2013/11/27)

>  <Rbt.Parameter_File>
/export/apps/rDock/src/rDock_2013.1_src/data/scripts/dock_solv.prm

>  <Rbt.Receptor>
prm/pocket_docking_7.prm

>  <SCORE>
-9.90938

>  <SCORE.INTER>
-9.00975

>  <SCORE.INTER.CONST>
1

>  <SCORE.INTER.POLAR>
0

>  <SCORE.INTER.ROT>
5

>  <SCORE.INTER.SOLV>
10.3552

>  <SCORE.INTER.VDW>
-16.3916

>  <SCORE.INTER.norm>
-0.409534

>  <SCORE.INTRA>
-0.899624

>  <SCORE.INTRA.DIHEDRAL>
-1.4238

>  <SCORE.INTRA.DIHEDRAL.0>
3.49807

>  <SCORE.INTRA.POLAR>
0

>  <SCORE.INTRA.POLAR.0>
0

>  <SCORE.INTRA.REPUL>
0

>  <SCORE.INTRA.REPUL.0>
0

>  <SCORE.INTRA.SOLV>
-0.683262

>  <SCORE.INTRA.SOLV.lig_0>
-73.062

>  <SCORE.INTRA.VDW>
0.153907

>  <SCORE.INTRA.VDW.0>
-1.83782

>  <SCORE.INTRA.norm>
-0.040892

>  <SCORE.RESTR>
0

>  <SCORE.RESTR.CAVITY>
0

>  <SCORE.RESTR.norm>
0

>  <SCORE.SYSTEM>
0

>  <SCORE.SYSTEM.CONST>
0

>  <SCORE.SYSTEM.DIHEDRAL>
0

>  <SCORE.SYSTEM.SOLV>
0

>  <SCORE.SYSTEM.norm>
0

>  <SCORE.heavy>
22

>  <SCORE.norm>
-0.450426

>  <RMSD>
7.369

$$$$
ligand
 OpenBabel02271912143D
libRbt.so/2013.1/901 2013/11/27
 22 23  0  0  0  0  0  0  0  0999 V2000
  -30.5621    3.3637   -9.9958 N   0  0  0  0  0  0  0  0  0  0  0  0
  -33.8084    3.2197   -9.0504 C   0  0  1  0  0  0  0  0  0  0  0  0
  -32.8560    3.1796  -10.1510 O   0  0  0  0  0  0  0  0  0  0  0  0
  -35.3642    5.9934   -7.0023 P   0  0  1  0  0  0  0  0  0  0  0  0
  -31.6452    2.5740   -9.6696 C   0  0  2  0  0  0  0  0  0  0  0  0
  -29.1953    5.0486  -10.0595 N   0  0  0  0  0  0  0  0  0  0  0  0
  -30.9484    1.5957   -7.6073 O   0  0  0  0  0  0  0  0  0  0  0  0
  -31.7644    2.6158   -8.1949 C   0  0  2  0  0  0  0  0  0  0  0  0
  -26.3767    3.2280  -11.2130 N   0  0  0  0  0  0  0  0  0  0  0  0
  -33.5606    1.0600   -8.1736 O   0  0  0  0  0  0  0  0  0  0  0  0
  -33.1915    2.4328   -7.9602 C   0  0  2  0  0  0  0  0  0  0  0  0
  -28.6778    4.0609  -10.8058 C   0  0  0  0  0  0  0  0  0  0  0  0
  -29.3468    1.7459  -11.4034 N   0  0  0  0  0  0  0  0  0  0  0  0
  -35.0455    4.6700   -7.7807 O   0  0  0  0  0  0  0  0  0  0  0  0
  -33.9733    4.6498   -8.6660 C   0  0  0  0  0  0  0  0  0  0  0  0
  -35.5570    7.0482   -8.1516 O   0  0  0  0  0  0  0  0  0  0  0  0
  -30.3693    4.6149   -9.5622 C   0  0  0  0  0  0  0  0  0  0  0  0
  -27.2315    4.9481  -12.4363 O   0  0  0  0  0  0  0  0  0  0  0  0
  -27.4026    4.1172  -11.5444 C   0  0  0  0  0  0  0  0  0  0  0  0
  -29.5313    2.9953  -10.7681 C   0  0  0  0  0  0  0  0  0  0  0  0
  -36.5646    5.7914   -6.1385 O   0  5  0  0  0  0  0  0  0  0  0  0
  -34.3220    6.2728   -5.9982 O   0  0  0  0  0  0  0  0  0  0  0  0
  1 17  1  0  0  0  0
  1 20  1  0  0  0  0
  2 15  1  1  0  0  0
  2  3  1  0  0  0  0
  2 11  1  0  0  0  0
  3  5  1  0  0  0  0
  4 16  1  6  0  0  0
  4 21  1  0  0  0  0
  4 22  2  0  0  0  0
  4 14  1  0  0  0  0
  5  1  1  1  0  0  0
  5  8  1  0  0  0  0
  6 17  2  0  0  0  0
  6 12  1  0  0  0  0
  8  7  1  1  0  0  0
  8 11  1  0  0  0  0
  9 19  1  0  0  0  0
 11 10  1  6  0  0  0
 12 20  2  0  0  0  0
 12 19  1  0  0  0  0
 13 20  1  0  0  0  0
 14 15  1  0  0  0  0
 18 19  2  0  0  0  0
M  CHG  1  21  -1
M  END
>  <CHROM.1>
62.24158831,170.17595842,56.33125335,170.81384334,118.06034091,-32.01490840
4.01705115,-9.01057301,0.20437512,-0.52611826,3.08717445

>  <Name>
ligand

>  <RI>
0

>  <Rbt.Current_Directory>
/home/itssahil/PROJECTS/Mol_Feturizer/Test_systems_manuscript/rnas/4xwf

>  <Rbt.Executable>
rbdock ($Id: //depot/dev/client3/rdock/2013.1/src/exe/rbdock.cxx#4 $)

>  <Rbt.Library>
libRbt.so (2013.1, Build901 2013/11/27)

>  <Rbt.Parameter_File>
/export/apps/rDock/src/rDock_2013.1_src/data/scripts/dock_solv.prm

>  <Rbt.Receptor>
prm/pocket_docking_6.prm

>  <SCORE>
-9.87974

>  <SCORE.INTER>
-9.08333

>  <SCORE.INTER.CONST>
1

>  <SCORE.INTER.POLAR>
0

>  <SCORE.INTER.ROT>
5

>  <SCORE.INTER.SOLV>
11.2886

>  <SCORE.INTER.VDW>
-16.7518

>  <SCORE.INTER.norm>
-0.412879

>  <SCORE.INTRA>
-0.796407

>  <SCORE.INTRA.DIHEDRAL>
-1.20483

>  <SCORE.INTRA.DIHEDRAL.0>
3.49807

>  <SCORE.INTRA.POLAR>
0

>  <SCORE.INTRA.POLAR.0>
0

>  <SCORE.INTRA.REPUL>
0

>  <SCORE.INTRA.REPUL.0>
0

>  <SCORE.INTRA.SOLV>
-0.749465

>  <SCORE.INTRA.SOLV.lig_0>
-73.062

>  <SCORE.INTRA.VDW>
0.18074

>  <SCORE.INTRA.VDW.0>
-1.83782

>  <SCORE.INTRA.norm>
-0.0362003

>  <SCORE.RESTR>
0

>  <SCORE.RESTR.CAVITY>
0

>  <SCORE.RESTR.norm>
0

>  <SCORE.SYSTEM>
0

>  <SCORE.SYSTEM.CONST>
0

>  <SCORE.SYSTEM.DIHEDRAL>
0

>  <SCORE.SYSTEM.SOLV>
0

>  <SCORE.SYSTEM.norm>
0

>  <SCORE.heavy>
22

>  <SCORE.norm>
-0.449079

>  <RMSD>
7.375

$$$$
ligand
 OpenBabel02271912143D
libRbt.so/2013.1/901 2013/11/27
 22 23  0  0  0  0  0  0  0  0999 V2000
  -30.5583    3.3951   -9.9663 N   0  0  0  0  0  0  0  0  0  0  0  0
  -33.8134    3.2211   -9.0570 C   0  0  1  0  0  0  0  0  0  0  0  0
  -32.8486    3.1908  -10.1470 O   0  0  0  0  0  0  0  0  0  0  0  0
  -35.3404    5.9701   -6.9542 P   0  0  1  0  0  0  0  0  0  0  0  0
  -31.6379    2.5954   -9.6530 C   0  0  2  0  0  0  0  0  0  0  0  0
  -29.2150    5.0989  -10.0270 N   0  0  0  0  0  0  0  0  0  0  0  0
  -30.9551    1.6206   -7.5843 O   0  0  0  0  0  0  0  0  0  0  0  0
  -31.7737    2.6342   -8.1797 C   0  0  2  0  0  0  0  0  0  0  0  0
  -27.3315    3.9542  -12.8279 N   0  0  0  0  0  0  0  0  0  0  0  0
  -33.5561    1.0625   -8.1801 O   0  0  0  0  0  0  0  0  0  0  0  0
  -33.2016    2.4383   -7.9610 C   0  0  2  0  0  0  0  0  0  0  0  0
  -28.6639    4.1052  -10.7408 C   0  0  0  0  0  0  0  0  0  0  0  0
  -29.2833    1.7697  -11.3109 N   0  0  0  0  0  0  0  0  0  0  0  0
  -35.0237    4.6488   -7.7367 O   0  0  0  0  0  0  0  0  0  0  0  0
  -33.9952    4.6492   -8.6727 C   0  0  0  0  0  0  0  0  0  0  0  0
  -35.6149    7.0094   -8.1010 O   0  0  0  0  0  0  0  0  0  0  0  0
  -30.3950    4.6569   -9.5519 C   0  0  0  0  0  0  0  0  0  0  0  0
  -26.3296    4.3888  -10.8296 O   0  0  0  0  0  0  0  0  0  0  0  0
  -27.3710    4.1670  -11.4473 C   0  0  0  0  0  0  0  0  0  0  0  0
  -29.5025    3.0279  -10.7047 C   0  0  0  0  0  0  0  0  0  0  0  0
  -36.4931    5.7444   -6.0331 O   0  5  0  0  0  0  0  0  0  0  0  0
  -34.2599    6.2855   -6.0026 O   0  0  0  0  0  0  0  0  0  0  0  0
  1 17  1  0  0  0  0
  1 20  1  0  0  0  0
  2 15  1  1  0  0  0
  2  3  1  0  0  0  0
  2 11  1  0  0  0  0
  3  5  1  0  0  0  0
  4 16  1  6  0  0  0
  4 21  1  0  0  0  0
  4 22  2  0  0  0  0
  4 14  1  0  0  0  0
  5  1  1  1  0  0  0
  5  8  1  0  0  0  0
  6 17  2  0  0  0  0
  6 12  1  0  0  0  0
  8  7  1  1  0  0  0
  8 11  1  0  0  0  0
  9 19  1  0  0  0  0
 11 10  1  6  0  0  0
 12 20  2  0  0  0  0
 12 19  1  0  0  0  0
 13 20  1  0  0  0  0
 14 15  1  0  0  0  0
 18 19  2  0  0  0  0
M  CHG  1  21  -1
M  END
>  <CHROM.1>
60.76695309,173.71836598,56.25437432,171.00428601,-120.87671320,-32.00227447
4.02832601,-8.97028784,0.23252761,-0.50951744,-3.12042846

>  <Name>
ligand

>  <RI>
0

>  <Rbt.Current_Directory>
/home/itssahil/PROJECTS/Mol_Feturizer/Test_systems_manuscript/rnas/4xwf

>  <Rbt.Executable>
rbdock ($Id: //depot/dev/client3/rdock/2013.1/src/exe/rbdock.cxx#4 $)

>  <Rbt.Library>
libRbt.so (2013.1, Build901 2013/11/27)

>  <Rbt.Parameter_File>
/export/apps/rDock/src/rDock_2013.1_src/data/scripts/dock_solv.prm

>  <Rbt.Receptor>
prm/pocket_docking_8.prm

>  <SCORE>
-9.89918

>  <SCORE.INTER>
-9.02939

>  <SCORE.INTER.CONST>
1

>  <SCORE.INTER.POLAR>
0

>  <SCORE.INTER.ROT>
5

>  <SCORE.INTER.SOLV>
10.5552

>  <SCORE.INTER.VDW>
-16.4713

>  <SCORE.INTER.norm>
-0.410427

>  <SCORE.INTRA>
-0.869791

>  <SCORE.INTRA.DIHEDRAL>
-1.41612

>  <SCORE.INTRA.DIHEDRAL.0>
3.49807

>  <SCORE.INTRA.POLAR>
0

>  <SCORE.INTRA.POLAR.0>
0

>  <SCORE.INTRA.REPUL>
0

>  <SCORE.INTRA.REPUL.0>
0

>  <SCORE.INTRA.SOLV>
-0.669904

>  <SCORE.INTRA.SOLV.lig_0>
-73.062

>  <SCORE.INTRA.VDW>
0.173221

>  <SCORE.INTRA.VDW.0>
-1.83782

>  <SCORE.INTRA.norm>
-0.0395359

>  <SCORE.RESTR>
0

>  <SCORE.RESTR.CAVITY>
0

>  <SCORE.RESTR.norm>
0

>  <SCORE.SYSTEM>
0

>  <SCORE.SYSTEM.CONST>
0

>  <SCORE.SYSTEM.DIHEDRAL>
0

>  <SCORE.SYSTEM.SOLV>
0

>  <SCORE.SYSTEM.norm>
0

>  <SCORE.heavy>
22

>  <SCORE.norm>
-0.449963

>  <RMSD>
7.375

$$$$
ligand
 OpenBabel02271912143D
libRbt.so/2013.1/901 2013/11/27
 22 23  0  0  0  0  0  0  0  0999 V2000
  -30.4715    4.4384   -8.6878 N   0  0  0  0  0  0  0  0  0  0  0  0
  -33.7317    3.7885   -9.3214 C   0  0  1  0  0  0  0  0  0  0  0  0
  -32.5612    4.5888   -9.6523 O   0  0  0  0  0  0  0  0  0  0  0  0
  -35.2377    6.5660   -7.2294 P   0  0  1  0  0  0  0  0  0  0  0  0
  -31.3953    3.7704   -9.4647 C   0  0  2  0  0  0  0  0  0  0  0  0
  -29.6191    5.6955   -7.1373 N   0  0  0  0  0  0  0  0  0  0  0  0
  -31.0068    1.4949   -8.8586 O   0  0  0  0  0  0  0  0  0  0  0  0
  -31.8675    2.6223   -8.6587 C   0  0  2  0  0  0  0  0  0  0  0  0
  -26.7775    6.2460   -6.5749 N   0  0  0  0  0  0  0  0  0  0  0  0
  -33.2209    1.7834  -10.4227 O   0  0  0  0  0  0  0  0  0  0  0  0
  -33.2309    2.4099   -9.1290 C   0  0  2  0  0  0  0  0  0  0  0  0
  -28.6113    5.1439   -7.8306 C   0  0  0  0  0  0  0  0  0  0  0  0
  -28.4190    3.5701   -9.7411 N   0  0  0  0  0  0  0  0  0  0  0  0
  -34.5996    5.6714   -8.3480 O   0  0  0  0  0  0  0  0  0  0  0  0
  -34.2999    4.3441   -8.0611 C   0  0  0  0  0  0  0  0  0  0  0  0
  -36.6982    5.9986   -7.1056 O   0  0  0  0  0  0  0  0  0  0  0  0
  -30.7740    5.2601   -7.6760 C   0  0  0  0  0  0  0  0  0  0  0  0
  -26.3260    4.7840   -8.2614 O   0  0  0  0  0  0  0  0  0  0  0  0
  -27.1742    5.3617   -7.5817 C   0  0  0  0  0  0  0  0  0  0  0  0
  -29.1401    4.3485   -8.8069 C   0  0  0  0  0  0  0  0  0  0  0  0
  -34.4255    6.4651   -5.9812 O   0  5  0  0  0  0  0  0  0  0  0  0
  -35.0952    7.9955   -7.5591 O   0  0  0  0  0  0  0  0  0  0  0  0
  1 17  1  0  0  0  0
  1 20  1  0  0  0  0
  2 15  1  1  0  0  0
  2  3  1  0  0  0  0
  2 11  1  0  0  0  0
  3  5  1  0  0  0  0
  4 16  1  1  0  0  0
  4 21  1  0  0  0  0
  4 22  2  0  0  0  0
  4 14  1  0  0  0  0
  5  1  1  1  0  0  0
  5  8  1  0  0  0  0
  6 17  2  0  0  0  0
  6 12  1  0  0  0  0
  8  7  1  6  0  0  0
  8 11  1  0  0  0  0
  9 19  1  0  0  0  0
 11 10  1  6  0  0  0
 12 20  2  0  0  0  0
 12 19  1  0  0  0  0
 13 20  1  0  0  0  0
 14 15  1  0  0  0  0
 18 19  2  0  0  0  0
M  CHG  1  21  -1
M  END
>  <CHROM.1>
35.28238648,58.94006055,-71.41323713,179.41334728,-2.30488443,-31.88650414
4.76917748,-8.21957527,0.19577660,0.02904189,-2.58697685

>  <Name>
ligand

>  <RI>
0

>  <Rbt.Current_Directory>
/home/itssahil/PROJECTS/Mol_Feturizer/Test_systems_manuscript/rnas/4xwf

>  <Rbt.Executable>
rbdock ($Id: //depot/dev/client3/rdock/2013.1/src/exe/rbdock.cxx#4 $)

>  <Rbt.Library>
libRbt.so (2013.1, Build901 2013/11/27)

>  <Rbt.Parameter_File>
/export/apps/rDock/src/rDock_2013.1_src/data/scripts/dock_solv.prm

>  <Rbt.Receptor>
prm/pocket_docking_7.prm

>  <SCORE>
-8.42913

>  <SCORE.INTER>
-7.21654

>  <SCORE.INTER.CONST>
1

>  <SCORE.INTER.POLAR>
0

>  <SCORE.INTER.ROT>
5

>  <SCORE.INTER.SOLV>
12.5041

>  <SCORE.INTER.VDW>
-15.9124

>  <SCORE.INTER.norm>
-0.328025

>  <SCORE.INTRA>
-1.21259

>  <SCORE.INTRA.DIHEDRAL>
-1.76079

>  <SCORE.INTRA.DIHEDRAL.0>
3.49807

>  <SCORE.INTRA.POLAR>
0

>  <SCORE.INTRA.POLAR.0>
0

>  <SCORE.INTRA.REPUL>
0

>  <SCORE.INTRA.REPUL.0>
0

>  <SCORE.INTRA.SOLV>
-0.0717005

>  <SCORE.INTRA.SOLV.lig_0>
-73.062

>  <SCORE.INTRA.VDW>
-0.296345

>  <SCORE.INTRA.VDW.0>
-1.83782

>  <SCORE.INTRA.norm>
-0.0551177

>  <SCORE.RESTR>
0

>  <SCORE.RESTR.CAVITY>
0

>  <SCORE.RESTR.norm>
0

>  <SCORE.SYSTEM>
0

>  <SCORE.SYSTEM.CONST>
0

>  <SCORE.SYSTEM.DIHEDRAL>
0

>  <SCORE.SYSTEM.SOLV>
0

>  <SCORE.SYSTEM.norm>
0

>  <SCORE.heavy>
22

>  <SCORE.norm>
-0.383142

>  <RMSD>
7.377

$$$$
ligand
 OpenBabel02271912143D
libRbt.so/2013.1/901 2013/11/27
 22 23  0  0  0  0  0  0  0  0999 V2000
  -30.5526    3.3682   -9.9832 N   0  0  0  0  0  0  0  0  0  0  0  0
  -33.8062    3.2188   -9.0641 C   0  0  1  0  0  0  0  0  0  0  0  0
  -32.8449    3.1807  -10.1569 O   0  0  0  0  0  0  0  0  0  0  0  0
  -35.3696    5.9858   -7.0134 P   0  0  1  0  0  0  0  0  0  0  0  0
  -31.6372    2.5766   -9.6663 C   0  0  2  0  0  0  0  0  0  0  0  0
  -29.1989    5.0634  -10.0519 N   0  0  0  0  0  0  0  0  0  0  0  0
  -30.9554    1.5981   -7.5990 O   0  0  0  0  0  0  0  0  0  0  0  0
  -31.7683    2.6173   -8.1925 C   0  0  2  0  0  0  0  0  0  0  0  0
  -26.3308    3.2524  -11.0780 N   0  0  0  0  0  0  0  0  0  0  0  0
  -33.5622    1.0589   -8.1867 O   0  0  0  0  0  0  0  0  0  0  0  0
  -33.1969    2.4321   -7.9695 C   0  0  2  0  0  0  0  0  0  0  0  0
  -28.6538    4.0629  -10.7608 C   0  0  0  0  0  0  0  0  0  0  0  0
  -29.2874    1.7285  -11.3197 N   0  0  0  0  0  0  0  0  0  0  0  0
  -35.0490    4.6650   -7.7953 O   0  0  0  0  0  0  0  0  0  0  0  0
  -33.9764    4.6483   -8.6801 C   0  0  0  0  0  0  0  0  0  0  0  0
  -35.5075    7.0554   -8.1569 O   0  0  0  0  0  0  0  0  0  0  0  0
  -30.3817    4.6310   -9.5749 C   0  0  0  0  0  0  0  0  0  0  0  0
  -27.1778    4.9150  -12.3833 O   0  0  0  0  0  0  0  0  0  0  0  0
  -27.3604    4.1133  -11.4674 C   0  0  0  0  0  0  0  0  0  0  0  0
  -29.4990    2.9909  -10.7196 C   0  0  0  0  0  0  0  0  0  0  0  0
  -36.6001    5.7962   -6.1902 O   0  5  0  0  0  0  0  0  0  0  0  0
  -34.3551    6.2368   -5.9740 O   0  0  0  0  0  0  0  0  0  0  0  0
  1 17  1  0  0  0  0
  1 20  1  0  0  0  0
  2 15  1  1  0  0  0
  2  3  1  0  0  0  0
  2 11  1  0  0  0  0
  3  5  1  0  0  0  0
  4 16  1  6  0  0  0
  4 21  1  0  0  0  0
  4 22  2  0  0  0  0
  4 14  1  0  0  0  0
  5  1  1  1  0  0  0
  5  8  1  0  0  0  0
  6 17  2  0  0  0  0
  6 12  1  0  0  0  0
  8  7  1  1  0  0  0
  8 11  1  0  0  0  0
  9 19  1  0  0  0  0
 11 10  1  6  0  0  0
 12 20  2  0  0  0  0
 12 19  1  0  0  0  0
 13 20  1  0  0  0  0
 14 15  1  0  0  0  0
 18 19  2  0  0  0  0
M  CHG  1  21  -1
M  END
>  <CHROM.1>
60.45434640,170.62397437,54.21625896,170.58592679,117.31253632,-32.00600200
4.01494384,-8.99722679,0.20660632,-0.51461955,3.09190525

>  <Name>
ligand

>  <RI>
0

>  <Rbt.Current_Directory>
/home/itssahil/PROJECTS/Mol_Feturizer/Test_systems_manuscript/rnas/4xwf

>  <Rbt.Executable>
rbdock ($Id: //depot/dev/client3/rdock/2013.1/src/exe/rbdock.cxx#4 $)

>  <Rbt.Library>
libRbt.so (2013.1, Build901 2013/11/27)

>  <Rbt.Parameter_File>
/export/apps/rDock/src/rDock_2013.1_src/data/scripts/dock_solv.prm

>  <Rbt.Receptor>
prm/pocket_docking_8.prm

>  <SCORE>
-9.88778

>  <SCORE.INTER>
-9.09628

>  <SCORE.INTER.CONST>
1

>  <SCORE.INTER.POLAR>
0

>  <SCORE.INTER.ROT>
5

>  <SCORE.INTER.SOLV>
11.1874

>  <SCORE.INTER.VDW>
-16.7267

>  <SCORE.INTER.norm>
-0.413467

>  <SCORE.INTRA>
-0.791493

>  <SCORE.INTRA.DIHEDRAL>
-1.17396

>  <SCORE.INTRA.DIHEDRAL.0>
3.49807

>  <SCORE.INTRA.POLAR>
0

>  <SCORE.INTRA.POLAR.0>
0

>  <SCORE.INTRA.REPUL>
0

>  <SCORE.INTRA.REPUL.0>
0

>  <SCORE.INTRA.SOLV>
-0.720716

>  <SCORE.INTRA.SOLV.lig_0>
-73.062

>  <SCORE.INTRA.VDW>
0.155846

>  <SCORE.INTRA.VDW.0>
-1.83782

>  <SCORE.INTRA.norm>
-0.0359769

>  <SCORE.RESTR>
0

>  <SCORE.RESTR.CAVITY>
0

>  <SCORE.RESTR.norm>
0

>  <SCORE.SYSTEM>
0

>  <SCORE.SYSTEM.CONST>
0

>  <SCORE.SYSTEM.DIHEDRAL>
0

>  <SCORE.SYSTEM.SOLV>
0

>  <SCORE.SYSTEM.norm>
0

>  <SCORE.heavy>
22

>  <SCORE.norm>
-0.449444

>  <RMSD>
7.377

$$$$
ligand
 OpenBabel02271912143D
libRbt.so/2013.1/901 2013/11/27
 22 23  0  0  0  0  0  0  0  0999 V2000
  -30.4986    4.4265   -8.6705 N   0  0  0  0  0  0  0  0  0  0  0  0
  -33.7560    3.7757   -9.3171 C   0  0  1  0  0  0  0  0  0  0  0  0
  -32.5856    4.5791   -9.6404 O   0  0  0  0  0  0  0  0  0  0  0  0
  -35.2421    6.5490   -7.2054 P   0  0  1  0  0  0  0  0  0  0  0  0
  -31.4192    3.7613   -9.4536 C   0  0  2  0  0  0  0  0  0  0  0  0
  -29.6526    5.6795   -7.1131 N   0  0  0  0  0  0  0  0  0  0  0  0
  -31.0295    1.4832   -8.8582 O   0  0  0  0  0  0  0  0  0  0  0  0
  -31.8923    2.6084   -8.6549 C   0  0  2  0  0  0  0  0  0  0  0  0
  -26.8133    6.2173   -6.5281 N   0  0  0  0  0  0  0  0  0  0  0  0
  -33.2394    1.7769  -10.4273 O   0  0  0  0  0  0  0  0  0  0  0  0
  -33.2540    2.3968   -9.1304 C   0  0  2  0  0  0  0  0  0  0  0  0
  -28.6419    5.1274   -7.8019 C   0  0  0  0  0  0  0  0  0  0  0  0
  -28.4418    3.5566   -9.7140 N   0  0  0  0  0  0  0  0  0  0  0  0
  -34.6061    5.6590   -8.3287 O   0  0  0  0  0  0  0  0  0  0  0  0
  -34.3287    4.3240   -8.0555 C   0  0  0  0  0  0  0  0  0  0  0  0
  -36.7207    6.0221   -7.1240 O   0  0  0  0  0  0  0  0  0  0  0  0
  -30.8052    5.2469   -7.6589 C   0  0  0  0  0  0  0  0  0  0  0  0
  -26.3550    4.7707   -8.2260 O   0  0  0  0  0  0  0  0  0  0  0  0
  -27.2059    5.3424   -7.5447 C   0  0  0  0  0  0  0  0  0  0  0  0
  -29.1667    4.3346   -8.7824 C   0  0  0  0  0  0  0  0  0  0  0  0
  -34.4603    6.3991   -5.9428 O   0  5  0  0  0  0  0  0  0  0  0  0
  -35.0515    7.9801   -7.5022 O   0  0  0  0  0  0  0  0  0  0  0  0
  1 17  1  0  0  0  0
  1 20  1  0  0  0  0
  2 15  1  1  0  0  0
  2  3  1  0  0  0  0
  2 11  1  0  0  0  0
  3  5  1  0  0  0  0
  4 16  1  1  0  0  0
  4 21  1  0  0  0  0
  4 22  2  0  0  0  0
  4 14  1  0  0  0  0
  5  1  1  1  0  0  0
  5  8  1  0  0  0  0
  6 17  2  0  0  0  0
  6 12  1  0  0  0  0
  8  7  1  6  0  0  0
  8 11  1  0  0  0  0
  9 19  1  0  0  0  0
 11 10  1  6  0  0  0
 12 20  2  0  0  0  0
 12 19  1  0  0  0  0
 13 20  1  0  0  0  0
 14 15  1  0  0  0  0
 18 19  2  0  0  0  0
M  CHG  1  21  -1
M  END
>  <CHROM.1>
34.98382857,57.86006793,-72.56303161,179.41950106,-1.86543263,-31.90697761
4.75409815,-8.20078535,0.19481997,0.03171819,-2.58045242

>  <Name>
ligand

>  <RI>
0

>  <Rbt.Current_Directory>
/home/itssahil/PROJECTS/Mol_Feturizer/Test_systems_manuscript/rnas/4xwf

>  <Rbt.Executable>
rbdock ($Id: //depot/dev/client3/rdock/2013.1/src/exe/rbdock.cxx#4 $)

>  <Rbt.Library>
libRbt.so (2013.1, Build901 2013/11/27)

>  <Rbt.Parameter_File>
/export/apps/rDock/src/rDock_2013.1_src/data/scripts/dock_solv.prm

>  <Rbt.Receptor>
prm/pocket_docking_6.prm

>  <SCORE>
-8.41113

>  <SCORE.INTER>
-7.24997

>  <SCORE.INTER.CONST>
1

>  <SCORE.INTER.POLAR>
0

>  <SCORE.INTER.ROT>
5

>  <SCORE.INTER.SOLV>
12.1766

>  <SCORE.INTER.VDW>
-15.8255

>  <SCORE.INTER.norm>
-0.329544

>  <SCORE.INTRA>
-1.16117

>  <SCORE.INTRA.DIHEDRAL>
-1.70678

>  <SCORE.INTRA.DIHEDRAL.0>
3.49807

>  <SCORE.INTRA.POLAR>
0

>  <SCORE.INTRA.POLAR.0>
0

>  <SCORE.INTRA.REPUL>
0

>  <SCORE.INTRA.REPUL.0>
0

>  <SCORE.INTRA.SOLV>
-0.0486128

>  <SCORE.INTRA.SOLV.lig_0>
-73.062

>  <SCORE.INTRA.VDW>
-0.283471

>  <SCORE.INTRA.VDW.0>
-1.83782

>  <SCORE.INTRA.norm>
-0.0527802

>  <SCORE.RESTR>
0

>  <SCORE.RESTR.CAVITY>
0

>  <SCORE.RESTR.norm>
0

>  <SCORE.SYSTEM>
0

>  <SCORE.SYSTEM.CONST>
0

>  <SCORE.SYSTEM.DIHEDRAL>
0

>  <SCORE.SYSTEM.SOLV>
0

>  <SCORE.SYSTEM.norm>
0

>  <SCORE.heavy>
22

>  <SCORE.norm>
-0.382324

>  <RMSD>
7.386

$$$$
ligand
 OpenBabel02271912143D
libRbt.so/2013.1/901 2013/11/27
 22 23  0  0  0  0  0  0  0  0999 V2000
  -30.5980    3.4032   -9.9450 N   0  0  0  0  0  0  0  0  0  0  0  0
  -33.8423    3.2080   -9.0024 C   0  0  1  0  0  0  0  0  0  0  0  0
  -32.8871    3.1674  -10.1004 O   0  0  0  0  0  0  0  0  0  0  0  0
  -35.4134    5.9795   -6.9642 P   0  0  1  0  0  0  0  0  0  0  0  0
  -31.6647    2.5968   -9.6058 C   0  0  2  0  0  0  0  0  0  0  0  0
  -29.2505    5.1033  -10.0143 N   0  0  0  0  0  0  0  0  0  0  0  0
  -30.9514    1.6727   -7.5241 O   0  0  0  0  0  0  0  0  0  0  0  0
  -31.7878    2.6639   -8.1323 C   0  0  2  0  0  0  0  0  0  0  0  0
  -26.6033    5.2735  -11.3216 N   0  0  0  0  0  0  0  0  0  0  0  0
  -33.5506    1.0710   -8.0845 O   0  0  0  0  0  0  0  0  0  0  0  0
  -33.2111    2.4551   -7.8965 C   0  0  2  0  0  0  0  0  0  0  0  0
  -28.7409    4.1330  -10.7886 C   0  0  0  0  0  0  0  0  0  0  0  0
  -29.4002    1.8208  -11.4069 N   0  0  0  0  0  0  0  0  0  0  0  0
  -35.0850    4.6510   -7.7298 O   0  0  0  0  0  0  0  0  0  0  0  0
  -34.0384    4.6412   -8.6454 C   0  0  0  0  0  0  0  0  0  0  0  0
  -35.6136    7.0218   -8.1235 O   0  0  0  0  0  0  0  0  0  0  0  0
  -30.4076    4.6493   -9.4962 C   0  0  0  0  0  0  0  0  0  0  0  0
  -27.2154    3.3687  -12.4090 O   0  0  0  0  0  0  0  0  0  0  0  0
  -27.4846    4.2146  -11.5564 C   0  0  0  0  0  0  0  0  0  0  0  0
  -29.5823    3.0580  -10.7475 C   0  0  0  0  0  0  0  0  0  0  0  0
  -36.6124    5.7771   -6.0986 O   0  5  0  0  0  0  0  0  0  0  0  0
  -34.3733    6.2760   -5.9628 O   0  0  0  0  0  0  0  0  0  0  0  0
  1 17  1  0  0  0  0
  1 20  1  0  0  0  0
  2 15  1  1  0  0  0
  2  3  1  0  0  0  0
  2 11  1  0  0  0  0
  3  5  1  0  0  0  0
  4 16  1  6  0  0  0
  4 21  1  0  0  0  0
  4 22  2  0  0  0  0
  4 14  1  0  0  0  0
  5  1  1  6  0  0  0
  5  8  1  0  0  0  0
  6 17  2  0  0  0  0
  6 12  1  0  0  0  0
  8  7  1  1  0  0  0
  8 11  1  0  0  0  0
  9 19  1  0  0  0  0
 11 10  1  6  0  0  0
 12 20  2  0  0  0  0
 12 19  1  0  0  0  0
 13 20  1  0  0  0  0
 14 15  1  0  0  0  0
 18 19  2  0  0  0  0
M  CHG  1  21  -1
M  END
>  <CHROM.1>
64.79932022,172.00395533,54.37752997,170.35302316,11.58464881,-32.06035064
4.04673033,-8.97436847,0.22004970,-0.52413094,-3.13848326

>  <Name>
ligand

>  <RI>
0

>  <Rbt.Current_Directory>
/home/itssahil/PROJECTS/Mol_Feturizer/Test_systems_manuscript/rnas/4xwf

>  <Rbt.Executable>
rbdock ($Id: //depot/dev/client3/rdock/2013.1/src/exe/rbdock.cxx#4 $)

>  <Rbt.Library>
libRbt.so (2013.1, Build901 2013/11/27)

>  <Rbt.Parameter_File>
/export/apps/rDock/src/rDock_2013.1_src/data/scripts/dock_solv.prm

>  <Rbt.Receptor>
prm/pocket_docking_8.prm

>  <SCORE>
-9.70784

>  <SCORE.INTER>
-9.19851

>  <SCORE.INTER.CONST>
1

>  <SCORE.INTER.POLAR>
0

>  <SCORE.INTER.ROT>
5

>  <SCORE.INTER.SOLV>
11.4397

>  <SCORE.INTER.VDW>
-16.8789

>  <SCORE.INTER.norm>
-0.418114

>  <SCORE.INTRA>
-0.509326

>  <SCORE.INTRA.DIHEDRAL>
-1.07339

>  <SCORE.INTRA.DIHEDRAL.0>
3.49807

>  <SCORE.INTRA.POLAR>
0

>  <SCORE.INTRA.POLAR.0>
0

>  <SCORE.INTRA.REPUL>
0

>  <SCORE.INTRA.REPUL.0>
0

>  <SCORE.INTRA.SOLV>
-0.865851

>  <SCORE.INTRA.SOLV.lig_0>
-73.062

>  <SCORE.INTRA.VDW>
0.460293

>  <SCORE.INTRA.VDW.0>
-1.83782

>  <SCORE.INTRA.norm>
-0.0231512

>  <SCORE.RESTR>
0

>  <SCORE.RESTR.CAVITY>
0

>  <SCORE.RESTR.norm>
0

>  <SCORE.SYSTEM>
0

>  <SCORE.SYSTEM.CONST>
0

>  <SCORE.SYSTEM.DIHEDRAL>
0

>  <SCORE.SYSTEM.SOLV>
0

>  <SCORE.SYSTEM.norm>
0

>  <SCORE.heavy>
22

>  <SCORE.norm>
-0.441265

>  <RMSD>
7.387

$$$$
ligand
 OpenBabel02271912143D
libRbt.so/2013.1/901 2013/11/27
 22 23  0  0  0  0  0  0  0  0999 V2000
  -30.4688    4.4118   -8.6984 N   0  0  0  0  0  0  0  0  0  0  0  0
  -33.7344    3.7860   -9.3286 C   0  0  1  0  0  0  0  0  0  0  0  0
  -32.5573    4.5747   -9.6636 O   0  0  0  0  0  0  0  0  0  0  0  0
  -35.2319    6.5821   -7.2555 P   0  0  1  0  0  0  0  0  0  0  0  0
  -31.3982    3.7476   -9.4719 C   0  0  2  0  0  0  0  0  0  0  0  0
  -29.6047    5.6556   -7.1436 N   0  0  0  0  0  0  0  0  0  0  0  0
  -31.0287    1.4721   -8.8544 O   0  0  0  0  0  0  0  0  0  0  0  0
  -31.8800    2.6076   -8.6600 C   0  0  2  0  0  0  0  0  0  0  0  0
  -26.3575    4.2701   -7.2260 N   0  0  0  0  0  0  0  0  0  0  0  0
  -33.2404    1.7711  -10.4198 O   0  0  0  0  0  0  0  0  0  0  0  0
  -33.2451    2.4043   -9.1292 C   0  0  2  0  0  0  0  0  0  0  0  0
  -28.6023    5.1179   -7.8555 C   0  0  0  0  0  0  0  0  0  0  0  0
  -28.4245    3.5677   -9.7865 N   0  0  0  0  0  0  0  0  0  0  0  0
  -34.5871    5.6808   -8.3648 O   0  0  0  0  0  0  0  0  0  0  0  0
  -34.2979    4.3527   -8.0710 C   0  0  0  0  0  0  0  0  0  0  0  0
  -36.7014    6.0331   -7.1562 O   0  0  0  0  0  0  0  0  0  0  0  0
  -30.7636    5.2199   -7.6734 C   0  0  0  0  0  0  0  0  0  0  0  0
  -26.6733    6.4620   -7.7567 O   0  0  0  0  0  0  0  0  0  0  0  0
  -27.1636    5.3411   -7.6214 C   0  0  0  0  0  0  0  0  0  0  0  0
  -29.1385    4.3310   -8.8346 C   0  0  0  0  0  0  0  0  0  0  0  0
  -34.4415    6.4694   -5.9944 O   0  5  0  0  0  0  0  0  0  0  0  0
  -35.0660    8.0101   -7.5810 O   0  0  0  0  0  0  0  0  0  0  0  0
  1 17  1  0  0  0  0
  1 20  1  0  0  0  0
  2 15  1  1  0  0  0
  2  3  1  0  0  0  0
  2 11  1  0  0  0  0
  3  5  1  0  0  0  0
  4 16  1  1  0  0  0
  4 21  1  0  0  0  0
  4 22  2  0  0  0  0
  4 14  1  0  0  0  0
  5  1  1  1  0  0  0
  5  8  1  0  0  0  0
  6 17  2  0  0  0  0
  6 12  1  0  0  0  0
  8  7  1  6  0  0  0
  8 11  1  0  0  0  0
  9 19  1  0  0  0  0
 11 10  1  6  0  0  0
 12 20  2  0  0  0  0
 12 19  1  0  0  0  0
 13 20  1  0  0  0  0
 14 15  1  0  0  0  0
 18 19  2  0  0  0  0
M  CHG  1  21  -1
M  END
>  <CHROM.1>
36.71069479,58.96894684,-71.98938012,178.76773720,115.17219611,-31.88523568
4.76065651,-8.23737456,0.19873144,0.02834719,-2.62209874

>  <Name>
ligand

>  <RI>
0

>  <Rbt.Current_Directory>
/home/itssahil/PROJECTS/Mol_Feturizer/Test_systems_manuscript/rnas/4xwf

>  <Rbt.Executable>
rbdock ($Id: //depot/dev/client3/rdock/2013.1/src/exe/rbdock.cxx#4 $)

>  <Rbt.Library>
libRbt.so (2013.1, Build901 2013/11/27)

>  <Rbt.Parameter_File>
/export/apps/rDock/src/rDock_2013.1_src/data/scripts/dock_solv.prm

>  <Rbt.Receptor>
prm/pocket_docking_8.prm

>  <SCORE>
-8.55715

>  <SCORE.INTER>
-7.20401

>  <SCORE.INTER.CONST>
1

>  <SCORE.INTER.POLAR>
0

>  <SCORE.INTER.ROT>
5

>  <SCORE.INTER.SOLV>
12.6154

>  <SCORE.INTER.VDW>
-15.9412

>  <SCORE.INTER.norm>
-0.327455

>  <SCORE.INTRA>
-1.35315

>  <SCORE.INTRA.DIHEDRAL>
-1.71439

>  <SCORE.INTRA.DIHEDRAL.0>
3.49807

>  <SCORE.INTRA.POLAR>
0

>  <SCORE.INTRA.POLAR.0>
0

>  <SCORE.INTRA.REPUL>
0

>  <SCORE.INTRA.REPUL.0>
0

>  <SCORE.INTRA.SOLV>
-0.0900186

>  <SCORE.INTRA.SOLV.lig_0>
-73.062

>  <SCORE.INTRA.VDW>
-0.450943

>  <SCORE.INTRA.VDW.0>
-1.83782

>  <SCORE.INTRA.norm>
-0.0615068

>  <SCORE.RESTR>
0

>  <SCORE.RESTR.CAVITY>
0

>  <SCORE.RESTR.norm>
0

>  <SCORE.SYSTEM>
0

>  <SCORE.SYSTEM.CONST>
0

>  <SCORE.SYSTEM.DIHEDRAL>
0

>  <SCORE.SYSTEM.SOLV>
0

>  <SCORE.SYSTEM.norm>
0

>  <SCORE.heavy>
22

>  <SCORE.norm>
-0.388962

>  <RMSD>
7.394

$$$$
ligand
 OpenBabel02271912143D
libRbt.so/2013.1/901 2013/11/27
 22 23  0  0  0  0  0  0  0  0999 V2000
  -31.0295    3.5088   -9.6902 N   0  0  0  0  0  0  0  0  0  0  0  0
  -34.2032    3.9725   -8.6107 C   0  0  1  0  0  0  0  0  0  0  0  0
  -33.3322    3.6347   -9.7275 O   0  0  0  0  0  0  0  0  0  0  0  0
  -35.2304    7.2099   -6.9456 P   0  0  1  0  0  0  0  0  0  0  0  0
  -32.1886    2.9392   -9.2052 C   0  0  2  0  0  0  0  0  0  0  0  0
  -29.4607    4.9579  -10.0781 N   0  0  0  0  0  0  0  0  0  0  0  0
  -31.5098    2.1854   -7.0449 O   0  0  0  0  0  0  0  0  0  0  0  0
  -32.2131    3.2142   -7.7511 C   0  0  2  0  0  0  0  0  0  0  0  0
  -26.9250    2.6614  -10.9340 N   0  0  0  0  0  0  0  0  0  0  0  0
  -34.1996    1.9523   -7.4218 O   0  0  0  0  0  0  0  0  0  0  0  0
  -33.6353    3.2743   -7.4367 C   0  0  2  0  0  0  0  0  0  0  0  0
  -29.1124    3.7983  -10.6566 C   0  0  0  0  0  0  0  0  0  0  0  0
  -30.1038    1.5288  -10.8297 N   0  0  0  0  0  0  0  0  0  0  0  0
  -35.1448    5.7546   -7.5228 O   0  0  0  0  0  0  0  0  0  0  0  0
  -34.1490    5.4522   -8.4452 C   0  0  0  0  0  0  0  0  0  0  0  0
  -36.7042    7.2960   -6.4060 O   0  0  0  0  0  0  0  0  0  0  0  0
  -30.6554    4.7768   -9.4834 C   0  0  0  0  0  0  0  0  0  0  0  0
  -27.6762    4.1470  -12.4878 O   0  0  0  0  0  0  0  0  0  0  0  0
  -27.8782    3.5568  -11.4267 C   0  0  0  0  0  0  0  0  0  0  0  0
  -30.0939    2.8801  -10.4142 C   0  0  0  0  0  0  0  0  0  0  0  0
  -34.1772    7.4005   -5.9052 O   0  5  0  0  0  0  0  0  0  0  0  0
  -34.8249    8.1991   -7.9604 O   0  0  0  0  0  0  0  0  0  0  0  0
  1 17  1  0  0  0  0
  1 20  1  0  0  0  0
  2 15  1  1  0  0  0
  2  3  1  0  0  0  0
  2 11  1  0  0  0  0
  3  5  1  0  0  0  0
  4 16  1  1  0  0  0
  4 21  1  0  0  0  0
  4 22  2  0  0  0  0
  4 14  1  0  0  0  0
  5  1  1  6  0  0  0
  5  8  1  0  0  0  0
  6 17  2  0  0  0  0
  6 12  1  0  0  0  0
  8  7  1  1  0  0  0
  8 11  1  0  0  0  0
  9 19  1  0  0  0  0
 11 10  1  6  0  0  0
 12 20  2  0  0  0  0
 12 19  1  0  0  0  0
 13 20  1  0  0  0  0
 14 15  1  0  0  0  0
 18 19  2  0  0  0  0
M  CHG  1  21  -1
M  END
>  <CHROM.1>
60.90319004,170.76914384,160.04392463,170.87059634,114.36324833,-32.30524889
4.49936783,-8.75246521,0.37852401,-0.57624208,3.04654555

>  <Name>
ligand

>  <RI>
0

>  <Rbt.Current_Directory>
/home/itssahil/PROJECTS/Mol_Feturizer/Test_systems_manuscript/rnas/4xwf

>  <Rbt.Executable>
rbdock ($Id: //depot/dev/client3/rdock/2013.1/src/exe/rbdock.cxx#4 $)

>  <Rbt.Library>
libRbt.so (2013.1, Build901 2013/11/27)

>  <Rbt.Parameter_File>
/export/apps/rDock/src/rDock_2013.1_src/data/scripts/dock_solv.prm

>  <Rbt.Receptor>
prm/pocket_docking_8.prm

>  <SCORE>
-8.80366

>  <SCORE.INTER>
-8.69171

>  <SCORE.INTER.CONST>
1

>  <SCORE.INTER.POLAR>
0

>  <SCORE.INTER.ROT>
5

>  <SCORE.INTER.SOLV>
15.4954

>  <SCORE.INTER.VDW>
-17.893

>  <SCORE.INTER.norm>
-0.395078

>  <SCORE.INTRA>
-0.111955

>  <SCORE.INTRA.DIHEDRAL>
-0.606896

>  <SCORE.INTRA.DIHEDRAL.0>
3.49807

>  <SCORE.INTRA.POLAR>
0

>  <SCORE.INTRA.POLAR.0>
0

>  <SCORE.INTRA.REPUL>
0

>  <SCORE.INTRA.REPUL.0>
0

>  <SCORE.INTRA.SOLV>
-0.0608362

>  <SCORE.INTRA.SOLV.lig_0>
-73.062

>  <SCORE.INTRA.VDW>
0.221911

>  <SCORE.INTRA.VDW.0>
-1.83782

>  <SCORE.INTRA.norm>
-0.00508886

>  <SCORE.RESTR>
0

>  <SCORE.RESTR.CAVITY>
0

>  <SCORE.RESTR.norm>
0

>  <SCORE.SYSTEM>
0

>  <SCORE.SYSTEM.CONST>
0

>  <SCORE.SYSTEM.DIHEDRAL>
0

>  <SCORE.SYSTEM.SOLV>
0

>  <SCORE.SYSTEM.norm>
0

>  <SCORE.heavy>
22

>  <SCORE.norm>
-0.400167

>  <RMSD>
7.395

$$$$
ligand
 OpenBabel02271912143D
libRbt.so/2013.1/901 2013/11/27
 22 23  0  0  0  0  0  0  0  0999 V2000
  -30.6608    3.3254   -9.9304 N   0  0  0  0  0  0  0  0  0  0  0  0
  -33.8853    3.2976   -8.9036 C   0  0  1  0  0  0  0  0  0  0  0  0
  -32.9607    3.1786  -10.0221 O   0  0  0  0  0  0  0  0  0  0  0  0
  -35.5040    6.2486   -7.1659 P   0  0  1  0  0  0  0  0  0  0  0  0
  -31.7501    2.5762   -9.5364 C   0  0  2  0  0  0  0  0  0  0  0  0
  -29.2864    4.9907  -10.1515 N   0  0  0  0  0  0  0  0  0  0  0  0
  -31.0218    1.6982   -7.4401 O   0  0  0  0  0  0  0  0  0  0  0  0
  -31.8327    2.7007   -8.0638 C   0  0  2  0  0  0  0  0  0  0  0  0
  -26.7567    5.0918  -11.6654 N   0  0  0  0  0  0  0  0  0  0  0  0
  -33.6565    1.1844   -7.9154 O   0  0  0  0  0  0  0  0  0  0  0  0
  -33.2568    2.5592   -7.7864 C   0  0  2  0  0  0  0  0  0  0  0  0
  -28.7661    3.9307  -10.7888 C   0  0  0  0  0  0  0  0  0  0  0  0
  -29.4391    1.5692  -11.1548 N   0  0  0  0  0  0  0  0  0  0  0  0
  -35.1308    4.8514   -7.7720 O   0  0  0  0  0  0  0  0  0  0  0  0
  -34.0143    4.7495   -8.5946 C   0  0  0  0  0  0  0  0  0  0  0  0
  -37.0168    6.0779   -6.7751 O   0  0  0  0  0  0  0  0  0  0  0  0
  -30.4668    4.6134   -9.6242 C   0  0  0  0  0  0  0  0  0  0  0  0
  -27.0595    2.8605  -12.0052 O   0  0  0  0  0  0  0  0  0  0  0  0
  -27.4839    3.9077  -11.5169 C   0  0  0  0  0  0  0  0  0  0  0  0
  -29.6244    2.8772  -10.6514 C   0  0  0  0  0  0  0  0  0  0  0  0
  -34.5987    6.5570   -6.0199 O   0  5  0  0  0  0  0  0  0  0  0  0
  -35.1686    7.3326   -8.1067 O   0  0  0  0  0  0  0  0  0  0  0  0
  1 17  1  0  0  0  0
  1 20  1  0  0  0  0
  2 15  1  1  0  0  0
  2  3  1  0  0  0  0
  2 11  1  0  0  0  0
  3  5  1  0  0  0  0
  4 16  1  1  0  0  0
  4 21  1  0  0  0  0
  4 22  2  0  0  0  0
  4 14  1  0  0  0  0
  5  1  1  6  0  0  0
  5  8  1  0  0  0  0
  6 17  2  0  0  0  0
  6 12  1  0  0  0  0
  8  7  1  1  0  0  0
  8 11  1  0  0  0  0
  9 19  1  0  0  0  0
 11 10  1  6  0  0  0
 12 20  2  0  0  0  0
 12 19  1  0  0  0  0
 13 20  1  0  0  0  0
 14 15  1  0  0  0  0
 18 19  2  0  0  0  0
M  CHG  1  21  -1
M  END
>  <CHROM.1>
58.83131502,165.53395107,160.21718420,175.66921885,-4.93952372,-32.10924849
4.06766340,-8.98746128,0.24887887,-0.51173840,3.07120156

>  <Name>
ligand

>  <RI>
0

>  <Rbt.Current_Directory>
/home/itssahil/PROJECTS/Mol_Feturizer/Test_systems_manuscript/rnas/4xwf

>  <Rbt.Executable>
rbdock ($Id: //depot/dev/client3/rdock/2013.1/src/exe/rbdock.cxx#4 $)

>  <Rbt.Library>
libRbt.so (2013.1, Build901 2013/11/27)

>  <Rbt.Parameter_File>
/export/apps/rDock/src/rDock_2013.1_src/data/scripts/dock_solv.prm

>  <Rbt.Receptor>
prm/pocket_docking_6.prm

>  <SCORE>
-8.88597

>  <SCORE.INTER>
-8.84861

>  <SCORE.INTER.CONST>
1

>  <SCORE.INTER.POLAR>
0

>  <SCORE.INTER.ROT>
5

>  <SCORE.INTER.SOLV>
15.1006

>  <SCORE.INTER.VDW>
-17.8659

>  <SCORE.INTER.norm>
-0.40221

>  <SCORE.INTRA>
-0.0373636

>  <SCORE.INTRA.DIHEDRAL>
-0.536631

>  <SCORE.INTRA.DIHEDRAL.0>
3.49807

>  <SCORE.INTRA.POLAR>
0

>  <SCORE.INTRA.POLAR.0>
0

>  <SCORE.INTRA.REPUL>
0

>  <SCORE.INTRA.REPUL.0>
0

>  <SCORE.INTRA.SOLV>
-0.153988

>  <SCORE.INTRA.SOLV.lig_0>
-73.062

>  <SCORE.INTRA.VDW>
0.307946

>  <SCORE.INTRA.VDW.0>
-1.83782

>  <SCORE.INTRA.norm>
-0.00169834

>  <SCORE.RESTR>
0

>  <SCORE.RESTR.CAVITY>
0

>  <SCORE.RESTR.norm>
0

>  <SCORE.SYSTEM>
0

>  <SCORE.SYSTEM.CONST>
0

>  <SCORE.SYSTEM.DIHEDRAL>
0

>  <SCORE.SYSTEM.SOLV>
0

>  <SCORE.SYSTEM.norm>
0

>  <SCORE.heavy>
22

>  <SCORE.norm>
-0.403908

>  <RMSD>
7.398

$$$$
ligand
 OpenBabel02271912143D
libRbt.so/2013.1/901 2013/11/27
 22 23  0  0  0  0  0  0  0  0999 V2000
  -30.5624    3.3676   -9.9364 N   0  0  0  0  0  0  0  0  0  0  0  0
  -33.8121    3.2108   -9.0049 C   0  0  1  0  0  0  0  0  0  0  0  0
  -32.8546    3.1707  -10.1010 O   0  0  0  0  0  0  0  0  0  0  0  0
  -35.4104    5.9909   -6.9970 P   0  0  1  0  0  0  0  0  0  0  0  0
  -31.6429    2.5736   -9.6116 C   0  0  2  0  0  0  0  0  0  0  0  0
  -29.2333    5.0799  -10.0482 N   0  0  0  0  0  0  0  0  0  0  0  0
  -30.9502    1.6083   -7.5418 O   0  0  0  0  0  0  0  0  0  0  0  0
  -31.7689    2.6214   -8.1376 C   0  0  2  0  0  0  0  0  0  0  0  0
  -26.3013    3.2967  -10.8932 N   0  0  0  0  0  0  0  0  0  0  0  0
  -33.5570    1.0564   -8.1174 O   0  0  0  0  0  0  0  0  0  0  0  0
  -33.1960    2.4320   -7.9085 C   0  0  2  0  0  0  0  0  0  0  0  0
  -28.6543    4.0571  -10.6957 C   0  0  0  0  0  0  0  0  0  0  0  0
  -29.2372    1.6895  -11.1626 N   0  0  0  0  0  0  0  0  0  0  0  0
  -35.0689    4.6616   -7.7552 O   0  0  0  0  0  0  0  0  0  0  0  0
  -33.9863    4.6417   -8.6277 C   0  0  0  0  0  0  0  0  0  0  0  0
  -35.5232    7.0465   -8.1561 O   0  0  0  0  0  0  0  0  0  0  0  0
  -30.4217    4.6504   -9.5826 C   0  0  0  0  0  0  0  0  0  0  0  0
  -27.1578    4.8363  -12.3360 O   0  0  0  0  0  0  0  0  0  0  0  0
  -27.3434    4.0964  -11.3700 C   0  0  0  0  0  0  0  0  0  0  0  0
  -29.4839    2.9744  -10.6271 C   0  0  0  0  0  0  0  0  0  0  0  0
  -36.6597    5.8085   -6.2010 O   0  5  0  0  0  0  0  0  0  0  0  0
  -34.4214    6.2565   -5.9369 O   0  0  0  0  0  0  0  0  0  0  0  0
  1 17  1  0  0  0  0
  1 20  1  0  0  0  0
  2 15  1  1  0  0  0
  2  3  1  0  0  0  0
  2 11  1  0  0  0  0
  3  5  1  0  0  0  0
  4 16  1  6  0  0  0
  4 21  1  0  0  0  0
  4 22  2  0  0  0  0
  4 14  1  0  0  0  0
  5  1  1  1  0  0  0
  5  8  1  0  0  0  0
  6 17  2  0  0  0  0
  6 12  1  0  0  0  0
  8  7  1  1  0  0  0
  8 11  1  0  0  0  0
  9 19  1  0  0  0  0
 11 10  1  6  0  0  0
 12 20  2  0  0  0  0
 12 19  1  0  0  0  0
 13 20  1  0  0  0  0
 14 15  1  0  0  0  0
 18 19  2  0  0  0  0
M  CHG  1  21  -1
M  END
>  <CHROM.1>
57.47306753,169.73307282,53.36695754,171.45434676,115.66725855,-32.01634300
4.01205307,-8.94420044,0.20198675,-0.50696361,3.07637462

>  <Name>
ligand

>  <RI>
0

>  <Rbt.Current_Directory>
/home/itssahil/PROJECTS/Mol_Feturizer/Test_systems_manuscript/rnas/4xwf

>  <Rbt.Executable>
rbdock ($Id: //depot/dev/client3/rdock/2013.1/src/exe/rbdock.cxx#4 $)

>  <Rbt.Library>
libRbt.so (2013.1, Build901 2013/11/27)

>  <Rbt.Parameter_File>
/export/apps/rDock/src/rDock_2013.1_src/data/scripts/dock_solv.prm

>  <Rbt.Receptor>
prm/pocket_docking_6.prm

>  <SCORE>
-9.89307

>  <SCORE.INTER>
-9.0773

>  <SCORE.INTER.CONST>
1

>  <SCORE.INTER.POLAR>
0

>  <SCORE.INTER.ROT>
5

>  <SCORE.INTER.SOLV>
10.8187

>  <SCORE.INTER.VDW>
-16.5911

>  <SCORE.INTER.norm>
-0.412605

>  <SCORE.INTRA>
-0.815765

>  <SCORE.INTRA.DIHEDRAL>
-1.16548

>  <SCORE.INTRA.DIHEDRAL.0>
3.49807

>  <SCORE.INTRA.POLAR>
0

>  <SCORE.INTRA.POLAR.0>
0

>  <SCORE.INTRA.REPUL>
0

>  <SCORE.INTRA.REPUL.0>
0

>  <SCORE.INTRA.SOLV>
-0.688024

>  <SCORE.INTRA.SOLV.lig_0>
-73.062

>  <SCORE.INTRA.VDW>
0.110987

>  <SCORE.INTRA.VDW.0>
-1.83782

>  <SCORE.INTRA.norm>
-0.0370802

>  <SCORE.RESTR>
0

>  <SCORE.RESTR.CAVITY>
0

>  <SCORE.RESTR.norm>
0

>  <SCORE.SYSTEM>
0

>  <SCORE.SYSTEM.CONST>
0

>  <SCORE.SYSTEM.DIHEDRAL>
0

>  <SCORE.SYSTEM.SOLV>
0

>  <SCORE.SYSTEM.norm>
0

>  <SCORE.heavy>
22

>  <SCORE.norm>
-0.449685

>  <RMSD>
7.398

$$$$
ligand
 OpenBabel02271912143D
libRbt.so/2013.1/901 2013/11/27
 22 23  0  0  0  0  0  0  0  0999 V2000
  -30.4980    4.4514   -8.6523 N   0  0  0  0  0  0  0  0  0  0  0  0
  -33.7441    3.7796   -9.3334 C   0  0  1  0  0  0  0  0  0  0  0  0
  -32.5764    4.5926   -9.6423 O   0  0  0  0  0  0  0  0  0  0  0  0
  -35.2440    6.5421   -7.2175 P   0  0  1  0  0  0  0  0  0  0  0  0
  -31.4060    3.7825   -9.4468 C   0  0  2  0  0  0  0  0  0  0  0  0
  -29.6752    5.6885   -7.0700 N   0  0  0  0  0  0  0  0  0  0  0  0
  -31.0058    1.5051   -8.8558 O   0  0  0  0  0  0  0  0  0  0  0  0
  -31.8787    2.6233   -8.6570 C   0  0  2  0  0  0  0  0  0  0  0  0
  -26.4493    6.0577   -8.4917 N   0  0  0  0  0  0  0  0  0  0  0  0
  -33.2021    1.7886  -10.4456 O   0  0  0  0  0  0  0  0  0  0  0  0
  -33.2340    2.4036   -9.1467 C   0  0  2  0  0  0  0  0  0  0  0  0
  -28.6547    5.1764   -7.7751 C   0  0  0  0  0  0  0  0  0  0  0  0
  -28.4258    3.6546   -9.7232 N   0  0  0  0  0  0  0  0  0  0  0  0
  -34.5911    5.6603   -8.3376 O   0  0  0  0  0  0  0  0  0  0  0  0
  -34.3332    4.3191   -8.0757 C   0  0  0  0  0  0  0  0  0  0  0  0
  -36.7153    5.9945   -7.1414 O   0  0  0  0  0  0  0  0  0  0  0  0
  -30.8196    5.2412   -7.6211 C   0  0  0  0  0  0  0  0  0  0  0  0
  -26.7044    5.0526   -6.4643 O   0  0  0  0  0  0  0  0  0  0  0  0
  -27.2231    5.4196   -7.5185 C   0  0  0  0  0  0  0  0  0  0  0  0
  -29.1649    4.3938   -8.7714 C   0  0  0  0  0  0  0  0  0  0  0  0
  -34.4650    6.4043   -5.9517 O   0  5  0  0  0  0  0  0  0  0  0  0
  -35.0724    7.9756   -7.5147 O   0  0  0  0  0  0  0  0  0  0  0  0
  1 17  1  0  0  0  0
  1 20  1  0  0  0  0
  2 15  1  1  0  0  0
  2  3  1  0  0  0  0
  2 11  1  0  0  0  0
  3  5  1  0  0  0  0
  4 16  1  1  0  0  0
  4 21  1  0  0  0  0
  4 22  2  0  0  0  0
  4 14  1  0  0  0  0
  5  1  1  1  0  0  0
  5  8  1  0  0  0  0
  6 17  2  0  0  0  0
  6 12  1  0  0  0  0
  8  7  1  6  0  0  0
  8 11  1  0  0  0  0
  9 19  1  0  0  0  0
 11 10  1  6  0  0  0
 12 20  2  0  0  0  0
 12 19  1  0  0  0  0
 13 20  1  0  0  0  0
 14 15  1  0  0  0  0
 18 19  2  0  0  0  0
M  CHG  1  21  -1
M  END
>  <CHROM.1>
36.63816915,56.62655155,-70.63554694,179.11455479,-117.42393272,-31.90517578
4.77521182,-8.19906341,0.17708476,0.02974442,-2.58491519

>  <Name>
ligand

>  <RI>
0

>  <Rbt.Current_Directory>
/home/itssahil/PROJECTS/Mol_Feturizer/Test_systems_manuscript/rnas/4xwf

>  <Rbt.Executable>
rbdock ($Id: //depot/dev/client3/rdock/2013.1/src/exe/rbdock.cxx#4 $)

>  <Rbt.Library>
libRbt.so (2013.1, Build901 2013/11/27)

>  <Rbt.Parameter_File>
/export/apps/rDock/src/rDock_2013.1_src/data/scripts/dock_solv.prm

>  <Rbt.Receptor>
prm/pocket_docking_6.prm

>  <SCORE>
-8.51786

>  <SCORE.INTER>
-7.1763

>  <SCORE.INTER.CONST>
1

>  <SCORE.INTER.POLAR>
0

>  <SCORE.INTER.ROT>
5

>  <SCORE.INTER.SOLV>
12.3909

>  <SCORE.INTER.VDW>
-15.8478

>  <SCORE.INTER.norm>
-0.326195

>  <SCORE.INTRA>
-1.34156

>  <SCORE.INTRA.DIHEDRAL>
-1.74737

>  <SCORE.INTRA.DIHEDRAL.0>
3.49807

>  <SCORE.INTRA.POLAR>
0

>  <SCORE.INTRA.POLAR.0>
0

>  <SCORE.INTRA.REPUL>
0

>  <SCORE.INTRA.REPUL.0>
0

>  <SCORE.INTRA.SOLV>
-0.0643368

>  <SCORE.INTRA.SOLV.lig_0>
-73.062

>  <SCORE.INTRA.VDW>
-0.435707

>  <SCORE.INTRA.VDW.0>
-1.83782

>  <SCORE.INTRA.norm>
-0.0609802

>  <SCORE.RESTR>
0

>  <SCORE.RESTR.CAVITY>
0

>  <SCORE.RESTR.norm>
0

>  <SCORE.SYSTEM>
0

>  <SCORE.SYSTEM.CONST>
0

>  <SCORE.SYSTEM.DIHEDRAL>
0

>  <SCORE.SYSTEM.SOLV>
0

>  <SCORE.SYSTEM.norm>
0

>  <SCORE.heavy>
22

>  <SCORE.norm>
-0.387176

>  <RMSD>
7.402

$$$$
ligand
 OpenBabel02271912143D
libRbt.so/2013.1/901 2013/11/27
 22 23  0  0  0  0  0  0  0  0999 V2000
  -30.6223    3.3482   -9.9211 N   0  0  0  0  0  0  0  0  0  0  0  0
  -33.8631    3.3008   -8.9478 C   0  0  1  0  0  0  0  0  0  0  0  0
  -32.9198    3.1919  -10.0515 O   0  0  0  0  0  0  0  0  0  0  0  0
  -35.4880    6.2277   -7.1766 P   0  0  1  0  0  0  0  0  0  0  0  0
  -31.7147    2.5922   -9.5491 C   0  0  2  0  0  0  0  0  0  0  0  0
  -29.2484    5.0184  -10.1049 N   0  0  0  0  0  0  0  0  0  0  0  0
  -31.0171    1.7059   -7.4458 O   0  0  0  0  0  0  0  0  0  0  0  0
  -31.8221    2.7083   -8.0775 C   0  0  2  0  0  0  0  0  0  0  0  0
  -27.4020    3.6592  -12.8297 N   0  0  0  0  0  0  0  0  0  0  0  0
  -33.6413    1.1833   -7.9673 O   0  0  0  0  0  0  0  0  0  0  0  0
  -33.2499    2.5591   -7.8244 C   0  0  2  0  0  0  0  0  0  0  0  0
  -28.7193    3.9678  -10.7503 C   0  0  0  0  0  0  0  0  0  0  0  0
  -29.3842    1.6103  -11.1551 N   0  0  0  0  0  0  0  0  0  0  0  0
  -35.1149    4.8391   -7.8020 O   0  0  0  0  0  0  0  0  0  0  0  0
  -34.0037    4.7504   -8.6333 C   0  0  0  0  0  0  0  0  0  0  0  0
  -36.9945    6.0439   -6.7674 O   0  0  0  0  0  0  0  0  0  0  0  0
  -30.4339    4.6323   -9.5957 C   0  0  0  0  0  0  0  0  0  0  0  0
  -26.3796    4.1913  -10.8657 O   0  0  0  0  0  0  0  0  0  0  0  0
  -27.4291    3.9565  -11.4644 C   0  0  0  0  0  0  0  0  0  0  0  0
  -29.5772    2.9112  -10.6365 C   0  0  0  0  0  0  0  0  0  0  0  0
  -34.5692    6.5299   -6.0397 O   0  5  0  0  0  0  0  0  0  0  0  0
  -35.1717    7.3232   -8.1106 O   0  0  0  0  0  0  0  0  0  0  0  0
  1 17  1  0  0  0  0
  1 20  1  0  0  0  0
  2 15  1  1  0  0  0
  2  3  1  0  0  0  0
  2 11  1  0  0  0  0
  3  5  1  0  0  0  0
  4 16  1  1  0  0  0
  4 21  1  0  0  0  0
  4 22  2  0  0  0  0
  4 14  1  0  0  0  0
  5  1  1  6  0  0  0
  5  8  1  0  0  0  0
  6 17  2  0  0  0  0
  6 12  1  0  0  0  0
  8  7  1  1  0  0  0
  8 11  1  0  0  0  0
  9 19  1  0  0  0  0
 11 10  1  6  0  0  0
 12 20  2  0  0  0  0
 12 19  1  0  0  0  0
 13 20  1  0  0  0  0
 14 15  1  0  0  0  0
 18 19  2  0  0  0  0
M  CHG  1  21  -1
M  END
>  <CHROM.1>
59.40276932,166.94781607,160.64667726,175.03601477,-120.33459889,-32.08041711
4.07641890,-8.98776690,0.24437033,-0.50118082,3.08093885

>  <Name>
ligand

>  <RI>
0

>  <Rbt.Current_Directory>
/home/itssahil/PROJECTS/Mol_Feturizer/Test_systems_manuscript/rnas/4xwf

>  <Rbt.Executable>
rbdock ($Id: //depot/dev/client3/rdock/2013.1/src/exe/rbdock.cxx#4 $)

>  <Rbt.Library>
libRbt.so (2013.1, Build901 2013/11/27)

>  <Rbt.Parameter_File>
/export/apps/rDock/src/rDock_2013.1_src/data/scripts/dock_solv.prm

>  <Rbt.Receptor>
prm/pocket_docking_7.prm

>  <SCORE>
-9.08598

>  <SCORE.INTER>
-8.87802

>  <SCORE.INTER.CONST>
1

>  <SCORE.INTER.POLAR>
0

>  <SCORE.INTER.ROT>
5

>  <SCORE.INTER.SOLV>
15.0396

>  <SCORE.INTER.VDW>
-17.8652

>  <SCORE.INTER.norm>
-0.403546

>  <SCORE.INTRA>
-0.207958

>  <SCORE.INTRA.DIHEDRAL>
-0.676961

>  <SCORE.INTRA.DIHEDRAL.0>
3.49807

>  <SCORE.INTRA.POLAR>
0

>  <SCORE.INTRA.POLAR.0>
0

>  <SCORE.INTRA.REPUL>
0

>  <SCORE.INTRA.REPUL.0>
0

>  <SCORE.INTRA.SOLV>
-0.0747581

>  <SCORE.INTRA.SOLV.lig_0>
-73.062

>  <SCORE.INTRA.VDW>
0.167902

>  <SCORE.INTRA.VDW.0>
-1.83782

>  <SCORE.INTRA.norm>
-0.00945263

>  <SCORE.RESTR>
0

>  <SCORE.RESTR.CAVITY>
0

>  <SCORE.RESTR.norm>
0

>  <SCORE.SYSTEM>
0

>  <SCORE.SYSTEM.CONST>
0

>  <SCORE.SYSTEM.DIHEDRAL>
0

>  <SCORE.SYSTEM.SOLV>
0

>  <SCORE.SYSTEM.norm>
0

>  <SCORE.heavy>
22

>  <SCORE.norm>
-0.412999

>  <RMSD>
7.406

$$$$
ligand
 OpenBabel02271912143D
libRbt.so/2013.1/901 2013/11/27
 22 23  0  0  0  0  0  0  0  0999 V2000
  -30.6833    3.3767   -9.9317 N   0  0  0  0  0  0  0  0  0  0  0  0
  -33.9155    3.2778   -8.9339 C   0  0  1  0  0  0  0  0  0  0  0  0
  -32.9802    3.2011  -10.0471 O   0  0  0  0  0  0  0  0  0  0  0  0
  -35.4836    6.1273   -7.0010 P   0  0  1  0  0  0  0  0  0  0  0  0
  -31.7654    2.6026   -9.5670 C   0  0  2  0  0  0  0  0  0  0  0  0
  -29.3008    5.0456  -10.0521 N   0  0  0  0  0  0  0  0  0  0  0  0
  -31.0424    1.6793   -7.4883 O   0  0  0  0  0  0  0  0  0  0  0  0
  -31.8620    2.6869   -8.0924 C   0  0  2  0  0  0  0  0  0  0  0  0
  -26.6883    5.1600  -11.4235 N   0  0  0  0  0  0  0  0  0  0  0  0
  -33.6657    1.1425   -7.9999 O   0  0  0  0  0  0  0  0  0  0  0  0
  -33.2862    2.5187   -7.8312 C   0  0  2  0  0  0  0  0  0  0  0  0
  -28.8146    4.0439  -10.8010 C   0  0  0  0  0  0  0  0  0  0  0  0
  -29.5245    1.7299  -11.3533 N   0  0  0  0  0  0  0  0  0  0  0  0
  -35.1591    4.7768   -7.7287 O   0  0  0  0  0  0  0  0  0  0  0  0
  -34.0672    4.7191   -8.5879 C   0  0  0  0  0  0  0  0  0  0  0  0
  -35.4875    7.1747   -8.1728 O   0  0  0  0  0  0  0  0  0  0  0  0
  -30.4652    4.6304   -9.5180 C   0  0  0  0  0  0  0  0  0  0  0  0
  -27.2833    3.1714  -12.3602 O   0  0  0  0  0  0  0  0  0  0  0  0
  -27.5597    4.0780  -11.5748 C   0  0  0  0  0  0  0  0  0  0  0  0
  -29.6781    2.9883  -10.7277 C   0  0  0  0  0  0  0  0  0  0  0  0
  -36.7811    6.0065   -6.2731 O   0  5  0  0  0  0  0  0  0  0  0  0
  -34.5432    6.3613   -5.8904 O   0  0  0  0  0  0  0  0  0  0  0  0
  1 17  1  0  0  0  0
  1 20  1  0  0  0  0
  2 15  1  1  0  0  0
  2  3  1  0  0  0  0
  2 11  1  0  0  0  0
  3  5  1  0  0  0  0
  4 16  1  6  0  0  0
  4 21  1  0  0  0  0
  4 22  2  0  0  0  0
  4 14  1  0  0  0  0
  5  1  1  6  0  0  0
  5  8  1  0  0  0  0
  6 17  2  0  0  0  0
  6 12  1  0  0  0  0
  8  7  1  1  0  0  0
  8 11  1  0  0  0  0
  9 19  1  0  0  0  0
 11 10  1  6  0  0  0
 12 20  2  0  0  0  0
 12 19  1  0  0  0  0
 13 20  1  0  0  0  0
 14 15  1  0  0  0  0
 18 19  2  0  0  0  0
M  CHG  1  21  -1
M  END
>  <CHROM.1>
63.48790507,167.89226814,50.47477745,171.40902625,8.25073082,-32.13844561
4.07129789,-8.96775008,0.23708415,-0.52870439,3.11566696

>  <Name>
ligand

>  <RI>
0

>  <Rbt.Current_Directory>
/home/itssahil/PROJECTS/Mol_Feturizer/Test_systems_manuscript/rnas/4xwf

>  <Rbt.Executable>
rbdock ($Id: //depot/dev/client3/rdock/2013.1/src/exe/rbdock.cxx#4 $)

>  <Rbt.Library>
libRbt.so (2013.1, Build901 2013/11/27)

>  <Rbt.Parameter_File>
/export/apps/rDock/src/rDock_2013.1_src/data/scripts/dock_solv.prm

>  <Rbt.Receptor>
prm/pocket_docking_6.prm

>  <SCORE>
-9.70794

>  <SCORE.INTER>
-9.29711

>  <SCORE.INTER.CONST>
1

>  <SCORE.INTER.POLAR>
0

>  <SCORE.INTER.ROT>
5

>  <SCORE.INTER.SOLV>
12.8169

>  <SCORE.INTER.VDW>
-17.4037

>  <SCORE.INTER.norm>
-0.422596

>  <SCORE.INTRA>
-0.410827

>  <SCORE.INTRA.DIHEDRAL>
-0.862083

>  <SCORE.INTRA.DIHEDRAL.0>
3.49807

>  <SCORE.INTRA.POLAR>
0

>  <SCORE.INTRA.POLAR.0>
0

>  <SCORE.INTRA.REPUL>
0

>  <SCORE.INTRA.REPUL.0>
0

>  <SCORE.INTRA.SOLV>
-0.903187

>  <SCORE.INTRA.SOLV.lig_0>
-73.062

>  <SCORE.INTRA.VDW>
0.471808

>  <SCORE.INTRA.VDW.0>
-1.83782

>  <SCORE.INTRA.norm>
-0.018674

>  <SCORE.RESTR>
0

>  <SCORE.RESTR.CAVITY>
0

>  <SCORE.RESTR.norm>
0

>  <SCORE.SYSTEM>
0

>  <SCORE.SYSTEM.CONST>
0

>  <SCORE.SYSTEM.DIHEDRAL>
0

>  <SCORE.SYSTEM.SOLV>
0

>  <SCORE.SYSTEM.norm>
0

>  <SCORE.heavy>
22

>  <SCORE.norm>
-0.44127

>  <RMSD>
7.408

$$$$
ligand
 OpenBabel02271912143D
libRbt.so/2013.1/901 2013/11/27
 22 23  0  0  0  0  0  0  0  0999 V2000
  -30.6582    3.3211   -9.9091 N   0  0  0  0  0  0  0  0  0  0  0  0
  -33.8892    3.2982   -8.9026 C   0  0  1  0  0  0  0  0  0  0  0  0
  -32.9576    3.1751  -10.0148 O   0  0  0  0  0  0  0  0  0  0  0  0
  -35.4882    6.2502   -7.1491 P   0  0  1  0  0  0  0  0  0  0  0  0
  -31.7505    2.5737   -9.5195 C   0  0  2  0  0  0  0  0  0  0  0  0
  -29.2745    4.9805  -10.1153 N   0  0  0  0  0  0  0  0  0  0  0  0
  -31.0358    1.7021   -7.4158 O   0  0  0  0  0  0  0  0  0  0  0  0
  -31.8423    2.7030   -8.0479 C   0  0  2  0  0  0  0  0  0  0  0  0
  -27.4858    3.6428  -12.8760 N   0  0  0  0  0  0  0  0  0  0  0  0
  -33.6677    1.1881   -7.9062 O   0  0  0  0  0  0  0  0  0  0  0  0
  -33.2682    2.5631   -7.7791 C   0  0  2  0  0  0  0  0  0  0  0  0
  -28.7638    3.9255  -10.7686 C   0  0  0  0  0  0  0  0  0  0  0  0
  -29.4535    1.5732  -11.1619 N   0  0  0  0  0  0  0  0  0  0  0  0
  -35.1224    4.8526   -7.7585 O   0  0  0  0  0  0  0  0  0  0  0  0
  -34.0194    4.7512   -8.5992 C   0  0  0  0  0  0  0  0  0  0  0  0
  -37.0012    6.0857   -6.7562 O   0  0  0  0  0  0  0  0  0  0  0  0
  -30.4546    4.6038   -9.5872 C   0  0  0  0  0  0  0  0  0  0  0  0
  -26.4216    4.0987  -10.9150 O   0  0  0  0  0  0  0  0  0  0  0  0
  -27.4853    3.9040  -11.5031 C   0  0  0  0  0  0  0  0  0  0  0  0
  -29.6281    2.8758  -10.6408 C   0  0  0  0  0  0  0  0  0  0  0  0
  -34.5797    6.5523   -6.0039 O   0  5  0  0  0  0  0  0  0  0  0  0
  -35.1494    7.3345   -8.0883 O   0  0  0  0  0  0  0  0  0  0  0  0
  1 17  1  0  0  0  0
  1 20  1  0  0  0  0
  2 15  1  1  0  0  0
  2  3  1  0  0  0  0
  2 11  1  0  0  0  0
  3  5  1  0  0  0  0
  4 16  1  1  0  0  0
  4 21  1  0  0  0  0
  4 22  2  0  0  0  0
  4 14  1  0  0  0  0
  5  1  1  6  0  0  0
  5  8  1  0  0  0  0
  6 17  2  0  0  0  0
  6 12  1  0  0  0  0
  8  7  1  1  0  0  0
  8 11  1  0  0  0  0
  9 19  1  0  0  0  0
 11 10  1  6  0  0  0
 12 20  2  0  0  0  0
 12 19  1  0  0  0  0
 13 20  1  0  0  0  0
 14 15  1  0  0  0  0
 18 19  2  0  0  0  0
M  CHG  1  21  -1
M  END
>  <CHROM.1>
60.00246692,166.89416035,159.25780310,175.43168205,-118.56418949,-32.10671999
4.06591777,-8.97262973,0.24622784,-0.51309120,3.06901931

>  <Name>
ligand

>  <RI>
0

>  <Rbt.Current_Directory>
/home/itssahil/PROJECTS/Mol_Feturizer/Test_systems_manuscript/rnas/4xwf

>  <Rbt.Executable>
rbdock ($Id: //depot/dev/client3/rdock/2013.1/src/exe/rbdock.cxx#4 $)

>  <Rbt.Library>
libRbt.so (2013.1, Build901 2013/11/27)

>  <Rbt.Parameter_File>
/export/apps/rDock/src/rDock_2013.1_src/data/scripts/dock_solv.prm

>  <Rbt.Receptor>
prm/pocket_docking_8.prm

>  <SCORE>
-9.16766

>  <SCORE.INTER>
-9.00902

>  <SCORE.INTER.CONST>
1

>  <SCORE.INTER.POLAR>
0

>  <SCORE.INTER.ROT>
5

>  <SCORE.INTER.SOLV>
15.0731

>  <SCORE.INTER.VDW>
-17.9637

>  <SCORE.INTER.norm>
-0.409501

>  <SCORE.INTRA>
-0.158644

>  <SCORE.INTRA.DIHEDRAL>
-0.608548

>  <SCORE.INTRA.DIHEDRAL.0>
3.49807

>  <SCORE.INTRA.POLAR>
0

>  <SCORE.INTRA.POLAR.0>
0

>  <SCORE.INTRA.REPUL>
0

>  <SCORE.INTRA.REPUL.0>
0

>  <SCORE.INTRA.SOLV>
-0.110778

>  <SCORE.INTRA.SOLV.lig_0>
-73.062

>  <SCORE.INTRA.VDW>
0.201019

>  <SCORE.INTRA.VDW.0>
-1.83782

>  <SCORE.INTRA.norm>
-0.00721111

>  <SCORE.RESTR>
0

>  <SCORE.RESTR.CAVITY>
0

>  <SCORE.RESTR.norm>
0

>  <SCORE.SYSTEM>
0

>  <SCORE.SYSTEM.CONST>
0

>  <SCORE.SYSTEM.DIHEDRAL>
0

>  <SCORE.SYSTEM.SOLV>
0

>  <SCORE.SYSTEM.norm>
0

>  <SCORE.heavy>
22

>  <SCORE.norm>
-0.416712

>  <RMSD>
7.412

$$$$
ligand
 OpenBabel02271912143D
libRbt.so/2013.1/901 2013/11/27
 22 23  0  0  0  0  0  0  0  0999 V2000
  -30.6675    3.3329   -9.9299 N   0  0  0  0  0  0  0  0  0  0  0  0
  -33.8914    3.3022   -8.9015 C   0  0  1  0  0  0  0  0  0  0  0  0
  -32.9668    3.1754  -10.0190 O   0  0  0  0  0  0  0  0  0  0  0  0
  -35.5041    6.2634   -7.1745 P   0  0  1  0  0  0  0  0  0  0  0  0
  -31.7535    2.5833   -9.5275 C   0  0  2  0  0  0  0  0  0  0  0  0
  -29.2801    4.9891  -10.1378 N   0  0  0  0  0  0  0  0  0  0  0  0
  -31.0206    1.7305   -7.4224 O   0  0  0  0  0  0  0  0  0  0  0  0
  -31.8361    2.7229   -8.0563 C   0  0  2  0  0  0  0  0  0  0  0  0
  -26.4768    3.1233  -11.1666 N   0  0  0  0  0  0  0  0  0  0  0  0
  -33.6533    1.2005   -7.8913 O   0  0  0  0  0  0  0  0  0  0  0  0
  -33.2595    2.5783   -7.7769 C   0  0  2  0  0  0  0  0  0  0  0  0
  -28.7925    3.9453  -10.8256 C   0  0  0  0  0  0  0  0  0  0  0  0
  -29.5053    1.6051  -11.2490 N   0  0  0  0  0  0  0  0  0  0  0  0
  -35.1211    4.8586   -7.7561 O   0  0  0  0  0  0  0  0  0  0  0  0
  -34.0265    4.7567   -8.6078 C   0  0  0  0  0  0  0  0  0  0  0  0
  -37.0162    6.0895   -6.7823 O   0  0  0  0  0  0  0  0  0  0  0  0
  -30.4484    4.6077   -9.5872 C   0  0  0  0  0  0  0  0  0  0  0  0
  -27.4025    4.6372  -12.5938 O   0  0  0  0  0  0  0  0  0  0  0  0
  -27.5334    3.9323  -11.5933 C   0  0  0  0  0  0  0  0  0  0  0  0
  -29.6591    2.8975  -10.6970 C   0  0  0  0  0  0  0  0  0  0  0  0
  -34.6021    6.5975   -6.0331 O   0  5  0  0  0  0  0  0  0  0  0  0
  -35.1749    7.3333   -8.1335 O   0  0  0  0  0  0  0  0  0  0  0  0
  1 17  1  0  0  0  0
  1 20  1  0  0  0  0
  2 15  1  1  0  0  0
  2  3  1  0  0  0  0
  2 11  1  0  0  0  0
  3  5  1  0  0  0  0
  4 16  1  1  0  0  0
  4 21  1  0  0  0  0
  4 22  2  0  0  0  0
  4 14  1  0  0  0  0
  5  1  1  6  0  0  0
  5  8  1  0  0  0  0
  6 17  2  0  0  0  0
  6 12  1  0  0  0  0
  8  7  1  1  0  0  0
  8 11  1  0  0  0  0
  9 19  1  0  0  0  0
 11 10  1  6  0  0  0
 12 20  2  0  0  0  0
 12 19  1  0  0  0  0
 13 20  1  0  0  0  0
 14 15  1  0  0  0  0
 18 19  2  0  0  0  0
M  CHG  1  21  -1
M  END
>  <CHROM.1>
62.02166693,167.12497790,158.31880732,176.55076031,113.46495099,-32.12141907
4.08290689,-9.00229722,0.21338929,-0.53045091,3.00514650

>  <Name>
ligand

>  <RI>
0

>  <Rbt.Current_Directory>
/home/itssahil/PROJECTS/Mol_Feturizer/Test_systems_manuscript/rnas/4xwf

>  <Rbt.Executable>
rbdock ($Id: //depot/dev/client3/rdock/2013.1/src/exe/rbdock.cxx#4 $)

>  <Rbt.Library>
libRbt.so (2013.1, Build901 2013/11/27)

>  <Rbt.Parameter_File>
/export/apps/rDock/src/rDock_2013.1_src/data/scripts/dock_solv.prm

>  <Rbt.Receptor>
prm/pocket_docking_6.prm

>  <SCORE>
-9.11072

>  <SCORE.INTER>
-8.99245

>  <SCORE.INTER.CONST>
1

>  <SCORE.INTER.POLAR>
0

>  <SCORE.INTER.ROT>
5

>  <SCORE.INTER.SOLV>
15.6776

>  <SCORE.INTER.VDW>
-18.1542

>  <SCORE.INTER.norm>
-0.408748

>  <SCORE.INTRA>
-0.118272

>  <SCORE.INTRA.DIHEDRAL>
-0.576664

>  <SCORE.INTRA.DIHEDRAL.0>
3.49807

>  <SCORE.INTRA.POLAR>
0

>  <SCORE.INTRA.POLAR.0>
0

>  <SCORE.INTRA.REPUL>
0

>  <SCORE.INTRA.REPUL.0>
0

>  <SCORE.INTRA.SOLV>
-0.218687

>  <SCORE.INTRA.SOLV.lig_0>
-73.062

>  <SCORE.INTRA.VDW>
0.279404

>  <SCORE.INTRA.VDW.0>
-1.83782

>  <SCORE.INTRA.norm>
-0.00537599

>  <SCORE.RESTR>
0

>  <SCORE.RESTR.CAVITY>
0

>  <SCORE.RESTR.norm>
0

>  <SCORE.SYSTEM>
0

>  <SCORE.SYSTEM.CONST>
0

>  <SCORE.SYSTEM.DIHEDRAL>
0

>  <SCORE.SYSTEM.SOLV>
0

>  <SCORE.SYSTEM.norm>
0

>  <SCORE.heavy>
22

>  <SCORE.norm>
-0.414124

>  <RMSD>
7.415

$$$$
ligand
 OpenBabel02271912143D
libRbt.so/2013.1/901 2013/11/27
 22 23  0  0  0  0  0  0  0  0999 V2000
  -30.6191    3.3541   -9.9107 N   0  0  0  0  0  0  0  0  0  0  0  0
  -33.8656    3.2628   -8.9597 C   0  0  1  0  0  0  0  0  0  0  0  0
  -32.9135    3.1687  -10.0572 O   0  0  0  0  0  0  0  0  0  0  0  0
  -35.5053    6.1566   -7.1498 P   0  0  1  0  0  0  0  0  0  0  0  0
  -31.7042    2.5833   -9.5480 C   0  0  2  0  0  0  0  0  0  0  0  0
  -29.2684    5.0441  -10.0855 N   0  0  0  0  0  0  0  0  0  0  0  0
  -31.0096    1.7009   -7.4421 O   0  0  0  0  0  0  0  0  0  0  0  0
  -31.8231    2.6944   -8.0768 C   0  0  2  0  0  0  0  0  0  0  0  0
  -26.4070    3.1370  -10.9996 N   0  0  0  0  0  0  0  0  0  0  0  0
  -33.6232    1.1459   -7.9827 O   0  0  0  0  0  0  0  0  0  0  0  0
  -33.2506    2.5262   -7.8339 C   0  0  2  0  0  0  0  0  0  0  0  0
  -28.7165    3.9991  -10.7211 C   0  0  0  0  0  0  0  0  0  0  0  0
  -29.3416    1.6306  -11.1244 N   0  0  0  0  0  0  0  0  0  0  0  0
  -35.1292    4.7791   -7.7977 O   0  0  0  0  0  0  0  0  0  0  0  0
  -34.0269    4.7097   -8.6427 C   0  0  0  0  0  0  0  0  0  0  0  0
  -37.0176    5.9708   -6.7640 O   0  0  0  0  0  0  0  0  0  0  0  0
  -30.4535    4.6422   -9.5881 C   0  0  0  0  0  0  0  0  0  0  0  0
  -27.2158    4.7749  -12.3593 O   0  0  0  0  0  0  0  0  0  0  0  0
  -27.4184    4.0046  -11.4209 C   0  0  0  0  0  0  0  0  0  0  0  0
  -29.5598    2.9303  -10.6128 C   0  0  0  0  0  0  0  0  0  0  0  0
  -34.6003    6.4324   -5.9954 O   0  5  0  0  0  0  0  0  0  0  0  0
  -35.1727    7.2691   -8.0577 O   0  0  0  0  0  0  0  0  0  0  0  0
  1 17  1  0  0  0  0
  1 20  1  0  0  0  0
  2 15  1  1  0  0  0
  2  3  1  0  0  0  0
  2 11  1  0  0  0  0
  3  5  1  0  0  0  0
  4 16  1  1  0  0  0
  4 21  1  0  0  0  0
  4 22  2  0  0  0  0
  4 14  1  0  0  0  0
  5  1  1  6  0  0  0
  5  8  1  0  0  0  0
  6 17  2  0  0  0  0
  6 12  1  0  0  0  0
  8  7  1  1  0  0  0
  8 11  1  0  0  0  0
  9 19  1  0  0  0  0
 11 10  1  6  0  0  0
 12 20  2  0  0  0  0
 12 19  1  0  0  0  0
 13 20  1  0  0  0  0
 14 15  1  0  0  0  0
 18 19  2  0  0  0  0
M  CHG  1  21  -1
M  END
>  <CHROM.1>
58.96068563,168.07358496,159.06160673,174.11406650,119.78852481,-32.08140807
4.05955686,-8.97052128,0.21251979,-0.50299018,3.03898900

>  <Name>
ligand

>  <RI>
0

>  <Rbt.Current_Directory>
/home/itssahil/PROJECTS/Mol_Feturizer/Test_systems_manuscript/rnas/4xwf

>  <Rbt.Executable>
rbdock ($Id: //depot/dev/client3/rdock/2013.1/src/exe/rbdock.cxx#4 $)

>  <Rbt.Library>
libRbt.so (2013.1, Build901 2013/11/27)

>  <Rbt.Parameter_File>
/export/apps/rDock/src/rDock_2013.1_src/data/scripts/dock_solv.prm

>  <Rbt.Receptor>
prm/pocket_docking_7.prm

>  <SCORE>
-8.97787

>  <SCORE.INTER>
-8.81179

>  <SCORE.INTER.CONST>
1

>  <SCORE.INTER.POLAR>
0

>  <SCORE.INTER.ROT>
5

>  <SCORE.INTER.SOLV>
14.6583

>  <SCORE.INTER.VDW>
-17.694

>  <SCORE.INTER.norm>
-0.400536

>  <SCORE.INTRA>
-0.166071

>  <SCORE.INTRA.DIHEDRAL>
-0.632327

>  <SCORE.INTRA.DIHEDRAL.0>
3.49807

>  <SCORE.INTRA.POLAR>
0

>  <SCORE.INTRA.POLAR.0>
0

>  <SCORE.INTRA.REPUL>
0

>  <SCORE.INTRA.REPUL.0>
0

>  <SCORE.INTRA.SOLV>
-0.0584801

>  <SCORE.INTRA.SOLV.lig_0>
-73.062

>  <SCORE.INTRA.VDW>
0.179332

>  <SCORE.INTRA.VDW.0>
-1.83782

>  <SCORE.INTRA.norm>
-0.00754869

>  <SCORE.RESTR>
0

>  <SCORE.RESTR.CAVITY>
0

>  <SCORE.RESTR.norm>
0

>  <SCORE.SYSTEM>
0

>  <SCORE.SYSTEM.CONST>
0

>  <SCORE.SYSTEM.DIHEDRAL>
0

>  <SCORE.SYSTEM.SOLV>
0

>  <SCORE.SYSTEM.norm>
0

>  <SCORE.heavy>
22

>  <SCORE.norm>
-0.408085

>  <RMSD>
7.423

$$$$
ligand
 OpenBabel02271912143D
libRbt.so/2013.1/901 2013/11/27
 22 23  0  0  0  0  0  0  0  0999 V2000
  -27.9479    1.8650  -14.6024 N   0  0  0  0  0  0  0  0  0  0  0  0
  -28.9251    4.6414  -16.2725 C   0  0  1  0  0  0  0  0  0  0  0  0
  -28.2906    4.0950  -15.0814 O   0  0  0  0  0  0  0  0  0  0  0  0
  -32.5040    4.9712  -17.4485 P   0  0  1  0  0  0  0  0  0  0  0  0
  -27.6016    2.8913  -15.4568 C   0  0  2  0  0  0  0  0  0  0  0  0
  -29.1430    0.5146  -13.3944 N   0  0  0  0  0  0  0  0  0  0  0  0
  -27.2228    1.7297  -17.5069 O   0  0  0  0  0  0  0  0  0  0  0  0
  -28.1575    2.5377  -16.7822 C   0  0  2  0  0  0  0  0  0  0  0  0
  -26.5555   -0.8094  -11.4301 N   0  0  0  0  0  0  0  0  0  0  0  0
  -27.1869    4.4361  -17.8318 O   0  0  0  0  0  0  0  0  0  0  0  0
  -28.4181    3.8313  -17.4017 C   0  0  2  0  0  0  0  0  0  0  0  0
  -27.8628    0.1188  -13.3231 C   0  0  0  0  0  0  0  0  0  0  0  0
  -25.7091    0.8806  -14.2951 N   0  0  0  0  0  0  0  0  0  0  0  0
  -30.9680    5.1383  -17.1810 O   0  0  0  0  0  0  0  0  0  0  0  0
  -30.3958    4.4773  -16.0996 C   0  0  0  0  0  0  0  0  0  0  0  0
  -33.1342    5.0997  -16.0143 O   0  0  0  0  0  0  0  0  0  0  0  0
  -29.1921    1.6036  -14.1851 C   0  0  0  0  0  0  0  0  0  0  0  0
  -27.6281   -2.1833  -12.8956 O   0  0  0  0  0  0  0  0  0  0  0  0
  -27.3591   -1.0325  -12.5515 C   0  0  0  0  0  0  0  0  0  0  0  0
  -27.1045    0.9624  -14.0838 C   0  0  0  0  0  0  0  0  0  0  0  0
  -32.9602    6.0073  -18.4212 O   0  5  0  0  0  0  0  0  0  0  0  0
  -32.7722    3.7283  -18.1941 O   0  0  0  0  0  0  0  0  0  0  0  0
  1 17  1  0  0  0  0
  1 20  1  0  0  0  0
  2 15  1  1  0  0  0
  2  3  1  0  0  0  0
  2 11  1  0  0  0  0
  3  5  1  0  0  0  0
  4 16  1  1  0  0  0
  4 21  1  0  0  0  0
  4 22  2  0  0  0  0
  4 14  1  0  0  0  0
  5  1  1  1  0  0  0
  5  8  1  0  0  0  0
  6 17  2  0  0  0  0
  6 12  1  0  0  0  0
  8  7  1  6  0  0  0
  8 11  1  0  0  0  0
  9 19  1  0  0  0  0
 11 10  1  1  0  0  0
 12 20  2  0  0  0  0
 12 19  1  0  0  0  0
 13 20  1  0  0  0  0
 14 15  1  0  0  0  0
 18 19  2  0  0  0  0
M  CHG  1  21  -1
M  END
>  <CHROM.1>
43.56651079,173.67435717,43.60052161,170.11395396,-111.31570982,-29.22511270
2.73662909,-15.66835299,-0.94705309,0.15467456,-0.79030014

>  <Name>
ligand

>  <RI>
0

>  <Rbt.Current_Directory>
/home/itssahil/PROJECTS/Mol_Feturizer/Test_systems_manuscript/rnas/4xwf

>  <Rbt.Executable>
rbdock ($Id: //depot/dev/client3/rdock/2013.1/src/exe/rbdock.cxx#4 $)

>  <Rbt.Library>
libRbt.so (2013.1, Build901 2013/11/27)

>  <Rbt.Parameter_File>
/export/apps/rDock/src/rDock_2013.1_src/data/scripts/dock_solv.prm

>  <Rbt.Receptor>
prm/pocket_docking_8.prm

>  <SCORE>
-9.64295

>  <SCORE.INTER>
-9.12741

>  <SCORE.INTER.CONST>
1

>  <SCORE.INTER.POLAR>
0

>  <SCORE.INTER.ROT>
5

>  <SCORE.INTER.SOLV>
12.2837

>  <SCORE.INTER.VDW>
-17.1129

>  <SCORE.INTER.norm>
-0.414882

>  <SCORE.INTRA>
-0.515541

>  <SCORE.INTRA.DIHEDRAL>
-0.846879

>  <SCORE.INTRA.DIHEDRAL.0>
3.49807

>  <SCORE.INTRA.POLAR>
0

>  <SCORE.INTRA.POLAR.0>
0

>  <SCORE.INTRA.REPUL>
0

>  <SCORE.INTRA.REPUL.0>
0

>  <SCORE.INTRA.SOLV>
-0.332698

>  <SCORE.INTRA.SOLV.lig_0>
-73.062

>  <SCORE.INTRA.VDW>
0.074248

>  <SCORE.INTRA.VDW.0>
-1.83782

>  <SCORE.INTRA.norm>
-0.0234337

>  <SCORE.RESTR>
0

>  <SCORE.RESTR.CAVITY>
0

>  <SCORE.RESTR.norm>
0

>  <SCORE.SYSTEM>
0

>  <SCORE.SYSTEM.CONST>
0

>  <SCORE.SYSTEM.DIHEDRAL>
0

>  <SCORE.SYSTEM.SOLV>
0

>  <SCORE.SYSTEM.norm>
0

>  <SCORE.heavy>
22

>  <SCORE.norm>
-0.438316

>  <RMSD>
7.440

$$$$
ligand
 OpenBabel02271912143D
libRbt.so/2013.1/901 2013/11/27
 22 23  0  0  0  0  0  0  0  0999 V2000
  -31.2008    2.9000  -10.0152 N   0  0  0  0  0  0  0  0  0  0  0  0
  -33.9536    4.0146   -8.3926 C   0  0  1  0  0  0  0  0  0  0  0  0
  -33.3778    3.5710   -9.6542 O   0  0  0  0  0  0  0  0  0  0  0  0
  -35.5393    6.2399   -6.8680 P   0  0  1  0  0  0  0  0  0  0  0  0
  -32.3748    2.5844   -9.3630 C   0  0  2  0  0  0  0  0  0  0  0  0
  -29.4478    4.0001  -10.6692 N   0  0  0  0  0  0  0  0  0  0  0  0
  -31.5761    1.5193   -7.3822 O   0  0  0  0  0  0  0  0  0  0  0  0
  -32.1041    2.7391   -7.9161 C   0  0  2  0  0  0  0  0  0  0  0  0
  -28.6765    1.9149  -13.4294 N   0  0  0  0  0  0  0  0  0  0  0  0
  -34.2648    1.9621   -7.3041 O   0  0  0  0  0  0  0  0  0  0  0  0
  -33.4005    3.1092   -7.3617 C   0  0  2  0  0  0  0  0  0  0  0  0
  -29.4049    2.7775  -11.2204 C   0  0  0  0  0  0  0  0  0  0  0  0
  -30.8252    0.7425  -11.1465 N   0  0  0  0  0  0  0  0  0  0  0  0
  -34.0396    5.7893   -6.9473 O   0  0  0  0  0  0  0  0  0  0  0  0
  -33.5102    5.4209   -8.1793 C   0  0  0  0  0  0  0  0  0  0  0  0
  -35.6331    7.3688   -7.9576 O   0  0  0  0  0  0  0  0  0  0  0  0
  -30.5680    4.0757   -9.9256 C   0  0  0  0  0  0  0  0  0  0  0  0
  -27.1910    2.1561  -11.7203 O   0  0  0  0  0  0  0  0  0  0  0  0
  -28.3494    2.2746  -12.1192 C   0  0  0  0  0  0  0  0  0  0  0  0
  -30.5039    2.0777  -10.8108 C   0  0  0  0  0  0  0  0  0  0  0  0
  -36.4298    5.0672   -7.1121 O   0  5  0  0  0  0  0  0  0  0  0  0
  -35.9030    6.6039   -5.4867 O   0  0  0  0  0  0  0  0  0  0  0  0
  1 17  1  0  0  0  0
  1 20  1  0  0  0  0
  2 15  1  1  0  0  0
  2  3  1  0  0  0  0
  2 11  1  0  0  0  0
  3  5  1  0  0  0  0
  4 16  1  6  0  0  0
  4 21  1  0  0  0  0
  4 22  2  0  0  0  0
  4 14  1  0  0  0  0
  5  1  1  6  0  0  0
  5  8  1  0  0  0  0
  6 17  2  0  0  0  0
  6 12  1  0  0  0  0
  8  7  1  1  0  0  0
  8 11  1  0  0  0  0
  9 19  1  0  0  0  0
 11 10  1  6  0  0  0
 12 20  2  0  0  0  0
 12 19  1  0  0  0  0
 13 20  1  0  0  0  0
 14 15  1  0  0  0  0
 18 19  2  0  0  0  0
M  CHG  1  21  -1
M  END
>  <CHROM.1>
53.87117435,-177.95139934,-53.03001286,-80.85988515,-117.37617237,-32.48372803
3.78075324,-8.92577690,0.27041563,-0.71004388,2.87717251

>  <Name>
ligand

>  <RI>
0

>  <Rbt.Current_Directory>
/home/itssahil/PROJECTS/Mol_Feturizer/Test_systems_manuscript/rnas/4xwf

>  <Rbt.Executable>
rbdock ($Id: //depot/dev/client3/rdock/2013.1/src/exe/rbdock.cxx#4 $)

>  <Rbt.Library>
libRbt.so (2013.1, Build901 2013/11/27)

>  <Rbt.Parameter_File>
/export/apps/rDock/src/rDock_2013.1_src/data/scripts/dock_solv.prm

>  <Rbt.Receptor>
prm/pocket_docking_7.prm

>  <SCORE>
-6.51984

>  <SCORE.INTER>
-7.46365

>  <SCORE.INTER.CONST>
1

>  <SCORE.INTER.POLAR>
0

>  <SCORE.INTER.ROT>
5

>  <SCORE.INTER.SOLV>
17.5123

>  <SCORE.INTER.VDW>
-17.7465

>  <SCORE.INTER.norm>
-0.339257

>  <SCORE.INTRA>
0.943817

>  <SCORE.INTRA.DIHEDRAL>
0.0314595

>  <SCORE.INTRA.DIHEDRAL.0>
3.49807

>  <SCORE.INTRA.POLAR>
0

>  <SCORE.INTRA.POLAR.0>
0

>  <SCORE.INTRA.REPUL>
0

>  <SCORE.INTRA.REPUL.0>
0

>  <SCORE.INTRA.SOLV>
1.51282

>  <SCORE.INTRA.SOLV.lig_0>
-73.062

>  <SCORE.INTRA.VDW>
0.171678

>  <SCORE.INTRA.VDW.0>
-1.83782

>  <SCORE.INTRA.norm>
0.0429008

>  <SCORE.RESTR>
0

>  <SCORE.RESTR.CAVITY>
0

>  <SCORE.RESTR.norm>
0

>  <SCORE.SYSTEM>
0

>  <SCORE.SYSTEM.CONST>
0

>  <SCORE.SYSTEM.DIHEDRAL>
0

>  <SCORE.SYSTEM.SOLV>
0

>  <SCORE.SYSTEM.norm>
0

>  <SCORE.heavy>
22

>  <SCORE.norm>
-0.296356

>  <RMSD>
7.444

$$$$
ligand
 OpenBabel02271912143D
libRbt.so/2013.1/901 2013/11/27
 22 23  0  0  0  0  0  0  0  0999 V2000
  -30.5242    4.4732   -8.6718 N   0  0  0  0  0  0  0  0  0  0  0  0
  -33.7613    3.7261   -9.3162 C   0  0  1  0  0  0  0  0  0  0  0  0
  -32.6151    4.5630   -9.6412 O   0  0  0  0  0  0  0  0  0  0  0  0
  -35.3393    6.4551   -7.2144 P   0  0  1  0  0  0  0  0  0  0  0  0
  -31.4251    3.7801   -9.4535 C   0  0  2  0  0  0  0  0  0  0  0  0
  -29.7161    5.7665   -7.1273 N   0  0  0  0  0  0  0  0  0  0  0  0
  -30.9687    1.5154   -8.8546 O   0  0  0  0  0  0  0  0  0  0  0  0
  -31.8640    2.6151   -8.6528 C   0  0  2  0  0  0  0  0  0  0  0  0
  -26.4564    4.4067   -7.0797 N   0  0  0  0  0  0  0  0  0  0  0  0
  -33.1866    1.7416  -10.4233 O   0  0  0  0  0  0  0  0  0  0  0  0
  -33.2191    2.3628   -9.1275 C   0  0  2  0  0  0  0  0  0  0  0  0
  -28.6890    5.2183   -7.7945 C   0  0  0  0  0  0  0  0  0  0  0  0
  -28.4421    3.6173   -9.6758 N   0  0  0  0  0  0  0  0  0  0  0  0
  -34.6399    5.5930   -8.3218 O   0  0  0  0  0  0  0  0  0  0  0  0
  -34.3495    4.2595   -8.0554 C   0  0  0  0  0  0  0  0  0  0  0  0
  -36.7669    5.8069   -7.1031 O   0  0  0  0  0  0  0  0  0  0  0  0
  -30.8554    5.3065   -7.6786 C   0  0  0  0  0  0  0  0  0  0  0  0
  -26.7750    6.5819   -7.6735 O   0  0  0  0  0  0  0  0  0  0  0  0
  -27.2595    5.4602   -7.5246 C   0  0  0  0  0  0  0  0  0  0  0  0
  -29.1899    4.4002   -8.7667 C   0  0  0  0  0  0  0  0  0  0  0  0
  -34.5362    6.4054   -5.9572 O   0  5  0  0  0  0  0  0  0  0  0  0
  -35.2739    7.8889   -7.5496 O   0  0  0  0  0  0  0  0  0  0  0  0
  1 17  1  0  0  0  0
  1 20  1  0  0  0  0
  2 15  1  1  0  0  0
  2  3  1  0  0  0  0
  2 11  1  0  0  0  0
  3  5  1  0  0  0  0
  4 16  1  1  0  0  0
  4 21  1  0  0  0  0
  4 22  2  0  0  0  0
  4 14  1  0  0  0  0
  5  1  1  1  0  0  0
  5  8  1  0  0  0  0
  6 17  2  0  0  0  0
  6 12  1  0  0  0  0
  8  7  1  6  0  0  0
  8 11  1  0  0  0  0
  9 19  1  0  0  0  0
 11 10  1  6  0  0  0
 12 20  2  0  0  0  0
 12 19  1  0  0  0  0
 13 20  1  0  0  0  0
 14 15  1  0  0  0  0
 18 19  2  0  0  0  0
M  CHG  1  21  -1
M  END
>  <CHROM.1>
33.58677740,56.63565324,-67.18147513,177.33099658,115.33837249,-31.94463438
4.75292794,-8.19749770,0.16931073,0.02050164,-2.60984518

>  <Name>
ligand

>  <RI>
0

>  <Rbt.Current_Directory>
/home/itssahil/PROJECTS/Mol_Feturizer/Test_systems_manuscript/rnas/4xwf

>  <Rbt.Executable>
rbdock ($Id: //depot/dev/client3/rdock/2013.1/src/exe/rbdock.cxx#4 $)

>  <Rbt.Library>
libRbt.so (2013.1, Build901 2013/11/27)

>  <Rbt.Parameter_File>
/export/apps/rDock/src/rDock_2013.1_src/data/scripts/dock_solv.prm

>  <Rbt.Receptor>
prm/pocket_docking_7.prm

>  <SCORE>
-8.53547

>  <SCORE.INTER>
-7.17689

>  <SCORE.INTER.CONST>
1

>  <SCORE.INTER.POLAR>
0

>  <SCORE.INTER.ROT>
5

>  <SCORE.INTER.SOLV>
12.9864

>  <SCORE.INTER.VDW>
-16.0467

>  <SCORE.INTER.norm>
-0.326222

>  <SCORE.INTRA>
-1.35857

>  <SCORE.INTRA.DIHEDRAL>
-1.81644

>  <SCORE.INTRA.DIHEDRAL.0>
3.49807

>  <SCORE.INTRA.POLAR>
0

>  <SCORE.INTRA.POLAR.0>
0

>  <SCORE.INTRA.REPUL>
0

>  <SCORE.INTRA.REPUL.0>
0

>  <SCORE.INTRA.SOLV>
-0.0219209

>  <SCORE.INTRA.SOLV.lig_0>
-73.062

>  <SCORE.INTRA.VDW>
-0.43939

>  <SCORE.INTRA.VDW.0>
-1.83782

>  <SCORE.INTRA.norm>
-0.0617533

>  <SCORE.RESTR>
0

>  <SCORE.RESTR.CAVITY>
0

>  <SCORE.RESTR.norm>
0

>  <SCORE.SYSTEM>
0

>  <SCORE.SYSTEM.CONST>
0

>  <SCORE.SYSTEM.DIHEDRAL>
0

>  <SCORE.SYSTEM.SOLV>
0

>  <SCORE.SYSTEM.norm>
0

>  <SCORE.heavy>
22

>  <SCORE.norm>
-0.387976

>  <RMSD>
7.447

$$$$
ligand
 OpenBabel02271912143D
libRbt.so/2013.1/901 2013/11/27
 22 23  0  0  0  0  0  0  0  0999 V2000
  -33.9359    4.6070   -8.5018 N   0  0  0  0  0  0  0  0  0  0  0  0
  -32.1674    1.8846   -9.4576 C   0  0  1  0  0  0  0  0  0  0  0  0
  -33.3671    2.6877   -9.6473 O   0  0  0  0  0  0  0  0  0  0  0  0
  -31.2374   -0.8823   -7.0415 P   0  0  1  0  0  0  0  0  0  0  0  0
  -33.0298    4.0597   -9.3864 C   0  0  2  0  0  0  0  0  0  0  0  0
  -35.2982    6.0146   -7.5670 N   0  0  0  0  0  0  0  0  0  0  0  0
  -31.0249    5.2330   -8.8390 O   0  0  0  0  0  0  0  0  0  0  0  0
  -31.7339    3.9994   -8.6739 C   0  0  2  0  0  0  0  0  0  0  0  0
  -35.5453    4.3232   -4.4613 N   0  0  0  0  0  0  0  0  0  0  0  0
  -30.5805    3.1888  -10.5869 O   0  0  0  0  0  0  0  0  0  0  0  0
  -31.0640    2.8529   -9.2755 C   0  0  2  0  0  0  0  0  0  0  0  0
  -35.3404    4.8669   -6.8731 C   0  0  0  0  0  0  0  0  0  0  0  0
  -34.2540    2.6415   -7.0488 N   0  0  0  0  0  0  0  0  0  0  0  0
  -31.3362    0.1435   -8.2233 O   0  0  0  0  0  0  0  0  0  0  0  0
  -32.3801    1.0622   -8.2335 C   0  0  0  0  0  0  0  0  0  0  0  0
  -30.0768   -1.8408   -7.4943 O   0  0  0  0  0  0  0  0  0  0  0  0
  -34.4201    5.8523   -8.5750 C   0  0  0  0  0  0  0  0  0  0  0  0
  -37.3958    4.6385   -5.7504 O   0  0  0  0  0  0  0  0  0  0  0  0
  -36.1673    4.6125   -5.6788 C   0  0  0  0  0  0  0  0  0  0  0  0
  -34.4875    3.9746   -7.4575 C   0  0  0  0  0  0  0  0  0  0  0  0
  -30.9777   -0.1543   -5.7647 O   0  5  0  0  0  0  0  0  0  0  0  0
  -32.5505   -1.4946   -6.7701 O   0  0  0  0  0  0  0  0  0  0  0  0
  1 17  1  0  0  0  0
  1 20  1  0  0  0  0
  2 15  1  1  0  0  0
  2  3  1  0  0  0  0
  2 11  1  0  0  0  0
  3  5  1  0  0  0  0
  4 16  1  6  0  0  0
  4 21  1  0  0  0  0
  4 22  2  0  0  0  0
  4 14  1  0  0  0  0
  5  1  1  1  0  0  0
  5  8  1  0  0  0  0
  6 17  2  0  0  0  0
  6 12  1  0  0  0  0
  8  7  1  6  0  0  0
  8 11  1  0  0  0  0
  9 19  1  0  0  0  0
 11 10  1  6  0  0  0
 12 20  2  0  0  0  0
 12 19  1  0  0  0  0
 13 20  1  0  0  0  0
 14 15  1  0  0  0  0
 18 19  2  0  0  0  0
M  CHG  1  21  -1
M  END
>  <CHROM.1>
-140.94066338,169.41419755,172.57042078,179.11166805,-117.50706649,-32.93046437
2.52414136,-7.75165078,-2.46578707,-0.68530507,2.57209970

>  <Name>
ligand

>  <RI>
0

>  <Rbt.Current_Directory>
/home/itssahil/PROJECTS/Mol_Feturizer/Test_systems_manuscript/rnas/4xwf

>  <Rbt.Executable>
rbdock ($Id: //depot/dev/client3/rdock/2013.1/src/exe/rbdock.cxx#4 $)

>  <Rbt.Library>
libRbt.so (2013.1, Build901 2013/11/27)

>  <Rbt.Parameter_File>
/export/apps/rDock/src/rDock_2013.1_src/data/scripts/dock_solv.prm

>  <Rbt.Receptor>
prm/pocket_docking_6.prm

>  <SCORE>
-5.67909

>  <SCORE.INTER>
-7.74271

>  <SCORE.INTER.CONST>
1

>  <SCORE.INTER.POLAR>
0

>  <SCORE.INTER.ROT>
5

>  <SCORE.INTER.SOLV>
13.111

>  <SCORE.INTER.VDW>
-16.4655

>  <SCORE.INTER.norm>
-0.351941

>  <SCORE.INTRA>
2.06362

>  <SCORE.INTRA.DIHEDRAL>
-1.43484

>  <SCORE.INTRA.DIHEDRAL.0>
3.49807

>  <SCORE.INTRA.POLAR>
0

>  <SCORE.INTRA.POLAR.0>
0

>  <SCORE.INTRA.REPUL>
0

>  <SCORE.INTRA.REPUL.0>
0

>  <SCORE.INTRA.SOLV>
4.91517

>  <SCORE.INTRA.SOLV.lig_0>
-73.062

>  <SCORE.INTRA.VDW>
0.323457

>  <SCORE.INTRA.VDW.0>
-1.83782

>  <SCORE.INTRA.norm>
0.093801

>  <SCORE.RESTR>
0

>  <SCORE.RESTR.CAVITY>
0

>  <SCORE.RESTR.norm>
0

>  <SCORE.SYSTEM>
0

>  <SCORE.SYSTEM.CONST>
0

>  <SCORE.SYSTEM.DIHEDRAL>
0

>  <SCORE.SYSTEM.SOLV>
0

>  <SCORE.SYSTEM.norm>
0

>  <SCORE.heavy>
22

>  <SCORE.norm>
-0.25814

>  <RMSD>
7.452

$$$$
ligand
 OpenBabel02271912143D
libRbt.so/2013.1/901 2013/11/27
 22 23  0  0  0  0  0  0  0  0999 V2000
  -33.1097    4.6670   -8.8976 N   0  0  0  0  0  0  0  0  0  0  0  0
  -35.3212    6.7794   -7.4486 C   0  0  1  0  0  0  0  0  0  0  0  0
  -34.7679    6.2566   -8.6898 O   0  0  0  0  0  0  0  0  0  0  0  0
  -33.1558    9.8746   -7.7243 P   0  0  1  0  0  0  0  0  0  0  0  0
  -34.4036    4.8841   -8.4711 C   0  0  2  0  0  0  0  0  0  0  0  0
  -31.0018    4.9862   -9.3050 N   0  0  0  0  0  0  0  0  0  0  0  0
  -34.5933    3.3544   -6.6491 O   0  0  0  0  0  0  0  0  0  0  0  0
  -34.3906    4.7284   -6.9992 C   0  0  2  0  0  0  0  0  0  0  0  0
  -30.8916    1.6972  -11.0242 N   0  0  0  0  0  0  0  0  0  0  0  0
  -36.7422    5.0227   -6.8247 O   0  0  0  0  0  0  0  0  0  0  0  0
  -35.4599    5.6119   -6.5509 C   0  0  2  0  0  0  0  0  0  0  0  0
  -31.3149    3.7345   -9.6736 C   0  0  0  0  0  0  0  0  0  0  0  0
  -33.3616    2.3298   -9.6390 N   0  0  0  0  0  0  0  0  0  0  0  0
  -34.2087    8.7277   -7.9098 O   0  0  0  0  0  0  0  0  0  0  0  0
  -34.3414    7.7663   -6.9138 C   0  0  0  0  0  0  0  0  0  0  0  0
  -33.5706   10.5249   -6.3548 O   0  0  0  0  0  0  0  0  0  0  0  0
  -32.1204    5.5654   -8.8287 C   0  0  0  0  0  0  0  0  0  0  0  0
  -29.1727    2.8437  -10.0668 O   0  0  0  0  0  0  0  0  0  0  0  0
  -30.3849    2.7512  -10.2591 C   0  0  0  0  0  0  0  0  0  0  0  0
  -32.6400    3.5250   -9.4173 C   0  0  0  0  0  0  0  0  0  0  0  0
  -31.7783    9.3003   -7.7459 O   0  5  0  0  0  0  0  0  0  0  0  0
  -33.1272   10.7538   -8.9071 O   0  0  0  0  0  0  0  0  0  0  0  0
  1 17  1  0  0  0  0
  1 20  1  0  0  0  0
  2 15  1  1  0  0  0
  2  3  1  0  0  0  0
  2 11  1  0  0  0  0
  3  5  1  0  0  0  0
  4 16  1  1  0  0  0
  4 21  1  0  0  0  0
  4 22  2  0  0  0  0
  4 14  1  0  0  0  0
  5  1  1  1  0  0  0
  5  8  1  0  0  0  0
  6 17  2  0  0  0  0
  6 12  1  0  0  0  0
  8  7  1  6  0  0  0
  8 11  1  0  0  0  0
  9 19  1  0  0  0  0
 11 10  1  6  0  0  0
 12 20  2  0  0  0  0
 12 19  1  0  0  0  0
 13 20  1  0  0  0  0
 14 15  1  0  0  0  0
 18 19  2  0  0  0  0
M  CHG  1  21  -1
M  END
>  <CHROM.1>
33.75744972,58.91540761,-56.16568886,-175.28173674,-157.14560184,-33.20714282
6.04136406,-8.30390742,1.22234113,-0.49295514,-2.98125736

>  <Name>
ligand

>  <RI>
0

>  <Rbt.Current_Directory>
/home/itssahil/PROJECTS/Mol_Feturizer/Test_systems_manuscript/rnas/4xwf

>  <Rbt.Executable>
rbdock ($Id: //depot/dev/client3/rdock/2013.1/src/exe/rbdock.cxx#4 $)

>  <Rbt.Library>
libRbt.so (2013.1, Build901 2013/11/27)

>  <Rbt.Parameter_File>
/export/apps/rDock/src/rDock_2013.1_src/data/scripts/dock_solv.prm

>  <Rbt.Receptor>
prm/pocket_docking_8.prm

>  <SCORE>
-9.99396

>  <SCORE.INTER>
-9.40104

>  <SCORE.INTER.CONST>
1

>  <SCORE.INTER.POLAR>
0

>  <SCORE.INTER.ROT>
5

>  <SCORE.INTER.SOLV>
19.0561

>  <SCORE.INTER.VDW>
-19.5527

>  <SCORE.INTER.norm>
-0.42732

>  <SCORE.INTRA>
-0.59292

>  <SCORE.INTRA.DIHEDRAL>
-0.787655

>  <SCORE.INTRA.DIHEDRAL.0>
3.49807

>  <SCORE.INTRA.POLAR>
0

>  <SCORE.INTRA.POLAR.0>
0

>  <SCORE.INTRA.REPUL>
0

>  <SCORE.INTRA.REPUL.0>
0

>  <SCORE.INTRA.SOLV>
0.275312

>  <SCORE.INTRA.SOLV.lig_0>
-73.062

>  <SCORE.INTRA.VDW>
-0.336749

>  <SCORE.INTRA.VDW.0>
-1.83782

>  <SCORE.INTRA.norm>
-0.0269509

>  <SCORE.RESTR>
0

>  <SCORE.RESTR.CAVITY>
0

>  <SCORE.RESTR.norm>
0

>  <SCORE.SYSTEM>
0

>  <SCORE.SYSTEM.CONST>
0

>  <SCORE.SYSTEM.DIHEDRAL>
0

>  <SCORE.SYSTEM.SOLV>
0

>  <SCORE.SYSTEM.norm>
0

>  <SCORE.heavy>
22

>  <SCORE.norm>
-0.454271

>  <RMSD>
7.519

$$$$
ligand
 OpenBabel02271912143D
libRbt.so/2013.1/901 2013/11/27
 22 23  0  0  0  0  0  0  0  0999 V2000
  -32.9866    1.0707   -7.3452 N   0  0  0  0  0  0  0  0  0  0  0  0
  -32.6236    4.1844   -8.6203 C   0  0  1  0  0  0  0  0  0  0  0  0
  -32.3623    3.2853   -7.5053 O   0  0  0  0  0  0  0  0  0  0  0  0
  -35.4291    6.1218   -6.9830 P   0  0  1  0  0  0  0  0  0  0  0  0
  -32.1880    1.9606   -8.0335 C   0  0  2  0  0  0  0  0  0  0  0  0
  -34.7041    0.2128   -6.3328 N   0  0  0  0  0  0  0  0  0  0  0  0
  -32.1427    1.0048  -10.2199 O   0  0  0  0  0  0  0  0  0  0  0  0
  -32.7288    2.0302   -9.4095 C   0  0  2  0  0  0  0  0  0  0  0  0
  -32.8729   -2.4953   -4.8726 N   0  0  0  0  0  0  0  0  0  0  0  0
  -30.9941    3.4761  -10.1493 O   0  0  0  0  0  0  0  0  0  0  0  0
  -32.3952    3.3818   -9.8418 C   0  0  2  0  0  0  0  0  0  0  0  0
  -33.7332   -0.7128   -6.3681 C   0  0  0  0  0  0  0  0  0  0  0  0
  -31.4248   -0.8350   -7.2738 N   0  0  0  0  0  0  0  0  0  0  0  0
  -34.1204    5.3239   -7.3138 O   0  0  0  0  0  0  0  0  0  0  0  0
  -34.0447    4.6180   -8.5095 C   0  0  0  0  0  0  0  0  0  0  0  0
  -35.5006    7.1878   -8.1359 O   0  0  0  0  0  0  0  0  0  0  0  0
  -34.2353    1.3221   -6.9353 C   0  0  0  0  0  0  0  0  0  0  0  0
  -34.7104   -2.8444   -6.1717 O   0  0  0  0  0  0  0  0  0  0  0  0
  -33.8209   -2.0746   -5.8092 C   0  0  0  0  0  0  0  0  0  0  0  0
  -32.6494   -0.1809   -7.0068 C   0  0  0  0  0  0  0  0  0  0  0  0
  -36.5896    5.1845   -6.9324 O   0  5  0  0  0  0  0  0  0  0  0  0
  -35.3972    6.6268   -5.5986 O   0  0  0  0  0  0  0  0  0  0  0  0
  1 17  1  0  0  0  0
  1 20  1  0  0  0  0
  2 15  1  1  0  0  0
  2  3  1  0  0  0  0
  2 11  1  0  0  0  0
  3  5  1  0  0  0  0
  4 16  1  6  0  0  0
  4 21  1  0  0  0  0
  4 22  2  0  0  0  0
  4 14  1  0  0  0  0
  5  1  1  1  0  0  0
  5  8  1  0  0  0  0
  6 17  2  0  0  0  0
  6 12  1  0  0  0  0
  8  7  1  6  0  0  0
  8 11  1  0  0  0  0
  9 19  1  0  0  0  0
 11 10  1  1  0  0  0
 12 20  2  0  0  0  0
 12 19  1  0  0  0  0
 13 20  1  0  0  0  0
 14 15  1  0  0  0  0
 18 19  2  0  0  0  0
M  CHG  1  21  -1
M  END
>  <CHROM.1>
39.60868844,63.40724943,-62.37867826,170.50637329,-123.85069166,-33.65994597
2.50442499,-7.50717024,-1.24463348,0.76754126,-0.34813137

>  <Name>
ligand

>  <RI>
0

>  <Rbt.Current_Directory>
/home/itssahil/PROJECTS/Mol_Feturizer/Test_systems_manuscript/rnas/4xwf

>  <Rbt.Executable>
rbdock ($Id: //depot/dev/client3/rdock/2013.1/src/exe/rbdock.cxx#4 $)

>  <Rbt.Library>
libRbt.so (2013.1, Build901 2013/11/27)

>  <Rbt.Parameter_File>
/export/apps/rDock/src/rDock_2013.1_src/data/scripts/dock_solv.prm

>  <Rbt.Receptor>
prm/pocket_docking_7.prm

>  <SCORE>
-7.97404

>  <SCORE.INTER>
-6.73105

>  <SCORE.INTER.CONST>
1

>  <SCORE.INTER.POLAR>
0

>  <SCORE.INTER.ROT>
5

>  <SCORE.INTER.SOLV>
14.0012

>  <SCORE.INTER.VDW>
-16.0878

>  <SCORE.INTER.norm>
-0.305957

>  <SCORE.INTRA>
-1.24299

>  <SCORE.INTRA.DIHEDRAL>
-1.49876

>  <SCORE.INTRA.DIHEDRAL.0>
3.49807

>  <SCORE.INTRA.POLAR>
0

>  <SCORE.INTRA.POLAR.0>
0

>  <SCORE.INTRA.REPUL>
0

>  <SCORE.INTRA.REPUL.0>
0

>  <SCORE.INTRA.SOLV>
-0.266658

>  <SCORE.INTRA.SOLV.lig_0>
-73.062

>  <SCORE.INTRA.VDW>
-0.360282

>  <SCORE.INTRA.VDW.0>
-1.83782

>  <SCORE.INTRA.norm>
-0.0564995

>  <SCORE.RESTR>
0

>  <SCORE.RESTR.CAVITY>
0

>  <SCORE.RESTR.norm>
0

>  <SCORE.SYSTEM>
0

>  <SCORE.SYSTEM.CONST>
0

>  <SCORE.SYSTEM.DIHEDRAL>
0

>  <SCORE.SYSTEM.SOLV>
0

>  <SCORE.SYSTEM.norm>
0

>  <SCORE.heavy>
22

>  <SCORE.norm>
-0.362457

>  <RMSD>
7.602

$$$$
ligand
 OpenBabel02271912143D
libRbt.so/2013.1/901 2013/11/27
 22 23  0  0  0  0  0  0  0  0999 V2000
  -32.4817    0.3935   -7.6482 N   0  0  0  0  0  0  0  0  0  0  0  0
  -32.4636    3.7535   -8.0512 C   0  0  1  0  0  0  0  0  0  0  0  0
  -31.8745    2.6025   -7.3817 O   0  0  0  0  0  0  0  0  0  0  0  0
  -35.3028    6.0587   -7.1123 P   0  0  1  0  0  0  0  0  0  0  0  0
  -31.9301    1.4862   -8.2845 C   0  0  2  0  0  0  0  0  0  0  0  0
  -33.9451   -0.9512   -6.7755 N   0  0  0  0  0  0  0  0  0  0  0  0
  -32.6489    1.1687  -10.5380 O   0  0  0  0  0  0  0  0  0  0  0  0
  -32.8968    1.8945   -9.3283 C   0  0  2  0  0  0  0  0  0  0  0  0
  -31.6607   -2.9487   -4.9648 N   0  0  0  0  0  0  0  0  0  0  0  0
  -31.4624    3.5945  -10.1647 O   0  0  0  0  0  0  0  0  0  0  0  0
  -32.6826    3.3311   -9.4519 C   0  0  2  0  0  0  0  0  0  0  0  0
  -32.7393   -1.5343   -6.6940 C   0  0  0  0  0  0  0  0  0  0  0  0
  -30.4274   -0.9415   -7.3776 N   0  0  0  0  0  0  0  0  0  0  0  0
  -34.1485    5.2913   -7.8453 O   0  0  0  0  0  0  0  0  0  0  0  0
  -33.7511    4.0493   -7.3622 C   0  0  0  0  0  0  0  0  0  0  0  0
  -35.5069    7.3368   -8.0041 O   0  0  0  0  0  0  0  0  0  0  0  0
  -33.7812    0.2493   -7.3634 C   0  0  0  0  0  0  0  0  0  0  0  0
  -32.9140   -3.8798   -6.6225 O   0  0  0  0  0  0  0  0  0  0  0  0
  -32.4608   -2.8581   -6.1070 C   0  0  0  0  0  0  0  0  0  0  0  0
  -31.8130   -0.6949   -7.2443 C   0  0  0  0  0  0  0  0  0  0  0  0
  -36.5034    5.1783   -7.0066 O   0  5  0  0  0  0  0  0  0  0  0  0
  -34.9684    6.2732   -5.6929 O   0  0  0  0  0  0  0  0  0  0  0  0
  1 17  1  0  0  0  0
  1 20  1  0  0  0  0
  2 15  1  1  0  0  0
  2  3  1  0  0  0  0
  2 11  1  0  0  0  0
  3  5  1  0  0  0  0
  4 16  1  6  0  0  0
  4 21  1  0  0  0  0
  4 22  2  0  0  0  0
  4 14  1  0  0  0  0
  5  1  1  1  0  0  0
  5  8  1  0  0  0  0
  6 17  2  0  0  0  0
  6 12  1  0  0  0  0
  8  7  1  6  0  0  0
  8 11  1  0  0  0  0
  9 19  1  0  0  0  0
 11 10  1  6  0  0  0
 12 20  2  0  0  0  0
 12 19  1  0  0  0  0
 13 20  1  0  0  0  0
 14 15  1  0  0  0  0
 18 19  2  0  0  0  0
M  CHG  1  21  -1
M  END
>  <CHROM.1>
74.38979632,168.61437744,-176.40187941,-166.90924110,-115.57873259,-33.26919963
2.13078599,-7.58607787,-1.06828558,0.84234912,-0.47584436

>  <Name>
ligand

>  <RI>
0

>  <Rbt.Current_Directory>
/home/itssahil/PROJECTS/Mol_Feturizer/Test_systems_manuscript/rnas/4xwf

>  <Rbt.Executable>
rbdock ($Id: //depot/dev/client3/rdock/2013.1/src/exe/rbdock.cxx#4 $)

>  <Rbt.Library>
libRbt.so (2013.1, Build901 2013/11/27)

>  <Rbt.Parameter_File>
/export/apps/rDock/src/rDock_2013.1_src/data/scripts/dock_solv.prm

>  <Rbt.Receptor>
prm/pocket_docking_8.prm

>  <SCORE>
-6.1365

>  <SCORE.INTER>
-6.27476

>  <SCORE.INTER.CONST>
1

>  <SCORE.INTER.POLAR>
0

>  <SCORE.INTER.ROT>
5

>  <SCORE.INTER.SOLV>
15.0685

>  <SCORE.INTER.VDW>
-16.1393

>  <SCORE.INTER.norm>
-0.285216

>  <SCORE.INTRA>
0.13826

>  <SCORE.INTRA.DIHEDRAL>
-0.672239

>  <SCORE.INTRA.DIHEDRAL.0>
3.49807

>  <SCORE.INTRA.POLAR>
0

>  <SCORE.INTRA.POLAR.0>
0

>  <SCORE.INTRA.REPUL>
0

>  <SCORE.INTRA.REPUL.0>
0

>  <SCORE.INTRA.SOLV>
-0.401298

>  <SCORE.INTRA.SOLV.lig_0>
-73.062

>  <SCORE.INTRA.VDW>
0.675028

>  <SCORE.INTRA.VDW.0>
-1.83782

>  <SCORE.INTRA.norm>
0.00628453

>  <SCORE.RESTR>
0

>  <SCORE.RESTR.CAVITY>
0

>  <SCORE.RESTR.norm>
0

>  <SCORE.SYSTEM>
0

>  <SCORE.SYSTEM.CONST>
0

>  <SCORE.SYSTEM.DIHEDRAL>
0

>  <SCORE.SYSTEM.SOLV>
0

>  <SCORE.SYSTEM.norm>
0

>  <SCORE.heavy>
22

>  <SCORE.norm>
-0.278932

>  <RMSD>
7.625

$$$$
ligand
 OpenBabel02271912143D
libRbt.so/2013.1/901 2013/11/27
 22 23  0  0  0  0  0  0  0  0999 V2000
  -32.3434    4.6266   -9.1811 N   0  0  0  0  0  0  0  0  0  0  0  0
  -32.1332    1.2498   -9.2515 C   0  0  1  0  0  0  0  0  0  0  0  0
  -32.8823    2.4333   -9.6487 O   0  0  0  0  0  0  0  0  0  0  0  0
  -34.4309    0.2009   -6.4267 P   0  0  1  0  0  0  0  0  0  0  0  0
  -31.9451    3.4996   -9.8698 C   0  0  2  0  0  0  0  0  0  0  0  0
  -32.3040    6.5957   -8.2687 N   0  0  0  0  0  0  0  0  0  0  0  0
  -29.5672    3.6975   -9.8207 O   0  0  0  0  0  0  0  0  0  0  0  0
  -30.6930    3.0386   -9.2290 C   0  0  2  0  0  0  0  0  0  0  0  0
  -34.4688    8.0052   -6.8474 N   0  0  0  0  0  0  0  0  0  0  0  0
  -30.3829    1.2918  -10.8101 O   0  0  0  0  0  0  0  0  0  0  0  0
  -30.7080    1.5967   -9.4435 C   0  0  2  0  0  0  0  0  0  0  0  0
  -33.5351    6.0857   -8.1115 C   0  0  0  0  0  0  0  0  0  0  0  0
  -34.6852    3.9831   -8.7597 N   0  0  0  0  0  0  0  0  0  0  0  0
  -33.7655    0.5597   -7.8004 O   0  0  0  0  0  0  0  0  0  0  0  0
  -32.4449    0.9952   -7.8169 C   0  0  0  0  0  0  0  0  0  0  0  0
  -34.5194    1.5902   -5.6969 O   0  0  0  0  0  0  0  0  0  0  0  0
  -31.5637    5.6843   -8.9283 C   0  0  0  0  0  0  0  0  0  0  0  0
  -35.7621    6.2025   -7.3605 O   0  0  0  0  0  0  0  0  0  0  0  0
  -34.6620    6.7500   -7.4308 C   0  0  0  0  0  0  0  0  0  0  0  0
  -33.5686    4.8471   -8.6862 C   0  0  0  0  0  0  0  0  0  0  0  0
  -35.7482   -0.4597   -6.6640 O   0  5  0  0  0  0  0  0  0  0  0  0
  -33.6815   -0.8712   -5.7474 O   0  0  0  0  0  0  0  0  0  0  0  0
  1 17  1  0  0  0  0
  1 20  1  0  0  0  0
  2 15  1  1  0  0  0
  2  3  1  0  0  0  0
  2 11  1  0  0  0  0
  3  5  1  0  0  0  0
  4 16  1  1  0  0  0
  4 21  1  0  0  0  0
  4 22  2  0  0  0  0
  4 14  1  0  0  0  0
  5  1  1  1  0  0  0
  5  8  1  0  0  0  0
  6 17  2  0  0  0  0
  6 12  1  0  0  0  0
  8  7  1  6  0  0  0
  8 11  1  0  0  0  0
  9 19  1  0  0  0  0
 11 10  1  6  0  0  0
 12 20  2  0  0  0  0
 12 19  1  0  0  0  0
 13 20  1  0  0  0  0
 14 15  1  0  0  0  0
 18 19  2  0  0  0  0
M  CHG  1  21  -1
M  END
>  <CHROM.1>
164.35315725,70.46795013,67.29107500,-179.78380859,-2.05339563,-33.09049655
2.97506972,-8.13856986,-1.43568904,-0.65212370,3.00945047

>  <Name>
ligand

>  <RI>
0

>  <Rbt.Current_Directory>
/home/itssahil/PROJECTS/Mol_Feturizer/Test_systems_manuscript/rnas/4xwf

>  <Rbt.Executable>
rbdock ($Id: //depot/dev/client3/rdock/2013.1/src/exe/rbdock.cxx#4 $)

>  <Rbt.Library>
libRbt.so (2013.1, Build901 2013/11/27)

>  <Rbt.Parameter_File>
/export/apps/rDock/src/rDock_2013.1_src/data/scripts/dock_solv.prm

>  <Rbt.Receptor>
prm/pocket_docking_7.prm

>  <SCORE>
-5.27359

>  <SCORE.INTER>
-6.40231

>  <SCORE.INTER.CONST>
1

>  <SCORE.INTER.POLAR>
0

>  <SCORE.INTER.ROT>
5

>  <SCORE.INTER.SOLV>
18.4649

>  <SCORE.INTER.VDW>
-17.3565

>  <SCORE.INTER.norm>
-0.291014

>  <SCORE.INTRA>
1.12873

>  <SCORE.INTRA.DIHEDRAL>
-1.5537

>  <SCORE.INTRA.DIHEDRAL.0>
3.49807

>  <SCORE.INTRA.POLAR>
0

>  <SCORE.INTRA.POLAR.0>
0

>  <SCORE.INTRA.REPUL>
0

>  <SCORE.INTRA.REPUL.0>
0

>  <SCORE.INTRA.SOLV>
2.48495

>  <SCORE.INTRA.SOLV.lig_0>
-73.062

>  <SCORE.INTRA.VDW>
0.663102

>  <SCORE.INTRA.VDW.0>
-1.83782

>  <SCORE.INTRA.norm>
0.0513059

>  <SCORE.RESTR>
0

>  <SCORE.RESTR.CAVITY>
0

>  <SCORE.RESTR.norm>
0

>  <SCORE.SYSTEM>
0

>  <SCORE.SYSTEM.CONST>
0

>  <SCORE.SYSTEM.DIHEDRAL>
0

>  <SCORE.SYSTEM.SOLV>
0

>  <SCORE.SYSTEM.norm>
0

>  <SCORE.heavy>
22

>  <SCORE.norm>
-0.239708

>  <RMSD>
7.647

$$$$
ligand
 OpenBabel02271912143D
libRbt.so/2013.1/901 2013/11/27
 22 23  0  0  0  0  0  0  0  0999 V2000
  -30.5930    3.8793   -9.6756 N   0  0  0  0  0  0  0  0  0  0  0  0
  -33.8606    3.4266   -8.9202 C   0  0  1  0  0  0  0  0  0  0  0  0
  -32.8590    3.5636   -9.9680 O   0  0  0  0  0  0  0  0  0  0  0  0
  -35.7992    5.9003   -6.8082 P   0  0  1  0  0  0  0  0  0  0  0  0
  -31.6317    2.9910   -9.4879 C   0  0  2  0  0  0  0  0  0  0  0  0
  -28.7739    4.7769  -10.4478 N   0  0  0  0  0  0  0  0  0  0  0  0
  -30.9619    1.8501   -7.5016 O   0  0  0  0  0  0  0  0  0  0  0  0
  -31.8200    2.8707   -8.0248 C   0  0  2  0  0  0  0  0  0  0  0  0
  -29.5554    8.0906   -9.3635 N   0  0  0  0  0  0  0  0  0  0  0  0
  -33.5020    1.2078   -8.2546 O   0  0  0  0  0  0  0  0  0  0  0  0
  -33.2399    2.5719   -7.8845 C   0  0  2  0  0  0  0  0  0  0  0  0
  -29.3208    5.6293   -9.5675 C   0  0  0  0  0  0  0  0  0  0  0  0
  -31.3556    5.6548   -8.1454 N   0  0  0  0  0  0  0  0  0  0  0  0
  -35.2907    4.6646   -7.6287 O   0  0  0  0  0  0  0  0  0  0  0  0
  -34.1425    4.7949   -8.4023 C   0  0  0  0  0  0  0  0  0  0  0  0
  -35.7422    7.0731   -7.8530 O   0  0  0  0  0  0  0  0  0  0  0  0
  -29.5633    3.6876  -10.5084 C   0  0  0  0  0  0  0  0  0  0  0  0
  -27.6328    7.0431   -8.7373 O   0  0  0  0  0  0  0  0  0  0  0  0
  -28.7735    6.9454   -9.1892 C   0  0  0  0  0  0  0  0  0  0  0  0
  -30.4683    5.0724   -9.0792 C   0  0  0  0  0  0  0  0  0  0  0  0
  -37.1612    5.6178   -6.2670 O   0  5  0  0  0  0  0  0  0  0  0  0
  -35.0173    6.0622   -5.5692 O   0  0  0  0  0  0  0  0  0  0  0  0
  1 17  1  0  0  0  0
  1 20  1  0  0  0  0
  2 15  1  1  0  0  0
  2  3  1  0  0  0  0
  2 11  1  0  0  0  0
  3  5  1  0  0  0  0
  4 16  1  6  0  0  0
  4 21  1  0  0  0  0
  4 22  2  0  0  0  0
  4 14  1  0  0  0  0
  5  1  1  1  0  0  0
  5  8  1  0  0  0  0
  6 17  2  0  0  0  0
  6 12  1  0  0  0  0
  8  7  1  6  0  0  0
  8 11  1  0  0  0  0
  9 19  1  0  0  0  0
 11 10  1  6  0  0  0
 12 20  2  0  0  0  0
 12 19  1  0  0  0  0
 13 20  1  0  0  0  0
 14 15  1  0  0  0  0
 18 19  2  0  0  0  0
M  CHG  1  21  -1
M  END
>  <CHROM.1>
-113.80868594,167.36272038,47.01914690,174.10719138,122.47923144,-32.45228234
4.76310109,-8.35990261,0.04556219,-0.36491905,-2.98821786

>  <Name>
ligand

>  <RI>
0

>  <Rbt.Current_Directory>
/home/itssahil/PROJECTS/Mol_Feturizer/Test_systems_manuscript/rnas/4xwf

>  <Rbt.Executable>
rbdock ($Id: //depot/dev/client3/rdock/2013.1/src/exe/rbdock.cxx#4 $)

>  <Rbt.Library>
libRbt.so (2013.1, Build901 2013/11/27)

>  <Rbt.Parameter_File>
/export/apps/rDock/src/rDock_2013.1_src/data/scripts/dock_solv.prm

>  <Rbt.Receptor>
prm/pocket_docking_6.prm

>  <SCORE>
-6.98297

>  <SCORE.INTER>
-9.13112

>  <SCORE.INTER.CONST>
1

>  <SCORE.INTER.POLAR>
0

>  <SCORE.INTER.ROT>
5

>  <SCORE.INTER.SOLV>
12.7687

>  <SCORE.INTER.VDW>
-17.277

>  <SCORE.INTER.norm>
-0.415051

>  <SCORE.INTRA>
2.14815

>  <SCORE.INTRA.DIHEDRAL>
-0.970957

>  <SCORE.INTRA.DIHEDRAL.0>
3.49807

>  <SCORE.INTRA.POLAR>
0

>  <SCORE.INTRA.POLAR.0>
0

>  <SCORE.INTRA.REPUL>
0

>  <SCORE.INTRA.REPUL.0>
0

>  <SCORE.INTRA.SOLV>
4.46108

>  <SCORE.INTRA.SOLV.lig_0>
-73.062

>  <SCORE.INTRA.VDW>
0.403092

>  <SCORE.INTRA.VDW.0>
-1.83782

>  <SCORE.INTRA.norm>
0.0976434

>  <SCORE.RESTR>
0

>  <SCORE.RESTR.CAVITY>
0

>  <SCORE.RESTR.norm>
0

>  <SCORE.SYSTEM>
0

>  <SCORE.SYSTEM.CONST>
0

>  <SCORE.SYSTEM.DIHEDRAL>
0

>  <SCORE.SYSTEM.SOLV>
0

>  <SCORE.SYSTEM.norm>
0

>  <SCORE.heavy>
22

>  <SCORE.norm>
-0.317408

>  <RMSD>
7.690

$$$$
ligand
 OpenBabel02271912143D
libRbt.so/2013.1/901 2013/11/27
 22 23  0  0  0  0  0  0  0  0999 V2000
  -31.9367    6.5399   -8.0277 N   0  0  0  0  0  0  0  0  0  0  0  0
  -33.8507    3.7559   -7.8319 C   0  0  1  0  0  0  0  0  0  0  0  0
  -32.6698    4.4600   -7.3525 O   0  0  0  0  0  0  0  0  0  0  0  0
  -31.8371    1.4940  -10.1055 P   0  0  1  0  0  0  0  0  0  0  0  0
  -32.9513    5.8687   -7.3771 C   0  0  2  0  0  0  0  0  0  0  0  0
  -30.2198    6.9349   -9.2956 N   0  0  0  0  0  0  0  0  0  0  0  0
  -34.8568    7.2028   -7.9111 O   0  0  0  0  0  0  0  0  0  0  0  0
  -34.1529    5.9972   -8.2317 C   0  0  2  0  0  0  0  0  0  0  0  0
  -29.0264    9.5397  -10.0031 N   0  0  0  0  0  0  0  0  0  0  0  0
  -35.5408    4.8798   -6.6593 O   0  0  0  0  0  0  0  0  0  0  0  0
  -34.9085    4.7835   -7.9467 C   0  0  2  0  0  0  0  0  0  0  0  0
  -30.6471    8.1034   -8.7930 C   0  0  0  0  0  0  0  0  0  0  0  0
  -32.4906    8.8277   -7.2961 N   0  0  0  0  0  0  0  0  0  0  0  0
  -32.5316    2.2185   -8.9008 O   0  0  0  0  0  0  0  0  0  0  0  0
  -33.5056    3.1764   -9.1605 C   0  0  0  0  0  0  0  0  0  0  0  0
  -33.0494    1.0155  -10.9839 O   0  0  0  0  0  0  0  0  0  0  0  0
  -31.0192    5.9643   -8.8135 C   0  0  0  0  0  0  0  0  0  0  0  0
  -30.4271   10.4191   -8.4377 O   0  0  0  0  0  0  0  0  0  0  0  0
  -30.0470    9.4246   -9.0555 C   0  0  0  0  0  0  0  0  0  0  0  0
  -31.7299    7.8632   -7.9960 C   0  0  0  0  0  0  0  0  0  0  0  0
  -30.9086    2.4393  -10.7926 O   0  5  0  0  0  0  0  0  0  0  0  0
  -30.9028    0.4601   -9.6250 O   0  0  0  0  0  0  0  0  0  0  0  0
  1 17  1  0  0  0  0
  1 20  1  0  0  0  0
  2 15  1  6  0  0  0
  2  3  1  0  0  0  0
  2 11  1  0  0  0  0
  3  5  1  0  0  0  0
  4 16  1  6  0  0  0
  4 21  1  0  0  0  0
  4 22  2  0  0  0  0
  4 14  1  0  0  0  0
  5  1  1  6  0  0  0
  5  8  1  0  0  0  0
  6 17  2  0  0  0  0
  6 12  1  0  0  0  0
  8  7  1  1  0  0  0
  8 11  1  0  0  0  0
  9 19  1  0  0  0  0
 11 10  1  1  0  0  0
 12 20  2  0  0  0  0
 12 19  1  0  0  0  0
 13 20  1  0  0  0  0
 14 15  1  0  0  0  0
 18 19  2  0  0  0  0
M  CHG  1  21  -1
M  END
>  <CHROM.1>
16.05772679,66.07256915,-50.13087128,-174.39205262,6.77043843,-32.24701123
5.19105471,-8.75582046,1.36997467,0.50085234,0.26835757

>  <Name>
ligand

>  <RI>
0

>  <Rbt.Current_Directory>
/home/itssahil/PROJECTS/Mol_Feturizer/Test_systems_manuscript/rnas/4xwf

>  <Rbt.Executable>
rbdock ($Id: //depot/dev/client3/rdock/2013.1/src/exe/rbdock.cxx#4 $)

>  <Rbt.Library>
libRbt.so (2013.1, Build901 2013/11/27)

>  <Rbt.Parameter_File>
/export/apps/rDock/src/rDock_2013.1_src/data/scripts/dock_solv.prm

>  <Rbt.Receptor>
prm/pocket_docking_8.prm

>  <SCORE>
-8.29153

>  <SCORE.INTER>
-7.71544

>  <SCORE.INTER.CONST>
1

>  <SCORE.INTER.POLAR>
0

>  <SCORE.INTER.ROT>
5

>  <SCORE.INTER.SOLV>
15.6049

>  <SCORE.INTER.VDW>
-17.2786

>  <SCORE.INTER.norm>
-0.350702

>  <SCORE.INTRA>
-0.576091

>  <SCORE.INTRA.DIHEDRAL>
-1.53819

>  <SCORE.INTRA.DIHEDRAL.0>
3.49807

>  <SCORE.INTRA.POLAR>
0

>  <SCORE.INTRA.POLAR.0>
0

>  <SCORE.INTRA.REPUL>
0

>  <SCORE.INTRA.REPUL.0>
0

>  <SCORE.INTRA.SOLV>
0.558278

>  <SCORE.INTRA.SOLV.lig_0>
-73.062

>  <SCORE.INTRA.VDW>
-0.0861345

>  <SCORE.INTRA.VDW.0>
-1.83782

>  <SCORE.INTRA.norm>
-0.026186

>  <SCORE.RESTR>
0

>  <SCORE.RESTR.CAVITY>
0

>  <SCORE.RESTR.norm>
0

>  <SCORE.SYSTEM>
0

>  <SCORE.SYSTEM.CONST>
0

>  <SCORE.SYSTEM.DIHEDRAL>
0

>  <SCORE.SYSTEM.SOLV>
0

>  <SCORE.SYSTEM.norm>
0

>  <SCORE.heavy>
22

>  <SCORE.norm>
-0.376888

>  <RMSD>
8.136

$$$$
ligand
 OpenBabel02271912143D
libRbt.so/2013.1/901 2013/11/27
 22 23  0  0  0  0  0  0  0  0999 V2000
  -32.0554    6.6086   -7.9682 N   0  0  0  0  0  0  0  0  0  0  0  0
  -33.9454    3.8079   -7.7781 C   0  0  1  0  0  0  0  0  0  0  0  0
  -32.7705    4.5209   -7.2975 O   0  0  0  0  0  0  0  0  0  0  0  0
  -31.8415    1.6421  -10.0541 P   0  0  1  0  0  0  0  0  0  0  0  0
  -33.0640    5.9272   -7.3189 C   0  0  2  0  0  0  0  0  0  0  0  0
  -30.3411    7.0208   -9.2341 N   0  0  0  0  0  0  0  0  0  0  0  0
  -34.9810    7.2462   -7.8492 O   0  0  0  0  0  0  0  0  0  0  0  0
  -34.2670    6.0473   -8.1728 C   0  0  2  0  0  0  0  0  0  0  0  0
  -29.5847   10.2124   -7.9487 N   0  0  0  0  0  0  0  0  0  0  0  0
  -35.6447    4.9145   -6.6025 O   0  0  0  0  0  0  0  0  0  0  0  0
  -35.0121    4.8266   -7.8903 C   0  0  2  0  0  0  0  0  0  0  0  0
  -30.7807    8.1849   -8.7319 C   0  0  0  0  0  0  0  0  0  0  0  0
  -32.6330    8.8907   -7.2372 N   0  0  0  0  0  0  0  0  0  0  0  0
  -32.6173    2.2805   -8.8503 O   0  0  0  0  0  0  0  0  0  0  0  0
  -33.5959    3.2343   -9.1081 C   0  0  0  0  0  0  0  0  0  0  0  0
  -31.0215    2.8510  -10.6343 O   0  0  0  0  0  0  0  0  0  0  0  0
  -31.1314    6.0422   -8.7530 C   0  0  0  0  0  0  0  0  0  0  0  0
  -30.2491   10.0111  -10.1175 O   0  0  0  0  0  0  0  0  0  0  0  0
  -30.1935    9.5121   -8.9937 C   0  0  0  0  0  0  0  0  0  0  0  0
  -31.8619    7.9339   -7.9362 C   0  0  0  0  0  0  0  0  0  0  0  0
  -31.0075    0.5040   -9.5674 O   0  5  0  0  0  0  0  0  0  0  0  0
  -32.7709    0.9562  -10.9698 O   0  0  0  0  0  0  0  0  0  0  0  0
  1 17  1  0  0  0  0
  1 20  1  0  0  0  0
  2 15  1  6  0  0  0
  2  3  1  0  0  0  0
  2 11  1  0  0  0  0
  3  5  1  0  0  0  0
  4 16  1  6  0  0  0
  4 21  1  0  0  0  0
  4 22  2  0  0  0  0
  4 14  1  0  0  0  0
  5  1  1  6  0  0  0
  5  8  1  0  0  0  0
  6 17  2  0  0  0  0
  6 12  1  0  0  0  0
  8  7  1  1  0  0  0
  8 11  1  0  0  0  0
  9 19  1  0  0  0  0
 11 10  1  1  0  0  0
 12 20  2  0  0  0  0
 12 19  1  0  0  0  0
 13 20  1  0  0  0  0
 14 15  1  0  0  0  0
 18 19  2  0  0  0  0
M  CHG  1  21  -1
M  END
>  <CHROM.1>
15.88478522,66.30115166,66.48590097,-169.80924930,-113.75157354,-32.33578354
5.27421015,-8.69540017,1.38158843,0.50976756,0.26269197

>  <Name>
ligand

>  <RI>
0

>  <Rbt.Current_Directory>
/home/itssahil/PROJECTS/Mol_Feturizer/Test_systems_manuscript/rnas/4xwf

>  <Rbt.Executable>
rbdock ($Id: //depot/dev/client3/rdock/2013.1/src/exe/rbdock.cxx#4 $)

>  <Rbt.Library>
libRbt.so (2013.1, Build901 2013/11/27)

>  <Rbt.Parameter_File>
/export/apps/rDock/src/rDock_2013.1_src/data/scripts/dock_solv.prm

>  <Rbt.Receptor>
prm/pocket_docking_7.prm

>  <SCORE>
-8.06296

>  <SCORE.INTER>
-7.1965

>  <SCORE.INTER.CONST>
1

>  <SCORE.INTER.POLAR>
0

>  <SCORE.INTER.ROT>
5

>  <SCORE.INTER.SOLV>
17.235

>  <SCORE.INTER.VDW>
-17.476

>  <SCORE.INTER.norm>
-0.327113

>  <SCORE.INTRA>
-0.866468

>  <SCORE.INTRA.DIHEDRAL>
-1.26336

>  <SCORE.INTRA.DIHEDRAL.0>
3.49807

>  <SCORE.INTRA.POLAR>
0

>  <SCORE.INTRA.POLAR.0>
0

>  <SCORE.INTRA.REPUL>
0

>  <SCORE.INTRA.REPUL.0>
0

>  <SCORE.INTRA.SOLV>
0.597476

>  <SCORE.INTRA.SOLV.lig_0>
-73.062

>  <SCORE.INTRA.VDW>
-0.533526

>  <SCORE.INTRA.VDW.0>
-1.83782

>  <SCORE.INTRA.norm>
-0.0393849

>  <SCORE.RESTR>
0

>  <SCORE.RESTR.CAVITY>
0

>  <SCORE.RESTR.norm>
0

>  <SCORE.SYSTEM>
0

>  <SCORE.SYSTEM.CONST>
0

>  <SCORE.SYSTEM.DIHEDRAL>
0

>  <SCORE.SYSTEM.SOLV>
0

>  <SCORE.SYSTEM.norm>
0

>  <SCORE.heavy>
22

>  <SCORE.norm>
-0.366498

>  <RMSD>
8.187

$$$$
ligand
 OpenBabel02271912143D
libRbt.so/2013.1/901 2013/11/27
 22 23  0  0  0  0  0  0  0  0999 V2000
  -31.0221    7.1274   -8.4110 N   0  0  0  0  0  0  0  0  0  0  0  0
  -33.5720    8.8903   -7.0536 C   0  0  1  0  0  0  0  0  0  0  0  0
  -32.4045    8.0540   -6.8141 O   0  0  0  0  0  0  0  0  0  0  0  0
  -35.5233    5.6798   -6.7546 P   0  0  1  0  0  0  0  0  0  0  0  0
  -31.4490    8.3155   -7.8547 C   0  0  2  0  0  0  0  0  0  0  0  0
  -31.0509    5.1218   -9.2402 N   0  0  0  0  0  0  0  0  0  0  0  0
  -31.3412    9.8064   -9.7151 O   0  0  0  0  0  0  0  0  0  0  0  0
  -32.2201    9.0163   -8.9059 C   0  0  2  0  0  0  0  0  0  0  0  0
  -27.5059    4.6647   -9.0607 N   0  0  0  0  0  0  0  0  0  0  0  0
  -32.5512   10.9407   -7.5516 O   0  0  0  0  0  0  0  0  0  0  0  0
  -33.1902    9.8026   -8.1538 C   0  0  2  0  0  0  0  0  0  0  0  0
  -29.7947    5.5876   -9.3140 C   0  0  0  0  0  0  0  0  0  0  0  0
  -28.6436    7.7022   -8.7080 N   0  0  0  0  0  0  0  0  0  0  0  0
  -34.7347    7.0050   -6.4706 O   0  0  0  0  0  0  0  0  0  0  0  0
  -34.6844    7.9845   -7.4564 C   0  0  0  0  0  0  0  0  0  0  0  0
  -36.9955    6.1803   -6.9840 O   0  0  0  0  0  0  0  0  0  0  0  0
  -31.8104    6.0784   -8.6731 C   0  0  0  0  0  0  0  0  0  0  0  0
  -28.6518    4.4304  -11.0146 O   0  0  0  0  0  0  0  0  0  0  0  0
  -28.6360    4.8569   -9.8601 C   0  0  0  0  0  0  0  0  0  0  0  0
  -29.7691    6.8513   -8.7964 C   0  0  0  0  0  0  0  0  0  0  0  0
  -34.9184    4.9761   -7.9236 O   0  5  0  0  0  0  0  0  0  0  0  0
  -35.3045    4.7002   -5.6751 O   0  0  0  0  0  0  0  0  0  0  0  0
  1 17  1  0  0  0  0
  1 20  1  0  0  0  0
  2 15  1  6  0  0  0
  2  3  1  0  0  0  0
  2 11  1  0  0  0  0
  3  5  1  0  0  0  0
  4 16  1  6  0  0  0
  4 21  1  0  0  0  0
  4 22  2  0  0  0  0
  4 14  1  0  0  0  0
  5  1  1  6  0  0  0
  5  8  1  0  0  0  0
  6 17  2  0  0  0  0
  6 12  1  0  0  0  0
  8  7  1  1  0  0  0
  8 11  1  0  0  0  0
  9 19  1  0  0  0  0
 11 10  1  1  0  0  0
 12 20  2  0  0  0  0
 12 19  1  0  0  0  0
 13 20  1  0  0  0  0
 14 15  1  0  0  0  0
 18 19  2  0  0  0  0
M  CHG  1  21  -1
M  END
>  <CHROM.1>
40.35515363,51.83968324,-61.61911924,-163.87163107,-123.55983696,-32.36441645
6.92684083,-8.08336493,-0.10762072,0.40690078,0.03337113

>  <Name>
ligand

>  <RI>
0

>  <Rbt.Current_Directory>
/home/itssahil/PROJECTS/Mol_Feturizer/Test_systems_manuscript/rnas/4xwf

>  <Rbt.Executable>
rbdock ($Id: //depot/dev/client3/rdock/2013.1/src/exe/rbdock.cxx#4 $)

>  <Rbt.Library>
libRbt.so (2013.1, Build901 2013/11/27)

>  <Rbt.Parameter_File>
/export/apps/rDock/src/rDock_2013.1_src/data/scripts/dock_solv.prm

>  <Rbt.Receptor>
prm/pocket_docking_8.prm

>  <SCORE>
-6.47303

>  <SCORE.INTER>
-5.74824

>  <SCORE.INTER.CONST>
1

>  <SCORE.INTER.POLAR>
0

>  <SCORE.INTER.ROT>
5

>  <SCORE.INTER.SOLV>
11.2314

>  <SCORE.INTER.VDW>
-14.5093

>  <SCORE.INTER.norm>
-0.261284

>  <SCORE.INTRA>
-0.724782

>  <SCORE.INTRA.DIHEDRAL>
-0.56146

>  <SCORE.INTRA.DIHEDRAL.0>
3.49807

>  <SCORE.INTRA.POLAR>
0

>  <SCORE.INTRA.POLAR.0>
0

>  <SCORE.INTRA.REPUL>
0

>  <SCORE.INTRA.REPUL.0>
0

>  <SCORE.INTRA.SOLV>
0.322873

>  <SCORE.INTRA.SOLV.lig_0>
-73.062

>  <SCORE.INTRA.VDW>
-0.605489

>  <SCORE.INTRA.VDW.0>
-1.83782

>  <SCORE.INTRA.norm>
-0.0329446

>  <SCORE.RESTR>
0

>  <SCORE.RESTR.CAVITY>
0

>  <SCORE.RESTR.norm>
0

>  <SCORE.SYSTEM>
0

>  <SCORE.SYSTEM.CONST>
0

>  <SCORE.SYSTEM.DIHEDRAL>
0

>  <SCORE.SYSTEM.SOLV>
0

>  <SCORE.SYSTEM.norm>
0

>  <SCORE.heavy>
22

>  <SCORE.norm>
-0.294228

>  <RMSD>
8.241

$$$$
ligand
 OpenBabel02271912143D
libRbt.so/2013.1/901 2013/11/27
 22 23  0  0  0  0  0  0  0  0999 V2000
  -31.8779    6.4426   -7.9631 N   0  0  0  0  0  0  0  0  0  0  0  0
  -34.0672    3.8667   -8.1193 C   0  0  1  0  0  0  0  0  0  0  0  0
  -32.7574    4.3289   -7.6825 O   0  0  0  0  0  0  0  0  0  0  0  0
  -32.6161    1.4485   -9.5247 P   0  0  1  0  0  0  0  0  0  0  0  0
  -32.8695    5.7184   -7.3342 C   0  0  2  0  0  0  0  0  0  0  0  0
  -30.2330    6.9538   -9.2837 N   0  0  0  0  0  0  0  0  0  0  0  0
  -34.6562    7.2975   -7.2351 O   0  0  0  0  0  0  0  0  0  0  0  0
  -34.1504    6.1543   -7.9343 C   0  0  2  0  0  0  0  0  0  0  0  0
  -29.1470    9.6532   -9.8501 N   0  0  0  0  0  0  0  0  0  0  0  0
  -35.4395    4.8025   -6.4653 O   0  0  0  0  0  0  0  0  0  0  0  0
  -35.0006    4.9754   -7.8232 C   0  0  2  0  0  0  0  0  0  0  0  0
  -30.5922    8.0599   -8.6143 C   0  0  0  0  0  0  0  0  0  0  0  0
  -32.3150    8.6332   -6.9212 N   0  0  0  0  0  0  0  0  0  0  0  0
  -32.7407    2.9923   -9.7692 O   0  0  0  0  0  0  0  0  0  0  0  0
  -33.9740    3.6073   -9.5835 C   0  0  0  0  0  0  0  0  0  0  0  0
  -33.4167    0.8288  -10.7270 O   0  0  0  0  0  0  0  0  0  0  0  0
  -31.0296    5.9488   -8.8726 C   0  0  0  0  0  0  0  0  0  0  0  0
  -30.1578   10.2601   -7.9018 O   0  0  0  0  0  0  0  0  0  0  0  0
  -29.9700    9.3898   -8.7517 C   0  0  0  0  0  0  0  0  0  0  0  0
  -31.6295    7.7466   -7.7829 C   0  0  0  0  0  0  0  0  0  0  0  0
  -31.1751    1.0625   -9.4747 O   0  5  0  0  0  0  0  0  0  0  0  0
  -33.0628    1.0973   -8.1646 O   0  0  0  0  0  0  0  0  0  0  0  0
  1 17  1  0  0  0  0
  1 20  1  0  0  0  0
  2 15  1  6  0  0  0
  2  3  1  0  0  0  0
  2 11  1  0  0  0  0
  3  5  1  0  0  0  0
  4 16  1  6  0  0  0
  4 21  1  0  0  0  0
  4 22  2  0  0  0  0
  4 14  1  0  0  0  0
  5  1  1  6  0  0  0
  5  8  1  0  0  0  0
  6 17  2  0  0  0  0
  6 12  1  0  0  0  0
  8  7  1  1  0  0  0
  8 11  1  0  0  0  0
  9 19  1  0  0  0  0
 11 10  1  1  0  0  0
 12 20  2  0  0  0  0
 12 19  1  0  0  0  0
 13 20  1  0  0  0  0
 14 15  1  0  0  0  0
 18 19  2  0  0  0  0
M  CHG  1  21  -1
M  END
>  <CHROM.1>
6.62354910,41.09762618,70.36597629,82.86864904,15.41453520,-32.45923304,5.18225148
-8.50566483,1.21974098,0.49621920,0.30819113

>  <Name>
ligand

>  <RI>
0

>  <Rbt.Current_Directory>
/home/itssahil/PROJECTS/Mol_Feturizer/Test_systems_manuscript/rnas/4xwf

>  <Rbt.Executable>
rbdock ($Id: //depot/dev/client3/rdock/2013.1/src/exe/rbdock.cxx#4 $)

>  <Rbt.Library>
libRbt.so (2013.1, Build901 2013/11/27)

>  <Rbt.Parameter_File>
/export/apps/rDock/src/rDock_2013.1_src/data/scripts/dock_solv.prm

>  <Rbt.Receptor>
prm/pocket_docking_6.prm

>  <SCORE>
-5.71966

>  <SCORE.INTER>
-8.70248

>  <SCORE.INTER.CONST>
1

>  <SCORE.INTER.POLAR>
0

>  <SCORE.INTER.ROT>
5

>  <SCORE.INTER.SOLV>
11.2213

>  <SCORE.INTER.VDW>
-16.4754

>  <SCORE.INTER.norm>
-0.395567

>  <SCORE.INTRA>
2.98282

>  <SCORE.INTRA.DIHEDRAL>
1.83677

>  <SCORE.INTRA.DIHEDRAL.0>
3.49807

>  <SCORE.INTRA.POLAR>
0

>  <SCORE.INTRA.POLAR.0>
0

>  <SCORE.INTRA.REPUL>
0

>  <SCORE.INTRA.REPUL.0>
0

>  <SCORE.INTRA.SOLV>
3.27844

>  <SCORE.INTRA.SOLV.lig_0>
-73.062

>  <SCORE.INTRA.VDW>
0.42521

>  <SCORE.INTRA.VDW.0>
-1.83782

>  <SCORE.INTRA.norm>
0.135583

>  <SCORE.RESTR>
0

>  <SCORE.RESTR.CAVITY>
0

>  <SCORE.RESTR.norm>
0

>  <SCORE.SYSTEM>
0

>  <SCORE.SYSTEM.CONST>
0

>  <SCORE.SYSTEM.DIHEDRAL>
0

>  <SCORE.SYSTEM.SOLV>
0

>  <SCORE.SYSTEM.norm>
0

>  <SCORE.heavy>
22

>  <SCORE.norm>
-0.259985

>  <RMSD>
8.333

$$$$
ligand
 OpenBabel02271912143D
libRbt.so/2013.1/901 2013/11/27
 22 23  0  0  0  0  0  0  0  0999 V2000
  -34.6676    6.0727   -7.8545 N   0  0  0  0  0  0  0  0  0  0  0  0
  -33.0785    3.2705   -8.8914 C   0  0  1  0  0  0  0  0  0  0  0  0
  -34.1267    4.2461   -9.1548 O   0  0  0  0  0  0  0  0  0  0  0  0
  -32.9430    0.1012   -6.8191 P   0  0  1  0  0  0  0  0  0  0  0  0
  -33.6874    5.5180   -8.6512 C   0  0  2  0  0  0  0  0  0  0  0  0
  -36.1035    7.4893   -7.0531 N   0  0  0  0  0  0  0  0  0  0  0  0
  -31.6908    6.3332   -7.6290 O   0  0  0  0  0  0  0  0  0  0  0  0
  -32.5531    5.1966   -7.7563 C   0  0  2  0  0  0  0  0  0  0  0  0
  -38.2412    5.2561   -5.4380 N   0  0  0  0  0  0  0  0  0  0  0  0
  -31.1794    4.4734   -9.5554 O   0  0  0  0  0  0  0  0  0  0  0  0
  -31.9220    4.0507   -8.3995 C   0  0  2  0  0  0  0  0  0  0  0  0
  -36.2121    6.3453   -6.3602 C   0  0  0  0  0  0  0  0  0  0  0  0
  -35.1222    4.1157   -6.4266 N   0  0  0  0  0  0  0  0  0  0  0  0
  -32.6819    1.2961   -7.8003 O   0  0  0  0  0  0  0  0  0  0  0  0
  -33.5960    2.3431   -7.8464 C   0  0  0  0  0  0  0  0  0  0  0  0
  -34.3311   -0.4596   -7.2978 O   0  0  0  0  0  0  0  0  0  0  0  0
  -35.1387    7.3191   -7.9770 C   0  0  0  0  0  0  0  0  0  0  0  0
  -36.9711    6.6420   -4.1527 O   0  0  0  0  0  0  0  0  0  0  0  0
  -37.1441    6.0997   -5.2441 C   0  0  0  0  0  0  0  0  0  0  0  0
  -35.3132    5.4474   -6.8611 C   0  0  0  0  0  0  0  0  0  0  0  0
  -31.8170   -0.8748   -6.9054 O   0  5  0  0  0  0  0  0  0  0  0  0
  -32.8420    0.5449   -5.4171 O   0  0  0  0  0  0  0  0  0  0  0  0
  1 17  1  0  0  0  0
  1 20  1  0  0  0  0
  2 15  1  1  0  0  0
  2  3  1  0  0  0  0
  2 11  1  0  0  0  0
  3  5  1  0  0  0  0
  4 16  1  6  0  0  0
  4 21  1  0  0  0  0
  4 22  2  0  0  0  0
  4 14  1  0  0  0  0
  5  1  1  1  0  0  0
  5  8  1  0  0  0  0
  6 17  2  0  0  0  0
  6 12  1  0  0  0  0
  8  7  1  6  0  0  0
  8 11  1  0  0  0  0
  9 19  1  0  0  0  0
 11 10  1  6  0  0  0
 12 20  2  0  0  0  0
 12 19  1  0  0  0  0
 13 20  1  0  0  0  0
 14 15  1  0  0  0  0
 18 19  2  0  0  0  0
M  CHG  1  21  -1
M  END
>  <CHROM.1>
-129.43006933,169.37853640,59.44480911,-178.30689731,108.08635709,-34.01700926
3.79791910,-7.22832222,-2.21218780,-0.63158746,2.85915064

>  <Name>
ligand

>  <RI>
0

>  <Rbt.Current_Directory>
/home/itssahil/PROJECTS/Mol_Feturizer/Test_systems_manuscript/rnas/4xwf

>  <Rbt.Executable>
rbdock ($Id: //depot/dev/client3/rdock/2013.1/src/exe/rbdock.cxx#4 $)

>  <Rbt.Library>
libRbt.so (2013.1, Build901 2013/11/27)

>  <Rbt.Parameter_File>
/export/apps/rDock/src/rDock_2013.1_src/data/scripts/dock_solv.prm

>  <Rbt.Receptor>
prm/pocket_docking_8.prm

>  <SCORE>
-6.20141

>  <SCORE.INTER>
-7.97278

>  <SCORE.INTER.CONST>
1

>  <SCORE.INTER.POLAR>
0

>  <SCORE.INTER.ROT>
5

>  <SCORE.INTER.SOLV>
10.964

>  <SCORE.INTER.VDW>
-15.9032

>  <SCORE.INTER.norm>
-0.362399

>  <SCORE.INTRA>
1.77136

>  <SCORE.INTRA.DIHEDRAL>
-1.41936

>  <SCORE.INTRA.DIHEDRAL.0>
3.49807

>  <SCORE.INTRA.POLAR>
0

>  <SCORE.INTRA.POLAR.0>
0

>  <SCORE.INTRA.REPUL>
0

>  <SCORE.INTRA.REPUL.0>
0

>  <SCORE.INTRA.SOLV>
4.43032

>  <SCORE.INTRA.SOLV.lig_0>
-73.062

>  <SCORE.INTRA.VDW>
0.265883

>  <SCORE.INTRA.VDW.0>
-1.83782

>  <SCORE.INTRA.norm>
0.0805165

>  <SCORE.RESTR>
0

>  <SCORE.RESTR.CAVITY>
0

>  <SCORE.RESTR.norm>
0

>  <SCORE.SYSTEM>
0

>  <SCORE.SYSTEM.CONST>
0

>  <SCORE.SYSTEM.DIHEDRAL>
0

>  <SCORE.SYSTEM.SOLV>
0

>  <SCORE.SYSTEM.norm>
0

>  <SCORE.heavy>
22

>  <SCORE.norm>
-0.281882

>  <RMSD>
8.396

$$$$
ligand
 OpenBabel02271912143D
libRbt.so/2013.1/901 2013/11/27
 22 23  0  0  0  0  0  0  0  0999 V2000
  -31.8183    2.0466   -9.5913 N   0  0  0  0  0  0  0  0  0  0  0  0
  -33.3616    2.2777   -6.5885 C   0  0  1  0  0  0  0  0  0  0  0  0
  -32.1426    1.9415   -7.3102 O   0  0  0  0  0  0  0  0  0  0  0  0
  -34.3125   -1.3766   -6.2730 P   0  0  1  0  0  0  0  0  0  0  0  0
  -32.0553    2.7991   -8.4596 C   0  0  2  0  0  0  0  0  0  0  0  0
  -32.1557    0.7917  -11.3299 N   0  0  0  0  0  0  0  0  0  0  0  0
  -33.3534    4.6062   -9.3230 O   0  0  0  0  0  0  0  0  0  0  0  0
  -33.4146    3.3650   -8.6107 C   0  0  2  0  0  0  0  0  0  0  0  0
  -29.6758    1.3448  -13.4546 N   0  0  0  0  0  0  0  0  0  0  0  0
  -33.2489    4.6190   -6.5990 O   0  0  0  0  0  0  0  0  0  0  0  0
  -33.8853    3.4995   -7.2376 C   0  0  2  0  0  0  0  0  0  0  0  0
  -30.8509    1.1012  -11.2834 C   0  0  0  0  0  0  0  0  0  0  0  0
  -29.3963    2.4560   -9.7961 N   0  0  0  0  0  0  0  0  0  0  0  0
  -33.6008    0.0206   -6.2817 O   0  0  0  0  0  0  0  0  0  0  0  0
  -34.2971    1.1294   -6.7501 C   0  0  0  0  0  0  0  0  0  0  0  0
  -34.8799   -1.4995   -7.7337 O   0  0  0  0  0  0  0  0  0  0  0  0
  -32.7535    1.3756  -10.2737 C   0  0  0  0  0  0  0  0  0  0  0  0
  -29.1157   -0.3167  -12.0016 O   0  0  0  0  0  0  0  0  0  0  0  0
  -29.8260    0.6582  -12.2468 C   0  0  0  0  0  0  0  0  0  0  0  0
  -30.6312    1.8938  -10.1931 C   0  0  0  0  0  0  0  0  0  0  0  0
  -33.3321   -2.4375   -5.8975 O   0  5  0  0  0  0  0  0  0  0  0  0
  -35.2799   -1.4632   -5.1643 O   0  0  0  0  0  0  0  0  0  0  0  0
  1 17  1  0  0  0  0
  1 20  1  0  0  0  0
  2 15  1  6  0  0  0
  2  3  1  0  0  0  0
  2 11  1  0  0  0  0
  3  5  1  0  0  0  0
  4 16  1  6  0  0  0
  4 21  1  0  0  0  0
  4 22  2  0  0  0  0
  4 14  1  0  0  0  0
  5  1  1  6  0  0  0
  5  8  1  0  0  0  0
  6 17  2  0  0  0  0
  6 12  1  0  0  0  0
  8  7  1  1  0  0  0
  8 11  1  0  0  0  0
  9 19  1  0  0  0  0
 11 10  1  1  0  0  0
 12 20  2  0  0  0  0
 12 19  1  0  0  0  0
 13 20  1  0  0  0  0
 14 15  1  0  0  0  0
 18 19  2  0  0  0  0
M  CHG  1  21  -1
M  END
>  <CHROM.1>
80.37584364,56.12987296,50.44380361,178.50874738,81.93409425,-32.58276727
1.12286267,-8.51700644,0.29160188,0.93411498,0.00543236

>  <Name>
ligand

>  <RI>
0

>  <Rbt.Current_Directory>
/home/itssahil/PROJECTS/Mol_Feturizer/Test_systems_manuscript/rnas/4xwf

>  <Rbt.Executable>
rbdock ($Id: //depot/dev/client3/rdock/2013.1/src/exe/rbdock.cxx#4 $)

>  <Rbt.Library>
libRbt.so (2013.1, Build901 2013/11/27)

>  <Rbt.Parameter_File>
/export/apps/rDock/src/rDock_2013.1_src/data/scripts/dock_solv.prm

>  <Rbt.Receptor>
prm/pocket_docking_8.prm

>  <SCORE>
-6.89128

>  <SCORE.INTER>
-7.00061

>  <SCORE.INTER.CONST>
1

>  <SCORE.INTER.POLAR>
0

>  <SCORE.INTER.ROT>
5

>  <SCORE.INTER.SOLV>
10.9772

>  <SCORE.INTER.VDW>
-15.2595

>  <SCORE.INTER.norm>
-0.31821

>  <SCORE.INTRA>
0.109331

>  <SCORE.INTRA.DIHEDRAL>
-0.553618

>  <SCORE.INTRA.DIHEDRAL.0>
3.49807

>  <SCORE.INTRA.POLAR>
0

>  <SCORE.INTRA.POLAR.0>
0

>  <SCORE.INTRA.REPUL>
0

>  <SCORE.INTRA.REPUL.0>
0

>  <SCORE.INTRA.SOLV>
-1.27131

>  <SCORE.INTRA.SOLV.lig_0>
-73.062

>  <SCORE.INTRA.VDW>
1.0218

>  <SCORE.INTRA.VDW.0>
-1.83782

>  <SCORE.INTRA.norm>
0.00496957

>  <SCORE.RESTR>
0

>  <SCORE.RESTR.CAVITY>
0

>  <SCORE.RESTR.norm>
0

>  <SCORE.SYSTEM>
0

>  <SCORE.SYSTEM.CONST>
0

>  <SCORE.SYSTEM.DIHEDRAL>
0

>  <SCORE.SYSTEM.SOLV>
0

>  <SCORE.SYSTEM.norm>
0

>  <SCORE.heavy>
22

>  <SCORE.norm>
-0.31324

>  <RMSD>
8.419

$$$$
ligand
 OpenBabel02271912143D
libRbt.so/2013.1/901 2013/11/27
 22 23  0  0  0  0  0  0  0  0999 V2000
  -31.8489    2.0644   -9.6369 N   0  0  0  0  0  0  0  0  0  0  0  0
  -33.4293    2.1976   -6.6474 C   0  0  1  0  0  0  0  0  0  0  0  0
  -32.1771    1.9737   -7.3557 O   0  0  0  0  0  0  0  0  0  0  0  0
  -34.0396   -1.5115   -6.1741 P   0  0  1  0  0  0  0  0  0  0  0  0
  -32.1701    2.8118   -8.5227 C   0  0  2  0  0  0  0  0  0  0  0  0
  -32.0497    0.7766  -11.3724 N   0  0  0  0  0  0  0  0  0  0  0  0
  -33.6407    4.4575   -9.4309 O   0  0  0  0  0  0  0  0  0  0  0  0
  -33.5792    3.2316   -8.6926 C   0  0  2  0  0  0  0  0  0  0  0  0
  -29.3458    1.6161  -13.2645 N   0  0  0  0  0  0  0  0  0  0  0  0
  -33.5577    4.5374   -6.7072 O   0  0  0  0  0  0  0  0  0  0  0  0
  -34.0711    3.3453   -7.3250 C   0  0  2  0  0  0  0  0  0  0  0  0
  -30.7675    1.1621  -11.2829 C   0  0  0  0  0  0  0  0  0  0  0  0
  -29.4489    2.6127   -9.7596 N   0  0  0  0  0  0  0  0  0  0  0  0
  -33.4565   -0.0579   -6.2501 O   0  0  0  0  0  0  0  0  0  0  0  0
  -34.2407    0.9561   -6.7892 C   0  0  0  0  0  0  0  0  0  0  0  0
  -32.7836   -2.3835   -5.8097 O   0  0  0  0  0  0  0  0  0  0  0  0
  -32.7182    1.3338  -10.3448 C   0  0  0  0  0  0  0  0  0  0  0  0
  -29.0897   -0.2961  -12.0547 O   0  0  0  0  0  0  0  0  0  0  0  0
  -29.6844    0.7712  -12.2041 C   0  0  0  0  0  0  0  0  0  0  0  0
  -30.6339    1.9758  -10.1941 C   0  0  0  0  0  0  0  0  0  0  0  0
  -35.1405   -1.5591   -5.1673 O   0  5  0  0  0  0  0  0  0  0  0  0
  -34.7595   -1.8511   -7.4146 O   0  0  0  0  0  0  0  0  0  0  0  0
  1 17  1  0  0  0  0
  1 20  1  0  0  0  0
  2 15  1  6  0  0  0
  2  3  1  0  0  0  0
  2 11  1  0  0  0  0
  3  5  1  0  0  0  0
  4 16  1  1  0  0  0
  4 21  1  0  0  0  0
  4 22  2  0  0  0  0
  4 14  1  0  0  0  0
  5  1  1  6  0  0  0
  5  8  1  0  0  0  0
  6 17  2  0  0  0  0
  6 12  1  0  0  0  0
  8  7  1  1  0  0  0
  8 11  1  0  0  0  0
  9 19  1  0  0  0  0
 11 10  1  1  0  0  0
 12 20  2  0  0  0  0
 12 19  1  0  0  0  0
 13 20  1  0  0  0  0
 14 15  1  0  0  0  0
 18 19  2  0  0  0  0
M  CHG  1  21  -1
M  END
>  <CHROM.1>
83.52181010,58.18742292,168.47927937,177.14596972,95.47632409,-32.53442943
1.08330008,-8.51017160,0.45553722,0.90863469,-0.15756270

>  <Name>
ligand

>  <RI>
0

>  <Rbt.Current_Directory>
/home/itssahil/PROJECTS/Mol_Feturizer/Test_systems_manuscript/rnas/4xwf

>  <Rbt.Executable>
rbdock ($Id: //depot/dev/client3/rdock/2013.1/src/exe/rbdock.cxx#4 $)

>  <Rbt.Library>
libRbt.so (2013.1, Build901 2013/11/27)

>  <Rbt.Parameter_File>
/export/apps/rDock/src/rDock_2013.1_src/data/scripts/dock_solv.prm

>  <Rbt.Receptor>
prm/pocket_docking_7.prm

>  <SCORE>
-6.29793

>  <SCORE.INTER>
-6.64316

>  <SCORE.INTER.CONST>
1

>  <SCORE.INTER.POLAR>
0

>  <SCORE.INTER.ROT>
5

>  <SCORE.INTER.SOLV>
11.669

>  <SCORE.INTER.VDW>
-15.2518

>  <SCORE.INTER.norm>
-0.301962

>  <SCORE.INTRA>
0.345231

>  <SCORE.INTRA.DIHEDRAL>
-1.06211

>  <SCORE.INTRA.DIHEDRAL.0>
3.49807

>  <SCORE.INTRA.POLAR>
0

>  <SCORE.INTRA.POLAR.0>
0

>  <SCORE.INTRA.REPUL>
0

>  <SCORE.INTRA.REPUL.0>
0

>  <SCORE.INTRA.SOLV>
-0.463482

>  <SCORE.INTRA.SOLV.lig_0>
-73.062

>  <SCORE.INTRA.VDW>
1.10802

>  <SCORE.INTRA.VDW.0>
-1.83782

>  <SCORE.INTRA.norm>
0.0156923

>  <SCORE.RESTR>
0

>  <SCORE.RESTR.CAVITY>
0

>  <SCORE.RESTR.norm>
0

>  <SCORE.SYSTEM>
0

>  <SCORE.SYSTEM.CONST>
0

>  <SCORE.SYSTEM.DIHEDRAL>
0

>  <SCORE.SYSTEM.SOLV>
0

>  <SCORE.SYSTEM.norm>
0

>  <SCORE.heavy>
22

>  <SCORE.norm>
-0.28627

>  <RMSD>
8.447

$$$$
ligand
 OpenBabel02271912143D
libRbt.so/2013.1/901 2013/11/27
 22 23  0  0  0  0  0  0  0  0999 V2000
  -32.4516    6.9360   -7.6909 N   0  0  0  0  0  0  0  0  0  0  0  0
  -34.1320    4.0111   -7.9625 C   0  0  1  0  0  0  0  0  0  0  0  0
  -32.9170    4.6831   -7.5244 O   0  0  0  0  0  0  0  0  0  0  0  0
  -32.5896    1.7603   -9.5312 P   0  0  1  0  0  0  0  0  0  0  0  0
  -33.2724    6.0052   -7.0883 C   0  0  2  0  0  0  0  0  0  0  0  0
  -30.9706    7.8188   -9.0094 N   0  0  0  0  0  0  0  0  0  0  0  0
  -35.3157    7.2161   -6.8551 O   0  0  0  0  0  0  0  0  0  0  0  0
  -34.6299    6.2289   -7.6341 C   0  0  2  0  0  0  0  0  0  0  0  0
  -30.3195   10.6784   -9.3667 N   0  0  0  0  0  0  0  0  0  0  0  0
  -35.6007    4.5790   -6.2262 O   0  0  0  0  0  0  0  0  0  0  0  0
  -35.2442    4.9080   -7.5793 C   0  0  2  0  0  0  0  0  0  0  0  0
  -31.5081    8.7990   -8.2671 C   0  0  0  0  0  0  0  0  0  0  0  0
  -33.2554    8.9444   -6.5095 N   0  0  0  0  0  0  0  0  0  0  0  0
  -32.7821    3.3098   -9.6748 O   0  0  0  0  0  0  0  0  0  0  0  0
  -34.0387    3.8579   -9.4416 C   0  0  0  0  0  0  0  0  0  0  0  0
  -33.5033    1.1780  -10.6699 O   0  0  0  0  0  0  0  0  0  0  0  0
  -31.5544    6.6613   -8.6449 C   0  0  0  0  0  0  0  0  0  0  0  0
  -31.5569   11.0180   -7.4854 O   0  0  0  0  0  0  0  0  0  0  0  0
  -31.1476   10.2273   -8.3353 C   0  0  0  0  0  0  0  0  0  0  0  0
  -32.4438    8.2513   -7.4366 C   0  0  0  0  0  0  0  0  0  0  0  0
  -31.1423    1.4195   -9.6626 O   0  5  0  0  0  0  0  0  0  0  0  0
  -32.8711    1.3245   -8.1516 O   0  0  0  0  0  0  0  0  0  0  0  0
  1 17  1  0  0  0  0
  1 20  1  0  0  0  0
  2 15  1  6  0  0  0
  2  3  1  0  0  0  0
  2 11  1  0  0  0  0
  3  5  1  0  0  0  0
  4 16  1  6  0  0  0
  4 21  1  0  0  0  0
  4 22  2  0  0  0  0
  4 14  1  0  0  0  0
  5  1  1  6  0  0  0
  5  8  1  0  0  0  0
  6 17  2  0  0  0  0
  6 12  1  0  0  0  0
  8  7  1  1  0  0  0
  8 11  1  0  0  0  0
  9 19  1  0  0  0  0
 11 10  1  1  0  0  0
 12 20  2  0  0  0  0
 12 19  1  0  0  0  0
 13 20  1  0  0  0  0
 14 15  1  0  0  0  0
 18 19  2  0  0  0  0
M  CHG  1  21  -1
M  END
>  <CHROM.1>
6.52003300,49.46937967,64.34540129,82.54525263,9.64216459,-32.88855241,5.55628078
-8.29573925,1.38798844,0.58218244,0.27932915

>  <Name>
ligand

>  <RI>
0

>  <Rbt.Current_Directory>
/home/itssahil/PROJECTS/Mol_Feturizer/Test_systems_manuscript/rnas/4xwf

>  <Rbt.Executable>
rbdock ($Id: //depot/dev/client3/rdock/2013.1/src/exe/rbdock.cxx#4 $)

>  <Rbt.Library>
libRbt.so (2013.1, Build901 2013/11/27)

>  <Rbt.Parameter_File>
/export/apps/rDock/src/rDock_2013.1_src/data/scripts/dock_solv.prm

>  <Rbt.Receptor>
prm/pocket_docking_7.prm

>  <SCORE>
-6.28383

>  <SCORE.INTER>
-8.43881

>  <SCORE.INTER.CONST>
1

>  <SCORE.INTER.POLAR>
0

>  <SCORE.INTER.ROT>
5

>  <SCORE.INTER.SOLV>
9.71788

>  <SCORE.INTER.VDW>
-15.7985

>  <SCORE.INTER.norm>
-0.383582

>  <SCORE.INTRA>
2.15498

>  <SCORE.INTRA.DIHEDRAL>
0.735473

>  <SCORE.INTRA.DIHEDRAL.0>
3.49807

>  <SCORE.INTRA.POLAR>
0

>  <SCORE.INTRA.POLAR.0>
0

>  <SCORE.INTRA.REPUL>
0

>  <SCORE.INTRA.REPUL.0>
0

>  <SCORE.INTRA.SOLV>
3.03181

>  <SCORE.INTRA.SOLV.lig_0>
-73.062

>  <SCORE.INTRA.VDW>
0.271338

>  <SCORE.INTRA.VDW.0>
-1.83782

>  <SCORE.INTRA.norm>
0.0979536

>  <SCORE.RESTR>
0

>  <SCORE.RESTR.CAVITY>
0

>  <SCORE.RESTR.norm>
0

>  <SCORE.SYSTEM>
0

>  <SCORE.SYSTEM.CONST>
0

>  <SCORE.SYSTEM.DIHEDRAL>
0

>  <SCORE.SYSTEM.SOLV>
0

>  <SCORE.SYSTEM.norm>
0

>  <SCORE.heavy>
22

>  <SCORE.norm>
-0.285629

>  <RMSD>
8.612

$$$$
ligand
 OpenBabel02271912143D
libRbt.so/2013.1/901 2013/11/27
 22 23  0  0  0  0  0  0  0  0999 V2000
  -32.6091    7.2955   -7.7235 N   0  0  0  0  0  0  0  0  0  0  0  0
  -34.4103    4.4580   -7.3274 C   0  0  1  0  0  0  0  0  0  0  0  0
  -33.2366    5.2226   -6.9303 O   0  0  0  0  0  0  0  0  0  0  0  0
  -32.3756    2.2144   -9.5970 P   0  0  1  0  0  0  0  0  0  0  0  0
  -33.5700    6.6184   -7.0013 C   0  0  2  0  0  0  0  0  0  0  0  0
  -30.9403    7.6908   -9.0538 N   0  0  0  0  0  0  0  0  0  0  0  0
  -35.5438    7.8614   -7.5061 O   0  0  0  0  0  0  0  0  0  0  0  0
  -34.8108    6.6681   -7.8068 C   0  0  2  0  0  0  0  0  0  0  0  0
  -31.7425   11.0780   -9.7181 N   0  0  0  0  0  0  0  0  0  0  0  0
  -36.0888    5.5725   -6.1294 O   0  0  0  0  0  0  0  0  0  0  0  0
  -35.5089    5.4425   -7.4383 C   0  0  2  0  0  0  0  0  0  0  0  0
  -31.4306    8.8678   -8.6356 C   0  0  0  0  0  0  0  0  0  0  0  0
  -33.2911    9.5968   -7.1622 N   0  0  0  0  0  0  0  0  0  0  0  0
  -33.0758    2.9297   -8.3901 O   0  0  0  0  0  0  0  0  0  0  0  0
  -34.1013    3.8338   -8.6445 C   0  0  0  0  0  0  0  0  0  0  0  0
  -31.5958    3.3821  -10.3032 O   0  0  0  0  0  0  0  0  0  0  0  0
  -31.6707    6.7154   -8.4806 C   0  0  0  0  0  0  0  0  0  0  0  0
  -29.7673   10.5299   -8.7262 O   0  0  0  0  0  0  0  0  0  0  0  0
  -30.9172   10.1976   -9.0133 C   0  0  0  0  0  0  0  0  0  0  0  0
  -32.4837    8.6271   -7.7999 C   0  0  0  0  0  0  0  0  0  0  0  0
  -31.5106    1.1077   -9.0919 O   0  5  0  0  0  0  0  0  0  0  0  0
  -33.3592    1.4736  -10.4072 O   0  0  0  0  0  0  0  0  0  0  0  0
  1 17  1  0  0  0  0
  1 20  1  0  0  0  0
  2 15  1  6  0  0  0
  2  3  1  0  0  0  0
  2 11  1  0  0  0  0
  3  5  1  0  0  0  0
  4 16  1  6  0  0  0
  4 21  1  0  0  0  0
  4 22  2  0  0  0  0
  4 14  1  0  0  0  0
  5  1  1  6  0  0  0
  5  8  1  0  0  0  0
  6 17  2  0  0  0  0
  6 12  1  0  0  0  0
  8  7  1  1  0  0  0
  8 11  1  0  0  0  0
  9 19  1  0  0  0  0
 11 10  1  1  0  0  0
 12 20  2  0  0  0  0
 12 19  1  0  0  0  0
 13 20  1  0  0  0  0
 14 15  1  0  0  0  0
 18 19  2  0  0  0  0
M  CHG  1  21  -1
M  END
>  <CHROM.1>
13.13600093,65.62875202,68.63863593,-172.49860320,117.28620816,-32.89997485
5.91309580,-8.39210808,1.40768533,0.53852583,0.19063189

>  <Name>
ligand

>  <RI>
0

>  <Rbt.Current_Directory>
/home/itssahil/PROJECTS/Mol_Feturizer/Test_systems_manuscript/rnas/4xwf

>  <Rbt.Executable>
rbdock ($Id: //depot/dev/client3/rdock/2013.1/src/exe/rbdock.cxx#4 $)

>  <Rbt.Library>
libRbt.so (2013.1, Build901 2013/11/27)

>  <Rbt.Parameter_File>
/export/apps/rDock/src/rDock_2013.1_src/data/scripts/dock_solv.prm

>  <Rbt.Receptor>
prm/pocket_docking_8.prm

>  <SCORE>
-8.04868

>  <SCORE.INTER>
-7.22713

>  <SCORE.INTER.CONST>
1

>  <SCORE.INTER.POLAR>
0

>  <SCORE.INTER.ROT>
5

>  <SCORE.INTER.SOLV>
16.108

>  <SCORE.INTER.VDW>
-17.1207

>  <SCORE.INTER.norm>
-0.328506

>  <SCORE.INTRA>
-0.821553

>  <SCORE.INTRA.DIHEDRAL>
-1.51583

>  <SCORE.INTRA.DIHEDRAL.0>
3.49807

>  <SCORE.INTRA.POLAR>
0

>  <SCORE.INTRA.POLAR.0>
0

>  <SCORE.INTRA.REPUL>
0

>  <SCORE.INTRA.REPUL.0>
0

>  <SCORE.INTRA.SOLV>
0.739781

>  <SCORE.INTRA.SOLV.lig_0>
-73.062

>  <SCORE.INTRA.VDW>
-0.433532

>  <SCORE.INTRA.VDW.0>
-1.83782

>  <SCORE.INTRA.norm>
-0.0373433

>  <SCORE.RESTR>
0

>  <SCORE.RESTR.CAVITY>
0

>  <SCORE.RESTR.norm>
0

>  <SCORE.SYSTEM>
0

>  <SCORE.SYSTEM.CONST>
0

>  <SCORE.SYSTEM.DIHEDRAL>
0

>  <SCORE.SYSTEM.SOLV>
0

>  <SCORE.SYSTEM.norm>
0

>  <SCORE.heavy>
22

>  <SCORE.norm>
-0.365849

>  <RMSD>
8.674

$$$$
ligand
 OpenBabel02271912143D
libRbt.so/2013.1/901 2013/11/27
 22 23  0  0  0  0  0  0  0  0999 V2000
  -33.5205    5.0484   -8.0257 N   0  0  0  0  0  0  0  0  0  0  0  0
  -35.2247    6.9729   -5.8247 C   0  0  1  0  0  0  0  0  0  0  0  0
  -34.4181    5.7784   -6.0304 O   0  0  0  0  0  0  0  0  0  0  0  0
  -38.5782    5.2289   -5.5576 P   0  0  1  0  0  0  0  0  0  0  0  0
  -33.4769    6.0526   -7.0808 C   0  0  2  0  0  0  0  0  0  0  0  0
  -34.2770    3.6640   -9.5164 N   0  0  0  0  0  0  0  0  0  0  0  0
  -32.9297    7.9617   -8.4043 O   0  0  0  0  0  0  0  0  0  0  0  0
  -33.9955    7.2714   -7.7415 C   0  0  2  0  0  0  0  0  0  0  0  0
  -32.7720    1.4098  -10.7562 N   0  0  0  0  0  0  0  0  0  0  0  0
  -33.5686    8.6317   -5.8403 O   0  0  0  0  0  0  0  0  0  0  0  0
  -34.5930    8.0274   -6.6476 C   0  0  2  0  0  0  0  0  0  0  0  0
  -32.9493    3.4938   -9.4220 C   0  0  0  0  0  0  0  0  0  0  0  0
  -31.1138    4.5218   -8.1038 N   0  0  0  0  0  0  0  0  0  0  0  0
  -37.1160    5.7632   -5.3708 O   0  0  0  0  0  0  0  0  0  0  0  0
  -36.6011    6.6592   -6.3013 C   0  0  0  0  0  0  0  0  0  0  0  0
  -39.4493    6.5354   -5.4895 O   0  0  0  0  0  0  0  0  0  0  0  0
  -34.6301    4.6264   -8.6432 C   0  0  0  0  0  0  0  0  0  0  0  0
  -30.9361    2.6907  -10.3382 O   0  0  0  0  0  0  0  0  0  0  0  0
  -32.1478    2.5276  -10.1959 C   0  0  0  0  0  0  0  0  0  0  0  0
  -32.4653    4.3642   -8.4875 C   0  0  0  0  0  0  0  0  0  0  0  0
  -38.6795    4.4827   -6.8464 O   0  5  0  0  0  0  0  0  0  0  0  0
  -38.8759    4.1680   -4.5785 O   0  0  0  0  0  0  0  0  0  0  0  0
  1 17  1  0  0  0  0
  1 20  1  0  0  0  0
  2 15  1  6  0  0  0
  2  3  1  0  0  0  0
  2 11  1  0  0  0  0
  3  5  1  0  0  0  0
  4 16  1  1  0  0  0
  4 21  1  0  0  0  0
  4 22  2  0  0  0  0
  4 14  1  0  0  0  0
  5  1  1  6  0  0  0
  5  8  1  0  0  0  0
  6 17  2  0  0  0  0
  6 12  1  0  0  0  0
  8  7  1  1  0  0  0
  8 11  1  0  0  0  0
  9 19  1  0  0  0  0
 11 10  1  1  0  0  0
 12 20  2  0  0  0  0
 12 19  1  0  0  0  0
 13 20  1  0  0  0  0
 14 15  1  0  0  0  0
 18 19  2  0  0  0  0
M  CHG  1  21  -1
M  END
>  <CHROM.1>
53.28424283,70.58863793,-61.04140317,179.25904028,-21.92408497,-34.94930277
5.30379501,-7.33261878,-0.52566935,0.40629268,0.47924952

>  <Name>
ligand

>  <RI>
0

>  <Rbt.Current_Directory>
/home/itssahil/PROJECTS/Mol_Feturizer/Test_systems_manuscript/rnas/4xwf

>  <Rbt.Executable>
rbdock ($Id: //depot/dev/client3/rdock/2013.1/src/exe/rbdock.cxx#4 $)

>  <Rbt.Library>
libRbt.so (2013.1, Build901 2013/11/27)

>  <Rbt.Parameter_File>
/export/apps/rDock/src/rDock_2013.1_src/data/scripts/dock_solv.prm

>  <Rbt.Receptor>
prm/pocket_docking_8.prm

>  <SCORE>
-11.07

>  <SCORE.INTER>
-10.005

>  <SCORE.INTER.CONST>
1

>  <SCORE.INTER.POLAR>
0

>  <SCORE.INTER.ROT>
5

>  <SCORE.INTER.SOLV>
18.5679

>  <SCORE.INTER.VDW>
-19.7926

>  <SCORE.INTER.norm>
-0.454771

>  <SCORE.INTRA>
-1.065

>  <SCORE.INTRA.DIHEDRAL>
-1.11067

>  <SCORE.INTRA.DIHEDRAL.0>
3.49807

>  <SCORE.INTRA.POLAR>
0

>  <SCORE.INTRA.POLAR.0>
0

>  <SCORE.INTRA.REPUL>
0

>  <SCORE.INTRA.REPUL.0>
0

>  <SCORE.INTRA.SOLV>
-0.809278

>  <SCORE.INTRA.SOLV.lig_0>
-73.062

>  <SCORE.INTRA.VDW>
-0.105023

>  <SCORE.INTRA.VDW.0>
-1.83782

>  <SCORE.INTRA.norm>
-0.0484089

>  <SCORE.RESTR>
0

>  <SCORE.RESTR.CAVITY>
0

>  <SCORE.RESTR.norm>
0

>  <SCORE.SYSTEM>
0

>  <SCORE.SYSTEM.CONST>
0

>  <SCORE.SYSTEM.DIHEDRAL>
0

>  <SCORE.SYSTEM.SOLV>
0

>  <SCORE.SYSTEM.norm>
0

>  <SCORE.heavy>
22

>  <SCORE.norm>
-0.50318

>  <RMSD>
9.433

$$$$
ligand
 OpenBabel02271912143D
libRbt.so/2013.1/901 2013/11/27
 22 23  0  0  0  0  0  0  0  0999 V2000
  -35.2999    0.9191  -19.4121 N   0  0  0  0  0  0  0  0  0  0  0  0
  -32.7920    3.1512  -19.8373 C   0  0  1  0  0  0  0  0  0  0  0  0
  -33.1747    1.7492  -19.7500 O   0  0  0  0  0  0  0  0  0  0  0  0
  -32.3632    5.9227  -17.2902 P   0  0  1  0  0  0  0  0  0  0  0  0
  -34.4979    1.6145  -20.2933 C   0  0  2  0  0  0  0  0  0  0  0  0
  -36.7303    0.4937  -17.8360 N   0  0  0  0  0  0  0  0  0  0  0  0
  -36.0582    3.0932  -21.3301 O   0  0  0  0  0  0  0  0  0  0  0  0
  -35.0275    2.9958  -20.3401 C   0  0  2  0  0  0  0  0  0  0  0  0
  -35.9239   -2.8882  -17.3486 N   0  0  0  0  0  0  0  0  0  0  0  0
  -33.4825    3.6619  -22.0183 O   0  0  0  0  0  0  0  0  0  0  0  0
  -33.8515    3.8048  -20.6364 C   0  0  2  0  0  0  0  0  0  0  0  0
  -36.3467   -0.6717  -18.3794 C   0  0  0  0  0  0  0  0  0  0  0  0
  -34.8195   -1.3628  -20.2108 N   0  0  0  0  0  0  0  0  0  0  0  0
  -32.5400    5.0494  -18.5805 O   0  0  0  0  0  0  0  0  0  0  0  0
  -32.7519    3.6817  -18.4455 C   0  0  0  0  0  0  0  0  0  0  0  0
  -33.2732    5.1939  -16.2360 O   0  0  0  0  0  0  0  0  0  0  0  0
  -36.0736    1.4802  -18.4756 C   0  0  0  0  0  0  0  0  0  0  0  0
  -37.9756   -2.3585  -18.1827 O   0  0  0  0  0  0  0  0  0  0  0  0
  -36.8149   -2.0086  -17.9693 C   0  0  0  0  0  0  0  0  0  0  0  0
  -35.4483   -0.4118  -19.3748 C   0  0  0  0  0  0  0  0  0  0  0  0
  -30.9182    5.9880  -16.9219 O   0  5  0  0  0  0  0  0  0  0  0  0
  -32.6597    7.3385  -17.5730 O   0  0  0  0  0  0  0  0  0  0  0  0
  1 17  1  0  0  0  0
  1 20  1  0  0  0  0
  2 15  1  1  0  0  0
  2  3  1  0  0  0  0
  2 11  1  0  0  0  0
  3  5  1  0  0  0  0
  4 16  1  1  0  0  0
  4 21  1  0  0  0  0
  4 22  2  0  0  0  0
  4 14  1  0  0  0  0
  5  1  1  1  0  0  0
  5  8  1  0  0  0  0
  6 17  2  0  0  0  0
  6 12  1  0  0  0  0
  8  7  1  6  0  0  0
  8 11  1  0  0  0  0
  9 19  1  0  0  0  0
 11 10  1  6  0  0  0
 12 20  2  0  0  0  0
 12 19  1  0  0  0  0
 13 20  1  0  0  0  0
 14 15  1  0  0  0  0
 18 19  2  0  0  0  0
M  CHG  1  21  -1
M  END
>  <CHROM.1>
92.48698289,-173.19681877,-32.23479503,-176.62899252,-111.74668997,-34.31134996
2.43661248,-18.83258668,-3.12022713,1.05184647,1.65942202

>  <Name>
ligand

>  <RI>
0

>  <Rbt.Current_Directory>
/home/itssahil/PROJECTS/Mol_Feturizer/Test_systems_manuscript/rnas/4xwf

>  <Rbt.Executable>
rbdock ($Id: //depot/dev/client3/rdock/2013.1/src/exe/rbdock.cxx#4 $)

>  <Rbt.Library>
libRbt.so (2013.1, Build901 2013/11/27)

>  <Rbt.Parameter_File>
/export/apps/rDock/src/rDock_2013.1_src/data/scripts/dock_solv.prm

>  <Rbt.Receptor>
prm/blind_docking_60.prm

>  <SCORE>
-11.3439

>  <SCORE.INTER>
-13.0028

>  <SCORE.INTER.CONST>
1

>  <SCORE.INTER.POLAR>
0

>  <SCORE.INTER.ROT>
5

>  <SCORE.INTER.SOLV>
18.3193

>  <SCORE.INTER.VDW>
-21.7083

>  <SCORE.INTER.norm>
-0.591037

>  <SCORE.INTRA>
1.65891

>  <SCORE.INTRA.DIHEDRAL>
-0.657769

>  <SCORE.INTRA.DIHEDRAL.0>
3.49807

>  <SCORE.INTRA.POLAR>
0

>  <SCORE.INTRA.POLAR.0>
0

>  <SCORE.INTRA.REPUL>
0

>  <SCORE.INTRA.REPUL.0>
0

>  <SCORE.INTRA.SOLV>
-1.02538

>  <SCORE.INTRA.SOLV.lig_0>
-73.062

>  <SCORE.INTRA.VDW>
2.50048

>  <SCORE.INTRA.VDW.0>
-1.83782

>  <SCORE.INTRA.norm>
0.0754048

>  <SCORE.RESTR>
0

>  <SCORE.RESTR.CAVITY>
0

>  <SCORE.RESTR.norm>
0

>  <SCORE.SYSTEM>
0

>  <SCORE.SYSTEM.CONST>
0

>  <SCORE.SYSTEM.DIHEDRAL>
0

>  <SCORE.SYSTEM.SOLV>
0

>  <SCORE.SYSTEM.norm>
0

>  <SCORE.heavy>
22

>  <SCORE.norm>
-0.515632

>  <RMSD>
10.908

$$$$
ligand
 OpenBabel02271912143D
libRbt.so/2013.1/901 2013/11/27
 22 23  0  0  0  0  0  0  0  0999 V2000
  -35.4483    0.7023  -19.2392 N   0  0  0  0  0  0  0  0  0  0  0  0
  -32.9526    2.8932  -19.8903 C   0  0  1  0  0  0  0  0  0  0  0  0
  -33.3288    1.5043  -19.6685 O   0  0  0  0  0  0  0  0  0  0  0  0
  -32.1515    5.7952  -17.6008 P   0  0  1  0  0  0  0  0  0  0  0  0
  -34.6550    1.3143  -20.1875 C   0  0  2  0  0  0  0  0  0  0  0  0
  -36.8935    0.4192  -17.6447 N   0  0  0  0  0  0  0  0  0  0  0  0
  -36.2282    2.6830  -21.3483 O   0  0  0  0  0  0  0  0  0  0  0  0
  -35.1907    2.6831  -20.3607 C   0  0  2  0  0  0  0  0  0  0  0  0
  -35.9847   -2.8226  -16.6932 N   0  0  0  0  0  0  0  0  0  0  0  0
  -33.6595    3.1934  -22.1049 O   0  0  0  0  0  0  0  0  0  0  0  0
  -34.0201    3.4647  -20.7401 C   0  0  2  0  0  0  0  0  0  0  0  0
  -36.4559   -0.7885  -18.0328 C   0  0  0  0  0  0  0  0  0  0  0  0
  -34.8673   -1.6402  -19.7399 N   0  0  0  0  0  0  0  0  0  0  0  0
  -32.2002    4.7345  -18.7545 O   0  0  0  0  0  0  0  0  0  0  0  0
  -32.9056    3.5527  -18.5550 C   0  0  0  0  0  0  0  0  0  0  0  0
  -31.9056    4.9200  -16.3186 O   0  0  0  0  0  0  0  0  0  0  0  0
  -36.2611    1.3441  -18.3919 C   0  0  0  0  0  0  0  0  0  0  0  0
  -38.0130   -2.5176  -17.6824 O   0  0  0  0  0  0  0  0  0  0  0  0
  -36.8823   -2.0817  -17.4667 C   0  0  0  0  0  0  0  0  0  0  0  0
  -35.5478   -0.6186  -19.0386 C   0  0  0  0  0  0  0  0  0  0  0  0
  -31.0805    6.7957  -17.8832 O   0  5  0  0  0  0  0  0  0  0  0  0
  -33.3580    6.6418  -17.6182 O   0  0  0  0  0  0  0  0  0  0  0  0
  1 17  1  0  0  0  0
  1 20  1  0  0  0  0
  2 15  1  1  0  0  0
  2  3  1  0  0  0  0
  2 11  1  0  0  0  0
  3  5  1  0  0  0  0
  4 16  1  1  0  0  0
  4 21  1  0  0  0  0
  4 22  2  0  0  0  0
  4 14  1  0  0  0  0
  5  1  1  1  0  0  0
  5  8  1  0  0  0  0
  6 17  2  0  0  0  0
  6 12  1  0  0  0  0
  8  7  1  6  0  0  0
  8 11  1  0  0  0  0
  9 19  1  0  0  0  0
 11 10  1  6  0  0  0
 12 20  2  0  0  0  0
 12 19  1  0  0  0  0
 13 20  1  0  0  0  0
 14 15  1  0  0  0  0
 18 19  2  0  0  0  0
M  CHG  1  21  -1
M  END
>  <CHROM.1>
95.46773916,163.95183375,43.09612035,170.48399099,-109.79990252,-34.34348273
2.24479378,-18.79778786,2.98324661,1.01359644,1.77248938

>  <Name>
ligand

>  <RI>
0

>  <Rbt.Current_Directory>
/home/itssahil/PROJECTS/Mol_Feturizer/Test_systems_manuscript/rnas/4xwf

>  <Rbt.Executable>
rbdock ($Id: //depot/dev/client3/rdock/2013.1/src/exe/rbdock.cxx#4 $)

>  <Rbt.Library>
libRbt.so (2013.1, Build901 2013/11/27)

>  <Rbt.Parameter_File>
/export/apps/rDock/src/rDock_2013.1_src/data/scripts/dock_solv.prm

>  <Rbt.Receptor>
prm/blind_docking_60.prm

>  <SCORE>
-11.0934

>  <SCORE.INTER>
-12.5815

>  <SCORE.INTER.CONST>
1

>  <SCORE.INTER.POLAR>
0

>  <SCORE.INTER.ROT>
5

>  <SCORE.INTER.SOLV>
16.3619

>  <SCORE.INTER.VDW>
-20.775

>  <SCORE.INTER.norm>
-0.571885

>  <SCORE.INTRA>
1.48806

>  <SCORE.INTRA.DIHEDRAL>
-0.0431905

>  <SCORE.INTRA.DIHEDRAL.0>
3.49807

>  <SCORE.INTRA.POLAR>
0

>  <SCORE.INTRA.POLAR.0>
0

>  <SCORE.INTRA.REPUL>
0

>  <SCORE.INTRA.REPUL.0>
0

>  <SCORE.INTRA.SOLV>
-0.894469

>  <SCORE.INTRA.SOLV.lig_0>
-73.062

>  <SCORE.INTRA.VDW>
1.95689

>  <SCORE.INTRA.VDW.0>
-1.83782

>  <SCORE.INTRA.norm>
0.0676389

>  <SCORE.RESTR>
0

>  <SCORE.RESTR.CAVITY>
0

>  <SCORE.RESTR.norm>
0

>  <SCORE.SYSTEM>
0

>  <SCORE.SYSTEM.CONST>
0

>  <SCORE.SYSTEM.DIHEDRAL>
0

>  <SCORE.SYSTEM.SOLV>
0

>  <SCORE.SYSTEM.norm>
0

>  <SCORE.heavy>
22

>  <SCORE.norm>
-0.504246

>  <RMSD>
10.916

$$$$
ligand
 OpenBabel02271912143D
libRbt.so/2013.1/901 2013/11/27
 22 23  0  0  0  0  0  0  0  0999 V2000
  -35.5035    0.7133  -19.2346 N   0  0  0  0  0  0  0  0  0  0  0  0
  -32.9920    2.8388  -20.0268 C   0  0  1  0  0  0  0  0  0  0  0  0
  -33.3939    1.4588  -19.7944 O   0  0  0  0  0  0  0  0  0  0  0  0
  -31.9270    5.6711  -17.7528 P   0  0  1  0  0  0  0  0  0  0  0  0
  -34.7562    1.3133  -20.2270 C   0  0  2  0  0  0  0  0  0  0  0  0
  -36.8791    0.4493  -17.5766 N   0  0  0  0  0  0  0  0  0  0  0  0
  -36.3608    2.7405  -21.2682 O   0  0  0  0  0  0  0  0  0  0  0  0
  -35.2613    2.6990  -20.3511 C   0  0  2  0  0  0  0  0  0  0  0  0
  -35.8834   -2.7892  -16.6431 N   0  0  0  0  0  0  0  0  0  0  0  0
  -33.8331    3.1853  -22.1871 O   0  0  0  0  0  0  0  0  0  0  0  0
  -34.0954    3.4508  -20.7989 C   0  0  2  0  0  0  0  0  0  0  0  0
  -36.4451   -0.7619  -17.9579 C   0  0  0  0  0  0  0  0  0  0  0  0
  -34.9191   -1.6333  -19.7115 N   0  0  0  0  0  0  0  0  0  0  0  0
  -32.3673    4.7629  -18.9528 O   0  0  0  0  0  0  0  0  0  0  0  0
  -32.8382    3.4809  -18.6911 C   0  0  0  0  0  0  0  0  0  0  0  0
  -33.1500    5.5842  -16.7692 O   0  0  0  0  0  0  0  0  0  0  0  0
  -36.2876    1.3646  -18.3677 C   0  0  0  0  0  0  0  0  0  0  0  0
  -37.9819   -2.4758  -17.4700 O   0  0  0  0  0  0  0  0  0  0  0  0
  -36.8344   -2.0472  -17.3488 C   0  0  0  0  0  0  0  0  0  0  0  0
  -35.5809   -0.6040  -19.0036 C   0  0  0  0  0  0  0  0  0  0  0  0
  -30.6402    5.1682  -17.1878 O   0  5  0  0  0  0  0  0  0  0  0  0
  -31.5371    7.0110  -18.2273 O   0  0  0  0  0  0  0  0  0  0  0  0
  1 17  1  0  0  0  0
  1 20  1  0  0  0  0
  2 15  1  1  0  0  0
  2  3  1  0  0  0  0
  2 11  1  0  0  0  0
  3  5  1  0  0  0  0
  4 16  1  1  0  0  0
  4 21  1  0  0  0  0
  4 22  2  0  0  0  0
  4 14  1  0  0  0  0
  5  1  1  1  0  0  0
  5  8  1  0  0  0  0
  6 17  2  0  0  0  0
  6 12  1  0  0  0  0
  8  7  1  6  0  0  0
  8 11  1  0  0  0  0
  9 19  1  0  0  0  0
 11 10  1  6  0  0  0
 12 20  2  0  0  0  0
 12 19  1  0  0  0  0
 13 20  1  0  0  0  0
 14 15  1  0  0  0  0
 18 19  2  0  0  0  0
M  CHG  1  21  -1
M  END
>  <CHROM.1>
98.66887944,176.03004302,-50.37052936,-172.74388878,-112.33698155,-34.30573619
2.20963305,-18.83441725,2.86809598,0.96268385,1.88219945

>  <Name>
ligand

>  <RI>
0

>  <Rbt.Current_Directory>
/home/itssahil/PROJECTS/Mol_Feturizer/Test_systems_manuscript/rnas/4xwf

>  <Rbt.Executable>
rbdock ($Id: //depot/dev/client3/rdock/2013.1/src/exe/rbdock.cxx#4 $)

>  <Rbt.Library>
libRbt.so (2013.1, Build901 2013/11/27)

>  <Rbt.Parameter_File>
/export/apps/rDock/src/rDock_2013.1_src/data/scripts/dock_solv.prm

>  <Rbt.Receptor>
prm/blind_docking_80.prm

>  <SCORE>
-11.7696

>  <SCORE.INTER>
-12.6982

>  <SCORE.INTER.CONST>
1

>  <SCORE.INTER.POLAR>
0

>  <SCORE.INTER.ROT>
5

>  <SCORE.INTER.SOLV>
14.1918

>  <SCORE.INTER.VDW>
-20.1294

>  <SCORE.INTER.norm>
-0.577189

>  <SCORE.INTRA>
0.928593

>  <SCORE.INTRA.DIHEDRAL>
-1.44716

>  <SCORE.INTRA.DIHEDRAL.0>
3.49807

>  <SCORE.INTRA.POLAR>
0

>  <SCORE.INTRA.POLAR.0>
0

>  <SCORE.INTRA.REPUL>
0

>  <SCORE.INTRA.REPUL.0>
0

>  <SCORE.INTRA.SOLV>
-0.865086

>  <SCORE.INTRA.SOLV.lig_0>
-73.062

>  <SCORE.INTRA.VDW>
2.08472

>  <SCORE.INTRA.VDW.0>
-1.83782

>  <SCORE.INTRA.norm>
0.0422088

>  <SCORE.RESTR>
0

>  <SCORE.RESTR.CAVITY>
0

>  <SCORE.RESTR.norm>
0

>  <SCORE.SYSTEM>
0

>  <SCORE.SYSTEM.CONST>
0

>  <SCORE.SYSTEM.DIHEDRAL>
0

>  <SCORE.SYSTEM.SOLV>
0

>  <SCORE.SYSTEM.norm>
0

>  <SCORE.heavy>
22

>  <SCORE.norm>
-0.53498

>  <RMSD>
10.926

$$$$
ligand
 OpenBabel02271912143D
libRbt.so/2013.1/901 2013/11/27
 22 23  0  0  0  0  0  0  0  0999 V2000
  -35.5170    0.7168  -19.2465 N   0  0  0  0  0  0  0  0  0  0  0  0
  -32.9884    2.8263  -20.0264 C   0  0  1  0  0  0  0  0  0  0  0  0
  -33.4007    1.4486  -19.7991 O   0  0  0  0  0  0  0  0  0  0  0  0
  -31.9358    5.6572  -17.7452 P   0  0  1  0  0  0  0  0  0  0  0  0
  -34.7630    1.3142  -20.2353 C   0  0  2  0  0  0  0  0  0  0  0  0
  -36.8702    0.4614  -17.5688 N   0  0  0  0  0  0  0  0  0  0  0  0
  -36.3548    2.7560  -21.2762 O   0  0  0  0  0  0  0  0  0  0  0  0
  -35.2578    2.7039  -20.3565 C   0  0  2  0  0  0  0  0  0  0  0  0
  -37.5285   -2.0600  -16.1550 N   0  0  0  0  0  0  0  0  0  0  0  0
  -33.8217    3.1853  -22.1877 O   0  0  0  0  0  0  0  0  0  0  0  0
  -34.0854    3.4486  -20.7993 C   0  0  2  0  0  0  0  0  0  0  0  0
  -36.4991   -0.7550  -17.9966 C   0  0  0  0  0  0  0  0  0  0  0  0
  -35.0488   -1.6371  -19.8083 N   0  0  0  0  0  0  0  0  0  0  0  0
  -32.3785    4.7520  -18.9465 O   0  0  0  0  0  0  0  0  0  0  0  0
  -32.8331    3.4634  -18.6884 C   0  0  0  0  0  0  0  0  0  0  0  0
  -33.1607    5.5756  -16.7637 O   0  0  0  0  0  0  0  0  0  0  0  0
  -36.2536    1.3743  -18.3434 C   0  0  0  0  0  0  0  0  0  0  0  0
  -36.7643   -3.0929  -18.0351 O   0  0  0  0  0  0  0  0  0  0  0  0
  -36.9341   -2.0405  -17.4196 C   0  0  0  0  0  0  0  0  0  0  0  0
  -35.6493   -0.6025  -19.0549 C   0  0  0  0  0  0  0  0  0  0  0  0
  -30.6523    5.1476  -17.1786 O   0  5  0  0  0  0  0  0  0  0  0  0
  -31.5386    6.9955  -18.2182 O   0  0  0  0  0  0  0  0  0  0  0  0
  1 17  1  0  0  0  0
  1 20  1  0  0  0  0
  2 15  1  1  0  0  0
  2  3  1  0  0  0  0
  2 11  1  0  0  0  0
  3  5  1  0  0  0  0
  4 16  1  1  0  0  0
  4 21  1  0  0  0  0
  4 22  2  0  0  0  0
  4 14  1  0  0  0  0
  5  1  1  1  0  0  0
  5  8  1  0  0  0  0
  6 17  2  0  0  0  0
  6 12  1  0  0  0  0
  8  7  1  6  0  0  0
  8 11  1  0  0  0  0
  9 19  1  0  0  0  0
 11 10  1  6  0  0  0
 12 20  2  0  0  0  0
 12 19  1  0  0  0  0
 13 20  1  0  0  0  0
 14 15  1  0  0  0  0
 18 19  2  0  0  0  0
M  CHG  1  21  -1
M  END
>  <CHROM.1>
95.65870526,177.22130139,-51.53667026,-172.51525868,-15.66375496,-34.33053172
2.20721354,-18.84928372,2.99834855,0.97764096,1.73451936

>  <Name>
ligand

>  <RI>
0

>  <Rbt.Current_Directory>
/home/itssahil/PROJECTS/Mol_Feturizer/Test_systems_manuscript/rnas/4xwf

>  <Rbt.Executable>
rbdock ($Id: //depot/dev/client3/rdock/2013.1/src/exe/rbdock.cxx#4 $)

>  <Rbt.Library>
libRbt.so (2013.1, Build901 2013/11/27)

>  <Rbt.Parameter_File>
/export/apps/rDock/src/rDock_2013.1_src/data/scripts/dock_solv.prm

>  <Rbt.Receptor>
prm/blind_docking_80.prm

>  <SCORE>
-11.639

>  <SCORE.INTER>
-12.6171

>  <SCORE.INTER.CONST>
1

>  <SCORE.INTER.POLAR>
0

>  <SCORE.INTER.ROT>
5

>  <SCORE.INTER.SOLV>
14.8066

>  <SCORE.INTER.VDW>
-20.2802

>  <SCORE.INTER.norm>
-0.573503

>  <SCORE.INTRA>
0.978115

>  <SCORE.INTRA.DIHEDRAL>
-1.30948

>  <SCORE.INTRA.DIHEDRAL.0>
3.49807

>  <SCORE.INTRA.POLAR>
0

>  <SCORE.INTRA.POLAR.0>
0

>  <SCORE.INTRA.REPUL>
0

>  <SCORE.INTRA.REPUL.0>
0

>  <SCORE.INTRA.SOLV>
-0.937334

>  <SCORE.INTRA.SOLV.lig_0>
-73.062

>  <SCORE.INTRA.VDW>
2.10152

>  <SCORE.INTRA.VDW.0>
-1.83782

>  <SCORE.INTRA.norm>
0.0444598

>  <SCORE.RESTR>
0

>  <SCORE.RESTR.CAVITY>
0

>  <SCORE.RESTR.norm>
0

>  <SCORE.SYSTEM>
0

>  <SCORE.SYSTEM.CONST>
0

>  <SCORE.SYSTEM.DIHEDRAL>
0

>  <SCORE.SYSTEM.SOLV>
0

>  <SCORE.SYSTEM.norm>
0

>  <SCORE.heavy>
22

>  <SCORE.norm>
-0.529044

>  <RMSD>
10.936

$$$$
ligand
 OpenBabel02271912143D
libRbt.so/2013.1/901 2013/11/27
 22 23  0  0  0  0  0  0  0  0999 V2000
  -35.2556    0.9102  -19.3955 N   0  0  0  0  0  0  0  0  0  0  0  0
  -32.9189    3.1813  -20.3091 C   0  0  1  0  0  0  0  0  0  0  0  0
  -33.2021    1.7968  -19.9586 O   0  0  0  0  0  0  0  0  0  0  0  0
  -32.2715    6.3154  -18.2809 P   0  0  1  0  0  0  0  0  0  0  0  0
  -34.5274    1.4840  -20.4171 C   0  0  2  0  0  0  0  0  0  0  0  0
  -36.5943    0.6906  -17.7012 N   0  0  0  0  0  0  0  0  0  0  0  0
  -36.2129    2.6512  -21.6389 O   0  0  0  0  0  0  0  0  0  0  0  0
  -35.1514    2.7985  -20.6885 C   0  0  2  0  0  0  0  0  0  0  0  0
  -37.3386   -1.7745  -16.2613 N   0  0  0  0  0  0  0  0  0  0  0  0
  -33.7019    3.2462  -22.5176 O   0  0  0  0  0  0  0  0  0  0  0  0
  -34.0420    3.6126  -21.1698 C   0  0  2  0  0  0  0  0  0  0  0  0
  -36.1774   -0.5313  -18.0670 C   0  0  0  0  0  0  0  0  0  0  0  0
  -34.6982   -1.4500  -19.8366 N   0  0  0  0  0  0  0  0  0  0  0  0
  -32.4778    5.2368  -19.4002 O   0  0  0  0  0  0  0  0  0  0  0  0
  -32.8772    3.9554  -19.0367 C   0  0  0  0  0  0  0  0  0  0  0  0
  -33.6946    6.4267  -17.6229 O   0  0  0  0  0  0  0  0  0  0  0  0
  -36.0150    1.5850  -18.5246 C   0  0  0  0  0  0  0  0  0  0  0  0
  -36.1908   -2.8777  -17.8895 O   0  0  0  0  0  0  0  0  0  0  0  0
  -36.5613   -1.8009  -17.4224 C   0  0  0  0  0  0  0  0  0  0  0  0
  -35.3365   -0.4014  -19.1353 C   0  0  0  0  0  0  0  0  0  0  0  0
  -31.1911    5.8736  -17.3506 O   0  5  0  0  0  0  0  0  0  0  0  0
  -31.6904    7.5476  -18.8436 O   0  0  0  0  0  0  0  0  0  0  0  0
  1 17  1  0  0  0  0
  1 20  1  0  0  0  0
  2 15  1  1  0  0  0
  2  3  1  0  0  0  0
  2 11  1  0  0  0  0
  3  5  1  0  0  0  0
  4 16  1  1  0  0  0
  4 21  1  0  0  0  0
  4 22  2  0  0  0  0
  4 14  1  0  0  0  0
  5  1  1  1  0  0  0
  5  8  1  0  0  0  0
  6 17  2  0  0  0  0
  6 12  1  0  0  0  0
  8  7  1  6  0  0  0
  8 11  1  0  0  0  0
  9 19  1  0  0  0  0
 11 10  1  6  0  0  0
 12 20  2  0  0  0  0
 12 19  1  0  0  0  0
 13 20  1  0  0  0  0
 14 15  1  0  0  0  0
 18 19  2  0  0  0  0
M  CHG  1  21  -1
M  END
>  <CHROM.1>
90.81321957,174.37224243,-60.82235946,-177.56817928,-5.54967610,-34.26877593
2.54345863,-19.12755263,3.09989462,1.07816357,1.54573426

>  <Name>
ligand

>  <RI>
0

>  <Rbt.Current_Directory>
/home/itssahil/PROJECTS/Mol_Feturizer/Test_systems_manuscript/rnas/4xwf

>  <Rbt.Executable>
rbdock ($Id: //depot/dev/client3/rdock/2013.1/src/exe/rbdock.cxx#4 $)

>  <Rbt.Library>
libRbt.so (2013.1, Build901 2013/11/27)

>  <Rbt.Parameter_File>
/export/apps/rDock/src/rDock_2013.1_src/data/scripts/dock_solv.prm

>  <Rbt.Receptor>
prm/blind_docking_60.prm

>  <SCORE>
-10.3507

>  <SCORE.INTER>
-10.7294

>  <SCORE.INTER.CONST>
1

>  <SCORE.INTER.POLAR>
0

>  <SCORE.INTER.ROT>
5

>  <SCORE.INTER.SOLV>
14.5195

>  <SCORE.INTER.VDW>
-18.9261

>  <SCORE.INTER.norm>
-0.487702

>  <SCORE.INTRA>
0.378734

>  <SCORE.INTRA.DIHEDRAL>
-1.76716

>  <SCORE.INTRA.DIHEDRAL.0>
3.49807

>  <SCORE.INTRA.POLAR>
0

>  <SCORE.INTRA.POLAR.0>
0

>  <SCORE.INTRA.REPUL>
0

>  <SCORE.INTRA.REPUL.0>
0

>  <SCORE.INTRA.SOLV>
-0.915394

>  <SCORE.INTRA.SOLV.lig_0>
-73.062

>  <SCORE.INTRA.VDW>
1.72001

>  <SCORE.INTRA.VDW.0>
-1.83782

>  <SCORE.INTRA.norm>
0.0172152

>  <SCORE.RESTR>
0

>  <SCORE.RESTR.CAVITY>
0

>  <SCORE.RESTR.norm>
0

>  <SCORE.SYSTEM>
0

>  <SCORE.SYSTEM.CONST>
0

>  <SCORE.SYSTEM.DIHEDRAL>
0

>  <SCORE.SYSTEM.SOLV>
0

>  <SCORE.SYSTEM.norm>
0

>  <SCORE.heavy>
22

>  <SCORE.norm>
-0.470487

>  <RMSD>
11.038

$$$$
ligand
 OpenBabel02271912143D
libRbt.so/2013.1/901 2013/11/27
 22 23  0  0  0  0  0  0  0  0999 V2000
  -34.1456    3.7542  -20.4622 N   0  0  0  0  0  0  0  0  0  0  0  0
  -33.1965    6.9996  -20.5991 C   0  0  1  0  0  0  0  0  0  0  0  0
  -32.9440    5.6357  -21.0416 O   0  0  0  0  0  0  0  0  0  0  0  0
  -30.4088    6.8954  -18.0401 P   0  0  1  0  0  0  0  0  0  0  0  0
  -34.2070    4.9572  -21.1347 C   0  0  2  0  0  0  0  0  0  0  0  0
  -33.5060    2.2017  -19.0868 N   0  0  0  0  0  0  0  0  0  0  0  0
  -36.4895    5.5847  -20.8305 O   0  0  0  0  0  0  0  0  0  0  0  0
  -35.1495    5.8117  -20.3781 C   0  0  2  0  0  0  0  0  0  0  0  0
  -36.4721    0.3748  -18.8993 N   0  0  0  0  0  0  0  0  0  0  0  0
  -35.0131    7.5768  -21.9633 O   0  0  0  0  0  0  0  0  0  0  0  0
  -34.6663    7.1636  -20.6309 C   0  0  2  0  0  0  0  0  0  0  0  0
  -34.5944    1.7626  -19.7374 C   0  0  0  0  0  0  0  0  0  0  0  0
  -36.1280    2.6816  -21.4599 N   0  0  0  0  0  0  0  0  0  0  0  0
  -31.2849    6.9860  -19.3374 O   0  0  0  0  0  0  0  0  0  0  0  0
  -32.6638    7.1158  -19.2124 C   0  0  0  0  0  0  0  0  0  0  0  0
  -29.0050    7.4166  -18.5178 O   0  0  0  0  0  0  0  0  0  0  0  0
  -33.2258    3.4371  -19.5436 C   0  0  0  0  0  0  0  0  0  0  0  0
  -34.6906   -0.5790  -19.9492 O   0  0  0  0  0  0  0  0  0  0  0  0
  -35.2379    0.4490  -19.5506 C   0  0  0  0  0  0  0  0  0  0  0  0
  -35.0048    2.7360  -20.6031 C   0  0  0  0  0  0  0  0  0  0  0  0
  -31.0343    7.7058  -16.9539 O   0  5  0  0  0  0  0  0  0  0  0  0
  -30.4649    5.5391  -17.4657 O   0  0  0  0  0  0  0  0  0  0  0  0
  1 17  1  0  0  0  0
  1 20  1  0  0  0  0
  2 15  1  1  0  0  0
  2  3  1  0  0  0  0
  2 11  1  0  0  0  0
  3  5  1  0  0  0  0
  4 16  1  6  0  0  0
  4 21  1  0  0  0  0
  4 22  2  0  0  0  0
  4 14  1  0  0  0  0
  5  1  1  1  0  0  0
  5  8  1  0  0  0  0
  6 17  2  0  0  0  0
  6 12  1  0  0  0  0
  8  7  1  6  0  0  0
  8 11  1  0  0  0  0
  9 19  1  0  0  0  0
 11 10  1  6  0  0  0
 12 20  2  0  0  0  0
 12 19  1  0  0  0  0
 13 20  1  0  0  0  0
 14 15  1  0  0  0  0
 18 19  2  0  0  0  0
M  CHG  1  21  -1
M  END
>  <CHROM.1>
18.34833095,66.73571858,-154.93104956,-173.04109924,108.18545698,-33.37125201
4.85730917,-19.67440264,2.40328315,0.59354496,2.87086232

>  <Name>
ligand

>  <RI>
0

>  <Rbt.Current_Directory>
/home/itssahil/PROJECTS/Mol_Feturizer/Test_systems_manuscript/rnas/4xwf

>  <Rbt.Executable>
rbdock ($Id: //depot/dev/client3/rdock/2013.1/src/exe/rbdock.cxx#4 $)

>  <Rbt.Library>
libRbt.so (2013.1, Build901 2013/11/27)

>  <Rbt.Parameter_File>
/export/apps/rDock/src/rDock_2013.1_src/data/scripts/dock_solv.prm

>  <Rbt.Receptor>
prm/blind_docking_100.prm

>  <SCORE>
-9.12941

>  <SCORE.INTER>
-9.11203

>  <SCORE.INTER.CONST>
1

>  <SCORE.INTER.POLAR>
0

>  <SCORE.INTER.ROT>
5

>  <SCORE.INTER.SOLV>
12.0179

>  <SCORE.INTER.VDW>
-17.014

>  <SCORE.INTER.norm>
-0.414183

>  <SCORE.INTRA>
-0.0173777

>  <SCORE.INTRA.DIHEDRAL>
-0.660545

>  <SCORE.INTRA.DIHEDRAL.0>
3.49807

>  <SCORE.INTRA.POLAR>
0

>  <SCORE.INTRA.POLAR.0>
0

>  <SCORE.INTRA.REPUL>
0

>  <SCORE.INTRA.REPUL.0>
0

>  <SCORE.INTRA.SOLV>
1.16436

>  <SCORE.INTRA.SOLV.lig_0>
-73.062

>  <SCORE.INTRA.VDW>
-0.269287

>  <SCORE.INTRA.VDW.0>
-1.83782

>  <SCORE.INTRA.norm>
-0.000789897

>  <SCORE.RESTR>
0

>  <SCORE.RESTR.CAVITY>
0

>  <SCORE.RESTR.norm>
0

>  <SCORE.SYSTEM>
0

>  <SCORE.SYSTEM.CONST>
0

>  <SCORE.SYSTEM.DIHEDRAL>
0

>  <SCORE.SYSTEM.SOLV>
0

>  <SCORE.SYSTEM.norm>
0

>  <SCORE.heavy>
22

>  <SCORE.norm>
-0.414973

>  <RMSD>
11.067

$$$$
ligand
 OpenBabel02271912143D
libRbt.so/2013.1/901 2013/11/27
 22 23  0  0  0  0  0  0  0  0999 V2000
  -35.9102    0.5282  -19.0333 N   0  0  0  0  0  0  0  0  0  0  0  0
  -33.2680    2.4391  -19.9388 C   0  0  1  0  0  0  0  0  0  0  0  0
  -33.7481    1.1104  -19.5866 O   0  0  0  0  0  0  0  0  0  0  0  0
  -32.1622    5.4461  -17.9232 P   0  0  1  0  0  0  0  0  0  0  0  0
  -35.1019    0.9888  -20.0521 C   0  0  2  0  0  0  0  0  0  0  0  0
  -37.3765    0.4916  -17.4334 N   0  0  0  0  0  0  0  0  0  0  0  0
  -36.5967    2.3810  -21.2863 O   0  0  0  0  0  0  0  0  0  0  0  0
  -35.5302    2.3780  -20.3301 C   0  0  2  0  0  0  0  0  0  0  0  0
  -37.9028   -3.0480  -17.5801 N   0  0  0  0  0  0  0  0  0  0  0  0
  -34.0217    2.6083  -22.1518 O   0  0  0  0  0  0  0  0  0  0  0  0
  -34.3133    3.0237  -20.8070 C   0  0  2  0  0  0  0  0  0  0  0  0
  -36.9406   -0.7620  -17.6310 C   0  0  0  0  0  0  0  0  0  0  0  0
  -35.3356   -1.8649  -19.1709 N   0  0  0  0  0  0  0  0  0  0  0  0
  -32.3658    4.3222  -18.9975 O   0  0  0  0  0  0  0  0  0  0  0  0
  -33.1230    3.2033  -18.6680 C   0  0  0  0  0  0  0  0  0  0  0  0
  -31.8238    4.6381  -16.6181 O   0  0  0  0  0  0  0  0  0  0  0  0
  -36.7300    1.2922  -18.3021 C   0  0  0  0  0  0  0  0  0  0  0  0
  -37.3060   -1.9873  -15.6555 O   0  0  0  0  0  0  0  0  0  0  0  0
  -37.3809   -1.9546  -16.8837 C   0  0  0  0  0  0  0  0  0  0  0  0
  -36.0192   -0.7475  -18.6390 C   0  0  0  0  0  0  0  0  0  0  0  0
  -31.0869    6.3797  -18.3706 O   0  5  0  0  0  0  0  0  0  0  0  0
  -33.3311    6.3428  -17.8773 O   0  0  0  0  0  0  0  0  0  0  0  0
  1 17  1  0  0  0  0
  1 20  1  0  0  0  0
  2 15  1  1  0  0  0
  2  3  1  0  0  0  0
  2 11  1  0  0  0  0
  3  5  1  0  0  0  0
  4 16  1  1  0  0  0
  4 21  1  0  0  0  0
  4 22  2  0  0  0  0
  4 14  1  0  0  0  0
  5  1  1  1  0  0  0
  5  8  1  0  0  0  0
  6 17  2  0  0  0  0
  6 12  1  0  0  0  0
  8  7  1  6  0  0  0
  8 11  1  0  0  0  0
  9 19  1  0  0  0  0
 11 10  1  6  0  0  0
 12 20  2  0  0  0  0
 12 19  1  0  0  0  0
 13 20  1  0  0  0  0
 14 15  1  0  0  0  0
 18 19  2  0  0  0  0
M  CHG  1  21  -1
M  END
>  <CHROM.1>
101.73874124,165.74174859,44.81692391,172.72676363,124.05960827,-34.64549679
2.00721888,-18.73233655,2.96492163,0.94082353,1.68647227

>  <Name>
ligand

>  <RI>
0

>  <Rbt.Current_Directory>
/home/itssahil/PROJECTS/Mol_Feturizer/Test_systems_manuscript/rnas/4xwf

>  <Rbt.Executable>
rbdock ($Id: //depot/dev/client3/rdock/2013.1/src/exe/rbdock.cxx#4 $)

>  <Rbt.Library>
libRbt.so (2013.1, Build901 2013/11/27)

>  <Rbt.Parameter_File>
/export/apps/rDock/src/rDock_2013.1_src/data/scripts/dock_solv.prm

>  <Rbt.Receptor>
prm/blind_docking_100.prm

>  <SCORE>
-11.4984

>  <SCORE.INTER>
-13.0407

>  <SCORE.INTER.CONST>
1

>  <SCORE.INTER.POLAR>
0

>  <SCORE.INTER.ROT>
5

>  <SCORE.INTER.SOLV>
16.3466

>  <SCORE.INTER.VDW>
-21.076

>  <SCORE.INTER.norm>
-0.592761

>  <SCORE.INTRA>
1.5423

>  <SCORE.INTRA.DIHEDRAL>
-0.584805

>  <SCORE.INTRA.DIHEDRAL.0>
3.49807

>  <SCORE.INTRA.POLAR>
0

>  <SCORE.INTRA.POLAR.0>
0

>  <SCORE.INTRA.REPUL>
0

>  <SCORE.INTRA.REPUL.0>
0

>  <SCORE.INTRA.SOLV>
-0.752535

>  <SCORE.INTRA.SOLV.lig_0>
-73.062

>  <SCORE.INTRA.VDW>
2.21097

>  <SCORE.INTRA.VDW.0>
-1.83782

>  <SCORE.INTRA.norm>
0.0701047

>  <SCORE.RESTR>
0

>  <SCORE.RESTR.CAVITY>
0

>  <SCORE.RESTR.norm>
0

>  <SCORE.SYSTEM>
0

>  <SCORE.SYSTEM.CONST>
0

>  <SCORE.SYSTEM.DIHEDRAL>
0

>  <SCORE.SYSTEM.SOLV>
0

>  <SCORE.SYSTEM.norm>
0

>  <SCORE.heavy>
22

>  <SCORE.norm>
-0.522657

>  <RMSD>
11.076

$$$$
ligand
 OpenBabel02271912143D
libRbt.so/2013.1/901 2013/11/27
 22 23  0  0  0  0  0  0  0  0999 V2000
  -36.1842    1.5855  -19.8561 N   0  0  0  0  0  0  0  0  0  0  0  0
  -33.1418    2.9905  -20.3277 C   0  0  1  0  0  0  0  0  0  0  0  0
  -33.9163    1.7609  -20.2375 O   0  0  0  0  0  0  0  0  0  0  0  0
  -31.7922    5.4444  -17.7762 P   0  0  1  0  0  0  0  0  0  0  0  0
  -35.2316    2.0249  -20.7520 C   0  0  2  0  0  0  0  0  0  0  0  0
  -38.0545    1.4140  -18.7680 N   0  0  0  0  0  0  0  0  0  0  0  0
  -36.3111    3.9060  -21.7480 O   0  0  0  0  0  0  0  0  0  0  0  0
  -35.3345    3.5011  -20.7815 C   0  0  2  0  0  0  0  0  0  0  0  0
  -37.7399   -0.1518  -15.9888 N   0  0  0  0  0  0  0  0  0  0  0  0
  -33.6960    3.7033  -22.4908 O   0  0  0  0  0  0  0  0  0  0  0  0
  -33.9794    3.9336  -21.1005 C   0  0  2  0  0  0  0  0  0  0  0  0
  -37.2319    0.4427  -18.3431 C   0  0  0  0  0  0  0  0  0  0  0  0
  -34.9292   -0.3048  -18.8930 N   0  0  0  0  0  0  0  0  0  0  0  0
  -32.2533    4.6845  -19.0679 O   0  0  0  0  0  0  0  0  0  0  0  0
  -32.9203    3.4716  -18.9350 C   0  0  0  0  0  0  0  0  0  0  0  0
  -33.0548    5.3660  -16.8435 O   0  0  0  0  0  0  0  0  0  0  0  0
  -37.3986    2.1265  -19.7039 C   0  0  0  0  0  0  0  0  0  0  0  0
  -37.6260   -1.7555  -17.6016 O   0  0  0  0  0  0  0  0  0  0  0  0
  -37.5470   -0.5621  -17.3107 C   0  0  0  0  0  0  0  0  0  0  0  0
  -36.0533    0.5424  -19.0258 C   0  0  0  0  0  0  0  0  0  0  0  0
  -30.5693    4.7938  -17.2202 O   0  5  0  0  0  0  0  0  0  0  0  0
  -31.2848    6.7868  -18.1130 O   0  0  0  0  0  0  0  0  0  0  0  0
  1 17  1  0  0  0  0
  1 20  1  0  0  0  0
  2 15  1  1  0  0  0
  2  3  1  0  0  0  0
  2 11  1  0  0  0  0
  3  5  1  0  0  0  0
  4 16  1  1  0  0  0
  4 21  1  0  0  0  0
  4 22  2  0  0  0  0
  4 14  1  0  0  0  0
  5  1  1  1  0  0  0
  5  8  1  0  0  0  0
  6 17  2  0  0  0  0
  6 12  1  0  0  0  0
  8  7  1  6  0  0  0
  8 11  1  0  0  0  0
  9 19  1  0  0  0  0
 11 10  1  6  0  0  0
 12 20  2  0  0  0  0
 12 19  1  0  0  0  0
 13 20  1  0  0  0  0
 14 15  1  0  0  0  0
 18 19  2  0  0  0  0
M  CHG  1  21  -1
M  END
>  <CHROM.1>
150.21721172,-176.40018386,-45.53367499,-176.90991358,-66.25499366,-34.56360888
2.77562556,-19.05658339,2.93175205,0.75172211,1.85586377

>  <Name>
ligand

>  <RI>
0

>  <Rbt.Current_Directory>
/home/itssahil/PROJECTS/Mol_Feturizer/Test_systems_manuscript/rnas/4xwf

>  <Rbt.Executable>
rbdock ($Id: //depot/dev/client3/rdock/2013.1/src/exe/rbdock.cxx#4 $)

>  <Rbt.Library>
libRbt.so (2013.1, Build901 2013/11/27)

>  <Rbt.Parameter_File>
/export/apps/rDock/src/rDock_2013.1_src/data/scripts/dock_solv.prm

>  <Rbt.Receptor>
prm/blind_docking_80.prm

>  <SCORE>
-11.2895

>  <SCORE.INTER>
-13.2268

>  <SCORE.INTER.CONST>
1

>  <SCORE.INTER.POLAR>
0

>  <SCORE.INTER.ROT>
5

>  <SCORE.INTER.SOLV>
16.5855

>  <SCORE.INTER.VDW>
-21.2797

>  <SCORE.INTER.norm>
-0.60122

>  <SCORE.INTRA>
1.93738

>  <SCORE.INTRA.DIHEDRAL>
-0.0360846

>  <SCORE.INTRA.DIHEDRAL.0>
3.49807

>  <SCORE.INTRA.POLAR>
0

>  <SCORE.INTRA.POLAR.0>
0

>  <SCORE.INTRA.REPUL>
0

>  <SCORE.INTRA.REPUL.0>
0

>  <SCORE.INTRA.SOLV>
0.684364

>  <SCORE.INTRA.SOLV.lig_0>
-73.062

>  <SCORE.INTRA.VDW>
1.61324

>  <SCORE.INTRA.VDW.0>
-1.83782

>  <SCORE.INTRA.norm>
0.0880626

>  <SCORE.RESTR>
0

>  <SCORE.RESTR.CAVITY>
0

>  <SCORE.RESTR.norm>
0

>  <SCORE.SYSTEM>
0

>  <SCORE.SYSTEM.CONST>
0

>  <SCORE.SYSTEM.DIHEDRAL>
0

>  <SCORE.SYSTEM.SOLV>
0

>  <SCORE.SYSTEM.norm>
0

>  <SCORE.heavy>
22

>  <SCORE.norm>
-0.513158

>  <RMSD>
11.128

$$$$
ligand
 OpenBabel02271912143D
libRbt.so/2013.1/901 2013/11/27
 22 23  0  0  0  0  0  0  0  0999 V2000
  -33.7882    4.8747  -20.5676 N   0  0  0  0  0  0  0  0  0  0  0  0
  -32.8014    7.9600  -19.5879 C   0  0  1  0  0  0  0  0  0  0  0  0
  -32.6603    6.8865  -20.5614 O   0  0  0  0  0  0  0  0  0  0  0  0
  -31.9481    5.5549  -16.7942 P   0  0  1  0  0  0  0  0  0  0  0  0
  -33.9360    6.2400  -20.6988 C   0  0  2  0  0  0  0  0  0  0  0  0
  -32.9586    2.9419  -20.0317 N   0  0  0  0  0  0  0  0  0  0  0  0
  -36.1173    6.5961  -19.7982 O   0  0  0  0  0  0  0  0  0  0  0  0
  -34.7147    6.6913  -19.5237 C   0  0  2  0  0  0  0  0  0  0  0  0
  -34.1499    0.2686  -20.3912 N   0  0  0  0  0  0  0  0  0  0  0  0
  -34.8111    8.9365  -20.2963 O   0  0  0  0  0  0  0  0  0  0  0  0
  -34.2507    8.0563  -19.3077 C   0  0  2  0  0  0  0  0  0  0  0  0
  -34.1521    2.7396  -20.6107 C   0  0  0  0  0  0  0  0  0  0  0  0
  -35.9363    4.1824  -21.5587 N   0  0  0  0  0  0  0  0  0  0  0  0
  -32.6288    6.3723  -17.9461 O   0  0  0  0  0  0  0  0  0  0  0  0
  -32.0362    7.5548  -18.3753 C   0  0  0  0  0  0  0  0  0  0  0  0
  -33.1605    4.8346  -16.1002 O   0  0  0  0  0  0  0  0  0  0  0  0
  -32.7323    4.2693  -20.0117 C   0  0  0  0  0  0  0  0  0  0  0  0
  -35.8542    1.3472  -21.4483 O   0  0  0  0  0  0  0  0  0  0  0  0
  -34.7843    1.4281  -20.8452 C   0  0  0  0  0  0  0  0  0  0  0  0
  -34.6821    3.9523  -20.9482 C   0  0  0  0  0  0  0  0  0  0  0  0
  -30.9255    4.6322  -17.3694 O   0  5  0  0  0  0  0  0  0  0  0  0
  -31.1139    6.4323  -15.9534 O   0  0  0  0  0  0  0  0  0  0  0  0
  1 17  1  0  0  0  0
  1 20  1  0  0  0  0
  2 15  1  1  0  0  0
  2  3  1  0  0  0  0
  2 11  1  0  0  0  0
  3  5  1  0  0  0  0
  4 16  1  1  0  0  0
  4 21  1  0  0  0  0
  4 22  2  0  0  0  0
  4 14  1  0  0  0  0
  5  1  1  1  0  0  0
  5  8  1  0  0  0  0
  6 17  2  0  0  0  0
  6 12  1  0  0  0  0
  8  7  1  6  0  0  0
  8 11  1  0  0  0  0
  9 19  1  0  0  0  0
 11 10  1  6  0  0  0
 12 20  2  0  0  0  0
 12 19  1  0  0  0  0
 13 20  1  0  0  0  0
 14 15  1  0  0  0  0
 18 19  2  0  0  0  0
M  CHG  1  21  -1
M  END
>  <CHROM.1>
18.37219372,-60.30345489,150.90136479,171.71905681,2.96072311,-33.52986799
5.20171524,-19.27913771,2.24826891,0.87189165,-3.08219804

>  <Name>
ligand

>  <RI>
0

>  <Rbt.Current_Directory>
/home/itssahil/PROJECTS/Mol_Feturizer/Test_systems_manuscript/rnas/4xwf

>  <Rbt.Executable>
rbdock ($Id: //depot/dev/client3/rdock/2013.1/src/exe/rbdock.cxx#4 $)

>  <Rbt.Library>
libRbt.so (2013.1, Build901 2013/11/27)

>  <Rbt.Parameter_File>
/export/apps/rDock/src/rDock_2013.1_src/data/scripts/dock_solv.prm

>  <Rbt.Receptor>
prm/blind_docking_80.prm

>  <SCORE>
-11.4724

>  <SCORE.INTER>
-12.8934

>  <SCORE.INTER.CONST>
1

>  <SCORE.INTER.POLAR>
0

>  <SCORE.INTER.ROT>
5

>  <SCORE.INTER.SOLV>
14.4412

>  <SCORE.INTER.VDW>
-20.3427

>  <SCORE.INTER.norm>
-0.586064

>  <SCORE.INTRA>
1.42103

>  <SCORE.INTRA.DIHEDRAL>
-0.465161

>  <SCORE.INTRA.DIHEDRAL.0>
3.49807

>  <SCORE.INTRA.POLAR>
0

>  <SCORE.INTRA.POLAR.0>
0

>  <SCORE.INTRA.REPUL>
0

>  <SCORE.INTRA.REPUL.0>
0

>  <SCORE.INTRA.SOLV>
2.5549

>  <SCORE.INTRA.SOLV.lig_0>
-73.062

>  <SCORE.INTRA.VDW>
0.376154

>  <SCORE.INTRA.VDW.0>
-1.83782

>  <SCORE.INTRA.norm>
0.0645921

>  <SCORE.RESTR>
0

>  <SCORE.RESTR.CAVITY>
0

>  <SCORE.RESTR.norm>
0

>  <SCORE.SYSTEM>
0

>  <SCORE.SYSTEM.CONST>
0

>  <SCORE.SYSTEM.DIHEDRAL>
0

>  <SCORE.SYSTEM.SOLV>
0

>  <SCORE.SYSTEM.norm>
0

>  <SCORE.heavy>
22

>  <SCORE.norm>
-0.521472

>  <RMSD>
11.132

$$$$
ligand
 OpenBabel02271912143D
libRbt.so/2013.1/901 2013/11/27
 22 23  0  0  0  0  0  0  0  0999 V2000
  -35.9765    1.7031  -20.0643 N   0  0  0  0  0  0  0  0  0  0  0  0
  -32.9681    3.2428  -20.2420 C   0  0  1  0  0  0  0  0  0  0  0  0
  -33.6951    1.9814  -20.2585 O   0  0  0  0  0  0  0  0  0  0  0  0
  -32.0969    5.7501  -17.5543 P   0  0  1  0  0  0  0  0  0  0  0  0
  -34.9765    2.2144  -20.8654 C   0  0  2  0  0  0  0  0  0  0  0  0
  -37.9047    1.4433  -19.1022 N   0  0  0  0  0  0  0  0  0  0  0  0
  -36.0532    4.0903  -21.8741 O   0  0  0  0  0  0  0  0  0  0  0  0
  -35.1384    3.6855  -20.8489 C   0  0  2  0  0  0  0  0  0  0  0  0
  -37.5777   -1.9540  -18.2672 N   0  0  0  0  0  0  0  0  0  0  0  0
  -33.3822    4.0190  -22.4147 O   0  0  0  0  0  0  0  0  0  0  0  0
  -33.7819    4.1827  -21.0437 C   0  0  2  0  0  0  0  0  0  0  0  0
  -37.1034    0.4400  -18.7124 C   0  0  0  0  0  0  0  0  0  0  0  0
  -34.7700   -0.2606  -19.1901 N   0  0  0  0  0  0  0  0  0  0  0  0
  -32.1448    4.8591  -18.8437 O   0  0  0  0  0  0  0  0  0  0  0  0
  -32.8756    3.6763  -18.8196 C   0  0  0  0  0  0  0  0  0  0  0  0
  -31.8785    4.7032  -16.4024 O   0  0  0  0  0  0  0  0  0  0  0  0
  -37.1999    2.2301  -19.9374 C   0  0  0  0  0  0  0  0  0  0  0  0
  -37.7011   -0.4076  -16.6001 O   0  0  0  0  0  0  0  0  0  0  0  0
  -37.4722   -0.6463  -17.7858 C   0  0  0  0  0  0  0  0  0  0  0  0
  -35.8883    0.5950  -19.3165 C   0  0  0  0  0  0  0  0  0  0  0  0
  -31.0096    6.7643  -17.6845 O   0  5  0  0  0  0  0  0  0  0  0  0
  -33.2921    6.6084  -17.4678 O   0  0  0  0  0  0  0  0  0  0  0  0
  1 17  1  0  0  0  0
  1 20  1  0  0  0  0
  2 15  1  1  0  0  0
  2  3  1  0  0  0  0
  2 11  1  0  0  0  0
  3  5  1  0  0  0  0
  4 16  1  1  0  0  0
  4 21  1  0  0  0  0
  4 22  2  0  0  0  0
  4 14  1  0  0  0  0
  5  1  1  1  0  0  0
  5  8  1  0  0  0  0
  6 17  2  0  0  0  0
  6 12  1  0  0  0  0
  8  7  1  6  0  0  0
  8 11  1  0  0  0  0
  9 19  1  0  0  0  0
 11 10  1  6  0  0  0
 12 20  2  0  0  0  0
 12 19  1  0  0  0  0
 13 20  1  0  0  0  0
 14 15  1  0  0  0  0
 18 19  2  0  0  0  0
M  CHG  1  21  -1
M  END
>  <CHROM.1>
146.64397635,178.35313220,43.55264177,167.78716772,112.22272798,-34.52991402
2.94561716,-19.12854851,3.03838611,0.84694431,1.79359223

>  <Name>
ligand

>  <RI>
0

>  <Rbt.Current_Directory>
/home/itssahil/PROJECTS/Mol_Feturizer/Test_systems_manuscript/rnas/4xwf

>  <Rbt.Executable>
rbdock ($Id: //depot/dev/client3/rdock/2013.1/src/exe/rbdock.cxx#4 $)

>  <Rbt.Library>
libRbt.so (2013.1, Build901 2013/11/27)

>  <Rbt.Parameter_File>
/export/apps/rDock/src/rDock_2013.1_src/data/scripts/dock_solv.prm

>  <Rbt.Receptor>
prm/blind_docking_100.prm

>  <SCORE>
-11.1625

>  <SCORE.INTER>
-12.8121

>  <SCORE.INTER.CONST>
1

>  <SCORE.INTER.POLAR>
0

>  <SCORE.INTER.ROT>
5

>  <SCORE.INTER.SOLV>
17.4283

>  <SCORE.INTER.VDW>
-21.2841

>  <SCORE.INTER.norm>
-0.582368

>  <SCORE.INTRA>
1.6496

>  <SCORE.INTRA.DIHEDRAL>
-0.769833

>  <SCORE.INTRA.DIHEDRAL.0>
3.49807

>  <SCORE.INTRA.POLAR>
0

>  <SCORE.INTRA.POLAR.0>
0

>  <SCORE.INTRA.REPUL>
0

>  <SCORE.INTRA.REPUL.0>
0

>  <SCORE.INTRA.SOLV>
0.817494

>  <SCORE.INTRA.SOLV.lig_0>
-73.062

>  <SCORE.INTRA.VDW>
1.62577

>  <SCORE.INTRA.VDW.0>
-1.83782

>  <SCORE.INTRA.norm>
0.0749819

>  <SCORE.RESTR>
0

>  <SCORE.RESTR.CAVITY>
0

>  <SCORE.RESTR.norm>
0

>  <SCORE.SYSTEM>
0

>  <SCORE.SYSTEM.CONST>
0

>  <SCORE.SYSTEM.DIHEDRAL>
0

>  <SCORE.SYSTEM.SOLV>
0

>  <SCORE.SYSTEM.norm>
0

>  <SCORE.heavy>
22

>  <SCORE.norm>
-0.507386

>  <RMSD>
11.178

$$$$
ligand
 OpenBabel02271912143D
libRbt.so/2013.1/901 2013/11/27
 22 23  0  0  0  0  0  0  0  0999 V2000
  -31.2799    7.5479  -19.4072 N   0  0  0  0  0  0  0  0  0  0  0  0
  -31.0926    4.6431  -17.6810 C   0  0  1  0  0  0  0  0  0  0  0  0
  -30.4426    5.8985  -18.0294 O   0  0  0  0  0  0  0  0  0  0  0  0
  -29.3140    1.8694  -19.5302 P   0  0  1  0  0  0  0  0  0  0  0  0
  -31.4635    6.8939  -18.2064 C   0  0  2  0  0  0  0  0  0  0  0  0
  -31.6696    8.3668  -21.3791 N   0  0  0  0  0  0  0  0  0  0  0  0
  -33.8378    6.9411  -17.9687 O   0  0  0  0  0  0  0  0  0  0  0  0
  -32.7208    6.1238  -18.3375 C   0  0  2  0  0  0  0  0  0  0  0  0
  -28.2423    9.8632  -21.2927 N   0  0  0  0  0  0  0  0  0  0  0  0
  -32.6422    5.3774  -16.0828 O   0  0  0  0  0  0  0  0  0  0  0  0
  -32.5159    4.9793  -17.4582 C   0  0  2  0  0  0  0  0  0  0  0  0
  -30.4324    8.7328  -21.0104 C   0  0  0  0  0  0  0  0  0  0  0  0
  -29.0001    8.3970  -19.0106 N   0  0  0  0  0  0  0  0  0  0  0  0
  -29.6944    3.1057  -18.6440 O   0  0  0  0  0  0  0  0  0  0  0  0
  -30.9234    3.7253  -18.8424 C   0  0  0  0  0  0  0  0  0  0  0  0
  -30.6778    1.1029  -19.6815 O   0  0  0  0  0  0  0  0  0  0  0  0
  -32.1917    7.6254  -20.3835 C   0  0  0  0  0  0  0  0  0  0  0  0
  -29.8269    9.9592  -22.9253 O   0  0  0  0  0  0  0  0  0  0  0  0
  -29.5002    9.5466  -21.8126 C   0  0  0  0  0  0  0  0  0  0  0  0
  -30.1809    8.2235  -19.7684 C   0  0  0  0  0  0  0  0  0  0  0  0
  -28.7198    2.3374  -20.8170 O   0  5  0  0  0  0  0  0  0  0  0  0
  -28.1862    1.1286  -18.9369 O   0  0  0  0  0  0  0  0  0  0  0  0
  1 17  1  0  0  0  0
  1 20  1  0  0  0  0
  2 15  1  6  0  0  0
  2  3  1  0  0  0  0
  2 11  1  0  0  0  0
  3  5  1  0  0  0  0
  4 16  1  6  0  0  0
  4 21  1  0  0  0  0
  4 22  2  0  0  0  0
  4 14  1  0  0  0  0
  5  1  1  6  0  0  0
  5  8  1  0  0  0  0
  6 17  2  0  0  0  0
  6 12  1  0  0  0  0
  8  7  1  1  0  0  0
  8 11  1  0  0  0  0
  9 19  1  0  0  0  0
 11 10  1  1  0  0  0
 12 20  2  0  0  0  0
 12 19  1  0  0  0  0
 13 20  1  0  0  0  0
 14 15  1  0  0  0  0
 18 19  2  0  0  0  0
M  CHG  1  21  -1
M  END
>  <CHROM.1>
122.92270099,86.65960495,-37.64138019,168.28453231,179.34176913,-30.57110593
5.67257543,-19.39631155,1.67858033,0.73653956,-0.33217176

>  <Name>
ligand

>  <RI>
0

>  <Rbt.Current_Directory>
/home/itssahil/PROJECTS/Mol_Feturizer/Test_systems_manuscript/rnas/4xwf

>  <Rbt.Executable>
rbdock ($Id: //depot/dev/client3/rdock/2013.1/src/exe/rbdock.cxx#4 $)

>  <Rbt.Library>
libRbt.so (2013.1, Build901 2013/11/27)

>  <Rbt.Parameter_File>
/export/apps/rDock/src/rDock_2013.1_src/data/scripts/dock_solv.prm

>  <Rbt.Receptor>
prm/blind_docking_40.prm

>  <SCORE>
0.0980994

>  <SCORE.INTER>
-4.03075

>  <SCORE.INTER.CONST>
1

>  <SCORE.INTER.POLAR>
0

>  <SCORE.INTER.ROT>
5

>  <SCORE.INTER.SOLV>
22.8382

>  <SCORE.INTER.VDW>
-17.2332

>  <SCORE.INTER.norm>
-0.183216

>  <SCORE.INTRA>
3.99842

>  <SCORE.INTRA.DIHEDRAL>
3.13703

>  <SCORE.INTRA.DIHEDRAL.0>
3.49807

>  <SCORE.INTRA.POLAR>
0

>  <SCORE.INTRA.POLAR.0>
0

>  <SCORE.INTRA.REPUL>
0

>  <SCORE.INTRA.REPUL.0>
0

>  <SCORE.INTRA.SOLV>
-0.434907

>  <SCORE.INTRA.SOLV.lig_0>
-73.062

>  <SCORE.INTRA.VDW>
2.64736

>  <SCORE.INTRA.VDW.0>
-1.83782

>  <SCORE.INTRA.norm>
0.181746

>  <SCORE.RESTR>
0.130433

>  <SCORE.RESTR.CAVITY>
0.130433

>  <SCORE.RESTR.norm>
0.00592875

>  <SCORE.SYSTEM>
0

>  <SCORE.SYSTEM.CONST>
0

>  <SCORE.SYSTEM.DIHEDRAL>
0

>  <SCORE.SYSTEM.SOLV>
0

>  <SCORE.SYSTEM.norm>
0

>  <SCORE.heavy>
22

>  <SCORE.norm>
0.00445906

>  <RMSD>
11.272

$$$$
ligand
 OpenBabel02271912143D
libRbt.so/2013.1/901 2013/11/27
 22 23  0  0  0  0  0  0  0  0999 V2000
  -36.1581    1.4486  -19.9848 N   0  0  0  0  0  0  0  0  0  0  0  0
  -33.1835    2.9902  -20.4618 C   0  0  1  0  0  0  0  0  0  0  0  0
  -33.8888    1.7284  -20.2878 O   0  0  0  0  0  0  0  0  0  0  0  0
  -32.0888    5.7415  -18.0981 P   0  0  1  0  0  0  0  0  0  0  0  0
  -35.1918    1.8620  -20.8784 C   0  0  2  0  0  0  0  0  0  0  0  0
  -38.0411    1.3156  -18.9135 N   0  0  0  0  0  0  0  0  0  0  0  0
  -36.3308    3.5732  -22.0909 O   0  0  0  0  0  0  0  0  0  0  0  0
  -35.3785    3.3201  -21.0513 C   0  0  2  0  0  0  0  0  0  0  0  0
  -37.6185   -0.2304  -16.0802 N   0  0  0  0  0  0  0  0  0  0  0  0
  -33.6766    3.4658  -22.7035 O   0  0  0  0  0  0  0  0  0  0  0  0
  -34.0374    3.8047  -21.3539 C   0  0  2  0  0  0  0  0  0  0  0  0
  -37.2330    0.3439  -18.4625 C   0  0  0  0  0  0  0  0  0  0  0  0
  -34.9326   -0.4366  -18.9748 N   0  0  0  0  0  0  0  0  0  0  0  0
  -32.3534    4.7927  -19.3180 O   0  0  0  0  0  0  0  0  0  0  0  0
  -33.0554    3.6100  -19.1129 C   0  0  0  0  0  0  0  0  0  0  0  0
  -33.5227    6.2787  -17.7433 O   0  0  0  0  0  0  0  0  0  0  0  0
  -37.3684    2.0043  -19.8551 C   0  0  0  0  0  0  0  0  0  0  0  0
  -37.7904   -1.8140  -17.7075 O   0  0  0  0  0  0  0  0  0  0  0  0
  -37.5690   -0.6389  -17.4157 C   0  0  0  0  0  0  0  0  0  0  0  0
  -36.0464    0.4193  -19.1346 C   0  0  0  0  0  0  0  0  0  0  0  0
  -31.4245    4.9767  -17.0018 O   0  5  0  0  0  0  0  0  0  0  0  0
  -31.0567    6.7409  -18.4278 O   0  0  0  0  0  0  0  0  0  0  0  0
  1 17  1  0  0  0  0
  1 20  1  0  0  0  0
  2 15  1  1  0  0  0
  2  3  1  0  0  0  0
  2 11  1  0  0  0  0
  3  5  1  0  0  0  0
  4 16  1  1  0  0  0
  4 21  1  0  0  0  0
  4 22  2  0  0  0  0
  4 14  1  0  0  0  0
  5  1  1  1  0  0  0
  5  8  1  0  0  0  0
  6 17  2  0  0  0  0
  6 12  1  0  0  0  0
  8  7  1  6  0  0  0
  8 11  1  0  0  0  0
  9 19  1  0  0  0  0
 11 10  1  6  0  0  0
 12 20  2  0  0  0  0
 12 19  1  0  0  0  0
 13 20  1  0  0  0  0
 14 15  1  0  0  0  0
 18 19  2  0  0  0  0
M  CHG  1  21  -1
M  END
>  <CHROM.1>
144.01038550,178.71603540,-68.36303112,177.45819177,-73.65387278,-34.65894610
2.78057250,-19.25735579,2.97907965,0.82374128,1.74291178

>  <Name>
ligand

>  <RI>
0

>  <Rbt.Current_Directory>
/home/itssahil/PROJECTS/Mol_Feturizer/Test_systems_manuscript/rnas/4xwf

>  <Rbt.Executable>
rbdock ($Id: //depot/dev/client3/rdock/2013.1/src/exe/rbdock.cxx#4 $)

>  <Rbt.Library>
libRbt.so (2013.1, Build901 2013/11/27)

>  <Rbt.Parameter_File>
/export/apps/rDock/src/rDock_2013.1_src/data/scripts/dock_solv.prm

>  <Rbt.Receptor>
prm/blind_docking_60.prm

>  <SCORE>
-10.3997

>  <SCORE.INTER>
-11.8965

>  <SCORE.INTER.CONST>
1

>  <SCORE.INTER.POLAR>
0

>  <SCORE.INTER.ROT>
5

>  <SCORE.INTER.SOLV>
17.2964

>  <SCORE.INTER.VDW>
-20.6298

>  <SCORE.INTER.norm>
-0.540749

>  <SCORE.INTRA>
1.4968

>  <SCORE.INTRA.DIHEDRAL>
-0.372521

>  <SCORE.INTRA.DIHEDRAL.0>
3.49807

>  <SCORE.INTRA.POLAR>
0

>  <SCORE.INTRA.POLAR.0>
0

>  <SCORE.INTRA.REPUL>
0

>  <SCORE.INTRA.REPUL.0>
0

>  <SCORE.INTRA.SOLV>
0.477454

>  <SCORE.INTRA.SOLV.lig_0>
-73.062

>  <SCORE.INTRA.VDW>
1.44433

>  <SCORE.INTRA.VDW.0>
-1.83782

>  <SCORE.INTRA.norm>
0.0680362

>  <SCORE.RESTR>
0

>  <SCORE.RESTR.CAVITY>
0

>  <SCORE.RESTR.norm>
0

>  <SCORE.SYSTEM>
0

>  <SCORE.SYSTEM.CONST>
0

>  <SCORE.SYSTEM.DIHEDRAL>
0

>  <SCORE.SYSTEM.SOLV>
0

>  <SCORE.SYSTEM.norm>
0

>  <SCORE.heavy>
22

>  <SCORE.norm>
-0.472713

>  <RMSD>
11.319

$$$$
ligand
 OpenBabel02271912143D
libRbt.so/2013.1/901 2013/11/27
 22 23  0  0  0  0  0  0  0  0999 V2000
  -35.3134    2.9965  -21.2452 N   0  0  0  0  0  0  0  0  0  0  0  0
  -32.8373    5.2271  -20.6568 C   0  0  1  0  0  0  0  0  0  0  0  0
  -33.2541    4.0279  -21.3696 O   0  0  0  0  0  0  0  0  0  0  0  0
  -31.5941    5.8940  -17.1402 P   0  0  1  0  0  0  0  0  0  0  0  0
  -34.6589    4.1420  -21.6487 C   0  0  2  0  0  0  0  0  0  0  0  0
  -36.7945    1.4148  -21.1193 N   0  0  0  0  0  0  0  0  0  0  0  0
  -36.3214    5.8180  -21.2983 O   0  0  0  0  0  0  0  0  0  0  0  0
  -35.1316    5.2283  -20.7614 C   0  0  2  0  0  0  0  0  0  0  0  0
  -34.7770   -1.0446  -19.6409 N   0  0  0  0  0  0  0  0  0  0  0  0
  -33.8945    6.8870  -21.9301 O   0  0  0  0  0  0  0  0  0  0  0  0
  -33.9979    6.1431  -20.7045 C   0  0  2  0  0  0  0  0  0  0  0  0
  -35.8007    1.1272  -20.2647 C   0  0  0  0  0  0  0  0  0  0  0  0
  -33.6484    2.1833  -19.6197 N   0  0  0  0  0  0  0  0  0  0  0  0
  -32.0639    5.9730  -18.6340 O   0  0  0  0  0  0  0  0  0  0  0  0
  -32.5212    4.8182  -19.2593 C   0  0  0  0  0  0  0  0  0  0  0  0
  -31.3591    7.4004  -16.7576 O   0  0  0  0  0  0  0  0  0  0  0  0
  -36.4920    2.5801  -21.7228 C   0  0  0  0  0  0  0  0  0  0  0  0
  -36.5207   -0.1893  -18.4521 O   0  0  0  0  0  0  0  0  0  0  0  0
  -35.7337   -0.0575  -19.3893 C   0  0  0  0  0  0  0  0  0  0  0  0
  -34.8628    2.1171  -20.3405 C   0  0  0  0  0  0  0  0  0  0  0  0
  -32.6334    5.2016  -16.3227 O   0  5  0  0  0  0  0  0  0  0  0  0
  -30.4492    4.9762  -17.0004 O   0  0  0  0  0  0  0  0  0  0  0  0
  1 17  1  0  0  0  0
  1 20  1  0  0  0  0
  2 15  1  1  0  0  0
  2  3  1  0  0  0  0
  2 11  1  0  0  0  0
  3  5  1  0  0  0  0
  4 16  1  1  0  0  0
  4 21  1  0  0  0  0
  4 22  2  0  0  0  0
  4 14  1  0  0  0  0
  5  1  1  1  0  0  0
  5  8  1  0  0  0  0
  6 17  2  0  0  0  0
  6 12  1  0  0  0  0
  8  7  1  6  0  0  0
  8 11  1  0  0  0  0
  9 19  1  0  0  0  0
 11 10  1  6  0  0  0
 12 20  2  0  0  0  0
 12 19  1  0  0  0  0
 13 20  1  0  0  0  0
 14 15  1  0  0  0  0
 18 19  2  0  0  0  0
M  CHG  1  21  -1
M  END
>  <CHROM.1>
-157.16423738,177.03736149,-172.29549189,-178.15008476,111.28202100,-33.91210036
3.97598448,-19.57999503,2.71033981,0.86719131,2.59587956

>  <Name>
ligand

>  <RI>
0

>  <Rbt.Current_Directory>
/home/itssahil/PROJECTS/Mol_Feturizer/Test_systems_manuscript/rnas/4xwf

>  <Rbt.Executable>
rbdock ($Id: //depot/dev/client3/rdock/2013.1/src/exe/rbdock.cxx#4 $)

>  <Rbt.Library>
libRbt.so (2013.1, Build901 2013/11/27)

>  <Rbt.Parameter_File>
/export/apps/rDock/src/rDock_2013.1_src/data/scripts/dock_solv.prm

>  <Rbt.Receptor>
prm/blind_docking_80.prm

>  <SCORE>
-9.49193

>  <SCORE.INTER>
-11.0192

>  <SCORE.INTER.CONST>
1

>  <SCORE.INTER.POLAR>
0

>  <SCORE.INTER.ROT>
5

>  <SCORE.INTER.SOLV>
15.0886

>  <SCORE.INTER.VDW>
-19.309

>  <SCORE.INTER.norm>
-0.500875

>  <SCORE.INTRA>
1.52732

>  <SCORE.INTRA.DIHEDRAL>
-1.75268

>  <SCORE.INTRA.DIHEDRAL.0>
3.49807

>  <SCORE.INTRA.POLAR>
0

>  <SCORE.INTRA.POLAR.0>
0

>  <SCORE.INTRA.REPUL>
0

>  <SCORE.INTRA.REPUL.0>
0

>  <SCORE.INTRA.SOLV>
4.32865

>  <SCORE.INTRA.SOLV.lig_0>
-73.062

>  <SCORE.INTRA.VDW>
0.239329

>  <SCORE.INTRA.VDW.0>
-1.83782

>  <SCORE.INTRA.norm>
0.0694235

>  <SCORE.RESTR>
0

>  <SCORE.RESTR.CAVITY>
0

>  <SCORE.RESTR.norm>
0

>  <SCORE.SYSTEM>
0

>  <SCORE.SYSTEM.CONST>
0

>  <SCORE.SYSTEM.DIHEDRAL>
0

>  <SCORE.SYSTEM.SOLV>
0

>  <SCORE.SYSTEM.norm>
0

>  <SCORE.heavy>
22

>  <SCORE.norm>
-0.431451

>  <RMSD>
11.364

$$$$
ligand
 OpenBabel02271912143D
libRbt.so/2013.1/901 2013/11/27
 22 23  0  0  0  0  0  0  0  0999 V2000
  -35.4421    2.6558  -21.2123 N   0  0  0  0  0  0  0  0  0  0  0  0
  -32.7562    4.6086  -20.5608 C   0  0  1  0  0  0  0  0  0  0  0  0
  -33.2684    3.4263  -21.2388 O   0  0  0  0  0  0  0  0  0  0  0  0
  -32.2038    5.6006  -16.9940 P   0  0  1  0  0  0  0  0  0  0  0  0
  -34.6269    3.6890  -21.6258 C   0  0  2  0  0  0  0  0  0  0  0  0
  -37.1100    1.2702  -21.1143 N   0  0  0  0  0  0  0  0  0  0  0  0
  -36.0911    5.5684  -21.4861 O   0  0  0  0  0  0  0  0  0  0  0  0
  -35.0209    4.8754  -20.8334 C   0  0  2  0  0  0  0  0  0  0  0  0
  -35.3751   -1.2002  -19.2031 N   0  0  0  0  0  0  0  0  0  0  0  0
  -33.5150    6.3020  -21.9929 O   0  0  0  0  0  0  0  0  0  0  0  0
  -33.7900    5.6511  -20.7411 C   0  0  2  0  0  0  0  0  0  0  0  0
  -36.2195    0.9212  -20.1731 C   0  0  0  0  0  0  0  0  0  0  0  0
  -34.0039    1.7545  -19.4248 N   0  0  0  0  0  0  0  0  0  0  0  0
  -32.0115    5.3702  -18.5331 O   0  0  0  0  0  0  0  0  0  0  0  0
  -32.5862    4.2505  -19.1245 C   0  0  0  0  0  0  0  0  0  0  0  0
  -33.6653    6.1707  -16.8962 O   0  0  0  0  0  0  0  0  0  0  0  0
  -36.6272    2.3521  -21.7545 C   0  0  0  0  0  0  0  0  0  0  0  0
  -37.3348   -0.2862  -18.4891 O   0  0  0  0  0  0  0  0  0  0  0  0
  -36.3575   -0.2067  -19.2331 C   0  0  0  0  0  0  0  0  0  0  0  0
  -35.1650    1.7872  -20.2306 C   0  0  0  0  0  0  0  0  0  0  0  0
  -31.9888    4.3170  -16.2632 O   0  5  0  0  0  0  0  0  0  0  0  0
  -31.1167    6.4348  -16.4509 O   0  0  0  0  0  0  0  0  0  0  0  0
  1 17  1  0  0  0  0
  1 20  1  0  0  0  0
  2 15  1  1  0  0  0
  2  3  1  0  0  0  0
  2 11  1  0  0  0  0
  3  5  1  0  0  0  0
  4 16  1  1  0  0  0
  4 21  1  0  0  0  0
  4 22  2  0  0  0  0
  4 14  1  0  0  0  0
  5  1  1  1  0  0  0
  5  8  1  0  0  0  0
  6 17  2  0  0  0  0
  6 12  1  0  0  0  0
  8  7  1  6  0  0  0
  8 11  1  0  0  0  0
  9 19  1  0  0  0  0
 11 10  1  6  0  0  0
 12 20  2  0  0  0  0
 12 19  1  0  0  0  0
 13 20  1  0  0  0  0
 14 15  1  0  0  0  0
 18 19  2  0  0  0  0
M  CHG  1  21  -1
M  END
>  <CHROM.1>
-157.01923284,176.01500369,-78.03452922,155.73021968,122.45401015,-34.18996278
3.63383192,-19.49950872,2.93419446,0.92201707,2.30628674

>  <Name>
ligand

>  <RI>
0

>  <Rbt.Current_Directory>
/home/itssahil/PROJECTS/Mol_Feturizer/Test_systems_manuscript/rnas/4xwf

>  <Rbt.Executable>
rbdock ($Id: //depot/dev/client3/rdock/2013.1/src/exe/rbdock.cxx#4 $)

>  <Rbt.Library>
libRbt.so (2013.1, Build901 2013/11/27)

>  <Rbt.Parameter_File>
/export/apps/rDock/src/rDock_2013.1_src/data/scripts/dock_solv.prm

>  <Rbt.Receptor>
prm/blind_docking_80.prm

>  <SCORE>
-8.67485

>  <SCORE.INTER>
-11.3574

>  <SCORE.INTER.CONST>
1

>  <SCORE.INTER.POLAR>
0

>  <SCORE.INTER.ROT>
5

>  <SCORE.INTER.SOLV>
18.772

>  <SCORE.INTER.VDW>
-20.7622

>  <SCORE.INTER.norm>
-0.516244

>  <SCORE.INTRA>
2.68251

>  <SCORE.INTRA.DIHEDRAL>
1.20847

>  <SCORE.INTRA.DIHEDRAL.0>
3.49807

>  <SCORE.INTRA.POLAR>
0

>  <SCORE.INTRA.POLAR.0>
0

>  <SCORE.INTRA.REPUL>
0

>  <SCORE.INTRA.REPUL.0>
0

>  <SCORE.INTRA.SOLV>
3.91172

>  <SCORE.INTRA.SOLV.lig_0>
-73.062

>  <SCORE.INTRA.VDW>
0.12242

>  <SCORE.INTRA.VDW.0>
-1.83782

>  <SCORE.INTRA.norm>
0.121932

>  <SCORE.RESTR>
0

>  <SCORE.RESTR.CAVITY>
0

>  <SCORE.RESTR.norm>
0

>  <SCORE.SYSTEM>
0

>  <SCORE.SYSTEM.CONST>
0

>  <SCORE.SYSTEM.DIHEDRAL>
0

>  <SCORE.SYSTEM.SOLV>
0

>  <SCORE.SYSTEM.norm>
0

>  <SCORE.heavy>
22

>  <SCORE.norm>
-0.394311

>  <RMSD>
11.413

$$$$
ligand
 OpenBabel02271912143D
libRbt.so/2013.1/901 2013/11/27
 22 23  0  0  0  0  0  0  0  0999 V2000
  -36.1489    1.5777  -20.0133 N   0  0  0  0  0  0  0  0  0  0  0  0
  -33.2501    3.1487  -20.7759 C   0  0  1  0  0  0  0  0  0  0  0  0
  -33.9034    1.8928  -20.4355 O   0  0  0  0  0  0  0  0  0  0  0  0
  -32.0094    6.0964  -18.7436 P   0  0  1  0  0  0  0  0  0  0  0  0
  -35.2307    1.9186  -20.9849 C   0  0  2  0  0  0  0  0  0  0  0  0
  -37.9556    1.5648  -18.8106 N   0  0  0  0  0  0  0  0  0  0  0  0
  -36.4728    3.4469  -22.3330 O   0  0  0  0  0  0  0  0  0  0  0  0
  -35.4753    3.3417  -21.3105 C   0  0  2  0  0  0  0  0  0  0  0  0
  -37.8256    0.1428  -16.0328 N   0  0  0  0  0  0  0  0  0  0  0  0
  -33.8403    3.3548  -23.0350 O   0  0  0  0  0  0  0  0  0  0  0  0
  -34.1639    3.8311  -21.7179 C   0  0  2  0  0  0  0  0  0  0  0  0
  -37.1615    0.5706  -18.3845 C   0  0  0  0  0  0  0  0  0  0  0  0
  -34.9398   -0.3311  -19.0283 N   0  0  0  0  0  0  0  0  0  0  0  0
  -32.3484    5.0409  -19.8524 O   0  0  0  0  0  0  0  0  0  0  0  0
  -33.0956    3.9191  -19.5099 C   0  0  0  0  0  0  0  0  0  0  0  0
  -31.0892    7.1247  -19.4962 O   0  0  0  0  0  0  0  0  0  0  0  0
  -37.3212    2.1928  -19.8188 C   0  0  0  0  0  0  0  0  0  0  0  0
  -37.3913   -1.5799  -17.4572 O   0  0  0  0  0  0  0  0  0  0  0  0
  -37.4660   -0.3635  -17.2847 C   0  0  0  0  0  0  0  0  0  0  0  0
  -36.0232    0.5704  -19.1391 C   0  0  0  0  0  0  0  0  0  0  0  0
  -33.2723    6.6770  -18.1997 O   0  5  0  0  0  0  0  0  0  0  0  0
  -31.4492    5.4383  -17.5496 O   0  0  0  0  0  0  0  0  0  0  0  0
  1 17  1  0  0  0  0
  1 20  1  0  0  0  0
  2 15  1  1  0  0  0
  2  3  1  0  0  0  0
  2 11  1  0  0  0  0
  3  5  1  0  0  0  0
  4 16  1  6  0  0  0
  4 21  1  0  0  0  0
  4 22  2  0  0  0  0
  4 14  1  0  0  0  0
  5  1  1  1  0  0  0
  5  8  1  0  0  0  0
  6 17  2  0  0  0  0
  6 12  1  0  0  0  0
  8  7  1  6  0  0  0
  8 11  1  0  0  0  0
  9 19  1  0  0  0  0
 11 10  1  6  0  0  0
 12 20  2  0  0  0  0
 12 19  1  0  0  0  0
 13 20  1  0  0  0  0
 14 15  1  0  0  0  0
 18 19  2  0  0  0  0
M  CHG  1  21  -1
M  END
>  <CHROM.1>
137.32589316,173.99188748,176.09964632,179.22084544,-53.20601752,-34.64887391
2.98509422,-19.51424168,2.92695575,0.83982991,1.67948132

>  <Name>
ligand

>  <RI>
0

>  <Rbt.Current_Directory>
/home/itssahil/PROJECTS/Mol_Feturizer/Test_systems_manuscript/rnas/4xwf

>  <Rbt.Executable>
rbdock ($Id: //depot/dev/client3/rdock/2013.1/src/exe/rbdock.cxx#4 $)

>  <Rbt.Library>
libRbt.so (2013.1, Build901 2013/11/27)

>  <Rbt.Parameter_File>
/export/apps/rDock/src/rDock_2013.1_src/data/scripts/dock_solv.prm

>  <Rbt.Receptor>
prm/blind_docking_60.prm

>  <SCORE>
-10.3196

>  <SCORE.INTER>
-12.2208

>  <SCORE.INTER.CONST>
1

>  <SCORE.INTER.POLAR>
0

>  <SCORE.INTER.ROT>
5

>  <SCORE.INTER.SOLV>
17.5176

>  <SCORE.INTER.VDW>
-20.9197

>  <SCORE.INTER.norm>
-0.555489

>  <SCORE.INTRA>
1.90116

>  <SCORE.INTRA.DIHEDRAL>
-0.253849

>  <SCORE.INTRA.DIHEDRAL.0>
3.49807

>  <SCORE.INTRA.POLAR>
0

>  <SCORE.INTRA.POLAR.0>
0

>  <SCORE.INTRA.REPUL>
0

>  <SCORE.INTRA.REPUL.0>
0

>  <SCORE.INTRA.SOLV>
0.68292

>  <SCORE.INTRA.SOLV.lig_0>
-73.062

>  <SCORE.INTRA.VDW>
1.68662

>  <SCORE.INTRA.VDW.0>
-1.83782

>  <SCORE.INTRA.norm>
0.0864162

>  <SCORE.RESTR>
0

>  <SCORE.RESTR.CAVITY>
0

>  <SCORE.RESTR.norm>
0

>  <SCORE.SYSTEM>
0

>  <SCORE.SYSTEM.CONST>
0

>  <SCORE.SYSTEM.DIHEDRAL>
0

>  <SCORE.SYSTEM.SOLV>
0

>  <SCORE.SYSTEM.norm>
0

>  <SCORE.heavy>
22

>  <SCORE.norm>
-0.469073

>  <RMSD>
11.445

$$$$
ligand
 OpenBabel02271912143D
libRbt.so/2013.1/901 2013/11/27
 22 23  0  0  0  0  0  0  0  0999 V2000
  -34.6527    3.8644  -20.5939 N   0  0  0  0  0  0  0  0  0  0  0  0
  -33.3531    6.9502  -21.0854 C   0  0  1  0  0  0  0  0  0  0  0  0
  -33.4454    5.5765  -21.5589 O   0  0  0  0  0  0  0  0  0  0  0  0
  -32.1893    5.8466  -17.6526 P   0  0  1  0  0  0  0  0  0  0  0  0
  -34.7549    5.0815  -21.2355 C   0  0  2  0  0  0  0  0  0  0  0  0
  -33.8926    2.2588  -19.3468 N   0  0  0  0  0  0  0  0  0  0  0  0
  -36.7143    6.0099  -20.2383 O   0  0  0  0  0  0  0  0  0  0  0  0
  -35.2822    6.0379  -20.2365 C   0  0  2  0  0  0  0  0  0  0  0  0
  -35.1180   -0.3614  -18.7764 N   0  0  0  0  0  0  0  0  0  0  0  0
  -35.4082    7.8080  -21.8170 O   0  0  0  0  0  0  0  0  0  0  0  0
  -34.7202    7.3163  -20.6547 C   0  0  2  0  0  0  0  0  0  0  0  0
  -35.0844    1.8819  -19.8349 C   0  0  0  0  0  0  0  0  0  0  0  0
  -36.8089    2.9018  -21.3009 N   0  0  0  0  0  0  0  0  0  0  0  0
  -32.9665    6.1162  -18.9875 O   0  0  0  0  0  0  0  0  0  0  0  0
  -32.3998    6.9557  -19.9403 C   0  0  0  0  0  0  0  0  0  0  0  0
  -31.9490    7.2903  -17.0793 O   0  0  0  0  0  0  0  0  0  0  0  0
  -33.6240    3.4887  -19.8251 C   0  0  0  0  0  0  0  0  0  0  0  0
  -36.8606    0.3543  -20.0556 O   0  0  0  0  0  0  0  0  0  0  0  0
  -35.7552    0.5955  -19.5709 C   0  0  0  0  0  0  0  0  0  0  0  0
  -35.5707    2.8891  -20.6187 C   0  0  0  0  0  0  0  0  0  0  0  0
  -32.9998    4.9562  -16.7705 O   0  5  0  0  0  0  0  0  0  0  0  0
  -30.9994    5.0126  -17.9003 O   0  0  0  0  0  0  0  0  0  0  0  0
  1 17  1  0  0  0  0
  1 20  1  0  0  0  0
  2 15  1  1  0  0  0
  2  3  1  0  0  0  0
  2 11  1  0  0  0  0
  3  5  1  0  0  0  0
  4 16  1  1  0  0  0
  4 21  1  0  0  0  0
  4 22  2  0  0  0  0
  4 14  1  0  0  0  0
  5  1  1  1  0  0  0
  5  8  1  0  0  0  0
  6 17  2  0  0  0  0
  6 12  1  0  0  0  0
  8  7  1  6  0  0  0
  8 11  1  0  0  0  0
  9 19  1  0  0  0  0
 11 10  1  6  0  0  0
 12 20  2  0  0  0  0
 12 19  1  0  0  0  0
 13 20  1  0  0  0  0
 14 15  1  0  0  0  0
 18 19  2  0  0  0  0
M  CHG  1  21  -1
M  END
>  <CHROM.1>
29.73304180,-60.78401156,55.87390560,177.76676898,-1.77446235,-34.15049292
4.63879443,-19.62702451,2.31878934,0.75965373,2.77721002

>  <Name>
ligand

>  <RI>
0

>  <Rbt.Current_Directory>
/home/itssahil/PROJECTS/Mol_Feturizer/Test_systems_manuscript/rnas/4xwf

>  <Rbt.Executable>
rbdock ($Id: //depot/dev/client3/rdock/2013.1/src/exe/rbdock.cxx#4 $)

>  <Rbt.Library>
libRbt.so (2013.1, Build901 2013/11/27)

>  <Rbt.Parameter_File>
/export/apps/rDock/src/rDock_2013.1_src/data/scripts/dock_solv.prm

>  <Rbt.Receptor>
prm/blind_docking_60.prm

>  <SCORE>
-9.48076

>  <SCORE.INTER>
-9.6369

>  <SCORE.INTER.CONST>
1

>  <SCORE.INTER.POLAR>
0

>  <SCORE.INTER.ROT>
5

>  <SCORE.INTER.SOLV>
12.5077

>  <SCORE.INTER.VDW>
-17.5272

>  <SCORE.INTER.norm>
-0.438041

>  <SCORE.INTRA>
0.155907

>  <SCORE.INTRA.DIHEDRAL>
-1.94557

>  <SCORE.INTRA.DIHEDRAL.0>
3.49807

>  <SCORE.INTRA.POLAR>
0

>  <SCORE.INTRA.POLAR.0>
0

>  <SCORE.INTRA.REPUL>
0

>  <SCORE.INTRA.REPUL.0>
0

>  <SCORE.INTRA.SOLV>
1.64829

>  <SCORE.INTRA.SOLV.lig_0>
-73.062

>  <SCORE.INTRA.VDW>
0.304548

>  <SCORE.INTRA.VDW.0>
-1.83782

>  <SCORE.INTRA.norm>
0.0070867

>  <SCORE.RESTR>
0.000233126

>  <SCORE.RESTR.CAVITY>
0.000233126

>  <SCORE.RESTR.norm>
1.05967e-05

>  <SCORE.SYSTEM>
0

>  <SCORE.SYSTEM.CONST>
0

>  <SCORE.SYSTEM.DIHEDRAL>
0

>  <SCORE.SYSTEM.SOLV>
0

>  <SCORE.SYSTEM.norm>
0

>  <SCORE.heavy>
22

>  <SCORE.norm>
-0.430944

>  <RMSD>
11.505

$$$$
ligand
 OpenBabel02271912143D
libRbt.so/2013.1/901 2013/11/27
 22 23  0  0  0  0  0  0  0  0999 V2000
  -36.3677   -0.8186  -17.9827 N   0  0  0  0  0  0  0  0  0  0  0  0
  -35.0107    1.2082  -20.3286 C   0  0  1  0  0  0  0  0  0  0  0  0
  -35.2943   -0.1586  -19.9145 O   0  0  0  0  0  0  0  0  0  0  0  0
  -32.3468    3.7380  -19.4017 P   0  0  1  0  0  0  0  0  0  0  0  0
  -36.5295   -0.1539  -19.1807 C   0  0  2  0  0  0  0  0  0  0  0  0
  -36.7016   -1.4878  -15.9451 N   0  0  0  0  0  0  0  0  0  0  0  0
  -38.1563    1.4998  -18.6197 O   0  0  0  0  0  0  0  0  0  0  0  0
  -36.7603    1.2684  -18.8421 C   0  0  2  0  0  0  0  0  0  0  0  0
  -35.2731   -3.5934  -14.4508 N   0  0  0  0  0  0  0  0  0  0  0  0
  -37.1164    1.8777  -21.1112 O   0  0  0  0  0  0  0  0  0  0  0  0
  -36.2224    1.9867  -19.9908 C   0  0  2  0  0  0  0  0  0  0  0  0
  -35.6516   -2.1607  -16.4404 C   0  0  0  0  0  0  0  0  0  0  0  0
  -34.4414   -2.2240  -18.6071 N   0  0  0  0  0  0  0  0  0  0  0  0
  -33.5229    2.9268  -20.0477 O   0  0  0  0  0  0  0  0  0  0  0  0
  -33.8301    1.6674  -19.5443 C   0  0  0  0  0  0  0  0  0  0  0  0
  -31.0836    2.8623  -19.7305 O   0  0  0  0  0  0  0  0  0  0  0  0
  -37.1409   -0.6501  -16.9037 C   0  0  0  0  0  0  0  0  0  0  0  0
  -33.8369   -3.6420  -16.2173 O   0  0  0  0  0  0  0  0  0  0  0  0
  -34.8608   -3.1749  -15.7188 C   0  0  0  0  0  0  0  0  0  0  0  0
  -35.4371   -1.7469  -17.7241 C   0  0  0  0  0  0  0  0  0  0  0  0
  -32.3125    5.1157  -19.9751 O   0  5  0  0  0  0  0  0  0  0  0  0
  -32.6230    4.0167  -17.9809 O   0  0  0  0  0  0  0  0  0  0  0  0
  1 17  1  0  0  0  0
  1 20  1  0  0  0  0
  2 15  1  1  0  0  0
  2  3  1  0  0  0  0
  2 11  1  0  0  0  0
  3  5  1  0  0  0  0
  4 16  1  6  0  0  0
  4 21  1  0  0  0  0
  4 22  2  0  0  0  0
  4 14  1  0  0  0  0
  5  1  1  1  0  0  0
  5  8  1  0  0  0  0
  6 17  2  0  0  0  0
  6 12  1  0  0  0  0
  8  7  1  6  0  0  0
  8 11  1  0  0  0  0
  9 19  1  0  0  0  0
 11 10  1  6  0  0  0
 12 20  2  0  0  0  0
 12 19  1  0  0  0  0
 13 20  1  0  0  0  0
 14 15  1  0  0  0  0
 18 19  2  0  0  0  0
M  CHG  1  21  -1
M  END
>  <CHROM.1>
157.79217926,175.07755308,64.83031949,177.62925803,6.23682392,-34.81631298
0.67015025,-18.51147980,1.95917836,0.27056857,2.53373138

>  <Name>
ligand

>  <RI>
0

>  <Rbt.Current_Directory>
/home/itssahil/PROJECTS/Mol_Feturizer/Test_systems_manuscript/rnas/4xwf

>  <Rbt.Executable>
rbdock ($Id: //depot/dev/client3/rdock/2013.1/src/exe/rbdock.cxx#4 $)

>  <Rbt.Library>
libRbt.so (2013.1, Build901 2013/11/27)

>  <Rbt.Parameter_File>
/export/apps/rDock/src/rDock_2013.1_src/data/scripts/dock_solv.prm

>  <Rbt.Receptor>
prm/blind_docking_80.prm

>  <SCORE>
-10.8211

>  <SCORE.INTER>
-11.7528

>  <SCORE.INTER.CONST>
1

>  <SCORE.INTER.POLAR>
0

>  <SCORE.INTER.ROT>
5

>  <SCORE.INTER.SOLV>
17.8532

>  <SCORE.INTER.VDW>
-20.7196

>  <SCORE.INTER.norm>
-0.534218

>  <SCORE.INTRA>
0.931697

>  <SCORE.INTRA.DIHEDRAL>
-1.84041

>  <SCORE.INTRA.DIHEDRAL.0>
3.49807

>  <SCORE.INTRA.POLAR>
0

>  <SCORE.INTRA.POLAR.0>
0

>  <SCORE.INTRA.REPUL>
0

>  <SCORE.INTRA.REPUL.0>
0

>  <SCORE.INTRA.SOLV>
1.3683

>  <SCORE.INTRA.SOLV.lig_0>
-73.062

>  <SCORE.INTRA.VDW>
1.16775

>  <SCORE.INTRA.VDW.0>
-1.83782

>  <SCORE.INTRA.norm>
0.0423499

>  <SCORE.RESTR>
0

>  <SCORE.RESTR.CAVITY>
0

>  <SCORE.RESTR.norm>
0

>  <SCORE.SYSTEM>
0

>  <SCORE.SYSTEM.CONST>
0

>  <SCORE.SYSTEM.DIHEDRAL>
0

>  <SCORE.SYSTEM.SOLV>
0

>  <SCORE.SYSTEM.norm>
0

>  <SCORE.heavy>
22

>  <SCORE.norm>
-0.491868

>  <RMSD>
11.606

$$$$
ligand
 OpenBabel02271912143D
libRbt.so/2013.1/901 2013/11/27
 22 23  0  0  0  0  0  0  0  0999 V2000
  -35.5868    3.0344  -21.4268 N   0  0  0  0  0  0  0  0  0  0  0  0
  -33.0799    5.1994  -20.7334 C   0  0  1  0  0  0  0  0  0  0  0  0
  -33.5266    4.0662  -21.5310 O   0  0  0  0  0  0  0  0  0  0  0  0
  -31.6809    5.5798  -17.2412 P   0  0  1  0  0  0  0  0  0  0  0  0
  -34.9390    4.2079  -21.7532 C   0  0  2  0  0  0  0  0  0  0  0  0
  -37.0506    1.4318  -21.4174 N   0  0  0  0  0  0  0  0  0  0  0  0
  -36.5795    5.8534  -21.2080 O   0  0  0  0  0  0  0  0  0  0  0  0
  -35.3763    5.2166  -20.7622 C   0  0  2  0  0  0  0  0  0  0  0  0
  -34.9524   -1.0225  -19.9537 N   0  0  0  0  0  0  0  0  0  0  0  0
  -34.1681    6.9645  -21.8264 O   0  0  0  0  0  0  0  0  0  0  0  0
  -34.2361    6.1197  -20.6653 C   0  0  2  0  0  0  0  0  0  0  0  0
  -36.0690    1.1077  -20.5618 C   0  0  0  0  0  0  0  0  0  0  0  0
  -33.9417    2.1496  -19.8186 N   0  0  0  0  0  0  0  0  0  0  0  0
  -32.3511    5.7882  -18.6433 O   0  0  0  0  0  0  0  0  0  0  0  0
  -32.7211    4.6726  -19.3866 C   0  0  0  0  0  0  0  0  0  0  0  0
  -32.8495    4.9943  -16.3682 O   0  0  0  0  0  0  0  0  0  0  0  0
  -36.7514    2.6325  -21.9490 C   0  0  0  0  0  0  0  0  0  0  0  0
  -36.8723   -0.3709  -18.9169 O   0  0  0  0  0  0  0  0  0  0  0  0
  -36.0035   -0.1236  -19.7530 C   0  0  0  0  0  0  0  0  0  0  0  0
  -35.1420    2.1106  -20.5645 C   0  0  0  0  0  0  0  0  0  0  0  0
  -30.4985    4.6793  -17.3784 O   0  5  0  0  0  0  0  0  0  0  0  0
  -31.0493    6.8268  -16.7735 O   0  0  0  0  0  0  0  0  0  0  0  0
  1 17  1  0  0  0  0
  1 20  1  0  0  0  0
  2 15  1  1  0  0  0
  2  3  1  0  0  0  0
  2 11  1  0  0  0  0
  3  5  1  0  0  0  0
  4 16  1  1  0  0  0
  4 21  1  0  0  0  0
  4 22  2  0  0  0  0
  4 14  1  0  0  0  0
  5  1  1  1  0  0  0
  5  8  1  0  0  0  0
  6 17  2  0  0  0  0
  6 12  1  0  0  0  0
  8  7  1  6  0  0  0
  8 11  1  0  0  0  0
  9 19  1  0  0  0  0
 11 10  1  6  0  0  0
 12 20  2  0  0  0  0
 12 19  1  0  0  0  0
 13 20  1  0  0  0  0
 14 15  1  0  0  0  0
 18 19  2  0  0  0  0
M  CHG  1  21  -1
M  END
>  <CHROM.1>
-153.68657389,-177.75453296,-68.60749275,-169.85059264,117.54108249,-34.11831531
3.87787289,-19.72612364,2.71539514,0.82070464,2.67114417

>  <Name>
ligand

>  <RI>
0

>  <Rbt.Current_Directory>
/home/itssahil/PROJECTS/Mol_Feturizer/Test_systems_manuscript/rnas/4xwf

>  <Rbt.Executable>
rbdock ($Id: //depot/dev/client3/rdock/2013.1/src/exe/rbdock.cxx#4 $)

>  <Rbt.Library>
libRbt.so (2013.1, Build901 2013/11/27)

>  <Rbt.Parameter_File>
/export/apps/rDock/src/rDock_2013.1_src/data/scripts/dock_solv.prm

>  <Rbt.Receptor>
prm/blind_docking_100.prm

>  <SCORE>
-10.0436

>  <SCORE.INTER>
-11.7776

>  <SCORE.INTER.CONST>
1

>  <SCORE.INTER.POLAR>
0

>  <SCORE.INTER.ROT>
5

>  <SCORE.INTER.SOLV>
12.4145

>  <SCORE.INTER.VDW>
-18.9233

>  <SCORE.INTER.norm>
-0.535347

>  <SCORE.INTRA>
1.71113

>  <SCORE.INTRA.DIHEDRAL>
-1.25998

>  <SCORE.INTRA.DIHEDRAL.0>
3.49807

>  <SCORE.INTRA.POLAR>
0

>  <SCORE.INTRA.POLAR.0>
0

>  <SCORE.INTRA.REPUL>
0

>  <SCORE.INTRA.REPUL.0>
0

>  <SCORE.INTRA.SOLV>
3.97507

>  <SCORE.INTRA.SOLV.lig_0>
-73.062

>  <SCORE.INTRA.VDW>
0.353589

>  <SCORE.INTRA.VDW.0>
-1.83782

>  <SCORE.INTRA.norm>
0.0777788

>  <SCORE.RESTR>
0.0229156

>  <SCORE.RESTR.CAVITY>
0.0229156

>  <SCORE.RESTR.norm>
0.00104162

>  <SCORE.SYSTEM>
0

>  <SCORE.SYSTEM.CONST>
0

>  <SCORE.SYSTEM.DIHEDRAL>
0

>  <SCORE.SYSTEM.SOLV>
0

>  <SCORE.SYSTEM.norm>
0

>  <SCORE.heavy>
22

>  <SCORE.norm>
-0.456526

>  <RMSD>
11.615

$$$$
ligand
 OpenBabel02271912143D
libRbt.so/2013.1/901 2013/11/27
 22 23  0  0  0  0  0  0  0  0999 V2000
  -37.3275    0.4785  -18.3130 N   0  0  0  0  0  0  0  0  0  0  0  0
  -35.0373    1.2884  -20.6692 C   0  0  1  0  0  0  0  0  0  0  0  0
  -35.7335    0.2240  -19.9605 O   0  0  0  0  0  0  0  0  0  0  0  0
  -32.3131    3.7341  -19.6944 P   0  0  1  0  0  0  0  0  0  0  0  0
  -37.0571    0.6884  -19.6494 C   0  0  2  0  0  0  0  0  0  0  0  0
  -38.1583    0.7265  -16.3232 N   0  0  0  0  0  0  0  0  0  0  0  0
  -38.3040    2.6713  -20.1069 O   0  0  0  0  0  0  0  0  0  0  0  0
  -36.9951    2.1551  -19.8383 C   0  0  2  0  0  0  0  0  0  0  0  0
  -37.4089   -0.7998  -13.8819 N   0  0  0  0  0  0  0  0  0  0  0  0
  -36.6912    1.9626  -22.1873 O   0  0  0  0  0  0  0  0  0  0  0  0
  -36.0613    2.3197  -20.9455 C   0  0  2  0  0  0  0  0  0  0  0  0
  -37.4064   -0.3849  -16.3277 C   0  0  0  0  0  0  0  0  0  0  0  0
  -36.0523   -1.6091  -18.0103 N   0  0  0  0  0  0  0  0  0  0  0  0
  -33.4279    2.8977  -20.4129 O   0  0  0  0  0  0  0  0  0  0  0  0
  -33.9773    1.8018  -19.7566 C   0  0  0  0  0  0  0  0  0  0  0  0
  -32.2350    5.0450  -20.5581 O   0  0  0  0  0  0  0  0  0  0  0  0
  -38.1026    1.2644  -17.5565 C   0  0  0  0  0  0  0  0  0  0  0  0
  -36.7838   -2.4299  -15.3440 O   0  0  0  0  0  0  0  0  0  0  0  0
  -37.1820   -1.2774  -15.1755 C   0  0  0  0  0  0  0  0  0  0  0  0
  -36.8823   -0.5494  -17.5781 C   0  0  0  0  0  0  0  0  0  0  0  0
  -32.6910    3.9537  -18.2672 O   0  5  0  0  0  0  0  0  0  0  0  0
  -31.0764    2.9444  -19.5538 O   0  0  0  0  0  0  0  0  0  0  0  0
  1 17  1  0  0  0  0
  1 20  1  0  0  0  0
  2 15  1  1  0  0  0
  2  3  1  0  0  0  0
  2 11  1  0  0  0  0
  3  5  1  0  0  0  0
  4 16  1  6  0  0  0
  4 21  1  0  0  0  0
  4 22  2  0  0  0  0
  4 14  1  0  0  0  0
  5  1  1  1  0  0  0
  5  8  1  0  0  0  0
  6 17  2  0  0  0  0
  6 12  1  0  0  0  0
  8  7  1  6  0  0  0
  8 11  1  0  0  0  0
  9 19  1  0  0  0  0
 11 10  1  6  0  0  0
 12 20  2  0  0  0  0
 12 19  1  0  0  0  0
 13 20  1  0  0  0  0
 14 15  1  0  0  0  0
 18 19  2  0  0  0  0
M  CHG  1  21  -1
M  END
>  <CHROM.1>
147.54872953,-174.22085090,-165.83734093,177.01751730,-19.99182246,-35.48877131
1.43700240,-18.76813492,2.29988140,0.38887173,2.07716847

>  <Name>
ligand

>  <RI>
0

>  <Rbt.Current_Directory>
/home/itssahil/PROJECTS/Mol_Feturizer/Test_systems_manuscript/rnas/4xwf

>  <Rbt.Executable>
rbdock ($Id: //depot/dev/client3/rdock/2013.1/src/exe/rbdock.cxx#4 $)

>  <Rbt.Library>
libRbt.so (2013.1, Build901 2013/11/27)

>  <Rbt.Parameter_File>
/export/apps/rDock/src/rDock_2013.1_src/data/scripts/dock_solv.prm

>  <Rbt.Receptor>
prm/blind_docking_100.prm

>  <SCORE>
-13.2071

>  <SCORE.INTER>
-14.9818

>  <SCORE.INTER.CONST>
1

>  <SCORE.INTER.POLAR>
0

>  <SCORE.INTER.ROT>
5

>  <SCORE.INTER.SOLV>
21.1019

>  <SCORE.INTER.VDW>
-23.9551

>  <SCORE.INTER.norm>
-0.68099

>  <SCORE.INTRA>
1.77471

>  <SCORE.INTRA.DIHEDRAL>
-1.1945

>  <SCORE.INTRA.DIHEDRAL.0>
3.49807

>  <SCORE.INTRA.POLAR>
0

>  <SCORE.INTRA.POLAR.0>
0

>  <SCORE.INTRA.REPUL>
0

>  <SCORE.INTRA.REPUL.0>
0

>  <SCORE.INTRA.SOLV>
1.42561

>  <SCORE.INTRA.SOLV.lig_0>
-73.062

>  <SCORE.INTRA.VDW>
1.65915

>  <SCORE.INTRA.VDW.0>
-1.83782

>  <SCORE.INTRA.norm>
0.0806686

>  <SCORE.RESTR>
0

>  <SCORE.RESTR.CAVITY>
0

>  <SCORE.RESTR.norm>
0

>  <SCORE.SYSTEM>
0

>  <SCORE.SYSTEM.CONST>
0

>  <SCORE.SYSTEM.DIHEDRAL>
0

>  <SCORE.SYSTEM.SOLV>
0

>  <SCORE.SYSTEM.norm>
0

>  <SCORE.heavy>
22

>  <SCORE.norm>
-0.600321

>  <RMSD>
11.833

$$$$
ligand
 OpenBabel02271912143D
libRbt.so/2013.1/901 2013/11/27
 22 23  0  0  0  0  0  0  0  0999 V2000
  -37.1581    0.2108  -18.4333 N   0  0  0  0  0  0  0  0  0  0  0  0
  -34.9244    1.3671  -20.6974 C   0  0  1  0  0  0  0  0  0  0  0  0
  -35.5767    0.2043  -20.1122 O   0  0  0  0  0  0  0  0  0  0  0  0
  -32.2172    3.7345  -19.5039 P   0  0  1  0  0  0  0  0  0  0  0  0
  -36.9110    0.5840  -19.7382 C   0  0  2  0  0  0  0  0  0  0  0  0
  -37.8727    0.2602  -16.3844 N   0  0  0  0  0  0  0  0  0  0  0  0
  -38.2277    2.5631  -19.9506 O   0  0  0  0  0  0  0  0  0  0  0  0
  -36.8994    2.0640  -19.7549 C   0  0  2  0  0  0  0  0  0  0  0  0
  -36.0727   -1.9728  -14.6970 N   0  0  0  0  0  0  0  0  0  0  0  0
  -36.6178    2.1570  -22.1127 O   0  0  0  0  0  0  0  0  0  0  0  0
  -35.9849    2.3881  -20.8429 C   0  0  2  0  0  0  0  0  0  0  0  0
  -37.2819   -0.9263  -16.5935 C   0  0  0  0  0  0  0  0  0  0  0  0
  -36.1727   -2.0473  -18.5110 N   0  0  0  0  0  0  0  0  0  0  0  0
  -33.3468    2.9748  -20.2820 O   0  0  0  0  0  0  0  0  0  0  0  0
  -33.8709    1.8064  -19.7398 C   0  0  0  0  0  0  0  0  0  0  0  0
  -30.9598    2.8133  -19.7065 O   0  0  0  0  0  0  0  0  0  0  0  0
  -37.7889    0.9672  -17.5275 C   0  0  0  0  0  0  0  0  0  0  0  0
  -37.9437   -2.9371  -15.5659 O   0  0  0  0  0  0  0  0  0  0  0  0
  -37.1403   -2.0051  -15.5982 C   0  0  0  0  0  0  0  0  0  0  0  0
  -36.8320   -0.9661  -17.8825 C   0  0  0  0  0  0  0  0  0  0  0  0
  -32.0697    5.1145  -20.0531 O   0  5  0  0  0  0  0  0  0  0  0  0
  -32.6336    4.0118  -18.1174 O   0  0  0  0  0  0  0  0  0  0  0  0
  1 17  1  0  0  0  0
  1 20  1  0  0  0  0
  2 15  1  1  0  0  0
  2  3  1  0  0  0  0
  2 11  1  0  0  0  0
  3  5  1  0  0  0  0
  4 16  1  6  0  0  0
  4 21  1  0  0  0  0
  4 22  2  0  0  0  0
  4 14  1  0  0  0  0
  5  1  1  1  0  0  0
  5  8  1  0  0  0  0
  6 17  2  0  0  0  0
  6 12  1  0  0  0  0
  8  7  1  6  0  0  0
  8 11  1  0  0  0  0
  9 19  1  0  0  0  0
 11 10  1  6  0  0  0
 12 20  2  0  0  0  0
 12 19  1  0  0  0  0
 13 20  1  0  0  0  0
 14 15  1  0  0  0  0
 18 19  2  0  0  0  0
M  CHG  1  21  -1
M  END
>  <CHROM.1>
137.47174482,-175.40437200,72.82370962,178.72701834,-84.17293138,-35.38876361
1.24531776,-18.82182853,2.30019346,0.40954499,2.21009771

>  <Name>
ligand

>  <RI>
0

>  <Rbt.Current_Directory>
/home/itssahil/PROJECTS/Mol_Feturizer/Test_systems_manuscript/rnas/4xwf

>  <Rbt.Executable>
rbdock ($Id: //depot/dev/client3/rdock/2013.1/src/exe/rbdock.cxx#4 $)

>  <Rbt.Library>
libRbt.so (2013.1, Build901 2013/11/27)

>  <Rbt.Parameter_File>
/export/apps/rDock/src/rDock_2013.1_src/data/scripts/dock_solv.prm

>  <Rbt.Receptor>
prm/blind_docking_60.prm

>  <SCORE>
-13.3506

>  <SCORE.INTER>
-14.9122

>  <SCORE.INTER.CONST>
1

>  <SCORE.INTER.POLAR>
0

>  <SCORE.INTER.ROT>
5

>  <SCORE.INTER.SOLV>
18.6467

>  <SCORE.INTER.VDW>
-23.0904

>  <SCORE.INTER.norm>
-0.677827

>  <SCORE.INTRA>
1.56157

>  <SCORE.INTRA.DIHEDRAL>
-0.617297

>  <SCORE.INTRA.DIHEDRAL.0>
3.49807

>  <SCORE.INTRA.POLAR>
0

>  <SCORE.INTRA.POLAR.0>
0

>  <SCORE.INTRA.REPUL>
0

>  <SCORE.INTRA.REPUL.0>
0

>  <SCORE.INTRA.SOLV>
0.193065

>  <SCORE.INTRA.SOLV.lig_0>
-73.062

>  <SCORE.INTRA.VDW>
1.77369

>  <SCORE.INTRA.VDW.0>
-1.83782

>  <SCORE.INTRA.norm>
0.0709805

>  <SCORE.RESTR>
0

>  <SCORE.RESTR.CAVITY>
0

>  <SCORE.RESTR.norm>
0

>  <SCORE.SYSTEM>
0

>  <SCORE.SYSTEM.CONST>
0

>  <SCORE.SYSTEM.DIHEDRAL>
0

>  <SCORE.SYSTEM.SOLV>
0

>  <SCORE.SYSTEM.norm>
0

>  <SCORE.heavy>
22

>  <SCORE.norm>
-0.606846

>  <RMSD>
11.844

$$$$
ligand
 OpenBabel02271912143D
libRbt.so/2013.1/901 2013/11/27
 22 23  0  0  0  0  0  0  0  0999 V2000
  -34.8854   -1.9107  -19.2659 N   0  0  0  0  0  0  0  0  0  0  0  0
  -34.9725    1.2982  -20.3374 C   0  0  1  0  0  0  0  0  0  0  0  0
  -34.8445   -0.1058  -20.7013 O   0  0  0  0  0  0  0  0  0  0  0  0
  -32.5842    3.8885  -18.9517 P   0  0  1  0  0  0  0  0  0  0  0  0
  -35.6376   -0.8770  -19.7845 C   0  0  2  0  0  0  0  0  0  0  0  0
  -33.1897   -3.1840  -18.8029 N   0  0  0  0  0  0  0  0  0  0  0  0
  -37.1016   -0.3646  -17.9706 O   0  0  0  0  0  0  0  0  0  0  0  0
  -35.9141    0.0443  -18.6595 C   0  0  2  0  0  0  0  0  0  0  0  0
  -34.4227   -4.6750  -15.8913 N   0  0  0  0  0  0  0  0  0  0  0  0
  -37.2856    1.4554  -19.9919 O   0  0  0  0  0  0  0  0  0  0  0  0
  -36.0286    1.3474  -19.3028 C   0  0  2  0  0  0  0  0  0  0  0  0
  -34.2608   -3.6581  -18.1483 C   0  0  0  0  0  0  0  0  0  0  0  0
  -36.6444   -3.0002  -17.9263 N   0  0  0  0  0  0  0  0  0  0  0  0
  -33.7528    3.1112  -19.6508 O   0  0  0  0  0  0  0  0  0  0  0  0
  -33.6546    1.7315  -19.7937 C   0  0  0  0  0  0  0  0  0  0  0  0
  -32.8480    3.6345  -17.4232 O   0  0  0  0  0  0  0  0  0  0  0  0
  -33.5821   -2.1016  -19.5015 C   0  0  0  0  0  0  0  0  0  0  0  0
  -34.1535   -5.9735  -17.7424 O   0  0  0  0  0  0  0  0  0  0  0  0
  -34.2788   -4.8434  -17.2711 C   0  0  0  0  0  0  0  0  0  0  0  0
  -35.3318   -2.8597  -18.4324 C   0  0  0  0  0  0  0  0  0  0  0  0
  -31.2728    3.3767  -19.4479 O   0  5  0  0  0  0  0  0  0  0  0  0
  -32.5443    5.2904  -19.4053 O   0  0  0  0  0  0  0  0  0  0  0  0
  1 17  1  0  0  0  0
  1 20  1  0  0  0  0
  2 15  1  1  0  0  0
  2  3  1  0  0  0  0
  2 11  1  0  0  0  0
  3  5  1  0  0  0  0
  4 16  1  1  0  0  0
  4 21  1  0  0  0  0
  4 22  2  0  0  0  0
  4 14  1  0  0  0  0
  5  1  1  1  0  0  0
  5  8  1  0  0  0  0
  6 17  2  0  0  0  0
  6 12  1  0  0  0  0
  8  7  1  6  0  0  0
  8 11  1  0  0  0  0
  9 19  1  0  0  0  0
 11 10  1  6  0  0  0
 12 20  2  0  0  0  0
 12 19  1  0  0  0  0
 13 20  1  0  0  0  0
 14 15  1  0  0  0  0
 18 19  2  0  0  0  0
M  CHG  1  21  -1
M  END
>  <CHROM.1>
4.88036544,171.19330154,-79.21115605,173.52963789,109.34742469,-34.38563352
-0.01655607,-18.85629207,1.79838495,0.24991533,2.90913914

>  <Name>
ligand

>  <RI>
0

>  <Rbt.Current_Directory>
/home/itssahil/PROJECTS/Mol_Feturizer/Test_systems_manuscript/rnas/4xwf

>  <Rbt.Executable>
rbdock ($Id: //depot/dev/client3/rdock/2013.1/src/exe/rbdock.cxx#4 $)

>  <Rbt.Library>
libRbt.so (2013.1, Build901 2013/11/27)

>  <Rbt.Parameter_File>
/export/apps/rDock/src/rDock_2013.1_src/data/scripts/dock_solv.prm

>  <Rbt.Receptor>
prm/blind_docking_80.prm

>  <SCORE>
-10.318

>  <SCORE.INTER>
-10.7278

>  <SCORE.INTER.CONST>
1

>  <SCORE.INTER.POLAR>
0

>  <SCORE.INTER.ROT>
5

>  <SCORE.INTER.SOLV>
15.1909

>  <SCORE.INTER.VDW>
-19.1488

>  <SCORE.INTER.norm>
-0.487627

>  <SCORE.INTRA>
0.409841

>  <SCORE.INTRA.DIHEDRAL>
-0.797021

>  <SCORE.INTRA.DIHEDRAL.0>
3.49807

>  <SCORE.INTRA.POLAR>
0

>  <SCORE.INTRA.POLAR.0>
0

>  <SCORE.INTRA.REPUL>
0

>  <SCORE.INTRA.REPUL.0>
0

>  <SCORE.INTRA.SOLV>
1.16932

>  <SCORE.INTRA.SOLV.lig_0>
-73.062

>  <SCORE.INTRA.VDW>
0.223694

>  <SCORE.INTRA.VDW.0>
-1.83782

>  <SCORE.INTRA.norm>
0.0186292

>  <SCORE.RESTR>
0

>  <SCORE.RESTR.CAVITY>
0

>  <SCORE.RESTR.norm>
0

>  <SCORE.SYSTEM>
0

>  <SCORE.SYSTEM.CONST>
0

>  <SCORE.SYSTEM.DIHEDRAL>
0

>  <SCORE.SYSTEM.SOLV>
0

>  <SCORE.SYSTEM.norm>
0

>  <SCORE.heavy>
22

>  <SCORE.norm>
-0.468998

>  <RMSD>
11.994

$$$$
ligand
 OpenBabel02271912143D
libRbt.so/2013.1/901 2013/11/27
 22 23  0  0  0  0  0  0  0  0999 V2000
  -33.1266    7.2439  -18.5570 N   0  0  0  0  0  0  0  0  0  0  0  0
  -31.9146    4.1569  -19.2311 C   0  0  1  0  0  0  0  0  0  0  0  0
  -31.9956    5.5515  -19.6416 O   0  0  0  0  0  0  0  0  0  0  0  0
  -34.5551    3.1174  -21.7423 P   0  0  1  0  0  0  0  0  0  0  0  0
  -32.0718    6.3604  -18.4566 C   0  0  2  0  0  0  0  0  0  0  0  0
  -34.9400    8.3381  -18.0823 N   0  0  0  0  0  0  0  0  0  0  0  0
  -31.9994    5.9320  -16.1099 O   0  0  0  0  0  0  0  0  0  0  0  0
  -32.4222    5.4118  -17.3758 C   0  0  2  0  0  0  0  0  0  0  0  0
  -35.4026    9.6584  -21.3651 N   0  0  0  0  0  0  0  0  0  0  0  0
  -30.3288    4.2951  -17.5104 O   0  0  0  0  0  0  0  0  0  0  0  0
  -31.7396    4.1831  -17.7624 C   0  0  2  0  0  0  0  0  0  0  0  0
  -34.4485    8.8211  -19.2337 C   0  0  0  0  0  0  0  0  0  0  0  0
  -32.4679    8.3551  -20.6563 N   0  0  0  0  0  0  0  0  0  0  0  0
  -33.3025    3.6890  -20.9920 O   0  0  0  0  0  0  0  0  0  0  0  0
  -33.2010    3.5115  -19.6165 C   0  0  0  0  0  0  0  0  0  0  0  0
  -34.2854    3.5083  -23.2406 O   0  0  0  0  0  0  0  0  0  0  0  0
  -34.1199    7.3539  -17.6672 C   0  0  0  0  0  0  0  0  0  0  0  0
  -35.2134   11.0236  -19.5523 O   0  0  0  0  0  0  0  0  0  0  0  0
  -35.0443    9.9048  -20.0370 C   0  0  0  0  0  0  0  0  0  0  0  0
  -33.3049    8.1391  -19.5376 C   0  0  0  0  0  0  0  0  0  0  0  0
  -34.6626    1.6495  -21.4943 O   0  5  0  0  0  0  0  0  0  0  0  0
  -35.8014    3.6120  -21.1301 O   0  0  0  0  0  0  0  0  0  0  0  0
  1 17  1  0  0  0  0
  1 20  1  0  0  0  0
  2 15  1  1  0  0  0
  2  3  1  0  0  0  0
  2 11  1  0  0  0  0
  3  5  1  0  0  0  0
  4 16  1  6  0  0  0
  4 21  1  0  0  0  0
  4 22  2  0  0  0  0
  4 14  1  0  0  0  0
  5  1  1  6  0  0  0
  5  8  1  0  0  0  0
  6 17  2  0  0  0  0
  6 12  1  0  0  0  0
  8  7  1  1  0  0  0
  8 11  1  0  0  0  0
  9 19  1  0  0  0  0
 11 10  1  6  0  0  0
 12 20  2  0  0  0  0
 12 19  1  0  0  0  0
 13 20  1  0  0  0  0
 14 15  1  0  0  0  0
 18 19  2  0  0  0  0
M  CHG  1  21  -1
M  END
>  <CHROM.1>
124.70870190,58.43312369,-179.52512811,179.75284985,-121.65428496,-33.52400818
5.82534259,-19.66226231,-1.67135202,0.87740790,-2.77248444

>  <Name>
ligand

>  <RI>
0

>  <Rbt.Current_Directory>
/home/itssahil/PROJECTS/Mol_Feturizer/Test_systems_manuscript/rnas/4xwf

>  <Rbt.Executable>
rbdock ($Id: //depot/dev/client3/rdock/2013.1/src/exe/rbdock.cxx#4 $)

>  <Rbt.Library>
libRbt.so (2013.1, Build901 2013/11/27)

>  <Rbt.Parameter_File>
/export/apps/rDock/src/rDock_2013.1_src/data/scripts/dock_solv.prm

>  <Rbt.Receptor>
prm/blind_docking_80.prm

>  <SCORE>
-11.5009

>  <SCORE.INTER>
-12.8041

>  <SCORE.INTER.CONST>
1

>  <SCORE.INTER.POLAR>
0

>  <SCORE.INTER.ROT>
5

>  <SCORE.INTER.SOLV>
14.2659

>  <SCORE.INTER.VDW>
-20.2247

>  <SCORE.INTER.norm>
-0.582006

>  <SCORE.INTRA>
1.22653

>  <SCORE.INTRA.DIHEDRAL>
-1.97686

>  <SCORE.INTRA.DIHEDRAL.0>
3.49807

>  <SCORE.INTRA.POLAR>
0

>  <SCORE.INTRA.POLAR.0>
0

>  <SCORE.INTRA.REPUL>
0

>  <SCORE.INTRA.REPUL.0>
0

>  <SCORE.INTRA.SOLV>
0.386947

>  <SCORE.INTRA.SOLV.lig_0>
-73.062

>  <SCORE.INTRA.VDW>
2.02149

>  <SCORE.INTRA.VDW.0>
-1.83782

>  <SCORE.INTRA.norm>
0.0557514

>  <SCORE.RESTR>
0.0767138

>  <SCORE.RESTR.CAVITY>
0.0767138

>  <SCORE.RESTR.norm>
0.00348699

>  <SCORE.SYSTEM>
0

>  <SCORE.SYSTEM.CONST>
0

>  <SCORE.SYSTEM.DIHEDRAL>
0

>  <SCORE.SYSTEM.SOLV>
0

>  <SCORE.SYSTEM.norm>
0

>  <SCORE.heavy>
22

>  <SCORE.norm>
-0.522767

>  <RMSD>
12.031

$$$$
ligand
 OpenBabel02271912143D
libRbt.so/2013.1/901 2013/11/27
 22 23  0  0  0  0  0  0  0  0999 V2000
  -33.0953    7.2916  -18.8629 N   0  0  0  0  0  0  0  0  0  0  0  0
  -32.1396    4.1491  -19.6778 C   0  0  1  0  0  0  0  0  0  0  0  0
  -32.1081    5.5623  -20.0269 O   0  0  0  0  0  0  0  0  0  0  0  0
  -34.6838    1.3822  -20.1562 P   0  0  1  0  0  0  0  0  0  0  0  0
  -32.1155    6.3220  -18.8074 C   0  0  2  0  0  0  0  0  0  0  0  0
  -34.8533    8.4640  -18.3673 N   0  0  0  0  0  0  0  0  0  0  0  0
  -32.0724    5.7867  -16.4820 O   0  0  0  0  0  0  0  0  0  0  0  0
  -32.5390    5.3584  -17.7667 C   0  0  2  0  0  0  0  0  0  0  0  0
  -35.6590   11.0767  -19.5143 N   0  0  0  0  0  0  0  0  0  0  0  0
  -30.5436    4.0828  -17.9622 O   0  0  0  0  0  0  0  0  0  0  0  0
  -31.9594    4.0966  -18.2105 C   0  0  2  0  0  0  0  0  0  0  0  0
  -34.2527    9.0351  -19.4227 C   0  0  0  0  0  0  0  0  0  0  0  0
  -32.2200    8.5799  -20.7734 N   0  0  0  0  0  0  0  0  0  0  0  0
  -33.4144    2.2555  -19.8653 O   0  0  0  0  0  0  0  0  0  0  0  0
  -33.4751    3.6275  -20.0832 C   0  0  0  0  0  0  0  0  0  0  0  0
  -34.1433   -0.0887  -20.0343 O   0  0  0  0  0  0  0  0  0  0  0  0
  -34.1353    7.3772  -18.0254 C   0  0  0  0  0  0  0  0  0  0  0  0
  -34.2866   10.5233  -21.2451 O   0  0  0  0  0  0  0  0  0  0  0  0
  -34.7145   10.2470  -20.1245 C   0  0  0  0  0  0  0  0  0  0  0  0
  -33.1431    8.3042  -19.7387 C   0  0  0  0  0  0  0  0  0  0  0  0
  -35.7644    1.7280  -19.1863 O   0  5  0  0  0  0  0  0  0  0  0  0
  -35.3020    1.7695  -21.4370 O   0  0  0  0  0  0  0  0  0  0  0  0
  1 17  1  0  0  0  0
  1 20  1  0  0  0  0
  2 15  1  1  0  0  0
  2  3  1  0  0  0  0
  2 11  1  0  0  0  0
  3  5  1  0  0  0  0
  4 16  1  1  0  0  0
  4 21  1  0  0  0  0
  4 22  2  0  0  0  0
  4 14  1  0  0  0  0
  5  1  1  6  0  0  0
  5  8  1  0  0  0  0
  6 17  2  0  0  0  0
  6 12  1  0  0  0  0
  8  7  1  1  0  0  0
  8 11  1  0  0  0  0
  9 19  1  0  0  0  0
 11 10  1  6  0  0  0
 12 20  2  0  0  0  0
 12 19  1  0  0  0  0
 13 20  1  0  0  0  0
 14 15  1  0  0  0  0
 18 19  2  0  0  0  0
M  CHG  1  21  -1
M  END
>  <CHROM.1>
119.01592510,173.90601126,170.51848127,178.42170322,15.72093996,-33.54478889
5.39265496,-19.41264933,-1.55841644,0.61223290,-3.11895099

>  <Name>
ligand

>  <RI>
0

>  <Rbt.Current_Directory>
/home/itssahil/PROJECTS/Mol_Feturizer/Test_systems_manuscript/rnas/4xwf

>  <Rbt.Executable>
rbdock ($Id: //depot/dev/client3/rdock/2013.1/src/exe/rbdock.cxx#4 $)

>  <Rbt.Library>
libRbt.so (2013.1, Build901 2013/11/27)

>  <Rbt.Parameter_File>
/export/apps/rDock/src/rDock_2013.1_src/data/scripts/dock_solv.prm

>  <Rbt.Receptor>
prm/blind_docking_100.prm

>  <SCORE>
-10.4228

>  <SCORE.INTER>
-12.1779

>  <SCORE.INTER.CONST>
1

>  <SCORE.INTER.POLAR>
0

>  <SCORE.INTER.ROT>
5

>  <SCORE.INTER.SOLV>
16.7183

>  <SCORE.INTER.VDW>
-20.6247

>  <SCORE.INTER.norm>
-0.553542

>  <SCORE.INTRA>
1.75516

>  <SCORE.INTRA.DIHEDRAL>
-1.37979

>  <SCORE.INTRA.DIHEDRAL.0>
3.49807

>  <SCORE.INTRA.POLAR>
0

>  <SCORE.INTRA.POLAR.0>
0

>  <SCORE.INTRA.REPUL>
0

>  <SCORE.INTRA.REPUL.0>
0

>  <SCORE.INTRA.SOLV>
0.161513

>  <SCORE.INTRA.SOLV.lig_0>
-73.062

>  <SCORE.INTRA.VDW>
2.3643

>  <SCORE.INTRA.VDW.0>
-1.83782

>  <SCORE.INTRA.norm>
0.0797802

>  <SCORE.RESTR>
0

>  <SCORE.RESTR.CAVITY>
0

>  <SCORE.RESTR.norm>
0

>  <SCORE.SYSTEM>
0

>  <SCORE.SYSTEM.CONST>
0

>  <SCORE.SYSTEM.DIHEDRAL>
0

>  <SCORE.SYSTEM.SOLV>
0

>  <SCORE.SYSTEM.norm>
0

>  <SCORE.heavy>
22

>  <SCORE.norm>
-0.473762

>  <RMSD>
12.078

$$$$
ligand
 OpenBabel02271912143D
libRbt.so/2013.1/901 2013/11/27
 22 23  0  0  0  0  0  0  0  0999 V2000
  -32.9102    7.4346  -19.3974 N   0  0  0  0  0  0  0  0  0  0  0  0
  -32.0766    4.1593  -19.5706 C   0  0  1  0  0  0  0  0  0  0  0  0
  -32.0049    5.4706  -20.1992 O   0  0  0  0  0  0  0  0  0  0  0  0
  -34.6547    1.3834  -19.6463 P   0  0  1  0  0  0  0  0  0  0  0  0
  -31.9624    6.4609  -19.1591 C   0  0  2  0  0  0  0  0  0  0  0  0
  -34.8282    8.4397  -19.5454 N   0  0  0  0  0  0  0  0  0  0  0  0
  -31.8906    6.4055  -16.7742 O   0  0  0  0  0  0  0  0  0  0  0  0
  -32.3970    5.7439  -17.9393 C   0  0  2  0  0  0  0  0  0  0  0  0
  -33.4656   11.2184  -21.4140 N   0  0  0  0  0  0  0  0  0  0  0  0
  -30.4497    4.3825  -17.8979 O   0  0  0  0  0  0  0  0  0  0  0  0
  -31.8689    4.3979  -18.1255 C   0  0  2  0  0  0  0  0  0  0  0  0
  -33.8681    9.3195  -19.8693 C   0  0  0  0  0  0  0  0  0  0  0  0
  -31.3899    9.2752  -20.0112 N   0  0  0  0  0  0  0  0  0  0  0  0
  -33.3681    2.2688  -19.5072 O   0  0  0  0  0  0  0  0  0  0  0  0
  -33.4367    3.6161  -19.8446 C   0  0  0  0  0  0  0  0  0  0  0  0
  -35.4524    1.7000  -18.3294 O   0  0  0  0  0  0  0  0  0  0  0  0
  -34.2305    7.2676  -19.2585 C   0  0  0  0  0  0  0  0  0  0  0  0
  -34.7907   11.4646  -19.5784 O   0  0  0  0  0  0  0  0  0  0  0  0
  -34.0844   10.7242  -20.2625 C   0  0  0  0  0  0  0  0  0  0  0  0
  -32.6573    8.6947  -19.7755 C   0  0  0  0  0  0  0  0  0  0  0  0
  -35.3732    1.7358  -20.9062 O   0  5  0  0  0  0  0  0  0  0  0  0
  -34.2957   -0.0243  -19.8953 O   0  0  0  0  0  0  0  0  0  0  0  0
  1 17  1  0  0  0  0
  1 20  1  0  0  0  0
  2 15  1  1  0  0  0
  2  3  1  0  0  0  0
  2 11  1  0  0  0  0
  3  5  1  0  0  0  0
  4 16  1  1  0  0  0
  4 21  1  0  0  0  0
  4 22  2  0  0  0  0
  4 14  1  0  0  0  0
  5  1  1  6  0  0  0
  5  8  1  0  0  0  0
  6 17  2  0  0  0  0
  6 12  1  0  0  0  0
  8  7  1  1  0  0  0
  8 11  1  0  0  0  0
  9 19  1  0  0  0  0
 11 10  1  6  0  0  0
 12 20  2  0  0  0  0
 12 19  1  0  0  0  0
 13 20  1  0  0  0  0
 14 15  1  0  0  0  0
 18 19  2  0  0  0  0
M  CHG  1  21  -1
M  END
>  <CHROM.1>
72.25013332,166.74098027,-81.37284280,178.71934960,-130.64232327,-33.33332216
5.59078638,-19.40341972,-1.47131487,0.48906141,3.04793221

>  <Name>
ligand

>  <RI>
0

>  <Rbt.Current_Directory>
/home/itssahil/PROJECTS/Mol_Feturizer/Test_systems_manuscript/rnas/4xwf

>  <Rbt.Executable>
rbdock ($Id: //depot/dev/client3/rdock/2013.1/src/exe/rbdock.cxx#4 $)

>  <Rbt.Library>
libRbt.so (2013.1, Build901 2013/11/27)

>  <Rbt.Parameter_File>
/export/apps/rDock/src/rDock_2013.1_src/data/scripts/dock_solv.prm

>  <Rbt.Receptor>
prm/blind_docking_100.prm

>  <SCORE>
-10.9482

>  <SCORE.INTER>
-10.9104

>  <SCORE.INTER.CONST>
1

>  <SCORE.INTER.POLAR>
0

>  <SCORE.INTER.ROT>
5

>  <SCORE.INTER.SOLV>
17.5804

>  <SCORE.INTER.VDW>
-20.0671

>  <SCORE.INTER.norm>
-0.495929

>  <SCORE.INTRA>
-0.0377949

>  <SCORE.INTRA.DIHEDRAL>
-0.518181

>  <SCORE.INTRA.DIHEDRAL.0>
3.49807

>  <SCORE.INTRA.POLAR>
0

>  <SCORE.INTRA.POLAR.0>
0

>  <SCORE.INTRA.REPUL>
0

>  <SCORE.INTRA.REPUL.0>
0

>  <SCORE.INTRA.SOLV>
-0.79255

>  <SCORE.INTRA.SOLV.lig_0>
-73.062

>  <SCORE.INTRA.VDW>
0.61757

>  <SCORE.INTRA.VDW.0>
-1.83782

>  <SCORE.INTRA.norm>
-0.00171795

>  <SCORE.RESTR>
0

>  <SCORE.RESTR.CAVITY>
0

>  <SCORE.RESTR.norm>
0

>  <SCORE.SYSTEM>
0

>  <SCORE.SYSTEM.CONST>
0

>  <SCORE.SYSTEM.DIHEDRAL>
0

>  <SCORE.SYSTEM.SOLV>
0

>  <SCORE.SYSTEM.norm>
0

>  <SCORE.heavy>
22

>  <SCORE.norm>
-0.497646

>  <RMSD>
12.158

$$$$
ligand
 OpenBabel02271912143D
libRbt.so/2013.1/901 2013/11/27
 22 23  0  0  0  0  0  0  0  0999 V2000
  -32.8626    7.4326  -19.4118 N   0  0  0  0  0  0  0  0  0  0  0  0
  -32.0818    4.1428  -19.5535 C   0  0  1  0  0  0  0  0  0  0  0  0
  -31.9704    5.4506  -20.1836 O   0  0  0  0  0  0  0  0  0  0  0  0
  -34.6803    1.3935  -19.7616 P   0  0  1  0  0  0  0  0  0  0  0  0
  -31.9387    6.4433  -19.1454 C   0  0  2  0  0  0  0  0  0  0  0  0
  -34.7596    8.4640  -19.6329 N   0  0  0  0  0  0  0  0  0  0  0  0
  -31.9322    6.3943  -16.7593 O   0  0  0  0  0  0  0  0  0  0  0  0
  -32.4185    5.7378  -17.9358 C   0  0  2  0  0  0  0  0  0  0  0  0
  -33.3007   11.2469  -21.4071 N   0  0  0  0  0  0  0  0  0  0  0  0
  -30.4969    4.3431  -17.8381 O   0  0  0  0  0  0  0  0  0  0  0  0
  -31.9091    4.3824  -18.1040 C   0  0  2  0  0  0  0  0  0  0  0  0
  -33.7749    9.3365  -19.8972 C   0  0  0  0  0  0  0  0  0  0  0  0
  -31.2935    9.2633  -19.9237 N   0  0  0  0  0  0  0  0  0  0  0  0
  -33.3806    2.2569  -19.6068 O   0  0  0  0  0  0  0  0  0  0  0  0
  -33.4433    3.6223  -19.8626 C   0  0  0  0  0  0  0  0  0  0  0  0
  -35.4707    1.6937  -18.4366 O   0  0  0  0  0  0  0  0  0  0  0  0
  -34.1900    7.2800  -19.3376 C   0  0  0  0  0  0  0  0  0  0  0  0
  -34.6645   11.4947  -19.6004 O   0  0  0  0  0  0  0  0  0  0  0  0
  -33.9558   10.7499  -20.2771 C   0  0  0  0  0  0  0  0  0  0  0  0
  -32.5773    8.6952  -19.7570 C   0  0  0  0  0  0  0  0  0  0  0  0
  -35.3960    1.7830  -21.0122 O   0  5  0  0  0  0  0  0  0  0  0  0
  -34.3424   -0.0137  -20.0413 O   0  0  0  0  0  0  0  0  0  0  0  0
  1 17  1  0  0  0  0
  1 20  1  0  0  0  0
  2 15  1  1  0  0  0
  2  3  1  0  0  0  0
  2 11  1  0  0  0  0
  3  5  1  0  0  0  0
  4 16  1  1  0  0  0
  4 21  1  0  0  0  0
  4 22  2  0  0  0  0
  4 14  1  0  0  0  0
  5  1  1  6  0  0  0
  5  8  1  0  0  0  0
  6 17  2  0  0  0  0
  6 12  1  0  0  0  0
  8  7  1  1  0  0  0
  8 11  1  0  0  0  0
  9 19  1  0  0  0  0
 11 10  1  6  0  0  0
 12 20  2  0  0  0  0
 12 19  1  0  0  0  0
 13 20  1  0  0  0  0
 14 15  1  0  0  0  0
 18 19  2  0  0  0  0
M  CHG  1  21  -1
M  END
>  <CHROM.1>
70.64588668,162.77849704,-78.76441259,176.97221627,-129.25886827,-33.31053180
5.59343820,-19.43588508,-1.44992449,0.52723873,3.04569897

>  <Name>
ligand

>  <RI>
0

>  <Rbt.Current_Directory>
/home/itssahil/PROJECTS/Mol_Feturizer/Test_systems_manuscript/rnas/4xwf

>  <Rbt.Executable>
rbdock ($Id: //depot/dev/client3/rdock/2013.1/src/exe/rbdock.cxx#4 $)

>  <Rbt.Library>
libRbt.so (2013.1, Build901 2013/11/27)

>  <Rbt.Parameter_File>
/export/apps/rDock/src/rDock_2013.1_src/data/scripts/dock_solv.prm

>  <Rbt.Receptor>
prm/blind_docking_100.prm

>  <SCORE>
-10.9023

>  <SCORE.INTER>
-10.8326

>  <SCORE.INTER.CONST>
1

>  <SCORE.INTER.POLAR>
0

>  <SCORE.INTER.ROT>
5

>  <SCORE.INTER.SOLV>
17.8459

>  <SCORE.INTER.VDW>
-20.1037

>  <SCORE.INTER.norm>
-0.492393

>  <SCORE.INTRA>
-0.0696805

>  <SCORE.INTRA.DIHEDRAL>
-0.278715

>  <SCORE.INTRA.DIHEDRAL.0>
3.49807

>  <SCORE.INTRA.POLAR>
0

>  <SCORE.INTRA.POLAR.0>
0

>  <SCORE.INTRA.REPUL>
0

>  <SCORE.INTRA.REPUL.0>
0

>  <SCORE.INTRA.SOLV>
-0.84368

>  <SCORE.INTRA.SOLV.lig_0>
-73.062

>  <SCORE.INTRA.VDW>
0.491517

>  <SCORE.INTRA.VDW.0>
-1.83782

>  <SCORE.INTRA.norm>
-0.0031673

>  <SCORE.RESTR>
0

>  <SCORE.RESTR.CAVITY>
0

>  <SCORE.RESTR.norm>
0

>  <SCORE.SYSTEM>
0

>  <SCORE.SYSTEM.CONST>
0

>  <SCORE.SYSTEM.DIHEDRAL>
0

>  <SCORE.SYSTEM.SOLV>
0

>  <SCORE.SYSTEM.norm>
0

>  <SCORE.heavy>
22

>  <SCORE.norm>
-0.49556

>  <RMSD>
12.185

$$$$
ligand
 OpenBabel02271912143D
libRbt.so/2013.1/901 2013/11/27
 22 23  0  0  0  0  0  0  0  0999 V2000
  -32.8840    7.4217  -19.3580 N   0  0  0  0  0  0  0  0  0  0  0  0
  -32.1093    4.1370  -19.6098 C   0  0  1  0  0  0  0  0  0  0  0  0
  -32.0344    5.4576  -20.2184 O   0  0  0  0  0  0  0  0  0  0  0  0
  -34.7065    1.3821  -19.7640 P   0  0  1  0  0  0  0  0  0  0  0  0
  -31.9457    6.4292  -19.1637 C   0  0  2  0  0  0  0  0  0  0  0  0
  -34.7626    8.5079  -19.3124 N   0  0  0  0  0  0  0  0  0  0  0  0
  -31.8058    6.3320  -16.7832 O   0  0  0  0  0  0  0  0  0  0  0  0
  -32.3565    5.6984  -17.9438 C   0  0  2  0  0  0  0  0  0  0  0  0
  -33.7560   10.9522  -21.7280 N   0  0  0  0  0  0  0  0  0  0  0  0
  -30.4312    4.3059  -17.9819 O   0  0  0  0  0  0  0  0  0  0  0  0
  -31.8560    4.3476  -18.1676 C   0  0  2  0  0  0  0  0  0  0  0  0
  -33.8379    9.2941  -19.8846 C   0  0  0  0  0  0  0  0  0  0  0  0
  -31.4202    9.1000  -20.4146 N   0  0  0  0  0  0  0  0  0  0  0  0
  -33.4131    2.2539  -19.6039 O   0  0  0  0  0  0  0  0  0  0  0  0
  -33.4854    3.6201  -19.8530 C   0  0  0  0  0  0  0  0  0  0  0  0
  -35.5246    1.7113  -18.4628 O   0  0  0  0  0  0  0  0  0  0  0  0
  -34.1685    7.3427  -18.9917 C   0  0  0  0  0  0  0  0  0  0  0  0
  -34.5089   11.5384  -19.6604 O   0  0  0  0  0  0  0  0  0  0  0  0
  -34.0650   10.6580  -20.3973 C   0  0  0  0  0  0  0  0  0  0  0  0
  -32.6515    8.6181  -19.9142 C   0  0  0  0  0  0  0  0  0  0  0  0
  -35.3981    1.7385  -21.0378 O   0  5  0  0  0  0  0  0  0  0  0  0
  -34.3584   -0.0302  -20.0025 O   0  0  0  0  0  0  0  0  0  0  0  0
  1 17  1  0  0  0  0
  1 20  1  0  0  0  0
  2 15  1  1  0  0  0
  2  3  1  0  0  0  0
  2 11  1  0  0  0  0
  3  5  1  0  0  0  0
  4 16  1  1  0  0  0
  4 21  1  0  0  0  0
  4 22  2  0  0  0  0
  4 14  1  0  0  0  0
  5  1  1  6  0  0  0
  5  8  1  0  0  0  0
  6 17  2  0  0  0  0
  6 12  1  0  0  0  0
  8  7  1  1  0  0  0
  8 11  1  0  0  0  0
  9 19  1  0  0  0  0
 11 10  1  6  0  0  0
 12 20  2  0  0  0  0
 12 19  1  0  0  0  0
 13 20  1  0  0  0  0
 14 15  1  0  0  0  0
 18 19  2  0  0  0  0
M  CHG  1  21  -1
M  END
>  <CHROM.1>
83.05461948,163.88113669,-76.73307266,179.87607798,-123.94279417,-33.33690557
5.56041134,-19.47039748,-1.46108017,0.52998594,3.03976716

>  <Name>
ligand

>  <RI>
0

>  <Rbt.Current_Directory>
/home/itssahil/PROJECTS/Mol_Feturizer/Test_systems_manuscript/rnas/4xwf

>  <Rbt.Executable>
rbdock ($Id: //depot/dev/client3/rdock/2013.1/src/exe/rbdock.cxx#4 $)

>  <Rbt.Library>
libRbt.so (2013.1, Build901 2013/11/27)

>  <Rbt.Parameter_File>
/export/apps/rDock/src/rDock_2013.1_src/data/scripts/dock_solv.prm

>  <Rbt.Receptor>
prm/blind_docking_80.prm

>  <SCORE>
-10.6106

>  <SCORE.INTER>
-10.9932

>  <SCORE.INTER.CONST>
1

>  <SCORE.INTER.POLAR>
0

>  <SCORE.INTER.ROT>
5

>  <SCORE.INTER.SOLV>
15.7923

>  <SCORE.INTER.VDW>
-19.5263

>  <SCORE.INTER.norm>
-0.499693

>  <SCORE.INTRA>
0.382688

>  <SCORE.INTRA.DIHEDRAL>
-0.596228

>  <SCORE.INTRA.DIHEDRAL.0>
3.49807

>  <SCORE.INTRA.POLAR>
0

>  <SCORE.INTRA.POLAR.0>
0

>  <SCORE.INTRA.REPUL>
0

>  <SCORE.INTRA.REPUL.0>
0

>  <SCORE.INTRA.SOLV>
-0.816758

>  <SCORE.INTRA.SOLV.lig_0>
-73.062

>  <SCORE.INTRA.VDW>
1.08918

>  <SCORE.INTRA.VDW.0>
-1.83782

>  <SCORE.INTRA.norm>
0.0173949

>  <SCORE.RESTR>
0

>  <SCORE.RESTR.CAVITY>
0

>  <SCORE.RESTR.norm>
0

>  <SCORE.SYSTEM>
0

>  <SCORE.SYSTEM.CONST>
0

>  <SCORE.SYSTEM.DIHEDRAL>
0

>  <SCORE.SYSTEM.SOLV>
0

>  <SCORE.SYSTEM.norm>
0

>  <SCORE.heavy>
22

>  <SCORE.norm>
-0.482298

>  <RMSD>
12.198

$$$$
ligand
 OpenBabel02271912143D
libRbt.so/2013.1/901 2013/11/27
 22 23  0  0  0  0  0  0  0  0999 V2000
  -32.8791    7.3731  -19.3048 N   0  0  0  0  0  0  0  0  0  0  0  0
  -32.1147    4.1080  -19.7596 C   0  0  1  0  0  0  0  0  0  0  0  0
  -32.0035    5.4683  -20.2664 O   0  0  0  0  0  0  0  0  0  0  0  0
  -34.7720    1.4248  -20.0111 P   0  0  1  0  0  0  0  0  0  0  0  0
  -31.9572    6.3600  -19.1408 C   0  0  2  0  0  0  0  0  0  0  0  0
  -34.7405    8.4868  -19.2281 N   0  0  0  0  0  0  0  0  0  0  0  0
  -31.9276    6.0893  -16.7698 O   0  0  0  0  0  0  0  0  0  0  0  0
  -32.4283    5.5469  -17.9973 C   0  0  2  0  0  0  0  0  0  0  0  0
  -35.1326   11.3698  -19.8159 N   0  0  0  0  0  0  0  0  0  0  0  0
  -30.5122    4.1421  -18.0491 O   0  0  0  0  0  0  0  0  0  0  0  0
  -31.9267    4.2111  -18.2959 C   0  0  2  0  0  0  0  0  0  0  0  0
  -33.8019    9.2766  -19.7719 C   0  0  0  0  0  0  0  0  0  0  0  0
  -31.3860    9.0619  -20.3020 N   0  0  0  0  0  0  0  0  0  0  0  0
  -33.5277    2.3086  -19.6515 O   0  0  0  0  0  0  0  0  0  0  0  0
  -33.4814    3.6234  -20.1020 C   0  0  0  0  0  0  0  0  0  0  0  0
  -34.5232    1.0503  -21.5172 O   0  0  0  0  0  0  0  0  0  0  0  0
  -34.1659    7.3024  -18.9444 C   0  0  0  0  0  0  0  0  0  0  0  0
  -33.2025   11.1857  -21.0102 O   0  0  0  0  0  0  0  0  0  0  0  0
  -34.0061   10.6600  -20.2401 C   0  0  0  0  0  0  0  0  0  0  0  0
  -32.6262    8.5833  -19.8207 C   0  0  0  0  0  0  0  0  0  0  0  0
  -34.8426    0.2562  -19.0852 O   0  5  0  0  0  0  0  0  0  0  0  0
  -36.0251    2.1316  -19.6901 O   0  0  0  0  0  0  0  0  0  0  0  0
  1 17  1  0  0  0  0
  1 20  1  0  0  0  0
  2 15  1  1  0  0  0
  2  3  1  0  0  0  0
  2 11  1  0  0  0  0
  3  5  1  0  0  0  0
  4 16  1  6  0  0  0
  4 21  1  0  0  0  0
  4 22  2  0  0  0  0
  4 14  1  0  0  0  0
  5  1  1  6  0  0  0
  5  8  1  0  0  0  0
  6 17  2  0  0  0  0
  6 12  1  0  0  0  0
  8  7  1  1  0  0  0
  8 11  1  0  0  0  0
  9 19  1  0  0  0  0
 11 10  1  6  0  0  0
 12 20  2  0  0  0  0
 12 19  1  0  0  0  0
 13 20  1  0  0  0  0
 14 15  1  0  0  0  0
 18 19  2  0  0  0  0
M  CHG  1  21  -1
M  END
>  <CHROM.1>
86.44612523,177.63678052,76.33270226,-172.35801374,17.23357258,-33.35646216
5.52635975,-19.52071607,-1.45177069,0.48159476,3.07656758

>  <Name>
ligand

>  <RI>
0

>  <Rbt.Current_Directory>
/home/itssahil/PROJECTS/Mol_Feturizer/Test_systems_manuscript/rnas/4xwf

>  <Rbt.Executable>
rbdock ($Id: //depot/dev/client3/rdock/2013.1/src/exe/rbdock.cxx#4 $)

>  <Rbt.Library>
libRbt.so (2013.1, Build901 2013/11/27)

>  <Rbt.Parameter_File>
/export/apps/rDock/src/rDock_2013.1_src/data/scripts/dock_solv.prm

>  <Rbt.Receptor>
prm/blind_docking_80.prm

>  <SCORE>
-10.927

>  <SCORE.INTER>
-11.4597

>  <SCORE.INTER.CONST>
1

>  <SCORE.INTER.POLAR>
0

>  <SCORE.INTER.ROT>
5

>  <SCORE.INTER.SOLV>
16.6922

>  <SCORE.INTER.VDW>
-20.1372

>  <SCORE.INTER.norm>
-0.520896

>  <SCORE.INTRA>
0.532727

>  <SCORE.INTRA.DIHEDRAL>
-0.956924

>  <SCORE.INTRA.DIHEDRAL.0>
3.49807

>  <SCORE.INTRA.POLAR>
0

>  <SCORE.INTRA.POLAR.0>
0

>  <SCORE.INTRA.REPUL>
0

>  <SCORE.INTRA.REPUL.0>
0

>  <SCORE.INTRA.SOLV>
-0.952772

>  <SCORE.INTRA.SOLV.lig_0>
-73.062

>  <SCORE.INTRA.VDW>
1.48758

>  <SCORE.INTRA.VDW.0>
-1.83782

>  <SCORE.INTRA.norm>
0.0242149

>  <SCORE.RESTR>
0

>  <SCORE.RESTR.CAVITY>
0

>  <SCORE.RESTR.norm>
0

>  <SCORE.SYSTEM>
0

>  <SCORE.SYSTEM.CONST>
0

>  <SCORE.SYSTEM.DIHEDRAL>
0

>  <SCORE.SYSTEM.SOLV>
0

>  <SCORE.SYSTEM.norm>
0

>  <SCORE.heavy>
22

>  <SCORE.norm>
-0.496681

>  <RMSD>
12.207

$$$$
ligand
 OpenBabel02271912143D
libRbt.so/2013.1/901 2013/11/27
 22 23  0  0  0  0  0  0  0  0999 V2000
  -34.9252   -5.8226  -14.7664 N   0  0  0  0  0  0  0  0  0  0  0  0
  -34.4263   -2.5117  -15.2578 C   0  0  1  0  0  0  0  0  0  0  0  0
  -33.9222   -3.7476  -14.6763 O   0  0  0  0  0  0  0  0  0  0  0  0
  -35.6739   -1.0074  -12.0126 P   0  0  1  0  0  0  0  0  0  0  0  0
  -34.3279   -4.8355  -15.5227 C   0  0  2  0  0  0  0  0  0  0  0  0
  -36.3886   -7.2558  -14.0485 N   0  0  0  0  0  0  0  0  0  0  0  0
  -35.4941   -5.0195  -17.5968 O   0  0  0  0  0  0  0  0  0  0  0  0
  -35.3901   -4.2669  -16.3825 C   0  0  2  0  0  0  0  0  0  0  0  0
  -34.4294   -9.5527  -12.4414 N   0  0  0  0  0  0  0  0  0  0  0  0
  -33.8742   -2.8284  -17.5138 O   0  0  0  0  0  0  0  0  0  0  0  0
  -34.9678   -2.8861  -16.5826 C   0  0  2  0  0  0  0  0  0  0  0  0
  -35.2753   -7.3889  -13.3114 C   0  0  0  0  0  0  0  0  0  0  0  0
  -33.0335   -6.3232  -13.2675 N   0  0  0  0  0  0  0  0  0  0  0  0
  -34.8328   -1.5402  -13.2239 O   0  0  0  0  0  0  0  0  0  0  0  0
  -35.4970   -2.0068  -14.3530 C   0  0  0  0  0  0  0  0  0  0  0  0
  -36.7371   -0.0736  -12.6969 O   0  0  0  0  0  0  0  0  0  0  0  0
  -36.1704   -6.2776  -14.9479 C   0  0  0  0  0  0  0  0  0  0  0  0
  -35.5127   -8.0866  -11.0766 O   0  0  0  0  0  0  0  0  0  0  0  0
  -35.0857   -8.3423  -12.2024 C   0  0  0  0  0  0  0  0  0  0  0  0
  -34.3481   -6.4918  -13.7595 C   0  0  0  0  0  0  0  0  0  0  0  0
  -36.2532   -2.1579  -11.2584 O   0  5  0  0  0  0  0  0  0  0  0  0
  -34.7975   -0.3993  -10.9953 O   0  0  0  0  0  0  0  0  0  0  0  0
  1 17  1  0  0  0  0
  1 20  1  0  0  0  0
  2 15  1  1  0  0  0
  2  3  1  0  0  0  0
  2 11  1  0  0  0  0
  3  5  1  0  0  0  0
  4 16  1  6  0  0  0
  4 21  1  0  0  0  0
  4 22  2  0  0  0  0
  4 14  1  0  0  0  0
  5  1  1  1  0  0  0
  5  8  1  0  0  0  0
  6 17  2  0  0  0  0
  6 12  1  0  0  0  0
  8  7  1  6  0  0  0
  8 11  1  0  0  0  0
  9 19  1  0  0  0  0
 11 10  1  6  0  0  0
 12 20  2  0  0  0  0
 12 19  1  0  0  0  0
 13 20  1  0  0  0  0
 14 15  1  0  0  0  0
 18 19  2  0  0  0  0
M  CHG  1  21  -1
M  END
>  <CHROM.1>
121.68673702,72.16655849,-46.31423324,-176.41424349,97.67815484,-35.09872686
-4.18553274,-13.86267215,-1.05637618,1.41942481,-0.43130327

>  <Name>
ligand

>  <RI>
0

>  <Rbt.Current_Directory>
/home/itssahil/PROJECTS/Mol_Feturizer/Test_systems_manuscript/rnas/4xwf

>  <Rbt.Executable>
rbdock ($Id: //depot/dev/client3/rdock/2013.1/src/exe/rbdock.cxx#4 $)

>  <Rbt.Library>
libRbt.so (2013.1, Build901 2013/11/27)

>  <Rbt.Parameter_File>
/export/apps/rDock/src/rDock_2013.1_src/data/scripts/dock_solv.prm

>  <Rbt.Receptor>
prm/blind_docking_40.prm

>  <SCORE>
-5.52455

>  <SCORE.INTER>
-7.14964

>  <SCORE.INTER.CONST>
1

>  <SCORE.INTER.POLAR>
0

>  <SCORE.INTER.ROT>
5

>  <SCORE.INTER.SOLV>
22.0142

>  <SCORE.INTER.VDW>
-19.0378

>  <SCORE.INTER.norm>
-0.324984

>  <SCORE.INTRA>
1.61048

>  <SCORE.INTRA.DIHEDRAL>
-0.666535

>  <SCORE.INTRA.DIHEDRAL.0>
3.49807

>  <SCORE.INTRA.POLAR>
0

>  <SCORE.INTRA.POLAR.0>
0

>  <SCORE.INTRA.REPUL>
0

>  <SCORE.INTRA.REPUL.0>
0

>  <SCORE.INTRA.SOLV>
-0.641444

>  <SCORE.INTRA.SOLV.lig_0>
-73.062

>  <SCORE.INTRA.VDW>
2.26447

>  <SCORE.INTRA.VDW.0>
-1.83782

>  <SCORE.INTRA.norm>
0.0732035

>  <SCORE.RESTR>
0.0146147

>  <SCORE.RESTR.CAVITY>
0.0146147

>  <SCORE.RESTR.norm>
0.000664307

>  <SCORE.SYSTEM>
0

>  <SCORE.SYSTEM.CONST>
0

>  <SCORE.SYSTEM.DIHEDRAL>
0

>  <SCORE.SYSTEM.SOLV>
0

>  <SCORE.SYSTEM.norm>
0

>  <SCORE.heavy>
22

>  <SCORE.norm>
-0.251116

>  <RMSD>
12.251

$$$$
ligand
 OpenBabel02271912143D
libRbt.so/2013.1/901 2013/11/27
 22 23  0  0  0  0  0  0  0  0999 V2000
  -31.7897    6.7712  -19.7268 N   0  0  0  0  0  0  0  0  0  0  0  0
  -32.2780    3.6271  -18.5738 C   0  0  1  0  0  0  0  0  0  0  0  0
  -31.3942    4.5430  -19.2810 O   0  0  0  0  0  0  0  0  0  0  0  0
  -35.2959    1.5789  -19.5978 P   0  0  1  0  0  0  0  0  0  0  0  0
  -31.5708    5.8538  -18.7199 C   0  0  2  0  0  0  0  0  0  0  0  0
  -32.6945    7.7837  -21.4200 N   0  0  0  0  0  0  0  0  0  0  0  0
  -32.8522    6.7657  -16.9248 O   0  0  0  0  0  0  0  0  0  0  0  0
  -32.8328    5.7671  -17.9515 C   0  0  2  0  0  0  0  0  0  0  0  0
  -30.0408    9.7613  -22.4376 N   0  0  0  0  0  0  0  0  0  0  0  0
  -31.9002    4.2761  -16.3533 O   0  0  0  0  0  0  0  0  0  0  0  0
  -32.8312    4.4015  -17.4413 C   0  0  2  0  0  0  0  0  0  0  0  0
  -31.6392    8.5067  -21.0145 C   0  0  0  0  0  0  0  0  0  0  0  0
  -29.9441    8.3213  -19.2101 N   0  0  0  0  0  0  0  0  0  0  0  0
  -34.1146    2.2863  -18.8476 O   0  0  0  0  0  0  0  0  0  0  0  0
  -33.3451    3.2214  -19.5312 C   0  0  0  0  0  0  0  0  0  0  0  0
  -36.0065    0.7618  -18.4586 O   0  0  0  0  0  0  0  0  0  0  0  0
  -32.7820    6.7026  -20.6218 C   0  0  0  0  0  0  0  0  0  0  0  0
  -31.7686   10.8240  -21.4027 O   0  0  0  0  0  0  0  0  0  0  0  0
  -31.1751    9.7680  -21.6214 C   0  0  0  0  0  0  0  0  0  0  0  0
  -31.0661    7.8770  -19.9466 C   0  0  0  0  0  0  0  0  0  0  0  0
  -36.1584    2.6039  -20.2561 O   0  5  0  0  0  0  0  0  0  0  0  0
  -34.7977    0.8220  -20.7604 O   0  0  0  0  0  0  0  0  0  0  0  0
  1 17  1  0  0  0  0
  1 20  1  0  0  0  0
  2 15  1  6  0  0  0
  2  3  1  0  0  0  0
  2 11  1  0  0  0  0
  3  5  1  0  0  0  0
  4 16  1  1  0  0  0
  4 21  1  0  0  0  0
  4 22  2  0  0  0  0
  4 14  1  0  0  0  0
  5  1  1  6  0  0  0
  5  8  1  0  0  0  0
  6 17  2  0  0  0  0
  6 12  1  0  0  0  0
  8  7  1  1  0  0  0
  8 11  1  0  0  0  0
  9 19  1  0  0  0  0
 11 10  1  1  0  0  0
 12 20  2  0  0  0  0
 12 19  1  0  0  0  0
 13 20  1  0  0  0  0
 14 15  1  0  0  0  0
 18 19  2  0  0  0  0
M  CHG  1  21  -1
M  END
>  <CHROM.1>
57.71511793,176.32344848,-173.13129538,-176.52180797,-104.08894296,-32.85981619
5.24928396,-19.51369783,-0.72951787,0.91893266,2.20114345

>  <Name>
ligand

>  <RI>
0

>  <Rbt.Current_Directory>
/home/itssahil/PROJECTS/Mol_Feturizer/Test_systems_manuscript/rnas/4xwf

>  <Rbt.Executable>
rbdock ($Id: //depot/dev/client3/rdock/2013.1/src/exe/rbdock.cxx#4 $)

>  <Rbt.Library>
libRbt.so (2013.1, Build901 2013/11/27)

>  <Rbt.Parameter_File>
/export/apps/rDock/src/rDock_2013.1_src/data/scripts/dock_solv.prm

>  <Rbt.Receptor>
prm/blind_docking_100.prm

>  <SCORE>
-9.39699

>  <SCORE.INTER>
-8.66855

>  <SCORE.INTER.CONST>
1

>  <SCORE.INTER.POLAR>
0

>  <SCORE.INTER.ROT>
5

>  <SCORE.INTER.SOLV>
20.6876

>  <SCORE.INTER.VDW>
-19.6082

>  <SCORE.INTER.norm>
-0.394025

>  <SCORE.INTRA>
-0.728444

>  <SCORE.INTRA.DIHEDRAL>
-1.54624

>  <SCORE.INTRA.DIHEDRAL.0>
3.49807

>  <SCORE.INTRA.POLAR>
0

>  <SCORE.INTRA.POLAR.0>
0

>  <SCORE.INTRA.REPUL>
0

>  <SCORE.INTRA.REPUL.0>
0

>  <SCORE.INTRA.SOLV>
-0.163406

>  <SCORE.INTRA.SOLV.lig_0>
-73.062

>  <SCORE.INTRA.VDW>
0.126377

>  <SCORE.INTRA.VDW.0>
-1.83782

>  <SCORE.INTRA.norm>
-0.0331111

>  <SCORE.RESTR>
0

>  <SCORE.RESTR.CAVITY>
0

>  <SCORE.RESTR.norm>
0

>  <SCORE.SYSTEM>
0

>  <SCORE.SYSTEM.CONST>
0

>  <SCORE.SYSTEM.DIHEDRAL>
0

>  <SCORE.SYSTEM.SOLV>
0

>  <SCORE.SYSTEM.norm>
0

>  <SCORE.heavy>
22

>  <SCORE.norm>
-0.427136

>  <RMSD>
12.274

$$$$
ligand
 OpenBabel02271912143D
libRbt.so/2013.1/901 2013/11/27
 22 23  0  0  0  0  0  0  0  0999 V2000
  -33.2558    7.0898  -19.1228 N   0  0  0  0  0  0  0  0  0  0  0  0
  -32.5768    3.9300  -20.1267 C   0  0  1  0  0  0  0  0  0  0  0  0
  -32.5448    5.3477  -20.4569 O   0  0  0  0  0  0  0  0  0  0  0  0
  -35.3001    1.2989  -20.0669 P   0  0  1  0  0  0  0  0  0  0  0  0
  -32.3209    6.0823  -19.2426 C   0  0  2  0  0  0  0  0  0  0  0  0
  -34.7655    8.3990  -18.2758 N   0  0  0  0  0  0  0  0  0  0  0  0
  -31.9192    5.4989  -16.9635 O   0  0  0  0  0  0  0  0  0  0  0  0
  -32.6075    5.1149  -18.1596 C   0  0  2  0  0  0  0  0  0  0  0  0
  -35.6446   11.0173  -19.4289 N   0  0  0  0  0  0  0  0  0  0  0  0
  -30.7254    3.7678  -18.6983 O   0  0  0  0  0  0  0  0  0  0  0  0
  -32.1609    3.8410  -18.7099 C   0  0  2  0  0  0  0  0  0  0  0  0
  -34.4972    8.8198  -19.5214 C   0  0  0  0  0  0  0  0  0  0  0  0
  -32.9680    8.1151  -21.3458 N   0  0  0  0  0  0  0  0  0  0  0  0
  -33.9514    2.0986  -20.0763 O   0  0  0  0  0  0  0  0  0  0  0  0
  -33.9811    3.4684  -20.3138 C   0  0  0  0  0  0  0  0  0  0  0  0
  -36.0180    1.8210  -18.7698 O   0  0  0  0  0  0  0  0  0  0  0  0
  -33.9971    7.3201  -18.0329 C   0  0  0  0  0  0  0  0  0  0  0  0
  -35.2105   10.0076  -21.4234 O   0  0  0  0  0  0  0  0  0  0  0  0
  -35.1262    9.9704  -20.1959 C   0  0  0  0  0  0  0  0  0  0  0  0
  -33.5451    8.0021  -20.0602 C   0  0  0  0  0  0  0  0  0  0  0  0
  -36.0454    1.5560  -21.3342 O   0  5  0  0  0  0  0  0  0  0  0  0
  -35.0487   -0.1504  -20.1615 O   0  0  0  0  0  0  0  0  0  0  0  0
  1 17  1  0  0  0  0
  1 20  1  0  0  0  0
  2 15  1  1  0  0  0
  2  3  1  0  0  0  0
  2 11  1  0  0  0  0
  3  5  1  0  0  0  0
  4 16  1  1  0  0  0
  4 21  1  0  0  0  0
  4 22  2  0  0  0  0
  4 14  1  0  0  0  0
  5  1  1  1  0  0  0
  5  8  1  0  0  0  0
  6 17  2  0  0  0  0
  6 12  1  0  0  0  0
  8  7  1  1  0  0  0
  8 11  1  0  0  0  0
  9 19  1  0  0  0  0
 11 10  1  6  0  0  0
 12 20  2  0  0  0  0
 12 19  1  0  0  0  0
 13 20  1  0  0  0  0
 14 15  1  0  0  0  0
 18 19  2  0  0  0  0
M  CHG  1  21  -1
M  END
>  <CHROM.1>
129.93462699,176.15763031,-68.87267910,174.77675753,25.88979631,-33.91443277
5.19415270,-19.61039852,-1.52479415,0.48744330,-3.14128701

>  <Name>
ligand

>  <RI>
0

>  <Rbt.Current_Directory>
/home/itssahil/PROJECTS/Mol_Feturizer/Test_systems_manuscript/rnas/4xwf

>  <Rbt.Executable>
rbdock ($Id: //depot/dev/client3/rdock/2013.1/src/exe/rbdock.cxx#4 $)

>  <Rbt.Library>
libRbt.so (2013.1, Build901 2013/11/27)

>  <Rbt.Parameter_File>
/export/apps/rDock/src/rDock_2013.1_src/data/scripts/dock_solv.prm

>  <Rbt.Receptor>
prm/blind_docking_60.prm

>  <SCORE>
-10.9258

>  <SCORE.INTER>
-12.3813

>  <SCORE.INTER.CONST>
1

>  <SCORE.INTER.POLAR>
0

>  <SCORE.INTER.ROT>
5

>  <SCORE.INTER.SOLV>
14.5756

>  <SCORE.INTER.VDW>
-20.0461

>  <SCORE.INTER.norm>
-0.562786

>  <SCORE.INTRA>
1.45544

>  <SCORE.INTRA.DIHEDRAL>
-0.98601

>  <SCORE.INTRA.DIHEDRAL.0>
3.49807

>  <SCORE.INTRA.POLAR>
0

>  <SCORE.INTRA.POLAR.0>
0

>  <SCORE.INTRA.REPUL>
0

>  <SCORE.INTRA.REPUL.0>
0

>  <SCORE.INTRA.SOLV>
-0.172959

>  <SCORE.INTRA.SOLV.lig_0>
-73.062

>  <SCORE.INTRA.VDW>
2.03493

>  <SCORE.INTRA.VDW.0>
-1.83782

>  <SCORE.INTRA.norm>
0.0661564

>  <SCORE.RESTR>
0

>  <SCORE.RESTR.CAVITY>
0

>  <SCORE.RESTR.norm>
0

>  <SCORE.SYSTEM>
0

>  <SCORE.SYSTEM.CONST>
0

>  <SCORE.SYSTEM.DIHEDRAL>
0

>  <SCORE.SYSTEM.SOLV>
0

>  <SCORE.SYSTEM.norm>
0

>  <SCORE.heavy>
22

>  <SCORE.norm>
-0.496629

>  <RMSD>
12.335

$$$$
ligand
 OpenBabel02271912143D
libRbt.so/2013.1/901 2013/11/27
 22 23  0  0  0  0  0  0  0  0999 V2000
  -33.3046    7.0425  -19.7406 N   0  0  0  0  0  0  0  0  0  0  0  0
  -32.3876    3.7858  -19.8176 C   0  0  1  0  0  0  0  0  0  0  0  0
  -32.3732    5.0730  -20.4979 O   0  0  0  0  0  0  0  0  0  0  0  0
  -34.9112    0.9683  -19.6098 P   0  0  1  0  0  0  0  0  0  0  0  0
  -32.3230    6.1039  -19.4983 C   0  0  2  0  0  0  0  0  0  0  0  0
  -35.2516    7.9282  -20.1094 N   0  0  0  0  0  0  0  0  0  0  0  0
  -32.1696    6.1435  -17.1170 O   0  0  0  0  0  0  0  0  0  0  0  0
  -32.6965    5.4239  -18.2378 C   0  0  2  0  0  0  0  0  0  0  0  0
  -33.9400   11.1114  -21.1069 N   0  0  0  0  0  0  0  0  0  0  0  0
  -30.7122    4.1166  -18.2120 O   0  0  0  0  0  0  0  0  0  0  0  0
  -32.1382    4.0860  -18.3907 C   0  0  2  0  0  0  0  0  0  0  0  0
  -34.3505    8.9187  -20.0217 C   0  0  0  0  0  0  0  0  0  0  0  0
  -31.9075    9.0687  -19.6064 N   0  0  0  0  0  0  0  0  0  0  0  0
  -33.6301    1.8725  -19.6143 O   0  0  0  0  0  0  0  0  0  0  0  0
  -33.7407    3.1969  -20.0234 C   0  0  0  0  0  0  0  0  0  0  0  0
  -35.7540    1.5459  -18.4154 O   0  0  0  0  0  0  0  0  0  0  0  0
  -34.5979    6.7630  -19.9404 C   0  0  0  0  0  0  0  0  0  0  0  0
  -35.4729   10.9022  -19.4359 O   0  0  0  0  0  0  0  0  0  0  0  0
  -34.6377   10.3586  -20.1584 C   0  0  0  0  0  0  0  0  0  0  0  0
  -33.1226    8.3689  -19.7865 C   0  0  0  0  0  0  0  0  0  0  0  0
  -35.5856    1.0461  -20.9391 O   0  5  0  0  0  0  0  0  0  0  0  0
  -34.5438   -0.4578  -19.5485 O   0  0  0  0  0  0  0  0  0  0  0  0
  1 17  1  0  0  0  0
  1 20  1  0  0  0  0
  2 15  1  1  0  0  0
  2  3  1  0  0  0  0
  2 11  1  0  0  0  0
  3  5  1  0  0  0  0
  4 16  1  1  0  0  0
  4 21  1  0  0  0  0
  4 22  2  0  0  0  0
  4 14  1  0  0  0  0
  5  1  1  6  0  0  0
  5  8  1  0  0  0  0
  6 17  2  0  0  0  0
  6 12  1  0  0  0  0
  8  7  1  1  0  0  0
  8 11  1  0  0  0  0
  9 19  1  0  0  0  0
 11 10  1  6  0  0  0
 12 20  2  0  0  0  0
 12 19  1  0  0  0  0
 13 20  1  0  0  0  0
 14 15  1  0  0  0  0
 18 19  2  0  0  0  0
M  CHG  1  21  -1
M  END
>  <CHROM.1>
51.26258274,167.80686535,-70.81449870,176.10237503,-124.59173582,-33.69183173
5.21623445,-19.52208680,-1.50579305,0.39554515,3.07392078

>  <Name>
ligand

>  <RI>
0

>  <Rbt.Current_Directory>
/home/itssahil/PROJECTS/Mol_Feturizer/Test_systems_manuscript/rnas/4xwf

>  <Rbt.Executable>
rbdock ($Id: //depot/dev/client3/rdock/2013.1/src/exe/rbdock.cxx#4 $)

>  <Rbt.Library>
libRbt.so (2013.1, Build901 2013/11/27)

>  <Rbt.Parameter_File>
/export/apps/rDock/src/rDock_2013.1_src/data/scripts/dock_solv.prm

>  <Rbt.Receptor>
prm/blind_docking_100.prm

>  <SCORE>
-10.9424

>  <SCORE.INTER>
-9.96447

>  <SCORE.INTER.CONST>
1

>  <SCORE.INTER.POLAR>
0

>  <SCORE.INTER.ROT>
5

>  <SCORE.INTER.SOLV>
17.3213

>  <SCORE.INTER.VDW>
-19.3501

>  <SCORE.INTER.norm>
-0.452931

>  <SCORE.INTRA>
-0.977951

>  <SCORE.INTRA.DIHEDRAL>
-1.18561

>  <SCORE.INTRA.DIHEDRAL.0>
3.49807

>  <SCORE.INTRA.POLAR>
0

>  <SCORE.INTRA.POLAR.0>
0

>  <SCORE.INTRA.REPUL>
0

>  <SCORE.INTRA.REPUL.0>
0

>  <SCORE.INTRA.SOLV>
-0.472312

>  <SCORE.INTRA.SOLV.lig_0>
-73.062

>  <SCORE.INTRA.VDW>
-0.14899

>  <SCORE.INTRA.VDW.0>
-1.83782

>  <SCORE.INTRA.norm>
-0.0444523

>  <SCORE.RESTR>
0

>  <SCORE.RESTR.CAVITY>
0

>  <SCORE.RESTR.norm>
0

>  <SCORE.SYSTEM>
0

>  <SCORE.SYSTEM.CONST>
0

>  <SCORE.SYSTEM.DIHEDRAL>
0

>  <SCORE.SYSTEM.SOLV>
0

>  <SCORE.SYSTEM.norm>
0

>  <SCORE.heavy>
22

>  <SCORE.norm>
-0.497383

>  <RMSD>
12.338

$$$$
ligand
 OpenBabel02271912143D
libRbt.so/2013.1/901 2013/11/27
 22 23  0  0  0  0  0  0  0  0999 V2000
  -32.9845    7.4180  -19.5007 N   0  0  0  0  0  0  0  0  0  0  0  0
  -32.1811    4.1352  -19.6748 C   0  0  1  0  0  0  0  0  0  0  0  0
  -32.0048    5.4652  -20.2402 O   0  0  0  0  0  0  0  0  0  0  0  0
  -34.8196    1.4471  -20.0640 P   0  0  1  0  0  0  0  0  0  0  0  0
  -32.0925    6.4191  -19.1693 C   0  0  2  0  0  0  0  0  0  0  0  0
  -34.8479    8.4544  -19.9064 N   0  0  0  0  0  0  0  0  0  0  0  0
  -32.3516    6.2824  -16.8008 O   0  0  0  0  0  0  0  0  0  0  0  0
  -32.7015    5.6699  -18.0474 C   0  0  2  0  0  0  0  0  0  0  0  0
  -33.2837   11.3004  -21.4176 N   0  0  0  0  0  0  0  0  0  0  0  0
  -30.7978    4.2714  -17.7873 O   0  0  0  0  0  0  0  0  0  0  0  0
  -32.1717    4.3212  -18.2072 C   0  0  2  0  0  0  0  0  0  0  0  0
  -33.8455    9.3412  -20.0033 C   0  0  0  0  0  0  0  0  0  0  0  0
  -31.3796    9.2754  -19.7237 N   0  0  0  0  0  0  0  0  0  0  0  0
  -33.6015    2.3387  -19.6399 O   0  0  0  0  0  0  0  0  0  0  0  0
  -33.4978    3.6271  -20.1525 C   0  0  0  0  0  0  0  0  0  0  0  0
  -34.4802    1.0582  -21.5486 O   0  0  0  0  0  0  0  0  0  0  0  0
  -34.3094    7.2587  -19.6001 C   0  0  0  0  0  0  0  0  0  0  0  0
  -34.7127   11.5010  -19.6559 O   0  0  0  0  0  0  0  0  0  0  0  0
  -33.9898   10.7711  -20.3339 C   0  0  0  0  0  0  0  0  0  0  0  0
  -32.6692    8.6967  -19.7461 C   0  0  0  0  0  0  0  0  0  0  0  0
  -34.9422    0.2877  -19.1320 O   0  5  0  0  0  0  0  0  0  0  0  0
  -36.0915    2.1528  -19.8257 O   0  0  0  0  0  0  0  0  0  0  0  0
  1 17  1  0  0  0  0
  1 20  1  0  0  0  0
  2 15  1  6  0  0  0
  2  3  1  0  0  0  0
  2 11  1  0  0  0  0
  3  5  1  0  0  0  0
  4 16  1  6  0  0  0
  4 21  1  0  0  0  0
  4 22  2  0  0  0  0
  4 14  1  0  0  0  0
  5  1  1  6  0  0  0
  5  8  1  0  0  0  0
  6 17  2  0  0  0  0
  6 12  1  0  0  0  0
  8  7  1  1  0  0  0
  8 11  1  0  0  0  0
  9 19  1  0  0  0  0
 11 10  1  6  0  0  0
 12 20  2  0  0  0  0
 12 19  1  0  0  0  0
 13 20  1  0  0  0  0
 14 15  1  0  0  0  0
 18 19  2  0  0  0  0
M  CHG  1  21  -1
M  END
>  <CHROM.1>
69.58870003,177.52056811,73.21725964,-174.21900255,-124.12358753,-33.44556354
5.59210630,-19.56943513,-1.43579439,0.58257746,3.05479622

>  <Name>
ligand

>  <RI>
0

>  <Rbt.Current_Directory>
/home/itssahil/PROJECTS/Mol_Feturizer/Test_systems_manuscript/rnas/4xwf

>  <Rbt.Executable>
rbdock ($Id: //depot/dev/client3/rdock/2013.1/src/exe/rbdock.cxx#4 $)

>  <Rbt.Library>
libRbt.so (2013.1, Build901 2013/11/27)

>  <Rbt.Parameter_File>
/export/apps/rDock/src/rDock_2013.1_src/data/scripts/dock_solv.prm

>  <Rbt.Receptor>
prm/blind_docking_100.prm

>  <SCORE>
-11.4771

>  <SCORE.INTER>
-10.7575

>  <SCORE.INTER.CONST>
1

>  <SCORE.INTER.POLAR>
0

>  <SCORE.INTER.ROT>
5

>  <SCORE.INTER.SOLV>
16.6744

>  <SCORE.INTER.VDW>
-19.6632

>  <SCORE.INTER.norm>
-0.488978

>  <SCORE.INTRA>
-0.719557

>  <SCORE.INTRA.DIHEDRAL>
-1.53791

>  <SCORE.INTRA.DIHEDRAL.0>
3.49807

>  <SCORE.INTRA.POLAR>
0

>  <SCORE.INTRA.POLAR.0>
0

>  <SCORE.INTRA.REPUL>
0

>  <SCORE.INTRA.REPUL.0>
0

>  <SCORE.INTRA.SOLV>
-0.911711

>  <SCORE.INTRA.SOLV.lig_0>
-73.062

>  <SCORE.INTRA.VDW>
0.505251

>  <SCORE.INTRA.VDW.0>
-1.83782

>  <SCORE.INTRA.norm>
-0.0327071

>  <SCORE.RESTR>
0

>  <SCORE.RESTR.CAVITY>
0

>  <SCORE.RESTR.norm>
0

>  <SCORE.SYSTEM>
0

>  <SCORE.SYSTEM.CONST>
0

>  <SCORE.SYSTEM.DIHEDRAL>
0

>  <SCORE.SYSTEM.SOLV>
0

>  <SCORE.SYSTEM.norm>
0

>  <SCORE.heavy>
22

>  <SCORE.norm>
-0.521685

>  <RMSD>
12.339

$$$$
ligand
 OpenBabel02271912143D
libRbt.so/2013.1/901 2013/11/27
 22 23  0  0  0  0  0  0  0  0999 V2000
  -32.9896    7.4038  -19.5215 N   0  0  0  0  0  0  0  0  0  0  0  0
  -32.2218    4.1117  -19.6784 C   0  0  1  0  0  0  0  0  0  0  0  0
  -32.0478    5.4335  -20.2635 O   0  0  0  0  0  0  0  0  0  0  0  0
  -34.8739    1.4304  -20.0009 P   0  0  1  0  0  0  0  0  0  0  0  0
  -32.0987    6.4002  -19.2018 C   0  0  2  0  0  0  0  0  0  0  0  0
  -34.8523    8.4490  -19.9075 N   0  0  0  0  0  0  0  0  0  0  0  0
  -32.2975    6.2927  -16.8259 O   0  0  0  0  0  0  0  0  0  0  0  0
  -32.6853    5.6696  -18.0559 C   0  0  2  0  0  0  0  0  0  0  0  0
  -33.2426   11.3094  -21.3796 N   0  0  0  0  0  0  0  0  0  0  0  0
  -30.7888    4.2558  -17.8290 O   0  0  0  0  0  0  0  0  0  0  0  0
  -32.1725    4.3141  -18.2139 C   0  0  2  0  0  0  0  0  0  0  0  0
  -33.8474    9.3325  -20.0084 C   0  0  0  0  0  0  0  0  0  0  0  0
  -31.3796    9.2564  -19.7488 N   0  0  0  0  0  0  0  0  0  0  0  0
  -33.6560    2.3281  -19.5892 O   0  0  0  0  0  0  0  0  0  0  0  0
  -33.5551    3.6111  -20.1161 C   0  0  0  0  0  0  0  0  0  0  0  0
  -34.5439    1.0367  -21.4863 O   0  0  0  0  0  0  0  0  0  0  0  0
  -34.3158    7.2499  -19.6109 C   0  0  0  0  0  0  0  0  0  0  0  0
  -34.7453   11.4823  -19.6774 O   0  0  0  0  0  0  0  0  0  0  0  0
  -33.9890   10.7644  -20.3314 C   0  0  0  0  0  0  0  0  0  0  0  0
  -32.6715    8.6825  -19.7636 C   0  0  0  0  0  0  0  0  0  0  0  0
  -34.9855    0.2744  -19.0633 O   0  5  0  0  0  0  0  0  0  0  0  0
  -36.1467    2.1325  -19.7561 O   0  0  0  0  0  0  0  0  0  0  0  0
  1 17  1  0  0  0  0
  1 20  1  0  0  0  0
  2 15  1  1  0  0  0
  2  3  1  0  0  0  0
  2 11  1  0  0  0  0
  3  5  1  0  0  0  0
  4 16  1  6  0  0  0
  4 21  1  0  0  0  0
  4 22  2  0  0  0  0
  4 14  1  0  0  0  0
  5  1  1  6  0  0  0
  5  8  1  0  0  0  0
  6 17  2  0  0  0  0
  6 12  1  0  0  0  0
  8  7  1  1  0  0  0
  8 11  1  0  0  0  0
  9 19  1  0  0  0  0
 11 10  1  6  0  0  0
 12 20  2  0  0  0  0
 12 19  1  0  0  0  0
 13 20  1  0  0  0  0
 14 15  1  0  0  0  0
 18 19  2  0  0  0  0
M  CHG  1  21  -1
M  END
>  <CHROM.1>
68.17578173,177.36303802,72.71263412,-172.69548654,-127.06306765,-33.46450557
5.57932968,-19.55867807,-1.43001051,0.55632079,3.04755755

>  <Name>
ligand

>  <RI>
0

>  <Rbt.Current_Directory>
/home/itssahil/PROJECTS/Mol_Feturizer/Test_systems_manuscript/rnas/4xwf

>  <Rbt.Executable>
rbdock ($Id: //depot/dev/client3/rdock/2013.1/src/exe/rbdock.cxx#4 $)

>  <Rbt.Library>
libRbt.so (2013.1, Build901 2013/11/27)

>  <Rbt.Parameter_File>
/export/apps/rDock/src/rDock_2013.1_src/data/scripts/dock_solv.prm

>  <Rbt.Receptor>
prm/blind_docking_100.prm

>  <SCORE>
-11.4498

>  <SCORE.INTER>
-10.7635

>  <SCORE.INTER.CONST>
1

>  <SCORE.INTER.POLAR>
0

>  <SCORE.INTER.ROT>
5

>  <SCORE.INTER.SOLV>
16.7149

>  <SCORE.INTER.VDW>
-19.6807

>  <SCORE.INTER.norm>
-0.489252

>  <SCORE.INTRA>
-0.686258

>  <SCORE.INTRA.DIHEDRAL>
-1.42596

>  <SCORE.INTRA.DIHEDRAL.0>
3.49807

>  <SCORE.INTRA.POLAR>
0

>  <SCORE.INTRA.POLAR.0>
0

>  <SCORE.INTRA.REPUL>
0

>  <SCORE.INTRA.REPUL.0>
0

>  <SCORE.INTRA.SOLV>
-0.878602

>  <SCORE.INTRA.SOLV.lig_0>
-73.062

>  <SCORE.INTRA.VDW>
0.466021

>  <SCORE.INTRA.VDW.0>
-1.83782

>  <SCORE.INTRA.norm>
-0.0311935

>  <SCORE.RESTR>
0

>  <SCORE.RESTR.CAVITY>
0

>  <SCORE.RESTR.norm>
0

>  <SCORE.SYSTEM>
0

>  <SCORE.SYSTEM.CONST>
0

>  <SCORE.SYSTEM.DIHEDRAL>
0

>  <SCORE.SYSTEM.SOLV>
0

>  <SCORE.SYSTEM.norm>
0

>  <SCORE.heavy>
22

>  <SCORE.norm>
-0.520445

>  <RMSD>
12.343

$$$$
ligand
 OpenBabel02271912143D
libRbt.so/2013.1/901 2013/11/27
 22 23  0  0  0  0  0  0  0  0999 V2000
  -33.9794   -5.6157  -14.4989 N   0  0  0  0  0  0  0  0  0  0  0  0
  -34.9658   -2.5720  -15.6012 C   0  0  1  0  0  0  0  0  0  0  0  0
  -33.8776   -3.3853  -15.0775 O   0  0  0  0  0  0  0  0  0  0  0  0
  -35.6041   -0.9906  -12.2174 P   0  0  1  0  0  0  0  0  0  0  0  0
  -34.0580   -4.7291  -15.5529 C   0  0  2  0  0  0  0  0  0  0  0  0
  -33.8299   -6.3945  -12.4784 N   0  0  0  0  0  0  0  0  0  0  0  0
  -35.6103   -5.8145  -17.0050 O   0  0  0  0  0  0  0  0  0  0  0  0
  -35.4574   -4.7734  -16.0331 C   0  0  2  0  0  0  0  0  0  0  0  0
  -32.9283   -9.6845  -13.2630 N   0  0  0  0  0  0  0  0  0  0  0  0
  -35.0156   -3.2862  -17.8332 O   0  0  0  0  0  0  0  0  0  0  0  0
  -35.6798   -3.4353  -16.5672 C   0  0  2  0  0  0  0  0  0  0  0  0
  -33.9664   -7.4321  -13.3184 C   0  0  0  0  0  0  0  0  0  0  0  0
  -34.2414   -7.7114  -15.7699 N   0  0  0  0  0  0  0  0  0  0  0  0
  -35.0099   -1.5102  -13.5722 O   0  0  0  0  0  0  0  0  0  0  0  0
  -35.8352   -2.2081  -14.4472 C   0  0  0  0  0  0  0  0  0  0  0  0
  -36.7738   -0.0466  -12.6770 O   0  0  0  0  0  0  0  0  0  0  0  0
  -33.8322   -5.2674  -13.2153 C   0  0  0  0  0  0  0  0  0  0  0  0
  -34.9744   -9.3166  -12.3336 O   0  0  0  0  0  0  0  0  0  0  0  0
  -34.0025   -8.8545  -12.9311 C   0  0  0  0  0  0  0  0  0  0  0  0
  -34.0641   -6.9495  -14.5923 C   0  0  0  0  0  0  0  0  0  0  0  0
  -36.0348   -2.1491  -11.3806 O   0  5  0  0  0  0  0  0  0  0  0  0
  -34.5484   -0.3965  -11.3777 O   0  0  0  0  0  0  0  0  0  0  0  0
  1 17  1  0  0  0  0
  1 20  1  0  0  0  0
  2 15  1  1  0  0  0
  2  3  1  0  0  0  0
  2 11  1  0  0  0  0
  3  5  1  0  0  0  0
  4 16  1  6  0  0  0
  4 21  1  0  0  0  0
  4 22  2  0  0  0  0
  4 14  1  0  0  0  0
  5  1  1  1  0  0  0
  5  8  1  0  0  0  0
  6 17  2  0  0  0  0
  6 12  1  0  0  0  0
  8  7  1  6  0  0  0
  8 11  1  0  0  0  0
  9 19  1  0  0  0  0
 11 10  1  6  0  0  0
 12 20  2  0  0  0  0
 12 19  1  0  0  0  0
 13 20  1  0  0  0  0
 14 15  1  0  0  0  0
 18 19  2  0  0  0  0
M  CHG  1  21  -1
M  END
>  <CHROM.1>
3.46851633,59.57048718,-59.26968796,-178.97001776,-110.07435640,-34.82393289
-4.35153971,-14.05142932,0.34835079,1.34532608,-1.77942282

>  <Name>
ligand

>  <RI>
0

>  <Rbt.Current_Directory>
/home/itssahil/PROJECTS/Mol_Feturizer/Test_systems_manuscript/rnas/4xwf

>  <Rbt.Executable>
rbdock ($Id: //depot/dev/client3/rdock/2013.1/src/exe/rbdock.cxx#4 $)

>  <Rbt.Library>
libRbt.so (2013.1, Build901 2013/11/27)

>  <Rbt.Parameter_File>
/export/apps/rDock/src/rDock_2013.1_src/data/scripts/dock_solv.prm

>  <Rbt.Receptor>
prm/blind_docking_40.prm

>  <SCORE>
-8.52448

>  <SCORE.INTER>
-8.29904

>  <SCORE.INTER.CONST>
1

>  <SCORE.INTER.POLAR>
0

>  <SCORE.INTER.ROT>
5

>  <SCORE.INTER.SOLV>
18.3186

>  <SCORE.INTER.VDW>
-18.5722

>  <SCORE.INTER.norm>
-0.377229

>  <SCORE.INTRA>
-0.243561

>  <SCORE.INTRA.DIHEDRAL>
-1.85828

>  <SCORE.INTRA.DIHEDRAL.0>
3.49807

>  <SCORE.INTRA.POLAR>
0

>  <SCORE.INTRA.POLAR.0>
0

>  <SCORE.INTRA.REPUL>
0

>  <SCORE.INTRA.REPUL.0>
0

>  <SCORE.INTRA.SOLV>
1.09067

>  <SCORE.INTRA.SOLV.lig_0>
-73.062

>  <SCORE.INTRA.VDW>
0.140241

>  <SCORE.INTRA.VDW.0>
-1.83782

>  <SCORE.INTRA.norm>
-0.011071

>  <SCORE.RESTR>
0.0181227

>  <SCORE.RESTR.CAVITY>
0.0181227

>  <SCORE.RESTR.norm>
0.00082376

>  <SCORE.SYSTEM>
0

>  <SCORE.SYSTEM.CONST>
0

>  <SCORE.SYSTEM.DIHEDRAL>
0

>  <SCORE.SYSTEM.SOLV>
0

>  <SCORE.SYSTEM.norm>
0

>  <SCORE.heavy>
22

>  <SCORE.norm>
-0.387476

>  <RMSD>
12.343

$$$$
ligand
 OpenBabel02271912143D
libRbt.so/2013.1/901 2013/11/27
 22 23  0  0  0  0  0  0  0  0999 V2000
  -33.9818   -5.6341  -14.4871 N   0  0  0  0  0  0  0  0  0  0  0  0
  -34.9421   -2.5864  -15.6014 C   0  0  1  0  0  0  0  0  0  0  0  0
  -33.8630   -3.4049  -15.0672 O   0  0  0  0  0  0  0  0  0  0  0  0
  -35.5942   -1.0299  -12.2086 P   0  0  1  0  0  0  0  0  0  0  0  0
  -34.0464   -4.7483  -15.5427 C   0  0  2  0  0  0  0  0  0  0  0  0
  -33.8683   -6.4115  -12.4638 N   0  0  0  0  0  0  0  0  0  0  0  0
  -35.5915   -5.8269  -17.0074 O   0  0  0  0  0  0  0  0  0  0  0  0
  -35.4417   -4.7856  -16.0353 C   0  0  2  0  0  0  0  0  0  0  0  0
  -32.9136   -9.6900  -13.2179 N   0  0  0  0  0  0  0  0  0  0  0  0
  -34.9759   -3.3028  -17.8330 O   0  0  0  0  0  0  0  0  0  0  0  0
  -35.6522   -3.4469  -16.5727 C   0  0  2  0  0  0  0  0  0  0  0  0
  -33.9768   -7.4503  -13.3063 C   0  0  0  0  0  0  0  0  0  0  0  0
  -34.1966   -7.7321  -15.7631 N   0  0  0  0  0  0  0  0  0  0  0  0
  -34.9859   -1.5721  -13.5482 O   0  0  0  0  0  0  0  0  0  0  0  0
  -35.8197   -2.2166  -14.4555 C   0  0  0  0  0  0  0  0  0  0  0  0
  -36.7764   -0.1156  -12.6952 O   0  0  0  0  0  0  0  0  0  0  0  0
  -33.8655   -5.2844  -13.2008 C   0  0  0  0  0  0  0  0  0  0  0  0
  -34.9917   -9.3468  -12.3521 O   0  0  0  0  0  0  0  0  0  0  0  0
  -34.0075   -8.8730  -12.9196 C   0  0  0  0  0  0  0  0  0  0  0  0
  -34.0518   -6.9686  -14.5821 C   0  0  0  0  0  0  0  0  0  0  0  0
  -36.0104   -2.1749  -11.3462 O   0  5  0  0  0  0  0  0  0  0  0  0
  -34.5516   -0.3996  -11.3789 O   0  0  0  0  0  0  0  0  0  0  0  0
  1 17  1  0  0  0  0
  1 20  1  0  0  0  0
  2 15  1  1  0  0  0
  2  3  1  0  0  0  0
  2 11  1  0  0  0  0
  3  5  1  0  0  0  0
  4 16  1  6  0  0  0
  4 21  1  0  0  0  0
  4 22  2  0  0  0  0
  4 14  1  0  0  0  0
  5  1  1  1  0  0  0
  5  8  1  0  0  0  0
  6 17  2  0  0  0  0
  6 12  1  0  0  0  0
  8  7  1  6  0  0  0
  8 11  1  0  0  0  0
  9 19  1  0  0  0  0
 11 10  1  6  0  0  0
 12 20  2  0  0  0  0
 12 19  1  0  0  0  0
 13 20  1  0  0  0  0
 14 15  1  0  0  0  0
 18 19  2  0  0  0  0
M  CHG  1  21  -1
M  END
>  <CHROM.1>
4.58792410,57.10832658,-54.51207865,179.49673590,-109.51544795,-34.81498274
-4.37475516,-14.04438889,0.32015247,1.34870676,-1.75141979

>  <Name>
ligand

>  <RI>
0

>  <Rbt.Current_Directory>
/home/itssahil/PROJECTS/Mol_Feturizer/Test_systems_manuscript/rnas/4xwf

>  <Rbt.Executable>
rbdock ($Id: //depot/dev/client3/rdock/2013.1/src/exe/rbdock.cxx#4 $)

>  <Rbt.Library>
libRbt.so (2013.1, Build901 2013/11/27)

>  <Rbt.Parameter_File>
/export/apps/rDock/src/rDock_2013.1_src/data/scripts/dock_solv.prm

>  <Rbt.Receptor>
prm/blind_docking_40.prm

>  <SCORE>
-8.46455

>  <SCORE.INTER>
-8.22054

>  <SCORE.INTER.CONST>
1

>  <SCORE.INTER.POLAR>
0

>  <SCORE.INTER.ROT>
5

>  <SCORE.INTER.SOLV>
18.4743

>  <SCORE.INTER.VDW>
-18.5718

>  <SCORE.INTER.norm>
-0.373661

>  <SCORE.INTRA>
-0.245278

>  <SCORE.INTRA.DIHEDRAL>
-1.79852

>  <SCORE.INTRA.DIHEDRAL.0>
3.49807

>  <SCORE.INTRA.POLAR>
0

>  <SCORE.INTRA.POLAR.0>
0

>  <SCORE.INTRA.REPUL>
0

>  <SCORE.INTRA.REPUL.0>
0

>  <SCORE.INTRA.SOLV>
0.994835

>  <SCORE.INTRA.SOLV.lig_0>
-73.062

>  <SCORE.INTRA.VDW>
0.156562

>  <SCORE.INTRA.VDW.0>
-1.83782

>  <SCORE.INTRA.norm>
-0.011149

>  <SCORE.RESTR>
0.00127102

>  <SCORE.RESTR.CAVITY>
0.00127102

>  <SCORE.RESTR.norm>
5.77735e-05

>  <SCORE.SYSTEM>
0

>  <SCORE.SYSTEM.CONST>
0

>  <SCORE.SYSTEM.DIHEDRAL>
0

>  <SCORE.SYSTEM.SOLV>
0

>  <SCORE.SYSTEM.norm>
0

>  <SCORE.heavy>
22

>  <SCORE.norm>
-0.384752

>  <RMSD>
12.350

$$$$
ligand
 OpenBabel02271912143D
libRbt.so/2013.1/901 2013/11/27
 22 23  0  0  0  0  0  0  0  0999 V2000
  -33.1179    7.1933  -19.6334 N   0  0  0  0  0  0  0  0  0  0  0  0
  -32.3083    3.9265  -19.9872 C   0  0  1  0  0  0  0  0  0  0  0  0
  -32.2290    5.2696  -20.5438 O   0  0  0  0  0  0  0  0  0  0  0  0
  -34.9472    1.2138  -20.0268 P   0  0  1  0  0  0  0  0  0  0  0  0
  -32.1765    6.2014  -19.4515 C   0  0  2  0  0  0  0  0  0  0  0  0
  -35.0343    8.1962  -19.8149 N   0  0  0  0  0  0  0  0  0  0  0  0
  -32.0983    6.0158  -17.0734 O   0  0  0  0  0  0  0  0  0  0  0  0
  -32.6127    5.4221  -18.2711 C   0  0  2  0  0  0  0  0  0  0  0  0
  -35.4675   11.1556  -19.6843 N   0  0  0  0  0  0  0  0  0  0  0  0
  -30.6751    4.0469  -18.3101 O   0  0  0  0  0  0  0  0  0  0  0  0
  -32.0949    4.0846  -18.5320 C   0  0  2  0  0  0  0  0  0  0  0  0
  -34.0667    9.1208  -19.9117 C   0  0  0  0  0  0  0  0  0  0  0  0
  -31.5857    9.1151  -19.8200 N   0  0  0  0  0  0  0  0  0  0  0  0
  -33.7076    2.1302  -19.7399 O   0  0  0  0  0  0  0  0  0  0  0  0
  -33.6730    3.4086  -20.2861 C   0  0  0  0  0  0  0  0  0  0  0  0
  -34.7189    0.7561  -21.5131 O   0  0  0  0  0  0  0  0  0  0  0  0
  -34.4417    6.9985  -19.6481 C   0  0  0  0  0  0  0  0  0  0  0  0
  -33.4145   11.2527  -20.6649 O   0  0  0  0  0  0  0  0  0  0  0  0
  -34.2744   10.5669  -20.1123 C   0  0  0  0  0  0  0  0  0  0  0  0
  -32.8571    8.4973  -19.7953 C   0  0  0  0  0  0  0  0  0  0  0  0
  -34.9886    0.0996  -19.0345 O   0  5  0  0  0  0  0  0  0  0  0  0
  -36.2030    1.9242  -19.7252 O   0  0  0  0  0  0  0  0  0  0  0  0
  1 17  1  0  0  0  0
  1 20  1  0  0  0  0
  2 15  1  1  0  0  0
  2  3  1  0  0  0  0
  2 11  1  0  0  0  0
  3  5  1  0  0  0  0
  4 16  1  6  0  0  0
  4 21  1  0  0  0  0
  4 22  2  0  0  0  0
  4 14  1  0  0  0  0
  5  1  1  6  0  0  0
  5  8  1  0  0  0  0
  6 17  2  0  0  0  0
  6 12  1  0  0  0  0
  8  7  1  1  0  0  0
  8 11  1  0  0  0  0
  9 19  1  0  0  0  0
 11 10  1  6  0  0  0
 12 20  2  0  0  0  0
 12 19  1  0  0  0  0
 13 20  1  0  0  0  0
 14 15  1  0  0  0  0
 18 19  2  0  0  0  0
M  CHG  1  21  -1
M  END
>  <CHROM.1>
64.33548638,-179.97805984,75.15912476,-172.37338394,26.14145566,-33.56623566
5.36848624,-19.63702464,-1.46342100,0.39728048,3.10257671

>  <Name>
ligand

>  <RI>
0

>  <Rbt.Current_Directory>
/home/itssahil/PROJECTS/Mol_Feturizer/Test_systems_manuscript/rnas/4xwf

>  <Rbt.Executable>
rbdock ($Id: //depot/dev/client3/rdock/2013.1/src/exe/rbdock.cxx#4 $)

>  <Rbt.Library>
libRbt.so (2013.1, Build901 2013/11/27)

>  <Rbt.Parameter_File>
/export/apps/rDock/src/rDock_2013.1_src/data/scripts/dock_solv.prm

>  <Rbt.Receptor>
prm/blind_docking_100.prm

>  <SCORE>
-10.8868

>  <SCORE.INTER>
-10.4791

>  <SCORE.INTER.CONST>
1

>  <SCORE.INTER.POLAR>
0

>  <SCORE.INTER.ROT>
5

>  <SCORE.INTER.SOLV>
17.0619

>  <SCORE.INTER.VDW>
-19.6067

>  <SCORE.INTER.norm>
-0.476324

>  <SCORE.INTRA>
-0.407646

>  <SCORE.INTRA.DIHEDRAL>
-0.707146

>  <SCORE.INTRA.DIHEDRAL.0>
3.49807

>  <SCORE.INTRA.POLAR>
0

>  <SCORE.INTRA.POLAR.0>
0

>  <SCORE.INTRA.REPUL>
0

>  <SCORE.INTRA.REPUL.0>
0

>  <SCORE.INTRA.SOLV>
-0.983624

>  <SCORE.INTRA.SOLV.lig_0>
-73.062

>  <SCORE.INTRA.VDW>
0.43774

>  <SCORE.INTRA.VDW.0>
-1.83782

>  <SCORE.INTRA.norm>
-0.0185293

>  <SCORE.RESTR>
0

>  <SCORE.RESTR.CAVITY>
0

>  <SCORE.RESTR.norm>
0

>  <SCORE.SYSTEM>
0

>  <SCORE.SYSTEM.CONST>
0

>  <SCORE.SYSTEM.DIHEDRAL>
0

>  <SCORE.SYSTEM.SOLV>
0

>  <SCORE.SYSTEM.norm>
0

>  <SCORE.heavy>
22

>  <SCORE.norm>
-0.494853

>  <RMSD>
12.372

$$$$
ligand
 OpenBabel02271912143D
libRbt.so/2013.1/901 2013/11/27
 22 23  0  0  0  0  0  0  0  0999 V2000
  -35.6531    7.4912  -20.6932 N   0  0  0  0  0  0  0  0  0  0  0  0
  -32.3637    8.0602  -20.1377 C   0  0  1  0  0  0  0  0  0  0  0  0
  -33.3633    7.3749  -20.9446 O   0  0  0  0  0  0  0  0  0  0  0  0
  -31.7431    4.9121  -18.1219 P   0  0  1  0  0  0  0  0  0  0  0  0
  -34.5259    8.2157  -21.0212 C   0  0  2  0  0  0  0  0  0  0  0  0
  -37.0063    6.1704  -19.6277 N   0  0  0  0  0  0  0  0  0  0  0  0
  -35.0881   10.3985  -20.2368 O   0  0  0  0  0  0  0  0  0  0  0  0
  -34.3408    9.2124  -19.9427 C   0  0  2  0  0  0  0  0  0  0  0  0
  -39.7995    5.4877  -20.2788 N   0  0  0  0  0  0  0  0  0  0  0  0
  -32.4856   10.2247  -21.0292 O   0  0  0  0  0  0  0  0  0  0  0  0
  -32.8983    9.4208  -19.9113 C   0  0  2  0  0  0  0  0  0  0  0  0
  -37.6624    6.6816  -20.6807 C   0  0  0  0  0  0  0  0  0  0  0  0
  -37.1252    8.2723  -22.5094 N   0  0  0  0  0  0  0  0  0  0  0  0
  -31.9492    5.9958  -19.2362 O   0  0  0  0  0  0  0  0  0  0  0  0
  -32.2378    7.3032  -18.8605 C   0  0  0  0  0  0  0  0  0  0  0  0
  -31.6688    3.5697  -18.9360 O   0  0  0  0  0  0  0  0  0  0  0  0
  -35.7560    6.6704  -19.6414 C   0  0  0  0  0  0  0  0  0  0  0  0
  -39.5722    6.9199  -22.0346 O   0  0  0  0  0  0  0  0  0  0  0  0
  -39.0600    6.3892  -21.0492 C   0  0  0  0  0  0  0  0  0  0  0  0
  -36.8178    7.5167  -21.3548 C   0  0  0  0  0  0  0  0  0  0  0  0
  -30.5152    5.2284  -17.3345 O   0  5  0  0  0  0  0  0  0  0  0  0
  -32.7904    5.0180  -17.0901 O   0  0  0  0  0  0  0  0  0  0  0  0
  1 17  1  0  0  0  0
  1 20  1  0  0  0  0
  2 15  1  1  0  0  0
  2  3  1  0  0  0  0
  2 11  1  0  0  0  0
  3  5  1  0  0  0  0
  4 16  1  6  0  0  0
  4 21  1  0  0  0  0
  4 22  2  0  0  0  0
  4 14  1  0  0  0  0
  5  1  1  1  0  0  0
  5  8  1  0  0  0  0
  6 17  2  0  0  0  0
  6 12  1  0  0  0  0
  8  7  1  6  0  0  0
  8 11  1  0  0  0  0
  9 19  1  0  0  0  0
 11 10  1  6  0  0  0
 12 20  2  0  0  0  0
 12 19  1  0  0  0  0
 13 20  1  0  0  0  0
 14 15  1  0  0  0  0
 18 19  2  0  0  0  0
M  CHG  1  21  -1
M  END
>  <CHROM.1>
46.20261622,55.12183084,171.47886478,179.74910517,-1.27275724,-34.47976333
6.97628388,-19.89305781,-2.77689038,0.28870088,2.71982917

>  <Name>
ligand

>  <RI>
0

>  <Rbt.Current_Directory>
/home/itssahil/PROJECTS/Mol_Feturizer/Test_systems_manuscript/rnas/4xwf

>  <Rbt.Executable>
rbdock ($Id: //depot/dev/client3/rdock/2013.1/src/exe/rbdock.cxx#4 $)

>  <Rbt.Library>
libRbt.so (2013.1, Build901 2013/11/27)

>  <Rbt.Parameter_File>
/export/apps/rDock/src/rDock_2013.1_src/data/scripts/dock_solv.prm

>  <Rbt.Receptor>
prm/blind_docking_100.prm

>  <SCORE>
-8.641

>  <SCORE.INTER>
-7.70971

>  <SCORE.INTER.CONST>
1

>  <SCORE.INTER.POLAR>
0

>  <SCORE.INTER.ROT>
5

>  <SCORE.INTER.SOLV>
7.93067

>  <SCORE.INTER.VDW>
-14.7167

>  <SCORE.INTER.norm>
-0.350442

>  <SCORE.INTRA>
-0.93129

>  <SCORE.INTRA.DIHEDRAL>
-1.77827

>  <SCORE.INTRA.DIHEDRAL.0>
3.49807

>  <SCORE.INTRA.POLAR>
0

>  <SCORE.INTRA.POLAR.0>
0

>  <SCORE.INTRA.REPUL>
0

>  <SCORE.INTRA.REPUL.0>
0

>  <SCORE.INTRA.SOLV>
0.155291

>  <SCORE.INTRA.SOLV.lig_0>
-73.062

>  <SCORE.INTRA.VDW>
-0.119802

>  <SCORE.INTRA.VDW.0>
-1.83782

>  <SCORE.INTRA.norm>
-0.0423314

>  <SCORE.RESTR>
0

>  <SCORE.RESTR.CAVITY>
0

>  <SCORE.RESTR.norm>
0

>  <SCORE.SYSTEM>
0

>  <SCORE.SYSTEM.CONST>
0

>  <SCORE.SYSTEM.DIHEDRAL>
0

>  <SCORE.SYSTEM.SOLV>
0

>  <SCORE.SYSTEM.norm>
0

>  <SCORE.heavy>
22

>  <SCORE.norm>
-0.392773

>  <RMSD>
12.396

$$$$
ligand
 OpenBabel02271912143D
libRbt.so/2013.1/901 2013/11/27
 22 23  0  0  0  0  0  0  0  0999 V2000
  -33.6031    5.1404  -20.6342 N   0  0  0  0  0  0  0  0  0  0  0  0
  -34.9812    8.1639  -21.2762 C   0  0  1  0  0  0  0  0  0  0  0  0
  -33.9353    7.2060  -21.6053 O   0  0  0  0  0  0  0  0  0  0  0  0
  -34.3454   11.2489  -20.8522 P   0  0  1  0  0  0  0  0  0  0  0  0
  -34.4655    5.8846  -21.4124 C   0  0  2  0  0  0  0  0  0  0  0  0
  -32.2379    3.5745  -20.0058 N   0  0  0  0  0  0  0  0  0  0  0  0
  -36.5913    4.9888  -20.8005 O   0  0  0  0  0  0  0  0  0  0  0  0
  -35.6900    6.0849  -20.6054 C   0  0  2  0  0  0  0  0  0  0  0  0
  -32.3412    4.1650  -16.5554 N   0  0  0  0  0  0  0  0  0  0  0  0
  -36.8182    7.2049  -22.3718 O   0  0  0  0  0  0  0  0  0  0  0  0
  -36.2088    7.3622  -21.0794 C   0  0  2  0  0  0  0  0  0  0  0  0
  -32.3242    4.4769  -19.0165 C   0  0  0  0  0  0  0  0  0  0  0  0
  -33.5284    6.6191  -18.6635 N   0  0  0  0  0  0  0  0  0  0  0  0
  -33.7225    9.8759  -20.4214 O   0  0  0  0  0  0  0  0  0  0  0  0
  -34.5684    8.8482  -20.0187 C   0  0  0  0  0  0  0  0  0  0  0  0
  -35.5716   10.8243  -21.7391 O   0  0  0  0  0  0  0  0  0  0  0  0
  -33.0384    3.9862  -21.0074 C   0  0  0  0  0  0  0  0  0  0  0  0
  -30.3983    4.5802  -17.6684 O   0  0  0  0  0  0  0  0  0  0  0  0
  -31.6159    4.4091  -17.7248 C   0  0  0  0  0  0  0  0  0  0  0  0
  -33.1798    5.4677  -19.4060 C   0  0  0  0  0  0  0  0  0  0  0  0
  -34.7028   12.0412  -19.6388 O   0  5  0  0  0  0  0  0  0  0  0  0
  -33.3268   12.1112  -21.4780 O   0  0  0  0  0  0  0  0  0  0  0  0
  1 17  1  0  0  0  0
  1 20  1  0  0  0  0
  2 15  1  1  0  0  0
  2  3  1  0  0  0  0
  2 11  1  0  0  0  0
  3  5  1  0  0  0  0
  4 16  1  6  0  0  0
  4 21  1  0  0  0  0
  4 22  2  0  0  0  0
  4 14  1  0  0  0  0
  5  1  1  1  0  0  0
  5  8  1  0  0  0  0
  6 17  2  0  0  0  0
  6 12  1  0  0  0  0
  8  7  1  6  0  0  0
  8 11  1  0  0  0  0
  9 19  1  0  0  0  0
 11 10  1  6  0  0  0
 12 20  2  0  0  0  0
 12 19  1  0  0  0  0
 13 20  1  0  0  0  0
 14 15  1  0  0  0  0
 18 19  2  0  0  0  0
M  CHG  1  21  -1
M  END
>  <CHROM.1>
-121.68367796,84.17067114,-43.10962834,85.40306429,-110.34190695,-34.02153725
7.36817581,-20.25212861,1.16571206,0.67893156,3.08429583

>  <Name>
ligand

>  <RI>
0

>  <Rbt.Current_Directory>
/home/itssahil/PROJECTS/Mol_Feturizer/Test_systems_manuscript/rnas/4xwf

>  <Rbt.Executable>
rbdock ($Id: //depot/dev/client3/rdock/2013.1/src/exe/rbdock.cxx#4 $)

>  <Rbt.Library>
libRbt.so (2013.1, Build901 2013/11/27)

>  <Rbt.Parameter_File>
/export/apps/rDock/src/rDock_2013.1_src/data/scripts/dock_solv.prm

>  <Rbt.Receptor>
prm/blind_docking_80.prm

>  <SCORE>
-3.29501

>  <SCORE.INTER>
-8.03659

>  <SCORE.INTER.CONST>
1

>  <SCORE.INTER.POLAR>
0

>  <SCORE.INTER.ROT>
5

>  <SCORE.INTER.SOLV>
17.3821

>  <SCORE.INTER.VDW>
-18.0851

>  <SCORE.INTER.norm>
-0.3653

>  <SCORE.INTRA>
4.73987

>  <SCORE.INTRA.DIHEDRAL>
3.09124

>  <SCORE.INTRA.DIHEDRAL.0>
3.49807

>  <SCORE.INTRA.POLAR>
0

>  <SCORE.INTRA.POLAR.0>
0

>  <SCORE.INTRA.REPUL>
0

>  <SCORE.INTRA.REPUL.0>
0

>  <SCORE.INTRA.SOLV>
5.11996

>  <SCORE.INTRA.SOLV.lig_0>
-73.062

>  <SCORE.INTRA.VDW>
0.634275

>  <SCORE.INTRA.VDW.0>
-1.83782

>  <SCORE.INTRA.norm>
0.215449

>  <SCORE.RESTR>
0.00171252

>  <SCORE.RESTR.CAVITY>
0.00171252

>  <SCORE.RESTR.norm>
7.7842e-05

>  <SCORE.SYSTEM>
0

>  <SCORE.SYSTEM.CONST>
0

>  <SCORE.SYSTEM.DIHEDRAL>
0

>  <SCORE.SYSTEM.SOLV>
0

>  <SCORE.SYSTEM.norm>
0

>  <SCORE.heavy>
22

>  <SCORE.norm>
-0.149773

>  <RMSD>
12.439

$$$$
ligand
 OpenBabel02271912143D
libRbt.so/2013.1/901 2013/11/27
 22 23  0  0  0  0  0  0  0  0999 V2000
  -35.8376    1.1785  -20.2415 N   0  0  0  0  0  0  0  0  0  0  0  0
  -34.4865    3.6469  -22.1213 C   0  0  1  0  0  0  0  0  0  0  0  0
  -34.5302    2.2210  -21.8300 O   0  0  0  0  0  0  0  0  0  0  0  0
  -33.1587    6.6609  -20.2736 P   0  0  1  0  0  0  0  0  0  0  0  0
  -35.8678    1.8911  -21.4224 C   0  0  2  0  0  0  0  0  0  0  0  0
  -35.0940    0.2079  -18.4481 N   0  0  0  0  0  0  0  0  0  0  0  0
  -37.9212    3.0922  -21.2297 O   0  0  0  0  0  0  0  0  0  0  0  0
  -36.4975    3.1934  -21.1090 C   0  0  2  0  0  0  0  0  0  0  0  0
  -37.7611   -1.8559  -17.6973 N   0  0  0  0  0  0  0  0  0  0  0  0
  -36.4494    3.9009  -23.3771 O   0  0  0  0  0  0  0  0  0  0  0  0
  -35.8911    4.1079  -22.0688 C   0  0  2  0  0  0  0  0  0  0  0  0
  -36.4308    0.0931  -18.4630 C   0  0  0  0  0  0  0  0  0  0  0  0
  -38.2623    0.8279  -19.9695 N   0  0  0  0  0  0  0  0  0  0  0  0
  -33.6746    5.6453  -21.3511 O   0  0  0  0  0  0  0  0  0  0  0  0
  -33.6616    4.2861  -21.0578 C   0  0  0  0  0  0  0  0  0  0  0  0
  -31.6956    6.1650  -19.9842 O   0  0  0  0  0  0  0  0  0  0  0  0
  -34.7275    0.8776  -19.5576 C   0  0  0  0  0  0  0  0  0  0  0  0
  -37.4940   -0.0269  -16.3671 O   0  0  0  0  0  0  0  0  0  0  0  0
  -37.2486   -0.5818  -17.4381 C   0  0  0  0  0  0  0  0  0  0  0  0
  -36.9066    0.7045  -19.5878 C   0  0  0  0  0  0  0  0  0  0  0  0
  -33.2475    8.0509  -20.8102 O   0  5  0  0  0  0  0  0  0  0  0  0
  -34.0871    6.7262  -19.1306 O   0  0  0  0  0  0  0  0  0  0  0  0
  1 17  1  0  0  0  0
  1 20  1  0  0  0  0
  2 15  1  1  0  0  0
  2  3  1  0  0  0  0
  2 11  1  0  0  0  0
  3  5  1  0  0  0  0
  4 16  1  1  0  0  0
  4 21  1  0  0  0  0
  4 22  2  0  0  0  0
  4 14  1  0  0  0  0
  5  1  1  1  0  0  0
  5  8  1  0  0  0  0
  6 17  2  0  0  0  0
  6 12  1  0  0  0  0
  8  7  1  6  0  0  0
  8 11  1  0  0  0  0
  9 19  1  0  0  0  0
 11 10  1  6  0  0  0
 12 20  2  0  0  0  0
 12 19  1  0  0  0  0
 13 20  1  0  0  0  0
 14 15  1  0  0  0  0
 18 19  2  0  0  0  0
M  CHG  1  21  -1
M  END
>  <CHROM.1>
1.94951527,-178.45235667,56.75662545,167.21570046,-102.94364819,-35.32428227
3.11146328,-20.19920027,2.38709943,0.86231566,2.12379343

>  <Name>
ligand

>  <RI>
0

>  <Rbt.Current_Directory>
/home/itssahil/PROJECTS/Mol_Feturizer/Test_systems_manuscript/rnas/4xwf

>  <Rbt.Executable>
rbdock ($Id: //depot/dev/client3/rdock/2013.1/src/exe/rbdock.cxx#4 $)

>  <Rbt.Library>
libRbt.so (2013.1, Build901 2013/11/27)

>  <Rbt.Parameter_File>
/export/apps/rDock/src/rDock_2013.1_src/data/scripts/dock_solv.prm

>  <Rbt.Receptor>
prm/blind_docking_60.prm

>  <SCORE>
-9.62012

>  <SCORE.INTER>
-10.4109

>  <SCORE.INTER.CONST>
1

>  <SCORE.INTER.POLAR>
0

>  <SCORE.INTER.ROT>
5

>  <SCORE.INTER.SOLV>
16.0486

>  <SCORE.INTER.VDW>
-19.2234

>  <SCORE.INTER.norm>
-0.473221

>  <SCORE.INTRA>
0.790732

>  <SCORE.INTRA.DIHEDRAL>
-0.83565

>  <SCORE.INTRA.DIHEDRAL.0>
3.49807

>  <SCORE.INTRA.POLAR>
0

>  <SCORE.INTRA.POLAR.0>
0

>  <SCORE.INTRA.REPUL>
0

>  <SCORE.INTRA.REPUL.0>
0

>  <SCORE.INTRA.SOLV>
1.39519

>  <SCORE.INTRA.SOLV.lig_0>
-73.062

>  <SCORE.INTRA.VDW>
0.510962

>  <SCORE.INTRA.VDW.0>
-1.83782

>  <SCORE.INTRA.norm>
0.0359424

>  <SCORE.RESTR>
0

>  <SCORE.RESTR.CAVITY>
0

>  <SCORE.RESTR.norm>
0

>  <SCORE.SYSTEM>
0

>  <SCORE.SYSTEM.CONST>
0

>  <SCORE.SYSTEM.DIHEDRAL>
0

>  <SCORE.SYSTEM.SOLV>
0

>  <SCORE.SYSTEM.norm>
0

>  <SCORE.heavy>
22

>  <SCORE.norm>
-0.437278

>  <RMSD>
12.441

$$$$
ligand
 OpenBabel02271912143D
libRbt.so/2013.1/901 2013/11/27
 22 23  0  0  0  0  0  0  0  0999 V2000
  -32.3628    6.6737  -20.2790 N   0  0  0  0  0  0  0  0  0  0  0  0
  -32.2869    3.5476  -18.9851 C   0  0  1  0  0  0  0  0  0  0  0  0
  -31.6562    4.5166  -19.8701 O   0  0  0  0  0  0  0  0  0  0  0  0
  -35.1223    1.0753  -19.4353 P   0  0  1  0  0  0  0  0  0  0  0  0
  -31.8600    5.8256  -19.3140 C   0  0  2  0  0  0  0  0  0  0  0  0
  -33.5651    7.4358  -21.9175 N   0  0  0  0  0  0  0  0  0  0  0  0
  -32.8646    6.6795  -17.3247 O   0  0  0  0  0  0  0  0  0  0  0  0
  -32.9360    5.6458  -18.3136 C   0  0  2  0  0  0  0  0  0  0  0  0
  -33.4078   10.0795  -23.2233 N   0  0  0  0  0  0  0  0  0  0  0  0
  -31.5632    4.3230  -16.8948 O   0  0  0  0  0  0  0  0  0  0  0  0
  -32.6927    4.3096  -17.7839 C   0  0  2  0  0  0  0  0  0  0  0  0
  -32.7597    8.4223  -21.4947 C   0  0  0  0  0  0  0  0  0  0  0  0
  -31.0428    8.6790  -19.7200 N   0  0  0  0  0  0  0  0  0  0  0  0
  -33.9125    1.9350  -18.9295 O   0  0  0  0  0  0  0  0  0  0  0  0
  -33.4681    2.9980  -19.7081 C   0  0  0  0  0  0  0  0  0  0  0  0
  -36.3169    2.0969  -19.4270 O   0  0  0  0  0  0  0  0  0  0  0  0
  -33.3120    6.3485  -21.1643 C   0  0  0  0  0  0  0  0  0  0  0  0
  -32.0262   10.6581  -21.5081 O   0  0  0  0  0  0  0  0  0  0  0  0
  -32.7015    9.7856  -22.0538 C   0  0  0  0  0  0  0  0  0  0  0  0
  -32.0017    7.9509  -20.4610 C   0  0  0  0  0  0  0  0  0  0  0  0
  -34.8057    0.5027  -20.7768 O   0  5  0  0  0  0  0  0  0  0  0  0
  -35.2726   -0.1447  -18.6219 O   0  0  0  0  0  0  0  0  0  0  0  0
  1 17  1  0  0  0  0
  1 20  1  0  0  0  0
  2 15  1  6  0  0  0
  2  3  1  0  0  0  0
  2 11  1  0  0  0  0
  3  5  1  0  0  0  0
  4 16  1  6  0  0  0
  4 21  1  0  0  0  0
  4 22  2  0  0  0  0
  4 14  1  0  0  0  0
  5  1  1  6  0  0  0
  5  8  1  0  0  0  0
  6 17  2  0  0  0  0
  6 12  1  0  0  0  0
  8  7  1  1  0  0  0
  8 11  1  0  0  0  0
  9 19  1  0  0  0  0
 11 10  1  1  0  0  0
 12 20  2  0  0  0  0
 12 19  1  0  0  0  0
 13 20  1  0  0  0  0
 14 15  1  0  0  0  0
 18 19  2  0  0  0  0
M  CHG  1  21  -1
M  END
>  <CHROM.1>
42.13026192,170.74604067,-64.85258914,-177.26670050,-8.25669531,-33.23272269
5.06427138,-19.79718190,-1.11644786,0.88974140,2.51897456

>  <Name>
ligand

>  <RI>
0

>  <Rbt.Current_Directory>
/home/itssahil/PROJECTS/Mol_Feturizer/Test_systems_manuscript/rnas/4xwf

>  <Rbt.Executable>
rbdock ($Id: //depot/dev/client3/rdock/2013.1/src/exe/rbdock.cxx#4 $)

>  <Rbt.Library>
libRbt.so (2013.1, Build901 2013/11/27)

>  <Rbt.Parameter_File>
/export/apps/rDock/src/rDock_2013.1_src/data/scripts/dock_solv.prm

>  <Rbt.Receptor>
prm/blind_docking_80.prm

>  <SCORE>
-9.99593

>  <SCORE.INTER>
-8.98242

>  <SCORE.INTER.CONST>
1

>  <SCORE.INTER.POLAR>
0

>  <SCORE.INTER.ROT>
5

>  <SCORE.INTER.SOLV>
17.6729

>  <SCORE.INTER.VDW>
-18.8126

>  <SCORE.INTER.norm>
-0.408292

>  <SCORE.INTRA>
-1.01351

>  <SCORE.INTRA.DIHEDRAL>
-1.56493

>  <SCORE.INTRA.DIHEDRAL.0>
3.49807

>  <SCORE.INTRA.POLAR>
0

>  <SCORE.INTRA.POLAR.0>
0

>  <SCORE.INTRA.REPUL>
0

>  <SCORE.INTRA.REPUL.0>
0

>  <SCORE.INTRA.SOLV>
-0.33794

>  <SCORE.INTRA.SOLV.lig_0>
-73.062

>  <SCORE.INTRA.VDW>
-0.0620767

>  <SCORE.INTRA.VDW.0>
-1.83782

>  <SCORE.INTRA.norm>
-0.0460688

>  <SCORE.RESTR>
0

>  <SCORE.RESTR.CAVITY>
0

>  <SCORE.RESTR.norm>
0

>  <SCORE.SYSTEM>
0

>  <SCORE.SYSTEM.CONST>
0

>  <SCORE.SYSTEM.DIHEDRAL>
0

>  <SCORE.SYSTEM.SOLV>
0

>  <SCORE.SYSTEM.norm>
0

>  <SCORE.heavy>
22

>  <SCORE.norm>
-0.45436

>  <RMSD>
12.519

$$$$
ligand
 OpenBabel02271912143D
libRbt.so/2013.1/901 2013/11/27
 22 23  0  0  0  0  0  0  0  0999 V2000
  -35.9886   -1.8079  -17.4273 N   0  0  0  0  0  0  0  0  0  0  0  0
  -35.9925    0.1456  -20.1907 C   0  0  1  0  0  0  0  0  0  0  0  0
  -36.1323   -1.1977  -19.6470 O   0  0  0  0  0  0  0  0  0  0  0  0
  -34.6990    2.7339  -21.3590 P   0  0  1  0  0  0  0  0  0  0  0  0
  -36.7288   -1.0905  -18.3443 C   0  0  2  0  0  0  0  0  0  0  0  0
  -34.2984   -2.7254  -16.4211 N   0  0  0  0  0  0  0  0  0  0  0  0
  -37.5725    0.7022  -17.0137 O   0  0  0  0  0  0  0  0  0  0  0  0
  -36.5791    0.3359  -17.9785 C   0  0  2  0  0  0  0  0  0  0  0  0
  -36.0800   -4.9530  -14.3835 N   0  0  0  0  0  0  0  0  0  0  0  0
  -38.0890    1.0539  -19.6672 O   0  0  0  0  0  0  0  0  0  0  0  0
  -36.7130    1.0330  -19.2517 C   0  0  2  0  0  0  0  0  0  0  0  0
  -35.3982   -2.9559  -15.6877 C   0  0  0  0  0  0  0  0  0  0  0  0
  -37.8047   -2.3703  -15.8585 N   0  0  0  0  0  0  0  0  0  0  0  0
  -34.3471    1.2061  -21.3799 O   0  0  0  0  0  0  0  0  0  0  0  0
  -34.5353    0.4547  -20.2251 C   0  0  0  0  0  0  0  0  0  0  0  0
  -33.9642    3.2540  -20.0705 O   0  0  0  0  0  0  0  0  0  0  0  0
  -34.6692   -2.0169  -17.5047 C   0  0  0  0  0  0  0  0  0  0  0  0
  -34.9465   -3.2424  -13.3962 O   0  0  0  0  0  0  0  0  0  0  0  0
  -35.4459   -3.7082  -14.4203 C   0  0  0  0  0  0  0  0  0  0  0  0
  -36.4662   -2.3786  -16.3134 C   0  0  0  0  0  0  0  0  0  0  0  0
  -34.2463    3.3712  -22.6306 O   0  5  0  0  0  0  0  0  0  0  0  0
  -36.1574    2.9352  -21.4312 O   0  0  0  0  0  0  0  0  0  0  0  0
  1 17  1  0  0  0  0
  1 20  1  0  0  0  0
  2 15  1  1  0  0  0
  2  3  1  0  0  0  0
  2 11  1  0  0  0  0
  3  5  1  0  0  0  0
  4 16  1  1  0  0  0
  4 21  1  0  0  0  0
  4 22  2  0  0  0  0
  4 14  1  0  0  0  0
  5  1  1  1  0  0  0
  5  8  1  0  0  0  0
  6 17  2  0  0  0  0
  6 12  1  0  0  0  0
  8  7  1  1  0  0  0
  8 11  1  0  0  0  0
  9 19  1  0  0  0  0
 11 10  1  6  0  0  0
 12 20  2  0  0  0  0
 12 19  1  0  0  0  0
 13 20  1  0  0  0  0
 14 15  1  0  0  0  0
 18 19  2  0  0  0  0
M  CHG  1  21  -1
M  END
>  <CHROM.1>
29.90763661,143.82142302,49.79801147,80.06439618,-110.90338136,-35.70465516
-0.22183789,-18.47483241,1.66619233,-0.16158635,2.33572175

>  <Name>
ligand

>  <RI>
0

>  <Rbt.Current_Directory>
/home/itssahil/PROJECTS/Mol_Feturizer/Test_systems_manuscript/rnas/4xwf

>  <Rbt.Executable>
rbdock ($Id: //depot/dev/client3/rdock/2013.1/src/exe/rbdock.cxx#4 $)

>  <Rbt.Library>
libRbt.so (2013.1, Build901 2013/11/27)

>  <Rbt.Parameter_File>
/export/apps/rDock/src/rDock_2013.1_src/data/scripts/dock_solv.prm

>  <Rbt.Receptor>
prm/blind_docking_60.prm

>  <SCORE>
-7.41375

>  <SCORE.INTER>
-10.192

>  <SCORE.INTER.CONST>
1

>  <SCORE.INTER.POLAR>
0

>  <SCORE.INTER.ROT>
5

>  <SCORE.INTER.SOLV>
21.4141

>  <SCORE.INTER.VDW>
-20.866

>  <SCORE.INTER.norm>
-0.463273

>  <SCORE.INTRA>
2.77826

>  <SCORE.INTRA.DIHEDRAL>
3.47113

>  <SCORE.INTRA.DIHEDRAL.0>
3.49807

>  <SCORE.INTRA.POLAR>
0

>  <SCORE.INTRA.POLAR.0>
0

>  <SCORE.INTRA.REPUL>
0

>  <SCORE.INTRA.REPUL.0>
0

>  <SCORE.INTRA.SOLV>
3.13203

>  <SCORE.INTRA.SOLV.lig_0>
-73.062

>  <SCORE.INTRA.VDW>
-0.523318

>  <SCORE.INTRA.VDW.0>
-1.83782

>  <SCORE.INTRA.norm>
0.126285

>  <SCORE.RESTR>
0

>  <SCORE.RESTR.CAVITY>
0

>  <SCORE.RESTR.norm>
0

>  <SCORE.SYSTEM>
0

>  <SCORE.SYSTEM.CONST>
0

>  <SCORE.SYSTEM.DIHEDRAL>
0

>  <SCORE.SYSTEM.SOLV>
0

>  <SCORE.SYSTEM.norm>
0

>  <SCORE.heavy>
22

>  <SCORE.norm>
-0.336988

>  <RMSD>
12.559

$$$$
ligand
 OpenBabel02271912143D
libRbt.so/2013.1/901 2013/11/27
 22 23  0  0  0  0  0  0  0  0999 V2000
  -33.4368    7.3177  -19.8672 N   0  0  0  0  0  0  0  0  0  0  0  0
  -32.4905    4.0707  -19.9839 C   0  0  1  0  0  0  0  0  0  0  0  0
  -32.4261    5.3828  -20.6116 O   0  0  0  0  0  0  0  0  0  0  0  0
  -35.0257    1.2592  -20.0238 P   0  0  1  0  0  0  0  0  0  0  0  0
  -32.4730    6.3753  -19.5738 C   0  0  2  0  0  0  0  0  0  0  0  0
  -35.3542    8.2092  -20.3569 N   0  0  0  0  0  0  0  0  0  0  0  0
  -32.5316    6.3253  -17.1884 O   0  0  0  0  0  0  0  0  0  0  0  0
  -32.9513    5.6462  -18.3777 C   0  0  2  0  0  0  0  0  0  0  0  0
  -34.0509   11.3925  -21.2667 N   0  0  0  0  0  0  0  0  0  0  0  0
  -30.9667    4.3482  -18.2244 O   0  0  0  0  0  0  0  0  0  0  0  0
  -32.3709    4.3177  -18.5303 C   0  0  2  0  0  0  0  0  0  0  0  0
  -34.4639    9.1983  -20.1854 C   0  0  0  0  0  0  0  0  0  0  0  0
  -32.0571    9.3419  -19.5935 N   0  0  0  0  0  0  0  0  0  0  0  0
  -33.8283    2.2286  -19.7322 O   0  0  0  0  0  0  0  0  0  0  0  0
  -33.8152    3.4836  -20.3310 C   0  0  0  0  0  0  0  0  0  0  0  0
  -34.7544    0.7869  -21.4982 O   0  0  0  0  0  0  0  0  0  0  0  0
  -34.7118    7.0413  -20.1645 C   0  0  0  0  0  0  0  0  0  0  0  0
  -35.5682   11.1865  -19.5812 O   0  0  0  0  0  0  0  0  0  0  0  0
  -34.7436   10.6405  -20.3140 C   0  0  0  0  0  0  0  0  0  0  0  0
  -33.2547    8.6450  -19.8738 C   0  0  0  0  0  0  0  0  0  0  0  0
  -35.0400    0.1605  -19.0136 O   0  5  0  0  0  0  0  0  0  0  0  0
  -36.3135    1.9240  -19.7548 O   0  0  0  0  0  0  0  0  0  0  0  0
  1 17  1  0  0  0  0
  1 20  1  0  0  0  0
  2 15  1  1  0  0  0
  2  3  1  0  0  0  0
  2 11  1  0  0  0  0
  3  5  1  0  0  0  0
  4 16  1  6  0  0  0
  4 21  1  0  0  0  0
  4 22  2  0  0  0  0
  4 14  1  0  0  0  0
  5  1  1  6  0  0  0
  5  8  1  0  0  0  0
  6 17  2  0  0  0  0
  6 12  1  0  0  0  0
  8  7  1  1  0  0  0
  8 11  1  0  0  0  0
  9 19  1  0  0  0  0
 11 10  1  6  0  0  0
 12 20  2  0  0  0  0
 12 19  1  0  0  0  0
 13 20  1  0  0  0  0
 14 15  1  0  0  0  0
 18 19  2  0  0  0  0
M  CHG  1  21  -1
M  END
>  <CHROM.1>
52.71781947,179.11859716,73.26541545,-173.43566605,-119.80078006,-33.83083386
5.48589369,-19.72865999,-1.50540730,0.46602598,3.09419963

>  <Name>
ligand

>  <RI>
0

>  <Rbt.Current_Directory>
/home/itssahil/PROJECTS/Mol_Feturizer/Test_systems_manuscript/rnas/4xwf

>  <Rbt.Executable>
rbdock ($Id: //depot/dev/client3/rdock/2013.1/src/exe/rbdock.cxx#4 $)

>  <Rbt.Library>
libRbt.so (2013.1, Build901 2013/11/27)

>  <Rbt.Parameter_File>
/export/apps/rDock/src/rDock_2013.1_src/data/scripts/dock_solv.prm

>  <Rbt.Receptor>
prm/blind_docking_60.prm

>  <SCORE>
-10.9227

>  <SCORE.INTER>
-9.88788

>  <SCORE.INTER.CONST>
1

>  <SCORE.INTER.POLAR>
0

>  <SCORE.INTER.ROT>
5

>  <SCORE.INTER.SOLV>
16.0227

>  <SCORE.INTER.VDW>
-18.8662

>  <SCORE.INTER.norm>
-0.449449

>  <SCORE.INTRA>
-1.04855

>  <SCORE.INTRA.DIHEDRAL>
-1.5565

>  <SCORE.INTRA.DIHEDRAL.0>
3.49807

>  <SCORE.INTRA.POLAR>
0

>  <SCORE.INTRA.POLAR.0>
0

>  <SCORE.INTRA.REPUL>
0

>  <SCORE.INTRA.REPUL.0>
0

>  <SCORE.INTRA.SOLV>
-0.548734

>  <SCORE.INTRA.SOLV.lig_0>
-73.062

>  <SCORE.INTRA.VDW>
0.00406713

>  <SCORE.INTRA.VDW.0>
-1.83782

>  <SCORE.INTRA.norm>
-0.0476614

>  <SCORE.RESTR>
0.013729

>  <SCORE.RESTR.CAVITY>
0.013729

>  <SCORE.RESTR.norm>
0.000624044

>  <SCORE.SYSTEM>
0

>  <SCORE.SYSTEM.CONST>
0

>  <SCORE.SYSTEM.DIHEDRAL>
0

>  <SCORE.SYSTEM.SOLV>
0

>  <SCORE.SYSTEM.norm>
0

>  <SCORE.heavy>
22

>  <SCORE.norm>
-0.496487

>  <RMSD>
12.581

$$$$
ligand
 OpenBabel02271912143D
libRbt.so/2013.1/901 2013/11/27
 22 23  0  0  0  0  0  0  0  0999 V2000
  -33.5536    6.8505  -20.1305 N   0  0  0  0  0  0  0  0  0  0  0  0
  -32.6032    3.6031  -20.1921 C   0  0  1  0  0  0  0  0  0  0  0  0
  -32.6394    4.8765  -20.8971 O   0  0  0  0  0  0  0  0  0  0  0  0
  -35.1285    0.8429  -19.6056 P   0  0  1  0  0  0  0  0  0  0  0  0
  -32.5496    5.9276  -19.9217 C   0  0  2  0  0  0  0  0  0  0  0  0
  -35.5261    7.7057  -20.4282 N   0  0  0  0  0  0  0  0  0  0  0  0
  -32.2730    6.0165  -17.5528 O   0  0  0  0  0  0  0  0  0  0  0  0
  -32.8489    5.2689  -18.6304 C   0  0  2  0  0  0  0  0  0  0  0  0
  -34.6333   10.8102  -21.7001 N   0  0  0  0  0  0  0  0  0  0  0  0
  -30.8506    3.9840  -18.6830 O   0  0  0  0  0  0  0  0  0  0  0  0
  -32.2835    3.9344  -18.7863 C   0  0  2  0  0  0  0  0  0  0  0  0
  -34.6371    8.7097  -20.3803 C   0  0  0  0  0  0  0  0  0  0  0  0
  -32.1823    8.8975  -20.0606 N   0  0  0  0  0  0  0  0  0  0  0  0
  -33.8415    1.7244  -19.7638 O   0  0  0  0  0  0  0  0  0  0  0  0
  -33.9581    2.9955  -20.3156 C   0  0  0  0  0  0  0  0  0  0  0  0
  -35.8887    1.5282  -18.4127 O   0  0  0  0  0  0  0  0  0  0  0  0
  -34.8493    6.5511  -20.2788 C   0  0  0  0  0  0  0  0  0  0  0  0
  -35.4733   10.7600  -19.5841 O   0  0  0  0  0  0  0  0  0  0  0  0
  -34.9504   10.1445  -20.5130 C   0  0  0  0  0  0  0  0  0  0  0  0
  -33.3930    8.1792  -20.1900 C   0  0  0  0  0  0  0  0  0  0  0  0
  -35.8846    0.8224  -20.8924 O   0  5  0  0  0  0  0  0  0  0  0  0
  -34.7721   -0.5789  -19.4503 O   0  0  0  0  0  0  0  0  0  0  0  0
  1 17  1  0  0  0  0
  1 20  1  0  0  0  0
  2 15  1  1  0  0  0
  2  3  1  0  0  0  0
  2 11  1  0  0  0  0
  3  5  1  0  0  0  0
  4 16  1  1  0  0  0
  4 21  1  0  0  0  0
  4 22  2  0  0  0  0
  4 14  1  0  0  0  0
  5  1  1  6  0  0  0
  5  8  1  0  0  0  0
  6 17  2  0  0  0  0
  6 12  1  0  0  0  0
  8  7  1  1  0  0  0
  8 11  1  0  0  0  0
  9 19  1  0  0  0  0
 11 10  1  6  0  0  0
 12 20  2  0  0  0  0
 12 19  1  0  0  0  0
 13 20  1  0  0  0  0
 14 15  1  0  0  0  0
 18 19  2  0  0  0  0
M  CHG  1  21  -1
M  END
>  <CHROM.1>
50.11574385,173.55044578,-73.01208573,174.33089119,-105.53405003,-33.92236358
5.04779362,-19.79549943,-1.51968603,0.32603705,3.04134808

>  <Name>
ligand

>  <RI>
0

>  <Rbt.Current_Directory>
/home/itssahil/PROJECTS/Mol_Feturizer/Test_systems_manuscript/rnas/4xwf

>  <Rbt.Executable>
rbdock ($Id: //depot/dev/client3/rdock/2013.1/src/exe/rbdock.cxx#4 $)

>  <Rbt.Library>
libRbt.so (2013.1, Build901 2013/11/27)

>  <Rbt.Parameter_File>
/export/apps/rDock/src/rDock_2013.1_src/data/scripts/dock_solv.prm

>  <Rbt.Receptor>
prm/blind_docking_80.prm

>  <SCORE>
-10.423

>  <SCORE.INTER>
-9.46858

>  <SCORE.INTER.CONST>
1

>  <SCORE.INTER.POLAR>
0

>  <SCORE.INTER.ROT>
5

>  <SCORE.INTER.SOLV>
14.1413

>  <SCORE.INTER.VDW>
-17.9595

>  <SCORE.INTER.norm>
-0.43039

>  <SCORE.INTRA>
-0.954457

>  <SCORE.INTRA.DIHEDRAL>
-1.15285

>  <SCORE.INTRA.DIHEDRAL.0>
3.49807

>  <SCORE.INTRA.POLAR>
0

>  <SCORE.INTRA.POLAR.0>
0

>  <SCORE.INTRA.REPUL>
0

>  <SCORE.INTRA.REPUL.0>
0

>  <SCORE.INTRA.SOLV>
-0.513526

>  <SCORE.INTRA.SOLV.lig_0>
-73.062

>  <SCORE.INTRA.VDW>
-0.121271

>  <SCORE.INTRA.VDW.0>
-1.83782

>  <SCORE.INTRA.norm>
-0.0433844

>  <SCORE.RESTR>
0

>  <SCORE.RESTR.CAVITY>
0

>  <SCORE.RESTR.norm>
0

>  <SCORE.SYSTEM>
0

>  <SCORE.SYSTEM.CONST>
0

>  <SCORE.SYSTEM.DIHEDRAL>
0

>  <SCORE.SYSTEM.SOLV>
0

>  <SCORE.SYSTEM.norm>
0

>  <SCORE.heavy>
22

>  <SCORE.norm>
-0.473774

>  <RMSD>
12.615

$$$$
ligand
 OpenBabel02271912143D
libRbt.so/2013.1/901 2013/11/27
 22 23  0  0  0  0  0  0  0  0999 V2000
  -33.5518    6.8286  -20.1045 N   0  0  0  0  0  0  0  0  0  0  0  0
  -32.6464    3.5689  -20.1900 C   0  0  1  0  0  0  0  0  0  0  0  0
  -32.6935    4.8402  -20.8980 O   0  0  0  0  0  0  0  0  0  0  0  0
  -35.1632    0.8020  -19.5902 P   0  0  1  0  0  0  0  0  0  0  0  0
  -32.5524    5.8935  -19.9310 C   0  0  2  0  0  0  0  0  0  0  0  0
  -35.5245    7.7237  -20.2392 N   0  0  0  0  0  0  0  0  0  0  0  0
  -32.1832    5.9869  -17.5750 O   0  0  0  0  0  0  0  0  0  0  0  0
  -32.8100    5.2432  -18.6266 C   0  0  2  0  0  0  0  0  0  0  0  0
  -34.3032   11.0873  -19.8258 N   0  0  0  0  0  0  0  0  0  0  0  0
  -30.8319    3.9322  -18.7513 O   0  0  0  0  0  0  0  0  0  0  0  0
  -32.2682    3.9008  -18.7989 C   0  0  2  0  0  0  0  0  0  0  0  0
  -34.6121    8.6941  -20.4015 C   0  0  0  0  0  0  0  0  0  0  0  0
  -32.1327    8.8210  -20.4081 N   0  0  0  0  0  0  0  0  0  0  0  0
  -33.8811    1.6898  -19.7531 O   0  0  0  0  0  0  0  0  0  0  0  0
  -34.0128    2.9786  -20.2585 C   0  0  0  0  0  0  0  0  0  0  0  0
  -35.9392    1.5038  -18.4173 O   0  0  0  0  0  0  0  0  0  0  0  0
  -34.8628    6.5644  -20.0609 C   0  0  0  0  0  0  0  0  0  0  0  0
  -35.6822   10.4622  -21.5267 O   0  0  0  0  0  0  0  0  0  0  0  0
  -34.9044   10.1204  -20.6360 C   0  0  0  0  0  0  0  0  0  0  0  0
  -33.3674    8.1387  -20.3149 C   0  0  0  0  0  0  0  0  0  0  0  0
  -35.9071    0.7519  -20.8833 O   0  5  0  0  0  0  0  0  0  0  0  0
  -34.7980   -0.6140  -19.4051 O   0  0  0  0  0  0  0  0  0  0  0  0
  1 17  1  0  0  0  0
  1 20  1  0  0  0  0
  2 15  1  1  0  0  0
  2  3  1  0  0  0  0
  2 11  1  0  0  0  0
  3  5  1  0  0  0  0
  4 16  1  1  0  0  0
  4 21  1  0  0  0  0
  4 22  2  0  0  0  0
  4 14  1  0  0  0  0
  5  1  1  6  0  0  0
  5  8  1  0  0  0  0
  6 17  2  0  0  0  0
  6 12  1  0  0  0  0
  8  7  1  1  0  0  0
  8 11  1  0  0  0  0
  9 19  1  0  0  0  0
 11 10  1  6  0  0  0
 12 20  2  0  0  0  0
 12 19  1  0  0  0  0
 13 20  1  0  0  0  0
 14 15  1  0  0  0  0
 18 19  2  0  0  0  0
M  CHG  1  21  -1
M  END
>  <CHROM.1>
57.52664072,171.37542937,-69.35529562,176.02123622,128.04993961,-33.92254617
5.01589233,-19.81592981,-1.50912216,0.34383167,3.02542005

>  <Name>
ligand

>  <RI>
0

>  <Rbt.Current_Directory>
/home/itssahil/PROJECTS/Mol_Feturizer/Test_systems_manuscript/rnas/4xwf

>  <Rbt.Executable>
rbdock ($Id: //depot/dev/client3/rdock/2013.1/src/exe/rbdock.cxx#4 $)

>  <Rbt.Library>
libRbt.so (2013.1, Build901 2013/11/27)

>  <Rbt.Parameter_File>
/export/apps/rDock/src/rDock_2013.1_src/data/scripts/dock_solv.prm

>  <Rbt.Receptor>
prm/blind_docking_60.prm

>  <SCORE>
-10.0187

>  <SCORE.INTER>
-9.04071

>  <SCORE.INTER.CONST>
1

>  <SCORE.INTER.POLAR>
0

>  <SCORE.INTER.ROT>
5

>  <SCORE.INTER.SOLV>
13.9075

>  <SCORE.INTER.VDW>
-17.5963

>  <SCORE.INTER.norm>
-0.410941

>  <SCORE.INTRA>
-0.978006

>  <SCORE.INTRA.DIHEDRAL>
-1.40296

>  <SCORE.INTRA.DIHEDRAL.0>
3.49807

>  <SCORE.INTRA.POLAR>
0

>  <SCORE.INTRA.POLAR.0>
0

>  <SCORE.INTRA.REPUL>
0

>  <SCORE.INTRA.REPUL.0>
0

>  <SCORE.INTRA.SOLV>
-0.619331

>  <SCORE.INTRA.SOLV.lig_0>
-73.062

>  <SCORE.INTRA.VDW>
0.0331389

>  <SCORE.INTRA.VDW.0>
-1.83782

>  <SCORE.INTRA.norm>
-0.0444548

>  <SCORE.RESTR>
0

>  <SCORE.RESTR.CAVITY>
0

>  <SCORE.RESTR.norm>
0

>  <SCORE.SYSTEM>
0

>  <SCORE.SYSTEM.CONST>
0

>  <SCORE.SYSTEM.DIHEDRAL>
0

>  <SCORE.SYSTEM.SOLV>
0

>  <SCORE.SYSTEM.norm>
0

>  <SCORE.heavy>
22

>  <SCORE.norm>
-0.455396

>  <RMSD>
12.617

$$$$
ligand
 OpenBabel02271912143D
libRbt.so/2013.1/901 2013/11/27
 22 23  0  0  0  0  0  0  0  0999 V2000
  -33.5701    6.9953  -20.0987 N   0  0  0  0  0  0  0  0  0  0  0  0
  -32.6268    3.7457  -20.1483 C   0  0  1  0  0  0  0  0  0  0  0  0
  -32.6456    5.0207  -20.8510 O   0  0  0  0  0  0  0  0  0  0  0  0
  -35.1131    0.9089  -19.8114 P   0  0  1  0  0  0  0  0  0  0  0  0
  -32.5729    6.0695  -19.8717 C   0  0  2  0  0  0  0  0  0  0  0  0
  -35.5217    7.8504  -20.5125 N   0  0  0  0  0  0  0  0  0  0  0  0
  -32.3439    6.1527  -17.4976 O   0  0  0  0  0  0  0  0  0  0  0  0
  -32.8998    5.4089  -18.5882 C   0  0  2  0  0  0  0  0  0  0  0  0
  -36.2451   10.6994  -20.7946 N   0  0  0  0  0  0  0  0  0  0  0  0
  -30.9040    4.1190  -18.6032 O   0  0  0  0  0  0  0  0  0  0  0  0
  -32.3346    4.0732  -18.7356 C   0  0  2  0  0  0  0  0  0  0  0  0
  -34.6607    8.8567  -20.2964 C   0  0  0  0  0  0  0  0  0  0  0  0
  -32.2513    9.0445  -19.7279 N   0  0  0  0  0  0  0  0  0  0  0  0
  -33.8876    1.8827  -19.7176 O   0  0  0  0  0  0  0  0  0  0  0  0
  -33.9804    3.1418  -20.3003 C   0  0  0  0  0  0  0  0  0  0  0  0
  -35.3107    0.7288  -21.3603 O   0  0  0  0  0  0  0  0  0  0  0  0
  -34.8400    6.6950  -20.3951 C   0  0  0  0  0  0  0  0  0  0  0  0
  -34.1591   11.1355  -19.9921 O   0  0  0  0  0  0  0  0  0  0  0  0
  -34.9877   10.2940  -20.3391 C   0  0  0  0  0  0  0  0  0  0  0  0
  -33.4303    8.3260  -20.0321 C   0  0  0  0  0  0  0  0  0  0  0  0
  -34.8096   -0.3530  -19.0743 O   0  5  0  0  0  0  0  0  0  0  0  0
  -36.2562    1.4323  -19.0421 O   0  0  0  0  0  0  0  0  0  0  0  0
  1 17  1  0  0  0  0
  1 20  1  0  0  0  0
  2 15  1  1  0  0  0
  2  3  1  0  0  0  0
  2 11  1  0  0  0  0
  3  5  1  0  0  0  0
  4 16  1  6  0  0  0
  4 21  1  0  0  0  0
  4 22  2  0  0  0  0
  4 14  1  0  0  0  0
  5  1  1  6  0  0  0
  5  8  1  0  0  0  0
  6 17  2  0  0  0  0
  6 12  1  0  0  0  0
  8  7  1  1  0  0  0
  8 11  1  0  0  0  0
  9 19  1  0  0  0  0
 11 10  1  6  0  0  0
 12 20  2  0  0  0  0
 12 19  1  0  0  0  0
 13 20  1  0  0  0  0
 14 15  1  0  0  0  0
 18 19  2  0  0  0  0
M  CHG  1  21  -1
M  END
>  <CHROM.1>
43.65849934,175.06681409,59.79167634,-174.68799265,-8.30882642,-33.93953596
5.16570790,-19.78929249,-1.52133644,0.37983416,3.07765401

>  <Name>
ligand

>  <RI>
0

>  <Rbt.Current_Directory>
/home/itssahil/PROJECTS/Mol_Feturizer/Test_systems_manuscript/rnas/4xwf

>  <Rbt.Executable>
rbdock ($Id: //depot/dev/client3/rdock/2013.1/src/exe/rbdock.cxx#4 $)

>  <Rbt.Library>
libRbt.so (2013.1, Build901 2013/11/27)

>  <Rbt.Parameter_File>
/export/apps/rDock/src/rDock_2013.1_src/data/scripts/dock_solv.prm

>  <Rbt.Receptor>
prm/blind_docking_80.prm

>  <SCORE>
-10.2044

>  <SCORE.INTER>
-9.12121

>  <SCORE.INTER.CONST>
1

>  <SCORE.INTER.POLAR>
0

>  <SCORE.INTER.ROT>
5

>  <SCORE.INTER.SOLV>
15.6336

>  <SCORE.INTER.VDW>
-18.2253

>  <SCORE.INTER.norm>
-0.4146

>  <SCORE.INTRA>
-1.0844

>  <SCORE.INTRA.DIHEDRAL>
-1.7218

>  <SCORE.INTRA.DIHEDRAL.0>
3.49807

>  <SCORE.INTRA.POLAR>
0

>  <SCORE.INTRA.POLAR.0>
0

>  <SCORE.INTRA.REPUL>
0

>  <SCORE.INTRA.REPUL.0>
0

>  <SCORE.INTRA.SOLV>
-0.478529

>  <SCORE.INTRA.SOLV.lig_0>
-73.062

>  <SCORE.INTRA.VDW>
0.0157602

>  <SCORE.INTRA.VDW.0>
-1.83782

>  <SCORE.INTRA.norm>
-0.0492911

>  <SCORE.RESTR>
0.00121342

>  <SCORE.RESTR.CAVITY>
0.00121342

>  <SCORE.RESTR.norm>
5.51556e-05

>  <SCORE.SYSTEM>
0

>  <SCORE.SYSTEM.CONST>
0

>  <SCORE.SYSTEM.DIHEDRAL>
0

>  <SCORE.SYSTEM.SOLV>
0

>  <SCORE.SYSTEM.norm>
0

>  <SCORE.heavy>
22

>  <SCORE.norm>
-0.463836

>  <RMSD>
12.619

$$$$
ligand
 OpenBabel02271912143D
libRbt.so/2013.1/901 2013/11/27
 22 23  0  0  0  0  0  0  0  0999 V2000
  -36.2120   -1.2316  -18.1356 N   0  0  0  0  0  0  0  0  0  0  0  0
  -36.7957    1.0359  -20.5790 C   0  0  1  0  0  0  0  0  0  0  0  0
  -36.7516   -0.3708  -20.2063 O   0  0  0  0  0  0  0  0  0  0  0  0
  -34.1545    3.6178  -21.4255 P   0  0  1  0  0  0  0  0  0  0  0  0
  -37.1381   -0.4779  -18.8266 C   0  0  2  0  0  0  0  0  0  0  0  0
  -34.3936   -2.3157  -17.6570 N   0  0  0  0  0  0  0  0  0  0  0  0
  -37.8826    1.0551  -17.1558 O   0  0  0  0  0  0  0  0  0  0  0  0
  -37.0329    0.9009  -18.2986 C   0  0  2  0  0  0  0  0  0  0  0  0
  -33.7418   -3.7892  -15.1830 N   0  0  0  0  0  0  0  0  0  0  0  0
  -38.8404    1.6796  -19.6305 O   0  0  0  0  0  0  0  0  0  0  0  0
  -37.4177    1.7331  -19.4320 C   0  0  2  0  0  0  0  0  0  0  0  0
  -35.1883   -2.3327  -16.5759 C   0  0  0  0  0  0  0  0  0  0  0  0
  -37.4207   -1.4147  -15.9952 N   0  0  0  0  0  0  0  0  0  0  0  0
  -35.4727    2.8257  -21.1197 O   0  0  0  0  0  0  0  0  0  0  0  0
  -35.3883    1.4777  -20.7888 C   0  0  0  0  0  0  0  0  0  0  0  0
  -33.7678    3.1281  -22.8681 O   0  0  0  0  0  0  0  0  0  0  0  0
  -35.0349   -1.6360  -18.6267 C   0  0  0  0  0  0  0  0  0  0  0  0
  -35.6165   -2.8302  -14.3162 O   0  0  0  0  0  0  0  0  0  0  0  0
  -34.8776   -2.9819  -15.2889 C   0  0  0  0  0  0  0  0  0  0  0  0
  -36.3341   -1.6494  -16.8686 C   0  0  0  0  0  0  0  0  0  0  0  0
  -34.4127    5.0839  -21.3170 O   0  5  0  0  0  0  0  0  0  0  0  0
  -33.1619    3.4132  -20.3552 O   0  0  0  0  0  0  0  0  0  0  0  0
  1 17  1  0  0  0  0
  1 20  1  0  0  0  0
  2 15  1  1  0  0  0
  2  3  1  0  0  0  0
  2 11  1  0  0  0  0
  3  5  1  0  0  0  0
  4 16  1  6  0  0  0
  4 21  1  0  0  0  0
  4 22  2  0  0  0  0
  4 14  1  0  0  0  0
  5  1  1  1  0  0  0
  5  8  1  0  0  0  0
  6 17  2  0  0  0  0
  6 12  1  0  0  0  0
  8  7  1  1  0  0  0
  8 11  1  0  0  0  0
  9 19  1  0  0  0  0
 11 10  1  6  0  0  0
 12 20  2  0  0  0  0
 12 19  1  0  0  0  0
 13 20  1  0  0  0  0
 14 15  1  0  0  0  0
 18 19  2  0  0  0  0
M  CHG  1  21  -1
M  END
>  <CHROM.1>
9.02120011,-179.03546968,75.76407624,-179.40607314,-7.92333071,-35.68331860
0.52323987,-18.89144535,1.68295339,-0.10430128,2.40629485

>  <Name>
ligand

>  <RI>
0

>  <Rbt.Current_Directory>
/home/itssahil/PROJECTS/Mol_Feturizer/Test_systems_manuscript/rnas/4xwf

>  <Rbt.Executable>
rbdock ($Id: //depot/dev/client3/rdock/2013.1/src/exe/rbdock.cxx#4 $)

>  <Rbt.Library>
libRbt.so (2013.1, Build901 2013/11/27)

>  <Rbt.Parameter_File>
/export/apps/rDock/src/rDock_2013.1_src/data/scripts/dock_solv.prm

>  <Rbt.Receptor>
prm/blind_docking_80.prm

>  <SCORE>
-12.3741

>  <SCORE.INTER>
-12.3688

>  <SCORE.INTER.CONST>
1

>  <SCORE.INTER.POLAR>
0

>  <SCORE.INTER.ROT>
5

>  <SCORE.INTER.SOLV>
20.2156

>  <SCORE.INTER.VDW>
-21.9177

>  <SCORE.INTER.norm>
-0.562217

>  <SCORE.INTRA>
-0.00531923

>  <SCORE.INTRA.DIHEDRAL>
-1.60232

>  <SCORE.INTRA.DIHEDRAL.0>
3.49807

>  <SCORE.INTRA.POLAR>
0

>  <SCORE.INTRA.POLAR.0>
0

>  <SCORE.INTRA.REPUL>
0

>  <SCORE.INTRA.REPUL.0>
0

>  <SCORE.INTRA.SOLV>
0.995807

>  <SCORE.INTRA.SOLV.lig_0>
-73.062

>  <SCORE.INTRA.VDW>
0.297938

>  <SCORE.INTRA.VDW.0>
-1.83782

>  <SCORE.INTRA.norm>
-0.000241783

>  <SCORE.RESTR>
0

>  <SCORE.RESTR.CAVITY>
0

>  <SCORE.RESTR.norm>
0

>  <SCORE.SYSTEM>
0

>  <SCORE.SYSTEM.CONST>
0

>  <SCORE.SYSTEM.DIHEDRAL>
0

>  <SCORE.SYSTEM.SOLV>
0

>  <SCORE.SYSTEM.norm>
0

>  <SCORE.heavy>
22

>  <SCORE.norm>
-0.562459

>  <RMSD>
12.624

$$$$
ligand
 OpenBabel02271912143D
libRbt.so/2013.1/901 2013/11/27
 22 23  0  0  0  0  0  0  0  0999 V2000
  -36.7917   -1.2541  -17.2478 N   0  0  0  0  0  0  0  0  0  0  0  0
  -36.2422    0.3547  -20.1739 C   0  0  1  0  0  0  0  0  0  0  0  0
  -36.5621   -0.9041  -19.5159 O   0  0  0  0  0  0  0  0  0  0  0  0
  -34.5568    2.7053  -21.3965 P   0  0  1  0  0  0  0  0  0  0  0  0
  -37.3329   -0.6081  -18.3400 C   0  0  2  0  0  0  0  0  0  0  0  0
  -36.4529   -1.8943  -15.2017 N   0  0  0  0  0  0  0  0  0  0  0  0
  -38.2231    1.3763  -17.3575 O   0  0  0  0  0  0  0  0  0  0  0  0
  -37.1301    0.8402  -18.1122 C   0  0  2  0  0  0  0  0  0  0  0  0
  -35.0415   -4.6570  -14.7828 N   0  0  0  0  0  0  0  0  0  0  0  0
  -38.3174    1.4407  -20.0812 O   0  0  0  0  0  0  0  0  0  0  0  0
  -37.0227    1.3881  -19.4589 C   0  0  2  0  0  0  0  0  0  0  0  0
  -35.6092   -2.5696  -15.9972 C   0  0  0  0  0  0  0  0  0  0  0  0
  -35.1519   -2.6596  -18.4357 N   0  0  0  0  0  0  0  0  0  0  0  0
  -34.3632    1.1610  -21.2060 O   0  0  0  0  0  0  0  0  0  0  0  0
  -34.7764    0.5710  -20.0166 C   0  0  0  0  0  0  0  0  0  0  0  0
  -33.7553    3.0078  -22.7142 O   0  0  0  0  0  0  0  0  0  0  0  0
  -37.1823   -1.0731  -15.9808 C   0  0  0  0  0  0  0  0  0  0  0  0
  -33.4303   -3.4445  -15.8409 O   0  0  0  0  0  0  0  0  0  0  0  0
  -34.6204   -3.5693  -15.5525 C   0  0  0  0  0  0  0  0  0  0  0  0
  -35.8187   -2.1741  -17.2875 C   0  0  0  0  0  0  0  0  0  0  0  0
  -36.0132    3.0237  -21.4698 O   0  5  0  0  0  0  0  0  0  0  0  0
  -34.1561    3.4359  -20.1806 O   0  0  0  0  0  0  0  0  0  0  0  0
  1 17  1  0  0  0  0
  1 20  1  0  0  0  0
  2 15  1  1  0  0  0
  2  3  1  0  0  0  0
  2 11  1  0  0  0  0
  3  5  1  0  0  0  0
  4 16  1  6  0  0  0
  4 21  1  0  0  0  0
  4 22  2  0  0  0  0
  4 14  1  0  0  0  0
  5  1  1  1  0  0  0
  5  8  1  0  0  0  0
  6 17  2  0  0  0  0
  6 12  1  0  0  0  0
  8  7  1  6  0  0  0
  8 11  1  0  0  0  0
  9 19  1  0  0  0  0
 11 10  1  6  0  0  0
 12 20  2  0  0  0  0
 12 19  1  0  0  0  0
 13 20  1  0  0  0  0
 14 15  1  0  0  0  0
 18 19  2  0  0  0  0
M  CHG  1  21  -1
M  END
>  <CHROM.1>
172.34405546,143.50298629,170.44529451,81.87607839,54.41029284,-35.75296098
0.01136972,-18.73392852,1.62692541,-0.35394730,2.38478611

>  <Name>
ligand

>  <RI>
0

>  <Rbt.Current_Directory>
/home/itssahil/PROJECTS/Mol_Feturizer/Test_systems_manuscript/rnas/4xwf

>  <Rbt.Executable>
rbdock ($Id: //depot/dev/client3/rdock/2013.1/src/exe/rbdock.cxx#4 $)

>  <Rbt.Library>
libRbt.so (2013.1, Build901 2013/11/27)

>  <Rbt.Parameter_File>
/export/apps/rDock/src/rDock_2013.1_src/data/scripts/dock_solv.prm

>  <Rbt.Receptor>
prm/blind_docking_60.prm

>  <SCORE>
-7.44726

>  <SCORE.INTER>
-14.1215

>  <SCORE.INTER.CONST>
1

>  <SCORE.INTER.POLAR>
0

>  <SCORE.INTER.ROT>
5

>  <SCORE.INTER.SOLV>
15.5811

>  <SCORE.INTER.VDW>
-21.5414

>  <SCORE.INTER.norm>
-0.641888

>  <SCORE.INTRA>
6.67429

>  <SCORE.INTRA.DIHEDRAL>
5.33911

>  <SCORE.INTRA.DIHEDRAL.0>
3.49807

>  <SCORE.INTRA.POLAR>
0

>  <SCORE.INTRA.POLAR.0>
0

>  <SCORE.INTRA.REPUL>
0

>  <SCORE.INTRA.REPUL.0>
0

>  <SCORE.INTRA.SOLV>
6.68743

>  <SCORE.INTRA.SOLV.lig_0>
-73.062

>  <SCORE.INTRA.VDW>
0.661018

>  <SCORE.INTRA.VDW.0>
-1.83782

>  <SCORE.INTRA.norm>
0.303377

>  <SCORE.RESTR>
0

>  <SCORE.RESTR.CAVITY>
0

>  <SCORE.RESTR.norm>
0

>  <SCORE.SYSTEM>
0

>  <SCORE.SYSTEM.CONST>
0

>  <SCORE.SYSTEM.DIHEDRAL>
0

>  <SCORE.SYSTEM.SOLV>
0

>  <SCORE.SYSTEM.norm>
0

>  <SCORE.heavy>
22

>  <SCORE.norm>
-0.338512

>  <RMSD>
12.658

$$$$
ligand
 OpenBabel02271912143D
libRbt.so/2013.1/901 2013/11/27
 22 23  0  0  0  0  0  0  0  0999 V2000
  -32.5398    6.6772  -20.4893 N   0  0  0  0  0  0  0  0  0  0  0  0
  -32.3083    3.5305  -19.2656 C   0  0  1  0  0  0  0  0  0  0  0  0
  -31.7557    4.5323  -20.1661 O   0  0  0  0  0  0  0  0  0  0  0  0
  -35.0711    0.9635  -19.6308 P   0  0  1  0  0  0  0  0  0  0  0  0
  -31.9597    5.8248  -19.5727 C   0  0  2  0  0  0  0  0  0  0  0  0
  -33.8438    7.4320  -22.0516 N   0  0  0  0  0  0  0  0  0  0  0  0
  -32.8668    6.6143  -17.5112 O   0  0  0  0  0  0  0  0  0  0  0  0
  -32.9699    5.5977  -18.5150 C   0  0  2  0  0  0  0  0  0  0  0  0
  -33.2746   10.8849  -21.2665 N   0  0  0  0  0  0  0  0  0  0  0  0
  -31.4829    4.2856  -17.2058 O   0  0  0  0  0  0  0  0  0  0  0  0
  -32.6620    4.2588  -18.0276 C   0  0  2  0  0  0  0  0  0  0  0  0
  -33.0637    8.4405  -21.6334 C   0  0  0  0  0  0  0  0  0  0  0  0
  -31.2837    8.7218  -19.9258 N   0  0  0  0  0  0  0  0  0  0  0  0
  -33.8587    1.8470  -19.1745 O   0  0  0  0  0  0  0  0  0  0  0  0
  -33.5157    2.9633  -19.9295 C   0  0  0  0  0  0  0  0  0  0  0  0
  -34.6506    0.4928  -21.0703 O   0  0  0  0  0  0  0  0  0  0  0  0
  -33.5119    6.3359  -21.3431 C   0  0  0  0  0  0  0  0  0  0  0  0
  -32.9612   10.0389  -23.3574 O   0  0  0  0  0  0  0  0  0  0  0  0
  -33.0883    9.8205  -22.1527 C   0  0  0  0  0  0  0  0  0  0  0  0
  -32.2419    7.9737  -20.6475 C   0  0  0  0  0  0  0  0  0  0  0  0
  -35.2814   -0.1444  -18.6530 O   0  5  0  0  0  0  0  0  0  0  0  0
  -36.3365    1.7094  -19.5080 O   0  0  0  0  0  0  0  0  0  0  0  0
  1 17  1  0  0  0  0
  1 20  1  0  0  0  0
  2 15  1  6  0  0  0
  2  3  1  0  0  0  0
  2 11  1  0  0  0  0
  3  5  1  0  0  0  0
  4 16  1  6  0  0  0
  4 21  1  0  0  0  0
  4 22  2  0  0  0  0
  4 14  1  0  0  0  0
  5  1  1  6  0  0  0
  5  8  1  0  0  0  0
  6 17  2  0  0  0  0
  6 12  1  0  0  0  0
  8  7  1  1  0  0  0
  8 11  1  0  0  0  0
  9 19  1  0  0  0  0
 11 10  1  1  0  0  0
 12 20  2  0  0  0  0
 12 19  1  0  0  0  0
 13 20  1  0  0  0  0
 14 15  1  0  0  0  0
 18 19  2  0  0  0  0
M  CHG  1  21  -1
M  END
>  <CHROM.1>
40.67019952,168.73684010,59.38292808,-177.59311403,124.99623374,-33.33782108
5.02812600,-19.98619898,-1.18824530,0.89960284,2.58487408

>  <Name>
ligand

>  <RI>
0

>  <Rbt.Current_Directory>
/home/itssahil/PROJECTS/Mol_Feturizer/Test_systems_manuscript/rnas/4xwf

>  <Rbt.Executable>
rbdock ($Id: //depot/dev/client3/rdock/2013.1/src/exe/rbdock.cxx#4 $)

>  <Rbt.Library>
libRbt.so (2013.1, Build901 2013/11/27)

>  <Rbt.Parameter_File>
/export/apps/rDock/src/rDock_2013.1_src/data/scripts/dock_solv.prm

>  <Rbt.Receptor>
prm/blind_docking_80.prm

>  <SCORE>
-10.8393

>  <SCORE.INTER>
-9.69235

>  <SCORE.INTER.CONST>
1

>  <SCORE.INTER.POLAR>
0

>  <SCORE.INTER.ROT>
5

>  <SCORE.INTER.SOLV>
14.9519

>  <SCORE.INTER.VDW>
-18.3789

>  <SCORE.INTER.norm>
-0.440561

>  <SCORE.INTRA>
-1.14697

>  <SCORE.INTRA.DIHEDRAL>
-1.52698

>  <SCORE.INTRA.DIHEDRAL.0>
3.49807

>  <SCORE.INTRA.POLAR>
0

>  <SCORE.INTRA.POLAR.0>
0

>  <SCORE.INTRA.REPUL>
0

>  <SCORE.INTRA.REPUL.0>
0

>  <SCORE.INTRA.SOLV>
-0.29924

>  <SCORE.INTRA.SOLV.lig_0>
-73.062

>  <SCORE.INTRA.VDW>
-0.233867

>  <SCORE.INTRA.VDW.0>
-1.83782

>  <SCORE.INTRA.norm>
-0.0521352

>  <SCORE.RESTR>
0

>  <SCORE.RESTR.CAVITY>
0

>  <SCORE.RESTR.norm>
0

>  <SCORE.SYSTEM>
0

>  <SCORE.SYSTEM.CONST>
0

>  <SCORE.SYSTEM.DIHEDRAL>
0

>  <SCORE.SYSTEM.SOLV>
0

>  <SCORE.SYSTEM.norm>
0

>  <SCORE.heavy>
22

>  <SCORE.norm>
-0.492697

>  <RMSD>
12.673

$$$$
ligand
 OpenBabel02271912143D
libRbt.so/2013.1/901 2013/11/27
 22 23  0  0  0  0  0  0  0  0999 V2000
  -32.3999    6.8590  -20.3065 N   0  0  0  0  0  0  0  0  0  0  0  0
  -32.1936    3.9195  -18.6423 C   0  0  1  0  0  0  0  0  0  0  0  0
  -31.6217    4.7851  -19.6639 O   0  0  0  0  0  0  0  0  0  0  0  0
  -34.2905    2.8296  -21.5911 P   0  0  1  0  0  0  0  0  0  0  0  0
  -31.8398    6.1481  -19.2652 C   0  0  2  0  0  0  0  0  0  0  0  0
  -33.6934    7.3937  -21.9654 N   0  0  0  0  0  0  0  0  0  0  0  0
  -32.7934    7.2195  -17.3577 O   0  0  0  0  0  0  0  0  0  0  0  0
  -32.8733    6.0700  -18.2085 C   0  0  2  0  0  0  0  0  0  0  0  0
  -33.7669    9.9090  -23.5016 N   0  0  0  0  0  0  0  0  0  0  0  0
  -31.4149    4.9634  -16.6933 O   0  0  0  0  0  0  0  0  0  0  0  0
  -32.5754    4.8153  -17.5287 C   0  0  2  0  0  0  0  0  0  0  0  0
  -32.8751    8.4289  -21.7216 C   0  0  0  0  0  0  0  0  0  0  0  0
  -31.0691    8.9226  -20.0913 N   0  0  0  0  0  0  0  0  0  0  0  0
  -33.1293    3.2167  -20.6112 O   0  0  0  0  0  0  0  0  0  0  0  0
  -33.3854    3.2589  -19.2451 C   0  0  0  0  0  0  0  0  0  0  0  0
  -33.7008    3.1838  -23.0044 O   0  0  0  0  0  0  0  0  0  0  0  0
  -33.3918    6.4172  -21.0884 C   0  0  0  0  0  0  0  0  0  0  0  0
  -32.0423   10.5824  -22.1757 O   0  0  0  0  0  0  0  0  0  0  0  0
  -32.8579    9.7054  -22.4598 C   0  0  0  0  0  0  0  0  0  0  0  0
  -32.0596    8.1009  -20.6763 C   0  0  0  0  0  0  0  0  0  0  0  0
  -34.6426    1.3905  -21.4092 O   0  5  0  0  0  0  0  0  0  0  0  0
  -35.5474    3.4924  -21.1994 O   0  0  0  0  0  0  0  0  0  0  0  0
  1 17  1  0  0  0  0
  1 20  1  0  0  0  0
  2 15  1  6  0  0  0
  2  3  1  0  0  0  0
  2 11  1  0  0  0  0
  3  5  1  0  0  0  0
  4 16  1  6  0  0  0
  4 21  1  0  0  0  0
  4 22  2  0  0  0  0
  4 14  1  0  0  0  0
  5  1  1  6  0  0  0
  5  8  1  0  0  0  0
  6 17  2  0  0  0  0
  6 12  1  0  0  0  0
  8  7  1  1  0  0  0
  8 11  1  0  0  0  0
  9 19  1  0  0  0  0
 11 10  1  1  0  0  0
 12 20  2  0  0  0  0
 12 19  1  0  0  0  0
 13 20  1  0  0  0  0
 14 15  1  0  0  0  0
 18 19  2  0  0  0  0
M  CHG  1  21  -1
M  END
>  <CHROM.1>
43.66245042,27.06209123,168.67750598,-168.55936345,0.93286857,-33.00632548
5.72106487,-20.43554005,-1.09904412,1.10652230,2.56369224

>  <Name>
ligand

>  <RI>
0

>  <Rbt.Current_Directory>
/home/itssahil/PROJECTS/Mol_Feturizer/Test_systems_manuscript/rnas/4xwf

>  <Rbt.Executable>
rbdock ($Id: //depot/dev/client3/rdock/2013.1/src/exe/rbdock.cxx#4 $)

>  <Rbt.Library>
libRbt.so (2013.1, Build901 2013/11/27)

>  <Rbt.Parameter_File>
/export/apps/rDock/src/rDock_2013.1_src/data/scripts/dock_solv.prm

>  <Rbt.Receptor>
prm/blind_docking_100.prm

>  <SCORE>
-8.97824

>  <SCORE.INTER>
-10.489

>  <SCORE.INTER.CONST>
1

>  <SCORE.INTER.POLAR>
0

>  <SCORE.INTER.ROT>
5

>  <SCORE.INTER.SOLV>
15.9216

>  <SCORE.INTER.VDW>
-19.2332

>  <SCORE.INTER.norm>
-0.476772

>  <SCORE.INTRA>
1.51075

>  <SCORE.INTRA.DIHEDRAL>
1.81195

>  <SCORE.INTRA.DIHEDRAL.0>
3.49807

>  <SCORE.INTRA.POLAR>
0

>  <SCORE.INTRA.POLAR.0>
0

>  <SCORE.INTRA.REPUL>
0

>  <SCORE.INTRA.REPUL.0>
0

>  <SCORE.INTRA.SOLV>
0.692938

>  <SCORE.INTRA.SOLV.lig_0>
-73.062

>  <SCORE.INTRA.VDW>
0.258306

>  <SCORE.INTRA.VDW.0>
-1.83782

>  <SCORE.INTRA.norm>
0.0686705

>  <SCORE.RESTR>
0

>  <SCORE.RESTR.CAVITY>
0

>  <SCORE.RESTR.norm>
0

>  <SCORE.SYSTEM>
0

>  <SCORE.SYSTEM.CONST>
0

>  <SCORE.SYSTEM.DIHEDRAL>
0

>  <SCORE.SYSTEM.SOLV>
0

>  <SCORE.SYSTEM.norm>
0

>  <SCORE.heavy>
22

>  <SCORE.norm>
-0.408102

>  <RMSD>
12.675

$$$$
ligand
 OpenBabel02271912143D
libRbt.so/2013.1/901 2013/11/27
 22 23  0  0  0  0  0  0  0  0999 V2000
  -35.9701   -2.4218  -14.8872 N   0  0  0  0  0  0  0  0  0  0  0  0
  -35.4330   -5.5493  -16.0631 C   0  0  1  0  0  0  0  0  0  0  0  0
  -36.4118   -4.5321  -15.7065 O   0  0  0  0  0  0  0  0  0  0  0  0
  -33.4889   -8.1236  -14.0752 P   0  0  1  0  0  0  0  0  0  0  0  0
  -35.8379   -3.2450  -15.9863 C   0  0  2  0  0  0  0  0  0  0  0  0
  -36.6401   -0.8072  -13.6007 N   0  0  0  0  0  0  0  0  0  0  0  0
  -33.7893   -2.4791  -16.9417 O   0  0  0  0  0  0  0  0  0  0  0  0
  -34.3892   -3.5051  -16.1422 C   0  0  2  0  0  0  0  0  0  0  0  0
  -35.8670   -2.2320  -10.5051 N   0  0  0  0  0  0  0  0  0  0  0  0
  -34.7033   -4.7496  -18.1422 O   0  0  0  0  0  0  0  0  0  0  0  0
  -34.3414   -4.8278  -16.7532 C   0  0  2  0  0  0  0  0  0  0  0  0
  -35.7989   -1.5812  -12.8980 C   0  0  0  0  0  0  0  0  0  0  0  0
  -34.4987   -3.6500  -13.3374 N   0  0  0  0  0  0  0  0  0  0  0  0
  -34.1735   -7.2461  -15.1797 O   0  0  0  0  0  0  0  0  0  0  0  0
  -34.9612   -6.1676  -14.7922 C   0  0  0  0  0  0  0  0  0  0  0  0
  -32.5143   -7.1138  -13.3674 O   0  0  0  0  0  0  0  0  0  0  0  0
  -36.7399   -1.3284  -14.8384 C   0  0  0  0  0  0  0  0  0  0  0  0
  -34.6682   -0.4215  -11.1910 O   0  0  0  0  0  0  0  0  0  0  0  0
  -35.3978   -1.3649  -11.4955 C   0  0  0  0  0  0  0  0  0  0  0  0
  -35.3752   -2.6019  -13.7005 C   0  0  0  0  0  0  0  0  0  0  0  0
  -34.5311   -8.7092  -13.1814 O   0  5  0  0  0  0  0  0  0  0  0  0
  -32.8923   -9.3352  -14.6658 O   0  0  0  0  0  0  0  0  0  0  0  0
  1 17  1  0  0  0  0
  1 20  1  0  0  0  0
  2 15  1  1  0  0  0
  2  3  1  0  0  0  0
  2 11  1  0  0  0  0
  3  5  1  0  0  0  0
  4 16  1  1  0  0  0
  4 21  1  0  0  0  0
  4 22  2  0  0  0  0
  4 14  1  0  0  0  0
  5  1  1  1  0  0  0
  5  8  1  0  0  0  0
  6 17  2  0  0  0  0
  6 12  1  0  0  0  0
  8  7  1  6  0  0  0
  8 11  1  0  0  0  0
  9 19  1  0  0  0  0
 11 10  1  6  0  0  0
 12 20  2  0  0  0  0
 12 19  1  0  0  0  0
 13 20  1  0  0  0  0
 14 15  1  0  0  0  0
 18 19  2  0  0  0  0
M  CHG  1  21  -1
M  END
>  <CHROM.1>
-112.89653805,172.15796735,-63.24630071,179.17672531,109.11318096,-34.79667345
-4.51075871,-14.43645003,2.72996000,-1.24998874,1.36749272

>  <Name>
ligand

>  <RI>
0

>  <Rbt.Current_Directory>
/home/itssahil/PROJECTS/Mol_Feturizer/Test_systems_manuscript/rnas/4xwf

>  <Rbt.Executable>
rbdock ($Id: //depot/dev/client3/rdock/2013.1/src/exe/rbdock.cxx#4 $)

>  <Rbt.Library>
libRbt.so (2013.1, Build901 2013/11/27)

>  <Rbt.Parameter_File>
/export/apps/rDock/src/rDock_2013.1_src/data/scripts/dock_solv.prm

>  <Rbt.Receptor>
prm/blind_docking_40.prm

>  <SCORE>
-6.24234

>  <SCORE.INTER>
-8.7123

>  <SCORE.INTER.CONST>
1

>  <SCORE.INTER.POLAR>
0

>  <SCORE.INTER.ROT>
5

>  <SCORE.INTER.SOLV>
14.1584

>  <SCORE.INTER.VDW>
-17.461

>  <SCORE.INTER.norm>
-0.396014

>  <SCORE.INTRA>
1.73924

>  <SCORE.INTRA.DIHEDRAL>
-1.63285

>  <SCORE.INTRA.DIHEDRAL.0>
3.49807

>  <SCORE.INTRA.POLAR>
0

>  <SCORE.INTRA.POLAR.0>
0

>  <SCORE.INTRA.REPUL>
0

>  <SCORE.INTRA.REPUL.0>
0

>  <SCORE.INTRA.SOLV>
4.63569

>  <SCORE.INTRA.SOLV.lig_0>
-73.062

>  <SCORE.INTRA.VDW>
0.237824

>  <SCORE.INTRA.VDW.0>
-1.83782

>  <SCORE.INTRA.norm>
0.0790565

>  <SCORE.RESTR>
0.730719

>  <SCORE.RESTR.CAVITY>
0.730719

>  <SCORE.RESTR.norm>
0.0332145

>  <SCORE.SYSTEM>
0

>  <SCORE.SYSTEM.CONST>
0

>  <SCORE.SYSTEM.DIHEDRAL>
0

>  <SCORE.SYSTEM.SOLV>
0

>  <SCORE.SYSTEM.norm>
0

>  <SCORE.heavy>
22

>  <SCORE.norm>
-0.283743

>  <RMSD>
12.680

$$$$
ligand
 OpenBabel02271912143D
libRbt.so/2013.1/901 2013/11/27
 22 23  0  0  0  0  0  0  0  0999 V2000
  -33.6083    8.2638  -18.8032 N   0  0  0  0  0  0  0  0  0  0  0  0
  -34.9341   10.0996  -21.3182 C   0  0  1  0  0  0  0  0  0  0  0  0
  -34.6673   10.0007  -19.8902 O   0  0  0  0  0  0  0  0  0  0  0  0
  -36.8551    6.8385  -21.1371 P   0  0  1  0  0  0  0  0  0  0  0  0
  -33.4348    9.2831  -19.7166 C   0  0  2  0  0  0  0  0  0  0  0  0
  -34.5624    6.8624  -17.4479 N   0  0  0  0  0  0  0  0  0  0  0  0
  -31.7917    8.3654  -21.1843 O   0  0  0  0  0  0  0  0  0  0  0  0
  -33.1894    8.6353  -21.0246 C   0  0  2  0  0  0  0  0  0  0  0  0
  -31.3562    5.0074  -17.1906 N   0  0  0  0  0  0  0  0  0  0  0  0
  -32.8183   10.7108  -22.1208 O   0  0  0  0  0  0  0  0  0  0  0  0
  -33.7151    9.5953  -21.9875 C   0  0  2  0  0  0  0  0  0  0  0  0
  -33.2509    6.5812  -17.4865 C   0  0  0  0  0  0  0  0  0  0  0  0
  -31.2719    7.4882  -18.6800 N   0  0  0  0  0  0  0  0  0  0  0  0
  -35.8238    8.0123  -21.0059 O   0  0  0  0  0  0  0  0  0  0  0  0
  -36.1124    9.2338  -21.6045 C   0  0  0  0  0  0  0  0  0  0  0  0
  -36.2855    5.7490  -20.1578 O   0  0  0  0  0  0  0  0  0  0  0  0
  -34.7807    7.9124  -18.2625 C   0  0  0  0  0  0  0  0  0  0  0  0
  -33.0898    5.0413  -15.7145 O   0  0  0  0  0  0  0  0  0  0  0  0
  -32.5778    5.5076  -16.7321 C   0  0  0  0  0  0  0  0  0  0  0  0
  -32.6438    7.4576  -18.3402 C   0  0  0  0  0  0  0  0  0  0  0  0
  -38.2216    7.3293  -20.7911 O   0  5  0  0  0  0  0  0  0  0  0  0
  -37.0294    6.4516  -22.5487 O   0  0  0  0  0  0  0  0  0  0  0  0
  1 17  1  0  0  0  0
  1 20  1  0  0  0  0
  2 15  1  1  0  0  0
  2  3  1  0  0  0  0
  2 11  1  0  0  0  0
  3  5  1  0  0  0  0
  4 16  1  1  0  0  0
  4 21  1  0  0  0  0
  4 22  2  0  0  0  0
  4 14  1  0  0  0  0
  5  1  1  1  0  0  0
  5  8  1  0  0  0  0
  6 17  2  0  0  0  0
  6 12  1  0  0  0  0
  8  7  1  6  0  0  0
  8 11  1  0  0  0  0
  9 19  1  0  0  0  0
 11 10  1  1  0  0  0
 12 20  2  0  0  0  0
 12 19  1  0  0  0  0
 13 20  1  0  0  0  0
 14 15  1  0  0  0  0
 18 19  2  0  0  0  0
M  CHG  1  21  -1
M  END
>  <CHROM.1>
6.19001739,-49.61882882,-171.27939631,-178.80279833,157.21417767,-34.38400727
7.69953801,-19.83117915,-0.88084996,-0.41613168,-0.78554232

>  <Name>
ligand

>  <RI>
0

>  <Rbt.Current_Directory>
/home/itssahil/PROJECTS/Mol_Feturizer/Test_systems_manuscript/rnas/4xwf

>  <Rbt.Executable>
rbdock ($Id: //depot/dev/client3/rdock/2013.1/src/exe/rbdock.cxx#4 $)

>  <Rbt.Library>
libRbt.so (2013.1, Build901 2013/11/27)

>  <Rbt.Parameter_File>
/export/apps/rDock/src/rDock_2013.1_src/data/scripts/dock_solv.prm

>  <Rbt.Receptor>
prm/blind_docking_100.prm

>  <SCORE>
-7.91021

>  <SCORE.INTER>
-9.05106

>  <SCORE.INTER.CONST>
1

>  <SCORE.INTER.POLAR>
0

>  <SCORE.INTER.ROT>
5

>  <SCORE.INTER.SOLV>
11.487

>  <SCORE.INTER.VDW>
-16.7964

>  <SCORE.INTER.norm>
-0.411412

>  <SCORE.INTRA>
1.14085

>  <SCORE.INTRA.DIHEDRAL>
-0.356225

>  <SCORE.INTRA.DIHEDRAL.0>
3.49807

>  <SCORE.INTRA.POLAR>
0

>  <SCORE.INTRA.POLAR.0>
0

>  <SCORE.INTRA.REPUL>
0

>  <SCORE.INTRA.REPUL.0>
0

>  <SCORE.INTRA.SOLV>
2.72983

>  <SCORE.INTRA.SOLV.lig_0>
-73.062

>  <SCORE.INTRA.VDW>
-0.0459541

>  <SCORE.INTRA.VDW.0>
-1.83782

>  <SCORE.INTRA.norm>
0.0518568

>  <SCORE.RESTR>
0

>  <SCORE.RESTR.CAVITY>
0

>  <SCORE.RESTR.norm>
0

>  <SCORE.SYSTEM>
0

>  <SCORE.SYSTEM.CONST>
0

>  <SCORE.SYSTEM.DIHEDRAL>
0

>  <SCORE.SYSTEM.SOLV>
0

>  <SCORE.SYSTEM.norm>
0

>  <SCORE.heavy>
22

>  <SCORE.norm>
-0.359555

>  <RMSD>
12.686

$$$$
ligand
 OpenBabel02271912143D
libRbt.so/2013.1/901 2013/11/27
 22 23  0  0  0  0  0  0  0  0999 V2000
  -33.4730    7.1234  -20.0449 N   0  0  0  0  0  0  0  0  0  0  0  0
  -32.6734    3.8400  -20.2253 C   0  0  1  0  0  0  0  0  0  0  0  0
  -32.6102    5.1472  -20.8634 O   0  0  0  0  0  0  0  0  0  0  0  0
  -35.3221    1.1360  -20.0468 P   0  0  1  0  0  0  0  0  0  0  0  0
  -32.5266    6.1427  -19.8308 C   0  0  2  0  0  0  0  0  0  0  0  0
  -35.3760    8.0869  -20.4468 N   0  0  0  0  0  0  0  0  0  0  0  0
  -32.3806    6.0997  -17.4490 O   0  0  0  0  0  0  0  0  0  0  0  0
  -32.9289    5.4361  -18.5939 C   0  0  2  0  0  0  0  0  0  0  0  0
  -33.9901   11.3036  -21.1217 N   0  0  0  0  0  0  0  0  0  0  0  0
  -30.9930    4.0580  -18.6057 O   0  0  0  0  0  0  0  0  0  0  0  0
  -32.4185    4.0846  -18.7888 C   0  0  2  0  0  0  0  0  0  0  0  0
  -34.4627    9.0427  -20.2166 C   0  0  0  0  0  0  0  0  0  0  0  0
  -32.0472    9.0940  -19.6456 N   0  0  0  0  0  0  0  0  0  0  0  0
  -34.0164    2.0014  -19.9762 O   0  0  0  0  0  0  0  0  0  0  0  0
  -34.0460    3.3072  -20.4535 C   0  0  0  0  0  0  0  0  0  0  0  0
  -34.8307   -0.2915  -19.6095 O   0  0  0  0  0  0  0  0  0  0  0  0
  -34.7568    6.8953  -20.3454 C   0  0  0  0  0  0  0  0  0  0  0  0
  -35.5387   11.0014  -19.4796 O   0  0  0  0  0  0  0  0  0  0  0  0
  -34.7127   10.4959  -20.2394 C   0  0  0  0  0  0  0  0  0  0  0  0
  -33.2625    8.4437  -19.9598 C   0  0  0  0  0  0  0  0  0  0  0  0
  -36.3670    1.7300  -19.1617 O   0  5  0  0  0  0  0  0  0  0  0  0
  -35.9562    1.2544  -21.3721 O   0  0  0  0  0  0  0  0  0  0  0  0
  1 17  1  0  0  0  0
  1 20  1  0  0  0  0
  2 15  1  1  0  0  0
  2  3  1  0  0  0  0
  2 11  1  0  0  0  0
  3  5  1  0  0  0  0
  4 16  1  1  0  0  0
  4 21  1  0  0  0  0
  4 22  2  0  0  0  0
  4 14  1  0  0  0  0
  5  1  1  6  0  0  0
  5  8  1  0  0  0  0
  6 17  2  0  0  0  0
  6 12  1  0  0  0  0
  8  7  1  1  0  0  0
  8 11  1  0  0  0  0
  9 19  1  0  0  0  0
 11 10  1  6  0  0  0
 12 20  2  0  0  0  0
 12 19  1  0  0  0  0
 13 20  1  0  0  0  0
 14 15  1  0  0  0  0
 18 19  2  0  0  0  0
M  CHG  1  21  -1
M  END
>  <CHROM.1>
46.54837154,172.96058786,172.54630963,179.32456233,-121.39282872,-33.94058566
5.31423197,-19.83448161,-1.46922252,0.37133564,3.09339650

>  <Name>
ligand

>  <RI>
0

>  <Rbt.Current_Directory>
/home/itssahil/PROJECTS/Mol_Feturizer/Test_systems_manuscript/rnas/4xwf

>  <Rbt.Executable>
rbdock ($Id: //depot/dev/client3/rdock/2013.1/src/exe/rbdock.cxx#4 $)

>  <Rbt.Library>
libRbt.so (2013.1, Build901 2013/11/27)

>  <Rbt.Parameter_File>
/export/apps/rDock/src/rDock_2013.1_src/data/scripts/dock_solv.prm

>  <Rbt.Receptor>
prm/blind_docking_80.prm

>  <SCORE>
-9.83632

>  <SCORE.INTER>
-8.98604

>  <SCORE.INTER.CONST>
1

>  <SCORE.INTER.POLAR>
0

>  <SCORE.INTER.ROT>
5

>  <SCORE.INTER.SOLV>
16.3345

>  <SCORE.INTER.VDW>
-18.3689

>  <SCORE.INTER.norm>
-0.408457

>  <SCORE.INTRA>
-0.850274

>  <SCORE.INTRA.DIHEDRAL>
-1.7198

>  <SCORE.INTRA.DIHEDRAL.0>
3.49807

>  <SCORE.INTRA.POLAR>
0

>  <SCORE.INTRA.POLAR.0>
0

>  <SCORE.INTRA.REPUL>
0

>  <SCORE.INTRA.REPUL.0>
0

>  <SCORE.INTRA.SOLV>
0.270711

>  <SCORE.INTRA.SOLV.lig_0>
-73.062

>  <SCORE.INTRA.VDW>
-0.125728

>  <SCORE.INTRA.VDW.0>
-1.83782

>  <SCORE.INTRA.norm>
-0.0386488

>  <SCORE.RESTR>
0

>  <SCORE.RESTR.CAVITY>
0

>  <SCORE.RESTR.norm>
0

>  <SCORE.SYSTEM>
0

>  <SCORE.SYSTEM.CONST>
0

>  <SCORE.SYSTEM.DIHEDRAL>
0

>  <SCORE.SYSTEM.SOLV>
0

>  <SCORE.SYSTEM.norm>
0

>  <SCORE.heavy>
22

>  <SCORE.norm>
-0.447105

>  <RMSD>
12.692

$$$$
ligand
 OpenBabel02271912143D
libRbt.so/2013.1/901 2013/11/27
 22 23  0  0  0  0  0  0  0  0999 V2000
  -35.0843    5.7429  -20.6519 N   0  0  0  0  0  0  0  0  0  0  0  0
  -32.9675    7.9101  -19.1436 C   0  0  1  0  0  0  0  0  0  0  0  0
  -34.2536    7.2292  -19.0961 O   0  0  0  0  0  0  0  0  0  0  0  0
  -34.5672   11.1030  -20.4101 P   0  0  1  0  0  0  0  0  0  0  0  0
  -34.0969    5.9391  -19.7087 C   0  0  2  0  0  0  0  0  0  0  0  0
  -36.6231    6.1491  -22.1279 N   0  0  0  0  0  0  0  0  0  0  0  0
  -32.2676    4.7201  -20.6382 O   0  0  0  0  0  0  0  0  0  0  0  0
  -32.8201    6.0285  -20.4522 C   0  0  2  0  0  0  0  0  0  0  0  0
  -37.9416    4.2212  -23.9473 N   0  0  0  0  0  0  0  0  0  0  0  0
  -31.5311    6.1876  -18.4621 O   0  0  0  0  0  0  0  0  0  0  0  0
  -31.9985    6.8992  -19.6204 C   0  0  2  0  0  0  0  0  0  0  0  0
  -36.4508    4.8202  -22.0571 C   0  0  0  0  0  0  0  0  0  0  0  0
  -34.9843    3.2830  -20.7727 N   0  0  0  0  0  0  0  0  0  0  0  0
  -34.1289    9.8287  -19.6084 O   0  0  0  0  0  0  0  0  0  0  0  0
  -33.1032    9.0354  -20.1107 C   0  0  0  0  0  0  0  0  0  0  0  0
  -35.0256   12.0969  -19.2821 O   0  0  0  0  0  0  0  0  0  0  0  0
  -35.7769    6.7197  -21.2492 C   0  0  0  0  0  0  0  0  0  0  0  0
  -37.1516    2.6241  -22.5293 O   0  0  0  0  0  0  0  0  0  0  0  0
  -37.1863    3.8134  -22.8444 C   0  0  0  0  0  0  0  0  0  0  0  0
  -35.4812    4.5568  -21.1320 C   0  0  0  0  0  0  0  0  0  0  0  0
  -33.4269   11.5909  -21.2405 O   0  5  0  0  0  0  0  0  0  0  0  0
  -35.5574   10.7542  -21.4448 O   0  0  0  0  0  0  0  0  0  0  0  0
  1 17  1  0  0  0  0
  1 20  1  0  0  0  0
  2 15  1  6  0  0  0
  2  3  1  0  0  0  0
  2 11  1  0  0  0  0
  3  5  1  0  0  0  0
  4 16  1  1  0  0  0
  4 21  1  0  0  0  0
  4 22  2  0  0  0  0
  4 14  1  0  0  0  0
  5  1  1  6  0  0  0
  5  8  1  0  0  0  0
  6 17  2  0  0  0  0
  6 12  1  0  0  0  0
  8  7  1  1  0  0  0
  8 11  1  0  0  0  0
  9 19  1  0  0  0  0
 11 10  1  1  0  0  0
 12 20  2  0  0  0  0
 12 19  1  0  0  0  0
 13 20  1  0  0  0  0
 14 15  1  0  0  0  0
 18 19  2  0  0  0  0
M  CHG  1  21  -1
M  END
>  <CHROM.1>
21.65809102,59.06197813,-148.29582387,-178.48642551,13.58808270,-34.60957758
7.20215408,-20.69756610,-1.92348180,-0.59119882,0.07878209

>  <Name>
ligand

>  <RI>
0

>  <Rbt.Current_Directory>
/home/itssahil/PROJECTS/Mol_Feturizer/Test_systems_manuscript/rnas/4xwf

>  <Rbt.Executable>
rbdock ($Id: //depot/dev/client3/rdock/2013.1/src/exe/rbdock.cxx#4 $)

>  <Rbt.Library>
libRbt.so (2013.1, Build901 2013/11/27)

>  <Rbt.Parameter_File>
/export/apps/rDock/src/rDock_2013.1_src/data/scripts/dock_solv.prm

>  <Rbt.Receptor>
prm/blind_docking_100.prm

>  <SCORE>
-8.8388

>  <SCORE.INTER>
-9.00718

>  <SCORE.INTER.CONST>
1

>  <SCORE.INTER.POLAR>
0

>  <SCORE.INTER.ROT>
5

>  <SCORE.INTER.SOLV>
11.5579

>  <SCORE.INTER.VDW>
-16.7907

>  <SCORE.INTER.norm>
-0.409417

>  <SCORE.INTRA>
0.168379

>  <SCORE.INTRA.DIHEDRAL>
-0.582449

>  <SCORE.INTRA.DIHEDRAL.0>
3.49807

>  <SCORE.INTRA.POLAR>
0

>  <SCORE.INTRA.POLAR.0>
0

>  <SCORE.INTRA.REPUL>
0

>  <SCORE.INTRA.REPUL.0>
0

>  <SCORE.INTRA.SOLV>
0.953855

>  <SCORE.INTRA.SOLV.lig_0>
-73.062

>  <SCORE.INTRA.VDW>
-0.0173239

>  <SCORE.INTRA.VDW.0>
-1.83782

>  <SCORE.INTRA.norm>
0.00765359

>  <SCORE.RESTR>
0

>  <SCORE.RESTR.CAVITY>
0

>  <SCORE.RESTR.norm>
0

>  <SCORE.SYSTEM>
0

>  <SCORE.SYSTEM.CONST>
0

>  <SCORE.SYSTEM.DIHEDRAL>
0

>  <SCORE.SYSTEM.SOLV>
0

>  <SCORE.SYSTEM.norm>
0

>  <SCORE.heavy>
22

>  <SCORE.norm>
-0.401764

>  <RMSD>
12.700

$$$$
ligand
 OpenBabel02271912143D
libRbt.so/2013.1/901 2013/11/27
 22 23  0  0  0  0  0  0  0  0999 V2000
  -33.3082    6.6238  -19.9814 N   0  0  0  0  0  0  0  0  0  0  0  0
  -33.1149    3.3069  -20.6245 C   0  0  1  0  0  0  0  0  0  0  0  0
  -33.0241    4.6593  -21.1561 O   0  0  0  0  0  0  0  0  0  0  0  0
  -36.0028    0.9409  -19.9867 P   0  0  1  0  0  0  0  0  0  0  0  0
  -32.5058    5.5103  -20.1210 C   0  0  2  0  0  0  0  0  0  0  0  0
  -35.0333    7.8705  -19.5560 N   0  0  0  0  0  0  0  0  0  0  0  0
  -31.7222    5.1754  -17.8916 O   0  0  0  0  0  0  0  0  0  0  0  0
  -32.6601    4.7248  -18.8760 C   0  0  2  0  0  0  0  0  0  0  0  0
  -35.2696   10.8039  -19.7480 N   0  0  0  0  0  0  0  0  0  0  0  0
  -31.0430    3.1171  -19.5450 O   0  0  0  0  0  0  0  0  0  0  0  0
  -32.4416    3.3498  -19.3081 C   0  0  2  0  0  0  0  0  0  0  0  0
  -34.0112    8.6710  -19.8955 C   0  0  0  0  0  0  0  0  0  0  0  0
  -31.6339    8.3466  -20.5330 N   0  0  0  0  0  0  0  0  0  0  0  0
  -34.6093    1.6489  -20.1108 O   0  0  0  0  0  0  0  0  0  0  0  0
  -34.5636    2.9869  -20.4869 C   0  0  0  0  0  0  0  0  0  0  0  0
  -36.6091    1.0863  -21.4296 O   0  0  0  0  0  0  0  0  0  0  0  0
  -34.5953    6.5985  -19.6161 C   0  0  0  0  0  0  0  0  0  0  0  0
  -33.0465   10.7893  -20.2412 O   0  0  0  0  0  0  0  0  0  0  0  0
  -34.0585   10.1430  -19.9705 C   0  0  0  0  0  0  0  0  0  0  0  0
  -32.9205    7.8934  -20.1618 C   0  0  0  0  0  0  0  0  0  0  0  0
  -35.8117   -0.4684  -19.5337 O   0  5  0  0  0  0  0  0  0  0  0  0
  -36.7789    1.5073  -18.8689 O   0  0  0  0  0  0  0  0  0  0  0  0
  1 17  1  0  0  0  0
  1 20  1  0  0  0  0
  2 15  1  1  0  0  0
  2  3  1  0  0  0  0
  2 11  1  0  0  0  0
  3  5  1  0  0  0  0
  4 16  1  6  0  0  0
  4 21  1  0  0  0  0
  4 22  2  0  0  0  0
  4 14  1  0  0  0  0
  5  1  1  1  0  0  0
  5  8  1  0  0  0  0
  6 17  2  0  0  0  0
  6 12  1  0  0  0  0
  8  7  1  1  0  0  0
  8 11  1  0  0  0  0
  9 19  1  0  0  0  0
 11 10  1  6  0  0  0
 12 20  2  0  0  0  0
 12 19  1  0  0  0  0
 13 20  1  0  0  0  0
 14 15  1  0  0  0  0
 18 19  2  0  0  0  0
M  CHG  1  21  -1
M  END
>  <CHROM.1>
62.45720192,174.04882095,59.24179800,-175.15307814,-3.75665034,-33.98783171
4.86860849,-19.89698084,-1.32869300,0.11659488,3.11734759

>  <Name>
ligand

>  <RI>
0

>  <Rbt.Current_Directory>
/home/itssahil/PROJECTS/Mol_Feturizer/Test_systems_manuscript/rnas/4xwf

>  <Rbt.Executable>
rbdock ($Id: //depot/dev/client3/rdock/2013.1/src/exe/rbdock.cxx#4 $)

>  <Rbt.Library>
libRbt.so (2013.1, Build901 2013/11/27)

>  <Rbt.Parameter_File>
/export/apps/rDock/src/rDock_2013.1_src/data/scripts/dock_solv.prm

>  <Rbt.Receptor>
prm/blind_docking_60.prm

>  <SCORE>
-10.7177

>  <SCORE.INTER>
-9.77485

>  <SCORE.INTER.CONST>
1

>  <SCORE.INTER.POLAR>
0

>  <SCORE.INTER.ROT>
5

>  <SCORE.INTER.SOLV>
15.562

>  <SCORE.INTER.VDW>
-18.6372

>  <SCORE.INTER.norm>
-0.444311

>  <SCORE.INTRA>
-0.942844

>  <SCORE.INTRA.DIHEDRAL>
-1.72419

>  <SCORE.INTRA.DIHEDRAL.0>
3.49807

>  <SCORE.INTRA.POLAR>
0

>  <SCORE.INTRA.POLAR.0>
0

>  <SCORE.INTRA.REPUL>
0

>  <SCORE.INTRA.REPUL.0>
0

>  <SCORE.INTRA.SOLV>
-0.97799

>  <SCORE.INTRA.SOLV.lig_0>
-73.062

>  <SCORE.INTRA.VDW>
0.408248

>  <SCORE.INTRA.VDW.0>
-1.83782

>  <SCORE.INTRA.norm>
-0.0428565

>  <SCORE.RESTR>
0

>  <SCORE.RESTR.CAVITY>
0

>  <SCORE.RESTR.norm>
0

>  <SCORE.SYSTEM>
0

>  <SCORE.SYSTEM.CONST>
0

>  <SCORE.SYSTEM.DIHEDRAL>
0

>  <SCORE.SYSTEM.SOLV>
0

>  <SCORE.SYSTEM.norm>
0

>  <SCORE.heavy>
22

>  <SCORE.norm>
-0.487168

>  <RMSD>
12.723

$$$$
ligand
 OpenBabel02271912143D
libRbt.so/2013.1/901 2013/11/27
 22 23  0  0  0  0  0  0  0  0999 V2000
  -33.2728    6.8011  -19.8905 N   0  0  0  0  0  0  0  0  0  0  0  0
  -33.0046    3.4916  -20.5444 C   0  0  1  0  0  0  0  0  0  0  0  0
  -32.8632    4.8497  -21.0498 O   0  0  0  0  0  0  0  0  0  0  0  0
  -35.9453    1.1364  -20.1447 P   0  0  1  0  0  0  0  0  0  0  0  0
  -32.4570    5.6906  -19.9579 C   0  0  2  0  0  0  0  0  0  0  0  0
  -35.0141    8.0514  -19.5502 N   0  0  0  0  0  0  0  0  0  0  0  0
  -31.9070    5.3337  -17.6632 O   0  0  0  0  0  0  0  0  0  0  0  0
  -32.7369    4.8917  -18.7437 C   0  0  2  0  0  0  0  0  0  0  0  0
  -35.2284   10.9876  -19.7392 N   0  0  0  0  0  0  0  0  0  0  0  0
  -31.0547    3.2941  -19.2586 O   0  0  0  0  0  0  0  0  0  0  0  0
  -32.4710    3.5217  -19.1650 C   0  0  2  0  0  0  0  0  0  0  0  0
  -33.9995    8.8414  -19.9337 C   0  0  0  0  0  0  0  0  0  0  0  0
  -31.6153    8.5062  -20.5395 N   0  0  0  0  0  0  0  0  0  0  0  0
  -34.5419    1.8352  -20.1708 O   0  0  0  0  0  0  0  0  0  0  0  0
  -34.4589    3.1675  -20.5605 C   0  0  0  0  0  0  0  0  0  0  0  0
  -36.4316    1.2521  -21.6349 O   0  0  0  0  0  0  0  0  0  0  0  0
  -34.5613    6.7833  -19.5302 C   0  0  0  0  0  0  0  0  0  0  0  0
  -33.1067   10.9255  -20.5640 O   0  0  0  0  0  0  0  0  0  0  0  0
  -34.0631   10.3054  -20.0992 C   0  0  0  0  0  0  0  0  0  0  0  0
  -32.8986    8.0617  -20.1469 C   0  0  0  0  0  0  0  0  0  0  0  0
  -35.8004   -0.2632  -19.6468 O   0  5  0  0  0  0  0  0  0  0  0  0
  -36.8059    1.7312  -19.1064 O   0  0  0  0  0  0  0  0  0  0  0  0
  1 17  1  0  0  0  0
  1 20  1  0  0  0  0
  2 15  1  1  0  0  0
  2  3  1  0  0  0  0
  2 11  1  0  0  0  0
  3  5  1  0  0  0  0
  4 16  1  6  0  0  0
  4 21  1  0  0  0  0
  4 22  2  0  0  0  0
  4 14  1  0  0  0  0
  5  1  1  1  0  0  0
  5  8  1  0  0  0  0
  6 17  2  0  0  0  0
  6 12  1  0  0  0  0
  8  7  1  1  0  0  0
  8 11  1  0  0  0  0
  9 19  1  0  0  0  0
 11 10  1  6  0  0  0
 12 20  2  0  0  0  0
 12 19  1  0  0  0  0
 13 20  1  0  0  0  0
 14 15  1  0  0  0  0
 18 19  2  0  0  0  0
M  CHG  1  21  -1
M  END
>  <CHROM.1>
69.47094278,175.56591631,59.77909771,-177.07195026,5.34585049,-33.96220836
5.04757851,-19.90811205,-1.33411212,0.19955704,3.10474781

>  <Name>
ligand

>  <RI>
0

>  <Rbt.Current_Directory>
/home/itssahil/PROJECTS/Mol_Feturizer/Test_systems_manuscript/rnas/4xwf

>  <Rbt.Executable>
rbdock ($Id: //depot/dev/client3/rdock/2013.1/src/exe/rbdock.cxx#4 $)

>  <Rbt.Library>
libRbt.so (2013.1, Build901 2013/11/27)

>  <Rbt.Parameter_File>
/export/apps/rDock/src/rDock_2013.1_src/data/scripts/dock_solv.prm

>  <Rbt.Receptor>
prm/blind_docking_60.prm

>  <SCORE>
-10.5807

>  <SCORE.INTER>
-9.81165

>  <SCORE.INTER.CONST>
1

>  <SCORE.INTER.POLAR>
0

>  <SCORE.INTER.ROT>
5

>  <SCORE.INTER.SOLV>
14.7865

>  <SCORE.INTER.VDW>
-18.4033

>  <SCORE.INTER.norm>
-0.445984

>  <SCORE.INTRA>
-0.769023

>  <SCORE.INTRA.DIHEDRAL>
-1.81239

>  <SCORE.INTRA.DIHEDRAL.0>
3.49807

>  <SCORE.INTRA.POLAR>
0

>  <SCORE.INTRA.POLAR.0>
0

>  <SCORE.INTRA.REPUL>
0

>  <SCORE.INTRA.REPUL.0>
0

>  <SCORE.INTRA.SOLV>
-1.10045

>  <SCORE.INTRA.SOLV.lig_0>
-73.062

>  <SCORE.INTRA.VDW>
0.687395

>  <SCORE.INTRA.VDW.0>
-1.83782

>  <SCORE.INTRA.norm>
-0.0349556

>  <SCORE.RESTR>
0

>  <SCORE.RESTR.CAVITY>
0

>  <SCORE.RESTR.norm>
0

>  <SCORE.SYSTEM>
0

>  <SCORE.SYSTEM.CONST>
0

>  <SCORE.SYSTEM.DIHEDRAL>
0

>  <SCORE.SYSTEM.SOLV>
0

>  <SCORE.SYSTEM.norm>
0

>  <SCORE.heavy>
22

>  <SCORE.norm>
-0.48094

>  <RMSD>
12.728

$$$$
ligand
 OpenBabel02271912143D
libRbt.so/2013.1/901 2013/11/27
 22 23  0  0  0  0  0  0  0  0999 V2000
  -33.5379   -6.5665  -14.2013 N   0  0  0  0  0  0  0  0  0  0  0  0
  -34.8489   -3.5076  -14.8152 C   0  0  1  0  0  0  0  0  0  0  0  0
  -33.6851   -4.3772  -14.9120 O   0  0  0  0  0  0  0  0  0  0  0  0
  -35.7980   -0.9889  -12.1505 P   0  0  1  0  0  0  0  0  0  0  0  0
  -34.1502   -5.7229  -15.1050 C   0  0  2  0  0  0  0  0  0  0  0  0
  -32.5675   -7.2885  -12.3990 N   0  0  0  0  0  0  0  0  0  0  0  0
  -36.2869   -6.7499  -15.3800 O   0  0  0  0  0  0  0  0  0  0  0  0
  -35.5828   -5.6823  -14.7349 C   0  0  2  0  0  0  0  0  0  0  0  0
  -31.1168  -10.1912  -13.4574 N   0  0  0  0  0  0  0  0  0  0  0  0
  -36.1495   -4.3118  -16.5917 O   0  0  0  0  0  0  0  0  0  0  0  0
  -36.0104   -4.3556  -15.1617 C   0  0  2  0  0  0  0  0  0  0  0  0
  -32.7404   -8.3297  -13.2276 C   0  0  0  0  0  0  0  0  0  0  0  0
  -33.7352   -8.6663  -15.4772 N   0  0  0  0  0  0  0  0  0  0  0  0
  -35.4707   -1.7540  -13.4795 O   0  0  0  0  0  0  0  0  0  0  0  0
  -34.9224   -3.0298  -13.4058 C   0  0  0  0  0  0  0  0  0  0  0  0
  -34.3892   -0.4826  -11.6715 O   0  0  0  0  0  0  0  0  0  0  0  0
  -33.0585   -6.1930  -13.0092 C   0  0  0  0  0  0  0  0  0  0  0  0
  -33.0644  -10.4729  -12.3116 O   0  0  0  0  0  0  0  0  0  0  0  0
  -32.3345   -9.7215  -12.9579 C   0  0  0  0  0  0  0  0  0  0  0  0
  -33.3537   -7.8835  -14.3635 C   0  0  0  0  0  0  0  0  0  0  0  0
  -36.7859    0.0957  -12.4255 O   0  5  0  0  0  0  0  0  0  0  0  0
  -36.5557   -1.8502  -11.2249 O   0  0  0  0  0  0  0  0  0  0  0  0
  1 17  1  0  0  0  0
  1 20  1  0  0  0  0
  2 15  1  1  0  0  0
  2  3  1  0  0  0  0
  2 11  1  0  0  0  0
  3  5  1  0  0  0  0
  4 16  1  1  0  0  0
  4 21  1  0  0  0  0
  4 22  2  0  0  0  0
  4 14  1  0  0  0  0
  5  1  1  1  0  0  0
  5  8  1  0  0  0  0
  6 17  2  0  0  0  0
  6 12  1  0  0  0  0
  8  7  1  6  0  0  0
  8 11  1  0  0  0  0
  9 19  1  0  0  0  0
 11 10  1  6  0  0  0
 12 20  2  0  0  0  0
 12 19  1  0  0  0  0
 13 20  1  0  0  0  0
 14 15  1  0  0  0  0
 18 19  2  0  0  0  0
M  CHG  1  21  -1
M  END
>  <CHROM.1>
26.16391243,148.02389039,77.46203205,175.22604151,-96.67296371,-34.51581997
-5.00235188,-13.64810882,0.89124946,0.96593385,-2.42229482

>  <Name>
ligand

>  <RI>
0

>  <Rbt.Current_Directory>
/home/itssahil/PROJECTS/Mol_Feturizer/Test_systems_manuscript/rnas/4xwf

>  <Rbt.Executable>
rbdock ($Id: //depot/dev/client3/rdock/2013.1/src/exe/rbdock.cxx#4 $)

>  <Rbt.Library>
libRbt.so (2013.1, Build901 2013/11/27)

>  <Rbt.Parameter_File>
/export/apps/rDock/src/rDock_2013.1_src/data/scripts/dock_solv.prm

>  <Rbt.Receptor>
prm/blind_docking_40.prm

>  <SCORE>
-5.46386

>  <SCORE.INTER>
-7.04712

>  <SCORE.INTER.CONST>
1

>  <SCORE.INTER.POLAR>
0

>  <SCORE.INTER.ROT>
5

>  <SCORE.INTER.SOLV>
24.0351

>  <SCORE.INTER.VDW>
-19.6431

>  <SCORE.INTER.norm>
-0.320323

>  <SCORE.INTRA>
0.618703

>  <SCORE.INTRA.DIHEDRAL>
1.87285

>  <SCORE.INTRA.DIHEDRAL.0>
3.49807

>  <SCORE.INTRA.POLAR>
0

>  <SCORE.INTRA.POLAR.0>
0

>  <SCORE.INTRA.REPUL>
0

>  <SCORE.INTRA.REPUL.0>
0

>  <SCORE.INTRA.SOLV>
0.160419

>  <SCORE.INTRA.SOLV.lig_0>
-73.062

>  <SCORE.INTRA.VDW>
-0.397933

>  <SCORE.INTRA.VDW.0>
-1.83782

>  <SCORE.INTRA.norm>
0.0281228

>  <SCORE.RESTR>
0.964556

>  <SCORE.RESTR.CAVITY>
0.964556

>  <SCORE.RESTR.norm>
0.0438434

>  <SCORE.SYSTEM>
0

>  <SCORE.SYSTEM.CONST>
0

>  <SCORE.SYSTEM.DIHEDRAL>
0

>  <SCORE.SYSTEM.SOLV>
0

>  <SCORE.SYSTEM.norm>
0

>  <SCORE.heavy>
22

>  <SCORE.norm>
-0.248357

>  <RMSD>
12.758

$$$$
ligand
 OpenBabel02271912143D
libRbt.so/2013.1/901 2013/11/27
 22 23  0  0  0  0  0  0  0  0999 V2000
  -31.4850   -2.5185  -19.3850 N   0  0  0  0  0  0  0  0  0  0  0  0
  -34.3784   -3.4638  -17.9062 C   0  0  1  0  0  0  0  0  0  0  0  0
  -33.7005   -2.4854  -18.7447 O   0  0  0  0  0  0  0  0  0  0  0  0
  -34.6319   -3.9765  -14.1607 P   0  0  1  0  0  0  0  0  0  0  0  0
  -32.6936   -3.1727  -19.5050 C   0  0  2  0  0  0  0  0  0  0  0  0
  -29.3797   -2.1485  -19.0080 N   0  0  0  0  0  0  0  0  0  0  0  0
  -32.0104   -5.4475  -19.7385 O   0  0  0  0  0  0  0  0  0  0  0  0
  -32.5328   -4.4768  -18.8237 C   0  0  2  0  0  0  0  0  0  0  0  0
  -27.8333    0.3103  -19.5453 N   0  0  0  0  0  0  0  0  0  0  0  0
  -34.7092   -5.2054  -19.4398 O   0  0  0  0  0  0  0  0  0  0  0  0
  -33.8759   -4.7834  -18.3472 C   0  0  2  0  0  0  0  0  0  0  0  0
  -29.9315   -1.0103  -19.4561 C   0  0  0  0  0  0  0  0  0  0  0  0
  -32.1914   -0.3027  -20.2017 N   0  0  0  0  0  0  0  0  0  0  0  0
  -34.7495   -4.0474  -15.7227 O   0  0  0  0  0  0  0  0  0  0  0  0
  -33.9917   -3.1753  -16.4965 C   0  0  0  0  0  0  0  0  0  0  0  0
  -33.1700   -4.4850  -13.8873 O   0  0  0  0  0  0  0  0  0  0  0  0
  -30.3487   -3.0824  -18.9590 C   0  0  0  0  0  0  0  0  0  0  0  0
  -29.8543    1.3008  -19.8922 O   0  0  0  0  0  0  0  0  0  0  0  0
  -29.2262    0.2699  -19.6517 C   0  0  0  0  0  0  0  0  0  0  0  0
  -31.2565   -1.2363  -19.6986 C   0  0  0  0  0  0  0  0  0  0  0  0
  -34.8997   -2.5824  -13.6995 O   0  5  0  0  0  0  0  0  0  0  0  0
  -35.7341   -4.7160  -13.5197 O   0  0  0  0  0  0  0  0  0  0  0  0
  1 17  1  0  0  0  0
  1 20  1  0  0  0  0
  2 15  1  1  0  0  0
  2  3  1  0  0  0  0
  2 11  1  0  0  0  0
  3  5  1  0  0  0  0
  4 16  1  1  0  0  0
  4 21  1  0  0  0  0
  4 22  2  0  0  0  0
  4 14  1  0  0  0  0
  5  1  1  1  0  0  0
  5  8  1  0  0  0  0
  6 17  2  0  0  0  0
  6 12  1  0  0  0  0
  8  7  1  6  0  0  0
  8 11  1  0  0  0  0
  9 19  1  0  0  0  0
 11 10  1  6  0  0  0
 12 20  2  0  0  0  0
 12 19  1  0  0  0  0
 13 20  1  0  0  0  0
 14 15  1  0  0  0  0
 18 19  2  0  0  0  0
M  CHG  1  21  -1
M  END
>  <CHROM.1>
124.17253776,174.76514261,-68.06811162,-177.66982129,9.15542272,-32.60619941
-2.86615845,-17.69365184,0.40327954,-0.83136361,-2.00877039

>  <Name>
ligand

>  <RI>
0

>  <Rbt.Current_Directory>
/home/itssahil/PROJECTS/Mol_Feturizer/Test_systems_manuscript/rnas/4xwf

>  <Rbt.Executable>
rbdock ($Id: //depot/dev/client3/rdock/2013.1/src/exe/rbdock.cxx#4 $)

>  <Rbt.Library>
libRbt.so (2013.1, Build901 2013/11/27)

>  <Rbt.Parameter_File>
/export/apps/rDock/src/rDock_2013.1_src/data/scripts/dock_solv.prm

>  <Rbt.Receptor>
prm/blind_docking_40.prm

>  <SCORE>
-4.74196

>  <SCORE.INTER>
-6.5299

>  <SCORE.INTER.CONST>
1

>  <SCORE.INTER.POLAR>
0

>  <SCORE.INTER.ROT>
5

>  <SCORE.INTER.SOLV>
27.2116

>  <SCORE.INTER.VDW>
-20.3571

>  <SCORE.INTER.norm>
-0.296814

>  <SCORE.INTRA>
1.29792

>  <SCORE.INTRA.DIHEDRAL>
-1.62972

>  <SCORE.INTRA.DIHEDRAL.0>
3.49807

>  <SCORE.INTRA.POLAR>
0

>  <SCORE.INTRA.POLAR.0>
0

>  <SCORE.INTRA.REPUL>
0

>  <SCORE.INTRA.REPUL.0>
0

>  <SCORE.INTRA.SOLV>
-0.282812

>  <SCORE.INTRA.SOLV.lig_0>
-73.062

>  <SCORE.INTRA.VDW>
2.25419

>  <SCORE.INTRA.VDW.0>
-1.83782

>  <SCORE.INTRA.norm>
0.0589966

>  <SCORE.RESTR>
0.490018

>  <SCORE.RESTR.CAVITY>
0.490018

>  <SCORE.RESTR.norm>
0.0222736

>  <SCORE.SYSTEM>
0

>  <SCORE.SYSTEM.CONST>
0

>  <SCORE.SYSTEM.DIHEDRAL>
0

>  <SCORE.SYSTEM.SOLV>
0

>  <SCORE.SYSTEM.norm>
0

>  <SCORE.heavy>
22

>  <SCORE.norm>
-0.215544

>  <RMSD>
12.773

$$$$
ligand
 OpenBabel02271912143D
libRbt.so/2013.1/901 2013/11/27
 22 23  0  0  0  0  0  0  0  0999 V2000
  -32.5693    7.6477  -20.5650 N   0  0  0  0  0  0  0  0  0  0  0  0
  -32.0511    4.8129  -18.7907 C   0  0  1  0  0  0  0  0  0  0  0  0
  -31.4666    5.8533  -19.6249 O   0  0  0  0  0  0  0  0  0  0  0  0
  -34.3608    1.8935  -19.4957 P   0  0  1  0  0  0  0  0  0  0  0  0
  -32.1759    7.0770  -19.3723 C   0  0  2  0  0  0  0  0  0  0  0  0
  -33.5495    7.9297  -22.4810 N   0  0  0  0  0  0  0  0  0  0  0  0
  -33.9312    7.7398  -17.8974 O   0  0  0  0  0  0  0  0  0  0  0  0
  -33.4153    6.6572  -18.6806 C   0  0  2  0  0  0  0  0  0  0  0  0
  -33.0600   10.1522  -24.4048 N   0  0  0  0  0  0  0  0  0  0  0  0
  -32.2379    5.9411  -16.7446 O   0  0  0  0  0  0  0  0  0  0  0  0
  -32.9942    5.5085  -17.8879 C   0  0  2  0  0  0  0  0  0  0  0  0
  -32.8638    9.0466  -22.1927 C   0  0  0  0  0  0  0  0  0  0  0  0
  -31.4441    9.8261  -20.3111 N   0  0  0  0  0  0  0  0  0  0  0  0
  -33.4450    2.9969  -18.8613 O   0  0  0  0  0  0  0  0  0  0  0  0
  -32.7606    3.8696  -19.7001 C   0  0  0  0  0  0  0  0  0  0  0  0
  -35.3258    1.5065  -18.3169 O   0  0  0  0  0  0  0  0  0  0  0  0
  -33.3597    7.0598  -21.4706 C   0  0  0  0  0  0  0  0  0  0  0  0
  -32.4738   11.3392  -22.5520 O   0  0  0  0  0  0  0  0  0  0  0  0
  -32.7880   10.2527  -23.0378 C   0  0  0  0  0  0  0  0  0  0  0  0
  -32.2464    8.8777  -20.9863 C   0  0  0  0  0  0  0  0  0  0  0  0
  -35.0459    2.4424  -20.7029 O   0  5  0  0  0  0  0  0  0  0  0  0
  -33.5474    0.8140  -20.0835 O   0  0  0  0  0  0  0  0  0  0  0  0
  1 17  1  0  0  0  0
  1 20  1  0  0  0  0
  2 15  1  6  0  0  0
  2  3  1  0  0  0  0
  2 11  1  0  0  0  0
  3  5  1  0  0  0  0
  4 16  1  1  0  0  0
  4 21  1  0  0  0  0
  4 22  2  0  0  0  0
  4 14  1  0  0  0  0
  5  1  1  6  0  0  0
  5  8  1  0  0  0  0
  6 17  2  0  0  0  0
  6 12  1  0  0  0  0
  8  7  1  1  0  0  0
  8 11  1  0  0  0  0
  9 19  1  0  0  0  0
 11 10  1  1  0  0  0
 12 20  2  0  0  0  0
 12 19  1  0  0  0  0
 13 20  1  0  0  0  0
 14 15  1  0  0  0  0
 18 19  2  0  0  0  0
M  CHG  1  21  -1
M  END
>  <CHROM.1>
59.05023436,-172.51722216,-159.66565734,177.38665563,-21.74501757,-33.14710006
5.97144510,-20.08862459,-1.06311909,1.19470538,2.29062825

>  <Name>
ligand

>  <RI>
0

>  <Rbt.Current_Directory>
/home/itssahil/PROJECTS/Mol_Feturizer/Test_systems_manuscript/rnas/4xwf

>  <Rbt.Executable>
rbdock ($Id: //depot/dev/client3/rdock/2013.1/src/exe/rbdock.cxx#4 $)

>  <Rbt.Library>
libRbt.so (2013.1, Build901 2013/11/27)

>  <Rbt.Parameter_File>
/export/apps/rDock/src/rDock_2013.1_src/data/scripts/dock_solv.prm

>  <Rbt.Receptor>
prm/blind_docking_80.prm

>  <SCORE>
-8.58481

>  <SCORE.INTER>
-8.71055

>  <SCORE.INTER.CONST>
1

>  <SCORE.INTER.POLAR>
0

>  <SCORE.INTER.ROT>
5

>  <SCORE.INTER.SOLV>
18.7971

>  <SCORE.INTER.VDW>
-19.0061

>  <SCORE.INTER.norm>
-0.395934

>  <SCORE.INTRA>
0.12574

>  <SCORE.INTRA.DIHEDRAL>
-0.737678

>  <SCORE.INTRA.DIHEDRAL.0>
3.49807

>  <SCORE.INTRA.POLAR>
0

>  <SCORE.INTRA.POLAR.0>
0

>  <SCORE.INTRA.REPUL>
0

>  <SCORE.INTRA.REPUL.0>
0

>  <SCORE.INTRA.SOLV>
-0.15908

>  <SCORE.INTRA.SOLV.lig_0>
-73.062

>  <SCORE.INTRA.VDW>
0.574118

>  <SCORE.INTRA.VDW.0>
-1.83782

>  <SCORE.INTRA.norm>
0.00571544

>  <SCORE.RESTR>
0

>  <SCORE.RESTR.CAVITY>
0

>  <SCORE.RESTR.norm>
0

>  <SCORE.SYSTEM>
0

>  <SCORE.SYSTEM.CONST>
0

>  <SCORE.SYSTEM.DIHEDRAL>
0

>  <SCORE.SYSTEM.SOLV>
0

>  <SCORE.SYSTEM.norm>
0

>  <SCORE.heavy>
22

>  <SCORE.norm>
-0.390219

>  <RMSD>
12.811

$$$$
ligand
 OpenBabel02271912143D
libRbt.so/2013.1/901 2013/11/27
 22 23  0  0  0  0  0  0  0  0999 V2000
  -31.5182   -2.5626  -19.3686 N   0  0  0  0  0  0  0  0  0  0  0  0
  -34.4254   -3.4171  -17.8618 C   0  0  1  0  0  0  0  0  0  0  0  0
  -33.7172   -2.4452  -18.6826 O   0  0  0  0  0  0  0  0  0  0  0  0
  -34.6239   -4.0469  -14.1306 P   0  0  1  0  0  0  0  0  0  0  0  0
  -32.7589   -3.1545  -19.4846 C   0  0  2  0  0  0  0  0  0  0  0  0
  -29.3972   -2.2983  -18.9911 N   0  0  0  0  0  0  0  0  0  0  0  0
  -32.1904   -5.4503  -19.8035 O   0  0  0  0  0  0  0  0  0  0  0  0
  -32.6482   -4.4862  -18.8482 C   0  0  2  0  0  0  0  0  0  0  0  0
  -28.4868    0.7091  -18.5691 N   0  0  0  0  0  0  0  0  0  0  0  0
  -34.8684   -5.0903  -19.4425 O   0  0  0  0  0  0  0  0  0  0  0  0
  -33.9953   -4.7440  -18.3542 C   0  0  2  0  0  0  0  0  0  0  0  0
  -29.8886   -1.1377  -19.4516 C   0  0  0  0  0  0  0  0  0  0  0  0
  -32.1076   -0.3215  -20.2088 N   0  0  0  0  0  0  0  0  0  0  0  0
  -34.8265   -4.0059  -15.6849 O   0  0  0  0  0  0  0  0  0  0  0  0
  -33.9988   -3.1931  -16.4518 C   0  0  0  0  0  0  0  0  0  0  0  0
  -34.8741   -2.5572  -13.6965 O   0  0  0  0  0  0  0  0  0  0  0  0
  -30.4133   -3.1803  -18.9347 C   0  0  0  0  0  0  0  0  0  0  0  0
  -29.0388    0.6117  -20.7763 O   0  0  0  0  0  0  0  0  0  0  0  0
  -29.1175    0.1022  -19.6586 C   0  0  0  0  0  0  0  0  0  0  0  0
  -31.2231   -1.2971  -19.6945 C   0  0  0  0  0  0  0  0  0  0  0  0
  -35.5658   -5.0351  -13.5272 O   0  5  0  0  0  0  0  0  0  0  0  0
  -33.3175   -4.6384  -13.7895 O   0  0  0  0  0  0  0  0  0  0  0  0
  1 17  1  0  0  0  0
  1 20  1  0  0  0  0
  2 15  1  1  0  0  0
  2  3  1  0  0  0  0
  2 11  1  0  0  0  0
  3  5  1  0  0  0  0
  4 16  1  1  0  0  0
  4 21  1  0  0  0  0
  4 22  2  0  0  0  0
  4 14  1  0  0  0  0
  5  1  1  1  0  0  0
  5  8  1  0  0  0  0
  6 17  2  0  0  0  0
  6 12  1  0  0  0  0
  8  7  1  6  0  0  0
  8 11  1  0  0  0  0
  9 19  1  0  0  0  0
 11 10  1  6  0  0  0
 12 20  2  0  0  0  0
 12 19  1  0  0  0  0
 13 20  1  0  0  0  0
 14 15  1  0  0  0  0
 18 19  2  0  0  0  0
M  CHG  1  21  -1
M  END
>  <CHROM.1>
121.46015158,172.01505959,60.62239474,178.38057647,-60.84810910,-32.62063008
-2.92423900,-17.68088614,0.49214393,-0.79474884,-1.89892930

>  <Name>
ligand

>  <RI>
0

>  <Rbt.Current_Directory>
/home/itssahil/PROJECTS/Mol_Feturizer/Test_systems_manuscript/rnas/4xwf

>  <Rbt.Executable>
rbdock ($Id: //depot/dev/client3/rdock/2013.1/src/exe/rbdock.cxx#4 $)

>  <Rbt.Library>
libRbt.so (2013.1, Build901 2013/11/27)

>  <Rbt.Parameter_File>
/export/apps/rDock/src/rDock_2013.1_src/data/scripts/dock_solv.prm

>  <Rbt.Receptor>
prm/blind_docking_40.prm

>  <SCORE>
-4.38668

>  <SCORE.INTER>
-6.6791

>  <SCORE.INTER.CONST>
1

>  <SCORE.INTER.POLAR>
0

>  <SCORE.INTER.ROT>
5

>  <SCORE.INTER.SOLV>
28.7875

>  <SCORE.INTER.VDW>
-20.9819

>  <SCORE.INTER.norm>
-0.303595

>  <SCORE.INTRA>
1.81509

>  <SCORE.INTRA.DIHEDRAL>
-0.103631

>  <SCORE.INTRA.DIHEDRAL.0>
3.49807

>  <SCORE.INTRA.POLAR>
0

>  <SCORE.INTRA.POLAR.0>
0

>  <SCORE.INTRA.REPUL>
0

>  <SCORE.INTRA.REPUL.0>
0

>  <SCORE.INTRA.SOLV>
-0.558488

>  <SCORE.INTRA.SOLV.lig_0>
-73.062

>  <SCORE.INTRA.VDW>
2.14615

>  <SCORE.INTRA.VDW.0>
-1.83782

>  <SCORE.INTRA.norm>
0.0825039

>  <SCORE.RESTR>
0.47733

>  <SCORE.RESTR.CAVITY>
0.47733

>  <SCORE.RESTR.norm>
0.0216968

>  <SCORE.SYSTEM>
0

>  <SCORE.SYSTEM.CONST>
0

>  <SCORE.SYSTEM.DIHEDRAL>
0

>  <SCORE.SYSTEM.SOLV>
0

>  <SCORE.SYSTEM.norm>
0

>  <SCORE.heavy>
22

>  <SCORE.norm>
-0.199395

>  <RMSD>
12.819

$$$$
ligand
 OpenBabel02271912143D
libRbt.so/2013.1/901 2013/11/27
 22 23  0  0  0  0  0  0  0  0999 V2000
  -37.0665   -1.0696  -16.0023 N   0  0  0  0  0  0  0  0  0  0  0  0
  -34.5352   -3.2952  -15.6996 C   0  0  1  0  0  0  0  0  0  0  0  0
  -35.1585   -2.0811  -15.1923 O   0  0  0  0  0  0  0  0  0  0  0  0
  -32.5909   -4.1167  -18.8419 P   0  0  1  0  0  0  0  0  0  0  0  0
  -36.5784   -2.1989  -15.3782 C   0  0  2  0  0  0  0  0  0  0  0  0
  -38.1185    0.7997  -16.3344 N   0  0  0  0  0  0  0  0  0  0  0  0
  -38.0406   -3.8966  -16.2002 O   0  0  0  0  0  0  0  0  0  0  0  0
  -36.7406   -3.3117  -16.3405 C   0  0  2  0  0  0  0  0  0  0  0  0
  -38.6248    1.8175  -19.1880 N   0  0  0  0  0  0  0  0  0  0  0  0
  -35.9484   -4.9296  -14.7905 O   0  0  0  0  0  0  0  0  0  0  0  0
  -35.6501   -4.2187  -16.0038 C   0  0  2  0  0  0  0  0  0  0  0  0
  -37.4442    0.4938  -17.4535 C   0  0  0  0  0  0  0  0  0  0  0  0
  -35.9318   -1.3384  -18.1739 N   0  0  0  0  0  0  0  0  0  0  0  0
  -33.2979   -4.1186  -17.4424 O   0  0  0  0  0  0  0  0  0  0  0  0
  -33.7848   -2.9205  -16.9310 C   0  0  0  0  0  0  0  0  0  0  0  0
  -31.2002   -3.4490  -18.5407 O   0  0  0  0  0  0  0  0  0  0  0  0
  -37.8869   -0.1767  -15.4363 C   0  0  0  0  0  0  0  0  0  0  0  0
  -36.3755    1.4813  -19.3029 O   0  0  0  0  0  0  0  0  0  0  0  0
  -37.4283    1.2907  -18.6942 C   0  0  0  0  0  0  0  0  0  0  0  0
  -36.7768   -0.6805  -17.2510 C   0  0  0  0  0  0  0  0  0  0  0  0
  -32.5082   -5.5123  -19.3648 O   0  5  0  0  0  0  0  0  0  0  0  0
  -33.4431   -3.4715  -19.8569 O   0  0  0  0  0  0  0  0  0  0  0  0
  1 17  1  0  0  0  0
  1 20  1  0  0  0  0
  2 15  1  6  0  0  0
  2  3  1  0  0  0  0
  2 11  1  0  0  0  0
  3  5  1  0  0  0  0
  4 16  1  1  0  0  0
  4 21  1  0  0  0  0
  4 22  2  0  0  0  0
  4 14  1  0  0  0  0
  5  1  1  6  0  0  0
  5  8  1  0  0  0  0
  6 17  2  0  0  0  0
  6 12  1  0  0  0  0
  8  7  1  1  0  0  0
  8 11  1  0  0  0  0
  9 19  1  0  0  0  0
 11 10  1  1  0  0  0
 12 20  2  0  0  0  0
 12 19  1  0  0  0  0
 13 20  1  0  0  0  0
 14 15  1  0  0  0  0
 18 19  2  0  0  0  0
M  CHG  1  21  -1
M  END
>  <CHROM.1>
-113.00308445,-175.28992758,73.80038886,172.98663780,-43.98285509,-35.42687343
-2.24705175,-17.32007953,2.70635645,0.67444877,-0.74592369

>  <Name>
ligand

>  <RI>
0

>  <Rbt.Current_Directory>
/home/itssahil/PROJECTS/Mol_Feturizer/Test_systems_manuscript/rnas/4xwf

>  <Rbt.Executable>
rbdock ($Id: //depot/dev/client3/rdock/2013.1/src/exe/rbdock.cxx#4 $)

>  <Rbt.Library>
libRbt.so (2013.1, Build901 2013/11/27)

>  <Rbt.Parameter_File>
/export/apps/rDock/src/rDock_2013.1_src/data/scripts/dock_solv.prm

>  <Rbt.Receptor>
prm/blind_docking_80.prm

>  <SCORE>
-11.9192

>  <SCORE.INTER>
-15.1176

>  <SCORE.INTER.CONST>
1

>  <SCORE.INTER.POLAR>
0

>  <SCORE.INTER.ROT>
5

>  <SCORE.INTER.SOLV>
20.9127

>  <SCORE.INTER.VDW>
-23.9826

>  <SCORE.INTER.norm>
-0.687164

>  <SCORE.INTRA>
3.19838

>  <SCORE.INTRA.DIHEDRAL>
-0.0573467

>  <SCORE.INTRA.DIHEDRAL.0>
3.49807

>  <SCORE.INTRA.POLAR>
0

>  <SCORE.INTRA.POLAR.0>
0

>  <SCORE.INTRA.REPUL>
0

>  <SCORE.INTRA.REPUL.0>
0

>  <SCORE.INTRA.SOLV>
5.7116

>  <SCORE.INTRA.SOLV.lig_0>
-73.062

>  <SCORE.INTRA.VDW>
0.371249

>  <SCORE.INTRA.VDW.0>
-1.83782

>  <SCORE.INTRA.norm>
0.145381

>  <SCORE.RESTR>
0

>  <SCORE.RESTR.CAVITY>
0

>  <SCORE.RESTR.norm>
0

>  <SCORE.SYSTEM>
0

>  <SCORE.SYSTEM.CONST>
0

>  <SCORE.SYSTEM.DIHEDRAL>
0

>  <SCORE.SYSTEM.SOLV>
0

>  <SCORE.SYSTEM.norm>
0

>  <SCORE.heavy>
22

>  <SCORE.norm>
-0.541783

>  <RMSD>
12.822

$$$$
ligand
 OpenBabel02271912143D
libRbt.so/2013.1/901 2013/11/27
 22 23  0  0  0  0  0  0  0  0999 V2000
  -34.7004   -5.2935  -13.7539 N   0  0  0  0  0  0  0  0  0  0  0  0
  -35.3020   -2.8421  -16.0080 C   0  0  1  0  0  0  0  0  0  0  0  0
  -35.5499   -4.2206  -15.6105 O   0  0  0  0  0  0  0  0  0  0  0  0
  -32.9000   -3.6454  -18.8005 P   0  0  1  0  0  0  0  0  0  0  0  0
  -35.5352   -4.2792  -14.1750 C   0  0  2  0  0  0  0  0  0  0  0  0
  -32.9300   -6.3402  -13.0601 N   0  0  0  0  0  0  0  0  0  0  0  0
  -35.3026   -2.6785  -12.4201 O   0  0  0  0  0  0  0  0  0  0  0  0
  -34.8985   -3.0113  -13.7534 C   0  0  2  0  0  0  0  0  0  0  0  0
  -32.6970   -9.3627  -13.0526 N   0  0  0  0  0  0  0  0  0  0  0  0
  -36.7180   -1.6962  -14.5327 O   0  0  0  0  0  0  0  0  0  0  0  0
  -35.3437   -2.0528  -14.7575 C   0  0  2  0  0  0  0  0  0  0  0  0
  -33.9433   -7.2185  -13.1103 C   0  0  0  0  0  0  0  0  0  0  0  0
  -36.3498   -7.1248  -13.7129 N   0  0  0  0  0  0  0  0  0  0  0  0
  -34.0126   -3.6972  -17.6968 O   0  0  0  0  0  0  0  0  0  0  0  0
  -33.9503   -2.8030  -16.6337 C   0  0  0  0  0  0  0  0  0  0  0  0
  -31.5754   -3.4932  -17.9681 O   0  0  0  0  0  0  0  0  0  0  0  0
  -33.4019   -5.1461  -13.4665 C   0  0  0  0  0  0  0  0  0  0  0  0
  -34.8134   -9.2174  -12.2247 O   0  0  0  0  0  0  0  0  0  0  0  0
  -33.8616   -8.6483  -12.7588 C   0  0  0  0  0  0  0  0  0  0  0  0
  -35.0623   -6.5661  -13.5434 C   0  0  0  0  0  0  0  0  0  0  0  0
  -32.9668   -4.8780  -19.6395 O   0  5  0  0  0  0  0  0  0  0  0  0
  -33.1971   -2.5967  -19.7929 O   0  0  0  0  0  0  0  0  0  0  0  0
  1 17  1  0  0  0  0
  1 20  1  0  0  0  0
  2 15  1  1  0  0  0
  2  3  1  0  0  0  0
  2 11  1  0  0  0  0
  3  5  1  0  0  0  0
  4 16  1  1  0  0  0
  4 21  1  0  0  0  0
  4 22  2  0  0  0  0
  4 14  1  0  0  0  0
  5  1  1  6  0  0  0
  5  8  1  0  0  0  0
  6 17  2  0  0  0  0
  6 12  1  0  0  0  0
  8  7  1  1  0  0  0
  8 11  1  0  0  0  0
  9 19  1  0  0  0  0
 11 10  1  1  0  0  0
 12 20  2  0  0  0  0
 12 19  1  0  0  0  0
 13 20  1  0  0  0  0
 14 15  1  0  0  0  0
 18 19  2  0  0  0  0
M  CHG  1  21  -1
M  END
>  <CHROM.1>
91.85338858,58.24667609,43.68499584,164.35274879,-35.71468303,-34.23772503
-4.72632809,-15.32305173,1.82430792,-0.97111569,2.43924954

>  <Name>
ligand

>  <RI>
0

>  <Rbt.Current_Directory>
/home/itssahil/PROJECTS/Mol_Feturizer/Test_systems_manuscript/rnas/4xwf

>  <Rbt.Executable>
rbdock ($Id: //depot/dev/client3/rdock/2013.1/src/exe/rbdock.cxx#4 $)

>  <Rbt.Library>
libRbt.so (2013.1, Build901 2013/11/27)

>  <Rbt.Parameter_File>
/export/apps/rDock/src/rDock_2013.1_src/data/scripts/dock_solv.prm

>  <Rbt.Receptor>
prm/blind_docking_40.prm

>  <SCORE>
-6.79423

>  <SCORE.INTER>
-8.81124

>  <SCORE.INTER.CONST>
1

>  <SCORE.INTER.POLAR>
0

>  <SCORE.INTER.ROT>
5

>  <SCORE.INTER.SOLV>
16.4276

>  <SCORE.INTER.VDW>
-18.2834

>  <SCORE.INTER.norm>
-0.400511

>  <SCORE.INTRA>
1.69906

>  <SCORE.INTRA.DIHEDRAL>
0.729475

>  <SCORE.INTRA.DIHEDRAL.0>
3.49807

>  <SCORE.INTRA.POLAR>
0

>  <SCORE.INTRA.POLAR.0>
0

>  <SCORE.INTRA.REPUL>
0

>  <SCORE.INTRA.REPUL.0>
0

>  <SCORE.INTRA.SOLV>
-1.19001

>  <SCORE.INTRA.SOLV.lig_0>
-73.062

>  <SCORE.INTRA.VDW>
1.92933

>  <SCORE.INTRA.VDW.0>
-1.83782

>  <SCORE.INTRA.norm>
0.07723

>  <SCORE.RESTR>
0.317958

>  <SCORE.RESTR.CAVITY>
0.317958

>  <SCORE.RESTR.norm>
0.0144526

>  <SCORE.SYSTEM>
0

>  <SCORE.SYSTEM.CONST>
0

>  <SCORE.SYSTEM.DIHEDRAL>
0

>  <SCORE.SYSTEM.SOLV>
0

>  <SCORE.SYSTEM.norm>
0

>  <SCORE.heavy>
22

>  <SCORE.norm>
-0.308828

>  <RMSD>
12.825

$$$$
ligand
 OpenBabel02271912143D
libRbt.so/2013.1/901 2013/11/27
 22 23  0  0  0  0  0  0  0  0999 V2000
  -35.0118   -5.3426  -13.6373 N   0  0  0  0  0  0  0  0  0  0  0  0
  -35.2687   -2.8575  -15.9200 C   0  0  1  0  0  0  0  0  0  0  0  0
  -35.6734   -4.2002  -15.5286 O   0  0  0  0  0  0  0  0  0  0  0  0
  -32.9020   -3.6370  -18.7427 P   0  0  1  0  0  0  0  0  0  0  0  0
  -35.7202   -4.2502  -14.0935 C   0  0  2  0  0  0  0  0  0  0  0  0
  -34.1058   -6.7861  -12.2933 N   0  0  0  0  0  0  0  0  0  0  0  0
  -35.3905   -2.6702  -12.3354 O   0  0  0  0  0  0  0  0  0  0  0  0
  -34.9721   -3.0521  -13.6510 C   0  0  2  0  0  0  0  0  0  0  0  0
  -33.5367   -9.1058  -15.0886 N   0  0  0  0  0  0  0  0  0  0  0  0
  -36.6140   -1.5611  -14.5043 O   0  0  0  0  0  0  0  0  0  0  0  0
  -35.2765   -2.0596  -14.6744 C   0  0  2  0  0  0  0  0  0  0  0  0
  -33.8793   -7.1874  -13.5535 C   0  0  0  0  0  0  0  0  0  0  0  0
  -34.4591   -6.3504  -15.8178 N   0  0  0  0  0  0  0  0  0  0  0  0
  -34.0470   -3.6836  -17.6724 O   0  0  0  0  0  0  0  0  0  0  0  0
  -33.8972   -2.9629  -16.4927 C   0  0  0  0  0  0  0  0  0  0  0  0
  -33.0911   -4.9845  -19.5296 O   0  0  0  0  0  0  0  0  0  0  0  0
  -34.8046   -5.6362  -12.3484 C   0  0  0  0  0  0  0  0  0  0  0  0
  -32.1832   -8.7960  -13.2837 O   0  0  0  0  0  0  0  0  0  0  0  0
  -33.1375   -8.3982  -13.9516 C   0  0  0  0  0  0  0  0  0  0  0  0
  -34.4495   -6.2850  -14.4056 C   0  0  0  0  0  0  0  0  0  0  0  0
  -33.0436   -2.4071  -19.5765 O   0  5  0  0  0  0  0  0  0  0  0  0
  -31.5952   -3.4089  -18.1002 O   0  0  0  0  0  0  0  0  0  0  0  0
  1 17  1  0  0  0  0
  1 20  1  0  0  0  0
  2 15  1  1  0  0  0
  2  3  1  0  0  0  0
  2 11  1  0  0  0  0
  3  5  1  0  0  0  0
  4 16  1  6  0  0  0
  4 21  1  0  0  0  0
  4 22  2  0  0  0  0
  4 14  1  0  0  0  0
  5  1  1  1  0  0  0
  5  8  1  0  0  0  0
  6 17  2  0  0  0  0
  6 12  1  0  0  0  0
  8  7  1  1  0  0  0
  8 11  1  0  0  0  0
  9 19  1  0  0  0  0
 11 10  1  1  0  0  0
 12 20  2  0  0  0  0
 12 19  1  0  0  0  0
 13 20  1  0  0  0  0
 14 15  1  0  0  0  0
 18 19  2  0  0  0  0
M  CHG  1  21  -1
M  END
>  <CHROM.1>
176.44187335,67.19609393,154.93959303,162.49939472,145.17097788,-34.13911730
-4.67097924,-15.51791980,1.78802462,-1.01061563,2.38069076

>  <Name>
ligand

>  <RI>
0

>  <Rbt.Current_Directory>
/home/itssahil/PROJECTS/Mol_Feturizer/Test_systems_manuscript/rnas/4xwf

>  <Rbt.Executable>
rbdock ($Id: //depot/dev/client3/rdock/2013.1/src/exe/rbdock.cxx#4 $)

>  <Rbt.Library>
libRbt.so (2013.1, Build901 2013/11/27)

>  <Rbt.Parameter_File>
/export/apps/rDock/src/rDock_2013.1_src/data/scripts/dock_solv.prm

>  <Rbt.Receptor>
prm/blind_docking_40.prm

>  <SCORE>
-3.51587

>  <SCORE.INTER>
-7.07228

>  <SCORE.INTER.CONST>
1

>  <SCORE.INTER.POLAR>
0

>  <SCORE.INTER.ROT>
5

>  <SCORE.INTER.SOLV>
19.7214

>  <SCORE.INTER.VDW>
-18.222

>  <SCORE.INTER.norm>
-0.321467

>  <SCORE.INTRA>
3.41327

>  <SCORE.INTRA.DIHEDRAL>
1.20512

>  <SCORE.INTRA.DIHEDRAL.0>
3.49807

>  <SCORE.INTRA.POLAR>
0

>  <SCORE.INTRA.POLAR.0>
0

>  <SCORE.INTRA.REPUL>
0

>  <SCORE.INTRA.REPUL.0>
0

>  <SCORE.INTRA.SOLV>
4.24371

>  <SCORE.INTRA.SOLV.lig_0>
-73.062

>  <SCORE.INTRA.VDW>
0.688863

>  <SCORE.INTRA.VDW.0>
-1.83782

>  <SCORE.INTRA.norm>
0.155149

>  <SCORE.RESTR>
0.143135

>  <SCORE.RESTR.CAVITY>
0.143135

>  <SCORE.RESTR.norm>
0.00650615

>  <SCORE.SYSTEM>
0

>  <SCORE.SYSTEM.CONST>
0

>  <SCORE.SYSTEM.DIHEDRAL>
0

>  <SCORE.SYSTEM.SOLV>
0

>  <SCORE.SYSTEM.norm>
0

>  <SCORE.heavy>
22

>  <SCORE.norm>
-0.159812

>  <RMSD>
12.827

$$$$
ligand
 OpenBabel02271912143D
libRbt.so/2013.1/901 2013/11/27
 22 23  0  0  0  0  0  0  0  0999 V2000
  -33.6050    6.5331  -20.3234 N   0  0  0  0  0  0  0  0  0  0  0  0
  -33.1144    3.1964  -20.6028 C   0  0  1  0  0  0  0  0  0  0  0  0
  -33.1180    4.4887  -21.2736 O   0  0  0  0  0  0  0  0  0  0  0  0
  -35.8212    0.7189  -19.6608 P   0  0  1  0  0  0  0  0  0  0  0  0
  -32.7084    5.4847  -20.3225 C   0  0  2  0  0  0  0  0  0  0  0  0
  -35.4728    7.6369  -20.2566 N   0  0  0  0  0  0  0  0  0  0  0  0
  -31.9773    5.4535  -18.0509 O   0  0  0  0  0  0  0  0  0  0  0  0
  -32.8398    4.8231  -19.0050 C   0  0  2  0  0  0  0  0  0  0  0  0
  -33.9121   10.7364  -21.2809 N   0  0  0  0  0  0  0  0  0  0  0  0
  -31.0723    3.3002  -19.4565 O   0  0  0  0  0  0  0  0  0  0  0  0
  -32.4928    3.4345  -19.2817 C   0  0  2  0  0  0  0  0  0  0  0  0
  -34.4651    8.5214  -20.3104 C   0  0  0  0  0  0  0  0  0  0  0  0
  -31.9871    8.3915  -20.3882 N   0  0  0  0  0  0  0  0  0  0  0  0
  -34.4816    1.4627  -19.9937 O   0  0  0  0  0  0  0  0  0  0  0  0
  -34.5353    2.7685  -20.4688 C   0  0  0  0  0  0  0  0  0  0  0  0
  -35.3547   -0.7580  -19.3929 O   0  0  0  0  0  0  0  0  0  0  0  0
  -34.9357    6.4020  -20.2711 C   0  0  0  0  0  0  0  0  0  0  0  0
  -35.3196   10.5585  -19.4996 O   0  0  0  0  0  0  0  0  0  0  0  0
  -34.6075    9.9890  -20.3265 C   0  0  0  0  0  0  0  0  0  0  0  0
  -33.2856    7.8339  -20.3496 C   0  0  0  0  0  0  0  0  0  0  0  0
  -36.4871    1.3790  -18.4994 O   0  5  0  0  0  0  0  0  0  0  0  0
  -36.8149    0.9290  -20.7290 O   0  0  0  0  0  0  0  0  0  0  0  0
  1 17  1  0  0  0  0
  1 20  1  0  0  0  0
  2 15  1  1  0  0  0
  2  3  1  0  0  0  0
  2 11  1  0  0  0  0
  3  5  1  0  0  0  0
  4 16  1  1  0  0  0
  4 21  1  0  0  0  0
  4 22  2  0  0  0  0
  4 14  1  0  0  0  0
  5  1  1  1  0  0  0
  5  8  1  0  0  0  0
  6 17  2  0  0  0  0
  6 12  1  0  0  0  0
  8  7  1  1  0  0  0
  8 11  1  0  0  0  0
  9 19  1  0  0  0  0
 11 10  1  6  0  0  0
 12 20  2  0  0  0  0
 12 19  1  0  0  0  0
 13 20  1  0  0  0  0
 14 15  1  0  0  0  0
 18 19  2  0  0  0  0
M  CHG  1  21  -1
M  END
>  <CHROM.1>
47.54420118,172.18219045,171.14911015,176.73878423,-131.28694111,-34.13388310
4.77097449,-19.94757925,-1.40923856,0.10085497,3.05523877

>  <Name>
ligand

>  <RI>
0

>  <Rbt.Current_Directory>
/home/itssahil/PROJECTS/Mol_Feturizer/Test_systems_manuscript/rnas/4xwf

>  <Rbt.Executable>
rbdock ($Id: //depot/dev/client3/rdock/2013.1/src/exe/rbdock.cxx#4 $)

>  <Rbt.Library>
libRbt.so (2013.1, Build901 2013/11/27)

>  <Rbt.Parameter_File>
/export/apps/rDock/src/rDock_2013.1_src/data/scripts/dock_solv.prm

>  <Rbt.Receptor>
prm/blind_docking_60.prm

>  <SCORE>
-9.37815

>  <SCORE.INTER>
-8.70923

>  <SCORE.INTER.CONST>
1

>  <SCORE.INTER.POLAR>
0

>  <SCORE.INTER.ROT>
5

>  <SCORE.INTER.SOLV>
14.2342

>  <SCORE.INTER.VDW>
-17.4842

>  <SCORE.INTER.norm>
-0.395874

>  <SCORE.INTRA>
-0.668921

>  <SCORE.INTRA.DIHEDRAL>
-1.4605

>  <SCORE.INTRA.DIHEDRAL.0>
3.49807

>  <SCORE.INTRA.POLAR>
0

>  <SCORE.INTRA.POLAR.0>
0

>  <SCORE.INTRA.REPUL>
0

>  <SCORE.INTRA.REPUL.0>
0

>  <SCORE.INTRA.SOLV>
0.335046

>  <SCORE.INTRA.SOLV.lig_0>
-73.062

>  <SCORE.INTRA.VDW>
-0.106192

>  <SCORE.INTRA.VDW.0>
-1.83782

>  <SCORE.INTRA.norm>
-0.0304055

>  <SCORE.RESTR>
0

>  <SCORE.RESTR.CAVITY>
0

>  <SCORE.RESTR.norm>
0

>  <SCORE.SYSTEM>
0

>  <SCORE.SYSTEM.CONST>
0

>  <SCORE.SYSTEM.DIHEDRAL>
0

>  <SCORE.SYSTEM.SOLV>
0

>  <SCORE.SYSTEM.norm>
0

>  <SCORE.heavy>
22

>  <SCORE.norm>
-0.42628

>  <RMSD>
12.833

$$$$
ligand
 OpenBabel02271912143D
libRbt.so/2013.1/901 2013/11/27
 22 23  0  0  0  0  0  0  0  0999 V2000
  -32.7141    6.7596  -20.6823 N   0  0  0  0  0  0  0  0  0  0  0  0
  -32.3455    3.5963  -19.5375 C   0  0  1  0  0  0  0  0  0  0  0  0
  -31.8748    4.6232  -20.4562 O   0  0  0  0  0  0  0  0  0  0  0  0
  -35.1133    1.0156  -19.7202 P   0  0  1  0  0  0  0  0  0  0  0  0
  -32.0563    5.9013  -19.8256 C   0  0  2  0  0  0  0  0  0  0  0  0
  -34.1694    7.5349  -22.0937 N   0  0  0  0  0  0  0  0  0  0  0  0
  -32.8257    6.6387  -17.6901 O   0  0  0  0  0  0  0  0  0  0  0  0
  -32.9844    5.6383  -18.7029 C   0  0  2  0  0  0  0  0  0  0  0  0
  -33.4891   10.9741  -21.4428 N   0  0  0  0  0  0  0  0  0  0  0  0
  -31.3865    4.3292  -17.5281 O   0  0  0  0  0  0  0  0  0  0  0  0
  -32.6209    4.2966  -18.2639 C   0  0  2  0  0  0  0  0  0  0  0  0
  -33.3154    8.5234  -21.7869 C   0  0  0  0  0  0  0  0  0  0  0  0
  -31.3393    8.7703  -20.3045 N   0  0  0  0  0  0  0  0  0  0  0  0
  -33.8834    1.9106  -19.3396 O   0  0  0  0  0  0  0  0  0  0  0  0
  -33.5881    3.0202  -20.1240 C   0  0  0  0  0  0  0  0  0  0  0  0
  -34.7618    0.5200  -21.1698 O   0  0  0  0  0  0  0  0  0  0  0  0
  -33.7897    6.4382  -21.4105 C   0  0  0  0  0  0  0  0  0  0  0  0
  -33.2972   10.0977  -23.5358 O   0  0  0  0  0  0  0  0  0  0  0  0
  -33.3591    9.8965  -22.3230 C   0  0  0  0  0  0  0  0  0  0  0  0
  -32.3979    8.0437  -20.8962 C   0  0  0  0  0  0  0  0  0  0  0  0
  -35.2717   -0.0749  -18.7135 O   0  5  0  0  0  0  0  0  0  0  0  0
  -36.3739    1.7602  -19.5493 O   0  0  0  0  0  0  0  0  0  0  0  0
  1 17  1  0  0  0  0
  1 20  1  0  0  0  0
  2 15  1  6  0  0  0
  2  3  1  0  0  0  0
  2 11  1  0  0  0  0
  3  5  1  0  0  0  0
  4 16  1  6  0  0  0
  4 21  1  0  0  0  0
  4 22  2  0  0  0  0
  4 14  1  0  0  0  0
  5  1  1  6  0  0  0
  5  8  1  0  0  0  0
  6 17  2  0  0  0  0
  6 12  1  0  0  0  0
  8  7  1  1  0  0  0
  8 11  1  0  0  0  0
  9 19  1  0  0  0  0
 11 10  1  1  0  0  0
 12 20  2  0  0  0  0
 12 19  1  0  0  0  0
 13 20  1  0  0  0  0
 14 15  1  0  0  0  0
 18 19  2  0  0  0  0
M  CHG  1  21  -1
M  END
>  <CHROM.1>
44.92279699,170.67623530,59.90628527,-177.25795069,121.15840195,-33.44017223
5.09086547,-20.16235317,-1.25415261,0.83567619,2.64213451

>  <Name>
ligand

>  <RI>
0

>  <Rbt.Current_Directory>
/home/itssahil/PROJECTS/Mol_Feturizer/Test_systems_manuscript/rnas/4xwf

>  <Rbt.Executable>
rbdock ($Id: //depot/dev/client3/rdock/2013.1/src/exe/rbdock.cxx#4 $)

>  <Rbt.Library>
libRbt.so (2013.1, Build901 2013/11/27)

>  <Rbt.Parameter_File>
/export/apps/rDock/src/rDock_2013.1_src/data/scripts/dock_solv.prm

>  <Rbt.Receptor>
prm/blind_docking_100.prm

>  <SCORE>
-10.8018

>  <SCORE.INTER>
-9.55759

>  <SCORE.INTER.CONST>
1

>  <SCORE.INTER.POLAR>
0

>  <SCORE.INTER.ROT>
5

>  <SCORE.INTER.SOLV>
13.7013

>  <SCORE.INTER.VDW>
-17.8722

>  <SCORE.INTER.norm>
-0.434436

>  <SCORE.INTRA>
-1.24419

>  <SCORE.INTRA.DIHEDRAL>
-1.67803

>  <SCORE.INTRA.DIHEDRAL.0>
3.49807

>  <SCORE.INTRA.POLAR>
0

>  <SCORE.INTRA.POLAR.0>
0

>  <SCORE.INTRA.REPUL>
0

>  <SCORE.INTRA.REPUL.0>
0

>  <SCORE.INTRA.SOLV>
-0.44511

>  <SCORE.INTRA.SOLV.lig_0>
-73.062

>  <SCORE.INTRA.VDW>
-0.182618

>  <SCORE.INTRA.VDW.0>
-1.83782

>  <SCORE.INTRA.norm>
-0.0565541

>  <SCORE.RESTR>
0

>  <SCORE.RESTR.CAVITY>
0

>  <SCORE.RESTR.norm>
0

>  <SCORE.SYSTEM>
0

>  <SCORE.SYSTEM.CONST>
0

>  <SCORE.SYSTEM.DIHEDRAL>
0

>  <SCORE.SYSTEM.SOLV>
0

>  <SCORE.SYSTEM.norm>
0

>  <SCORE.heavy>
22

>  <SCORE.norm>
-0.49099

>  <RMSD>
12.834

$$$$
ligand
 OpenBabel02271912143D
libRbt.so/2013.1/901 2013/11/27
 22 23  0  0  0  0  0  0  0  0999 V2000
  -33.1937    6.5891  -20.7245 N   0  0  0  0  0  0  0  0  0  0  0  0
  -32.5037    3.3992  -19.8295 C   0  0  1  0  0  0  0  0  0  0  0  0
  -32.3115    4.4597  -20.8084 O   0  0  0  0  0  0  0  0  0  0  0  0
  -35.1950    0.7775  -19.3372 P   0  0  1  0  0  0  0  0  0  0  0  0
  -32.3196    5.7157  -20.1109 C   0  0  2  0  0  0  0  0  0  0  0  0
  -34.9859    7.3831  -21.6564 N   0  0  0  0  0  0  0  0  0  0  0  0
  -32.4737    6.3780  -17.8232 O   0  0  0  0  0  0  0  0  0  0  0  0
  -32.8998    5.4058  -18.7850 C   0  0  2  0  0  0  0  0  0  0  0  0
  -33.5836   10.2317  -23.1270 N   0  0  0  0  0  0  0  0  0  0  0  0
  -31.0316    4.0864  -18.1399 O   0  0  0  0  0  0  0  0  0  0  0  0
  -32.4210    4.0572  -18.5072 C   0  0  2  0  0  0  0  0  0  0  0  0
  -34.0888    8.3763  -21.5597 C   0  0  0  0  0  0  0  0  0  0  0  0
  -31.7846    8.6107  -20.6655 N   0  0  0  0  0  0  0  0  0  0  0  0
  -33.8868    1.6420  -19.3341 O   0  0  0  0  0  0  0  0  0  0  0  0
  -33.8564    2.8222  -20.0689 C   0  0  0  0  0  0  0  0  0  0  0  0
  -36.1464    1.5627  -18.3632 O   0  0  0  0  0  0  0  0  0  0  0  0
  -34.4248    6.2722  -21.1422 C   0  0  0  0  0  0  0  0  0  0  0  0
  -35.0578   10.5158  -21.4148 O   0  0  0  0  0  0  0  0  0  0  0  0
  -34.2888    9.7647  -22.0145 C   0  0  0  0  0  0  0  0  0  0  0  0
  -32.9587    7.8847  -20.9710 C   0  0  0  0  0  0  0  0  0  0  0  0
  -35.7075    0.6469  -20.7330 O   0  5  0  0  0  0  0  0  0  0  0  0
  -34.8946   -0.6258  -19.0008 O   0  0  0  0  0  0  0  0  0  0  0  0
  1 17  1  0  0  0  0
  1 20  1  0  0  0  0
  2 15  1  6  0  0  0
  2  3  1  0  0  0  0
  2 11  1  0  0  0  0
  3  5  1  0  0  0  0
  4 16  1  1  0  0  0
  4 21  1  0  0  0  0
  4 22  2  0  0  0  0
  4 14  1  0  0  0  0
  5  1  1  6  0  0  0
  5  8  1  0  0  0  0
  6 17  2  0  0  0  0
  6 12  1  0  0  0  0
  8  7  1  1  0  0  0
  8 11  1  0  0  0  0
  9 19  1  0  0  0  0
 11 10  1  6  0  0  0
 12 20  2  0  0  0  0
 12 19  1  0  0  0  0
 13 20  1  0  0  0  0
 14 15  1  0  0  0  0
 18 19  2  0  0  0  0
M  CHG  1  21  -1
M  END
>  <CHROM.1>
44.66342059,167.12650419,-76.82035374,178.87646170,-109.86377368,-33.73780856
4.89672802,-20.08831072,-1.42302463,0.54368785,2.79473588

>  <Name>
ligand

>  <RI>
0

>  <Rbt.Current_Directory>
/home/itssahil/PROJECTS/Mol_Feturizer/Test_systems_manuscript/rnas/4xwf

>  <Rbt.Executable>
rbdock ($Id: //depot/dev/client3/rdock/2013.1/src/exe/rbdock.cxx#4 $)

>  <Rbt.Library>
libRbt.so (2013.1, Build901 2013/11/27)

>  <Rbt.Parameter_File>
/export/apps/rDock/src/rDock_2013.1_src/data/scripts/dock_solv.prm

>  <Rbt.Receptor>
prm/blind_docking_100.prm

>  <SCORE>
-10.145

>  <SCORE.INTER>
-9.35068

>  <SCORE.INTER.CONST>
1

>  <SCORE.INTER.POLAR>
0

>  <SCORE.INTER.ROT>
5

>  <SCORE.INTER.SOLV>
12.5728

>  <SCORE.INTER.VDW>
-17.358

>  <SCORE.INTER.norm>
-0.425031

>  <SCORE.INTRA>
-0.794291

>  <SCORE.INTRA.DIHEDRAL>
-0.843625

>  <SCORE.INTRA.DIHEDRAL.0>
3.49807

>  <SCORE.INTRA.POLAR>
0

>  <SCORE.INTRA.POLAR.0>
0

>  <SCORE.INTRA.REPUL>
0

>  <SCORE.INTRA.REPUL.0>
0

>  <SCORE.INTRA.SOLV>
-0.323585

>  <SCORE.INTRA.SOLV.lig_0>
-73.062

>  <SCORE.INTRA.VDW>
-0.210685

>  <SCORE.INTRA.VDW.0>
-1.83782

>  <SCORE.INTRA.norm>
-0.0361041

>  <SCORE.RESTR>
0

>  <SCORE.RESTR.CAVITY>
0

>  <SCORE.RESTR.norm>
0

>  <SCORE.SYSTEM>
0

>  <SCORE.SYSTEM.CONST>
0

>  <SCORE.SYSTEM.DIHEDRAL>
0

>  <SCORE.SYSTEM.SOLV>
0

>  <SCORE.SYSTEM.norm>
0

>  <SCORE.heavy>
22

>  <SCORE.norm>
-0.461135

>  <RMSD>
12.836

$$$$
ligand
 OpenBabel02271912143D
libRbt.so/2013.1/901 2013/11/27
 22 23  0  0  0  0  0  0  0  0999 V2000
  -33.1952    6.5785  -20.7315 N   0  0  0  0  0  0  0  0  0  0  0  0
  -32.5014    3.3908  -19.8317 C   0  0  1  0  0  0  0  0  0  0  0  0
  -32.3074    4.4512  -20.8104 O   0  0  0  0  0  0  0  0  0  0  0  0
  -35.1947    0.7717  -19.3366 P   0  0  1  0  0  0  0  0  0  0  0  0
  -32.3217    5.7076  -20.1136 C   0  0  2  0  0  0  0  0  0  0  0  0
  -34.9839    7.3665  -21.6751 N   0  0  0  0  0  0  0  0  0  0  0  0
  -32.4877    6.3708  -17.8270 O   0  0  0  0  0  0  0  0  0  0  0  0
  -32.9070    5.3970  -18.7901 C   0  0  2  0  0  0  0  0  0  0  0  0
  -33.6358   10.2052  -23.1670 N   0  0  0  0  0  0  0  0  0  0  0  0
  -31.0385    4.0826  -18.1359 O   0  0  0  0  0  0  0  0  0  0  0  0
  -32.4262    4.0497  -18.5094 C   0  0  2  0  0  0  0  0  0  0  0  0
  -34.0924    8.3637  -21.5687 C   0  0  0  0  0  0  0  0  0  0  0  0
  -31.7964    8.6066  -20.6560 N   0  0  0  0  0  0  0  0  0  0  0  0
  -33.8883    1.6389  -19.3283 O   0  0  0  0  0  0  0  0  0  0  0  0
  -33.8516    2.8103  -20.0768 C   0  0  0  0  0  0  0  0  0  0  0  0
  -36.1593    1.5667  -18.3836 O   0  0  0  0  0  0  0  0  0  0  0  0
  -34.4215    6.2568  -21.1596 C   0  0  0  0  0  0  0  0  0  0  0  0
  -35.0270   10.5160  -21.3912 O   0  0  0  0  0  0  0  0  0  0  0  0
  -34.2955    9.7524  -22.0213 C   0  0  0  0  0  0  0  0  0  0  0  0
  -32.9645    7.8759  -20.9726 C   0  0  0  0  0  0  0  0  0  0  0  0
  -35.6902    0.6232  -20.7367 O   0  5  0  0  0  0  0  0  0  0  0  0
  -34.8956   -0.6267  -18.9796 O   0  0  0  0  0  0  0  0  0  0  0  0
  1 17  1  0  0  0  0
  1 20  1  0  0  0  0
  2 15  1  6  0  0  0
  2  3  1  0  0  0  0
  2 11  1  0  0  0  0
  3  5  1  0  0  0  0
  4 16  1  1  0  0  0
  4 21  1  0  0  0  0
  4 22  2  0  0  0  0
  4 14  1  0  0  0  0
  5  1  1  6  0  0  0
  5  8  1  0  0  0  0
  6 17  2  0  0  0  0
  6 12  1  0  0  0  0
  8  7  1  1  0  0  0
  8 11  1  0  0  0  0
  9 19  1  0  0  0  0
 11 10  1  6  0  0  0
 12 20  2  0  0  0  0
 12 19  1  0  0  0  0
 13 20  1  0  0  0  0
 14 15  1  0  0  0  0
 18 19  2  0  0  0  0
M  CHG  1  21  -1
M  END
>  <CHROM.1>
44.36435831,167.84460130,-76.80952269,179.04776584,-106.62648491,-33.74045537
4.88803427,-20.09153955,-1.42376117,0.54890404,2.79355248

>  <Name>
ligand

>  <RI>
0

>  <Rbt.Current_Directory>
/home/itssahil/PROJECTS/Mol_Feturizer/Test_systems_manuscript/rnas/4xwf

>  <Rbt.Executable>
rbdock ($Id: //depot/dev/client3/rdock/2013.1/src/exe/rbdock.cxx#4 $)

>  <Rbt.Library>
libRbt.so (2013.1, Build901 2013/11/27)

>  <Rbt.Parameter_File>
/export/apps/rDock/src/rDock_2013.1_src/data/scripts/dock_solv.prm

>  <Rbt.Receptor>
prm/blind_docking_80.prm

>  <SCORE>
-10.1501

>  <SCORE.INTER>
-9.36629

>  <SCORE.INTER.CONST>
1

>  <SCORE.INTER.POLAR>
0

>  <SCORE.INTER.ROT>
5

>  <SCORE.INTER.SOLV>
12.6317

>  <SCORE.INTER.VDW>
-17.3881

>  <SCORE.INTER.norm>
-0.425741

>  <SCORE.INTRA>
-0.783853

>  <SCORE.INTRA.DIHEDRAL>
-0.821096

>  <SCORE.INTRA.DIHEDRAL.0>
3.49807

>  <SCORE.INTRA.POLAR>
0

>  <SCORE.INTRA.POLAR.0>
0

>  <SCORE.INTRA.REPUL>
0

>  <SCORE.INTRA.REPUL.0>
0

>  <SCORE.INTRA.SOLV>
-0.329449

>  <SCORE.INTRA.SOLV.lig_0>
-73.062

>  <SCORE.INTRA.VDW>
-0.208581

>  <SCORE.INTRA.VDW.0>
-1.83782

>  <SCORE.INTRA.norm>
-0.0356297

>  <SCORE.RESTR>
0

>  <SCORE.RESTR.CAVITY>
0

>  <SCORE.RESTR.norm>
0

>  <SCORE.SYSTEM>
0

>  <SCORE.SYSTEM.CONST>
0

>  <SCORE.SYSTEM.DIHEDRAL>
0

>  <SCORE.SYSTEM.SOLV>
0

>  <SCORE.SYSTEM.norm>
0

>  <SCORE.heavy>
22

>  <SCORE.norm>
-0.46137

>  <RMSD>
12.838

$$$$
ligand
 OpenBabel02271912143D
libRbt.so/2013.1/901 2013/11/27
 22 23  0  0  0  0  0  0  0  0999 V2000
  -32.8695    4.9976  -20.6226 N   0  0  0  0  0  0  0  0  0  0  0  0
  -34.9187    2.5641  -21.7765 C   0  0  1  0  0  0  0  0  0  0  0  0
  -33.7955    3.4470  -22.0571 O   0  0  0  0  0  0  0  0  0  0  0  0
  -36.9885    5.6760  -21.1541 P   0  0  1  0  0  0  0  0  0  0  0  0
  -33.0718    3.6492  -20.8325 C   0  0  2  0  0  0  0  0  0  0  0  0
  -33.0201    7.1528  -20.8312 N   0  0  0  0  0  0  0  0  0  0  0  0
  -33.2560    2.8177  -18.6030 O   0  0  0  0  0  0  0  0  0  0  0  0
  -33.9964    3.1945  -19.7699 C   0  0  2  0  0  0  0  0  0  0  0  0
  -31.6938    7.8198  -17.5504 N   0  0  0  0  0  0  0  0  0  0  0  0
  -33.8748    0.9254  -20.4652 O   0  0  0  0  0  0  0  0  0  0  0  0
  -34.7157    2.0888  -20.3904 C   0  0  2  0  0  0  0  0  0  0  0  0
  -32.2174    6.8878  -19.7891 C   0  0  0  0  0  0  0  0  0  0  0  0
  -31.3889    4.8388  -18.6583 N   0  0  0  0  0  0  0  0  0  0  0  0
  -35.9005    4.5474  -21.1857 O   0  0  0  0  0  0  0  0  0  0  0  0
  -36.1588    3.3811  -21.8977 C   0  0  0  0  0  0  0  0  0  0  0  0
  -37.2808    5.9357  -22.6765 O   0  0  0  0  0  0  0  0  0  0  0  0
  -33.4190    5.9763  -21.3511 C   0  0  0  0  0  0  0  0  0  0  0  0
  -30.8845    8.7958  -19.4420 O   0  0  0  0  0  0  0  0  0  0  0  0
  -31.5507    7.8913  -18.9387 C   0  0  0  0  0  0  0  0  0  0  0  0
  -32.1202    5.5327  -19.6495 C   0  0  0  0  0  0  0  0  0  0  0  0
  -38.1690    5.2138  -20.3663 O   0  5  0  0  0  0  0  0  0  0  0  0
  -36.5284    6.8228  -20.3506 O   0  0  0  0  0  0  0  0  0  0  0  0
  1 17  1  0  0  0  0
  1 20  1  0  0  0  0
  2 15  1  1  0  0  0
  2  3  1  0  0  0  0
  2 11  1  0  0  0  0
  3  5  1  0  0  0  0
  4 16  1  6  0  0  0
  4 21  1  0  0  0  0
  4 22  2  0  0  0  0
  4 14  1  0  0  0  0
  5  1  1  1  0  0  0
  5  8  1  0  0  0  0
  6 17  2  0  0  0  0
  6 12  1  0  0  0  0
  8  7  1  1  0  0  0
  8 11  1  0  0  0  0
  9 19  1  0  0  0  0
 11 10  1  6  0  0  0
 12 20  2  0  0  0  0
 12 19  1  0  0  0  0
 13 20  1  0  0  0  0
 14 15  1  0  0  0  0
 18 19  2  0  0  0  0
M  CHG  1  21  -1
M  END
>  <CHROM.1>
8.33803449,-46.84505828,-53.81315553,177.44781481,127.80332201,-34.23151178
5.01975292,-20.43980423,-0.57720517,0.39069795,-3.05518216

>  <Name>
ligand

>  <RI>
0

>  <Rbt.Current_Directory>
/home/itssahil/PROJECTS/Mol_Feturizer/Test_systems_manuscript/rnas/4xwf

>  <Rbt.Executable>
rbdock ($Id: //depot/dev/client3/rdock/2013.1/src/exe/rbdock.cxx#4 $)

>  <Rbt.Library>
libRbt.so (2013.1, Build901 2013/11/27)

>  <Rbt.Parameter_File>
/export/apps/rDock/src/rDock_2013.1_src/data/scripts/dock_solv.prm

>  <Rbt.Receptor>
prm/blind_docking_80.prm

>  <SCORE>
-7.98911

>  <SCORE.INTER>
-8.49192

>  <SCORE.INTER.CONST>
1

>  <SCORE.INTER.POLAR>
0

>  <SCORE.INTER.ROT>
5

>  <SCORE.INTER.SOLV>
14.9771

>  <SCORE.INTER.VDW>
-17.587

>  <SCORE.INTER.norm>
-0.385996

>  <SCORE.INTRA>
0.50281

>  <SCORE.INTRA.DIHEDRAL>
-1.23835

>  <SCORE.INTRA.DIHEDRAL.0>
3.49807

>  <SCORE.INTRA.POLAR>
0

>  <SCORE.INTRA.POLAR.0>
0

>  <SCORE.INTRA.REPUL>
0

>  <SCORE.INTRA.REPUL.0>
0

>  <SCORE.INTRA.SOLV>
2.43996

>  <SCORE.INTRA.SOLV.lig_0>
-73.062

>  <SCORE.INTRA.VDW>
-0.0979948

>  <SCORE.INTRA.VDW.0>
-1.83782

>  <SCORE.INTRA.norm>
0.022855

>  <SCORE.RESTR>
0

>  <SCORE.RESTR.CAVITY>
0

>  <SCORE.RESTR.norm>
0

>  <SCORE.SYSTEM>
0

>  <SCORE.SYSTEM.CONST>
0

>  <SCORE.SYSTEM.DIHEDRAL>
0

>  <SCORE.SYSTEM.SOLV>
0

>  <SCORE.SYSTEM.norm>
0

>  <SCORE.heavy>
22

>  <SCORE.norm>
-0.363141

>  <RMSD>
12.869

$$$$
ligand
 OpenBabel02271912143D
libRbt.so/2013.1/901 2013/11/27
 22 23  0  0  0  0  0  0  0  0999 V2000
  -33.0168    4.7757  -20.7804 N   0  0  0  0  0  0  0  0  0  0  0  0
  -35.4396    2.6475  -21.8066 C   0  0  1  0  0  0  0  0  0  0  0  0
  -34.2816    3.4476  -22.1790 O   0  0  0  0  0  0  0  0  0  0  0  0
  -37.1476    5.7565  -20.4758 P   0  0  1  0  0  0  0  0  0  0  0  0
  -33.3811    3.4748  -21.0597 C   0  0  2  0  0  0  0  0  0  0  0  0
  -32.9421    6.9441  -20.8390 N   0  0  0  0  0  0  0  0  0  0  0  0
  -33.3432    2.4689  -18.8958 O   0  0  0  0  0  0  0  0  0  0  0  0
  -34.1936    3.0124  -19.9122 C   0  0  2  0  0  0  0  0  0  0  0  0
  -31.0594    8.7175  -19.3874 N   0  0  0  0  0  0  0  0  0  0  0  0
  -34.3980    0.8121  -20.7863 O   0  0  0  0  0  0  0  0  0  0  0  0
  -35.0989    2.0349  -20.5039 C   0  0  2  0  0  0  0  0  0  0  0  0
  -32.1032    6.5218  -19.8806 C   0  0  0  0  0  0  0  0  0  0  0  0
  -31.4298    4.3209  -18.9500 N   0  0  0  0  0  0  0  0  0  0  0  0
  -36.1847    4.5592  -20.7885 O   0  0  0  0  0  0  0  0  0  0  0  0
  -36.5956    3.5798  -21.6862 C   0  0  0  0  0  0  0  0  0  0  0  0
  -36.3932    6.5363  -19.3386 O   0  0  0  0  0  0  0  0  0  0  0  0
  -33.5039    5.8567  -21.4006 C   0  0  0  0  0  0  0  0  0  0  0  0
  -30.7546    6.9392  -17.9980 O   0  0  0  0  0  0  0  0  0  0  0  0
  -31.2720    7.3856  -19.0218 C   0  0  0  0  0  0  0  0  0  0  0  0
  -32.1470    5.1574  -19.8357 C   0  0  0  0  0  0  0  0  0  0  0  0
  -37.3846    6.5484  -21.7186 O   0  5  0  0  0  0  0  0  0  0  0  0
  -38.5055    5.2694  -20.1730 O   0  0  0  0  0  0  0  0  0  0  0  0
  1 17  1  0  0  0  0
  1 20  1  0  0  0  0
  2 15  1  1  0  0  0
  2  3  1  0  0  0  0
  2 11  1  0  0  0  0
  3  5  1  0  0  0  0
  4 16  1  1  0  0  0
  4 21  1  0  0  0  0
  4 22  2  0  0  0  0
  4 14  1  0  0  0  0
  5  1  1  1  0  0  0
  5  8  1  0  0  0  0
  6 17  2  0  0  0  0
  6 12  1  0  0  0  0
  8  7  1  1  0  0  0
  8 11  1  0  0  0  0
  9 19  1  0  0  0  0
 11 10  1  6  0  0  0
 12 20  2  0  0  0  0
 12 19  1  0  0  0  0
 13 20  1  0  0  0  0
 14 15  1  0  0  0  0
 18 19  2  0  0  0  0
M  CHG  1  21  -1
M  END
>  <CHROM.1>
4.32367687,-54.57867818,174.53704677,177.16822944,-16.19183937,-34.36395743
4.87727464,-20.34096809,-0.47727647,0.24511768,-2.98936948

>  <Name>
ligand

>  <RI>
0

>  <Rbt.Current_Directory>
/home/itssahil/PROJECTS/Mol_Feturizer/Test_systems_manuscript/rnas/4xwf

>  <Rbt.Executable>
rbdock ($Id: //depot/dev/client3/rdock/2013.1/src/exe/rbdock.cxx#4 $)

>  <Rbt.Library>
libRbt.so (2013.1, Build901 2013/11/27)

>  <Rbt.Parameter_File>
/export/apps/rDock/src/rDock_2013.1_src/data/scripts/dock_solv.prm

>  <Rbt.Receptor>
prm/blind_docking_60.prm

>  <SCORE>
-9.16668

>  <SCORE.INTER>
-9.95964

>  <SCORE.INTER.CONST>
1

>  <SCORE.INTER.POLAR>
0

>  <SCORE.INTER.ROT>
5

>  <SCORE.INTER.SOLV>
14.467

>  <SCORE.INTER.VDW>
-18.3954

>  <SCORE.INTER.norm>
-0.452711

>  <SCORE.INTRA>
0.792952

>  <SCORE.INTRA.DIHEDRAL>
-1.49724

>  <SCORE.INTRA.DIHEDRAL.0>
3.49807

>  <SCORE.INTRA.POLAR>
0

>  <SCORE.INTRA.POLAR.0>
0

>  <SCORE.INTRA.REPUL>
0

>  <SCORE.INTRA.REPUL.0>
0

>  <SCORE.INTRA.SOLV>
2.54627

>  <SCORE.INTRA.SOLV.lig_0>
-73.062

>  <SCORE.INTRA.VDW>
0.268438

>  <SCORE.INTRA.VDW.0>
-1.83782

>  <SCORE.INTRA.norm>
0.0360433

>  <SCORE.RESTR>
0

>  <SCORE.RESTR.CAVITY>
0

>  <SCORE.RESTR.norm>
0

>  <SCORE.SYSTEM>
0

>  <SCORE.SYSTEM.CONST>
0

>  <SCORE.SYSTEM.DIHEDRAL>
0

>  <SCORE.SYSTEM.SOLV>
0

>  <SCORE.SYSTEM.norm>
0

>  <SCORE.heavy>
22

>  <SCORE.norm>
-0.416667

>  <RMSD>
12.870

$$$$
ligand
 OpenBabel02271912143D
libRbt.so/2013.1/901 2013/11/27
 22 23  0  0  0  0  0  0  0  0999 V2000
  -35.0945   -5.3647  -13.6489 N   0  0  0  0  0  0  0  0  0  0  0  0
  -35.2795   -2.8655  -15.9232 C   0  0  1  0  0  0  0  0  0  0  0  0
  -35.7215   -4.1980  -15.5371 O   0  0  0  0  0  0  0  0  0  0  0  0
  -32.9655   -3.6490  -18.7750 P   0  0  1  0  0  0  0  0  0  0  0  0
  -35.7718   -4.2517  -14.1023 C   0  0  2  0  0  0  0  0  0  0  0  0
  -34.1522   -6.7906  -12.3110 N   0  0  0  0  0  0  0  0  0  0  0  0
  -35.4016   -2.6876  -12.3381 O   0  0  0  0  0  0  0  0  0  0  0  0
  -34.9918   -3.0762  -13.6544 C   0  0  2  0  0  0  0  0  0  0  0  0
  -32.1289   -8.5918  -14.3366 N   0  0  0  0  0  0  0  0  0  0  0  0
  -36.5908   -1.5376  -14.5048 O   0  0  0  0  0  0  0  0  0  0  0  0
  -35.2673   -2.0721  -14.6747 C   0  0  2  0  0  0  0  0  0  0  0  0
  -34.0852   -7.2794  -13.5588 C   0  0  0  0  0  0  0  0  0  0  0  0
  -34.8399   -6.5345  -15.8036 N   0  0  0  0  0  0  0  0  0  0  0  0
  -34.0771   -3.7271  -17.6719 O   0  0  0  0  0  0  0  0  0  0  0  0
  -33.9106   -3.0066  -16.4942 C   0  0  0  0  0  0  0  0  0  0  0  0
  -33.3584   -2.3639  -19.5902 O   0  0  0  0  0  0  0  0  0  0  0  0
  -34.7745   -5.5978  -12.3707 C   0  0  0  0  0  0  0  0  0  0  0  0
  -34.1344   -9.5992  -13.9508 O   0  0  0  0  0  0  0  0  0  0  0  0
  -33.4713   -8.5621  -13.9493 C   0  0  0  0  0  0  0  0  0  0  0  0
  -34.6792   -6.3885  -14.4066 C   0  0  0  0  0  0  0  0  0  0  0  0
  -31.6210   -3.5869  -18.1298 O   0  5  0  0  0  0  0  0  0  0  0  0
  -32.8773   -4.9187  -19.5186 O   0  0  0  0  0  0  0  0  0  0  0  0
  1 17  1  0  0  0  0
  1 20  1  0  0  0  0
  2 15  1  1  0  0  0
  2  3  1  0  0  0  0
  2 11  1  0  0  0  0
  3  5  1  0  0  0  0
  4 16  1  6  0  0  0
  4 21  1  0  0  0  0
  4 22  2  0  0  0  0
  4 14  1  0  0  0  0
  5  1  1  1  0  0  0
  5  8  1  0  0  0  0
  6 17  2  0  0  0  0
  6 12  1  0  0  0  0
  8  7  1  1  0  0  0
  8 11  1  0  0  0  0
  9 19  1  0  0  0  0
 11 10  1  1  0  0  0
 12 20  2  0  0  0  0
 12 19  1  0  0  0  0
 13 20  1  0  0  0  0
 14 15  1  0  0  0  0
 18 19  2  0  0  0  0
M  CHG  1  21  -1
M  END
>  <CHROM.1>
169.02144524,66.78082986,-85.60303925,159.16969451,-92.12902646,-34.24154460
-4.71871254,-15.52578217,1.84933402,-1.03019776,2.47019702

>  <Name>
ligand

>  <RI>
0

>  <Rbt.Current_Directory>
/home/itssahil/PROJECTS/Mol_Feturizer/Test_systems_manuscript/rnas/4xwf

>  <Rbt.Executable>
rbdock ($Id: //depot/dev/client3/rdock/2013.1/src/exe/rbdock.cxx#4 $)

>  <Rbt.Library>
libRbt.so (2013.1, Build901 2013/11/27)

>  <Rbt.Parameter_File>
/export/apps/rDock/src/rDock_2013.1_src/data/scripts/dock_solv.prm

>  <Rbt.Receptor>
prm/blind_docking_40.prm

>  <SCORE>
-2.86884

>  <SCORE.INTER>
-5.92275

>  <SCORE.INTER.CONST>
1

>  <SCORE.INTER.POLAR>
0

>  <SCORE.INTER.ROT>
5

>  <SCORE.INTER.SOLV>
19.8969

>  <SCORE.INTER.VDW>
-17.5141

>  <SCORE.INTER.norm>
-0.269216

>  <SCORE.INTRA>
2.92474

>  <SCORE.INTRA.DIHEDRAL>
1.84626

>  <SCORE.INTRA.DIHEDRAL.0>
3.49807

>  <SCORE.INTRA.POLAR>
0

>  <SCORE.INTRA.POLAR.0>
0

>  <SCORE.INTRA.REPUL>
0

>  <SCORE.INTRA.REPUL.0>
0

>  <SCORE.INTRA.SOLV>
2.5543

>  <SCORE.INTRA.SOLV.lig_0>
-73.062

>  <SCORE.INTRA.VDW>
0.724468

>  <SCORE.INTRA.VDW.0>
-1.83782

>  <SCORE.INTRA.norm>
0.132943

>  <SCORE.RESTR>
0.129163

>  <SCORE.RESTR.CAVITY>
0.129163

>  <SCORE.RESTR.norm>
0.00587105

>  <SCORE.SYSTEM>
0

>  <SCORE.SYSTEM.CONST>
0

>  <SCORE.SYSTEM.DIHEDRAL>
0

>  <SCORE.SYSTEM.SOLV>
0

>  <SCORE.SYSTEM.norm>
0

>  <SCORE.heavy>
22

>  <SCORE.norm>
-0.130402

>  <RMSD>
12.882

$$$$
ligand
 OpenBabel02271912143D
libRbt.so/2013.1/901 2013/11/27
 22 23  0  0  0  0  0  0  0  0999 V2000
  -32.6796    6.8073  -20.7304 N   0  0  0  0  0  0  0  0  0  0  0  0
  -32.3360    3.6767  -19.4921 C   0  0  1  0  0  0  0  0  0  0  0  0
  -31.8402    4.6813  -20.4220 O   0  0  0  0  0  0  0  0  0  0  0  0
  -35.0680    1.0613  -19.7142 P   0  0  1  0  0  0  0  0  0  0  0  0
  -32.0462    5.9746  -19.8311 C   0  0  2  0  0  0  0  0  0  0  0  0
  -34.1004    7.5442  -22.1964 N   0  0  0  0  0  0  0  0  0  0  0  0
  -32.8859    6.7640  -17.7411 O   0  0  0  0  0  0  0  0  0  0  0  0
  -33.0086    5.7368  -18.7319 C   0  0  2  0  0  0  0  0  0  0  0  0
  -32.2524   10.2700  -23.3797 N   0  0  0  0  0  0  0  0  0  0  0  0
  -31.4442    4.4659  -17.4731 O   0  0  0  0  0  0  0  0  0  0  0  0
  -32.6544    4.4086  -18.2466 C   0  0  2  0  0  0  0  0  0  0  0  0
  -33.2433    8.5356  -21.9086 C   0  0  0  0  0  0  0  0  0  0  0  0
  -31.2936    8.8183  -20.3979 N   0  0  0  0  0  0  0  0  0  0  0  0
  -33.8624    1.9787  -19.3099 O   0  0  0  0  0  0  0  0  0  0  0  0
  -33.5573    3.0799  -20.1024 C   0  0  0  0  0  0  0  0  0  0  0  0
  -34.6682    0.5539  -21.1471 O   0  0  0  0  0  0  0  0  0  0  0  0
  -33.7441    6.4694  -21.4674 C   0  0  0  0  0  0  0  0  0  0  0  0
  -34.1537   10.6862  -22.1975 O   0  0  0  0  0  0  0  0  0  0  0  0
  -33.2640    9.8890  -22.4940 C   0  0  0  0  0  0  0  0  0  0  0  0
  -32.3474    8.0802  -20.9838 C   0  0  0  0  0  0  0  0  0  0  0  0
  -35.2393   -0.0196  -18.6992 O   0  5  0  0  0  0  0  0  0  0  0  0
  -36.3435    1.7891  -19.5881 O   0  0  0  0  0  0  0  0  0  0  0  0
  1 17  1  0  0  0  0
  1 20  1  0  0  0  0
  2 15  1  6  0  0  0
  2  3  1  0  0  0  0
  2 11  1  0  0  0  0
  3  5  1  0  0  0  0
  4 16  1  6  0  0  0
  4 21  1  0  0  0  0
  4 22  2  0  0  0  0
  4 14  1  0  0  0  0
  5  1  1  6  0  0  0
  5  8  1  0  0  0  0
  6 17  2  0  0  0  0
  6 12  1  0  0  0  0
  8  7  1  1  0  0  0
  8 11  1  0  0  0  0
  9 19  1  0  0  0  0
 11 10  1  1  0  0  0
 12 20  2  0  0  0  0
 12 19  1  0  0  0  0
 13 20  1  0  0  0  0
 14 15  1  0  0  0  0
 18 19  2  0  0  0  0
M  CHG  1  21  -1
M  END
>  <CHROM.1>
46.09430188,169.86181433,59.62584804,-176.89500957,-109.91221799,-33.40456663
5.14249637,-20.20025468,-1.24652369,0.82941676,2.61659814

>  <Name>
ligand

>  <RI>
0

>  <Rbt.Current_Directory>
/home/itssahil/PROJECTS/Mol_Feturizer/Test_systems_manuscript/rnas/4xwf

>  <Rbt.Executable>
rbdock ($Id: //depot/dev/client3/rdock/2013.1/src/exe/rbdock.cxx#4 $)

>  <Rbt.Library>
libRbt.so (2013.1, Build901 2013/11/27)

>  <Rbt.Parameter_File>
/export/apps/rDock/src/rDock_2013.1_src/data/scripts/dock_solv.prm

>  <Rbt.Receptor>
prm/blind_docking_100.prm

>  <SCORE>
-10.6028

>  <SCORE.INTER>
-9.40545

>  <SCORE.INTER.CONST>
1

>  <SCORE.INTER.POLAR>
0

>  <SCORE.INTER.ROT>
5

>  <SCORE.INTER.SOLV>
13.8685

>  <SCORE.INTER.VDW>
-17.8265

>  <SCORE.INTER.norm>
-0.427521

>  <SCORE.INTRA>
-1.19735

>  <SCORE.INTRA.DIHEDRAL>
-1.49192

>  <SCORE.INTRA.DIHEDRAL.0>
3.49807

>  <SCORE.INTRA.POLAR>
0

>  <SCORE.INTRA.POLAR.0>
0

>  <SCORE.INTRA.REPUL>
0

>  <SCORE.INTRA.REPUL.0>
0

>  <SCORE.INTRA.SOLV>
-0.546324

>  <SCORE.INTRA.SOLV.lig_0>
-73.062

>  <SCORE.INTRA.VDW>
-0.178222

>  <SCORE.INTRA.VDW.0>
-1.83782

>  <SCORE.INTRA.norm>
-0.0544248

>  <SCORE.RESTR>
0

>  <SCORE.RESTR.CAVITY>
0

>  <SCORE.RESTR.norm>
0

>  <SCORE.SYSTEM>
0

>  <SCORE.SYSTEM.CONST>
0

>  <SCORE.SYSTEM.DIHEDRAL>
0

>  <SCORE.SYSTEM.SOLV>
0

>  <SCORE.SYSTEM.norm>
0

>  <SCORE.heavy>
22

>  <SCORE.norm>
-0.481945

>  <RMSD>
12.884

$$$$
ligand
 OpenBabel02271912143D
libRbt.so/2013.1/901 2013/11/27
 22 23  0  0  0  0  0  0  0  0999 V2000
  -32.6716    6.7983  -20.7277 N   0  0  0  0  0  0  0  0  0  0  0  0
  -32.3197    3.6488  -19.5406 C   0  0  1  0  0  0  0  0  0  0  0  0
  -31.8221    4.6722  -20.4488 O   0  0  0  0  0  0  0  0  0  0  0  0
  -35.1652    1.1520  -19.7052 P   0  0  1  0  0  0  0  0  0  0  0  0
  -32.0409    5.9539  -19.8375 C   0  0  2  0  0  0  0  0  0  0  0  0
  -34.0888    7.5546  -22.1874 N   0  0  0  0  0  0  0  0  0  0  0  0
  -32.9028    6.7022  -17.7415 O   0  0  0  0  0  0  0  0  0  0  0  0
  -33.0110    5.6915  -18.7508 C   0  0  2  0  0  0  0  0  0  0  0  0
  -34.3109   10.2887  -23.2770 N   0  0  0  0  0  0  0  0  0  0  0  0
  -31.4496    4.4083  -17.5008 O   0  0  0  0  0  0  0  0  0  0  0  0
  -32.6530    4.3573  -18.2855 C   0  0  2  0  0  0  0  0  0  0  0  0
  -33.2313    8.5416  -21.8856 C   0  0  0  0  0  0  0  0  0  0  0  0
  -31.2843    8.8037  -20.3676 N   0  0  0  0  0  0  0  0  0  0  0  0
  -33.9178    2.0223  -19.3244 O   0  0  0  0  0  0  0  0  0  0  0  0
  -33.5322    3.0555  -20.1714 C   0  0  0  0  0  0  0  0  0  0  0  0
  -35.2632    0.1262  -18.5183 O   0  0  0  0  0  0  0  0  0  0  0  0
  -33.7349    6.4706  -21.4710 C   0  0  0  0  0  0  0  0  0  0  0  0
  -32.3330   10.6903  -22.2224 O   0  0  0  0  0  0  0  0  0  0  0  0
  -33.2495    9.9020  -22.4543 C   0  0  0  0  0  0  0  0  0  0  0  0
  -32.3377    8.0739  -20.9647 C   0  0  0  0  0  0  0  0  0  0  0  0
  -36.3610    2.0309  -19.8653 O   0  5  0  0  0  0  0  0  0  0  0  0
  -35.0214    0.5993  -21.0640 O   0  0  0  0  0  0  0  0  0  0  0  0
  1 17  1  0  0  0  0
  1 20  1  0  0  0  0
  2 15  1  6  0  0  0
  2  3  1  0  0  0  0
  2 11  1  0  0  0  0
  3  5  1  0  0  0  0
  4 16  1  1  0  0  0
  4 21  1  0  0  0  0
  4 22  2  0  0  0  0
  4 14  1  0  0  0  0
  5  1  1  6  0  0  0
  5  8  1  0  0  0  0
  6 17  2  0  0  0  0
  6 12  1  0  0  0  0
  8  7  1  1  0  0  0
  8 11  1  0  0  0  0
  9 19  1  0  0  0  0
 11 10  1  1  0  0  0
 12 20  2  0  0  0  0
 12 19  1  0  0  0  0
 13 20  1  0  0  0  0
 14 15  1  0  0  0  0
 18 19  2  0  0  0  0
M  CHG  1  21  -1
M  END
>  <CHROM.1>
46.70372434,175.78542579,-179.84708091,-178.84052708,7.15908909,-33.43011060
5.16208318,-20.20301014,-1.24322737,0.78692344,2.62376527

>  <Name>
ligand

>  <RI>
0

>  <Rbt.Current_Directory>
/home/itssahil/PROJECTS/Mol_Feturizer/Test_systems_manuscript/rnas/4xwf

>  <Rbt.Executable>
rbdock ($Id: //depot/dev/client3/rdock/2013.1/src/exe/rbdock.cxx#4 $)

>  <Rbt.Library>
libRbt.so (2013.1, Build901 2013/11/27)

>  <Rbt.Parameter_File>
/export/apps/rDock/src/rDock_2013.1_src/data/scripts/dock_solv.prm

>  <Rbt.Receptor>
prm/blind_docking_100.prm

>  <SCORE>
-9.55325

>  <SCORE.INTER>
-8.73349

>  <SCORE.INTER.CONST>
1

>  <SCORE.INTER.POLAR>
0

>  <SCORE.INTER.ROT>
5

>  <SCORE.INTER.SOLV>
14.576

>  <SCORE.INTER.VDW>
-17.6143

>  <SCORE.INTER.norm>
-0.396977

>  <SCORE.INTRA>
-0.819752

>  <SCORE.INTRA.DIHEDRAL>
-1.87596

>  <SCORE.INTRA.DIHEDRAL.0>
3.49807

>  <SCORE.INTRA.POLAR>
0

>  <SCORE.INTRA.POLAR.0>
0

>  <SCORE.INTRA.REPUL>
0

>  <SCORE.INTRA.REPUL.0>
0

>  <SCORE.INTRA.SOLV>
0.17237

>  <SCORE.INTRA.SOLV.lig_0>
-73.062

>  <SCORE.INTRA.VDW>
0.0320434

>  <SCORE.INTRA.VDW.0>
-1.83782

>  <SCORE.INTRA.norm>
-0.0372615

>  <SCORE.RESTR>
0

>  <SCORE.RESTR.CAVITY>
0

>  <SCORE.RESTR.norm>
0

>  <SCORE.SYSTEM>
0

>  <SCORE.SYSTEM.CONST>
0

>  <SCORE.SYSTEM.DIHEDRAL>
0

>  <SCORE.SYSTEM.SOLV>
0

>  <SCORE.SYSTEM.norm>
0

>  <SCORE.heavy>
22

>  <SCORE.norm>
-0.434238

>  <RMSD>
12.885

$$$$
ligand
 OpenBabel02271912143D
libRbt.so/2013.1/901 2013/11/27
 22 23  0  0  0  0  0  0  0  0999 V2000
  -33.6292    3.9264  -19.8641 N   0  0  0  0  0  0  0  0  0  0  0  0
  -35.9202    1.4551  -20.1745 C   0  0  1  0  0  0  0  0  0  0  0  0
  -35.5409    2.6884  -19.5001 O   0  0  0  0  0  0  0  0  0  0  0  0
  -36.9116   -0.3824  -17.9012 P   0  0  1  0  0  0  0  0  0  0  0  0
  -34.8108    3.4999  -20.4343 C   0  0  2  0  0  0  0  0  0  0  0  0
  -31.6534    3.8918  -18.9663 N   0  0  0  0  0  0  0  0  0  0  0  0
  -34.2137    3.3051  -22.7368 O   0  0  0  0  0  0  0  0  0  0  0  0
  -34.4377    2.5729  -21.5262 C   0  0  2  0  0  0  0  0  0  0  0  0
  -30.9536    7.3382  -19.6953 N   0  0  0  0  0  0  0  0  0  0  0  0
  -36.6920    2.2922  -22.2235 O   0  0  0  0  0  0  0  0  0  0  0  0
  -35.5668    1.6535  -21.5972 C   0  0  2  0  0  0  0  0  0  0  0  0
  -32.0204    5.1731  -19.1222 C   0  0  0  0  0  0  0  0  0  0  0  0
  -33.9997    6.3568  -20.0412 N   0  0  0  0  0  0  0  0  0  0  0  0
  -35.5384    0.2964  -18.2361 O   0  0  0  0  0  0  0  0  0  0  0  0
  -35.1214    0.3570  -19.5612 C   0  0  0  0  0  0  0  0  0  0  0  0
  -37.4698    0.4980  -16.7248 O   0  0  0  0  0  0  0  0  0  0  0  0
  -32.6576    3.1192  -19.4226 C   0  0  0  0  0  0  0  0  0  0  0  0
  -30.7703    6.4622  -17.6014 O   0  0  0  0  0  0  0  0  0  0  0  0
  -31.2184    6.3509  -18.7424 C   0  0  0  0  0  0  0  0  0  0  0  0
  -33.2622    5.2030  -19.6898 C   0  0  0  0  0  0  0  0  0  0  0  0
  -37.7717   -0.4047  -19.1209 O   0  5  0  0  0  0  0  0  0  0  0  0
  -36.7329   -1.8220  -17.6400 O   0  0  0  0  0  0  0  0  0  0  0  0
  1 17  1  0  0  0  0
  1 20  1  0  0  0  0
  2 15  1  1  0  0  0
  2  3  1  0  0  0  0
  2 11  1  0  0  0  0
  3  5  1  0  0  0  0
  4 16  1  1  0  0  0
  4 21  1  0  0  0  0
  4 22  2  0  0  0  0
  4 14  1  0  0  0  0
  5  1  1  1  0  0  0
  5  8  1  0  0  0  0
  6 17  2  0  0  0  0
  6 12  1  0  0  0  0
  8  7  1  6  0  0  0
  8 11  1  0  0  0  0
  9 19  1  0  0  0  0
 11 10  1  6  0  0  0
 12 20  2  0  0  0  0
 12 19  1  0  0  0  0
 13 20  1  0  0  0  0
 14 15  1  0  0  0  0
 18 19  2  0  0  0  0
M  CHG  1  21  -1
M  END
>  <CHROM.1>
60.36442072,64.02454399,-143.51630199,76.94876598,125.93511016,-34.63293049
2.62936501,-19.45793781,0.38692783,-0.82647158,-1.20366715

>  <Name>
ligand

>  <RI>
0

>  <Rbt.Current_Directory>
/home/itssahil/PROJECTS/Mol_Feturizer/Test_systems_manuscript/rnas/4xwf

>  <Rbt.Executable>
rbdock ($Id: //depot/dev/client3/rdock/2013.1/src/exe/rbdock.cxx#4 $)

>  <Rbt.Library>
libRbt.so (2013.1, Build901 2013/11/27)

>  <Rbt.Parameter_File>
/export/apps/rDock/src/rDock_2013.1_src/data/scripts/dock_solv.prm

>  <Rbt.Receptor>
prm/blind_docking_80.prm

>  <SCORE>
-7.71437

>  <SCORE.INTER>
-9.77174

>  <SCORE.INTER.CONST>
1

>  <SCORE.INTER.POLAR>
0

>  <SCORE.INTER.ROT>
5

>  <SCORE.INTER.SOLV>
15.926

>  <SCORE.INTER.VDW>
-18.7565

>  <SCORE.INTER.norm>
-0.44417

>  <SCORE.INTRA>
2.05737

>  <SCORE.INTRA.DIHEDRAL>
0.954966

>  <SCORE.INTRA.DIHEDRAL.0>
3.49807

>  <SCORE.INTRA.POLAR>
0

>  <SCORE.INTRA.POLAR.0>
0

>  <SCORE.INTRA.REPUL>
0

>  <SCORE.INTRA.REPUL.0>
0

>  <SCORE.INTRA.SOLV>
1.86242

>  <SCORE.INTRA.SOLV.lig_0>
-73.062

>  <SCORE.INTRA.VDW>
0.648675

>  <SCORE.INTRA.VDW.0>
-1.83782

>  <SCORE.INTRA.norm>
0.0935168

>  <SCORE.RESTR>
0

>  <SCORE.RESTR.CAVITY>
0

>  <SCORE.RESTR.norm>
0

>  <SCORE.SYSTEM>
0

>  <SCORE.SYSTEM.CONST>
0

>  <SCORE.SYSTEM.DIHEDRAL>
0

>  <SCORE.SYSTEM.SOLV>
0

>  <SCORE.SYSTEM.norm>
0

>  <SCORE.heavy>
22

>  <SCORE.norm>
-0.350653

>  <RMSD>
12.890

$$$$
ligand
 OpenBabel02271912143D
libRbt.so/2013.1/901 2013/11/27
 22 23  0  0  0  0  0  0  0  0999 V2000
  -34.3565   -5.4978  -13.9689 N   0  0  0  0  0  0  0  0  0  0  0  0
  -35.0425   -3.1856  -16.3429 C   0  0  1  0  0  0  0  0  0  0  0  0
  -35.1963   -4.5654  -15.9041 O   0  0  0  0  0  0  0  0  0  0  0  0
  -32.4830   -3.9054  -18.9976 P   0  0  1  0  0  0  0  0  0  0  0  0
  -35.2494   -4.5723  -14.4684 C   0  0  2  0  0  0  0  0  0  0  0  0
  -32.6236   -6.3519  -12.9797 N   0  0  0  0  0  0  0  0  0  0  0  0
  -35.2376   -2.8974  -12.7682 O   0  0  0  0  0  0  0  0  0  0  0  0
  -34.7408   -3.2415  -14.0669 C   0  0  2  0  0  0  0  0  0  0  0  0
  -34.1316   -9.5978  -12.5819 N   0  0  0  0  0  0  0  0  0  0  0  0
  -36.6203   -2.1116  -14.9822 O   0  0  0  0  0  0  0  0  0  0  0  0
  -35.2119   -2.3594  -15.1276 C   0  0  2  0  0  0  0  0  0  0  0  0
  -33.4185   -7.3580  -13.3750 C   0  0  0  0  0  0  0  0  0  0  0  0
  -35.6034   -7.5462  -14.5388 N   0  0  0  0  0  0  0  0  0  0  0  0
  -33.5783   -4.0392  -17.8836 O   0  0  0  0  0  0  0  0  0  0  0  0
  -33.6688   -3.0553  -16.9050 C   0  0  0  0  0  0  0  0  0  0  0  0
  -32.4442   -5.3407  -19.6371 O   0  0  0  0  0  0  0  0  0  0  0  0
  -33.2059   -5.1972  -13.3554 C   0  0  0  0  0  0  0  0  0  0  0  0
  -32.0758   -9.2857  -13.5103 O   0  0  0  0  0  0  0  0  0  0  0  0
  -33.1534   -8.7947  -13.1745 C   0  0  0  0  0  0  0  0  0  0  0  0
  -34.5133   -6.8279  -13.9961 C   0  0  0  0  0  0  0  0  0  0  0  0
  -32.8600   -2.8148  -19.9444 O   0  5  0  0  0  0  0  0  0  0  0  0
  -31.2249   -3.3843  -18.4333 O   0  0  0  0  0  0  0  0  0  0  0  0
  1 17  1  0  0  0  0
  1 20  1  0  0  0  0
  2 15  1  1  0  0  0
  2  3  1  0  0  0  0
  2 11  1  0  0  0  0
  3  5  1  0  0  0  0
  4 16  1  6  0  0  0
  4 21  1  0  0  0  0
  4 22  2  0  0  0  0
  4 14  1  0  0  0  0
  5  1  1  1  0  0  0
  5  8  1  0  0  0  0
  6 17  2  0  0  0  0
  6 12  1  0  0  0  0
  8  7  1  1  0  0  0
  8 11  1  0  0  0  0
  9 19  1  0  0  0  0
 11 10  1  1  0  0  0
 12 20  2  0  0  0  0
 12 19  1  0  0  0  0
 13 20  1  0  0  0  0
 14 15  1  0  0  0  0
 18 19  2  0  0  0  0
M  CHG  1  21  -1
M  END
>  <CHROM.1>
107.37468633,54.99127210,165.21680656,159.79690690,127.82559120,-33.84480527
-4.96225994,-15.61766194,1.74947788,-0.92056019,2.38071810

>  <Name>
ligand

>  <RI>
0

>  <Rbt.Current_Directory>
/home/itssahil/PROJECTS/Mol_Feturizer/Test_systems_manuscript/rnas/4xwf

>  <Rbt.Executable>
rbdock ($Id: //depot/dev/client3/rdock/2013.1/src/exe/rbdock.cxx#4 $)

>  <Rbt.Library>
libRbt.so (2013.1, Build901 2013/11/27)

>  <Rbt.Parameter_File>
/export/apps/rDock/src/rDock_2013.1_src/data/scripts/dock_solv.prm

>  <Rbt.Receptor>
prm/blind_docking_40.prm

>  <SCORE>
-7.85931

>  <SCORE.INTER>
-10.5216

>  <SCORE.INTER.CONST>
1

>  <SCORE.INTER.POLAR>
0

>  <SCORE.INTER.ROT>
5

>  <SCORE.INTER.SOLV>
18.9277

>  <SCORE.INTER.VDW>
-20.257

>  <SCORE.INTER.norm>
-0.478256

>  <SCORE.INTRA>
2.53277

>  <SCORE.INTRA.DIHEDRAL>
0.43177

>  <SCORE.INTRA.DIHEDRAL.0>
3.49807

>  <SCORE.INTRA.POLAR>
0

>  <SCORE.INTRA.POLAR.0>
0

>  <SCORE.INTRA.REPUL>
0

>  <SCORE.INTRA.REPUL.0>
0

>  <SCORE.INTRA.SOLV>
0.0536796

>  <SCORE.INTRA.SOLV.lig_0>
-73.062

>  <SCORE.INTRA.VDW>
2.29005

>  <SCORE.INTRA.VDW.0>
-1.83782

>  <SCORE.INTRA.norm>
0.115126

>  <SCORE.RESTR>
0.129545

>  <SCORE.RESTR.CAVITY>
0.129545

>  <SCORE.RESTR.norm>
0.00588841

>  <SCORE.SYSTEM>
0

>  <SCORE.SYSTEM.CONST>
0

>  <SCORE.SYSTEM.DIHEDRAL>
0

>  <SCORE.SYSTEM.SOLV>
0

>  <SCORE.SYSTEM.norm>
0

>  <SCORE.heavy>
22

>  <SCORE.norm>
-0.357241

>  <RMSD>
12.908

$$$$
ligand
 OpenBabel02271912143D
libRbt.so/2013.1/901 2013/11/27
 22 23  0  0  0  0  0  0  0  0999 V2000
  -33.8836    6.1519  -20.6888 N   0  0  0  0  0  0  0  0  0  0  0  0
  -33.4243    2.8021  -20.5464 C   0  0  1  0  0  0  0  0  0  0  0  0
  -33.5288    3.9837  -21.3907 O   0  0  0  0  0  0  0  0  0  0  0  0
  -35.9852    0.4349  -19.0665 P   0  0  1  0  0  0  0  0  0  0  0  0
  -32.9917    5.0997  -20.6624 C   0  0  2  0  0  0  0  0  0  0  0  0
  -35.7481    7.2614  -20.7489 N   0  0  0  0  0  0  0  0  0  0  0  0
  -31.9439    5.3849  -18.5371 O   0  0  0  0  0  0  0  0  0  0  0  0
  -32.9312    4.6378  -19.2574 C   0  0  2  0  0  0  0  0  0  0  0  0
  -36.0828   10.2012  -20.9609 N   0  0  0  0  0  0  0  0  0  0  0  0
  -31.2401    3.0361  -19.7284 O   0  0  0  0  0  0  0  0  0  0  0  0
  -32.6217    3.2182  -19.3755 C   0  0  2  0  0  0  0  0  0  0  0  0
  -34.7410    8.1406  -20.6335 C   0  0  0  0  0  0  0  0  0  0  0  0
  -32.2690    7.9993  -20.4522 N   0  0  0  0  0  0  0  0  0  0  0  0
  -34.6887    1.1795  -19.5391 O   0  0  0  0  0  0  0  0  0  0  0  0
  -34.8099    2.4221  -20.1516 C   0  0  0  0  0  0  0  0  0  0  0  0
  -35.4462   -0.9689  -18.6086 O   0  0  0  0  0  0  0  0  0  0  0  0
  -35.2120    6.0267  -20.7892 C   0  0  0  0  0  0  0  0  0  0  0  0
  -33.9472   10.3084  -20.1779 O   0  0  0  0  0  0  0  0  0  0  0  0
  -34.8815    9.6069  -20.5651 C   0  0  0  0  0  0  0  0  0  0  0  0
  -33.5638    7.4493  -20.5919 C   0  0  0  0  0  0  0  0  0  0  0  0
  -36.6533    1.2236  -17.9898 O   0  5  0  0  0  0  0  0  0  0  0  0
  -37.0117    0.4509  -20.1241 O   0  0  0  0  0  0  0  0  0  0  0  0
  1 17  1  0  0  0  0
  1 20  1  0  0  0  0
  2 15  1  1  0  0  0
  2  3  1  0  0  0  0
  2 11  1  0  0  0  0
  3  5  1  0  0  0  0
  4 16  1  1  0  0  0
  4 21  1  0  0  0  0
  4 22  2  0  0  0  0
  4 14  1  0  0  0  0
  5  1  1  1  0  0  0
  5  8  1  0  0  0  0
  6 17  2  0  0  0  0
  6 12  1  0  0  0  0
  8  7  1  1  0  0  0
  8 11  1  0  0  0  0
  9 19  1  0  0  0  0
 11 10  1  6  0  0  0
 12 20  2  0  0  0  0
 12 19  1  0  0  0  0
 13 20  1  0  0  0  0
 14 15  1  0  0  0  0
 18 19  2  0  0  0  0
M  CHG  1  21  -1
M  END
>  <CHROM.1>
28.62740825,170.48093984,173.19764956,-176.51785210,-16.42549093,-34.35337904
4.44785970,-19.93801465,-1.41829623,0.04169061,2.97039990

>  <Name>
ligand

>  <RI>
0

>  <Rbt.Current_Directory>
/home/itssahil/PROJECTS/Mol_Feturizer/Test_systems_manuscript/rnas/4xwf

>  <Rbt.Executable>
rbdock ($Id: //depot/dev/client3/rdock/2013.1/src/exe/rbdock.cxx#4 $)

>  <Rbt.Library>
libRbt.so (2013.1, Build901 2013/11/27)

>  <Rbt.Parameter_File>
/export/apps/rDock/src/rDock_2013.1_src/data/scripts/dock_solv.prm

>  <Rbt.Receptor>
prm/blind_docking_80.prm

>  <SCORE>
-9.488

>  <SCORE.INTER>
-9.07429

>  <SCORE.INTER.CONST>
1

>  <SCORE.INTER.POLAR>
0

>  <SCORE.INTER.ROT>
5

>  <SCORE.INTER.SOLV>
15.2306

>  <SCORE.INTER.VDW>
-18.0597

>  <SCORE.INTER.norm>
-0.412468

>  <SCORE.INTRA>
-0.41371

>  <SCORE.INTRA.DIHEDRAL>
-1.28492

>  <SCORE.INTRA.DIHEDRAL.0>
3.49807

>  <SCORE.INTRA.POLAR>
0

>  <SCORE.INTRA.POLAR.0>
0

>  <SCORE.INTRA.REPUL>
0

>  <SCORE.INTRA.REPUL.0>
0

>  <SCORE.INTRA.SOLV>
0.689849

>  <SCORE.INTRA.SOLV.lig_0>
-73.062

>  <SCORE.INTRA.VDW>
-0.116175

>  <SCORE.INTRA.VDW.0>
-1.83782

>  <SCORE.INTRA.norm>
-0.018805

>  <SCORE.RESTR>
0

>  <SCORE.RESTR.CAVITY>
0

>  <SCORE.RESTR.norm>
0

>  <SCORE.SYSTEM>
0

>  <SCORE.SYSTEM.CONST>
0

>  <SCORE.SYSTEM.DIHEDRAL>
0

>  <SCORE.SYSTEM.SOLV>
0

>  <SCORE.SYSTEM.norm>
0

>  <SCORE.heavy>
22

>  <SCORE.norm>
-0.431273

>  <RMSD>
12.913

$$$$
ligand
 OpenBabel02271912143D
libRbt.so/2013.1/901 2013/11/27
 22 23  0  0  0  0  0  0  0  0999 V2000
  -35.0557    5.9509  -20.5778 N   0  0  0  0  0  0  0  0  0  0  0  0
  -32.5917    7.9457  -19.3937 C   0  0  1  0  0  0  0  0  0  0  0  0
  -33.9721    7.5027  -19.2596 O   0  0  0  0  0  0  0  0  0  0  0  0
  -33.3756    9.0388  -22.9361 P   0  0  1  0  0  0  0  0  0  0  0  0
  -34.0384    6.1251  -19.6623 C   0  0  2  0  0  0  0  0  0  0  0  0
  -36.6306    6.3912  -22.0049 N   0  0  0  0  0  0  0  0  0  0  0  0
  -32.4474    4.4909  -20.3651 O   0  0  0  0  0  0  0  0  0  0  0  0
  -32.7733    5.8855  -20.3923 C   0  0  2  0  0  0  0  0  0  0  0  0
  -38.1106    3.1964  -22.0538 N   0  0  0  0  0  0  0  0  0  0  0  0
  -31.4526    6.1364  -18.4327 O   0  0  0  0  0  0  0  0  0  0  0  0
  -31.8091    6.7268  -19.6939 C   0  0  2  0  0  0  0  0  0  0  0  0
  -36.4759    5.0595  -21.9494 C   0  0  0  0  0  0  0  0  0  0  0  0
  -34.9953    3.4908  -20.7203 N   0  0  0  0  0  0  0  0  0  0  0  0
  -33.2472    8.2987  -21.5597 O   0  0  0  0  0  0  0  0  0  0  0  0
  -32.5504    8.9139  -20.5255 C   0  0  0  0  0  0  0  0  0  0  0  0
  -32.1284    8.5206  -23.7401 O   0  0  0  0  0  0  0  0  0  0  0  0
  -35.7509    6.9424  -21.1470 C   0  0  0  0  0  0  0  0  0  0  0  0
  -37.1290    3.9984  -23.9456 O   0  0  0  0  0  0  0  0  0  0  0  0
  -37.2487    4.0698  -22.7226 C   0  0  0  0  0  0  0  0  0  0  0  0
  -35.4837    4.7746  -21.0551 C   0  0  0  0  0  0  0  0  0  0  0  0
  -34.6929    8.7157  -23.5592 O   0  5  0  0  0  0  0  0  0  0  0  0
  -33.4926   10.4946  -22.7374 O   0  0  0  0  0  0  0  0  0  0  0  0
  1 17  1  0  0  0  0
  1 20  1  0  0  0  0
  2 15  1  6  0  0  0
  2  3  1  0  0  0  0
  2 11  1  0  0  0  0
  3  5  1  0  0  0  0
  4 16  1  6  0  0  0
  4 21  1  0  0  0  0
  4 22  2  0  0  0  0
  4 14  1  0  0  0  0
  5  1  1  6  0  0  0
  5  8  1  0  0  0  0
  6 17  2  0  0  0  0
  6 12  1  0  0  0  0
  8  7  1  1  0  0  0
  8 11  1  0  0  0  0
  9 19  1  0  0  0  0
 11 10  1  1  0  0  0
 12 20  2  0  0  0  0
 12 19  1  0  0  0  0
 13 20  1  0  0  0  0
 14 15  1  0  0  0  0
 18 19  2  0  0  0  0
M  CHG  1  21  -1
M  END
>  <CHROM.1>
8.69228533,-47.85471262,91.20412361,-178.73873582,-113.49580549,-34.22407195
6.68342435,-21.40462846,-2.62428579,-0.68989404,-0.68411142

>  <Name>
ligand

>  <RI>
0

>  <Rbt.Current_Directory>
/home/itssahil/PROJECTS/Mol_Feturizer/Test_systems_manuscript/rnas/4xwf

>  <Rbt.Executable>
rbdock ($Id: //depot/dev/client3/rdock/2013.1/src/exe/rbdock.cxx#4 $)

>  <Rbt.Library>
libRbt.so (2013.1, Build901 2013/11/27)

>  <Rbt.Parameter_File>
/export/apps/rDock/src/rDock_2013.1_src/data/scripts/dock_solv.prm

>  <Rbt.Receptor>
prm/blind_docking_100.prm

>  <SCORE>
-4.63821

>  <SCORE.INTER>
-5.67586

>  <SCORE.INTER.CONST>
1

>  <SCORE.INTER.POLAR>
0

>  <SCORE.INTER.ROT>
5

>  <SCORE.INTER.SOLV>
10.0235

>  <SCORE.INTER.VDW>
-14.0584

>  <SCORE.INTER.norm>
-0.257994

>  <SCORE.INTRA>
1.03766

>  <SCORE.INTRA.DIHEDRAL>
-0.234545

>  <SCORE.INTRA.DIHEDRAL.0>
3.49807

>  <SCORE.INTRA.POLAR>
0

>  <SCORE.INTRA.POLAR.0>
0

>  <SCORE.INTRA.REPUL>
0

>  <SCORE.INTRA.REPUL.0>
0

>  <SCORE.INTRA.SOLV>
2.58424

>  <SCORE.INTRA.SOLV.lig_0>
-73.062

>  <SCORE.INTRA.VDW>
-0.137191

>  <SCORE.INTRA.VDW.0>
-1.83782

>  <SCORE.INTRA.norm>
0.0471662

>  <SCORE.RESTR>
0

>  <SCORE.RESTR.CAVITY>
0

>  <SCORE.RESTR.norm>
0

>  <SCORE.SYSTEM>
0

>  <SCORE.SYSTEM.CONST>
0

>  <SCORE.SYSTEM.DIHEDRAL>
0

>  <SCORE.SYSTEM.SOLV>
0

>  <SCORE.SYSTEM.norm>
0

>  <SCORE.heavy>
22

>  <SCORE.norm>
-0.210828

>  <RMSD>
12.915

$$$$
ligand
 OpenBabel02271912143D
libRbt.so/2013.1/901 2013/11/27
 22 23  0  0  0  0  0  0  0  0999 V2000
  -32.6196    7.1243  -20.7601 N   0  0  0  0  0  0  0  0  0  0  0  0
  -32.3211    4.0878  -19.2963 C   0  0  1  0  0  0  0  0  0  0  0  0
  -31.7394    5.0662  -20.2042 O   0  0  0  0  0  0  0  0  0  0  0  0
  -34.8880    1.3363  -19.7402 P   0  0  1  0  0  0  0  0  0  0  0  0
  -32.0889    6.3765  -19.7295 C   0  0  2  0  0  0  0  0  0  0  0  0
  -33.8949    7.7381  -22.4057 N   0  0  0  0  0  0  0  0  0  0  0  0
  -33.2629    7.2307  -17.8353 O   0  0  0  0  0  0  0  0  0  0  0  0
  -33.1912    6.1467  -18.7688 C   0  0  2  0  0  0  0  0  0  0  0  0
  -33.1538   11.2070  -22.1882 N   0  0  0  0  0  0  0  0  0  0  0  0
  -31.7739    5.0313  -17.2215 O   0  0  0  0  0  0  0  0  0  0  0  0
  -32.8528    4.8675  -18.1571 C   0  0  2  0  0  0  0  0  0  0  0  0
  -33.0258    8.7297  -22.1568 C   0  0  0  0  0  0  0  0  0  0  0  0
  -31.1887    9.1185  -20.5328 N   0  0  0  0  0  0  0  0  0  0  0  0
  -33.7779    2.3214  -19.2345 O   0  0  0  0  0  0  0  0  0  0  0  0
  -33.4105    3.3942  -20.0394 C   0  0  0  0  0  0  0  0  0  0  0  0
  -34.3126    0.8189  -21.1084 O   0  0  0  0  0  0  0  0  0  0  0  0
  -33.6362    6.7392  -21.5403 C   0  0  0  0  0  0  0  0  0  0  0  0
  -32.7261   10.0337  -24.0925 O   0  0  0  0  0  0  0  0  0  0  0  0
  -32.9507   10.0113  -22.8825 C   0  0  0  0  0  0  0  0  0  0  0  0
  -32.2213    8.3519  -21.1198 C   0  0  0  0  0  0  0  0  0  0  0  0
  -35.1159    0.2702  -18.7207 O   0  5  0  0  0  0  0  0  0  0  0  0
  -36.2028    2.0018  -19.7701 O   0  0  0  0  0  0  0  0  0  0  0  0
  1 17  1  0  0  0  0
  1 20  1  0  0  0  0
  2 15  1  6  0  0  0
  2  3  1  0  0  0  0
  2 11  1  0  0  0  0
  3  5  1  0  0  0  0
  4 16  1  6  0  0  0
  4 21  1  0  0  0  0
  4 22  2  0  0  0  0
  4 14  1  0  0  0  0
  5  1  1  6  0  0  0
  5  8  1  0  0  0  0
  6 17  2  0  0  0  0
  6 12  1  0  0  0  0
  8  7  1  1  0  0  0
  8 11  1  0  0  0  0
  9 19  1  0  0  0  0
 11 10  1  1  0  0  0
 12 20  2  0  0  0  0
 12 19  1  0  0  0  0
 13 20  1  0  0  0  0
 14 15  1  0  0  0  0
 18 19  2  0  0  0  0
M  CHG  1  21  -1
M  END
>  <CHROM.1>
52.88509556,169.78802277,57.50563991,-178.11071664,119.04406977,-33.31805393
5.44509611,-20.26045709,-1.13596462,1.01512081,2.44687289

>  <Name>
ligand

>  <RI>
0

>  <Rbt.Current_Directory>
/home/itssahil/PROJECTS/Mol_Feturizer/Test_systems_manuscript/rnas/4xwf

>  <Rbt.Executable>
rbdock ($Id: //depot/dev/client3/rdock/2013.1/src/exe/rbdock.cxx#4 $)

>  <Rbt.Library>
libRbt.so (2013.1, Build901 2013/11/27)

>  <Rbt.Parameter_File>
/export/apps/rDock/src/rDock_2013.1_src/data/scripts/dock_solv.prm

>  <Rbt.Receptor>
prm/blind_docking_60.prm

>  <SCORE>
-10.0064

>  <SCORE.INTER>
-8.81871

>  <SCORE.INTER.CONST>
1

>  <SCORE.INTER.POLAR>
0

>  <SCORE.INTER.ROT>
5

>  <SCORE.INTER.SOLV>
14.6791

>  <SCORE.INTER.VDW>
-17.7055

>  <SCORE.INTER.norm>
-0.40085

>  <SCORE.INTRA>
-1.18949

>  <SCORE.INTRA.DIHEDRAL>
-1.60871

>  <SCORE.INTRA.DIHEDRAL.0>
3.49807

>  <SCORE.INTRA.POLAR>
0

>  <SCORE.INTRA.POLAR.0>
0

>  <SCORE.INTRA.REPUL>
0

>  <SCORE.INTRA.REPUL.0>
0

>  <SCORE.INTRA.SOLV>
-0.699349

>  <SCORE.INTRA.SOLV.lig_0>
-73.062

>  <SCORE.INTRA.VDW>
-0.0354569

>  <SCORE.INTRA.VDW.0>
-1.83782

>  <SCORE.INTRA.norm>
-0.0540676

>  <SCORE.RESTR>
0.00178039

>  <SCORE.RESTR.CAVITY>
0.00178039

>  <SCORE.RESTR.norm>
8.09266e-05

>  <SCORE.SYSTEM>
0

>  <SCORE.SYSTEM.CONST>
0

>  <SCORE.SYSTEM.DIHEDRAL>
0

>  <SCORE.SYSTEM.SOLV>
0

>  <SCORE.SYSTEM.norm>
0

>  <SCORE.heavy>
22

>  <SCORE.norm>
-0.454837

>  <RMSD>
12.933

$$$$
ligand
 OpenBabel02271912143D
libRbt.so/2013.1/901 2013/11/27
 22 23  0  0  0  0  0  0  0  0999 V2000
  -33.7377    5.9494  -20.7826 N   0  0  0  0  0  0  0  0  0  0  0  0
  -32.4836    3.1284  -19.3961 C   0  0  1  0  0  0  0  0  0  0  0  0
  -32.6559    3.9200  -20.6060 O   0  0  0  0  0  0  0  0  0  0  0  0
  -35.1725    0.5930  -20.2207 P   0  0  1  0  0  0  0  0  0  0  0  0
  -32.6461    5.3079  -20.2346 C   0  0  2  0  0  0  0  0  0  0  0  0
  -35.7610    6.3375  -21.4658 N   0  0  0  0  0  0  0  0  0  0  0  0
  -32.3294    6.5107  -18.1977 O   0  0  0  0  0  0  0  0  0  0  0  0
  -32.8540    5.3065  -18.7692 C   0  0  2  0  0  0  0  0  0  0  0  0
  -36.8692    8.8169  -22.6131 N   0  0  0  0  0  0  0  0  0  0  0  0
  -30.7439    4.2982  -18.3477 O   0  0  0  0  0  0  0  0  0  0  0  0
  -32.1674    4.0994  -18.3259 C   0  0  2  0  0  0  0  0  0  0  0  0
  -35.0342    7.4495  -21.6553 C   0  0  0  0  0  0  0  0  0  0  0  0
  -32.6865    8.1340  -21.2276 N   0  0  0  0  0  0  0  0  0  0  0  0
  -33.8572    1.4392  -20.1072 O   0  0  0  0  0  0  0  0  0  0  0  0
  -33.7767    2.4342  -19.1392 C   0  0  0  0  0  0  0  0  0  0  0  0
  -35.9099    1.2389  -21.4493 O   0  0  0  0  0  0  0  0  0  0  0  0
  -34.9512    5.4049  -20.9290 C   0  0  0  0  0  0  0  0  0  0  0  0
  -34.7676    9.6668  -22.3967 O   0  0  0  0  0  0  0  0  0  0  0  0
  -35.5283    8.7129  -22.2334 C   0  0  0  0  0  0  0  0  0  0  0  0
  -33.7597    7.2138  -21.2246 C   0  0  0  0  0  0  0  0  0  0  0  0
  -34.8287   -0.8493  -20.3921 O   0  5  0  0  0  0  0  0  0  0  0  0
  -35.8936    0.5736  -18.9353 O   0  0  0  0  0  0  0  0  0  0  0  0
  1 17  1  0  0  0  0
  1 20  1  0  0  0  0
  2 15  1  1  0  0  0
  2  3  1  0  0  0  0
  2 11  1  0  0  0  0
  3  5  1  0  0  0  0
  4 16  1  6  0  0  0
  4 21  1  0  0  0  0
  4 22  2  0  0  0  0
  4 14  1  0  0  0  0
  5  1  1  6  0  0  0
  5  8  1  0  0  0  0
  6 17  2  0  0  0  0
  6 12  1  0  0  0  0
  8  7  1  1  0  0  0
  8 11  1  0  0  0  0
  9 19  1  0  0  0  0
 11 10  1  6  0  0  0
 12 20  2  0  0  0  0
 12 19  1  0  0  0  0
 13 20  1  0  0  0  0
 14 15  1  0  0  0  0
 18 19  2  0  0  0  0
M  CHG  1  21  -1
M  END
>  <CHROM.1>
36.16664097,72.72952937,101.27920014,-174.06943781,1.08956392,-34.06962655
4.46239803,-20.35520045,-1.56346278,0.59251509,2.91322688

>  <Name>
ligand

>  <RI>
0

>  <Rbt.Current_Directory>
/home/itssahil/PROJECTS/Mol_Feturizer/Test_systems_manuscript/rnas/4xwf

>  <Rbt.Executable>
rbdock ($Id: //depot/dev/client3/rdock/2013.1/src/exe/rbdock.cxx#4 $)

>  <Rbt.Library>
libRbt.so (2013.1, Build901 2013/11/27)

>  <Rbt.Parameter_File>
/export/apps/rDock/src/rDock_2013.1_src/data/scripts/dock_solv.prm

>  <Rbt.Receptor>
prm/blind_docking_80.prm

>  <SCORE>
-8.77864

>  <SCORE.INTER>
-8.92767

>  <SCORE.INTER.CONST>
1

>  <SCORE.INTER.POLAR>
0

>  <SCORE.INTER.ROT>
5

>  <SCORE.INTER.SOLV>
12.8588

>  <SCORE.INTER.VDW>
-17.1714

>  <SCORE.INTER.norm>
-0.405803

>  <SCORE.INTRA>
0.149035

>  <SCORE.INTRA.DIHEDRAL>
0.496613

>  <SCORE.INTRA.DIHEDRAL.0>
3.49807

>  <SCORE.INTRA.POLAR>
0

>  <SCORE.INTRA.POLAR.0>
0

>  <SCORE.INTRA.REPUL>
0

>  <SCORE.INTRA.REPUL.0>
0

>  <SCORE.INTRA.SOLV>
0.0454893

>  <SCORE.INTRA.SOLV.lig_0>
-73.062

>  <SCORE.INTRA.VDW>
-0.122016

>  <SCORE.INTRA.VDW.0>
-1.83782

>  <SCORE.INTRA.norm>
0.00677433

>  <SCORE.RESTR>
0

>  <SCORE.RESTR.CAVITY>
0

>  <SCORE.RESTR.norm>
0

>  <SCORE.SYSTEM>
0

>  <SCORE.SYSTEM.CONST>
0

>  <SCORE.SYSTEM.DIHEDRAL>
0

>  <SCORE.SYSTEM.SOLV>
0

>  <SCORE.SYSTEM.norm>
0

>  <SCORE.heavy>
22

>  <SCORE.norm>
-0.399029

>  <RMSD>
12.935

$$$$
ligand
 OpenBabel02271912143D
libRbt.so/2013.1/901 2013/11/27
 22 23  0  0  0  0  0  0  0  0999 V2000
  -34.4057   -5.5185  -13.9724 N   0  0  0  0  0  0  0  0  0  0  0  0
  -35.0434   -3.1939  -16.3477 C   0  0  1  0  0  0  0  0  0  0  0  0
  -35.2249   -4.5702  -15.9087 O   0  0  0  0  0  0  0  0  0  0  0  0
  -32.4913   -3.9489  -19.0037 P   0  0  1  0  0  0  0  0  0  0  0  0
  -35.2796   -4.5757  -14.4730 C   0  0  2  0  0  0  0  0  0  0  0  0
  -32.6792   -6.4066  -13.0021 N   0  0  0  0  0  0  0  0  0  0  0  0
  -35.2363   -2.9009  -12.7733 O   0  0  0  0  0  0  0  0  0  0  0  0
  -34.7452   -3.2551  -14.0714 C   0  0  2  0  0  0  0  0  0  0  0  0
  -31.9843   -9.3243  -13.0584 N   0  0  0  0  0  0  0  0  0  0  0  0
  -36.6010   -2.0884  -14.9890 O   0  0  0  0  0  0  0  0  0  0  0  0
  -35.1976   -2.3642  -15.1328 C   0  0  2  0  0  0  0  0  0  0  0  0
  -33.5147   -7.3948  -13.3573 C   0  0  0  0  0  0  0  0  0  0  0  0
  -35.7301   -7.5373  -14.4686 N   0  0  0  0  0  0  0  0  0  0  0  0
  -33.6028   -4.0605  -17.9034 O   0  0  0  0  0  0  0  0  0  0  0  0
  -33.6668   -3.0911  -16.9084 C   0  0  0  0  0  0  0  0  0  0  0  0
  -32.4540   -5.3926  -19.6240 O   0  0  0  0  0  0  0  0  0  0  0  0
  -33.2326   -5.2422  -13.3911 C   0  0  0  0  0  0  0  0  0  0  0  0
  -34.2436   -9.6065  -13.0188 O   0  0  0  0  0  0  0  0  0  0  0  0
  -33.2912   -8.8347  -13.1301 C   0  0  0  0  0  0  0  0  0  0  0  0
  -34.6057   -6.8432  -13.9661 C   0  0  0  0  0  0  0  0  0  0  0  0
  -32.8473   -2.8681  -19.9696 O   0  5  0  0  0  0  0  0  0  0  0  0
  -31.2374   -3.4293  -18.4288 O   0  0  0  0  0  0  0  0  0  0  0  0
  1 17  1  0  0  0  0
  1 20  1  0  0  0  0
  2 15  1  1  0  0  0
  2  3  1  0  0  0  0
  2 11  1  0  0  0  0
  3  5  1  0  0  0  0
  4 16  1  6  0  0  0
  4 21  1  0  0  0  0
  4 22  2  0  0  0  0
  4 14  1  0  0  0  0
  5  1  1  1  0  0  0
  5  8  1  0  0  0  0
  6 17  2  0  0  0  0
  6 12  1  0  0  0  0
  8  7  1  1  0  0  0
  8 11  1  0  0  0  0
  9 19  1  0  0  0  0
 11 10  1  1  0  0  0
 12 20  2  0  0  0  0
 12 19  1  0  0  0  0
 13 20  1  0  0  0  0
 14 15  1  0  0  0  0
 18 19  2  0  0  0  0
M  CHG  1  21  -1
M  END
>  <CHROM.1>
105.41178737,56.04757633,162.73020081,160.68304422,-27.86224593,-33.88511903
-4.98848114,-15.61371466,1.77149747,-0.92742638,2.39887810

>  <Name>
ligand

>  <RI>
0

>  <Rbt.Current_Directory>
/home/itssahil/PROJECTS/Mol_Feturizer/Test_systems_manuscript/rnas/4xwf

>  <Rbt.Executable>
rbdock ($Id: //depot/dev/client3/rdock/2013.1/src/exe/rbdock.cxx#4 $)

>  <Rbt.Library>
libRbt.so (2013.1, Build901 2013/11/27)

>  <Rbt.Parameter_File>
/export/apps/rDock/src/rDock_2013.1_src/data/scripts/dock_solv.prm

>  <Rbt.Receptor>
prm/blind_docking_40.prm

>  <SCORE>
-7.16005

>  <SCORE.INTER>
-10.018

>  <SCORE.INTER.CONST>
1

>  <SCORE.INTER.POLAR>
0

>  <SCORE.INTER.ROT>
5

>  <SCORE.INTER.SOLV>
19.8871

>  <SCORE.INTER.VDW>
-20.241

>  <SCORE.INTER.norm>
-0.455362

>  <SCORE.INTRA>
2.75148

>  <SCORE.INTRA.DIHEDRAL>
1.01724

>  <SCORE.INTRA.DIHEDRAL.0>
3.49807

>  <SCORE.INTRA.POLAR>
0

>  <SCORE.INTRA.POLAR.0>
0

>  <SCORE.INTRA.REPUL>
0

>  <SCORE.INTRA.REPUL.0>
0

>  <SCORE.INTRA.SOLV>
-0.19148

>  <SCORE.INTRA.SOLV.lig_0>
-73.062

>  <SCORE.INTRA.VDW>
2.33859

>  <SCORE.INTRA.VDW.0>
-1.83782

>  <SCORE.INTRA.norm>
0.125067

>  <SCORE.RESTR>
0.106429

>  <SCORE.RESTR.CAVITY>
0.106429

>  <SCORE.RESTR.norm>
0.0048377

>  <SCORE.SYSTEM>
0

>  <SCORE.SYSTEM.CONST>
0

>  <SCORE.SYSTEM.DIHEDRAL>
0

>  <SCORE.SYSTEM.SOLV>
0

>  <SCORE.SYSTEM.norm>
0

>  <SCORE.heavy>
22

>  <SCORE.norm>
-0.325457

>  <RMSD>
12.942

$$$$
ligand
 OpenBabel02271912143D
libRbt.so/2013.1/901 2013/11/27
 22 23  0  0  0  0  0  0  0  0999 V2000
  -33.9140    6.0012  -20.6440 N   0  0  0  0  0  0  0  0  0  0  0  0
  -32.4940    3.1697  -19.4529 C   0  0  1  0  0  0  0  0  0  0  0  0
  -32.7519    4.0091  -20.6142 O   0  0  0  0  0  0  0  0  0  0  0  0
  -35.4080    0.9636  -20.4531 P   0  0  1  0  0  0  0  0  0  0  0  0
  -32.7752    5.3777  -20.1776 C   0  0  2  0  0  0  0  0  0  0  0  0
  -35.9895    6.3602  -21.1678 N   0  0  0  0  0  0  0  0  0  0  0  0
  -32.4066    6.4964  -18.1018 O   0  0  0  0  0  0  0  0  0  0  0  0
  -32.9134    5.3006  -18.7059 C   0  0  2  0  0  0  0  0  0  0  0  0
  -35.8282    9.8887  -21.2003 N   0  0  0  0  0  0  0  0  0  0  0  0
  -30.7504    4.3560  -18.4297 O   0  0  0  0  0  0  0  0  0  0  0  0
  -32.1631    4.1017  -18.3528 C   0  0  2  0  0  0  0  0  0  0  0  0
  -35.2926    7.4772  -21.4275 C   0  0  0  0  0  0  0  0  0  0  0  0
  -32.9260    8.1908  -21.1966 N   0  0  0  0  0  0  0  0  0  0  0  0
  -34.1021    1.8286  -20.3810 O   0  0  0  0  0  0  0  0  0  0  0  0
  -33.7474    2.4150  -19.1710 C   0  0  0  0  0  0  0  0  0  0  0  0
  -34.8675   -0.5100  -20.3707 O   0  0  0  0  0  0  0  0  0  0  0  0
  -35.1292    5.4426  -20.6867 C   0  0  0  0  0  0  0  0  0  0  0  0
  -36.3325    8.7535  -23.1088 O   0  0  0  0  0  0  0  0  0  0  0  0
  -35.8452    8.7283  -21.9788 C   0  0  0  0  0  0  0  0  0  0  0  0
  -33.9853    7.2598  -21.0973 C   0  0  0  0  0  0  0  0  0  0  0  0
  -36.3280    1.3495  -19.3429 O   0  5  0  0  0  0  0  0  0  0  0  0
  -36.2081    1.3233  -21.6376 O   0  0  0  0  0  0  0  0  0  0  0  0
  1 17  1  0  0  0  0
  1 20  1  0  0  0  0
  2 15  1  1  0  0  0
  2  3  1  0  0  0  0
  2 11  1  0  0  0  0
  3  5  1  0  0  0  0
  4 16  1  1  0  0  0
  4 21  1  0  0  0  0
  4 22  2  0  0  0  0
  4 14  1  0  0  0  0
  5  1  1  6  0  0  0
  5  8  1  0  0  0  0
  6 17  2  0  0  0  0
  6 12  1  0  0  0  0
  8  7  1  1  0  0  0
  8 11  1  0  0  0  0
  9 19  1  0  0  0  0
 11 10  1  6  0  0  0
 12 20  2  0  0  0  0
 12 19  1  0  0  0  0
 13 20  1  0  0  0  0
 14 15  1  0  0  0  0
 18 19  2  0  0  0  0
M  CHG  1  21  -1
M  END
>  <CHROM.1>
40.35132886,51.53014426,-100.23410199,-179.08326842,115.34401248,-34.25129211
4.59581923,-20.34144108,-1.59635122,0.57340606,2.97610915

>  <Name>
ligand

>  <RI>
0

>  <Rbt.Current_Directory>
/home/itssahil/PROJECTS/Mol_Feturizer/Test_systems_manuscript/rnas/4xwf

>  <Rbt.Executable>
rbdock ($Id: //depot/dev/client3/rdock/2013.1/src/exe/rbdock.cxx#4 $)

>  <Rbt.Library>
libRbt.so (2013.1, Build901 2013/11/27)

>  <Rbt.Parameter_File>
/export/apps/rDock/src/rDock_2013.1_src/data/scripts/dock_solv.prm

>  <Rbt.Receptor>
prm/blind_docking_100.prm

>  <SCORE>
-8.70433

>  <SCORE.INTER>
-8.73547

>  <SCORE.INTER.CONST>
1

>  <SCORE.INTER.POLAR>
0

>  <SCORE.INTER.ROT>
5

>  <SCORE.INTER.SOLV>
12.8733

>  <SCORE.INTER.VDW>
-17.0481

>  <SCORE.INTER.norm>
-0.397067

>  <SCORE.INTRA>
0.0311353

>  <SCORE.INTRA.DIHEDRAL>
0.0907563

>  <SCORE.INTRA.DIHEDRAL.0>
3.49807

>  <SCORE.INTRA.POLAR>
0

>  <SCORE.INTRA.POLAR.0>
0

>  <SCORE.INTRA.REPUL>
0

>  <SCORE.INTRA.REPUL.0>
0

>  <SCORE.INTRA.SOLV>
0.0486815

>  <SCORE.INTRA.SOLV.lig_0>
-73.062

>  <SCORE.INTRA.VDW>
-0.0385836

>  <SCORE.INTRA.VDW.0>
-1.83782

>  <SCORE.INTRA.norm>
0.00141524

>  <SCORE.RESTR>
0

>  <SCORE.RESTR.CAVITY>
0

>  <SCORE.RESTR.norm>
0

>  <SCORE.SYSTEM>
0

>  <SCORE.SYSTEM.CONST>
0

>  <SCORE.SYSTEM.DIHEDRAL>
0

>  <SCORE.SYSTEM.SOLV>
0

>  <SCORE.SYSTEM.norm>
0

>  <SCORE.heavy>
22

>  <SCORE.norm>
-0.395651

>  <RMSD>
12.943

$$$$
ligand
 OpenBabel02271912143D
libRbt.so/2013.1/901 2013/11/27
 22 23  0  0  0  0  0  0  0  0999 V2000
  -33.8432    6.4057  -20.5056 N   0  0  0  0  0  0  0  0  0  0  0  0
  -33.3581    3.0587  -20.6278 C   0  0  1  0  0  0  0  0  0  0  0  0
  -33.4066    4.3116  -21.3680 O   0  0  0  0  0  0  0  0  0  0  0  0
  -35.9999    0.6028  -19.4671 P   0  0  1  0  0  0  0  0  0  0  0  0
  -32.9444    5.3592  -20.5002 C   0  0  2  0  0  0  0  0  0  0  0  0
  -35.7124    7.5066  -20.4320 N   0  0  0  0  0  0  0  0  0  0  0  0
  -32.0784    5.4549  -18.2783 O   0  0  0  0  0  0  0  0  0  0  0  0
  -32.9942    4.7720  -19.1424 C   0  0  2  0  0  0  0  0  0  0  0  0
  -34.5279   10.5532  -21.7166 N   0  0  0  0  0  0  0  0  0  0  0  0
  -31.2515    3.2268  -19.6137 O   0  0  0  0  0  0  0  0  0  0  0  0
  -32.6594    3.3703  -19.3617 C   0  0  2  0  0  0  0  0  0  0  0  0
  -34.7074    8.3922  -20.5117 C   0  0  0  0  0  0  0  0  0  0  0  0
  -32.2303    8.2662  -20.6186 N   0  0  0  0  0  0  0  0  0  0  0  0
  -34.6815    1.3494  -19.8711 O   0  0  0  0  0  0  0  0  0  0  0  0
  -34.7669    2.6386  -20.3852 C   0  0  0  0  0  0  0  0  0  0  0  0
  -36.4569    1.3594  -18.1673 O   0  0  0  0  0  0  0  0  0  0  0  0
  -35.1728    6.2727  -20.4346 C   0  0  0  0  0  0  0  0  0  0  0  0
  -35.2435   10.4747  -19.5562 O   0  0  0  0  0  0  0  0  0  0  0  0
  -34.8533    9.8591  -20.5481 C   0  0  0  0  0  0  0  0  0  0  0  0
  -33.5270    7.7066  -20.5554 C   0  0  0  0  0  0  0  0  0  0  0  0
  -36.9763    0.6619  -20.5945 O   0  5  0  0  0  0  0  0  0  0  0  0
  -35.7654   -0.8481  -19.3556 O   0  0  0  0  0  0  0  0  0  0  0  0
  1 17  1  0  0  0  0
  1 20  1  0  0  0  0
  2 15  1  1  0  0  0
  2  3  1  0  0  0  0
  2 11  1  0  0  0  0
  3  5  1  0  0  0  0
  4 16  1  1  0  0  0
  4 21  1  0  0  0  0
  4 22  2  0  0  0  0
  4 14  1  0  0  0  0
  5  1  1  1  0  0  0
  5  8  1  0  0  0  0
  6 17  2  0  0  0  0
  6 12  1  0  0  0  0
  8  7  1  1  0  0  0
  8 11  1  0  0  0  0
  9 19  1  0  0  0  0
 11 10  1  6  0  0  0
 12 20  2  0  0  0  0
 12 19  1  0  0  0  0
 13 20  1  0  0  0  0
 14 15  1  0  0  0  0
 18 19  2  0  0  0  0
M  CHG  1  21  -1
M  END
>  <CHROM.1>
43.96114439,170.85222568,-71.57094277,178.64928261,-111.99014335,-34.34440744
4.65662311,-20.01046806,-1.41350537,0.07872854,3.01741177

>  <Name>
ligand

>  <RI>
0

>  <Rbt.Current_Directory>
/home/itssahil/PROJECTS/Mol_Feturizer/Test_systems_manuscript/rnas/4xwf

>  <Rbt.Executable>
rbdock ($Id: //depot/dev/client3/rdock/2013.1/src/exe/rbdock.cxx#4 $)

>  <Rbt.Library>
libRbt.so (2013.1, Build901 2013/11/27)

>  <Rbt.Parameter_File>
/export/apps/rDock/src/rDock_2013.1_src/data/scripts/dock_solv.prm

>  <Rbt.Receptor>
prm/blind_docking_60.prm

>  <SCORE>
-10.6433

>  <SCORE.INTER>
-9.55966

>  <SCORE.INTER.CONST>
1

>  <SCORE.INTER.POLAR>
0

>  <SCORE.INTER.ROT>
5

>  <SCORE.INTER.SOLV>
11.7761

>  <SCORE.INTER.VDW>
-17.2318

>  <SCORE.INTER.norm>
-0.43453

>  <SCORE.INTRA>
-1.08361

>  <SCORE.INTRA.DIHEDRAL>
-1.38849

>  <SCORE.INTRA.DIHEDRAL.0>
3.49807

>  <SCORE.INTRA.POLAR>
0

>  <SCORE.INTRA.POLAR.0>
0

>  <SCORE.INTRA.REPUL>
0

>  <SCORE.INTRA.REPUL.0>
0

>  <SCORE.INTRA.SOLV>
-0.317572

>  <SCORE.INTRA.SOLV.lig_0>
-73.062

>  <SCORE.INTRA.VDW>
-0.230583

>  <SCORE.INTRA.VDW.0>
-1.83782

>  <SCORE.INTRA.norm>
-0.0492551

>  <SCORE.RESTR>
0

>  <SCORE.RESTR.CAVITY>
0

>  <SCORE.RESTR.norm>
0

>  <SCORE.SYSTEM>
0

>  <SCORE.SYSTEM.CONST>
0

>  <SCORE.SYSTEM.DIHEDRAL>
0

>  <SCORE.SYSTEM.SOLV>
0

>  <SCORE.SYSTEM.norm>
0

>  <SCORE.heavy>
22

>  <SCORE.norm>
-0.483785

>  <RMSD>
12.974

$$$$
ligand
 OpenBabel02271912143D
libRbt.so/2013.1/901 2013/11/27
 22 23  0  0  0  0  0  0  0  0999 V2000
  -34.3213   -5.5094  -13.9470 N   0  0  0  0  0  0  0  0  0  0  0  0
  -35.0672   -3.2317  -16.3363 C   0  0  1  0  0  0  0  0  0  0  0  0
  -35.2111   -4.6045  -15.8730 O   0  0  0  0  0  0  0  0  0  0  0  0
  -32.6508   -3.9752  -19.0914 P   0  0  1  0  0  0  0  0  0  0  0  0
  -35.2260   -4.5899  -14.4363 C   0  0  2  0  0  0  0  0  0  0  0  0
  -32.5727   -6.3518  -12.9756 N   0  0  0  0  0  0  0  0  0  0  0  0
  -35.1669   -2.8899  -12.7623 O   0  0  0  0  0  0  0  0  0  0  0  0
  -34.7052   -3.2542  -14.0685 C   0  0  2  0  0  0  0  0  0  0  0  0
  -34.0507   -9.6094  -12.5670 N   0  0  0  0  0  0  0  0  0  0  0  0
  -36.6069   -2.1349  -14.9504 O   0  0  0  0  0  0  0  0  0  0  0  0
  -35.2032   -2.3872  -15.1294 C   0  0  2  0  0  0  0  0  0  0  0  0
  -33.3635   -7.3633  -13.3653 C   0  0  0  0  0  0  0  0  0  0  0  0
  -35.5577   -7.5664  -14.5089 N   0  0  0  0  0  0  0  0  0  0  0  0
  -33.6338   -4.1312  -17.8797 O   0  0  0  0  0  0  0  0  0  0  0  0
  -33.7087   -3.1122  -16.9365 C   0  0  0  0  0  0  0  0  0  0  0  0
  -31.2896   -3.5964  -18.4029 O   0  0  0  0  0  0  0  0  0  0  0  0
  -33.1674   -5.2010  -13.3438 C   0  0  0  0  0  0  0  0  0  0  0  0
  -32.0083   -9.2809  -13.5189 O   0  0  0  0  0  0  0  0  0  0  0  0
  -33.0855   -8.7983  -13.1699 C   0  0  0  0  0  0  0  0  0  0  0  0
  -34.4682   -6.8407  -13.9751 C   0  0  0  0  0  0  0  0  0  0  0  0
  -32.6164   -5.2439  -19.8769 O   0  5  0  0  0  0  0  0  0  0  0  0
  -33.1910   -3.0285  -20.0837 O   0  0  0  0  0  0  0  0  0  0  0  0
  1 17  1  0  0  0  0
  1 20  1  0  0  0  0
  2 15  1  1  0  0  0
  2  3  1  0  0  0  0
  2 11  1  0  0  0  0
  3  5  1  0  0  0  0
  4 16  1  1  0  0  0
  4 21  1  0  0  0  0
  4 22  2  0  0  0  0
  4 14  1  0  0  0  0
  5  1  1  1  0  0  0
  5  8  1  0  0  0  0
  6 17  2  0  0  0  0
  6 12  1  0  0  0  0
  8  7  1  1  0  0  0
  8 11  1  0  0  0  0
  9 19  1  0  0  0  0
 11 10  1  1  0  0  0
 12 20  2  0  0  0  0
 12 19  1  0  0  0  0
 13 20  1  0  0  0  0
 14 15  1  0  0  0  0
 18 19  2  0  0  0  0
M  CHG  1  21  -1
M  END
>  <CHROM.1>
108.84561319,53.59569819,50.82494560,154.74943884,127.68851671,-33.86765099
-5.00104759,-15.63554797,1.70069503,-0.95247741,2.31871188

>  <Name>
ligand

>  <RI>
0

>  <Rbt.Current_Directory>
/home/itssahil/PROJECTS/Mol_Feturizer/Test_systems_manuscript/rnas/4xwf

>  <Rbt.Executable>
rbdock ($Id: //depot/dev/client3/rdock/2013.1/src/exe/rbdock.cxx#4 $)

>  <Rbt.Library>
libRbt.so (2013.1, Build901 2013/11/27)

>  <Rbt.Parameter_File>
/export/apps/rDock/src/rDock_2013.1_src/data/scripts/dock_solv.prm

>  <Rbt.Receptor>
prm/blind_docking_40.prm

>  <SCORE>
-7.66643

>  <SCORE.INTER>
-10.4415

>  <SCORE.INTER.CONST>
1

>  <SCORE.INTER.POLAR>
0

>  <SCORE.INTER.ROT>
5

>  <SCORE.INTER.SOLV>
16.1546

>  <SCORE.INTER.VDW>
-19.2792

>  <SCORE.INTER.norm>
-0.474614

>  <SCORE.INTRA>
2.64795

>  <SCORE.INTRA.DIHEDRAL>
1.14068

>  <SCORE.INTRA.DIHEDRAL.0>
3.49807

>  <SCORE.INTRA.POLAR>
0

>  <SCORE.INTRA.POLAR.0>
0

>  <SCORE.INTRA.REPUL>
0

>  <SCORE.INTRA.REPUL.0>
0

>  <SCORE.INTRA.SOLV>
-0.59573

>  <SCORE.INTRA.SOLV.lig_0>
-73.062

>  <SCORE.INTRA.VDW>
2.37547

>  <SCORE.INTRA.VDW.0>
-1.83782

>  <SCORE.INTRA.norm>
0.120361

>  <SCORE.RESTR>
0.127136

>  <SCORE.RESTR.CAVITY>
0.127136

>  <SCORE.RESTR.norm>
0.0057789

>  <SCORE.SYSTEM>
0

>  <SCORE.SYSTEM.CONST>
0

>  <SCORE.SYSTEM.DIHEDRAL>
0

>  <SCORE.SYSTEM.SOLV>
0

>  <SCORE.SYSTEM.norm>
0

>  <SCORE.heavy>
22

>  <SCORE.norm>
-0.348474

>  <RMSD>
12.975

$$$$
ligand
 OpenBabel02271912143D
libRbt.so/2013.1/901 2013/11/27
 22 23  0  0  0  0  0  0  0  0999 V2000
  -35.8767    5.7534  -21.2929 N   0  0  0  0  0  0  0  0  0  0  0  0
  -33.2127    7.0602  -19.6656 C   0  0  1  0  0  0  0  0  0  0  0  0
  -34.6525    6.8436  -19.6704 O   0  0  0  0  0  0  0  0  0  0  0  0
  -30.9094    9.4837  -21.4478 P   0  0  1  0  0  0  0  0  0  0  0  0
  -34.9115    5.5891  -20.3210 C   0  0  2  0  0  0  0  0  0  0  0  0
  -37.1705    6.6883  -22.7637 N   0  0  0  0  0  0  0  0  0  0  0  0
  -33.5592    3.8541  -21.2469 O   0  0  0  0  0  0  0  0  0  0  0  0
  -33.6534    5.2670  -21.0311 C   0  0  2  0  0  0  0  0  0  0  0  0
  -39.6565    4.4107  -23.1728 N   0  0  0  0  0  0  0  0  0  0  0  0
  -32.4505    4.9436  -19.0074 O   0  0  0  0  0  0  0  0  0  0  0  0
  -32.6177    5.7964  -20.1524 C   0  0  2  0  0  0  0  0  0  0  0  0
  -37.4007    5.3664  -22.7831 C   0  0  0  0  0  0  0  0  0  0  0  0
  -36.5023    3.3870  -21.5838 N   0  0  0  0  0  0  0  0  0  0  0  0
  -31.5624    8.3916  -20.5316 O   0  0  0  0  0  0  0  0  0  0  0  0
  -32.9366    8.1889  -20.5982 C   0  0  0  0  0  0  0  0  0  0  0  0
  -29.3713    9.3070  -21.1766 O   0  0  0  0  0  0  0  0  0  0  0  0
  -36.2273    6.9266  -21.8324 C   0  0  0  0  0  0  0  0  0  0  0  0
  -38.0512    4.3147  -24.7851 O   0  0  0  0  0  0  0  0  0  0  0  0
  -38.3703    4.6739  -23.6518 C   0  0  0  0  0  0  0  0  0  0  0  0
  -36.5874    4.7705  -21.8617 C   0  0  0  0  0  0  0  0  0  0  0  0
  -31.3186    9.2601  -22.8657 O   0  5  0  0  0  0  0  0  0  0  0  0
  -31.4938   10.8097  -21.1779 O   0  0  0  0  0  0  0  0  0  0  0  0
  1 17  1  0  0  0  0
  1 20  1  0  0  0  0
  2 15  1  6  0  0  0
  2  3  1  0  0  0  0
  2 11  1  0  0  0  0
  3  5  1  0  0  0  0
  4 16  1  1  0  0  0
  4 21  1  0  0  0  0
  4 22  2  0  0  0  0
  4 14  1  0  0  0  0
  5  1  1  6  0  0  0
  5  8  1  0  0  0  0
  6 17  2  0  0  0  0
  6 12  1  0  0  0  0
  8  7  1  1  0  0  0
  8 11  1  0  0  0  0
  9 19  1  0  0  0  0
 11 10  1  1  0  0  0
 12 20  2  0  0  0  0
 12 19  1  0  0  0  0
 13 20  1  0  0  0  0
 14 15  1  0  0  0  0
 18 19  2  0  0  0  0
M  CHG  1  21  -1
M  END
>  <CHROM.1>
18.60607020,178.10848065,-174.95047417,177.43514356,-94.16484404,-34.15785408
6.63984838,-21.46122088,-2.81483325,-0.54268835,-0.61392194

>  <Name>
ligand

>  <RI>
0

>  <Rbt.Current_Directory>
/home/itssahil/PROJECTS/Mol_Feturizer/Test_systems_manuscript/rnas/4xwf

>  <Rbt.Executable>
rbdock ($Id: //depot/dev/client3/rdock/2013.1/src/exe/rbdock.cxx#4 $)

>  <Rbt.Library>
libRbt.so (2013.1, Build901 2013/11/27)

>  <Rbt.Parameter_File>
/export/apps/rDock/src/rDock_2013.1_src/data/scripts/dock_solv.prm

>  <Rbt.Receptor>
prm/blind_docking_80.prm

>  <SCORE>
-7.14589

>  <SCORE.INTER>
-6.96387

>  <SCORE.INTER.CONST>
1

>  <SCORE.INTER.POLAR>
0

>  <SCORE.INTER.ROT>
5

>  <SCORE.INTER.SOLV>
12.4468

>  <SCORE.INTER.VDW>
-15.7249

>  <SCORE.INTER.norm>
-0.31654

>  <SCORE.INTRA>
-0.182016

>  <SCORE.INTRA.DIHEDRAL>
-1.27901

>  <SCORE.INTRA.DIHEDRAL.0>
3.49807

>  <SCORE.INTRA.POLAR>
0

>  <SCORE.INTRA.POLAR.0>
0

>  <SCORE.INTRA.REPUL>
0

>  <SCORE.INTRA.REPUL.0>
0

>  <SCORE.INTRA.SOLV>
1.16696

>  <SCORE.INTRA.SOLV.lig_0>
-73.062

>  <SCORE.INTRA.VDW>
-0.125989

>  <SCORE.INTRA.VDW.0>
-1.83782

>  <SCORE.INTRA.norm>
-0.00827348

>  <SCORE.RESTR>
0

>  <SCORE.RESTR.CAVITY>
0

>  <SCORE.RESTR.norm>
0

>  <SCORE.SYSTEM>
0

>  <SCORE.SYSTEM.CONST>
0

>  <SCORE.SYSTEM.DIHEDRAL>
0

>  <SCORE.SYSTEM.SOLV>
0

>  <SCORE.SYSTEM.norm>
0

>  <SCORE.heavy>
22

>  <SCORE.norm>
-0.324813

>  <RMSD>
12.985

$$$$
ligand
 OpenBabel02271912143D
libRbt.so/2013.1/901 2013/11/27
 22 23  0  0  0  0  0  0  0  0999 V2000
  -34.3107    6.2286  -20.8462 N   0  0  0  0  0  0  0  0  0  0  0  0
  -32.2665    3.9758  -19.3635 C   0  0  1  0  0  0  0  0  0  0  0  0
  -32.6804    4.6151  -20.6044 O   0  0  0  0  0  0  0  0  0  0  0  0
  -34.4420    2.0218  -21.1161 P   0  0  1  0  0  0  0  0  0  0  0  0
  -33.0714    5.9640  -20.3010 C   0  0  2  0  0  0  0  0  0  0  0  0
  -36.3708    5.9746  -21.4808 N   0  0  0  0  0  0  0  0  0  0  0  0
  -33.0904    7.3169  -18.3350 O   0  0  0  0  0  0  0  0  0  0  0  0
  -33.2483    5.9826  -18.8316 C   0  0  2  0  0  0  0  0  0  0  0  0
  -38.2219    8.0407  -22.5091 N   0  0  0  0  0  0  0  0  0  0  0  0
  -30.9296    5.6573  -18.4256 O   0  0  0  0  0  0  0  0  0  0  0  0
  -32.2322    5.0541  -18.3514 C   0  0  2  0  0  0  0  0  0  0  0  0
  -36.0000    7.2345  -21.7558 C   0  0  0  0  0  0  0  0  0  0  0  0
  -33.9439    8.5910  -21.4463 N   0  0  0  0  0  0  0  0  0  0  0  0
  -33.2588    2.0425  -20.0873 O   0  0  0  0  0  0  0  0  0  0  0  0
  -33.2961    2.9503  -19.0346 C   0  0  0  0  0  0  0  0  0  0  0  0
  -33.9469    2.9887  -22.2521 O   0  0  0  0  0  0  0  0  0  0  0  0
  -35.3171    5.3499  -20.9212 C   0  0  0  0  0  0  0  0  0  0  0  0
  -36.3535    9.3061  -22.8145 O   0  0  0  0  0  0  0  0  0  0  0  0
  -36.8479    8.2637  -22.3856 C   0  0  0  0  0  0  0  0  0  0  0  0
  -34.7049    7.4030  -21.3562 C   0  0  0  0  0  0  0  0  0  0  0  0
  -34.6956    0.6201  -21.5619 O   0  5  0  0  0  0  0  0  0  0  0  0
  -35.7159    2.3557  -20.4539 O   0  0  0  0  0  0  0  0  0  0  0  0
  1 17  1  0  0  0  0
  1 20  1  0  0  0  0
  2 15  1  1  0  0  0
  2  3  1  0  0  0  0
  2 11  1  0  0  0  0
  3  5  1  0  0  0  0
  4 16  1  6  0  0  0
  4 21  1  0  0  0  0
  4 22  2  0  0  0  0
  4 14  1  0  0  0  0
  5  1  1  6  0  0  0
  5  8  1  0  0  0  0
  6 17  2  0  0  0  0
  6 12  1  0  0  0  0
  8  7  1  1  0  0  0
  8 11  1  0  0  0  0
  9 19  1  0  0  0  0
 11 10  1  6  0  0  0
 12 20  2  0  0  0  0
 12 19  1  0  0  0  0
 13 20  1  0  0  0  0
 14 15  1  0  0  0  0
 18 19  2  0  0  0  0
M  CHG  1  21  -1
M  END
>  <CHROM.1>
36.65578886,62.31318291,92.91427763,-107.79832248,12.35670083,-34.28412869
5.10029033,-20.66119664,-2.08938660,0.66656325,-3.08272898

>  <Name>
ligand

>  <RI>
0

>  <Rbt.Current_Directory>
/home/itssahil/PROJECTS/Mol_Feturizer/Test_systems_manuscript/rnas/4xwf

>  <Rbt.Executable>
rbdock ($Id: //depot/dev/client3/rdock/2013.1/src/exe/rbdock.cxx#4 $)

>  <Rbt.Library>
libRbt.so (2013.1, Build901 2013/11/27)

>  <Rbt.Parameter_File>
/export/apps/rDock/src/rDock_2013.1_src/data/scripts/dock_solv.prm

>  <Rbt.Receptor>
prm/blind_docking_60.prm

>  <SCORE>
-6.56172

>  <SCORE.INTER>
-9.15534

>  <SCORE.INTER.CONST>
1

>  <SCORE.INTER.POLAR>
0

>  <SCORE.INTER.ROT>
5

>  <SCORE.INTER.SOLV>
11.8478

>  <SCORE.INTER.VDW>
-16.9862

>  <SCORE.INTER.norm>
-0.416152

>  <SCORE.INTRA>
2.59362

>  <SCORE.INTRA.DIHEDRAL>
5.9546

>  <SCORE.INTRA.DIHEDRAL.0>
3.49807

>  <SCORE.INTRA.POLAR>
0

>  <SCORE.INTRA.POLAR.0>
0

>  <SCORE.INTRA.REPUL>
0

>  <SCORE.INTRA.REPUL.0>
0

>  <SCORE.INTRA.SOLV>
1.94803

>  <SCORE.INTRA.SOLV.lig_0>
-73.062

>  <SCORE.INTRA.VDW>
-1.35769

>  <SCORE.INTRA.VDW.0>
-1.83782

>  <SCORE.INTRA.norm>
0.117892

>  <SCORE.RESTR>
0

>  <SCORE.RESTR.CAVITY>
0

>  <SCORE.RESTR.norm>
0

>  <SCORE.SYSTEM>
0

>  <SCORE.SYSTEM.CONST>
0

>  <SCORE.SYSTEM.DIHEDRAL>
0

>  <SCORE.SYSTEM.SOLV>
0

>  <SCORE.SYSTEM.norm>
0

>  <SCORE.heavy>
22

>  <SCORE.norm>
-0.29826

>  <RMSD>
13.003

$$$$
ligand
 OpenBabel02271912143D
libRbt.so/2013.1/901 2013/11/27
 22 23  0  0  0  0  0  0  0  0999 V2000
  -34.2762   -5.6301  -14.0301 N   0  0  0  0  0  0  0  0  0  0  0  0
  -35.0409   -3.3059  -16.3680 C   0  0  1  0  0  0  0  0  0  0  0  0
  -35.1659   -4.6920  -15.9401 O   0  0  0  0  0  0  0  0  0  0  0  0
  -32.4930   -3.9864  -19.0513 P   0  0  1  0  0  0  0  0  0  0  0  0
  -35.1920   -4.7135  -14.5037 C   0  0  2  0  0  0  0  0  0  0  0  0
  -32.5695   -6.4772  -12.9905 N   0  0  0  0  0  0  0  0  0  0  0  0
  -35.1735   -3.0551  -12.7876 O   0  0  0  0  0  0  0  0  0  0  0  0
  -34.6960   -3.3791  -14.0986 C   0  0  2  0  0  0  0  0  0  0  0  0
  -33.7694   -9.8037  -12.8543 N   0  0  0  0  0  0  0  0  0  0  0  0
  -36.6089   -2.2690  -14.9678 O   0  0  0  0  0  0  0  0  0  0  0  0
  -35.1999   -2.4941  -15.1416 C   0  0  2  0  0  0  0  0  0  0  0  0
  -33.2547   -7.4814  -13.5587 C   0  0  0  0  0  0  0  0  0  0  0  0
  -35.3205   -7.6772  -14.9216 N   0  0  0  0  0  0  0  0  0  0  0  0
  -33.5916   -4.1250  -17.9411 O   0  0  0  0  0  0  0  0  0  0  0  0
  -33.6800   -3.1495  -16.9540 C   0  0  0  0  0  0  0  0  0  0  0  0
  -32.4320   -5.4266  -19.6778 O   0  0  0  0  0  0  0  0  0  0  0  0
  -33.2032   -5.3274  -13.2902 C   0  0  0  0  0  0  0  0  0  0  0  0
  -31.8463   -9.3202  -13.9740 O   0  0  0  0  0  0  0  0  0  0  0  0
  -32.9018   -8.9116  -13.4903 C   0  0  0  0  0  0  0  0  0  0  0  0
  -34.3326   -6.9561  -14.2126 C   0  0  0  0  0  0  0  0  0  0  0  0
  -32.8802   -2.9094  -20.0094 O   0  5  0  0  0  0  0  0  0  0  0  0
  -31.2447   -3.4435  -18.4860 O   0  0  0  0  0  0  0  0  0  0  0  0
  1 17  1  0  0  0  0
  1 20  1  0  0  0  0
  2 15  1  1  0  0  0
  2  3  1  0  0  0  0
  2 11  1  0  0  0  0
  3  5  1  0  0  0  0
  4 16  1  6  0  0  0
  4 21  1  0  0  0  0
  4 22  2  0  0  0  0
  4 14  1  0  0  0  0
  5  1  1  1  0  0  0
  5  8  1  0  0  0  0
  6 17  2  0  0  0  0
  6 12  1  0  0  0  0
  8  7  1  1  0  0  0
  8 11  1  0  0  0  0
  9 19  1  0  0  0  0
 11 10  1  1  0  0  0
 12 20  2  0  0  0  0
 12 19  1  0  0  0  0
 13 20  1  0  0  0  0
 14 15  1  0  0  0  0
 18 19  2  0  0  0  0
M  CHG  1  21  -1
M  END
>  <CHROM.1>
116.13804129,54.81840599,163.76571308,161.47909640,116.45655140,-33.77231140
-5.07748634,-15.71872496,1.69466024,-0.93284803,2.35728962

>  <Name>
ligand

>  <RI>
0

>  <Rbt.Current_Directory>
/home/itssahil/PROJECTS/Mol_Feturizer/Test_systems_manuscript/rnas/4xwf

>  <Rbt.Executable>
rbdock ($Id: //depot/dev/client3/rdock/2013.1/src/exe/rbdock.cxx#4 $)

>  <Rbt.Library>
libRbt.so (2013.1, Build901 2013/11/27)

>  <Rbt.Parameter_File>
/export/apps/rDock/src/rDock_2013.1_src/data/scripts/dock_solv.prm

>  <Rbt.Receptor>
prm/blind_docking_40.prm

>  <SCORE>
-7.78079

>  <SCORE.INTER>
-10.3746

>  <SCORE.INTER.CONST>
1

>  <SCORE.INTER.POLAR>
0

>  <SCORE.INTER.ROT>
5

>  <SCORE.INTER.SOLV>
18.7606

>  <SCORE.INTER.VDW>
-20.1032

>  <SCORE.INTER.norm>
-0.471571

>  <SCORE.INTRA>
2.47243

>  <SCORE.INTRA.DIHEDRAL>
0.154273

>  <SCORE.INTRA.DIHEDRAL.0>
3.49807

>  <SCORE.INTRA.POLAR>
0

>  <SCORE.INTRA.POLAR.0>
0

>  <SCORE.INTRA.REPUL>
0

>  <SCORE.INTRA.REPUL.0>
0

>  <SCORE.INTRA.SOLV>
0.104144

>  <SCORE.INTRA.SOLV.lig_0>
-73.062

>  <SCORE.INTRA.VDW>
2.34322

>  <SCORE.INTRA.VDW.0>
-1.83782

>  <SCORE.INTRA.norm>
0.112383

>  <SCORE.RESTR>
0.121343

>  <SCORE.RESTR.CAVITY>
0.121343

>  <SCORE.RESTR.norm>
0.00551559

>  <SCORE.SYSTEM>
0

>  <SCORE.SYSTEM.CONST>
0

>  <SCORE.SYSTEM.DIHEDRAL>
0

>  <SCORE.SYSTEM.SOLV>
0

>  <SCORE.SYSTEM.norm>
0

>  <SCORE.heavy>
22

>  <SCORE.norm>
-0.353672

>  <RMSD>
13.011

$$$$
ligand
 OpenBabel02271912143D
libRbt.so/2013.1/901 2013/11/27
 22 23  0  0  0  0  0  0  0  0999 V2000
  -33.1085    6.8390  -20.8143 N   0  0  0  0  0  0  0  0  0  0  0  0
  -32.5114    3.6580  -19.8258 C   0  0  1  0  0  0  0  0  0  0  0  0
  -32.1997    4.7196  -20.7722 O   0  0  0  0  0  0  0  0  0  0  0  0
  -35.1810    0.9745  -19.7326 P   0  0  1  0  0  0  0  0  0  0  0  0
  -32.3162    5.9762  -20.0855 C   0  0  2  0  0  0  0  0  0  0  0  0
  -34.7926    7.6319  -21.9306 N   0  0  0  0  0  0  0  0  0  0  0  0
  -32.7870    6.6391  -17.8416 O   0  0  0  0  0  0  0  0  0  0  0  0
  -33.0677    5.6611  -18.8499 C   0  0  2  0  0  0  0  0  0  0  0  0
  -33.1363   10.3717  -23.3893 N   0  0  0  0  0  0  0  0  0  0  0  0
  -31.2901    4.3635  -17.9536 O   0  0  0  0  0  0  0  0  0  0  0  0
  -32.6163    4.3183  -18.5062 C   0  0  2  0  0  0  0  0  0  0  0  0
  -33.8729    8.6020  -21.8145 C   0  0  0  0  0  0  0  0  0  0  0  0
  -31.6408    8.8183  -20.7494 N   0  0  0  0  0  0  0  0  0  0  0  0
  -33.9715    1.9329  -19.4543 O   0  0  0  0  0  0  0  0  0  0  0  0
  -33.8127    3.0656  -20.2451 C   0  0  0  0  0  0  0  0  0  0  0  0
  -34.9060    0.4645  -21.1937 O   0  0  0  0  0  0  0  0  0  0  0  0
  -34.3123    6.5355  -21.3134 C   0  0  0  0  0  0  0  0  0  0  0  0
  -34.8172   10.7556  -21.9016 O   0  0  0  0  0  0  0  0  0  0  0  0
  -33.9887    9.9679  -22.3581 C   0  0  0  0  0  0  0  0  0  0  0  0
  -32.8107    8.1113  -21.1101 C   0  0  0  0  0  0  0  0  0  0  0  0
  -35.2187   -0.1003  -18.6976 O   0  5  0  0  0  0  0  0  0  0  0  0
  -36.4607    1.6640  -19.4886 O   0  0  0  0  0  0  0  0  0  0  0  0
  1 17  1  0  0  0  0
  1 20  1  0  0  0  0
  2 15  1  6  0  0  0
  2  3  1  0  0  0  0
  2 11  1  0  0  0  0
  3  5  1  0  0  0  0
  4 16  1  6  0  0  0
  4 21  1  0  0  0  0
  4 22  2  0  0  0  0
  4 14  1  0  0  0  0
  5  1  1  6  0  0  0
  5  8  1  0  0  0  0
  6 17  2  0  0  0  0
  6 12  1  0  0  0  0
  8  7  1  1  0  0  0
  8 11  1  0  0  0  0
  9 19  1  0  0  0  0
 11 10  1  6  0  0  0
 12 20  2  0  0  0  0
 12 19  1  0  0  0  0
 13 20  1  0  0  0  0
 14 15  1  0  0  0  0
 18 19  2  0  0  0  0
M  CHG  1  21  -1
M  END
>  <CHROM.1>
49.70746596,170.96167137,62.35048004,-173.86335582,-112.98670226,-33.69068391
5.12234382,-20.27973617,-1.37137533,0.68556653,2.74918370

>  <Name>
ligand

>  <RI>
0

>  <Rbt.Current_Directory>
/home/itssahil/PROJECTS/Mol_Feturizer/Test_systems_manuscript/rnas/4xwf

>  <Rbt.Executable>
rbdock ($Id: //depot/dev/client3/rdock/2013.1/src/exe/rbdock.cxx#4 $)

>  <Rbt.Library>
libRbt.so (2013.1, Build901 2013/11/27)

>  <Rbt.Parameter_File>
/export/apps/rDock/src/rDock_2013.1_src/data/scripts/dock_solv.prm

>  <Rbt.Receptor>
prm/blind_docking_60.prm

>  <SCORE>
-10.3385

>  <SCORE.INTER>
-9.15469

>  <SCORE.INTER.CONST>
1

>  <SCORE.INTER.POLAR>
0

>  <SCORE.INTER.ROT>
5

>  <SCORE.INTER.SOLV>
11.6794

>  <SCORE.INTER.VDW>
-16.9296

>  <SCORE.INTER.norm>
-0.416122

>  <SCORE.INTRA>
-1.18445

>  <SCORE.INTRA.DIHEDRAL>
-1.4816

>  <SCORE.INTRA.DIHEDRAL.0>
3.49807

>  <SCORE.INTRA.POLAR>
0

>  <SCORE.INTRA.POLAR.0>
0

>  <SCORE.INTRA.REPUL>
0

>  <SCORE.INTRA.REPUL.0>
0

>  <SCORE.INTRA.SOLV>
-0.626612

>  <SCORE.INTRA.SOLV.lig_0>
-73.062

>  <SCORE.INTRA.VDW>
-0.130339

>  <SCORE.INTRA.VDW.0>
-1.83782

>  <SCORE.INTRA.norm>
-0.0538384

>  <SCORE.RESTR>
0.000592278

>  <SCORE.RESTR.CAVITY>
0.000592278

>  <SCORE.RESTR.norm>
2.69217e-05

>  <SCORE.SYSTEM>
0

>  <SCORE.SYSTEM.CONST>
0

>  <SCORE.SYSTEM.DIHEDRAL>
0

>  <SCORE.SYSTEM.SOLV>
0

>  <SCORE.SYSTEM.norm>
0

>  <SCORE.heavy>
22

>  <SCORE.norm>
-0.469934

>  <RMSD>
13.015

$$$$
ligand
 OpenBabel02271912143D
libRbt.so/2013.1/901 2013/11/27
 22 23  0  0  0  0  0  0  0  0999 V2000
  -34.2753   -5.4815  -14.0535 N   0  0  0  0  0  0  0  0  0  0  0  0
  -35.1490   -3.2471  -16.4403 C   0  0  1  0  0  0  0  0  0  0  0  0
  -35.2610   -4.6132  -15.9494 O   0  0  0  0  0  0  0  0  0  0  0  0
  -32.7244   -4.0687  -19.2082 P   0  0  1  0  0  0  0  0  0  0  0  0
  -35.2085   -4.5758  -14.5140 C   0  0  2  0  0  0  0  0  0  0  0  0
  -32.5403   -6.3072  -13.0440 N   0  0  0  0  0  0  0  0  0  0  0  0
  -35.0829   -2.8490  -12.8714 O   0  0  0  0  0  0  0  0  0  0  0  0
  -34.6806   -3.2310  -14.1920 C   0  0  2  0  0  0  0  0  0  0  0  0
  -33.6409   -9.6205  -12.7575 N   0  0  0  0  0  0  0  0  0  0  0  0
  -36.6297   -2.1382  -15.0007 O   0  0  0  0  0  0  0  0  0  0  0  0
  -35.2341   -2.3843  -15.2417 C   0  0  2  0  0  0  0  0  0  0  0  0
  -33.2282   -7.3209  -13.5916 C   0  0  0  0  0  0  0  0  0  0  0  0
  -35.3198   -7.5431  -14.9106 N   0  0  0  0  0  0  0  0  0  0  0  0
  -33.8060   -4.1259  -18.0744 O   0  0  0  0  0  0  0  0  0  0  0  0
  -33.8211   -3.1284  -17.1056 C   0  0  0  0  0  0  0  0  0  0  0  0
  -33.1974   -2.8601  -20.0949 O   0  0  0  0  0  0  0  0  0  0  0  0
  -33.1900   -5.1648  -13.3378 C   0  0  0  0  0  0  0  0  0  0  0  0
  -31.8701   -9.1695  -14.1163 O   0  0  0  0  0  0  0  0  0  0  0  0
  -32.8617   -8.7475  -13.5214 C   0  0  0  0  0  0  0  0  0  0  0  0
  -34.3238   -6.8091  -14.2265 C   0  0  0  0  0  0  0  0  0  0  0  0
  -31.3705   -3.9009  -18.6028 O   0  5  0  0  0  0  0  0  0  0  0  0
  -32.5914   -5.3791  -19.8698 O   0  0  0  0  0  0  0  0  0  0  0  0
  1 17  1  0  0  0  0
  1 20  1  0  0  0  0
  2 15  1  1  0  0  0
  2  3  1  0  0  0  0
  2 11  1  0  0  0  0
  3  5  1  0  0  0  0
  4 16  1  6  0  0  0
  4 21  1  0  0  0  0
  4 22  2  0  0  0  0
  4 14  1  0  0  0  0
  5  1  1  6  0  0  0
  5  8  1  0  0  0  0
  6 17  2  0  0  0  0
  6 12  1  0  0  0  0
  8  7  1  1  0  0  0
  8 11  1  0  0  0  0
  9 19  1  0  0  0  0
 11 10  1  1  0  0  0
 12 20  2  0  0  0  0
 12 19  1  0  0  0  0
 13 20  1  0  0  0  0
 14 15  1  0  0  0  0
 18 19  2  0  0  0  0
M  CHG  1  21  -1
M  END
>  <CHROM.1>
119.10621893,56.06198072,-71.32827594,164.45089006,110.49503466,-33.83785512
-5.00618893,-15.79282837,1.62843514,-0.96438602,2.26633006

>  <Name>
ligand

>  <RI>
0

>  <Rbt.Current_Directory>
/home/itssahil/PROJECTS/Mol_Feturizer/Test_systems_manuscript/rnas/4xwf

>  <Rbt.Executable>
rbdock ($Id: //depot/dev/client3/rdock/2013.1/src/exe/rbdock.cxx#4 $)

>  <Rbt.Library>
libRbt.so (2013.1, Build901 2013/11/27)

>  <Rbt.Parameter_File>
/export/apps/rDock/src/rDock_2013.1_src/data/scripts/dock_solv.prm

>  <Rbt.Receptor>
prm/blind_docking_40.prm

>  <SCORE>
-6.64687

>  <SCORE.INTER>
-8.43454

>  <SCORE.INTER.CONST>
1

>  <SCORE.INTER.POLAR>
0

>  <SCORE.INTER.ROT>
5

>  <SCORE.INTER.SOLV>
19.0182

>  <SCORE.INTER.VDW>
-18.8958

>  <SCORE.INTER.norm>
-0.383388

>  <SCORE.INTRA>
1.73525

>  <SCORE.INTRA.DIHEDRAL>
-0.459254

>  <SCORE.INTRA.DIHEDRAL.0>
3.49807

>  <SCORE.INTRA.POLAR>
0

>  <SCORE.INTRA.POLAR.0>
0

>  <SCORE.INTRA.REPUL>
0

>  <SCORE.INTRA.REPUL.0>
0

>  <SCORE.INTRA.SOLV>
-0.497038

>  <SCORE.INTRA.SOLV.lig_0>
-73.062

>  <SCORE.INTRA.VDW>
2.2134

>  <SCORE.INTRA.VDW.0>
-1.83782

>  <SCORE.INTRA.norm>
0.0788752

>  <SCORE.RESTR>
0.0524171

>  <SCORE.RESTR.CAVITY>
0.0524171

>  <SCORE.RESTR.norm>
0.00238259

>  <SCORE.SYSTEM>
0

>  <SCORE.SYSTEM.CONST>
0

>  <SCORE.SYSTEM.DIHEDRAL>
0

>  <SCORE.SYSTEM.SOLV>
0

>  <SCORE.SYSTEM.norm>
0

>  <SCORE.heavy>
22

>  <SCORE.norm>
-0.30213

>  <RMSD>
13.023

$$$$
ligand
 OpenBabel02271912143D
libRbt.so/2013.1/901 2013/11/27
 22 23  0  0  0  0  0  0  0  0999 V2000
  -32.9874    6.6800  -20.3389 N   0  0  0  0  0  0  0  0  0  0  0  0
  -33.5977   10.0052  -20.1873 C   0  0  1  0  0  0  0  0  0  0  0  0
  -33.7841    8.7018  -19.5659 O   0  0  0  0  0  0  0  0  0  0  0  0
  -35.1515   11.7500  -23.1674 P   0  0  1  0  0  0  0  0  0  0  0  0
  -32.6161    7.9095  -19.8351 C   0  0  2  0  0  0  0  0  0  0  0  0
  -33.7128    5.1539  -21.7012 N   0  0  0  0  0  0  0  0  0  0  0  0
  -30.5308    8.2905  -20.9317 O   0  0  0  0  0  0  0  0  0  0  0  0
  -31.9248    8.6203  -20.9341 C   0  0  2  0  0  0  0  0  0  0  0  0
  -34.0952    2.2712  -21.1611 N   0  0  0  0  0  0  0  0  0  0  0  0
  -31.3907   10.4825  -19.5578 O   0  0  0  0  0  0  0  0  0  0  0  0
  -32.1954   10.0258  -20.6580 C   0  0  2  0  0  0  0  0  0  0  0  0
  -33.3180    4.5515  -20.5691 C   0  0  0  0  0  0  0  0  0  0  0  0
  -32.3282    5.2878  -18.4146 N   0  0  0  0  0  0  0  0  0  0  0  0
  -34.3847   11.3630  -21.8556 O   0  0  0  0  0  0  0  0  0  0  0  0
  -34.5568   10.0894  -21.3244 C   0  0  0  0  0  0  0  0  0  0  0  0
  -34.4537   10.8672  -24.2648 O   0  0  0  0  0  0  0  0  0  0  0  0
  -33.5119    6.4773  -21.5531 C   0  0  0  0  0  0  0  0  0  0  0  0
  -32.8059    2.6255  -19.3177 O   0  0  0  0  0  0  0  0  0  0  0  0
  -33.3744    3.1027  -20.2997 C   0  0  0  0  0  0  0  0  0  0  0  0
  -32.8571    5.5057  -19.7074 C   0  0  0  0  0  0  0  0  0  0  0  0
  -36.6100   11.4847  -22.9936 O   0  5  0  0  0  0  0  0  0  0  0  0
  -35.1392   13.2102  -23.3683 O   0  0  0  0  0  0  0  0  0  0  0  0
  1 17  1  0  0  0  0
  1 20  1  0  0  0  0
  2 15  1  6  0  0  0
  2  3  1  0  0  0  0
  2 11  1  0  0  0  0
  3  5  1  0  0  0  0
  4 16  1  6  0  0  0
  4 21  1  0  0  0  0
  4 22  2  0  0  0  0
  4 14  1  0  0  0  0
  5  1  1  6  0  0  0
  5  8  1  0  0  0  0
  6 17  2  0  0  0  0
  6 12  1  0  0  0  0
  8  7  1  1  0  0  0
  8 11  1  0  0  0  0
  9 19  1  0  0  0  0
 11 10  1  1  0  0  0
 12 20  2  0  0  0  0
 12 19  1  0  0  0  0
 13 20  1  0  0  0  0
 14 15  1  0  0  0  0
 18 19  2  0  0  0  0
M  CHG  1  21  -1
M  END
>  <CHROM.1>
70.28938712,177.72281774,-69.11331335,174.29431158,-11.86594457,-33.53732799
8.26786115,-21.14110426,-1.27736649,-0.72101004,-0.13998243

>  <Name>
ligand

>  <RI>
0

>  <Rbt.Current_Directory>
/home/itssahil/PROJECTS/Mol_Feturizer/Test_systems_manuscript/rnas/4xwf

>  <Rbt.Executable>
rbdock ($Id: //depot/dev/client3/rdock/2013.1/src/exe/rbdock.cxx#4 $)

>  <Rbt.Library>
libRbt.so (2013.1, Build901 2013/11/27)

>  <Rbt.Parameter_File>
/export/apps/rDock/src/rDock_2013.1_src/data/scripts/dock_solv.prm

>  <Rbt.Receptor>
prm/blind_docking_80.prm

>  <SCORE>
-5.44413

>  <SCORE.INTER>
-4.90734

>  <SCORE.INTER.CONST>
1

>  <SCORE.INTER.POLAR>
0

>  <SCORE.INTER.ROT>
5

>  <SCORE.INTER.SOLV>
11.5366

>  <SCORE.INTER.VDW>
-14.0504

>  <SCORE.INTER.norm>
-0.223061

>  <SCORE.INTRA>
-0.545394

>  <SCORE.INTRA.DIHEDRAL>
-1.47051

>  <SCORE.INTRA.DIHEDRAL.0>
3.49807

>  <SCORE.INTRA.POLAR>
0

>  <SCORE.INTRA.POLAR.0>
0

>  <SCORE.INTRA.REPUL>
0

>  <SCORE.INTRA.REPUL.0>
0

>  <SCORE.INTRA.SOLV>
-0.998909

>  <SCORE.INTRA.SOLV.lig_0>
-73.062

>  <SCORE.INTRA.VDW>
0.689315

>  <SCORE.INTRA.VDW.0>
-1.83782

>  <SCORE.INTRA.norm>
-0.0247906

>  <SCORE.RESTR>
0.00860494

>  <SCORE.RESTR.CAVITY>
0.00860494

>  <SCORE.RESTR.norm>
0.000391134

>  <SCORE.SYSTEM>
0

>  <SCORE.SYSTEM.CONST>
0

>  <SCORE.SYSTEM.DIHEDRAL>
0

>  <SCORE.SYSTEM.SOLV>
0

>  <SCORE.SYSTEM.norm>
0

>  <SCORE.heavy>
22

>  <SCORE.norm>
-0.24746

>  <RMSD>
13.033

$$$$
ligand
 OpenBabel02271912143D
libRbt.so/2013.1/901 2013/11/27
 22 23  0  0  0  0  0  0  0  0999 V2000
  -35.1393   -5.6774  -13.4581 N   0  0  0  0  0  0  0  0  0  0  0  0
  -35.5822   -3.8420  -16.2666 C   0  0  1  0  0  0  0  0  0  0  0  0
  -36.0301   -4.9721  -15.4653 O   0  0  0  0  0  0  0  0  0  0  0  0
  -32.8621   -3.4012  -18.8646 P   0  0  1  0  0  0  0  0  0  0  0  0
  -35.8155   -4.6493  -14.0818 C   0  0  2  0  0  0  0  0  0  0  0  0
  -34.2582   -6.9089  -11.9031 N   0  0  0  0  0  0  0  0  0  0  0  0
  -35.0220   -2.7363  -12.8957 O   0  0  0  0  0  0  0  0  0  0  0  0
  -34.8909   -3.4937  -14.1044 C   0  0  2  0  0  0  0  0  0  0  0  0
  -32.1603   -8.8485  -13.9366 N   0  0  0  0  0  0  0  0  0  0  0  0
  -36.5170   -2.0555  -15.0713 O   0  0  0  0  0  0  0  0  0  0  0  0
  -35.2859   -2.7611  -15.3012 C   0  0  2  0  0  0  0  0  0  0  0  0
  -34.0774   -7.5274  -13.0802 C   0  0  0  0  0  0  0  0  0  0  0  0
  -34.6780   -7.0628  -15.4439 N   0  0  0  0  0  0  0  0  0  0  0  0
  -34.0431   -3.2278  -17.8478 O   0  0  0  0  0  0  0  0  0  0  0  0
  -34.3558   -4.2781  -16.9917 C   0  0  0  0  0  0  0  0  0  0  0  0
  -32.9475   -2.0982  -19.7395 O   0  0  0  0  0  0  0  0  0  0  0  0
  -34.9130   -5.7566  -12.1416 C   0  0  0  0  0  0  0  0  0  0  0  0
  -33.9043   -9.8659  -12.8833 O   0  0  0  0  0  0  0  0  0  0  0  0
  -33.3928   -8.8183  -13.2785 C   0  0  0  0  0  0  0  0  0  0  0  0
  -34.6323   -6.7594  -14.0639 C   0  0  0  0  0  0  0  0  0  0  0  0
  -31.5786   -3.5653  -18.1206 O   0  5  0  0  0  0  0  0  0  0  0  0
  -32.9630   -4.6930  -19.5671 O   0  0  0  0  0  0  0  0  0  0  0  0
  1 17  1  0  0  0  0
  1 20  1  0  0  0  0
  2 15  1  1  0  0  0
  2  3  1  0  0  0  0
  2 11  1  0  0  0  0
  3  5  1  0  0  0  0
  4 16  1  6  0  0  0
  4 21  1  0  0  0  0
  4 22  2  0  0  0  0
  4 14  1  0  0  0  0
  5  1  1  1  0  0  0
  5  8  1  0  0  0  0
  6 17  2  0  0  0  0
  6 12  1  0  0  0  0
  8  7  1  1  0  0  0
  8 11  1  0  0  0  0
  9 19  1  0  0  0  0
 11 10  1  1  0  0  0
 12 20  2  0  0  0  0
 12 19  1  0  0  0  0
 13 20  1  0  0  0  0
 14 15  1  0  0  0  0
 18 19  2  0  0  0  0
M  CHG  1  21  -1
M  END
>  <CHROM.1>
-172.30660349,173.86740400,173.43861347,-174.74958075,-111.12444095,-34.22455062
-4.96609355,-15.50713679,1.77058662,-0.92762508,2.41075095

>  <Name>
ligand

>  <RI>
0

>  <Rbt.Current_Directory>
/home/itssahil/PROJECTS/Mol_Feturizer/Test_systems_manuscript/rnas/4xwf

>  <Rbt.Executable>
rbdock ($Id: //depot/dev/client3/rdock/2013.1/src/exe/rbdock.cxx#4 $)

>  <Rbt.Library>
libRbt.so (2013.1, Build901 2013/11/27)

>  <Rbt.Parameter_File>
/export/apps/rDock/src/rDock_2013.1_src/data/scripts/dock_solv.prm

>  <Rbt.Receptor>
prm/blind_docking_40.prm

>  <SCORE>
-4.48064

>  <SCORE.INTER>
-6.02066

>  <SCORE.INTER.CONST>
1

>  <SCORE.INTER.POLAR>
0

>  <SCORE.INTER.ROT>
5

>  <SCORE.INTER.SOLV>
18.1661

>  <SCORE.INTER.VDW>
-17.0025

>  <SCORE.INTER.norm>
-0.273666

>  <SCORE.INTRA>
1.53813

>  <SCORE.INTRA.DIHEDRAL>
-1.51034

>  <SCORE.INTRA.DIHEDRAL.0>
3.49807

>  <SCORE.INTRA.POLAR>
0

>  <SCORE.INTRA.POLAR.0>
0

>  <SCORE.INTRA.REPUL>
0

>  <SCORE.INTRA.REPUL.0>
0

>  <SCORE.INTRA.SOLV>
3.60181

>  <SCORE.INTRA.SOLV.lig_0>
-73.062

>  <SCORE.INTRA.VDW>
0.492394

>  <SCORE.INTRA.VDW.0>
-1.83782

>  <SCORE.INTRA.norm>
0.069915

>  <SCORE.RESTR>
0.00188746

>  <SCORE.RESTR.CAVITY>
0.00188746

>  <SCORE.RESTR.norm>
8.57934e-05

>  <SCORE.SYSTEM>
0

>  <SCORE.SYSTEM.CONST>
0

>  <SCORE.SYSTEM.DIHEDRAL>
0

>  <SCORE.SYSTEM.SOLV>
0

>  <SCORE.SYSTEM.norm>
0

>  <SCORE.heavy>
22

>  <SCORE.norm>
-0.203666

>  <RMSD>
13.054

$$$$
ligand
 OpenBabel02271912143D
libRbt.so/2013.1/901 2013/11/27
 22 23  0  0  0  0  0  0  0  0999 V2000
  -34.9571   -5.7482  -13.4568 N   0  0  0  0  0  0  0  0  0  0  0  0
  -35.5642   -3.9511  -16.2593 C   0  0  1  0  0  0  0  0  0  0  0  0
  -35.9355   -5.0969  -15.4413 O   0  0  0  0  0  0  0  0  0  0  0  0
  -32.8958   -3.3601  -18.8820 P   0  0  1  0  0  0  0  0  0  0  0  0
  -35.6985   -4.7568  -14.0656 C   0  0  2  0  0  0  0  0  0  0  0  0
  -33.9853   -6.9346  -11.9209 N   0  0  0  0  0  0  0  0  0  0  0  0
  -34.9650   -2.8019  -12.9097 O   0  0  0  0  0  0  0  0  0  0  0  0
  -34.8312   -3.5586  -14.1185 C   0  0  2  0  0  0  0  0  0  0  0  0
  -33.6313   -9.8335  -14.0309 N   0  0  0  0  0  0  0  0  0  0  0  0
  -36.5501   -2.2047  -15.0457 O   0  0  0  0  0  0  0  0  0  0  0  0
  -35.2935   -2.8521  -15.3069 C   0  0  2  0  0  0  0  0  0  0  0  0
  -33.7892   -7.5381  -13.1032 C   0  0  0  0  0  0  0  0  0  0  0  0
  -34.4513   -7.0994  -15.4554 N   0  0  0  0  0  0  0  0  0  0  0  0
  -34.0776   -3.2554  -17.8568 O   0  0  0  0  0  0  0  0  0  0  0  0
  -34.3388   -4.3321  -17.0164 C   0  0  0  0  0  0  0  0  0  0  0  0
  -33.0371   -2.0432  -19.7284 O   0  0  0  0  0  0  0  0  0  0  0  0
  -34.7062   -5.8193  -12.1444 C   0  0  0  0  0  0  0  0  0  0  0  0
  -31.9022   -8.9232  -12.8616 O   0  0  0  0  0  0  0  0  0  0  0  0
  -33.0376   -8.7887  -13.3175 C   0  0  0  0  0  0  0  0  0  0  0  0
  -34.4008   -6.7985  -14.0749 C   0  0  0  0  0  0  0  0  0  0  0  0
  -31.6031   -3.4889  -18.1470 O   0  5  0  0  0  0  0  0  0  0  0  0
  -32.9489   -4.6397  -19.6117 O   0  0  0  0  0  0  0  0  0  0  0  0
  1 17  1  0  0  0  0
  1 20  1  0  0  0  0
  2 15  1  1  0  0  0
  2  3  1  0  0  0  0
  2 11  1  0  0  0  0
  3  5  1  0  0  0  0
  4 16  1  6  0  0  0
  4 21  1  0  0  0  0
  4 22  2  0  0  0  0
  4 14  1  0  0  0  0
  5  1  1  1  0  0  0
  5  8  1  0  0  0  0
  6 17  2  0  0  0  0
  6 12  1  0  0  0  0
  8  7  1  1  0  0  0
  8 11  1  0  0  0  0
  9 19  1  0  0  0  0
 11 10  1  1  0  0  0
 12 20  2  0  0  0  0
 12 19  1  0  0  0  0
 13 20  1  0  0  0  0
 14 15  1  0  0  0  0
 18 19  2  0  0  0  0
M  CHG  1  21  -1
M  END
>  <CHROM.1>
-171.35882882,175.58470708,173.83310738,-175.81465007,128.16599915,-34.11715539
-4.99291322,-15.51822296,1.67148862,-0.91237554,2.33519185

>  <Name>
ligand

>  <RI>
0

>  <Rbt.Current_Directory>
/home/itssahil/PROJECTS/Mol_Feturizer/Test_systems_manuscript/rnas/4xwf

>  <Rbt.Executable>
rbdock ($Id: //depot/dev/client3/rdock/2013.1/src/exe/rbdock.cxx#4 $)

>  <Rbt.Library>
libRbt.so (2013.1, Build901 2013/11/27)

>  <Rbt.Parameter_File>
/export/apps/rDock/src/rDock_2013.1_src/data/scripts/dock_solv.prm

>  <Rbt.Receptor>
prm/blind_docking_40.prm

>  <SCORE>
-4.10935

>  <SCORE.INTER>
-5.67287

>  <SCORE.INTER.CONST>
1

>  <SCORE.INTER.POLAR>
0

>  <SCORE.INTER.ROT>
5

>  <SCORE.INTER.SOLV>
18.0816

>  <SCORE.INTER.VDW>
-16.7424

>  <SCORE.INTER.norm>
-0.257858

>  <SCORE.INTRA>
1.55579

>  <SCORE.INTRA.DIHEDRAL>
-1.64148

>  <SCORE.INTRA.DIHEDRAL.0>
3.49807

>  <SCORE.INTRA.POLAR>
0

>  <SCORE.INTRA.POLAR.0>
0

>  <SCORE.INTRA.REPUL>
0

>  <SCORE.INTRA.REPUL.0>
0

>  <SCORE.INTRA.SOLV>
3.74723

>  <SCORE.INTRA.SOLV.lig_0>
-73.062

>  <SCORE.INTRA.VDW>
0.50292

>  <SCORE.INTRA.VDW.0>
-1.83782

>  <SCORE.INTRA.norm>
0.0707179

>  <SCORE.RESTR>
0.00772012

>  <SCORE.RESTR.CAVITY>
0.00772012

>  <SCORE.RESTR.norm>
0.000350915

>  <SCORE.SYSTEM>
0

>  <SCORE.SYSTEM.CONST>
0

>  <SCORE.SYSTEM.DIHEDRAL>
0

>  <SCORE.SYSTEM.SOLV>
0

>  <SCORE.SYSTEM.norm>
0

>  <SCORE.heavy>
22

>  <SCORE.norm>
-0.186789

>  <RMSD>
13.057

$$$$
ligand
 OpenBabel02271912143D
libRbt.so/2013.1/901 2013/11/27
 22 23  0  0  0  0  0  0  0  0999 V2000
  -34.9531   -5.7559  -13.4541 N   0  0  0  0  0  0  0  0  0  0  0  0
  -35.5647   -3.9567  -16.2543 C   0  0  1  0  0  0  0  0  0  0  0  0
  -35.9329   -5.1046  -15.4379 O   0  0  0  0  0  0  0  0  0  0  0  0
  -32.8990   -3.3605  -18.8799 P   0  0  1  0  0  0  0  0  0  0  0  0
  -35.6971   -4.7657  -14.0617 C   0  0  2  0  0  0  0  0  0  0  0  0
  -33.9723   -6.9376  -11.9202 N   0  0  0  0  0  0  0  0  0  0  0  0
  -34.9692   -2.8104  -12.9031 O   0  0  0  0  0  0  0  0  0  0  0  0
  -34.8331   -3.5651  -14.1129 C   0  0  2  0  0  0  0  0  0  0  0  0
  -33.6303   -9.8379  -14.0388 N   0  0  0  0  0  0  0  0  0  0  0  0
  -36.5556   -2.2147  -15.0385 O   0  0  0  0  0  0  0  0  0  0  0  0
  -35.2971   -2.8582  -15.3004 C   0  0  2  0  0  0  0  0  0  0  0  0
  -33.7856   -7.5463  -13.1014 C   0  0  0  0  0  0  0  0  0  0  0  0
  -34.4638   -7.1162  -15.4506 N   0  0  0  0  0  0  0  0  0  0  0  0
  -34.1004   -3.2705  -17.8764 O   0  0  0  0  0  0  0  0  0  0  0  0
  -34.3381   -4.3333  -17.0117 C   0  0  0  0  0  0  0  0  0  0  0  0
  -33.0775   -2.0772  -19.7697 O   0  0  0  0  0  0  0  0  0  0  0  0
  -34.6929   -5.8220  -12.1432 C   0  0  0  0  0  0  0  0  0  0  0  0
  -31.9065   -8.9405  -12.8518 O   0  0  0  0  0  0  0  0  0  0  0  0
  -33.0378   -8.7990  -13.3159 C   0  0  0  0  0  0  0  0  0  0  0  0
  -34.4029   -6.8097  -14.0718 C   0  0  0  0  0  0  0  0  0  0  0  0
  -31.6143   -3.4154  -18.1218 O   0  5  0  0  0  0  0  0  0  0  0  0
  -32.8905   -4.6633  -19.5693 O   0  0  0  0  0  0  0  0  0  0  0  0
  1 17  1  0  0  0  0
  1 20  1  0  0  0  0
  2 15  1  1  0  0  0
  2  3  1  0  0  0  0
  2 11  1  0  0  0  0
  3  5  1  0  0  0  0
  4 16  1  6  0  0  0
  4 21  1  0  0  0  0
  4 22  2  0  0  0  0
  4 14  1  0  0  0  0
  5  1  1  1  0  0  0
  5  8  1  0  0  0  0
  6 17  2  0  0  0  0
  6 12  1  0  0  0  0
  8  7  1  1  0  0  0
  8 11  1  0  0  0  0
  9 19  1  0  0  0  0
 11 10  1  1  0  0  0
 12 20  2  0  0  0  0
 12 19  1  0  0  0  0
 13 20  1  0  0  0  0
 14 15  1  0  0  0  0
 18 19  2  0  0  0  0
M  CHG  1  21  -1
M  END
>  <CHROM.1>
-171.94000307,174.02158340,173.45705682,-177.51507993,129.16902025,-34.11818420
-4.99869745,-15.51504013,1.66952142,-0.91251680,2.33465169

>  <Name>
ligand

>  <RI>
0

>  <Rbt.Current_Directory>
/home/itssahil/PROJECTS/Mol_Feturizer/Test_systems_manuscript/rnas/4xwf

>  <Rbt.Executable>
rbdock ($Id: //depot/dev/client3/rdock/2013.1/src/exe/rbdock.cxx#4 $)

>  <Rbt.Library>
libRbt.so (2013.1, Build901 2013/11/27)

>  <Rbt.Parameter_File>
/export/apps/rDock/src/rDock_2013.1_src/data/scripts/dock_solv.prm

>  <Rbt.Receptor>
prm/blind_docking_40.prm

>  <SCORE>
-4.13652

>  <SCORE.INTER>
-5.7054

>  <SCORE.INTER.CONST>
1

>  <SCORE.INTER.POLAR>
0

>  <SCORE.INTER.ROT>
5

>  <SCORE.INTER.SOLV>
18.1266

>  <SCORE.INTER.VDW>
-16.7791

>  <SCORE.INTER.norm>
-0.259336

>  <SCORE.INTRA>
1.55532

>  <SCORE.INTRA.DIHEDRAL>
-1.61501

>  <SCORE.INTRA.DIHEDRAL.0>
3.49807

>  <SCORE.INTRA.POLAR>
0

>  <SCORE.INTRA.POLAR.0>
0

>  <SCORE.INTRA.REPUL>
0

>  <SCORE.INTRA.REPUL.0>
0

>  <SCORE.INTRA.SOLV>
3.73419

>  <SCORE.INTRA.SOLV.lig_0>
-73.062

>  <SCORE.INTRA.VDW>
0.495726

>  <SCORE.INTRA.VDW.0>
-1.83782

>  <SCORE.INTRA.norm>
0.0706963

>  <SCORE.RESTR>
0.0135604

>  <SCORE.RESTR.CAVITY>
0.0135604

>  <SCORE.RESTR.norm>
0.000616381

>  <SCORE.SYSTEM>
0

>  <SCORE.SYSTEM.CONST>
0

>  <SCORE.SYSTEM.DIHEDRAL>
0

>  <SCORE.SYSTEM.SOLV>
0

>  <SCORE.SYSTEM.norm>
0

>  <SCORE.heavy>
22

>  <SCORE.norm>
-0.188024

>  <RMSD>
13.061

$$$$
ligand
 OpenBabel02271912143D
libRbt.so/2013.1/901 2013/11/27
 22 23  0  0  0  0  0  0  0  0999 V2000
  -35.0420   -5.6994  -13.4308 N   0  0  0  0  0  0  0  0  0  0  0  0
  -35.6269   -3.9070  -16.2410 C   0  0  1  0  0  0  0  0  0  0  0  0
  -36.0172   -5.0400  -15.4142 O   0  0  0  0  0  0  0  0  0  0  0  0
  -32.9595   -3.3916  -18.8825 P   0  0  1  0  0  0  0  0  0  0  0  0
  -35.7661   -4.6967  -14.0418 C   0  0  2  0  0  0  0  0  0  0  0  0
  -34.1254   -6.9225  -11.8897 N   0  0  0  0  0  0  0  0  0  0  0  0
  -34.9866   -2.7504  -12.9016 O   0  0  0  0  0  0  0  0  0  0  0  0
  -34.8747   -3.5169  -14.1065 C   0  0  2  0  0  0  0  0  0  0  0  0
  -33.6803   -9.7814  -14.0086 N   0  0  0  0  0  0  0  0  0  0  0  0
  -36.5703   -2.1336  -15.0329 O   0  0  0  0  0  0  0  0  0  0  0  0
  -35.3286   -2.8081  -15.2967 C   0  0  2  0  0  0  0  0  0  0  0  0
  -33.8732   -7.4893  -13.0795 C   0  0  0  0  0  0  0  0  0  0  0  0
  -34.4385   -6.9869  -15.4442 N   0  0  0  0  0  0  0  0  0  0  0  0
  -34.1675   -3.2757  -17.8895 O   0  0  0  0  0  0  0  0  0  0  0  0
  -34.4136   -4.3176  -17.0021 C   0  0  0  0  0  0  0  0  0  0  0  0
  -33.0801   -2.0856  -19.7486 O   0  0  0  0  0  0  0  0  0  0  0  0
  -34.8466   -5.8071  -12.1114 C   0  0  0  0  0  0  0  0  0  0  0  0
  -31.9617   -8.8418  -12.8470 O   0  0  0  0  0  0  0  0  0  0  0  0
  -33.1013   -8.7267  -13.2976 C   0  0  0  0  0  0  0  0  0  0  0  0
  -34.4498   -6.7264  -14.0547 C   0  0  0  0  0  0  0  0  0  0  0  0
  -31.6861   -3.5096  -18.1128 O   0  5  0  0  0  0  0  0  0  0  0  0
  -32.9926   -4.6803  -19.5972 O   0  0  0  0  0  0  0  0  0  0  0  0
  1 17  1  0  0  0  0
  1 20  1  0  0  0  0
  2 15  1  1  0  0  0
  2  3  1  0  0  0  0
  2 11  1  0  0  0  0
  3  5  1  0  0  0  0
  4 16  1  6  0  0  0
  4 21  1  0  0  0  0
  4 22  2  0  0  0  0
  4 14  1  0  0  0  0
  5  1  1  1  0  0  0
  5  8  1  0  0  0  0
  6 17  2  0  0  0  0
  6 12  1  0  0  0  0
  8  7  1  1  0  0  0
  8 11  1  0  0  0  0
  9 19  1  0  0  0  0
 11 10  1  1  0  0  0
 12 20  2  0  0  0  0
 12 19  1  0  0  0  0
 13 20  1  0  0  0  0
 14 15  1  0  0  0  0
 18 19  2  0  0  0  0
M  CHG  1  21  -1
M  END
>  <CHROM.1>
-167.54900350,173.17191864,176.63878434,-178.73264739,124.94373840,-34.17952557
-4.96437500,-15.50486411,1.67877314,-0.91708977,2.32733373

>  <Name>
ligand

>  <RI>
0

>  <Rbt.Current_Directory>
/home/itssahil/PROJECTS/Mol_Feturizer/Test_systems_manuscript/rnas/4xwf

>  <Rbt.Executable>
rbdock ($Id: //depot/dev/client3/rdock/2013.1/src/exe/rbdock.cxx#4 $)

>  <Rbt.Library>
libRbt.so (2013.1, Build901 2013/11/27)

>  <Rbt.Parameter_File>
/export/apps/rDock/src/rDock_2013.1_src/data/scripts/dock_solv.prm

>  <Rbt.Receptor>
prm/blind_docking_40.prm

>  <SCORE>
-3.99653

>  <SCORE.INTER>
-5.46812

>  <SCORE.INTER.CONST>
1

>  <SCORE.INTER.POLAR>
0

>  <SCORE.INTER.ROT>
5

>  <SCORE.INTER.SOLV>
17.8859

>  <SCORE.INTER.VDW>
-16.5407

>  <SCORE.INTER.norm>
-0.248551

>  <SCORE.INTRA>
1.4644

>  <SCORE.INTRA.DIHEDRAL>
-1.72503

>  <SCORE.INTRA.DIHEDRAL.0>
3.49807

>  <SCORE.INTRA.POLAR>
0

>  <SCORE.INTRA.POLAR.0>
0

>  <SCORE.INTRA.REPUL>
0

>  <SCORE.INTRA.REPUL.0>
0

>  <SCORE.INTRA.SOLV>
3.92683

>  <SCORE.INTRA.SOLV.lig_0>
-73.062

>  <SCORE.INTRA.VDW>
0.363506

>  <SCORE.INTRA.VDW.0>
-1.83782

>  <SCORE.INTRA.norm>
0.0665638

>  <SCORE.RESTR>
0.00718486

>  <SCORE.RESTR.CAVITY>
0.00718486

>  <SCORE.RESTR.norm>
0.000326585

>  <SCORE.SYSTEM>
0

>  <SCORE.SYSTEM.CONST>
0

>  <SCORE.SYSTEM.DIHEDRAL>
0

>  <SCORE.SYSTEM.SOLV>
0

>  <SCORE.SYSTEM.norm>
0

>  <SCORE.heavy>
22

>  <SCORE.norm>
-0.18166

>  <RMSD>
13.061

$$$$
ligand
 OpenBabel02271912143D
libRbt.so/2013.1/901 2013/11/27
 22 23  0  0  0  0  0  0  0  0999 V2000
  -34.1593    6.1042  -20.8434 N   0  0  0  0  0  0  0  0  0  0  0  0
  -33.5154    2.7901  -20.6083 C   0  0  1  0  0  0  0  0  0  0  0  0
  -33.6798    3.9412  -21.4847 O   0  0  0  0  0  0  0  0  0  0  0  0
  -35.9485    0.3337  -19.0594 P   0  0  1  0  0  0  0  0  0  0  0  0
  -33.2105    5.1044  -20.7840 C   0  0  2  0  0  0  0  0  0  0  0  0
  -36.0796    7.1156  -20.8218 N   0  0  0  0  0  0  0  0  0  0  0  0
  -32.1944    5.5042  -18.6618 O   0  0  0  0  0  0  0  0  0  0  0  0
  -33.1338    4.6842  -19.3668 C   0  0  2  0  0  0  0  0  0  0  0  0
  -34.8632   10.3458  -20.0699 N   0  0  0  0  0  0  0  0  0  0  0  0
  -31.3531    3.1674  -19.7857 O   0  0  0  0  0  0  0  0  0  0  0  0
  -32.7450    3.2814  -19.4450 C   0  0  2  0  0  0  0  0  0  0  0  0
  -35.1191    8.0429  -20.9562 C   0  0  0  0  0  0  0  0  0  0  0  0
  -32.6391    8.0313  -21.0688 N   0  0  0  0  0  0  0  0  0  0  0  0
  -34.6932    1.1325  -19.5542 O   0  0  0  0  0  0  0  0  0  0  0  0
  -34.8803    2.3441  -20.2106 C   0  0  0  0  0  0  0  0  0  0  0  0
  -36.7794    0.1193  -20.3763 O   0  0  0  0  0  0  0  0  0  0  0  0
  -35.4806    5.9111  -20.7581 C   0  0  0  0  0  0  0  0  0  0  0  0
  -35.9416    9.9636  -22.0388 O   0  0  0  0  0  0  0  0  0  0  0  0
  -35.3363    9.4968  -21.0740 C   0  0  0  0  0  0  0  0  0  0  0  0
  -33.9069    7.4140  -20.9676 C   0  0  0  0  0  0  0  0  0  0  0  0
  -35.5103   -0.9267  -18.3907 O   0  5  0  0  0  0  0  0  0  0  0  0
  -36.6134    1.0405  -17.9499 O   0  0  0  0  0  0  0  0  0  0  0  0
  1 17  1  0  0  0  0
  1 20  1  0  0  0  0
  2 15  1  1  0  0  0
  2  3  1  0  0  0  0
  2 11  1  0  0  0  0
  3  5  1  0  0  0  0
  4 16  1  6  0  0  0
  4 21  1  0  0  0  0
  4 22  2  0  0  0  0
  4 14  1  0  0  0  0
  5  1  1  1  0  0  0
  5  8  1  0  0  0  0
  6 17  2  0  0  0  0
  6 12  1  0  0  0  0
  8  7  1  1  0  0  0
  8 11  1  0  0  0  0
  9 19  1  0  0  0  0
 11 10  1  6  0  0  0
 12 20  2  0  0  0  0
 12 19  1  0  0  0  0
 13 20  1  0  0  0  0
 14 15  1  0  0  0  0
 18 19  2  0  0  0  0
M  CHG  1  21  -1
M  END
>  <CHROM.1>
38.52824334,170.97138755,57.41298085,-176.80109159,115.38945676,-34.53254048
4.39334489,-20.09945946,-1.47260498,0.07765333,2.91682813

>  <Name>
ligand

>  <RI>
0

>  <Rbt.Current_Directory>
/home/itssahil/PROJECTS/Mol_Feturizer/Test_systems_manuscript/rnas/4xwf

>  <Rbt.Executable>
rbdock ($Id: //depot/dev/client3/rdock/2013.1/src/exe/rbdock.cxx#4 $)

>  <Rbt.Library>
libRbt.so (2013.1, Build901 2013/11/27)

>  <Rbt.Parameter_File>
/export/apps/rDock/src/rDock_2013.1_src/data/scripts/dock_solv.prm

>  <Rbt.Receptor>
prm/blind_docking_80.prm

>  <SCORE>
-10.2093

>  <SCORE.INTER>
-9.00478

>  <SCORE.INTER.CONST>
1

>  <SCORE.INTER.POLAR>
0

>  <SCORE.INTER.ROT>
5

>  <SCORE.INTER.SOLV>
14.115

>  <SCORE.INTER.VDW>
-17.6415

>  <SCORE.INTER.norm>
-0.409308

>  <SCORE.INTRA>
-1.20454

>  <SCORE.INTRA.DIHEDRAL>
-1.65325

>  <SCORE.INTRA.DIHEDRAL.0>
3.49807

>  <SCORE.INTRA.POLAR>
0

>  <SCORE.INTRA.POLAR.0>
0

>  <SCORE.INTRA.REPUL>
0

>  <SCORE.INTRA.REPUL.0>
0

>  <SCORE.INTRA.SOLV>
-0.302448

>  <SCORE.INTRA.SOLV.lig_0>
-73.062

>  <SCORE.INTRA.VDW>
-0.226687

>  <SCORE.INTRA.VDW.0>
-1.83782

>  <SCORE.INTRA.norm>
-0.0547516

>  <SCORE.RESTR>
0

>  <SCORE.RESTR.CAVITY>
0

>  <SCORE.RESTR.norm>
0

>  <SCORE.SYSTEM>
0

>  <SCORE.SYSTEM.CONST>
0

>  <SCORE.SYSTEM.DIHEDRAL>
0

>  <SCORE.SYSTEM.SOLV>
0

>  <SCORE.SYSTEM.norm>
0

>  <SCORE.heavy>
22

>  <SCORE.norm>
-0.46406

>  <RMSD>
13.087

$$$$
ligand
 OpenBabel02271912143D
libRbt.so/2013.1/901 2013/11/27
 22 23  0  0  0  0  0  0  0  0999 V2000
  -34.2286   -5.7986  -14.0961 N   0  0  0  0  0  0  0  0  0  0  0  0
  -35.0085   -3.4197  -16.3732 C   0  0  1  0  0  0  0  0  0  0  0  0
  -35.1145   -4.8196  -15.9873 O   0  0  0  0  0  0  0  0  0  0  0  0
  -32.4666   -4.0106  -19.0616 P   0  0  1  0  0  0  0  0  0  0  0  0
  -35.1548   -4.8837  -14.5525 C   0  0  2  0  0  0  0  0  0  0  0  0
  -32.6307   -6.6961  -12.9332 N   0  0  0  0  0  0  0  0  0  0  0  0
  -35.1815   -3.2762  -12.7887 O   0  0  0  0  0  0  0  0  0  0  0  0
  -34.6854   -3.5538  -14.1034 C   0  0  2  0  0  0  0  0  0  0  0  0
  -31.8920   -9.5815  -12.8695 N   0  0  0  0  0  0  0  0  0  0  0  0
  -36.6078   -2.4503  -14.9601 O   0  0  0  0  0  0  0  0  0  0  0  0
  -35.1934   -2.6470  -15.1255 C   0  0  2  0  0  0  0  0  0  0  0  0
  -33.0878   -7.6157  -13.7969 C   0  0  0  0  0  0  0  0  0  0  0  0
  -34.8598   -7.6988  -15.5338 N   0  0  0  0  0  0  0  0  0  0  0  0
  -33.5007   -4.2182  -17.9013 O   0  0  0  0  0  0  0  0  0  0  0  0
  -33.6445   -3.2238  -16.9400 C   0  0  0  0  0  0  0  0  0  0  0  0
  -32.3990   -5.4268  -19.7400 O   0  0  0  0  0  0  0  0  0  0  0  0
  -33.3373   -5.5660  -13.1255 C   0  0  0  0  0  0  0  0  0  0  0  0
  -32.7559   -9.6249  -14.9760 O   0  0  0  0  0  0  0  0  0  0  0  0
  -32.5843   -8.9952  -13.9324 C   0  0  0  0  0  0  0  0  0  0  0  0
  -34.0962   -7.0590  -14.5306 C   0  0  0  0  0  0  0  0  0  0  0  0
  -32.9336   -2.9143  -19.9605 O   0  5  0  0  0  0  0  0  0  0  0  0
  -31.2057   -3.4501  -18.5435 O   0  0  0  0  0  0  0  0  0  0  0  0
  1 17  1  0  0  0  0
  1 20  1  0  0  0  0
  2 15  1  1  0  0  0
  2  3  1  0  0  0  0
  2 11  1  0  0  0  0
  3  5  1  0  0  0  0
  4 16  1  6  0  0  0
  4 21  1  0  0  0  0
  4 22  2  0  0  0  0
  4 14  1  0  0  0  0
  5  1  1  1  0  0  0
  5  8  1  0  0  0  0
  6 17  2  0  0  0  0
  6 12  1  0  0  0  0
  8  7  1  1  0  0  0
  8 11  1  0  0  0  0
  9 19  1  0  0  0  0
 11 10  1  1  0  0  0
 12 20  2  0  0  0  0
 12 19  1  0  0  0  0
 13 20  1  0  0  0  0
 14 15  1  0  0  0  0
 18 19  2  0  0  0  0
M  CHG  1  21  -1
M  END
>  <CHROM.1>
130.69243239,51.47861729,169.22773448,156.69512642,21.46100944,-33.68128062
-5.18115765,-15.83046467,1.61238575,-0.94754606,2.31720269

>  <Name>
ligand

>  <RI>
0

>  <Rbt.Current_Directory>
/home/itssahil/PROJECTS/Mol_Feturizer/Test_systems_manuscript/rnas/4xwf

>  <Rbt.Executable>
rbdock ($Id: //depot/dev/client3/rdock/2013.1/src/exe/rbdock.cxx#4 $)

>  <Rbt.Library>
libRbt.so (2013.1, Build901 2013/11/27)

>  <Rbt.Parameter_File>
/export/apps/rDock/src/rDock_2013.1_src/data/scripts/dock_solv.prm

>  <Rbt.Receptor>
prm/blind_docking_40.prm

>  <SCORE>
-6.97796

>  <SCORE.INTER>
-10.1479

>  <SCORE.INTER.CONST>
1

>  <SCORE.INTER.POLAR>
0

>  <SCORE.INTER.ROT>
5

>  <SCORE.INTER.SOLV>
20.1947

>  <SCORE.INTER.VDW>
-20.4302

>  <SCORE.INTER.norm>
-0.46127

>  <SCORE.INTRA>
3.05087

>  <SCORE.INTRA.DIHEDRAL>
1.318

>  <SCORE.INTRA.DIHEDRAL.0>
3.49807

>  <SCORE.INTRA.POLAR>
0

>  <SCORE.INTRA.POLAR.0>
0

>  <SCORE.INTRA.REPUL>
0

>  <SCORE.INTRA.REPUL.0>
0

>  <SCORE.INTRA.SOLV>
0.501139

>  <SCORE.INTRA.SOLV.lig_0>
-73.062

>  <SCORE.INTRA.VDW>
2.1413

>  <SCORE.INTRA.VDW.0>
-1.83782

>  <SCORE.INTRA.norm>
0.138676

>  <SCORE.RESTR>
0.119103

>  <SCORE.RESTR.CAVITY>
0.119103

>  <SCORE.RESTR.norm>
0.00541375

>  <SCORE.SYSTEM>
0

>  <SCORE.SYSTEM.CONST>
0

>  <SCORE.SYSTEM.DIHEDRAL>
0

>  <SCORE.SYSTEM.SOLV>
0

>  <SCORE.SYSTEM.norm>
0

>  <SCORE.heavy>
22

>  <SCORE.norm>
-0.31718

>  <RMSD>
13.103

$$$$
ligand
 OpenBabel02271912143D
libRbt.so/2013.1/901 2013/11/27
 22 23  0  0  0  0  0  0  0  0999 V2000
  -34.6481   -5.9702  -13.6285 N   0  0  0  0  0  0  0  0  0  0  0  0
  -35.3461   -4.0988  -16.3603 C   0  0  1  0  0  0  0  0  0  0  0  0
  -35.6359   -5.3094  -15.6052 O   0  0  0  0  0  0  0  0  0  0  0  0
  -32.7758   -3.2376  -19.0007 P   0  0  1  0  0  0  0  0  0  0  0  0
  -35.4580   -5.0166  -14.2099 C   0  0  2  0  0  0  0  0  0  0  0  0
  -33.4552   -7.0294  -12.1567 N   0  0  0  0  0  0  0  0  0  0  0  0
  -34.9180   -3.0644  -12.9477 O   0  0  0  0  0  0  0  0  0  0  0  0
  -34.6947   -3.7487  -14.1861 C   0  0  2  0  0  0  0  0  0  0  0  0
  -31.8477   -9.1921  -14.4784 N   0  0  0  0  0  0  0  0  0  0  0  0
  -36.5024   -2.5012  -15.0934 O   0  0  0  0  0  0  0  0  0  0  0  0
  -35.1900   -3.0276  -15.3521 C   0  0  2  0  0  0  0  0  0  0  0  0
  -33.4835   -7.7633  -13.2798 C   0  0  0  0  0  0  0  0  0  0  0  0
  -34.5331   -7.5473  -15.5193 N   0  0  0  0  0  0  0  0  0  0  0  0
  -33.9197   -3.2310  -17.9283 O   0  0  0  0  0  0  0  0  0  0  0  0
  -34.0769   -4.3391  -17.1029 C   0  0  0  0  0  0  0  0  0  0  0  0
  -33.0197   -1.9028  -19.7940 O   0  0  0  0  0  0  0  0  0  0  0  0
  -34.1746   -5.9128  -12.3782 C   0  0  0  0  0  0  0  0  0  0  0  0
  -33.1089  -10.0316  -12.7783 O   0  0  0  0  0  0  0  0  0  0  0  0
  -32.8136   -9.0621  -13.4769 C   0  0  0  0  0  0  0  0  0  0  0  0
  -34.2354   -7.1042  -14.2102 C   0  0  0  0  0  0  0  0  0  0  0  0
  -31.4499   -3.3211  -18.3204 O   0  5  0  0  0  0  0  0  0  0  0  0
  -32.7907   -4.4932  -19.7727 O   0  0  0  0  0  0  0  0  0  0  0  0
  1 17  1  0  0  0  0
  1 20  1  0  0  0  0
  2 15  1  1  0  0  0
  2  3  1  0  0  0  0
  2 11  1  0  0  0  0
  3  5  1  0  0  0  0
  4 16  1  6  0  0  0
  4 21  1  0  0  0  0
  4 22  2  0  0  0  0
  4 14  1  0  0  0  0
  5  1  1  6  0  0  0
  5  8  1  0  0  0  0
  6 17  2  0  0  0  0
  6 12  1  0  0  0  0
  8  7  1  1  0  0  0
  8 11  1  0  0  0  0
  9 19  1  0  0  0  0
 11 10  1  1  0  0  0
 12 20  2  0  0  0  0
 12 19  1  0  0  0  0
 13 20  1  0  0  0  0
 14 15  1  0  0  0  0
 18 19  2  0  0  0  0
M  CHG  1  21  -1
M  END
>  <CHROM.1>
172.67141392,173.13919590,174.84499608,-171.88962452,-119.58261693,-33.93001074
-5.11836817,-15.64306672,1.64394098,-0.90142774,2.36049158

>  <Name>
ligand

>  <RI>
0

>  <Rbt.Current_Directory>
/home/itssahil/PROJECTS/Mol_Feturizer/Test_systems_manuscript/rnas/4xwf

>  <Rbt.Executable>
rbdock ($Id: //depot/dev/client3/rdock/2013.1/src/exe/rbdock.cxx#4 $)

>  <Rbt.Library>
libRbt.so (2013.1, Build901 2013/11/27)

>  <Rbt.Parameter_File>
/export/apps/rDock/src/rDock_2013.1_src/data/scripts/dock_solv.prm

>  <Rbt.Receptor>
prm/blind_docking_40.prm

>  <SCORE>
-4.47389

>  <SCORE.INTER>
-5.96569

>  <SCORE.INTER.CONST>
1

>  <SCORE.INTER.POLAR>
0

>  <SCORE.INTER.ROT>
5

>  <SCORE.INTER.SOLV>
18.7219

>  <SCORE.INTER.VDW>
-17.1511

>  <SCORE.INTER.norm>
-0.271168

>  <SCORE.INTRA>
1.4918

>  <SCORE.INTRA.DIHEDRAL>
-1.45401

>  <SCORE.INTRA.DIHEDRAL.0>
3.49807

>  <SCORE.INTRA.POLAR>
0

>  <SCORE.INTRA.POLAR.0>
0

>  <SCORE.INTRA.REPUL>
0

>  <SCORE.INTRA.REPUL.0>
0

>  <SCORE.INTRA.SOLV>
2.81167

>  <SCORE.INTRA.SOLV.lig_0>
-73.062

>  <SCORE.INTRA.VDW>
0.812974

>  <SCORE.INTRA.VDW.0>
-1.83782

>  <SCORE.INTRA.norm>
0.0678093

>  <SCORE.RESTR>
0

>  <SCORE.RESTR.CAVITY>
0

>  <SCORE.RESTR.norm>
0

>  <SCORE.SYSTEM>
0

>  <SCORE.SYSTEM.CONST>
0

>  <SCORE.SYSTEM.DIHEDRAL>
0

>  <SCORE.SYSTEM.SOLV>
0

>  <SCORE.SYSTEM.norm>
0

>  <SCORE.heavy>
22

>  <SCORE.norm>
-0.203358

>  <RMSD>
13.113

$$$$
ligand
 OpenBabel02271912143D
libRbt.so/2013.1/901 2013/11/27
 22 23  0  0  0  0  0  0  0  0999 V2000
  -34.2387   -5.6430  -14.0950 N   0  0  0  0  0  0  0  0  0  0  0  0
  -35.1290   -3.3686  -16.4375 C   0  0  1  0  0  0  0  0  0  0  0  0
  -35.2309   -4.7449  -15.9735 O   0  0  0  0  0  0  0  0  0  0  0  0
  -32.7182   -4.1012  -19.2376 P   0  0  1  0  0  0  0  0  0  0  0  0
  -35.1786   -4.7354  -14.5377 C   0  0  2  0  0  0  0  0  0  0  0  0
  -32.5618   -6.5002  -13.0160 N   0  0  0  0  0  0  0  0  0  0  0  0
  -35.0658   -3.0403  -12.8615 O   0  0  0  0  0  0  0  0  0  0  0  0
  -34.6607   -3.3933  -14.1893 C   0  0  2  0  0  0  0  0  0  0  0  0
  -31.8781   -9.2891  -14.8875 N   0  0  0  0  0  0  0  0  0  0  0  0
  -36.6178   -2.2992  -14.9765 O   0  0  0  0  0  0  0  0  0  0  0  0
  -35.2205   -2.5302  -15.2221 C   0  0  2  0  0  0  0  0  0  0  0  0
  -33.1256   -7.4697  -13.7527 C   0  0  0  0  0  0  0  0  0  0  0  0
  -35.0585   -7.6293  -15.3026 N   0  0  0  0  0  0  0  0  0  0  0  0
  -33.7795   -4.2054  -18.0882 O   0  0  0  0  0  0  0  0  0  0  0  0
  -33.8021   -3.2270  -17.1002 C   0  0  0  0  0  0  0  0  0  0  0  0
  -33.2590   -2.9178  -20.1194 O   0  0  0  0  0  0  0  0  0  0  0  0
  -33.2518   -5.3647  -13.2354 C   0  0  0  0  0  0  0  0  0  0  0  0
  -33.0105   -9.6789  -12.9507 O   0  0  0  0  0  0  0  0  0  0  0  0
  -32.6763   -8.8727  -13.8187 C   0  0  0  0  0  0  0  0  0  0  0  0
  -34.1841   -6.9383  -14.4327 C   0  0  0  0  0  0  0  0  0  0  0  0
  -31.3647   -3.8699  -18.6523 O   0  5  0  0  0  0  0  0  0  0  0  0
  -32.5345   -5.4057  -19.8989 O   0  0  0  0  0  0  0  0  0  0  0  0
  1 17  1  0  0  0  0
  1 20  1  0  0  0  0
  2 15  1  1  0  0  0
  2  3  1  0  0  0  0
  2 11  1  0  0  0  0
  3  5  1  0  0  0  0
  4 16  1  6  0  0  0
  4 21  1  0  0  0  0
  4 22  2  0  0  0  0
  4 14  1  0  0  0  0
  5  1  1  6  0  0  0
  5  8  1  0  0  0  0
  6 17  2  0  0  0  0
  6 12  1  0  0  0  0
  8  7  1  1  0  0  0
  8 11  1  0  0  0  0
  9 19  1  0  0  0  0
 11 10  1  1  0  0  0
 12 20  2  0  0  0  0
 12 19  1  0  0  0  0
 13 20  1  0  0  0  0
 14 15  1  0  0  0  0
 18 19  2  0  0  0  0
M  CHG  1  21  -1
M  END
>  <CHROM.1>
128.04101834,56.04436295,-73.09800589,163.15087239,-98.79600100,-33.78424278
-5.11816500,-15.87226022,1.59065210,-0.97247284,2.25221627

>  <Name>
ligand

>  <RI>
0

>  <Rbt.Current_Directory>
/home/itssahil/PROJECTS/Mol_Feturizer/Test_systems_manuscript/rnas/4xwf

>  <Rbt.Executable>
rbdock ($Id: //depot/dev/client3/rdock/2013.1/src/exe/rbdock.cxx#4 $)

>  <Rbt.Library>
libRbt.so (2013.1, Build901 2013/11/27)

>  <Rbt.Parameter_File>
/export/apps/rDock/src/rDock_2013.1_src/data/scripts/dock_solv.prm

>  <Rbt.Receptor>
prm/blind_docking_40.prm

>  <SCORE>
-6.31333

>  <SCORE.INTER>
-8.3339

>  <SCORE.INTER.CONST>
1

>  <SCORE.INTER.POLAR>
0

>  <SCORE.INTER.ROT>
5

>  <SCORE.INTER.SOLV>
19.7063

>  <SCORE.INTER.VDW>
-19.058

>  <SCORE.INTER.norm>
-0.378814

>  <SCORE.INTRA>
1.96422

>  <SCORE.INTRA.DIHEDRAL>
0.162545

>  <SCORE.INTRA.DIHEDRAL.0>
3.49807

>  <SCORE.INTRA.POLAR>
0

>  <SCORE.INTRA.POLAR.0>
0

>  <SCORE.INTRA.REPUL>
0

>  <SCORE.INTRA.REPUL.0>
0

>  <SCORE.INTRA.SOLV>
-0.246298

>  <SCORE.INTRA.SOLV.lig_0>
-73.062

>  <SCORE.INTRA.VDW>
2.0061

>  <SCORE.INTRA.VDW.0>
-1.83782

>  <SCORE.INTRA.norm>
0.0892828

>  <SCORE.RESTR>
0.0563538

>  <SCORE.RESTR.CAVITY>
0.0563538

>  <SCORE.RESTR.norm>
0.00256154

>  <SCORE.SYSTEM>
0

>  <SCORE.SYSTEM.CONST>
0

>  <SCORE.SYSTEM.DIHEDRAL>
0

>  <SCORE.SYSTEM.SOLV>
0

>  <SCORE.SYSTEM.norm>
0

>  <SCORE.heavy>
22

>  <SCORE.norm>
-0.286969

>  <RMSD>
13.128

$$$$
ligand
 OpenBabel02271912143D
libRbt.so/2013.1/901 2013/11/27
 22 23  0  0  0  0  0  0  0  0999 V2000
  -34.2196   -5.7153  -14.0704 N   0  0  0  0  0  0  0  0  0  0  0  0
  -35.0868   -3.4249  -16.4059 C   0  0  1  0  0  0  0  0  0  0  0  0
  -35.1900   -4.8053  -15.9545 O   0  0  0  0  0  0  0  0  0  0  0  0
  -32.6657   -4.1213  -19.1967 P   0  0  1  0  0  0  0  0  0  0  0  0
  -35.1568   -4.8073  -14.5181 C   0  0  2  0  0  0  0  0  0  0  0  0
  -32.6179   -6.6084  -12.9093 N   0  0  0  0  0  0  0  0  0  0  0  0
  -35.0721   -3.1255  -12.8268 O   0  0  0  0  0  0  0  0  0  0  0  0
  -34.6482   -3.4664  -14.1520 C   0  0  2  0  0  0  0  0  0  0  0  0
  -31.9674   -9.5395  -12.8489 N   0  0  0  0  0  0  0  0  0  0  0  0
  -36.5986   -2.3725  -14.9563 O   0  0  0  0  0  0  0  0  0  0  0  0
  -35.1973   -2.5968  -15.1852 C   0  0  2  0  0  0  0  0  0  0  0  0
  -33.0510   -7.5185  -13.7951 C   0  0  0  0  0  0  0  0  0  0  0  0
  -34.8047   -7.5973  -15.5507 N   0  0  0  0  0  0  0  0  0  0  0  0
  -33.7029   -4.2596  -18.0290 O   0  0  0  0  0  0  0  0  0  0  0  0
  -33.7517   -3.2734  -17.0498 C   0  0  0  0  0  0  0  0  0  0  0  0
  -33.2519   -2.9462  -20.0604 O   0  0  0  0  0  0  0  0  0  0  0  0
  -33.3417   -5.4867  -13.0867 C   0  0  0  0  0  0  0  0  0  0  0  0
  -32.5546   -9.4481  -15.0472 O   0  0  0  0  0  0  0  0  0  0  0  0
  -32.5230   -8.8864  -13.9524 C   0  0  0  0  0  0  0  0  0  0  0  0
  -34.0617   -6.9645  -14.5279 C   0  0  0  0  0  0  0  0  0  0  0  0
  -31.3080   -3.8599  -18.6344 O   0  5  0  0  0  0  0  0  0  0  0  0
  -32.4615   -5.4165  -19.8702 O   0  0  0  0  0  0  0  0  0  0  0  0
  1 17  1  0  0  0  0
  1 20  1  0  0  0  0
  2 15  1  1  0  0  0
  2  3  1  0  0  0  0
  2 11  1  0  0  0  0
  3  5  1  0  0  0  0
  4 16  1  6  0  0  0
  4 21  1  0  0  0  0
  4 22  2  0  0  0  0
  4 14  1  0  0  0  0
  5  1  1  6  0  0  0
  5  8  1  0  0  0  0
  6 17  2  0  0  0  0
  6 12  1  0  0  0  0
  8  7  1  1  0  0  0
  8 11  1  0  0  0  0
  9 19  1  0  0  0  0
 11 10  1  1  0  0  0
 12 20  2  0  0  0  0
 12 19  1  0  0  0  0
 13 20  1  0  0  0  0
 14 15  1  0  0  0  0
 18 19  2  0  0  0  0
M  CHG  1  21  -1
M  END
>  <CHROM.1>
136.00741107,54.98697034,-71.71266434,160.60516543,28.75856585,-33.72314093
-5.16076292,-15.87429830,1.55221400,-0.97093206,2.22313312

>  <Name>
ligand

>  <RI>
0

>  <Rbt.Current_Directory>
/home/itssahil/PROJECTS/Mol_Feturizer/Test_systems_manuscript/rnas/4xwf

>  <Rbt.Executable>
rbdock ($Id: //depot/dev/client3/rdock/2013.1/src/exe/rbdock.cxx#4 $)

>  <Rbt.Library>
libRbt.so (2013.1, Build901 2013/11/27)

>  <Rbt.Parameter_File>
/export/apps/rDock/src/rDock_2013.1_src/data/scripts/dock_solv.prm

>  <Rbt.Receptor>
prm/blind_docking_40.prm

>  <SCORE>
-5.74303

>  <SCORE.INTER>
-8.01429

>  <SCORE.INTER.CONST>
1

>  <SCORE.INTER.POLAR>
0

>  <SCORE.INTER.ROT>
5

>  <SCORE.INTER.SOLV>
20.8

>  <SCORE.INTER.VDW>
-19.2095

>  <SCORE.INTER.norm>
-0.364286

>  <SCORE.INTRA>
2.1981

>  <SCORE.INTRA.DIHEDRAL>
0.828685

>  <SCORE.INTRA.DIHEDRAL.0>
3.49807

>  <SCORE.INTRA.POLAR>
0

>  <SCORE.INTRA.POLAR.0>
0

>  <SCORE.INTRA.REPUL>
0

>  <SCORE.INTRA.REPUL.0>
0

>  <SCORE.INTRA.SOLV>
-0.0446345

>  <SCORE.INTRA.SOLV.lig_0>
-73.062

>  <SCORE.INTRA.VDW>
1.80608

>  <SCORE.INTRA.VDW.0>
-1.83782

>  <SCORE.INTRA.norm>
0.0999138

>  <SCORE.RESTR>
0.0731572

>  <SCORE.RESTR.CAVITY>
0.0731572

>  <SCORE.RESTR.norm>
0.00332533

>  <SCORE.SYSTEM>
0

>  <SCORE.SYSTEM.CONST>
0

>  <SCORE.SYSTEM.DIHEDRAL>
0

>  <SCORE.SYSTEM.SOLV>
0

>  <SCORE.SYSTEM.norm>
0

>  <SCORE.heavy>
22

>  <SCORE.norm>
-0.261047

>  <RMSD>
13.131

$$$$
ligand
 OpenBabel02271912143D
libRbt.so/2013.1/901 2013/11/27
 22 23  0  0  0  0  0  0  0  0999 V2000
  -36.4208   -1.1010  -18.2473 N   0  0  0  0  0  0  0  0  0  0  0  0
  -35.4840    1.5239  -20.1669 C   0  0  1  0  0  0  0  0  0  0  0  0
  -35.9735    1.0738  -18.8716 O   0  0  0  0  0  0  0  0  0  0  0  0
  -37.1748    4.0162  -21.0744 P   0  0  1  0  0  0  0  0  0  0  0  0
  -35.4189   -0.2263  -18.6138 C   0  0  2  0  0  0  0  0  0  0  0  0
  -38.3336   -2.1255  -18.1946 N   0  0  0  0  0  0  0  0  0  0  0  0
  -33.8870   -1.6653  -19.7445 O   0  0  0  0  0  0  0  0  0  0  0  0
  -34.9193   -0.6893  -19.9279 C   0  0  2  0  0  0  0  0  0  0  0  0
  -39.1831   -4.3301  -16.4274 N   0  0  0  0  0  0  0  0  0  0  0  0
  -33.2140    0.9641  -19.9994 O   0  0  0  0  0  0  0  0  0  0  0  0
  -34.4608    0.5353  -20.5721 C   0  0  2  0  0  0  0  0  0  0  0  0
  -37.5187   -2.7135  -17.3052 C   0  0  0  0  0  0  0  0  0  0  0  0
  -35.1692   -2.3996  -16.5671 N   0  0  0  0  0  0  0  0  0  0  0  0
  -37.4802    2.5382  -20.6491 O   0  0  0  0  0  0  0  0  0  0  0  0
  -36.6461    1.5207  -21.0994 C   0  0  0  0  0  0  0  0  0  0  0  0
  -35.7512    4.2790  -20.4622 O   0  0  0  0  0  0  0  0  0  0  0  0
  -37.6506   -1.1199  -18.7742 C   0  0  0  0  0  0  0  0  0  0  0  0
  -37.0189   -4.3798  -15.7207 O   0  0  0  0  0  0  0  0  0  0  0  0
  -37.8689   -3.8550  -16.4398 C   0  0  0  0  0  0  0  0  0  0  0  0
  -36.3113   -2.0758  -17.3349 C   0  0  0  0  0  0  0  0  0  0  0  0
  -37.2421    4.1354  -22.5607 O   0  5  0  0  0  0  0  0  0  0  0  0
  -38.2652    4.9158  -20.6567 O   0  0  0  0  0  0  0  0  0  0  0  0
  1 17  1  0  0  0  0
  1 20  1  0  0  0  0
  2 15  1  6  0  0  0
  2  3  1  0  0  0  0
  2 11  1  0  0  0  0
  3  5  1  0  0  0  0
  4 16  1  1  0  0  0
  4 21  1  0  0  0  0
  4 22  2  0  0  0  0
  4 14  1  0  0  0  0
  5  1  1  6  0  0  0
  5  8  1  0  0  0  0
  6 17  2  0  0  0  0
  6 12  1  0  0  0  0
  8  7  1  1  0  0  0
  8 11  1  0  0  0  0
  9 19  1  0  0  0  0
 11 10  1  1  0  0  0
 12 20  2  0  0  0  0
 12 19  1  0  0  0  0
 13 20  1  0  0  0  0
 14 15  1  0  0  0  0
 18 19  2  0  0  0  0
M  CHG  1  21  -1
M  END
>  <CHROM.1>
37.99498291,68.29552902,-61.55059976,82.36584268,-5.77077575,-36.44404580
0.28455507,-19.23483303,-1.61580233,0.19300852,-0.53525909

>  <Name>
ligand

>  <RI>
0

>  <Rbt.Current_Directory>
/home/itssahil/PROJECTS/Mol_Feturizer/Test_systems_manuscript/rnas/4xwf

>  <Rbt.Executable>
rbdock ($Id: //depot/dev/client3/rdock/2013.1/src/exe/rbdock.cxx#4 $)

>  <Rbt.Library>
libRbt.so (2013.1, Build901 2013/11/27)

>  <Rbt.Parameter_File>
/export/apps/rDock/src/rDock_2013.1_src/data/scripts/dock_solv.prm

>  <Rbt.Receptor>
prm/blind_docking_100.prm

>  <SCORE>
-8.70459

>  <SCORE.INTER>
-9.25352

>  <SCORE.INTER.CONST>
1

>  <SCORE.INTER.POLAR>
0

>  <SCORE.INTER.ROT>
5

>  <SCORE.INTER.SOLV>
18.868

>  <SCORE.INTER.VDW>
-19.3917

>  <SCORE.INTER.norm>
-0.420614

>  <SCORE.INTRA>
0.548926

>  <SCORE.INTRA.DIHEDRAL>
0.479368

>  <SCORE.INTRA.DIHEDRAL.0>
3.49807

>  <SCORE.INTRA.POLAR>
0

>  <SCORE.INTRA.POLAR.0>
0

>  <SCORE.INTRA.REPUL>
0

>  <SCORE.INTRA.REPUL.0>
0

>  <SCORE.INTRA.SOLV>
0.523916

>  <SCORE.INTRA.SOLV.lig_0>
-73.062

>  <SCORE.INTRA.VDW>
0.0472838

>  <SCORE.INTRA.VDW.0>
-1.83782

>  <SCORE.INTRA.norm>
0.0249512

>  <SCORE.RESTR>
0

>  <SCORE.RESTR.CAVITY>
0

>  <SCORE.RESTR.norm>
0

>  <SCORE.SYSTEM>
0

>  <SCORE.SYSTEM.CONST>
0

>  <SCORE.SYSTEM.DIHEDRAL>
0

>  <SCORE.SYSTEM.SOLV>
0

>  <SCORE.SYSTEM.norm>
0

>  <SCORE.heavy>
22

>  <SCORE.norm>
-0.395663

>  <RMSD>
13.133

$$$$
ligand
 OpenBabel02271912143D
libRbt.so/2013.1/901 2013/11/27
 22 23  0  0  0  0  0  0  0  0999 V2000
  -35.0809   -5.7263  -13.3463 N   0  0  0  0  0  0  0  0  0  0  0  0
  -35.6437   -4.0098  -16.2080 C   0  0  1  0  0  0  0  0  0  0  0  0
  -36.0526   -5.1087  -15.3448 O   0  0  0  0  0  0  0  0  0  0  0  0
  -32.9407   -3.6000  -18.8315 P   0  0  1  0  0  0  0  0  0  0  0  0
  -35.7877   -4.7284  -13.9848 C   0  0  2  0  0  0  0  0  0  0  0  0
  -34.1400   -6.8931  -11.7764 N   0  0  0  0  0  0  0  0  0  0  0  0
  -34.9634   -2.7641  -12.9087 O   0  0  0  0  0  0  0  0  0  0  0  0
  -34.8731   -3.5695  -14.0898 C   0  0  2  0  0  0  0  0  0  0  0  0
  -34.0167  -10.0285  -13.0237 N   0  0  0  0  0  0  0  0  0  0  0  0
  -36.5451   -2.1812  -15.0511 O   0  0  0  0  0  0  0  0  0  0  0  0
  -35.3186   -2.8886  -15.2994 C   0  0  2  0  0  0  0  0  0  0  0  0
  -33.9849   -7.5495  -12.9365 C   0  0  0  0  0  0  0  0  0  0  0  0
  -34.6585   -7.1737  -15.2963 N   0  0  0  0  0  0  0  0  0  0  0  0
  -34.1444   -3.4331  -17.8406 O   0  0  0  0  0  0  0  0  0  0  0  0
  -34.4428   -4.4683  -16.9613 C   0  0  0  0  0  0  0  0  0  0  0  0
  -31.6849   -3.4849  -17.8933 O   0  0  0  0  0  0  0  0  0  0  0  0
  -34.8161   -5.7575  -12.0350 C   0  0  0  0  0  0  0  0  0  0  0  0
  -32.0764   -8.8727  -13.3156 O   0  0  0  0  0  0  0  0  0  0  0  0
  -33.2895   -8.8382  -13.1104 C   0  0  0  0  0  0  0  0  0  0  0  0
  -34.5774   -6.8224  -13.9293 C   0  0  0  0  0  0  0  0  0  0  0  0
  -33.0594   -4.9021  -19.5515 O   0  5  0  0  0  0  0  0  0  0  0  0
  -33.0422   -2.6378  -19.9435 O   0  0  0  0  0  0  0  0  0  0  0  0
  1 17  1  0  0  0  0
  1 20  1  0  0  0  0
  2 15  1  1  0  0  0
  2  3  1  0  0  0  0
  2 11  1  0  0  0  0
  3  5  1  0  0  0  0
  4 16  1  1  0  0  0
  4 21  1  0  0  0  0
  4 22  2  0  0  0  0
  4 14  1  0  0  0  0
  5  1  1  1  0  0  0
  5  8  1  0  0  0  0
  6 17  2  0  0  0  0
  6 12  1  0  0  0  0
  8  7  1  1  0  0  0
  8 11  1  0  0  0  0
  9 19  1  0  0  0  0
 11 10  1  1  0  0  0
 12 20  2  0  0  0  0
 12 19  1  0  0  0  0
 13 20  1  0  0  0  0
 14 15  1  0  0  0  0
 18 19  2  0  0  0  0
M  CHG  1  21  -1
M  END
>  <CHROM.1>
-171.55850954,175.75151180,-72.05475227,-178.28400294,91.27065595,-34.22568681
-5.07921877,-15.43303244,1.72387581,-0.93757039,2.34053385

>  <Name>
ligand

>  <RI>
0

>  <Rbt.Current_Directory>
/home/itssahil/PROJECTS/Mol_Feturizer/Test_systems_manuscript/rnas/4xwf

>  <Rbt.Executable>
rbdock ($Id: //depot/dev/client3/rdock/2013.1/src/exe/rbdock.cxx#4 $)

>  <Rbt.Library>
libRbt.so (2013.1, Build901 2013/11/27)

>  <Rbt.Parameter_File>
/export/apps/rDock/src/rDock_2013.1_src/data/scripts/dock_solv.prm

>  <Rbt.Receptor>
prm/blind_docking_40.prm

>  <SCORE>
-5.29436

>  <SCORE.INTER>
-6.83419

>  <SCORE.INTER.CONST>
1

>  <SCORE.INTER.POLAR>
0

>  <SCORE.INTER.ROT>
5

>  <SCORE.INTER.SOLV>
14.3167

>  <SCORE.INTER.VDW>
-16.2617

>  <SCORE.INTER.norm>
-0.310645

>  <SCORE.INTRA>
1.53182

>  <SCORE.INTRA.DIHEDRAL>
-0.863636

>  <SCORE.INTRA.DIHEDRAL.0>
3.49807

>  <SCORE.INTRA.POLAR>
0

>  <SCORE.INTRA.POLAR.0>
0

>  <SCORE.INTRA.REPUL>
0

>  <SCORE.INTRA.REPUL.0>
0

>  <SCORE.INTRA.SOLV>
3.00878

>  <SCORE.INTRA.SOLV.lig_0>
-73.062

>  <SCORE.INTRA.VDW>
0.459249

>  <SCORE.INTRA.VDW.0>
-1.83782

>  <SCORE.INTRA.norm>
0.0696283

>  <SCORE.RESTR>
0.00800759

>  <SCORE.RESTR.CAVITY>
0.00800759

>  <SCORE.RESTR.norm>
0.000363981

>  <SCORE.SYSTEM>
0

>  <SCORE.SYSTEM.CONST>
0

>  <SCORE.SYSTEM.DIHEDRAL>
0

>  <SCORE.SYSTEM.SOLV>
0

>  <SCORE.SYSTEM.norm>
0

>  <SCORE.heavy>
22

>  <SCORE.norm>
-0.240653

>  <RMSD>
13.138

$$$$
ligand
 OpenBabel02271912143D
libRbt.so/2013.1/901 2013/11/27
 22 23  0  0  0  0  0  0  0  0999 V2000
  -33.0935    3.8955  -18.9634 N   0  0  0  0  0  0  0  0  0  0  0  0
  -34.3775    2.7460  -21.8759 C   0  0  1  0  0  0  0  0  0  0  0  0
  -33.2242    3.3125  -21.1911 O   0  0  0  0  0  0  0  0  0  0  0  0
  -37.4862    4.2205  -23.4459 P   0  0  1  0  0  0  0  0  0  0  0  0
  -33.2333    2.8360  -19.8357 C   0  0  2  0  0  0  0  0  0  0  0  0
  -32.6541    5.0307  -17.1663 N   0  0  0  0  0  0  0  0  0  0  0  0
  -34.5975    1.3319  -18.5817 O   0  0  0  0  0  0  0  0  0  0  0  0
  -34.5999    2.3048  -19.6330 C   0  0  2  0  0  0  0  0  0  0  0  0
  -34.3487    7.9878  -18.1437 N   0  0  0  0  0  0  0  0  0  0  0  0
  -34.2634    0.5165  -21.1614 O   0  0  0  0  0  0  0  0  0  0  0  0
  -34.9528    1.7578  -20.9374 C   0  0  2  0  0  0  0  0  0  0  0  0
  -33.0204    5.8927  -18.1273 C   0  0  0  0  0  0  0  0  0  0  0  0
  -33.6939    5.7181  -20.5105 N   0  0  0  0  0  0  0  0  0  0  0  0
  -36.3979    3.2889  -22.8083 O   0  0  0  0  0  0  0  0  0  0  0  0
  -35.3247    3.8659  -22.1382 C   0  0  0  0  0  0  0  0  0  0  0  0
  -37.1185    4.2084  -24.9740 O   0  0  0  0  0  0  0  0  0  0  0  0
  -32.7064    3.7898  -17.6869 C   0  0  0  0  0  0  0  0  0  0  0  0
  -32.1092    8.0261  -17.7328 O   0  0  0  0  0  0  0  0  0  0  0  0
  -33.1122    7.3572  -17.9811 C   0  0  0  0  0  0  0  0  0  0  0  0
  -33.2957    5.1856  -19.2629 C   0  0  0  0  0  0  0  0  0  0  0  0
  -38.8463    3.6923  -23.1313 O   0  5  0  0  0  0  0  0  0  0  0  0
  -37.5145    5.5297  -22.7693 O   0  0  0  0  0  0  0  0  0  0  0  0
  1 17  1  0  0  0  0
  1 20  1  0  0  0  0
  2 15  1  1  0  0  0
  2  3  1  0  0  0  0
  2 11  1  0  0  0  0
  3  5  1  0  0  0  0
  4 16  1  6  0  0  0
  4 21  1  0  0  0  0
  4 22  2  0  0  0  0
  4 14  1  0  0  0  0
  5  1  1  1  0  0  0
  5  8  1  0  0  0  0
  6 17  2  0  0  0  0
  6 12  1  0  0  0  0
  8  7  1  1  0  0  0
  8 11  1  0  0  0  0
  9 19  1  0  0  0  0
 11 10  1  6  0  0  0
 12 20  2  0  0  0  0
 12 19  1  0  0  0  0
 13 20  1  0  0  0  0
 14 15  1  0  0  0  0
 18 19  2  0  0  0  0
M  CHG  1  21  -1
M  END
>  <CHROM.1>
-161.02647753,179.11854127,102.22692904,-170.28844226,-117.60347255,-34.78224136
4.17127944,-20.63070142,-0.43196569,0.84899517,-2.97400096

>  <Name>
ligand

>  <RI>
0

>  <Rbt.Current_Directory>
/home/itssahil/PROJECTS/Mol_Feturizer/Test_systems_manuscript/rnas/4xwf

>  <Rbt.Executable>
rbdock ($Id: //depot/dev/client3/rdock/2013.1/src/exe/rbdock.cxx#4 $)

>  <Rbt.Library>
libRbt.so (2013.1, Build901 2013/11/27)

>  <Rbt.Parameter_File>
/export/apps/rDock/src/rDock_2013.1_src/data/scripts/dock_solv.prm

>  <Rbt.Receptor>
prm/blind_docking_60.prm

>  <SCORE>
-12.328

>  <SCORE.INTER>
-14.9388

>  <SCORE.INTER.CONST>
1

>  <SCORE.INTER.POLAR>
0

>  <SCORE.INTER.ROT>
5

>  <SCORE.INTER.SOLV>
16.5635

>  <SCORE.INTER.VDW>
-22.4137

>  <SCORE.INTER.norm>
-0.679038

>  <SCORE.INTRA>
2.61082

>  <SCORE.INTRA.DIHEDRAL>
0.341647

>  <SCORE.INTRA.DIHEDRAL.0>
3.49807

>  <SCORE.INTRA.POLAR>
0

>  <SCORE.INTRA.POLAR.0>
0

>  <SCORE.INTRA.REPUL>
0

>  <SCORE.INTRA.REPUL.0>
0

>  <SCORE.INTRA.SOLV>
3.844

>  <SCORE.INTRA.SOLV.lig_0>
-73.062

>  <SCORE.INTRA.VDW>
0.517994

>  <SCORE.INTRA.VDW.0>
-1.83782

>  <SCORE.INTRA.norm>
0.118674

>  <SCORE.RESTR>
0

>  <SCORE.RESTR.CAVITY>
0

>  <SCORE.RESTR.norm>
0

>  <SCORE.SYSTEM>
0

>  <SCORE.SYSTEM.CONST>
0

>  <SCORE.SYSTEM.DIHEDRAL>
0

>  <SCORE.SYSTEM.SOLV>
0

>  <SCORE.SYSTEM.norm>
0

>  <SCORE.heavy>
22

>  <SCORE.norm>
-0.560365

>  <RMSD>
13.138

$$$$
ligand
 OpenBabel02271912143D
libRbt.so/2013.1/901 2013/11/27
 22 23  0  0  0  0  0  0  0  0999 V2000
  -33.1066    3.8789  -18.9571 N   0  0  0  0  0  0  0  0  0  0  0  0
  -34.3816    2.7252  -21.8719 C   0  0  1  0  0  0  0  0  0  0  0  0
  -33.2254    3.2778  -21.1807 O   0  0  0  0  0  0  0  0  0  0  0  0
  -37.4845    4.2157  -23.4330 P   0  0  1  0  0  0  0  0  0  0  0  0
  -33.2563    2.8140  -19.8212 C   0  0  2  0  0  0  0  0  0  0  0  0
  -32.6615    5.0232  -17.1673 N   0  0  0  0  0  0  0  0  0  0  0  0
  -34.6591    1.3456  -18.5675 O   0  0  0  0  0  0  0  0  0  0  0  0
  -34.6339    2.3086  -19.6275 C   0  0  2  0  0  0  0  0  0  0  0  0
  -34.3150    7.9919  -18.1473 N   0  0  0  0  0  0  0  0  0  0  0  0
  -34.3137    0.5007  -21.1362 O   0  0  0  0  0  0  0  0  0  0  0  0
  -34.9834    1.7559  -20.9304 C   0  0  2  0  0  0  0  0  0  0  0  0
  -33.0103    5.8820  -18.1376 C   0  0  0  0  0  0  0  0  0  0  0  0
  -33.6729    5.6964  -20.5230 N   0  0  0  0  0  0  0  0  0  0  0  0
  -36.4166    3.2838  -22.7622 O   0  0  0  0  0  0  0  0  0  0  0  0
  -35.3063    3.8590  -22.1539 C   0  0  0  0  0  0  0  0  0  0  0  0
  -37.0926    4.1736  -24.9545 O   0  0  0  0  0  0  0  0  0  0  0  0
  -32.7281    3.7788  -17.6776 C   0  0  0  0  0  0  0  0  0  0  0  0
  -32.0670    8.0086  -17.7840 O   0  0  0  0  0  0  0  0  0  0  0  0
  -33.0825    7.3488  -18.0044 C   0  0  0  0  0  0  0  0  0  0  0  0
  -33.2891    5.1690  -19.2687 C   0  0  0  0  0  0  0  0  0  0  0  0
  -38.8551    3.7073  -23.1315 O   0  5  0  0  0  0  0  0  0  0  0  0
  -37.5095    5.5366  -22.7793 O   0  0  0  0  0  0  0  0  0  0  0  0
  1 17  1  0  0  0  0
  1 20  1  0  0  0  0
  2 15  1  1  0  0  0
  2  3  1  0  0  0  0
  2 11  1  0  0  0  0
  3  5  1  0  0  0  0
  4 16  1  6  0  0  0
  4 21  1  0  0  0  0
  4 22  2  0  0  0  0
  4 14  1  0  0  0  0
  5  1  1  1  0  0  0
  5  8  1  0  0  0  0
  6 17  2  0  0  0  0
  6 12  1  0  0  0  0
  8  7  1  1  0  0  0
  8 11  1  0  0  0  0
  9 19  1  0  0  0  0
 11 10  1  6  0  0  0
 12 20  2  0  0  0  0
 12 19  1  0  0  0  0
 13 20  1  0  0  0  0
 14 15  1  0  0  0  0
 18 19  2  0  0  0  0
M  CHG  1  21  -1
M  END
>  <CHROM.1>
-160.69917293,-177.62758322,98.41688180,-168.97892896,-116.06508673,-34.78584816
4.16191829,-20.62785382,-0.41939154,0.85044687,-2.99293015

>  <Name>
ligand

>  <RI>
0

>  <Rbt.Current_Directory>
/home/itssahil/PROJECTS/Mol_Feturizer/Test_systems_manuscript/rnas/4xwf

>  <Rbt.Executable>
rbdock ($Id: //depot/dev/client3/rdock/2013.1/src/exe/rbdock.cxx#4 $)

>  <Rbt.Library>
libRbt.so (2013.1, Build901 2013/11/27)

>  <Rbt.Parameter_File>
/export/apps/rDock/src/rDock_2013.1_src/data/scripts/dock_solv.prm

>  <Rbt.Receptor>
prm/blind_docking_60.prm

>  <SCORE>
-12.327

>  <SCORE.INTER>
-14.9216

>  <SCORE.INTER.CONST>
1

>  <SCORE.INTER.POLAR>
0

>  <SCORE.INTER.ROT>
5

>  <SCORE.INTER.SOLV>
16.4758

>  <SCORE.INTER.VDW>
-22.373

>  <SCORE.INTER.norm>
-0.678253

>  <SCORE.INTRA>
2.59459

>  <SCORE.INTRA.DIHEDRAL>
0.295784

>  <SCORE.INTRA.DIHEDRAL.0>
3.49807

>  <SCORE.INTRA.POLAR>
0

>  <SCORE.INTRA.POLAR.0>
0

>  <SCORE.INTRA.REPUL>
0

>  <SCORE.INTRA.REPUL.0>
0

>  <SCORE.INTRA.SOLV>
3.82667

>  <SCORE.INTRA.SOLV.lig_0>
-73.062

>  <SCORE.INTRA.VDW>
0.533362

>  <SCORE.INTRA.VDW.0>
-1.83782

>  <SCORE.INTRA.norm>
0.117936

>  <SCORE.RESTR>
0

>  <SCORE.RESTR.CAVITY>
0

>  <SCORE.RESTR.norm>
0

>  <SCORE.SYSTEM>
0

>  <SCORE.SYSTEM.CONST>
0

>  <SCORE.SYSTEM.DIHEDRAL>
0

>  <SCORE.SYSTEM.SOLV>
0

>  <SCORE.SYSTEM.norm>
0

>  <SCORE.heavy>
22

>  <SCORE.norm>
-0.560317

>  <RMSD>
13.140

$$$$
ligand
 OpenBabel02271912143D
libRbt.so/2013.1/901 2013/11/27
 22 23  0  0  0  0  0  0  0  0999 V2000
  -33.1094    3.8930  -18.9803 N   0  0  0  0  0  0  0  0  0  0  0  0
  -34.3985    2.7653  -21.8991 C   0  0  1  0  0  0  0  0  0  0  0  0
  -33.2429    3.3235  -21.2114 O   0  0  0  0  0  0  0  0  0  0  0  0
  -37.5090    4.2569  -23.4489 P   0  0  1  0  0  0  0  0  0  0  0  0
  -33.2533    2.8390  -19.8588 C   0  0  2  0  0  0  0  0  0  0  0  0
  -32.6777    5.0143  -17.1727 N   0  0  0  0  0  0  0  0  0  0  0  0
  -34.6228    1.3327  -18.6132 O   0  0  0  0  0  0  0  0  0  0  0  0
  -34.6218    2.3117  -19.6588 C   0  0  2  0  0  0  0  0  0  0  0  0
  -34.3185    7.9975  -18.1306 N   0  0  0  0  0  0  0  0  0  0  0  0
  -34.2924    0.5312  -21.1977 O   0  0  0  0  0  0  0  0  0  0  0  0
  -34.9771    1.7737  -20.9662 C   0  0  2  0  0  0  0  0  0  0  0  0
  -33.0171    5.8855  -18.1352 C   0  0  0  0  0  0  0  0  0  0  0  0
  -33.6599    5.7306  -20.5281 N   0  0  0  0  0  0  0  0  0  0  0  0
  -36.4217    3.3192  -22.8187 O   0  0  0  0  0  0  0  0  0  0  0  0
  -35.3416    3.8902  -22.1546 C   0  0  0  0  0  0  0  0  0  0  0  0
  -37.1298    4.2718  -24.9742 O   0  0  0  0  0  0  0  0  0  0  0  0
  -32.7418    3.7763  -17.6990 C   0  0  0  0  0  0  0  0  0  0  0  0
  -32.0739    8.0060  -17.7463 O   0  0  0  0  0  0  0  0  0  0  0  0
  -33.0884    7.3507  -17.9843 C   0  0  0  0  0  0  0  0  0  0  0  0
  -33.2875    5.1871  -19.2773 C   0  0  0  0  0  0  0  0  0  0  0  0
  -38.8693    3.7181  -23.1535 O   0  5  0  0  0  0  0  0  0  0  0  0
  -37.5479    5.5546  -22.7509 O   0  0  0  0  0  0  0  0  0  0  0  0
  1 17  1  0  0  0  0
  1 20  1  0  0  0  0
  2 15  1  1  0  0  0
  2  3  1  0  0  0  0
  2 11  1  0  0  0  0
  3  5  1  0  0  0  0
  4 16  1  6  0  0  0
  4 21  1  0  0  0  0
  4 22  2  0  0  0  0
  4 14  1  0  0  0  0
  5  1  1  1  0  0  0
  5  8  1  0  0  0  0
  6 17  2  0  0  0  0
  6 12  1  0  0  0  0
  8  7  1  1  0  0  0
  8 11  1  0  0  0  0
  9 19  1  0  0  0  0
 11 10  1  6  0  0  0
 12 20  2  0  0  0  0
 12 19  1  0  0  0  0
 13 20  1  0  0  0  0
 14 15  1  0  0  0  0
 18 19  2  0  0  0  0
M  CHG  1  21  -1
M  END
>  <CHROM.1>
-162.09020816,179.55754096,100.92387099,-170.27923863,-116.11638782,-34.79379636
4.18405384,-20.64384977,-0.42275258,0.84720416,-2.97888295

>  <Name>
ligand

>  <RI>
0

>  <Rbt.Current_Directory>
/home/itssahil/PROJECTS/Mol_Feturizer/Test_systems_manuscript/rnas/4xwf

>  <Rbt.Executable>
rbdock ($Id: //depot/dev/client3/rdock/2013.1/src/exe/rbdock.cxx#4 $)

>  <Rbt.Library>
libRbt.so (2013.1, Build901 2013/11/27)

>  <Rbt.Parameter_File>
/export/apps/rDock/src/rDock_2013.1_src/data/scripts/dock_solv.prm

>  <Rbt.Receptor>
prm/blind_docking_80.prm

>  <SCORE>
-12.2872

>  <SCORE.INTER>
-14.8438

>  <SCORE.INTER.CONST>
1

>  <SCORE.INTER.POLAR>
0

>  <SCORE.INTER.ROT>
5

>  <SCORE.INTER.SOLV>
16.4368

>  <SCORE.INTER.VDW>
-22.3081

>  <SCORE.INTER.norm>
-0.674718

>  <SCORE.INTRA>
2.5566

>  <SCORE.INTRA.DIHEDRAL>
0.282897

>  <SCORE.INTRA.DIHEDRAL.0>
3.49807

>  <SCORE.INTRA.POLAR>
0

>  <SCORE.INTRA.POLAR.0>
0

>  <SCORE.INTRA.REPUL>
0

>  <SCORE.INTRA.REPUL.0>
0

>  <SCORE.INTRA.SOLV>
3.73239

>  <SCORE.INTRA.SOLV.lig_0>
-73.062

>  <SCORE.INTRA.VDW>
0.548956

>  <SCORE.INTRA.VDW.0>
-1.83782

>  <SCORE.INTRA.norm>
0.116209

>  <SCORE.RESTR>
0

>  <SCORE.RESTR.CAVITY>
0

>  <SCORE.RESTR.norm>
0

>  <SCORE.SYSTEM>
0

>  <SCORE.SYSTEM.CONST>
0

>  <SCORE.SYSTEM.DIHEDRAL>
0

>  <SCORE.SYSTEM.SOLV>
0

>  <SCORE.SYSTEM.norm>
0

>  <SCORE.heavy>
22

>  <SCORE.norm>
-0.558509

>  <RMSD>
13.154

$$$$
ligand
 OpenBabel02271912143D
libRbt.so/2013.1/901 2013/11/27
 22 23  0  0  0  0  0  0  0  0999 V2000
  -33.9964   -5.8931  -14.1538 N   0  0  0  0  0  0  0  0  0  0  0  0
  -34.5862   -3.4517  -16.4218 C   0  0  1  0  0  0  0  0  0  0  0  0
  -34.6661   -4.8717  -16.1103 O   0  0  0  0  0  0  0  0  0  0  0  0
  -33.3442   -3.8354  -19.2378 P   0  0  1  0  0  0  0  0  0  0  0  0
  -34.9004   -5.0050  -14.6990 C   0  0  2  0  0  0  0  0  0  0  0  0
  -32.4217   -6.7118  -12.9043 N   0  0  0  0  0  0  0  0  0  0  0  0
  -35.2599   -3.4855  -12.8941 O   0  0  0  0  0  0  0  0  0  0  0  0
  -34.5724   -3.6759  -14.1362 C   0  0  2  0  0  0  0  0  0  0  0  0
  -31.5961   -9.5399  -14.7121 N   0  0  0  0  0  0  0  0  0  0  0  0
  -36.4168   -2.6304  -15.2097 O   0  0  0  0  0  0  0  0  0  0  0  0
  -34.9844   -2.7485  -15.1828 C   0  0  2  0  0  0  0  0  0  0  0  0
  -32.8984   -7.6990  -13.6782 C   0  0  0  0  0  0  0  0  0  0  0  0
  -34.6688   -7.9068  -15.4062 N   0  0  0  0  0  0  0  0  0  0  0  0
  -32.8477   -4.0854  -17.7716 O   0  0  0  0  0  0  0  0  0  0  0  0
  -33.1702   -3.1617  -16.7835 C   0  0  0  0  0  0  0  0  0  0  0  0
  -32.8704   -5.1245  -20.0020 O   0  0  0  0  0  0  0  0  0  0  0  0
  -33.1017   -5.5893  -13.2063 C   0  0  0  0  0  0  0  0  0  0  0  0
  -32.7702   -9.8742  -12.7898 O   0  0  0  0  0  0  0  0  0  0  0  0
  -32.4267   -9.0962  -13.6796 C   0  0  0  0  0  0  0  0  0  0  0  0
  -33.8924   -7.1918  -14.4656 C   0  0  0  0  0  0  0  0  0  0  0  0
  -34.8215   -3.6221  -19.2383 O   0  5  0  0  0  0  0  0  0  0  0  0
  -32.8586   -2.5372  -19.7395 O   0  0  0  0  0  0  0  0  0  0  0  0
  1 17  1  0  0  0  0
  1 20  1  0  0  0  0
  2 15  1  1  0  0  0
  2  3  1  0  0  0  0
  2 11  1  0  0  0  0
  3  5  1  0  0  0  0
  4 16  1  6  0  0  0
  4 21  1  0  0  0  0
  4 22  2  0  0  0  0
  4 14  1  0  0  0  0
  5  1  1  1  0  0  0
  5  8  1  0  0  0  0
  6 17  2  0  0  0  0
  6 12  1  0  0  0  0
  8  7  1  1  0  0  0
  8 11  1  0  0  0  0
  9 19  1  0  0  0  0
 11 10  1  6  0  0  0
 12 20  2  0  0  0  0
 12 19  1  0  0  0  0
 13 20  1  0  0  0  0
 14 15  1  0  0  0  0
 18 19  2  0  0  0  0
M  CHG  1  21  -1
M  END
>  <CHROM.1>
118.70239593,52.55665872,-176.17766709,78.31700734,-103.20217065,-33.77267195
-5.20357478,-15.85931579,1.34958843,-1.03706494,2.12288500

>  <Name>
ligand

>  <RI>
0

>  <Rbt.Current_Directory>
/home/itssahil/PROJECTS/Mol_Feturizer/Test_systems_manuscript/rnas/4xwf

>  <Rbt.Executable>
rbdock ($Id: //depot/dev/client3/rdock/2013.1/src/exe/rbdock.cxx#4 $)

>  <Rbt.Library>
libRbt.so (2013.1, Build901 2013/11/27)

>  <Rbt.Parameter_File>
/export/apps/rDock/src/rDock_2013.1_src/data/scripts/dock_solv.prm

>  <Rbt.Receptor>
prm/blind_docking_40.prm

>  <SCORE>
-7.20066

>  <SCORE.INTER>
-11.168

>  <SCORE.INTER.CONST>
1

>  <SCORE.INTER.POLAR>
0

>  <SCORE.INTER.ROT>
5

>  <SCORE.INTER.SOLV>
13.9722

>  <SCORE.INTER.VDW>
-19.036

>  <SCORE.INTER.norm>
-0.507634

>  <SCORE.INTRA>
3.63524

>  <SCORE.INTRA.DIHEDRAL>
0.0676954

>  <SCORE.INTRA.DIHEDRAL.0>
3.49807

>  <SCORE.INTRA.POLAR>
0

>  <SCORE.INTRA.POLAR.0>
0

>  <SCORE.INTRA.REPUL>
0

>  <SCORE.INTRA.REPUL.0>
0

>  <SCORE.INTRA.SOLV>
2.37789

>  <SCORE.INTRA.SOLV.lig_0>
-73.062

>  <SCORE.INTRA.VDW>
2.41245

>  <SCORE.INTRA.VDW.0>
-1.83782

>  <SCORE.INTRA.norm>
0.165238

>  <SCORE.RESTR>
0.332048

>  <SCORE.RESTR.CAVITY>
0.332048

>  <SCORE.RESTR.norm>
0.0150931

>  <SCORE.SYSTEM>
0

>  <SCORE.SYSTEM.CONST>
0

>  <SCORE.SYSTEM.DIHEDRAL>
0

>  <SCORE.SYSTEM.SOLV>
0

>  <SCORE.SYSTEM.norm>
0

>  <SCORE.heavy>
22

>  <SCORE.norm>
-0.327303

>  <RMSD>
13.197

$$$$
ligand
 OpenBabel02271912143D
libRbt.so/2013.1/901 2013/11/27
 22 23  0  0  0  0  0  0  0  0999 V2000
  -33.0635    3.8473  -19.0465 N   0  0  0  0  0  0  0  0  0  0  0  0
  -34.4550    2.6859  -21.9044 C   0  0  1  0  0  0  0  0  0  0  0  0
  -33.2614    3.2069  -21.2535 O   0  0  0  0  0  0  0  0  0  0  0  0
  -37.4982    4.2776  -23.4822 P   0  0  1  0  0  0  0  0  0  0  0  0
  -33.2756    2.7719  -19.8842 C   0  0  2  0  0  0  0  0  0  0  0  0
  -32.6075    5.0056  -17.2685 N   0  0  0  0  0  0  0  0  0  0  0  0
  -34.7015    1.3844  -18.5660 O   0  0  0  0  0  0  0  0  0  0  0  0
  -34.6663    2.3243  -19.6463 C   0  0  2  0  0  0  0  0  0  0  0  0
  -32.0276    7.9207  -17.1428 N   0  0  0  0  0  0  0  0  0  0  0  0
  -34.4538    0.4756  -21.1241 O   0  0  0  0  0  0  0  0  0  0  0  0
  -35.0695    1.7597  -20.9283 C   0  0  2  0  0  0  0  0  0  0  0  0
  -32.7976    5.8585  -18.2868 C   0  0  0  0  0  0  0  0  0  0  0  0
  -33.3259    5.6528  -20.7039 N   0  0  0  0  0  0  0  0  0  0  0  0
  -36.4662    3.3107  -22.8049 O   0  0  0  0  0  0  0  0  0  0  0  0
  -35.3425    3.8489  -22.1873 C   0  0  0  0  0  0  0  0  0  0  0  0
  -37.0754    4.2507  -24.9958 O   0  0  0  0  0  0  0  0  0  0  0  0
  -32.7793    3.7567  -17.7421 C   0  0  0  0  0  0  0  0  0  0  0  0
  -33.2583    8.0344  -19.0554 O   0  0  0  0  0  0  0  0  0  0  0  0
  -32.7153    7.3287  -18.2056 C   0  0  0  0  0  0  0  0  0  0  0  0
  -33.0822    5.1364  -19.4106 C   0  0  0  0  0  0  0  0  0  0  0  0
  -38.8861    3.7962  -23.2176 O   0  5  0  0  0  0  0  0  0  0  0  0
  -37.5069    5.5881  -22.8076 O   0  0  0  0  0  0  0  0  0  0  0  0
  1 17  1  0  0  0  0
  1 20  1  0  0  0  0
  2 15  1  1  0  0  0
  2  3  1  0  0  0  0
  2 11  1  0  0  0  0
  3  5  1  0  0  0  0
  4 16  1  6  0  0  0
  4 21  1  0  0  0  0
  4 22  2  0  0  0  0
  4 14  1  0  0  0  0
  5  1  1  1  0  0  0
  5  8  1  0  0  0  0
  6 17  2  0  0  0  0
  6 12  1  0  0  0  0
  8  7  1  1  0  0  0
  8 11  1  0  0  0  0
  9 19  1  0  0  0  0
 11 10  1  6  0  0  0
 12 20  2  0  0  0  0
 12 19  1  0  0  0  0
 13 20  1  0  0  0  0
 14 15  1  0  0  0  0
 18 19  2  0  0  0  0
M  CHG  1  21  -1
M  END
>  <CHROM.1>
-167.32067633,-179.94330009,97.15830818,-168.79020681,19.88267932,-34.72545416
4.16465727,-20.70605565,-0.30689401,0.85080033,-3.12295062

>  <Name>
ligand

>  <RI>
0

>  <Rbt.Current_Directory>
/home/itssahil/PROJECTS/Mol_Feturizer/Test_systems_manuscript/rnas/4xwf

>  <Rbt.Executable>
rbdock ($Id: //depot/dev/client3/rdock/2013.1/src/exe/rbdock.cxx#4 $)

>  <Rbt.Library>
libRbt.so (2013.1, Build901 2013/11/27)

>  <Rbt.Parameter_File>
/export/apps/rDock/src/rDock_2013.1_src/data/scripts/dock_solv.prm

>  <Rbt.Receptor>
prm/blind_docking_100.prm

>  <SCORE>
-11.0052

>  <SCORE.INTER>
-13.7466

>  <SCORE.INTER.CONST>
1

>  <SCORE.INTER.POLAR>
0

>  <SCORE.INTER.ROT>
5

>  <SCORE.INTER.SOLV>
17.1106

>  <SCORE.INTER.VDW>
-21.8013

>  <SCORE.INTER.norm>
-0.624846

>  <SCORE.INTRA>
2.71591

>  <SCORE.INTRA.DIHEDRAL>
0.612768

>  <SCORE.INTRA.DIHEDRAL.0>
3.49807

>  <SCORE.INTRA.POLAR>
0

>  <SCORE.INTRA.POLAR.0>
0

>  <SCORE.INTRA.REPUL>
0

>  <SCORE.INTRA.REPUL.0>
0

>  <SCORE.INTRA.SOLV>
3.34887

>  <SCORE.INTRA.SOLV.lig_0>
-73.062

>  <SCORE.INTRA.VDW>
0.735096

>  <SCORE.INTRA.VDW.0>
-1.83782

>  <SCORE.INTRA.norm>
0.123451

>  <SCORE.RESTR>
0.0254791

>  <SCORE.RESTR.CAVITY>
0.0254791

>  <SCORE.RESTR.norm>
0.00115814

>  <SCORE.SYSTEM>
0

>  <SCORE.SYSTEM.CONST>
0

>  <SCORE.SYSTEM.DIHEDRAL>
0

>  <SCORE.SYSTEM.SOLV>
0

>  <SCORE.SYSTEM.norm>
0

>  <SCORE.heavy>
22

>  <SCORE.norm>
-0.500237

>  <RMSD>
13.198

$$$$
ligand
 OpenBabel02271912143D
libRbt.so/2013.1/901 2013/11/27
 22 23  0  0  0  0  0  0  0  0999 V2000
  -34.1793   -5.8269  -14.0699 N   0  0  0  0  0  0  0  0  0  0  0  0
  -34.7051   -3.3667  -16.3335 C   0  0  1  0  0  0  0  0  0  0  0  0
  -34.8297   -4.7834  -16.0213 O   0  0  0  0  0  0  0  0  0  0  0  0
  -33.4561   -4.0130  -19.0907 P   0  0  1  0  0  0  0  0  0  0  0  0
  -35.0575   -4.9092  -14.6083 C   0  0  2  0  0  0  0  0  0  0  0  0
  -32.5491   -6.6752  -12.9150 N   0  0  0  0  0  0  0  0  0  0  0  0
  -35.3526   -3.3789  -12.8007 O   0  0  0  0  0  0  0  0  0  0  0  0
  -34.6813   -3.5918  -14.0480 C   0  0  2  0  0  0  0  0  0  0  0  0
  -33.8029  -10.0085  -12.9153 N   0  0  0  0  0  0  0  0  0  0  0  0
  -36.4981   -2.4855  -15.1074 O   0  0  0  0  0  0  0  0  0  0  0  0
  -35.0703   -2.6510  -15.0914 C   0  0  2  0  0  0  0  0  0  0  0  0
  -33.1999   -7.6797  -13.5216 C   0  0  0  0  0  0  0  0  0  0  0  0
  -35.1719   -7.8747  -15.0171 N   0  0  0  0  0  0  0  0  0  0  0  0
  -32.9627   -4.1331  -17.6072 O   0  0  0  0  0  0  0  0  0  0  0  0
  -33.2831   -3.1238  -16.7059 C   0  0  0  0  0  0  0  0  0  0  0  0
  -33.3093   -5.4792  -19.6377 O   0  0  0  0  0  0  0  0  0  0  0  0
  -33.1561   -5.5244  -13.2624 C   0  0  0  0  0  0  0  0  0  0  0  0
  -31.7489   -9.5160  -13.7664 O   0  0  0  0  0  0  0  0  0  0  0  0
  -32.8590   -9.1110  -13.4220 C   0  0  0  0  0  0  0  0  0  0  0  0
  -34.2297   -7.1537  -14.2483 C   0  0  0  0  0  0  0  0  0  0  0  0
  -34.8497   -3.4789  -19.1149 O   0  5  0  0  0  0  0  0  0  0  0  0
  -32.7210   -2.9513  -19.8014 O   0  0  0  0  0  0  0  0  0  0  0  0
  1 17  1  0  0  0  0
  1 20  1  0  0  0  0
  2 15  1  1  0  0  0
  2  3  1  0  0  0  0
  2 11  1  0  0  0  0
  3  5  1  0  0  0  0
  4 16  1  6  0  0  0
  4 21  1  0  0  0  0
  4 22  2  0  0  0  0
  4 14  1  0  0  0  0
  5  1  1  1  0  0  0
  5  8  1  0  0  0  0
  6 17  2  0  0  0  0
  6 12  1  0  0  0  0
  8  7  1  1  0  0  0
  8 11  1  0  0  0  0
  9 19  1  0  0  0  0
 11 10  1  6  0  0  0
 12 20  2  0  0  0  0
 12 19  1  0  0  0  0
 13 20  1  0  0  0  0
 14 15  1  0  0  0  0
 18 19  2  0  0  0  0
M  CHG  1  21  -1
M  END
>  <CHROM.1>
109.50103931,47.32112609,-162.81771373,77.73320942,120.36501650,-33.96460917
-5.21342028,-15.71578548,1.40790359,-1.06868215,2.16674053

>  <Name>
ligand

>  <RI>
0

>  <Rbt.Current_Directory>
/home/itssahil/PROJECTS/Mol_Feturizer/Test_systems_manuscript/rnas/4xwf

>  <Rbt.Executable>
rbdock ($Id: //depot/dev/client3/rdock/2013.1/src/exe/rbdock.cxx#4 $)

>  <Rbt.Library>
libRbt.so (2013.1, Build901 2013/11/27)

>  <Rbt.Parameter_File>
/export/apps/rDock/src/rDock_2013.1_src/data/scripts/dock_solv.prm

>  <Rbt.Receptor>
prm/blind_docking_40.prm

>  <SCORE>
-6.50744

>  <SCORE.INTER>
-10.8652

>  <SCORE.INTER.CONST>
1

>  <SCORE.INTER.POLAR>
0

>  <SCORE.INTER.ROT>
5

>  <SCORE.INTER.SOLV>
12.1479

>  <SCORE.INTER.VDW>
-18.2261

>  <SCORE.INTER.norm>
-0.493875

>  <SCORE.INTRA>
4.04976

>  <SCORE.INTRA.DIHEDRAL>
0.406615

>  <SCORE.INTRA.DIHEDRAL.0>
3.49807

>  <SCORE.INTRA.POLAR>
0

>  <SCORE.INTRA.POLAR.0>
0

>  <SCORE.INTRA.REPUL>
0

>  <SCORE.INTRA.REPUL.0>
0

>  <SCORE.INTRA.SOLV>
2.2687

>  <SCORE.INTRA.SOLV.lig_0>
-73.062

>  <SCORE.INTRA.VDW>
2.7121

>  <SCORE.INTRA.VDW.0>
-1.83782

>  <SCORE.INTRA.norm>
0.18408

>  <SCORE.RESTR>
0.308048

>  <SCORE.RESTR.CAVITY>
0.308048

>  <SCORE.RESTR.norm>
0.0140022

>  <SCORE.SYSTEM>
0

>  <SCORE.SYSTEM.CONST>
0

>  <SCORE.SYSTEM.DIHEDRAL>
0

>  <SCORE.SYSTEM.SOLV>
0

>  <SCORE.SYSTEM.norm>
0

>  <SCORE.heavy>
22

>  <SCORE.norm>
-0.295793

>  <RMSD>
13.207

$$$$
ligand
 OpenBabel02271912143D
libRbt.so/2013.1/901 2013/11/27
 22 23  0  0  0  0  0  0  0  0999 V2000
  -34.0864   -5.9368  -14.0835 N   0  0  0  0  0  0  0  0  0  0  0  0
  -34.6798   -3.4801  -16.3341 C   0  0  1  0  0  0  0  0  0  0  0  0
  -34.7657   -4.9012  -16.0293 O   0  0  0  0  0  0  0  0  0  0  0  0
  -33.2821   -3.9294  -19.1491 P   0  0  1  0  0  0  0  0  0  0  0  0
  -34.9894   -5.0405  -14.6169 C   0  0  2  0  0  0  0  0  0  0  0  0
  -32.5088   -6.7721  -12.8488 N   0  0  0  0  0  0  0  0  0  0  0  0
  -35.3254   -3.5283  -12.8013 O   0  0  0  0  0  0  0  0  0  0  0  0
  -34.6490   -3.7163  -14.0499 C   0  0  2  0  0  0  0  0  0  0  0  0
  -31.7127   -9.5916  -14.6893 N   0  0  0  0  0  0  0  0  0  0  0  0
  -36.4957   -2.6544  -15.1031 O   0  0  0  0  0  0  0  0  0  0  0  0
  -35.0639   -2.7810  -15.0882 C   0  0  2  0  0  0  0  0  0  0  0  0
  -32.9936   -7.7510  -13.6282 C   0  0  0  0  0  0  0  0  0  0  0  0
  -34.7736   -7.9374  -15.3488 N   0  0  0  0  0  0  0  0  0  0  0  0
  -32.9294   -4.1700  -17.6403 O   0  0  0  0  0  0  0  0  0  0  0  0
  -33.2650   -3.1966  -16.7056 C   0  0  0  0  0  0  0  0  0  0  0  0
  -34.8066   -3.5494  -19.1052 O   0  0  0  0  0  0  0  0  0  0  0  0
  -33.1856   -5.6444  -13.1382 C   0  0  0  0  0  0  0  0  0  0  0  0
  -32.8627   -9.9315  -12.7534 O   0  0  0  0  0  0  0  0  0  0  0  0
  -32.5277   -9.1501  -13.6434 C   0  0  0  0  0  0  0  0  0  0  0  0
  -33.9895   -7.2333  -14.4064 C   0  0  0  0  0  0  0  0  0  0  0  0
  -32.3946   -2.8681  -19.7094 O   0  5  0  0  0  0  0  0  0  0  0  0
  -32.9008   -5.0949  -19.9669 O   0  0  0  0  0  0  0  0  0  0  0  0
  1 17  1  0  0  0  0
  1 20  1  0  0  0  0
  2 15  1  1  0  0  0
  2  3  1  0  0  0  0
  2 11  1  0  0  0  0
  3  5  1  0  0  0  0
  4 16  1  6  0  0  0
  4 21  1  0  0  0  0
  4 22  2  0  0  0  0
  4 14  1  0  0  0  0
  5  1  1  1  0  0  0
  5  8  1  0  0  0  0
  6 17  2  0  0  0  0
  6 12  1  0  0  0  0
  8  7  1  1  0  0  0
  8 11  1  0  0  0  0
  9 19  1  0  0  0  0
 11 10  1  6  0  0  0
 12 20  2  0  0  0  0
 12 19  1  0  0  0  0
 13 20  1  0  0  0  0
 14 15  1  0  0  0  0
 18 19  2  0  0  0  0
M  CHG  1  21  -1
M  END
>  <CHROM.1>
118.96034531,48.93193916,-51.25178862,85.08138681,-103.69338142,-33.81351725
-5.25733414,-15.78579072,1.40946340,-1.01833828,2.16949149

>  <Name>
ligand

>  <RI>
0

>  <Rbt.Current_Directory>
/home/itssahil/PROJECTS/Mol_Feturizer/Test_systems_manuscript/rnas/4xwf

>  <Rbt.Executable>
rbdock ($Id: //depot/dev/client3/rdock/2013.1/src/exe/rbdock.cxx#4 $)

>  <Rbt.Library>
libRbt.so (2013.1, Build901 2013/11/27)

>  <Rbt.Parameter_File>
/export/apps/rDock/src/rDock_2013.1_src/data/scripts/dock_solv.prm

>  <Rbt.Receptor>
prm/blind_docking_40.prm

>  <SCORE>
-6.26752

>  <SCORE.INTER>
-10.0261

>  <SCORE.INTER.CONST>
1

>  <SCORE.INTER.POLAR>
0

>  <SCORE.INTER.ROT>
5

>  <SCORE.INTER.SOLV>
15.6317

>  <SCORE.INTER.VDW>
-18.828

>  <SCORE.INTER.norm>
-0.455732

>  <SCORE.INTRA>
3.49198

>  <SCORE.INTRA.DIHEDRAL>
1.50278

>  <SCORE.INTRA.DIHEDRAL.0>
3.49807

>  <SCORE.INTRA.POLAR>
0

>  <SCORE.INTRA.POLAR.0>
0

>  <SCORE.INTRA.REPUL>
0

>  <SCORE.INTRA.REPUL.0>
0

>  <SCORE.INTRA.SOLV>
0.192235

>  <SCORE.INTRA.SOLV.lig_0>
-73.062

>  <SCORE.INTRA.VDW>
2.64447

>  <SCORE.INTRA.VDW.0>
-1.83782

>  <SCORE.INTRA.norm>
0.158726

>  <SCORE.RESTR>
0.2666

>  <SCORE.RESTR.CAVITY>
0.2666

>  <SCORE.RESTR.norm>
0.0121182

>  <SCORE.SYSTEM>
0

>  <SCORE.SYSTEM.CONST>
0

>  <SCORE.SYSTEM.DIHEDRAL>
0

>  <SCORE.SYSTEM.SOLV>
0

>  <SCORE.SYSTEM.norm>
0

>  <SCORE.heavy>
22

>  <SCORE.norm>
-0.284887

>  <RMSD>
13.216

$$$$
ligand
 OpenBabel02271912143D
libRbt.so/2013.1/901 2013/11/27
 22 23  0  0  0  0  0  0  0  0999 V2000
  -35.2556   -5.7992  -14.8894 N   0  0  0  0  0  0  0  0  0  0  0  0
  -35.3687   -2.7524  -16.3580 C   0  0  1  0  0  0  0  0  0  0  0  0
  -35.8706   -4.1191  -16.3450 O   0  0  0  0  0  0  0  0  0  0  0  0
  -32.9547   -3.7923  -19.0869 P   0  0  1  0  0  0  0  0  0  0  0  0
  -35.8846   -4.5749  -14.9825 C   0  0  2  0  0  0  0  0  0  0  0  0
  -34.1393   -7.5799  -15.4315 N   0  0  0  0  0  0  0  0  0  0  0  0
  -35.3831   -3.5924  -12.8661 O   0  0  0  0  0  0  0  0  0  0  0  0
  -35.0308   -3.6096  -14.2544 C   0  0  2  0  0  0  0  0  0  0  0  0
  -34.9921   -9.3517  -12.4216 N   0  0  0  0  0  0  0  0  0  0  0  0
  -36.5678   -1.8250  -14.5702 O   0  0  0  0  0  0  0  0  0  0  0  0
  -35.2799   -2.3466  -14.9383 C   0  0  2  0  0  0  0  0  0  0  0  0
  -34.4093   -7.6383  -14.1183 C   0  0  0  0  0  0  0  0  0  0  0  0
  -35.5674   -6.1822  -12.4745 N   0  0  0  0  0  0  0  0  0  0  0  0
  -34.1779   -3.5873  -18.1276 O   0  0  0  0  0  0  0  0  0  0  0  0
  -34.0253   -2.7854  -17.0017 C   0  0  0  0  0  0  0  0  0  0  0  0
  -32.9428   -2.4725  -19.9405 O   0  0  0  0  0  0  0  0  0  0  0  0
  -34.6717   -6.4390  -15.9093 C   0  0  0  0  0  0  0  0  0  0  0  0
  -32.8418   -9.0823  -13.1210 O   0  0  0  0  0  0  0  0  0  0  0  0
  -34.0177   -8.7289  -13.2063 C   0  0  0  0  0  0  0  0  0  0  0  0
  -35.1095   -6.5189  -13.7689 C   0  0  0  0  0  0  0  0  0  0  0  0
  -31.7184   -4.0215  -18.2825 O   0  5  0  0  0  0  0  0  0  0  0  0
  -33.0717   -5.0670  -19.8176 O   0  0  0  0  0  0  0  0  0  0  0  0
  1 17  1  0  0  0  0
  1 20  1  0  0  0  0
  2 15  1  1  0  0  0
  2  3  1  0  0  0  0
  2 11  1  0  0  0  0
  3  5  1  0  0  0  0
  4 16  1  6  0  0  0
  4 21  1  0  0  0  0
  4 22  2  0  0  0  0
  4 14  1  0  0  0  0
  5  1  1  6  0  0  0
  5  8  1  0  0  0  0
  6 17  2  0  0  0  0
  6 12  1  0  0  0  0
  8  7  1  1  0  0  0
  8 11  1  0  0  0  0
  9 19  1  0  0  0  0
 11 10  1  1  0  0  0
 12 20  2  0  0  0  0
 12 19  1  0  0  0  0
 13 20  1  0  0  0  0
 14 15  1  0  0  0  0
 18 19  2  0  0  0  0
M  CHG  1  21  -1
M  END
>  <CHROM.1>
2.53464380,45.23338004,-79.43369299,177.44545215,-126.65357058,-34.39954879
-4.94290996,-15.81342422,1.88488559,-0.96860339,2.49573371

>  <Name>
ligand

>  <RI>
0

>  <Rbt.Current_Directory>
/home/itssahil/PROJECTS/Mol_Feturizer/Test_systems_manuscript/rnas/4xwf

>  <Rbt.Executable>
rbdock ($Id: //depot/dev/client3/rdock/2013.1/src/exe/rbdock.cxx#4 $)

>  <Rbt.Library>
libRbt.so (2013.1, Build901 2013/11/27)

>  <Rbt.Parameter_File>
/export/apps/rDock/src/rDock_2013.1_src/data/scripts/dock_solv.prm

>  <Rbt.Receptor>
prm/blind_docking_40.prm

>  <SCORE>
-2.81739

>  <SCORE.INTER>
-3.73177

>  <SCORE.INTER.CONST>
1

>  <SCORE.INTER.POLAR>
0

>  <SCORE.INTER.ROT>
5

>  <SCORE.INTER.SOLV>
17.206

>  <SCORE.INTER.VDW>
-15.1565

>  <SCORE.INTER.norm>
-0.169626

>  <SCORE.INTRA>
0.862238

>  <SCORE.INTRA.DIHEDRAL>
-0.567438

>  <SCORE.INTRA.DIHEDRAL.0>
3.49807

>  <SCORE.INTRA.POLAR>
0

>  <SCORE.INTRA.POLAR.0>
0

>  <SCORE.INTRA.REPUL>
0

>  <SCORE.INTRA.REPUL.0>
0

>  <SCORE.INTRA.SOLV>
1.41244

>  <SCORE.INTRA.SOLV.lig_0>
-73.062

>  <SCORE.INTRA.VDW>
0.439737

>  <SCORE.INTRA.VDW.0>
-1.83782

>  <SCORE.INTRA.norm>
0.0391926

>  <SCORE.RESTR>
0.0521422

>  <SCORE.RESTR.CAVITY>
0.0521422

>  <SCORE.RESTR.norm>
0.0023701

>  <SCORE.SYSTEM>
0

>  <SCORE.SYSTEM.CONST>
0

>  <SCORE.SYSTEM.DIHEDRAL>
0

>  <SCORE.SYSTEM.SOLV>
0

>  <SCORE.SYSTEM.norm>
0

>  <SCORE.heavy>
22

>  <SCORE.norm>
-0.128063

>  <RMSD>
13.231

$$$$
ligand
 OpenBabel02271912143D
libRbt.so/2013.1/901 2013/11/27
 22 23  0  0  0  0  0  0  0  0999 V2000
  -33.9776   -5.9146  -14.1342 N   0  0  0  0  0  0  0  0  0  0  0  0
  -34.6302   -3.5352  -16.4504 C   0  0  1  0  0  0  0  0  0  0  0  0
  -34.6988   -4.9466  -16.0995 O   0  0  0  0  0  0  0  0  0  0  0  0
  -33.1402   -4.1752  -19.2317 P   0  0  1  0  0  0  0  0  0  0  0  0
  -34.8972   -5.0429  -14.6798 C   0  0  2  0  0  0  0  0  0  0  0  0
  -32.3922   -6.7061  -12.8809 N   0  0  0  0  0  0  0  0  0  0  0  0
  -35.2152   -3.4767  -12.9072 O   0  0  0  0  0  0  0  0  0  0  0  0
  -34.5586   -3.6988  -14.1607 C   0  0  2  0  0  0  0  0  0  0  0  0
  -31.5576   -9.5293  -14.7331 N   0  0  0  0  0  0  0  0  0  0  0  0
  -36.4319   -2.6855  -15.2148 O   0  0  0  0  0  0  0  0  0  0  0  0
  -34.9990   -2.8001  -15.2207 C   0  0  2  0  0  0  0  0  0  0  0  0
  -32.8449   -7.6995  -13.6612 C   0  0  0  0  0  0  0  0  0  0  0  0
  -34.6026   -7.9362  -15.3984 N   0  0  0  0  0  0  0  0  0  0  0  0
  -32.8659   -4.3023  -17.6932 O   0  0  0  0  0  0  0  0  0  0  0  0
  -33.2244   -3.2522  -16.8550 C   0  0  0  0  0  0  0  0  0  0  0  0
  -32.5202   -5.4956  -19.8172 O   0  0  0  0  0  0  0  0  0  0  0  0
  -33.0937   -5.5966  -13.1812 C   0  0  0  0  0  0  0  0  0  0  0  0
  -32.6263   -9.8577  -12.7493 O   0  0  0  0  0  0  0  0  0  0  0  0
  -32.3445   -9.0867  -13.6664 C   0  0  0  0  0  0  0  0  0  0  0  0
  -33.8455   -7.2095  -14.4511 C   0  0  0  0  0  0  0  0  0  0  0  0
  -34.6055   -4.0198  -19.4696 O   0  5  0  0  0  0  0  0  0  0  0  0
  -32.6199   -2.8977  -19.7513 O   0  0  0  0  0  0  0  0  0  0  0  0
  1 17  1  0  0  0  0
  1 20  1  0  0  0  0
  2 15  1  1  0  0  0
  2  3  1  0  0  0  0
  2 11  1  0  0  0  0
  3  5  1  0  0  0  0
  4 16  1  6  0  0  0
  4 21  1  0  0  0  0
  4 22  2  0  0  0  0
  4 14  1  0  0  0  0
  5  1  1  1  0  0  0
  5  8  1  0  0  0  0
  6 17  2  0  0  0  0
  6 12  1  0  0  0  0
  8  7  1  1  0  0  0
  8 11  1  0  0  0  0
  9 19  1  0  0  0  0
 11 10  1  6  0  0  0
 12 20  2  0  0  0  0
 12 19  1  0  0  0  0
 13 20  1  0  0  0  0
 14 15  1  0  0  0  0
 18 19  2  0  0  0  0
M  CHG  1  21  -1
M  END
>  <CHROM.1>
121.37311224,44.98695235,176.50798451,89.24953766,-106.54592146,-33.69887714
-5.31975429,-15.85822798,1.37571956,-1.01831069,2.11068646

>  <Name>
ligand

>  <RI>
0

>  <Rbt.Current_Directory>
/home/itssahil/PROJECTS/Mol_Feturizer/Test_systems_manuscript/rnas/4xwf

>  <Rbt.Executable>
rbdock ($Id: //depot/dev/client3/rdock/2013.1/src/exe/rbdock.cxx#4 $)

>  <Rbt.Library>
libRbt.so (2013.1, Build901 2013/11/27)

>  <Rbt.Parameter_File>
/export/apps/rDock/src/rDock_2013.1_src/data/scripts/dock_solv.prm

>  <Rbt.Receptor>
prm/blind_docking_40.prm

>  <SCORE>
-6.96367

>  <SCORE.INTER>
-11.5217

>  <SCORE.INTER.CONST>
1

>  <SCORE.INTER.POLAR>
0

>  <SCORE.INTER.ROT>
5

>  <SCORE.INTER.SOLV>
14.9506

>  <SCORE.INTER.VDW>
-19.598

>  <SCORE.INTER.norm>
-0.523715

>  <SCORE.INTRA>
4.45487

>  <SCORE.INTRA.DIHEDRAL>
2.4618

>  <SCORE.INTRA.DIHEDRAL.0>
3.49807

>  <SCORE.INTRA.POLAR>
0

>  <SCORE.INTRA.POLAR.0>
0

>  <SCORE.INTRA.REPUL>
0

>  <SCORE.INTRA.REPUL.0>
0

>  <SCORE.INTRA.SOLV>
2.06387

>  <SCORE.INTRA.SOLV.lig_0>
-73.062

>  <SCORE.INTRA.VDW>
2.19204

>  <SCORE.INTRA.VDW.0>
-1.83782

>  <SCORE.INTRA.norm>
0.202494

>  <SCORE.RESTR>
0.103181

>  <SCORE.RESTR.CAVITY>
0.103181

>  <SCORE.RESTR.norm>
0.00469006

>  <SCORE.SYSTEM>
0

>  <SCORE.SYSTEM.CONST>
0

>  <SCORE.SYSTEM.DIHEDRAL>
0

>  <SCORE.SYSTEM.SOLV>
0

>  <SCORE.SYSTEM.norm>
0

>  <SCORE.heavy>
22

>  <SCORE.norm>
-0.316531

>  <RMSD>
13.249

$$$$
ligand
 OpenBabel02271912143D
libRbt.so/2013.1/901 2013/11/27
 22 23  0  0  0  0  0  0  0  0999 V2000
  -33.2919    6.8287  -20.0854 N   0  0  0  0  0  0  0  0  0  0  0  0
  -33.2731    3.5390  -20.8793 C   0  0  1  0  0  0  0  0  0  0  0  0
  -33.0825    4.9061  -21.3423 O   0  0  0  0  0  0  0  0  0  0  0  0
  -36.7700    3.5507  -22.3340 P   0  0  1  0  0  0  0  0  0  0  0  0
  -32.5526    5.6757  -20.2508 C   0  0  2  0  0  0  0  0  0  0  0  0
  -34.9278    8.1638  -19.5831 N   0  0  0  0  0  0  0  0  0  0  0  0
  -31.8725    5.1922  -18.0149 O   0  0  0  0  0  0  0  0  0  0  0  0
  -32.7989    4.8451  -19.0507 C   0  0  2  0  0  0  0  0  0  0  0  0
  -34.9912   11.1100  -19.6846 N   0  0  0  0  0  0  0  0  0  0  0  0
  -31.2570    3.1737  -19.7407 O   0  0  0  0  0  0  0  0  0  0  0  0
  -32.6470    3.4805  -19.5403 C   0  0  2  0  0  0  0  0  0  0  0  0
  -33.8912    8.9085  -19.9972 C   0  0  0  0  0  0  0  0  0  0  0  0
  -31.5740    8.4597  -20.7670 N   0  0  0  0  0  0  0  0  0  0  0  0
  -35.2232    3.5860  -22.0797 O   0  0  0  0  0  0  0  0  0  0  0  0
  -34.7423    3.3023  -20.8061 C   0  0  0  0  0  0  0  0  0  0  0  0
  -36.8794    3.6626  -23.8979 O   0  0  0  0  0  0  0  0  0  0  0  0
  -34.5547    6.8713  -19.6448 C   0  0  0  0  0  0  0  0  0  0  0  0
  -32.8912   10.9648  -20.5532 O   0  0  0  0  0  0  0  0  0  0  0  0
  -33.8734   10.3797  -20.0971 C   0  0  0  0  0  0  0  0  0  0  0  0
  -32.8562    8.0750  -20.3124 C   0  0  0  0  0  0  0  0  0  0  0  0
  -37.3449    2.2983  -21.7603 O   0  5  0  0  0  0  0  0  0  0  0  0
  -37.4546    4.5826  -21.5345 O   0  0  0  0  0  0  0  0  0  0  0  0
  1 17  1  0  0  0  0
  1 20  1  0  0  0  0
  2 15  1  1  0  0  0
  2  3  1  0  0  0  0
  2 11  1  0  0  0  0
  3  5  1  0  0  0  0
  4 16  1  6  0  0  0
  4 21  1  0  0  0  0
  4 22  2  0  0  0  0
  4 14  1  0  0  0  0
  5  1  1  1  0  0  0
  5  8  1  0  0  0  0
  6 17  2  0  0  0  0
  6 12  1  0  0  0  0
  8  7  1  1  0  0  0
  8 11  1  0  0  0  0
  9 19  1  0  0  0  0
 11 10  1  6  0  0  0
 12 20  2  0  0  0  0
 12 19  1  0  0  0  0
 13 20  1  0  0  0  0
 14 15  1  0  0  0  0
 18 19  2  0  0  0  0
M  CHG  1  21  -1
M  END
>  <CHROM.1>
69.04316787,56.03875853,-170.26421172,-175.14578607,2.82014185,-34.21817886
5.75369519,-20.68372489,-1.10536505,0.49400558,-3.05563960

>  <Name>
ligand

>  <RI>
0

>  <Rbt.Current_Directory>
/home/itssahil/PROJECTS/Mol_Feturizer/Test_systems_manuscript/rnas/4xwf

>  <Rbt.Executable>
rbdock ($Id: //depot/dev/client3/rdock/2013.1/src/exe/rbdock.cxx#4 $)

>  <Rbt.Library>
libRbt.so (2013.1, Build901 2013/11/27)

>  <Rbt.Parameter_File>
/export/apps/rDock/src/rDock_2013.1_src/data/scripts/dock_solv.prm

>  <Rbt.Receptor>
prm/blind_docking_80.prm

>  <SCORE>
-10.4

>  <SCORE.INTER>
-9.87294

>  <SCORE.INTER.CONST>
1

>  <SCORE.INTER.POLAR>
0

>  <SCORE.INTER.ROT>
5

>  <SCORE.INTER.SOLV>
14.2606

>  <SCORE.INTER.VDW>
-18.2688

>  <SCORE.INTER.norm>
-0.44877

>  <SCORE.INTRA>
-0.527018

>  <SCORE.INTRA.DIHEDRAL>
-1.66798

>  <SCORE.INTRA.DIHEDRAL.0>
3.49807

>  <SCORE.INTRA.POLAR>
0

>  <SCORE.INTRA.POLAR.0>
0

>  <SCORE.INTRA.REPUL>
0

>  <SCORE.INTRA.REPUL.0>
0

>  <SCORE.INTRA.SOLV>
-0.366257

>  <SCORE.INTRA.SOLV.lig_0>
-73.062

>  <SCORE.INTRA.VDW>
0.490102

>  <SCORE.INTRA.VDW.0>
-1.83782

>  <SCORE.INTRA.norm>
-0.0239554

>  <SCORE.RESTR>
0

>  <SCORE.RESTR.CAVITY>
0

>  <SCORE.RESTR.norm>
0

>  <SCORE.SYSTEM>
0

>  <SCORE.SYSTEM.CONST>
0

>  <SCORE.SYSTEM.DIHEDRAL>
0

>  <SCORE.SYSTEM.SOLV>
0

>  <SCORE.SYSTEM.norm>
0

>  <SCORE.heavy>
22

>  <SCORE.norm>
-0.472725

>  <RMSD>
13.251

$$$$
ligand
 OpenBabel02271912143D
libRbt.so/2013.1/901 2013/11/27
 22 23  0  0  0  0  0  0  0  0999 V2000
  -33.4243    6.8897  -19.6689 N   0  0  0  0  0  0  0  0  0  0  0  0
  -33.3130    3.7470  -20.9193 C   0  0  1  0  0  0  0  0  0  0  0  0
  -33.1482    5.1698  -21.1807 O   0  0  0  0  0  0  0  0  0  0  0  0
  -36.7448    3.6583  -22.5213 P   0  0  1  0  0  0  0  0  0  0  0  0
  -32.6548    5.7882  -19.9813 C   0  0  2  0  0  0  0  0  0  0  0  0
  -34.5543    8.3461  -18.5230 N   0  0  0  0  0  0  0  0  0  0  0  0
  -31.9992    5.0075  -17.8234 O   0  0  0  0  0  0  0  0  0  0  0  0
  -32.9001    4.7907  -18.9156 C   0  0  2  0  0  0  0  0  0  0  0  0
  -35.5898   10.9631  -19.4513 N   0  0  0  0  0  0  0  0  0  0  0  0
  -31.3072    3.2679  -19.8049 O   0  0  0  0  0  0  0  0  0  0  0  0
  -32.7073    3.5129  -19.5901 C   0  0  2  0  0  0  0  0  0  0  0  0
  -34.5295    8.7481  -19.8030 C   0  0  0  0  0  0  0  0  0  0  0  0
  -33.5354    7.9007  -21.9142 N   0  0  0  0  0  0  0  0  0  0  0  0
  -35.2142    3.7606  -22.1965 O   0  0  0  0  0  0  0  0  0  0  0  0
  -34.7771    3.4704  -20.9087 C   0  0  0  0  0  0  0  0  0  0  0  0
  -36.7987    3.8940  -24.0744 O   0  0  0  0  0  0  0  0  0  0  0  0
  -33.8720    7.1878  -18.4437 C   0  0  0  0  0  0  0  0  0  0  0  0
  -35.3397   10.1057  -21.5460 O   0  0  0  0  0  0  0  0  0  0  0  0
  -35.1662    9.9671  -20.3353 C   0  0  0  0  0  0  0  0  0  0  0  0
  -33.8171    7.8377  -20.5303 C   0  0  0  0  0  0  0  0  0  0  0  0
  -37.2650    2.3317  -22.0771 O   0  5  0  0  0  0  0  0  0  0  0  0
  -37.5216    4.5791  -21.6720 O   0  0  0  0  0  0  0  0  0  0  0  0
  1 17  1  0  0  0  0
  1 20  1  0  0  0  0
  2 15  1  1  0  0  0
  2  3  1  0  0  0  0
  2 11  1  0  0  0  0
  3  5  1  0  0  0  0
  4 16  1  6  0  0  0
  4 21  1  0  0  0  0
  4 22  2  0  0  0  0
  4 14  1  0  0  0  0
  5  1  1  1  0  0  0
  5  8  1  0  0  0  0
  6 17  2  0  0  0  0
  6 12  1  0  0  0  0
  8  7  1  1  0  0  0
  8 11  1  0  0  0  0
  9 19  1  0  0  0  0
 11 10  1  6  0  0  0
 12 20  2  0  0  0  0
 12 19  1  0  0  0  0
 13 20  1  0  0  0  0
 14 15  1  0  0  0  0
 18 19  2  0  0  0  0
M  CHG  1  21  -1
M  END
>  <CHROM.1>
135.52802182,63.45458824,-173.78588030,-176.44340584,15.05487225,-34.53442168
5.73293806,-20.70561120,-1.26135164,0.63661762,-2.93558909

>  <Name>
ligand

>  <RI>
0

>  <Rbt.Current_Directory>
/home/itssahil/PROJECTS/Mol_Feturizer/Test_systems_manuscript/rnas/4xwf

>  <Rbt.Executable>
rbdock ($Id: //depot/dev/client3/rdock/2013.1/src/exe/rbdock.cxx#4 $)

>  <Rbt.Library>
libRbt.so (2013.1, Build901 2013/11/27)

>  <Rbt.Parameter_File>
/export/apps/rDock/src/rDock_2013.1_src/data/scripts/dock_solv.prm

>  <Rbt.Receptor>
prm/blind_docking_80.prm

>  <SCORE>
-9.95479

>  <SCORE.INTER>
-11.1946

>  <SCORE.INTER.CONST>
1

>  <SCORE.INTER.POLAR>
0

>  <SCORE.INTER.ROT>
5

>  <SCORE.INTER.SOLV>
14.5894

>  <SCORE.INTER.VDW>
-19.2595

>  <SCORE.INTER.norm>
-0.508844

>  <SCORE.INTRA>
1.23977

>  <SCORE.INTRA.DIHEDRAL>
-1.59937

>  <SCORE.INTRA.DIHEDRAL.0>
3.49807

>  <SCORE.INTRA.POLAR>
0

>  <SCORE.INTRA.POLAR.0>
0

>  <SCORE.INTRA.REPUL>
0

>  <SCORE.INTRA.REPUL.0>
0

>  <SCORE.INTRA.SOLV>
0.623948

>  <SCORE.INTRA.SOLV.lig_0>
-73.062

>  <SCORE.INTRA.VDW>
1.72747

>  <SCORE.INTRA.VDW.0>
-1.83782

>  <SCORE.INTRA.norm>
0.056353

>  <SCORE.RESTR>
0

>  <SCORE.RESTR.CAVITY>
0

>  <SCORE.RESTR.norm>
0

>  <SCORE.SYSTEM>
0

>  <SCORE.SYSTEM.CONST>
0

>  <SCORE.SYSTEM.DIHEDRAL>
0

>  <SCORE.SYSTEM.SOLV>
0

>  <SCORE.SYSTEM.norm>
0

>  <SCORE.heavy>
22

>  <SCORE.norm>
-0.452491

>  <RMSD>
13.252

$$$$
ligand
 OpenBabel02271912143D
libRbt.so/2013.1/901 2013/11/27
 22 23  0  0  0  0  0  0  0  0999 V2000
  -34.0859   -5.8688  -14.0997 N   0  0  0  0  0  0  0  0  0  0  0  0
  -34.7185   -3.4225  -16.3510 C   0  0  1  0  0  0  0  0  0  0  0  0
  -34.8012   -4.8419  -16.0371 O   0  0  0  0  0  0  0  0  0  0  0  0
  -33.6349   -4.0119  -19.1286 P   0  0  1  0  0  0  0  0  0  0  0  0
  -34.9974   -4.9734  -14.6199 C   0  0  2  0  0  0  0  0  0  0  0  0
  -32.5056   -6.7096  -12.8722 N   0  0  0  0  0  0  0  0  0  0  0  0
  -35.2946   -3.4511  -12.8060 O   0  0  0  0  0  0  0  0  0  0  0  0
  -34.6433   -3.6470  -14.0666 C   0  0  2  0  0  0  0  0  0  0  0  0
  -31.7180   -9.4966  -14.8052 N   0  0  0  0  0  0  0  0  0  0  0  0
  -36.5081   -2.5866  -15.0889 O   0  0  0  0  0  0  0  0  0  0  0  0
  -35.0766   -2.7162  -15.1015 C   0  0  2  0  0  0  0  0  0  0  0  0
  -32.9714   -7.6775  -13.6763 C   0  0  0  0  0  0  0  0  0  0  0  0
  -34.7366   -7.8503  -15.4135 N   0  0  0  0  0  0  0  0  0  0  0  0
  -33.0003   -4.1141  -17.6984 O   0  0  0  0  0  0  0  0  0  0  0  0
  -33.3107   -3.1440  -16.7517 C   0  0  0  0  0  0  0  0  0  0  0  0
  -32.6090   -3.1163  -19.9134 O   0  0  0  0  0  0  0  0  0  0  0  0
  -33.1958   -5.5851  -13.1417 C   0  0  0  0  0  0  0  0  0  0  0  0
  -32.7648   -9.8577  -12.8153 O   0  0  0  0  0  0  0  0  0  0  0  0
  -32.4863   -9.0695  -13.7188 C   0  0  0  0  0  0  0  0  0  0  0  0
  -33.9689   -7.1565  -14.4502 C   0  0  0  0  0  0  0  0  0  0  0  0
  -33.8224   -5.3805  -19.6940 O   0  5  0  0  0  0  0  0  0  0  0  0
  -35.0264   -3.5323  -19.0495 O   0  0  0  0  0  0  0  0  0  0  0  0
  1 17  1  0  0  0  0
  1 20  1  0  0  0  0
  2 15  1  1  0  0  0
  2  3  1  0  0  0  0
  2 11  1  0  0  0  0
  3  5  1  0  0  0  0
  4 16  1  6  0  0  0
  4 21  1  0  0  0  0
  4 22  2  0  0  0  0
  4 14  1  0  0  0  0
  5  1  1  1  0  0  0
  5  8  1  0  0  0  0
  6 17  2  0  0  0  0
  6 12  1  0  0  0  0
  8  7  1  1  0  0  0
  8 11  1  0  0  0  0
  9 19  1  0  0  0  0
 11 10  1  6  0  0  0
 12 20  2  0  0  0  0
 12 19  1  0  0  0  0
 13 20  1  0  0  0  0
 14 15  1  0  0  0  0
 18 19  2  0  0  0  0
M  CHG  1  21  -1
M  END
>  <CHROM.1>
121.32582094,49.55506712,88.47176750,72.56290653,-107.14712222,-33.91201661
-5.23760400,-15.80310164,1.26452362,-1.06920067,2.04048107

>  <Name>
ligand

>  <RI>
0

>  <Rbt.Current_Directory>
/home/itssahil/PROJECTS/Mol_Feturizer/Test_systems_manuscript/rnas/4xwf

>  <Rbt.Executable>
rbdock ($Id: //depot/dev/client3/rdock/2013.1/src/exe/rbdock.cxx#4 $)

>  <Rbt.Library>
libRbt.so (2013.1, Build901 2013/11/27)

>  <Rbt.Parameter_File>
/export/apps/rDock/src/rDock_2013.1_src/data/scripts/dock_solv.prm

>  <Rbt.Receptor>
prm/blind_docking_40.prm

>  <SCORE>
-6.25446

>  <SCORE.INTER>
-10.9548

>  <SCORE.INTER.CONST>
1

>  <SCORE.INTER.POLAR>
0

>  <SCORE.INTER.ROT>
5

>  <SCORE.INTER.SOLV>
12.405

>  <SCORE.INTER.VDW>
-18.3716

>  <SCORE.INTER.norm>
-0.497947

>  <SCORE.INTRA>
4.40593

>  <SCORE.INTRA.DIHEDRAL>
0.333186

>  <SCORE.INTRA.DIHEDRAL.0>
3.49807

>  <SCORE.INTRA.POLAR>
0

>  <SCORE.INTRA.POLAR.0>
0

>  <SCORE.INTRA.REPUL>
0

>  <SCORE.INTRA.REPUL.0>
0

>  <SCORE.INTRA.SOLV>
2.63474

>  <SCORE.INTRA.SOLV.lig_0>
-73.062

>  <SCORE.INTRA.VDW>
2.92196

>  <SCORE.INTRA.VDW.0>
-1.83782

>  <SCORE.INTRA.norm>
0.200269

>  <SCORE.RESTR>
0.294443

>  <SCORE.RESTR.CAVITY>
0.294443

>  <SCORE.RESTR.norm>
0.0133838

>  <SCORE.SYSTEM>
0

>  <SCORE.SYSTEM.CONST>
0

>  <SCORE.SYSTEM.DIHEDRAL>
0

>  <SCORE.SYSTEM.SOLV>
0

>  <SCORE.SYSTEM.norm>
0

>  <SCORE.heavy>
22

>  <SCORE.norm>
-0.284294

>  <RMSD>
13.264

$$$$
ligand
 OpenBabel02271912143D
libRbt.so/2013.1/901 2013/11/27
 22 23  0  0  0  0  0  0  0  0999 V2000
  -34.2956   -6.1570  -13.7980 N   0  0  0  0  0  0  0  0  0  0  0  0
  -35.5076   -4.4496  -16.4566 C   0  0  1  0  0  0  0  0  0  0  0  0
  -35.6170   -5.6319  -15.6140 O   0  0  0  0  0  0  0  0  0  0  0  0
  -32.8742   -3.2759  -18.9086 P   0  0  1  0  0  0  0  0  0  0  0  0
  -35.2308   -5.2646  -14.2797 C   0  0  2  0  0  0  0  0  0  0  0  0
  -32.7434   -7.0360  -12.5613 N   0  0  0  0  0  0  0  0  0  0  0  0
  -34.5845   -3.2337  -13.2055 O   0  0  0  0  0  0  0  0  0  0  0  0
  -34.5321   -3.9689  -14.4338 C   0  0  2  0  0  0  0  0  0  0  0  0
  -31.5643   -9.7334  -12.7365 N   0  0  0  0  0  0  0  0  0  0  0  0
  -36.5168   -2.8370  -15.0871 O   0  0  0  0  0  0  0  0  0  0  0  0
  -35.2405   -3.3251  -15.5332 C   0  0  2  0  0  0  0  0  0  0  0  0
  -33.0899   -7.9317  -13.4985 C   0  0  0  0  0  0  0  0  0  0  0  0
  -34.7246   -8.0104  -15.3653 N   0  0  0  0  0  0  0  0  0  0  0  0
  -34.1353   -3.4481  -17.9928 O   0  0  0  0  0  0  0  0  0  0  0  0
  -34.3645   -4.6775  -17.3847 C   0  0  0  0  0  0  0  0  0  0  0  0
  -31.6812   -3.3030  -17.8856 O   0  0  0  0  0  0  0  0  0  0  0  0
  -33.4899   -5.9318  -12.7536 C   0  0  0  0  0  0  0  0  0  0  0  0
  -32.8392   -9.9930  -14.6054 O   0  0  0  0  0  0  0  0  0  0  0  0
  -32.5094   -9.2777  -13.6596 C   0  0  0  0  0  0  0  0  0  0  0  0
  -34.0690   -7.3866  -14.2792 C   0  0  0  0  0  0  0  0  0  0  0  0
  -32.8414   -4.3655  -19.9283 O   0  5  0  0  0  0  0  0  0  0  0  0
  -33.0060   -2.0796  -19.7595 O   0  0  0  0  0  0  0  0  0  0  0  0
  1 17  1  0  0  0  0
  1 20  1  0  0  0  0
  2 15  1  6  0  0  0
  2  3  1  0  0  0  0
  2 11  1  0  0  0  0
  3  5  1  0  0  0  0
  4 16  1  1  0  0  0
  4 21  1  0  0  0  0
  4 22  2  0  0  0  0
  4 14  1  0  0  0  0
  5  1  1  6  0  0  0
  5  8  1  0  0  0  0
  6 17  2  0  0  0  0
  6 12  1  0  0  0  0
  8  7  1  1  0  0  0
  8 11  1  0  0  0  0
  9 19  1  0  0  0  0
 11 10  1  1  0  0  0
 12 20  2  0  0  0  0
 12 19  1  0  0  0  0
 13 20  1  0  0  0  0
 14 15  1  0  0  0  0
 18 19  2  0  0  0  0
M  CHG  1  21  -1
M  END
>  <CHROM.1>
162.28490718,-169.26757194,-70.40958178,172.41224244,3.75330956,-33.83277093
-5.30695735,-15.73391704,1.49510070,-0.89630383,2.30298864

>  <Name>
ligand

>  <RI>
0

>  <Rbt.Current_Directory>
/home/itssahil/PROJECTS/Mol_Feturizer/Test_systems_manuscript/rnas/4xwf

>  <Rbt.Executable>
rbdock ($Id: //depot/dev/client3/rdock/2013.1/src/exe/rbdock.cxx#4 $)

>  <Rbt.Library>
libRbt.so (2013.1, Build901 2013/11/27)

>  <Rbt.Parameter_File>
/export/apps/rDock/src/rDock_2013.1_src/data/scripts/dock_solv.prm

>  <Rbt.Receptor>
prm/blind_docking_40.prm

>  <SCORE>
-5.0568

>  <SCORE.INTER>
-6.81959

>  <SCORE.INTER.CONST>
1

>  <SCORE.INTER.POLAR>
0

>  <SCORE.INTER.ROT>
5

>  <SCORE.INTER.SOLV>
15.8789

>  <SCORE.INTER.VDW>
-16.7727

>  <SCORE.INTER.norm>
-0.309981

>  <SCORE.INTRA>
1.72904

>  <SCORE.INTRA.DIHEDRAL>
-1.08543

>  <SCORE.INTRA.DIHEDRAL.0>
3.49807

>  <SCORE.INTRA.POLAR>
0

>  <SCORE.INTRA.POLAR.0>
0

>  <SCORE.INTRA.REPUL>
0

>  <SCORE.INTRA.REPUL.0>
0

>  <SCORE.INTRA.SOLV>
1.68565

>  <SCORE.INTRA.SOLV.lig_0>
-73.062

>  <SCORE.INTRA.VDW>
1.42893

>  <SCORE.INTRA.VDW.0>
-1.83782

>  <SCORE.INTRA.norm>
0.0785928

>  <SCORE.RESTR>
0.0337506

>  <SCORE.RESTR.CAVITY>
0.0337506

>  <SCORE.RESTR.norm>
0.00153412

>  <SCORE.SYSTEM>
0

>  <SCORE.SYSTEM.CONST>
0

>  <SCORE.SYSTEM.DIHEDRAL>
0

>  <SCORE.SYSTEM.SOLV>
0

>  <SCORE.SYSTEM.norm>
0

>  <SCORE.heavy>
22

>  <SCORE.norm>
-0.229854

>  <RMSD>
13.268

$$$$
ligand
 OpenBabel02271912143D
libRbt.so/2013.1/901 2013/11/27
 22 23  0  0  0  0  0  0  0  0999 V2000
  -34.2900    5.3230  -21.1875 N   0  0  0  0  0  0  0  0  0  0  0  0
  -33.3086    2.3252  -19.9617 C   0  0  1  0  0  0  0  0  0  0  0  0
  -33.6886    3.0969  -21.1364 O   0  0  0  0  0  0  0  0  0  0  0  0
  -36.4832    0.3129  -19.4838 P   0  0  1  0  0  0  0  0  0  0  0  0
  -33.2500    4.4509  -20.9401 C   0  0  2  0  0  0  0  0  0  0  0  0
  -36.2957    6.0858  -21.5139 N   0  0  0  0  0  0  0  0  0  0  0  0
  -32.0237    5.6021  -19.2470 O   0  0  0  0  0  0  0  0  0  0  0  0
  -32.9599    4.5461  -19.4918 C   0  0  2  0  0  0  0  0  0  0  0  0
  -35.4199    9.4920  -20.7811 N   0  0  0  0  0  0  0  0  0  0  0  0
  -31.1076    3.0650  -19.6411 O   0  0  0  0  0  0  0  0  0  0  0  0
  -32.4515    3.2219  -19.1556 C   0  0  2  0  0  0  0  0  0  0  0  0
  -35.4460    7.1244  -21.5213 C   0  0  0  0  0  0  0  0  0  0  0  0
  -32.9989    7.4223  -21.2273 N   0  0  0  0  0  0  0  0  0  0  0  0
  -35.1072    0.9072  -19.9443 O   0  0  0  0  0  0  0  0  0  0  0  0
  -34.5653    1.9774  -19.2408 C   0  0  0  0  0  0  0  0  0  0  0  0
  -36.4651   -1.1402  -20.0827 O   0  0  0  0  0  0  0  0  0  0  0  0
  -35.5738    4.9670  -21.3124 C   0  0  0  0  0  0  0  0  0  0  0  0
  -36.4794    8.8786  -22.7012 O   0  0  0  0  0  0  0  0  0  0  0  0
  -35.8154    8.5378  -21.7224 C   0  0  0  0  0  0  0  0  0  0  0  0
  -34.1814    6.6523  -21.3133 C   0  0  0  0  0  0  0  0  0  0  0  0
  -36.5817    0.3688  -17.9955 O   0  5  0  0  0  0  0  0  0  0  0  0
  -37.5939    1.1944  -19.8862 O   0  0  0  0  0  0  0  0  0  0  0  0
  1 17  1  0  0  0  0
  1 20  1  0  0  0  0
  2 15  1  1  0  0  0
  2  3  1  0  0  0  0
  2 11  1  0  0  0  0
  3  5  1  0  0  0  0
  4 16  1  6  0  0  0
  4 21  1  0  0  0  0
  4 22  2  0  0  0  0
  4 14  1  0  0  0  0
  5  1  1  1  0  0  0
  5  8  1  0  0  0  0
  6 17  2  0  0  0  0
  6 12  1  0  0  0  0
  8  7  1  6  0  0  0
  8 11  1  0  0  0  0
  9 19  1  0  0  0  0
 11 10  1  6  0  0  0
 12 20  2  0  0  0  0
 12 19  1  0  0  0  0
 13 20  1  0  0  0  0
 14 15  1  0  0  0  0
 18 19  2  0  0  0  0
M  CHG  1  21  -1
M  END
>  <CHROM.1>
12.99917765,78.77417785,-157.92134901,-177.74168885,126.13912677,-34.75185023
3.95791160,-20.34667522,-1.43496320,0.20104579,2.85107681

>  <Name>
ligand

>  <RI>
0

>  <Rbt.Current_Directory>
/home/itssahil/PROJECTS/Mol_Feturizer/Test_systems_manuscript/rnas/4xwf

>  <Rbt.Executable>
rbdock ($Id: //depot/dev/client3/rdock/2013.1/src/exe/rbdock.cxx#4 $)

>  <Rbt.Library>
libRbt.so (2013.1, Build901 2013/11/27)

>  <Rbt.Parameter_File>
/export/apps/rDock/src/rDock_2013.1_src/data/scripts/dock_solv.prm

>  <Rbt.Receptor>
prm/blind_docking_60.prm

>  <SCORE>
-9.25452

>  <SCORE.INTER>
-9.76326

>  <SCORE.INTER.CONST>
1

>  <SCORE.INTER.POLAR>
0

>  <SCORE.INTER.ROT>
5

>  <SCORE.INTER.SOLV>
14.3437

>  <SCORE.INTER.VDW>
-18.2234

>  <SCORE.INTER.norm>
-0.443785

>  <SCORE.INTRA>
0.508747

>  <SCORE.INTRA.DIHEDRAL>
-0.119677

>  <SCORE.INTRA.DIHEDRAL.0>
3.49807

>  <SCORE.INTRA.POLAR>
0

>  <SCORE.INTRA.POLAR.0>
0

>  <SCORE.INTRA.REPUL>
0

>  <SCORE.INTRA.REPUL.0>
0

>  <SCORE.INTRA.SOLV>
1.35472

>  <SCORE.INTRA.SOLV.lig_0>
-73.062

>  <SCORE.INTRA.VDW>
-0.108776

>  <SCORE.INTRA.VDW.0>
-1.83782

>  <SCORE.INTRA.norm>
0.0231249

>  <SCORE.RESTR>
0

>  <SCORE.RESTR.CAVITY>
0

>  <SCORE.RESTR.norm>
0

>  <SCORE.SYSTEM>
0

>  <SCORE.SYSTEM.CONST>
0

>  <SCORE.SYSTEM.DIHEDRAL>
0

>  <SCORE.SYSTEM.SOLV>
0

>  <SCORE.SYSTEM.norm>
0

>  <SCORE.heavy>
22

>  <SCORE.norm>
-0.42066

>  <RMSD>
13.273

$$$$
ligand
 OpenBabel02271912143D
libRbt.so/2013.1/901 2013/11/27
 22 23  0  0  0  0  0  0  0  0999 V2000
  -34.2721    6.3692  -20.9409 N   0  0  0  0  0  0  0  0  0  0  0  0
  -33.6215    3.0481  -20.9343 C   0  0  1  0  0  0  0  0  0  0  0  0
  -33.7897    4.2561  -21.7296 O   0  0  0  0  0  0  0  0  0  0  0  0
  -36.0412    0.5212  -19.4789 P   0  0  1  0  0  0  0  0  0  0  0  0
  -33.3213    5.3696  -20.9517 C   0  0  2  0  0  0  0  0  0  0  0  0
  -36.1906    7.3760  -20.8111 N   0  0  0  0  0  0  0  0  0  0  0  0
  -32.3021    5.6253  -18.8089 O   0  0  0  0  0  0  0  0  0  0  0  0
  -33.2412    4.8536  -19.5668 C   0  0  2  0  0  0  0  0  0  0  0  0
  -34.7985   10.5997  -20.1063 N   0  0  0  0  0  0  0  0  0  0  0  0
  -31.4584    3.3726  -20.0915 O   0  0  0  0  0  0  0  0  0  0  0  0
  -32.8498    3.4603  -19.7414 C   0  0  2  0  0  0  0  0  0  0  0  0
  -35.2365    8.3090  -20.9517 C   0  0  0  0  0  0  0  0  0  0  0  0
  -32.7627    8.3054  -21.1608 N   0  0  0  0  0  0  0  0  0  0  0  0
  -34.7947    1.3173  -19.9995 O   0  0  0  0  0  0  0  0  0  0  0  0
  -34.9847    2.5731  -20.5657 C   0  0  0  0  0  0  0  0  0  0  0  0
  -36.9673    0.4357  -20.7459 O   0  0  0  0  0  0  0  0  0  0  0  0
  -35.5891    6.1711  -20.8109 C   0  0  0  0  0  0  0  0  0  0  0  0
  -36.2295   10.2475  -21.8424 O   0  0  0  0  0  0  0  0  0  0  0  0
  -35.4587    9.7655  -21.0125 C   0  0  0  0  0  0  0  0  0  0  0  0
  -34.0253    7.6828  -21.0311 C   0  0  0  0  0  0  0  0  0  0  0  0
  -35.6040   -0.8004  -18.9402 O   0  5  0  0  0  0  0  0  0  0  0  0
  -36.6029    1.1592  -18.2747 O   0  0  0  0  0  0  0  0  0  0  0  0
  1 17  1  0  0  0  0
  1 20  1  0  0  0  0
  2 15  1  1  0  0  0
  2  3  1  0  0  0  0
  2 11  1  0  0  0  0
  3  5  1  0  0  0  0
  4 16  1  6  0  0  0
  4 21  1  0  0  0  0
  4 22  2  0  0  0  0
  4 14  1  0  0  0  0
  5  1  1  1  0  0  0
  5  8  1  0  0  0  0
  6 17  2  0  0  0  0
  6 12  1  0  0  0  0
  8  7  1  1  0  0  0
  8 11  1  0  0  0  0
  9 19  1  0  0  0  0
 11 10  1  6  0  0  0
 12 20  2  0  0  0  0
 12 19  1  0  0  0  0
 13 20  1  0  0  0  0
 14 15  1  0  0  0  0
 18 19  2  0  0  0  0
M  CHG  1  21  -1
M  END
>  <CHROM.1>
41.45375602,170.71495526,56.45350802,179.45294602,124.05892355,-34.63953837
4.62009716,-20.31071586,-1.47620620,0.06827772,2.97081939

>  <Name>
ligand

>  <RI>
0

>  <Rbt.Current_Directory>
/home/itssahil/PROJECTS/Mol_Feturizer/Test_systems_manuscript/rnas/4xwf

>  <Rbt.Executable>
rbdock ($Id: //depot/dev/client3/rdock/2013.1/src/exe/rbdock.cxx#4 $)

>  <Rbt.Library>
libRbt.so (2013.1, Build901 2013/11/27)

>  <Rbt.Parameter_File>
/export/apps/rDock/src/rDock_2013.1_src/data/scripts/dock_solv.prm

>  <Rbt.Receptor>
prm/blind_docking_100.prm

>  <SCORE>
-10.0938

>  <SCORE.INTER>
-8.93178

>  <SCORE.INTER.CONST>
1

>  <SCORE.INTER.POLAR>
0

>  <SCORE.INTER.ROT>
5

>  <SCORE.INTER.SOLV>
12.5482

>  <SCORE.INTER.VDW>
-17.0706

>  <SCORE.INTER.norm>
-0.40599

>  <SCORE.INTRA>
-1.16206

>  <SCORE.INTRA.DIHEDRAL>
-1.6665

>  <SCORE.INTRA.DIHEDRAL.0>
3.49807

>  <SCORE.INTRA.POLAR>
0

>  <SCORE.INTRA.POLAR.0>
0

>  <SCORE.INTRA.REPUL>
0

>  <SCORE.INTRA.REPUL.0>
0

>  <SCORE.INTRA.SOLV>
-0.296111

>  <SCORE.INTRA.SOLV.lig_0>
-73.062

>  <SCORE.INTRA.VDW>
-0.180754

>  <SCORE.INTRA.VDW.0>
-1.83782

>  <SCORE.INTRA.norm>
-0.0528209

>  <SCORE.RESTR>
0

>  <SCORE.RESTR.CAVITY>
0

>  <SCORE.RESTR.norm>
0

>  <SCORE.SYSTEM>
0

>  <SCORE.SYSTEM.CONST>
0

>  <SCORE.SYSTEM.DIHEDRAL>
0

>  <SCORE.SYSTEM.SOLV>
0

>  <SCORE.SYSTEM.norm>
0

>  <SCORE.heavy>
22

>  <SCORE.norm>
-0.458811

>  <RMSD>
13.291

$$$$
ligand
 OpenBabel02271912143D
libRbt.so/2013.1/901 2013/11/27
 22 23  0  0  0  0  0  0  0  0999 V2000
  -37.5138   -2.8959  -17.6872 N   0  0  0  0  0  0  0  0  0  0  0  0
  -36.5867    0.0851  -18.9936 C   0  0  1  0  0  0  0  0  0  0  0  0
  -37.2963   -1.1693  -19.2008 O   0  0  0  0  0  0  0  0  0  0  0  0
  -34.5732    2.0593  -20.1872 P   0  0  1  0  0  0  0  0  0  0  0  0
  -37.8484   -1.5816  -17.9401 C   0  0  2  0  0  0  0  0  0  0  0  0
  -37.6226   -4.9386  -16.9615 N   0  0  0  0  0  0  0  0  0  0  0  0
  -37.9242   -0.6528  -15.7430 O   0  0  0  0  0  0  0  0  0  0  0  0
  -37.1338   -0.7667  -16.9321 C   0  0  2  0  0  0  0  0  0  0  0  0
  -35.2483   -6.2704  -19.2532 N   0  0  0  0  0  0  0  0  0  0  0  0
  -38.1345    1.2554  -17.6785 O   0  0  0  0  0  0  0  0  0  0  0  0
  -36.9112    0.5033  -17.6123 C   0  0  2  0  0  0  0  0  0  0  0  0
  -36.5006   -4.8107  -17.6864 C   0  0  0  0  0  0  0  0  0  0  0  0
  -35.4117   -2.9866  -18.9711 N   0  0  0  0  0  0  0  0  0  0  0  0
  -34.4987    1.0264  -19.0098 O   0  0  0  0  0  0  0  0  0  0  0  0
  -35.1332   -0.2030  -19.1499 C   0  0  0  0  0  0  0  0  0  0  0  0
  -33.4406    3.0900  -19.8327 O   0  0  0  0  0  0  0  0  0  0  0  0
  -38.2472   -3.7455  -16.9586 C   0  0  0  0  0  0  0  0  0  0  0  0
  -34.9327   -6.4269  -17.0034 O   0  0  0  0  0  0  0  0  0  0  0  0
  -35.5124   -5.8757  -17.9389 C   0  0  0  0  0  0  0  0  0  0  0  0
  -36.4267   -3.5278  -18.1492 C   0  0  0  0  0  0  0  0  0  0  0  0
  -34.3833    1.3527  -21.4881 O   0  5  0  0  0  0  0  0  0  0  0  0
  -35.9420    2.5857  -20.3345 O   0  0  0  0  0  0  0  0  0  0  0  0
  1 17  1  0  0  0  0
  1 20  1  0  0  0  0
  2 15  1  1  0  0  0
  2  3  1  0  0  0  0
  2 11  1  0  0  0  0
  3  5  1  0  0  0  0
  4 16  1  1  0  0  0
  4 21  1  0  0  0  0
  4 22  2  0  0  0  0
  4 14  1  0  0  0  0
  5  1  1  1  0  0  0
  5  8  1  0  0  0  0
  6 17  2  0  0  0  0
  6 12  1  0  0  0  0
  8  7  1  1  0  0  0
  8 11  1  0  0  0  0
  9 19  1  0  0  0  0
 11 10  1  6  0  0  0
 12 20  2  0  0  0  0
 12 19  1  0  0  0  0
 13 20  1  0  0  0  0
 14 15  1  0  0  0  0
 18 19  2  0  0  0  0
M  CHG  1  21  -1
M  END
>  <CHROM.1>
-151.16347381,177.19512305,-164.50895489,-74.68796514,119.86926829,-36.11011656
-1.21558736,-18.53089872,1.81559534,-0.66666023,2.97902059

>  <Name>
ligand

>  <RI>
0

>  <Rbt.Current_Directory>
/home/itssahil/PROJECTS/Mol_Feturizer/Test_systems_manuscript/rnas/4xwf

>  <Rbt.Executable>
rbdock ($Id: //depot/dev/client3/rdock/2013.1/src/exe/rbdock.cxx#4 $)

>  <Rbt.Library>
libRbt.so (2013.1, Build901 2013/11/27)

>  <Rbt.Parameter_File>
/export/apps/rDock/src/rDock_2013.1_src/data/scripts/dock_solv.prm

>  <Rbt.Receptor>
prm/blind_docking_60.prm

>  <SCORE>
-7.46427

>  <SCORE.INTER>
-11.2576

>  <SCORE.INTER.CONST>
1

>  <SCORE.INTER.POLAR>
0

>  <SCORE.INTER.ROT>
5

>  <SCORE.INTER.SOLV>
18.8665

>  <SCORE.INTER.VDW>
-20.7272

>  <SCORE.INTER.norm>
-0.511708

>  <SCORE.INTRA>
3.79329

>  <SCORE.INTRA.DIHEDRAL>
-0.585871

>  <SCORE.INTRA.DIHEDRAL.0>
3.49807

>  <SCORE.INTRA.POLAR>
0

>  <SCORE.INTRA.POLAR.0>
0

>  <SCORE.INTRA.REPUL>
0

>  <SCORE.INTRA.REPUL.0>
0

>  <SCORE.INTRA.SOLV>
7.24855

>  <SCORE.INTRA.SOLV.lig_0>
-73.062

>  <SCORE.INTRA.VDW>
0.461951

>  <SCORE.INTRA.VDW.0>
-1.83782

>  <SCORE.INTRA.norm>
0.172422

>  <SCORE.RESTR>
0

>  <SCORE.RESTR.CAVITY>
0

>  <SCORE.RESTR.norm>
0

>  <SCORE.SYSTEM>
0

>  <SCORE.SYSTEM.CONST>
0

>  <SCORE.SYSTEM.DIHEDRAL>
0

>  <SCORE.SYSTEM.SOLV>
0

>  <SCORE.SYSTEM.norm>
0

>  <SCORE.heavy>
22

>  <SCORE.norm>
-0.339285

>  <RMSD>
13.318

$$$$
ligand
 OpenBabel02271912143D
libRbt.so/2013.1/901 2013/11/27
 22 23  0  0  0  0  0  0  0  0999 V2000
  -34.1155   -6.2303  -13.8221 N   0  0  0  0  0  0  0  0  0  0  0  0
  -35.4309   -4.6651  -16.5189 C   0  0  1  0  0  0  0  0  0  0  0  0
  -35.4719   -5.8280  -15.6437 O   0  0  0  0  0  0  0  0  0  0  0  0
  -32.8892   -3.4138  -19.0250 P   0  0  1  0  0  0  0  0  0  0  0  0
  -35.1001   -5.4035  -14.3223 C   0  0  2  0  0  0  0  0  0  0  0  0
  -32.3971   -6.9261  -12.6934 N   0  0  0  0  0  0  0  0  0  0  0  0
  -34.5602   -3.3118  -13.3080 O   0  0  0  0  0  0  0  0  0  0  0  0
  -34.4736   -4.0766  -14.5160 C   0  0  2  0  0  0  0  0  0  0  0  0
  -33.0029  -10.2977  -12.5039 N   0  0  0  0  0  0  0  0  0  0  0  0
  -36.5200   -3.0725  -15.1878 O   0  0  0  0  0  0  0  0  0  0  0  0
  -35.2211   -3.5028  -15.6283 C   0  0  2  0  0  0  0  0  0  0  0  0
  -32.9118   -7.9710  -13.3597 C   0  0  0  0  0  0  0  0  0  0  0  0
  -34.8349   -8.3335  -14.8873 N   0  0  0  0  0  0  0  0  0  0  0  0
  -34.1483   -3.6465  -18.1200 O   0  0  0  0  0  0  0  0  0  0  0  0
  -34.2814   -4.8563  -17.4475 C   0  0  0  0  0  0  0  0  0  0  0  0
  -32.8750   -4.6821  -19.9533 O   0  0  0  0  0  0  0  0  0  0  0  0
  -33.1435   -5.8444  -12.9874 C   0  0  0  0  0  0  0  0  0  0  0  0
  -31.4205   -9.6688  -14.0160 O   0  0  0  0  0  0  0  0  0  0  0  0
  -32.3925   -9.3509  -13.3309 C   0  0  0  0  0  0  0  0  0  0  0  0
  -33.9960   -7.5413  -14.0703 C   0  0  0  0  0  0  0  0  0  0  0  0
  -33.0246   -2.1162  -19.7502 O   0  5  0  0  0  0  0  0  0  0  0  0
  -31.6920   -3.1677  -18.2011 O   0  0  0  0  0  0  0  0  0  0  0  0
  1 17  1  0  0  0  0
  1 20  1  0  0  0  0
  2 15  1  6  0  0  0
  2  3  1  0  0  0  0
  2 11  1  0  0  0  0
  3  5  1  0  0  0  0
  4 16  1  6  0  0  0
  4 21  1  0  0  0  0
  4 22  2  0  0  0  0
  4 14  1  0  0  0  0
  5  1  1  6  0  0  0
  5  8  1  0  0  0  0
  6 17  2  0  0  0  0
  6 12  1  0  0  0  0
  8  7  1  1  0  0  0
  8 11  1  0  0  0  0
  9 19  1  0  0  0  0
 11 10  1  1  0  0  0
 12 20  2  0  0  0  0
 12 19  1  0  0  0  0
 13 20  1  0  0  0  0
 14 15  1  0  0  0  0
 18 19  2  0  0  0  0
M  CHG  1  21  -1
M  END
>  <CHROM.1>
147.69204445,-171.04953288,51.81587307,170.63360441,99.29107074,-33.76343087
-5.42487101,-15.72391098,1.49529226,-0.83740616,2.28183254

>  <Name>
ligand

>  <RI>
0

>  <Rbt.Current_Directory>
/home/itssahil/PROJECTS/Mol_Feturizer/Test_systems_manuscript/rnas/4xwf

>  <Rbt.Executable>
rbdock ($Id: //depot/dev/client3/rdock/2013.1/src/exe/rbdock.cxx#4 $)

>  <Rbt.Library>
libRbt.so (2013.1, Build901 2013/11/27)

>  <Rbt.Parameter_File>
/export/apps/rDock/src/rDock_2013.1_src/data/scripts/dock_solv.prm

>  <Rbt.Receptor>
prm/blind_docking_40.prm

>  <SCORE>
-5.40767

>  <SCORE.INTER>
-7.4099

>  <SCORE.INTER.CONST>
1

>  <SCORE.INTER.POLAR>
0

>  <SCORE.INTER.ROT>
5

>  <SCORE.INTER.SOLV>
17.3072

>  <SCORE.INTER.VDW>
-17.6423

>  <SCORE.INTER.norm>
-0.336814

>  <SCORE.INTRA>
1.72059

>  <SCORE.INTRA.DIHEDRAL>
-0.73969

>  <SCORE.INTRA.DIHEDRAL.0>
3.49807

>  <SCORE.INTRA.POLAR>
0

>  <SCORE.INTRA.POLAR.0>
0

>  <SCORE.INTRA.REPUL>
0

>  <SCORE.INTRA.REPUL.0>
0

>  <SCORE.INTRA.SOLV>
0.86173

>  <SCORE.INTRA.SOLV.lig_0>
-73.062

>  <SCORE.INTRA.VDW>
1.65957

>  <SCORE.INTRA.VDW.0>
-1.83782

>  <SCORE.INTRA.norm>
0.0782085

>  <SCORE.RESTR>
0.281643

>  <SCORE.RESTR.CAVITY>
0.281643

>  <SCORE.RESTR.norm>
0.012802

>  <SCORE.SYSTEM>
0

>  <SCORE.SYSTEM.CONST>
0

>  <SCORE.SYSTEM.DIHEDRAL>
0

>  <SCORE.SYSTEM.SOLV>
0

>  <SCORE.SYSTEM.norm>
0

>  <SCORE.heavy>
22

>  <SCORE.norm>
-0.245803

>  <RMSD>
13.322

$$$$
ligand
 OpenBabel02271912143D
libRbt.so/2013.1/901 2013/11/27
 22 23  0  0  0  0  0  0  0  0999 V2000
  -37.1828   -2.8405  -18.0546 N   0  0  0  0  0  0  0  0  0  0  0  0
  -37.1810    0.4532  -18.8315 C   0  0  1  0  0  0  0  0  0  0  0  0
  -37.7449   -0.8622  -19.0987 O   0  0  0  0  0  0  0  0  0  0  0  0
  -34.1492    2.2914  -20.1476 P   0  0  1  0  0  0  0  0  0  0  0  0
  -37.7563   -1.6001  -17.8659 C   0  0  2  0  0  0  0  0  0  0  0  0
  -35.8085   -4.3889  -18.7066 N   0  0  0  0  0  0  0  0  0  0  0  0
  -37.1740   -1.1185  -15.6021 O   0  0  0  0  0  0  0  0  0  0  0  0
  -36.8468   -0.8505  -16.9706 C   0  0  2  0  0  0  0  0  0  0  0  0
  -36.2316   -6.8634  -16.4356 N   0  0  0  0  0  0  0  0  0  0  0  0
  -38.3054    1.0220  -16.8550 O   0  0  0  0  0  0  0  0  0  0  0  0
  -37.0493    0.5395  -17.3606 C   0  0  2  0  0  0  0  0  0  0  0  0
  -36.7500   -4.9601  -17.9398 C   0  0  0  0  0  0  0  0  0  0  0  0
  -38.7377   -4.1699  -16.6795 N   0  0  0  0  0  0  0  0  0  0  0  0
  -35.4187    1.8180  -19.3584 O   0  0  0  0  0  0  0  0  0  0  0  0
  -35.8519    0.5046  -19.5029 C   0  0  0  0  0  0  0  0  0  0  0  0
  -33.0852    1.1838  -19.8137 O   0  0  0  0  0  0  0  0  0  0  0  0
  -36.0834   -3.0727  -18.7812 C   0  0  0  0  0  0  0  0  0  0  0  0
  -37.4185   -7.1780  -18.3534 O   0  0  0  0  0  0  0  0  0  0  0  0
  -36.8351   -6.3938  -17.6053 C   0  0  0  0  0  0  0  0  0  0  0  0
  -37.6173   -3.9909  -17.5230 C   0  0  0  0  0  0  0  0  0  0  0  0
  -34.4777    2.4183  -21.5981 O   0  5  0  0  0  0  0  0  0  0  0  0
  -33.8065    3.6823  -19.8001 O   0  0  0  0  0  0  0  0  0  0  0  0
  1 17  1  0  0  0  0
  1 20  1  0  0  0  0
  2 15  1  6  0  0  0
  2  3  1  0  0  0  0
  2 11  1  0  0  0  0
  3  5  1  0  0  0  0
  4 16  1  1  0  0  0
  4 21  1  0  0  0  0
  4 22  2  0  0  0  0
  4 14  1  0  0  0  0
  5  1  1  6  0  0  0
  5  8  1  0  0  0  0
  6 17  2  0  0  0  0
  6 12  1  0  0  0  0
  8  7  1  1  0  0  0
  8 11  1  0  0  0  0
  9 19  1  0  0  0  0
 11 10  1  1  0  0  0
 12 20  2  0  0  0  0
 12 19  1  0  0  0  0
 13 20  1  0  0  0  0
 14 15  1  0  0  0  0
 18 19  2  0  0  0  0
M  CHG  1  21  -1
M  END
>  <CHROM.1>
41.40263478,173.25283968,-50.32890275,-170.33989623,92.52778303,-36.27147880
-1.22284376,-18.44683543,1.99379206,-0.72833030,3.12296376

>  <Name>
ligand

>  <RI>
0

>  <Rbt.Current_Directory>
/home/itssahil/PROJECTS/Mol_Feturizer/Test_systems_manuscript/rnas/4xwf

>  <Rbt.Executable>
rbdock ($Id: //depot/dev/client3/rdock/2013.1/src/exe/rbdock.cxx#4 $)

>  <Rbt.Library>
libRbt.so (2013.1, Build901 2013/11/27)

>  <Rbt.Parameter_File>
/export/apps/rDock/src/rDock_2013.1_src/data/scripts/dock_solv.prm

>  <Rbt.Receptor>
prm/blind_docking_100.prm

>  <SCORE>
-10.4847

>  <SCORE.INTER>
-9.90437

>  <SCORE.INTER.CONST>
1

>  <SCORE.INTER.POLAR>
0

>  <SCORE.INTER.ROT>
5

>  <SCORE.INTER.SOLV>
25.2775

>  <SCORE.INTER.VDW>
-21.9621

>  <SCORE.INTER.norm>
-0.450199

>  <SCORE.INTRA>
-0.580316

>  <SCORE.INTRA.DIHEDRAL>
-0.603876

>  <SCORE.INTRA.DIHEDRAL.0>
3.49807

>  <SCORE.INTRA.POLAR>
0

>  <SCORE.INTRA.POLAR.0>
0

>  <SCORE.INTRA.REPUL>
0

>  <SCORE.INTRA.REPUL.0>
0

>  <SCORE.INTRA.SOLV>
-0.486772

>  <SCORE.INTRA.SOLV.lig_0>
-73.062

>  <SCORE.INTRA.VDW>
-0.0349926

>  <SCORE.INTRA.VDW.0>
-1.83782

>  <SCORE.INTRA.norm>
-0.026378

>  <SCORE.RESTR>
0

>  <SCORE.RESTR.CAVITY>
0

>  <SCORE.RESTR.norm>
0

>  <SCORE.SYSTEM>
0

>  <SCORE.SYSTEM.CONST>
0

>  <SCORE.SYSTEM.DIHEDRAL>
0

>  <SCORE.SYSTEM.SOLV>
0

>  <SCORE.SYSTEM.norm>
0

>  <SCORE.heavy>
22

>  <SCORE.norm>
-0.476577

>  <RMSD>
13.340

$$$$
ligand
 OpenBabel02271912143D
libRbt.so/2013.1/901 2013/11/27
 22 23  0  0  0  0  0  0  0  0999 V2000
  -37.1512   -2.8590  -18.0206 N   0  0  0  0  0  0  0  0  0  0  0  0
  -37.1779    0.4276  -18.8268 C   0  0  1  0  0  0  0  0  0  0  0  0
  -37.7204   -0.8973  -19.0918 O   0  0  0  0  0  0  0  0  0  0  0  0
  -34.2015    2.2870  -20.2505 P   0  0  1  0  0  0  0  0  0  0  0  0
  -37.7436   -1.6244  -17.8528 C   0  0  2  0  0  0  0  0  0  0  0  0
  -35.7492   -4.3959  -18.6397 N   0  0  0  0  0  0  0  0  0  0  0  0
  -37.2061   -1.1157  -15.5838 O   0  0  0  0  0  0  0  0  0  0  0  0
  -36.8590   -0.8555  -16.9489 C   0  0  2  0  0  0  0  0  0  0  0  0
  -36.1912   -6.8438  -16.3279 N   0  0  0  0  0  0  0  0  0  0  0  0
  -38.3430    0.9991  -16.8748 O   0  0  0  0  0  0  0  0  0  0  0  0
  -37.0724    0.5283  -17.3547 C   0  0  2  0  0  0  0  0  0  0  0  0
  -36.6910   -4.9709  -17.8760 C   0  0  0  0  0  0  0  0  0  0  0  0
  -38.7024   -4.1933  -16.6461 N   0  0  0  0  0  0  0  0  0  0  0  0
  -35.5115    1.8413  -19.5131 O   0  0  0  0  0  0  0  0  0  0  0  0
  -35.8382    0.4901  -19.4760 C   0  0  0  0  0  0  0  0  0  0  0  0
  -34.3526    1.6386  -21.6743 O   0  0  0  0  0  0  0  0  0  0  0  0
  -36.0411   -3.0846  -18.7329 C   0  0  0  0  0  0  0  0  0  0  0  0
  -37.2997   -7.2071  -18.2836 O   0  0  0  0  0  0  0  0  0  0  0  0
  -36.7601   -6.4016  -17.5253 C   0  0  0  0  0  0  0  0  0  0  0  0
  -37.5757   -4.0088  -17.4799 C   0  0  0  0  0  0  0  0  0  0  0  0
  -34.1094    3.7768  -20.2544 O   0  5  0  0  0  0  0  0  0  0  0  0
  -33.0093    1.9199  -19.4653 O   0  0  0  0  0  0  0  0  0  0  0  0
  1 17  1  0  0  0  0
  1 20  1  0  0  0  0
  2 15  1  6  0  0  0
  2  3  1  0  0  0  0
  2 11  1  0  0  0  0
  3  5  1  0  0  0  0
  4 16  1  6  0  0  0
  4 21  1  0  0  0  0
  4 22  2  0  0  0  0
  4 14  1  0  0  0  0
  5  1  1  6  0  0  0
  5  8  1  0  0  0  0
  6 17  2  0  0  0  0
  6 12  1  0  0  0  0
  8  7  1  1  0  0  0
  8 11  1  0  0  0  0
  9 19  1  0  0  0  0
 11 10  1  1  0  0  0
 12 20  2  0  0  0  0
 12 19  1  0  0  0  0
 13 20  1  0  0  0  0
 14 15  1  0  0  0  0
 18 19  2  0  0  0  0
M  CHG  1  21  -1
M  END
>  <CHROM.1>
40.98812868,164.70287160,53.19875584,-174.84970900,94.08807273,-36.26744019
-1.22998735,-18.44740543,1.98645210,-0.74709764,3.10721244

>  <Name>
ligand

>  <RI>
0

>  <Rbt.Current_Directory>
/home/itssahil/PROJECTS/Mol_Feturizer/Test_systems_manuscript/rnas/4xwf

>  <Rbt.Executable>
rbdock ($Id: //depot/dev/client3/rdock/2013.1/src/exe/rbdock.cxx#4 $)

>  <Rbt.Library>
libRbt.so (2013.1, Build901 2013/11/27)

>  <Rbt.Parameter_File>
/export/apps/rDock/src/rDock_2013.1_src/data/scripts/dock_solv.prm

>  <Rbt.Receptor>
prm/blind_docking_60.prm

>  <SCORE>
-10.644

>  <SCORE.INTER>
-9.98201

>  <SCORE.INTER.CONST>
1

>  <SCORE.INTER.POLAR>
0

>  <SCORE.INTER.ROT>
5

>  <SCORE.INTER.SOLV>
25.0616

>  <SCORE.INTER.VDW>
-21.9419

>  <SCORE.INTER.norm>
-0.453728

>  <SCORE.INTRA>
-0.662007

>  <SCORE.INTRA.DIHEDRAL>
-0.386609

>  <SCORE.INTRA.DIHEDRAL.0>
3.49807

>  <SCORE.INTRA.POLAR>
0

>  <SCORE.INTRA.POLAR.0>
0

>  <SCORE.INTRA.REPUL>
0

>  <SCORE.INTRA.REPUL.0>
0

>  <SCORE.INTRA.SOLV>
-0.566867

>  <SCORE.INTRA.SOLV.lig_0>
-73.062

>  <SCORE.INTRA.VDW>
-0.185269

>  <SCORE.INTRA.VDW.0>
-1.83782

>  <SCORE.INTRA.norm>
-0.0300912

>  <SCORE.RESTR>
0

>  <SCORE.RESTR.CAVITY>
0

>  <SCORE.RESTR.norm>
0

>  <SCORE.SYSTEM>
0

>  <SCORE.SYSTEM.CONST>
0

>  <SCORE.SYSTEM.DIHEDRAL>
0

>  <SCORE.SYSTEM.SOLV>
0

>  <SCORE.SYSTEM.norm>
0

>  <SCORE.heavy>
22

>  <SCORE.norm>
-0.483819

>  <RMSD>
13.343

$$$$
ligand
 OpenBabel02271912143D
libRbt.so/2013.1/901 2013/11/27
 22 23  0  0  0  0  0  0  0  0999 V2000
  -33.9539   -6.5023  -14.1663 N   0  0  0  0  0  0  0  0  0  0  0  0
  -34.8563   -3.8936  -16.1241 C   0  0  1  0  0  0  0  0  0  0  0  0
  -34.5921   -5.3231  -16.0430 O   0  0  0  0  0  0  0  0  0  0  0  0
  -33.5537   -3.2692  -18.7210 P   0  0  1  0  0  0  0  0  0  0  0  0
  -34.9782   -5.7733  -14.7343 C   0  0  2  0  0  0  0  0  0  0  0  0
  -32.2612   -7.0346  -12.9164 N   0  0  0  0  0  0  0  0  0  0  0  0
  -35.9862   -4.7554  -12.8255 O   0  0  0  0  0  0  0  0  0  0  0  0
  -35.1048   -4.5353  -13.9330 C   0  0  2  0  0  0  0  0  0  0  0  0
  -31.3034   -9.9311  -14.6929 N   0  0  0  0  0  0  0  0  0  0  0  0
  -36.9927   -3.7848  -15.1657 O   0  0  0  0  0  0  0  0  0  0  0  0
  -35.6005   -3.5550  -14.8913 C   0  0  2  0  0  0  0  0  0  0  0  0
  -32.6164   -8.1179  -13.6241 C   0  0  0  0  0  0  0  0  0  0  0  0
  -34.3751   -8.6542  -15.2923 N   0  0  0  0  0  0  0  0  0  0  0  0
  -32.9277   -3.6584  -17.3371 O   0  0  0  0  0  0  0  0  0  0  0  0
  -33.5352   -3.2061  -16.1709 C   0  0  0  0  0  0  0  0  0  0  0  0
  -34.4807   -2.0506  -18.3658 O   0  0  0  0  0  0  0  0  0  0  0  0
  -33.0902   -6.0304  -13.2598 C   0  0  0  0  0  0  0  0  0  0  0  0
  -32.0069  -10.1127  -12.5347 O   0  0  0  0  0  0  0  0  0  0  0  0
  -31.9628   -9.4384  -13.5636 C   0  0  0  0  0  0  0  0  0  0  0  0
  -33.6836   -7.7914  -14.4114 C   0  0  0  0  0  0  0  0  0  0  0  0
  -32.4660   -2.9576  -19.6945 O   0  5  0  0  0  0  0  0  0  0  0  0
  -34.1899   -4.4385  -19.3540 O   0  0  0  0  0  0  0  0  0  0  0  0
  1 17  1  0  0  0  0
  1 20  1  0  0  0  0
  2 15  1  1  0  0  0
  2  3  1  0  0  0  0
  2 11  1  0  0  0  0
  3  5  1  0  0  0  0
  4 16  1  1  0  0  0
  4 21  1  0  0  0  0
  4 22  2  0  0  0  0
  4 14  1  0  0  0  0
  5  1  1  1  0  0  0
  5  8  1  0  0  0  0
  6 17  2  0  0  0  0
  6 12  1  0  0  0  0
  8  7  1  1  0  0  0
  8 11  1  0  0  0  0
  9 19  1  0  0  0  0
 11 10  1  6  0  0  0
 12 20  2  0  0  0  0
 12 19  1  0  0  0  0
 13 20  1  0  0  0  0
 14 15  1  0  0  0  0
 18 19  2  0  0  0  0
M  CHG  1  21  -1
M  END
>  <CHROM.1>
100.31370141,62.24423824,17.89213856,66.26264335,-115.00719386,-33.85326349
-5.46114697,-15.62541573,1.31489756,-0.77713211,2.25549093

>  <Name>
ligand

>  <RI>
0

>  <Rbt.Current_Directory>
/home/itssahil/PROJECTS/Mol_Feturizer/Test_systems_manuscript/rnas/4xwf

>  <Rbt.Executable>
rbdock ($Id: //depot/dev/client3/rdock/2013.1/src/exe/rbdock.cxx#4 $)

>  <Rbt.Library>
libRbt.so (2013.1, Build901 2013/11/27)

>  <Rbt.Parameter_File>
/export/apps/rDock/src/rDock_2013.1_src/data/scripts/dock_solv.prm

>  <Rbt.Receptor>
prm/blind_docking_40.prm

>  <SCORE>
-4.78183

>  <SCORE.INTER>
-9.08913

>  <SCORE.INTER.CONST>
1

>  <SCORE.INTER.POLAR>
0

>  <SCORE.INTER.ROT>
5

>  <SCORE.INTER.SOLV>
15.0175

>  <SCORE.INTER.VDW>
-17.9986

>  <SCORE.INTER.norm>
-0.413142

>  <SCORE.INTRA>
3.90097

>  <SCORE.INTRA.DIHEDRAL>
0.242992

>  <SCORE.INTRA.DIHEDRAL.0>
3.49807

>  <SCORE.INTRA.POLAR>
0

>  <SCORE.INTRA.POLAR.0>
0

>  <SCORE.INTRA.REPUL>
0

>  <SCORE.INTRA.REPUL.0>
0

>  <SCORE.INTRA.SOLV>
0.795559

>  <SCORE.INTRA.SOLV.lig_0>
-73.062

>  <SCORE.INTRA.VDW>
3.38169

>  <SCORE.INTRA.VDW.0>
-1.83782

>  <SCORE.INTRA.norm>
0.177317

>  <SCORE.RESTR>
0.406337

>  <SCORE.RESTR.CAVITY>
0.406337

>  <SCORE.RESTR.norm>
0.0184698

>  <SCORE.SYSTEM>
0

>  <SCORE.SYSTEM.CONST>
0

>  <SCORE.SYSTEM.DIHEDRAL>
0

>  <SCORE.SYSTEM.SOLV>
0

>  <SCORE.SYSTEM.norm>
0

>  <SCORE.heavy>
22

>  <SCORE.norm>
-0.217356

>  <RMSD>
13.378

$$$$
ligand
 OpenBabel02271912143D
libRbt.so/2013.1/901 2013/11/27
 22 23  0  0  0  0  0  0  0  0999 V2000
  -36.2009   -0.1474  -17.9506 N   0  0  0  0  0  0  0  0  0  0  0  0
  -35.7248    2.3670  -20.1651 C   0  0  1  0  0  0  0  0  0  0  0  0
  -35.5744    1.9068  -18.7920 O   0  0  0  0  0  0  0  0  0  0  0  0
  -38.5273    4.1111  -22.0103 P   0  0  1  0  0  0  0  0  0  0  0  0
  -35.3406    0.4894  -18.8209 C   0  0  2  0  0  0  0  0  0  0  0  0
  -37.8981   -0.5260  -16.6517 N   0  0  0  0  0  0  0  0  0  0  0  0
  -35.0674   -1.1441  -20.5394 O   0  0  0  0  0  0  0  0  0  0  0  0
  -35.7383    0.0705  -20.1837 C   0  0  2  0  0  0  0  0  0  0  0  0
  -36.4929   -3.4365  -15.1274 N   0  0  0  0  0  0  0  0  0  0  0  0
  -33.9442    1.2498  -21.2023 O   0  0  0  0  0  0  0  0  0  0  0  0
  -35.3688    1.2097  -21.0149 C   0  0  2  0  0  0  0  0  0  0  0  0
  -37.1558   -1.6425  -16.7074 C   0  0  0  0  0  0  0  0  0  0  0  0
  -35.0755   -2.3389  -17.8697 N   0  0  0  0  0  0  0  0  0  0  0  0
  -37.2132    3.3652  -21.5914 O   0  0  0  0  0  0  0  0  0  0  0  0
  -37.1520    2.7565  -20.3426 C   0  0  0  0  0  0  0  0  0  0  0  0
  -38.6614    5.2395  -20.9244 O   0  0  0  0  0  0  0  0  0  0  0  0
  -37.2991    0.4034  -17.4203 C   0  0  0  0  0  0  0  0  0  0  0  0
  -38.5071   -3.4977  -16.1880 O   0  0  0  0  0  0  0  0  0  0  0  0
  -37.4447   -2.9047  -16.0016 C   0  0  0  0  0  0  0  0  0  0  0  0
  -36.0869   -1.4128  -17.5259 C   0  0  0  0  0  0  0  0  0  0  0  0
  -38.3966    4.6107  -23.4107 O   0  5  0  0  0  0  0  0  0  0  0  0
  -39.6480    3.1624  -22.1391 O   0  0  0  0  0  0  0  0  0  0  0  0
  1 17  1  0  0  0  0
  1 20  1  0  0  0  0
  2 15  1  1  0  0  0
  2  3  1  0  0  0  0
  2 11  1  0  0  0  0
  3  5  1  0  0  0  0
  4 16  1  1  0  0  0
  4 21  1  0  0  0  0
  4 22  2  0  0  0  0
  4 14  1  0  0  0  0
  5  1  1  1  0  0  0
  5  8  1  0  0  0  0
  6 17  2  0  0  0  0
  6 12  1  0  0  0  0
  8  7  1  6  0  0  0
  8 11  1  0  0  0  0
  9 19  1  0  0  0  0
 11 10  1  1  0  0  0
 12 20  2  0  0  0  0
 12 19  1  0  0  0  0
 13 20  1  0  0  0  0
 14 15  1  0  0  0  0
 18 19  2  0  0  0  0
M  CHG  1  21  -1
M  END
>  <CHROM.1>
15.62514537,171.69497177,60.96522978,-170.12642397,-122.54462527,-36.86915665
0.91469509,-19.46559653,-1.40449610,0.34683598,-0.75934010

>  <Name>
ligand

>  <RI>
0

>  <Rbt.Current_Directory>
/home/itssahil/PROJECTS/Mol_Feturizer/Test_systems_manuscript/rnas/4xwf

>  <Rbt.Executable>
rbdock ($Id: //depot/dev/client3/rdock/2013.1/src/exe/rbdock.cxx#4 $)

>  <Rbt.Library>
libRbt.so (2013.1, Build901 2013/11/27)

>  <Rbt.Parameter_File>
/export/apps/rDock/src/rDock_2013.1_src/data/scripts/dock_solv.prm

>  <Rbt.Receptor>
prm/blind_docking_100.prm

>  <SCORE>
-8.32264

>  <SCORE.INTER>
-7.85923

>  <SCORE.INTER.CONST>
1

>  <SCORE.INTER.POLAR>
0

>  <SCORE.INTER.ROT>
5

>  <SCORE.INTER.SOLV>
16.2873

>  <SCORE.INTER.VDW>
-17.6019

>  <SCORE.INTER.norm>
-0.357238

>  <SCORE.INTRA>
-0.463411

>  <SCORE.INTRA.DIHEDRAL>
-1.30404

>  <SCORE.INTRA.DIHEDRAL.0>
3.49807

>  <SCORE.INTRA.POLAR>
0

>  <SCORE.INTRA.POLAR.0>
0

>  <SCORE.INTRA.REPUL>
0

>  <SCORE.INTRA.REPUL.0>
0

>  <SCORE.INTRA.SOLV>
0.608622

>  <SCORE.INTRA.SOLV.lig_0>
-73.062

>  <SCORE.INTRA.VDW>
-0.115704

>  <SCORE.INTRA.VDW.0>
-1.83782

>  <SCORE.INTRA.norm>
-0.0210642

>  <SCORE.RESTR>
0

>  <SCORE.RESTR.CAVITY>
0

>  <SCORE.RESTR.norm>
0

>  <SCORE.SYSTEM>
0

>  <SCORE.SYSTEM.CONST>
0

>  <SCORE.SYSTEM.DIHEDRAL>
0

>  <SCORE.SYSTEM.SOLV>
0

>  <SCORE.SYSTEM.norm>
0

>  <SCORE.heavy>
22

>  <SCORE.norm>
-0.378302

>  <RMSD>
13.393

$$$$
ligand
 OpenBabel02271912143D
libRbt.so/2013.1/901 2013/11/27
 22 23  0  0  0  0  0  0  0  0999 V2000
  -37.2355   -2.9185  -18.0234 N   0  0  0  0  0  0  0  0  0  0  0  0
  -37.2149    0.3833  -18.7652 C   0  0  1  0  0  0  0  0  0  0  0  0
  -37.7918   -0.9247  -19.0409 O   0  0  0  0  0  0  0  0  0  0  0  0
  -34.2315    2.2085  -20.2186 P   0  0  1  0  0  0  0  0  0  0  0  0
  -37.7972   -1.6757  -17.8160 C   0  0  2  0  0  0  0  0  0  0  0  0
  -35.8807   -4.4707  -18.7063 N   0  0  0  0  0  0  0  0  0  0  0  0
  -37.1892   -1.2230  -15.5529 O   0  0  0  0  0  0  0  0  0  0  0  0
  -36.8731   -0.9429  -16.9216 C   0  0  2  0  0  0  0  0  0  0  0  0
  -37.9529   -7.2375  -18.1516 N   0  0  0  0  0  0  0  0  0  0  0  0
  -38.3155    0.9397  -16.7718 O   0  0  0  0  0  0  0  0  0  0  0  0
  -37.0683    0.4527  -17.2948 C   0  0  2  0  0  0  0  0  0  0  0  0
  -36.8179   -5.0423  -17.9345 C   0  0  0  0  0  0  0  0  0  0  0  0
  -38.7849   -4.2496  -16.6438 N   0  0  0  0  0  0  0  0  0  0  0  0
  -35.5339    1.7750  -19.4606 O   0  0  0  0  0  0  0  0  0  0  0  0
  -35.8919    0.4313  -19.4490 C   0  0  0  0  0  0  0  0  0  0  0  0
  -34.5069    1.7499  -21.6965 O   0  0  0  0  0  0  0  0  0  0  0  0
  -36.1462   -3.1517  -18.7648 C   0  0  0  0  0  0  0  0  0  0  0  0
  -36.0876   -7.0074  -16.8657 O   0  0  0  0  0  0  0  0  0  0  0  0
  -36.9102   -6.4786  -17.6132 C   0  0  0  0  0  0  0  0  0  0  0  0
  -37.6728   -4.0707  -17.4982 C   0  0  0  0  0  0  0  0  0  0  0  0
  -34.0200    3.6769  -20.0543 O   0  5  0  0  0  0  0  0  0  0  0  0
  -33.0343    1.6620  -19.5548 O   0  0  0  0  0  0  0  0  0  0  0  0
  1 17  1  0  0  0  0
  1 20  1  0  0  0  0
  2 15  1  6  0  0  0
  2  3  1  0  0  0  0
  2 11  1  0  0  0  0
  3  5  1  0  0  0  0
  4 16  1  6  0  0  0
  4 21  1  0  0  0  0
  4 22  2  0  0  0  0
  4 14  1  0  0  0  0
  5  1  1  6  0  0  0
  5  8  1  0  0  0  0
  6 17  2  0  0  0  0
  6 12  1  0  0  0  0
  8  7  1  1  0  0  0
  8 11  1  0  0  0  0
  9 19  1  0  0  0  0
 11 10  1  1  0  0  0
 12 20  2  0  0  0  0
 12 19  1  0  0  0  0
 13 20  1  0  0  0  0
 14 15  1  0  0  0  0
 18 19  2  0  0  0  0
M  CHG  1  21  -1
M  END
>  <CHROM.1>
41.29578490,165.10706308,59.66644872,-175.01479910,-110.16353439,-36.32952700
-1.30002117,-18.43878866,2.00592005,-0.74385619,3.13275287

>  <Name>
ligand

>  <RI>
0

>  <Rbt.Current_Directory>
/home/itssahil/PROJECTS/Mol_Feturizer/Test_systems_manuscript/rnas/4xwf

>  <Rbt.Executable>
rbdock ($Id: //depot/dev/client3/rdock/2013.1/src/exe/rbdock.cxx#4 $)

>  <Rbt.Library>
libRbt.so (2013.1, Build901 2013/11/27)

>  <Rbt.Parameter_File>
/export/apps/rDock/src/rDock_2013.1_src/data/scripts/dock_solv.prm

>  <Rbt.Receptor>
prm/blind_docking_60.prm

>  <SCORE>
-11.0961

>  <SCORE.INTER>
-10.092

>  <SCORE.INTER.CONST>
1

>  <SCORE.INTER.POLAR>
0

>  <SCORE.INTER.ROT>
5

>  <SCORE.INTER.SOLV>
27.6645

>  <SCORE.INTER.VDW>
-22.8828

>  <SCORE.INTER.norm>
-0.458727

>  <SCORE.INTRA>
-1.00409

>  <SCORE.INTRA.DIHEDRAL>
-1.04535

>  <SCORE.INTRA.DIHEDRAL.0>
3.49807

>  <SCORE.INTRA.POLAR>
0

>  <SCORE.INTRA.POLAR.0>
0

>  <SCORE.INTRA.REPUL>
0

>  <SCORE.INTRA.REPUL.0>
0

>  <SCORE.INTRA.SOLV>
-0.431432

>  <SCORE.INTRA.SOLV.lig_0>
-73.062

>  <SCORE.INTRA.VDW>
-0.265702

>  <SCORE.INTRA.VDW.0>
-1.83782

>  <SCORE.INTRA.norm>
-0.0456405

>  <SCORE.RESTR>
0

>  <SCORE.RESTR.CAVITY>
0

>  <SCORE.RESTR.norm>
0

>  <SCORE.SYSTEM>
0

>  <SCORE.SYSTEM.CONST>
0

>  <SCORE.SYSTEM.DIHEDRAL>
0

>  <SCORE.SYSTEM.SOLV>
0

>  <SCORE.SYSTEM.norm>
0

>  <SCORE.heavy>
22

>  <SCORE.norm>
-0.504368

>  <RMSD>
13.418

$$$$
ligand
 OpenBabel02271912143D
libRbt.so/2013.1/901 2013/11/27
 22 23  0  0  0  0  0  0  0  0999 V2000
  -33.2940   -3.5256  -17.1537 N   0  0  0  0  0  0  0  0  0  0  0  0
  -34.4430   -4.0227  -14.0097 C   0  0  1  0  0  0  0  0  0  0  0  0
  -33.2905   -3.7574  -14.8590 O   0  0  0  0  0  0  0  0  0  0  0  0
  -33.6694   -7.6952  -13.4935 P   0  0  1  0  0  0  0  0  0  0  0  0
  -33.7317   -2.9636  -15.9723 C   0  0  2  0  0  0  0  0  0  0  0  0
  -32.1208   -3.8883  -18.9435 N   0  0  0  0  0  0  0  0  0  0  0  0
  -35.8016   -1.9719  -16.6266 O   0  0  0  0  0  0  0  0  0  0  0  0
  -35.2060   -3.0955  -15.9674 C   0  0  2  0  0  0  0  0  0  0  0  0
  -32.1703   -6.4316  -20.5417 N   0  0  0  0  0  0  0  0  0  0  0  0
  -35.4287   -1.8975  -13.9272 O   0  0  0  0  0  0  0  0  0  0  0  0
  -35.5379   -3.1880  -14.5509 C   0  0  2  0  0  0  0  0  0  0  0  0
  -33.0612   -4.8417  -18.8586 C   0  0  0  0  0  0  0  0  0  0  0  0
  -34.8773   -5.4115  -17.2646 N   0  0  0  0  0  0  0  0  0  0  0  0
  -33.6479   -6.1308  -13.5978 O   0  0  0  0  0  0  0  0  0  0  0  0
  -34.7519   -5.4752  -14.1318 C   0  0  0  0  0  0  0  0  0  0  0  0
  -32.3072   -8.0264  -12.7828 O   0  0  0  0  0  0  0  0  0  0  0  0
  -32.2717   -3.0682  -17.8860 C   0  0  0  0  0  0  0  0  0  0  0  0
  -34.3828   -6.4168  -20.0031 O   0  0  0  0  0  0  0  0  0  0  0  0
  -33.2623   -5.9410  -19.8208 C   0  0  0  0  0  0  0  0  0  0  0  0
  -33.8021   -4.6218  -17.7325 C   0  0  0  0  0  0  0  0  0  0  0  0
  -34.8829   -8.1319  -12.7421 O   0  5  0  0  0  0  0  0  0  0  0  0
  -33.9060   -8.3037  -14.8151 O   0  0  0  0  0  0  0  0  0  0  0  0
  1 17  1  0  0  0  0
  1 20  1  0  0  0  0
  2 15  1  6  0  0  0
  2  3  1  0  0  0  0
  2 11  1  0  0  0  0
  3  5  1  0  0  0  0
  4 16  1  1  0  0  0
  4 21  1  0  0  0  0
  4 22  2  0  0  0  0
  4 14  1  0  0  0  0
  5  1  1  6  0  0  0
  5  8  1  0  0  0  0
  6 17  2  0  0  0  0
  6 12  1  0  0  0  0
  8  7  1  1  0  0  0
  8 11  1  0  0  0  0
  9 19  1  0  0  0  0
 11 10  1  1  0  0  0
 12 20  2  0  0  0  0
 12 19  1  0  0  0  0
 13 20  1  0  0  0  0
 14 15  1  0  0  0  0
 18 19  2  0  0  0  0
M  CHG  1  21  -1
M  END
>  <CHROM.1>
-103.74487678,64.56684822,-177.03750775,176.65935992,29.04346431,-33.91445260
-5.14568598,-15.92301768,1.31238613,1.22661811,-0.88573840

>  <Name>
ligand

>  <RI>
0

>  <Rbt.Current_Directory>
/home/itssahil/PROJECTS/Mol_Feturizer/Test_systems_manuscript/rnas/4xwf

>  <Rbt.Executable>
rbdock ($Id: //depot/dev/client3/rdock/2013.1/src/exe/rbdock.cxx#4 $)

>  <Rbt.Library>
libRbt.so (2013.1, Build901 2013/11/27)

>  <Rbt.Parameter_File>
/export/apps/rDock/src/rDock_2013.1_src/data/scripts/dock_solv.prm

>  <Rbt.Receptor>
prm/blind_docking_40.prm

>  <SCORE>
-8.18815

>  <SCORE.INTER>
-12.8426

>  <SCORE.INTER.CONST>
1

>  <SCORE.INTER.POLAR>
0

>  <SCORE.INTER.ROT>
5

>  <SCORE.INTER.SOLV>
10.9058

>  <SCORE.INTER.VDW>
-19.1303

>  <SCORE.INTER.norm>
-0.583755

>  <SCORE.INTRA>
3.10291

>  <SCORE.INTRA.DIHEDRAL>
-1.0629

>  <SCORE.INTRA.DIHEDRAL.0>
3.49807

>  <SCORE.INTRA.POLAR>
0

>  <SCORE.INTRA.POLAR.0>
0

>  <SCORE.INTRA.REPUL>
0

>  <SCORE.INTRA.REPUL.0>
0

>  <SCORE.INTRA.SOLV>
5.60729

>  <SCORE.INTRA.SOLV.lig_0>
-73.062

>  <SCORE.INTRA.VDW>
0.830717

>  <SCORE.INTRA.VDW.0>
-1.83782

>  <SCORE.INTRA.norm>
0.141042

>  <SCORE.RESTR>
1.55155

>  <SCORE.RESTR.CAVITY>
1.55155

>  <SCORE.RESTR.norm>
0.0705251

>  <SCORE.SYSTEM>
0

>  <SCORE.SYSTEM.CONST>
0

>  <SCORE.SYSTEM.DIHEDRAL>
0

>  <SCORE.SYSTEM.SOLV>
0

>  <SCORE.SYSTEM.norm>
0

>  <SCORE.heavy>
22

>  <SCORE.norm>
-0.372189

>  <RMSD>
13.481

$$$$
ligand
 OpenBabel02271912143D
libRbt.so/2013.1/901 2013/11/27
 22 23  0  0  0  0  0  0  0  0999 V2000
  -34.0385   -6.4559  -13.8847 N   0  0  0  0  0  0  0  0  0  0  0  0
  -35.5814   -5.2050  -16.6247 C   0  0  1  0  0  0  0  0  0  0  0  0
  -35.5404   -6.2622  -15.6244 O   0  0  0  0  0  0  0  0  0  0  0  0
  -33.1380   -3.5604  -18.5522 P   0  0  1  0  0  0  0  0  0  0  0  0
  -35.0684   -5.6917  -14.3932 C   0  0  2  0  0  0  0  0  0  0  0  0
  -32.3409   -7.0728  -12.6812 N   0  0  0  0  0  0  0  0  0  0  0  0
  -34.4704   -3.4986  -13.6660 O   0  0  0  0  0  0  0  0  0  0  0  0
  -34.4730   -4.3941  -14.7839 C   0  0  2  0  0  0  0  0  0  0  0  0
  -31.4444   -9.8532  -14.7085 N   0  0  0  0  0  0  0  0  0  0  0  0
  -36.5767   -3.4742  -15.3966 O   0  0  0  0  0  0  0  0  0  0  0  0
  -35.3128   -3.9498  -15.8895 C   0  0  2  0  0  0  0  0  0  0  0  0
  -32.6893   -8.0996  -13.4717 C   0  0  0  0  0  0  0  0  0  0  0  0
  -34.4459   -8.5155  -15.1761 N   0  0  0  0  0  0  0  0  0  0  0  0
  -34.4668   -4.3867  -18.4506 O   0  0  0  0  0  0  0  0  0  0  0  0
  -34.5080   -5.4979  -17.6157 C   0  0  0  0  0  0  0  0  0  0  0  0
  -32.9245   -3.0420  -17.0837 O   0  0  0  0  0  0  0  0  0  0  0  0
  -33.1772   -6.0506  -12.9442 C   0  0  0  0  0  0  0  0  0  0  0  0
  -31.9958  -10.1356  -12.5172 O   0  0  0  0  0  0  0  0  0  0  0  0
  -32.0265   -9.4162  -13.5155 C   0  0  0  0  0  0  0  0  0  0  0  0
  -33.7595   -7.7197  -14.2304 C   0  0  0  0  0  0  0  0  0  0  0  0
  -32.0420   -4.4331  -19.0670 O   0  5  0  0  0  0  0  0  0  0  0  0
  -33.2333   -2.5468  -19.6180 O   0  0  0  0  0  0  0  0  0  0  0  0
  1 17  1  0  0  0  0
  1 20  1  0  0  0  0
  2 15  1  6  0  0  0
  2  3  1  0  0  0  0
  2 11  1  0  0  0  0
  3  5  1  0  0  0  0
  4 16  1  1  0  0  0
  4 21  1  0  0  0  0
  4 22  2  0  0  0  0
  4 14  1  0  0  0  0
  5  1  1  6  0  0  0
  5  8  1  0  0  0  0
  6 17  2  0  0  0  0
  6 12  1  0  0  0  0
  8  7  1  1  0  0  0
  8 11  1  0  0  0  0
  9 19  1  0  0  0  0
 11 10  1  1  0  0  0
 12 20  2  0  0  0  0
 12 19  1  0  0  0  0
 13 20  1  0  0  0  0
 14 15  1  0  0  0  0
 18 19  2  0  0  0  0
M  CHG  1  21  -1
M  END
>  <CHROM.1>
163.37573412,-172.64619927,-61.66135812,120.02588533,-119.39441015,-33.76211672
-5.66589249,-15.70384729,1.34130240,-0.78746795,2.23241205

>  <Name>
ligand

>  <RI>
0

>  <Rbt.Current_Directory>
/home/itssahil/PROJECTS/Mol_Feturizer/Test_systems_manuscript/rnas/4xwf

>  <Rbt.Executable>
rbdock ($Id: //depot/dev/client3/rdock/2013.1/src/exe/rbdock.cxx#4 $)

>  <Rbt.Library>
libRbt.so (2013.1, Build901 2013/11/27)

>  <Rbt.Parameter_File>
/export/apps/rDock/src/rDock_2013.1_src/data/scripts/dock_solv.prm

>  <Rbt.Receptor>
prm/blind_docking_40.prm

>  <SCORE>
-4.6231

>  <SCORE.INTER>
-9.43872

>  <SCORE.INTER.CONST>
1

>  <SCORE.INTER.POLAR>
0

>  <SCORE.INTER.ROT>
5

>  <SCORE.INTER.SOLV>
16.2412

>  <SCORE.INTER.VDW>
-18.6395

>  <SCORE.INTER.norm>
-0.429033

>  <SCORE.INTRA>
4.77662

>  <SCORE.INTRA.DIHEDRAL>
5.40491

>  <SCORE.INTRA.DIHEDRAL.0>
3.49807

>  <SCORE.INTRA.POLAR>
0

>  <SCORE.INTRA.POLAR.0>
0

>  <SCORE.INTRA.REPUL>
0

>  <SCORE.INTRA.REPUL.0>
0

>  <SCORE.INTRA.SOLV>
2.48581

>  <SCORE.INTRA.SOLV.lig_0>
-73.062

>  <SCORE.INTRA.VDW>
0.831263

>  <SCORE.INTRA.VDW.0>
-1.83782

>  <SCORE.INTRA.norm>
0.217119

>  <SCORE.RESTR>
0.039

>  <SCORE.RESTR.CAVITY>
0.039

>  <SCORE.RESTR.norm>
0.00177273

>  <SCORE.SYSTEM>
0

>  <SCORE.SYSTEM.CONST>
0

>  <SCORE.SYSTEM.DIHEDRAL>
0

>  <SCORE.SYSTEM.SOLV>
0

>  <SCORE.SYSTEM.norm>
0

>  <SCORE.heavy>
22

>  <SCORE.norm>
-0.210141

>  <RMSD>
13.509

$$$$
ligand
 OpenBabel02271912143D
libRbt.so/2013.1/901 2013/11/27
 22 23  0  0  0  0  0  0  0  0999 V2000
  -33.9165   -3.5745  -17.8037 N   0  0  0  0  0  0  0  0  0  0  0  0
  -34.4378   -3.4885  -14.4610 C   0  0  1  0  0  0  0  0  0  0  0  0
  -33.5768   -3.1059  -15.5710 O   0  0  0  0  0  0  0  0  0  0  0  0
  -34.5101   -6.5423  -12.2306 P   0  0  1  0  0  0  0  0  0  0  0  0
  -34.4080   -2.8762  -16.7202 C   0  0  2  0  0  0  0  0  0  0  0  0
  -32.9029   -4.0194  -19.6707 N   0  0  0  0  0  0  0  0  0  0  0  0
  -36.7578   -2.8941  -17.1376 O   0  0  0  0  0  0  0  0  0  0  0  0
  -35.7061   -3.4984  -16.3757 C   0  0  2  0  0  0  0  0  0  0  0  0
  -32.4600   -6.6459  -20.9375 N   0  0  0  0  0  0  0  0  0  0  0  0
  -36.1550   -1.9066  -14.6692 O   0  0  0  0  0  0  0  0  0  0  0  0
  -35.8219   -3.2786  -14.9392 C   0  0  2  0  0  0  0  0  0  0  0  0
  -33.3682   -5.1706  -19.1620 C   0  0  0  0  0  0  0  0  0  0  0  0
  -34.6159   -5.8376  -17.1219 N   0  0  0  0  0  0  0  0  0  0  0  0
  -34.7805   -5.1758  -12.9505 O   0  0  0  0  0  0  0  0  0  0  0  0
  -34.1708   -4.9262  -14.1751 C   0  0  0  0  0  0  0  0  0  0  0  0
  -32.9649   -6.4987  -11.9463 O   0  0  0  0  0  0  0  0  0  0  0  0
  -33.2503   -3.0284  -18.8277 C   0  0  0  0  0  0  0  0  0  0  0  0
  -33.7678   -7.4868  -19.2737 O   0  0  0  0  0  0  0  0  0  0  0  0
  -33.2188   -6.5045  -19.7726 C   0  0  0  0  0  0  0  0  0  0  0  0
  -34.0050   -4.8989  -17.9847 C   0  0  0  0  0  0  0  0  0  0  0  0
  -35.3625   -6.6442  -11.0096 O   0  5  0  0  0  0  0  0  0  0  0  0
  -35.0158   -7.6670  -13.0380 O   0  0  0  0  0  0  0  0  0  0  0  0
  1 17  1  0  0  0  0
  1 20  1  0  0  0  0
  2 15  1  6  0  0  0
  2  3  1  0  0  0  0
  2 11  1  0  0  0  0
  3  5  1  0  0  0  0
  4 16  1  1  0  0  0
  4 21  1  0  0  0  0
  4 22  2  0  0  0  0
  4 14  1  0  0  0  0
  5  1  1  6  0  0  0
  5  8  1  0  0  0  0
  6 17  2  0  0  0  0
  6 12  1  0  0  0  0
  8  7  1  6  0  0  0
  8 11  1  0  0  0  0
  9 19  1  0  0  0  0
 11 10  1  6  0  0  0
 12 20  2  0  0  0  0
 12 19  1  0  0  0  0
 13 20  1  0  0  0  0
 14 15  1  0  0  0  0
 18 19  2  0  0  0  0
M  CHG  1  21  -1
M  END
>  <CHROM.1>
-104.58774404,167.55474403,62.92508751,-170.53727291,4.53248432,-34.37016622
-4.92653844,-15.82455327,1.14796091,1.16408337,-1.03764377

>  <Name>
ligand

>  <RI>
0

>  <Rbt.Current_Directory>
/home/itssahil/PROJECTS/Mol_Feturizer/Test_systems_manuscript/rnas/4xwf

>  <Rbt.Executable>
rbdock ($Id: //depot/dev/client3/rdock/2013.1/src/exe/rbdock.cxx#4 $)

>  <Rbt.Library>
libRbt.so (2013.1, Build901 2013/11/27)

>  <Rbt.Parameter_File>
/export/apps/rDock/src/rDock_2013.1_src/data/scripts/dock_solv.prm

>  <Rbt.Receptor>
prm/blind_docking_60.prm

>  <SCORE>
-8.68911

>  <SCORE.INTER>
-11.2372

>  <SCORE.INTER.CONST>
1

>  <SCORE.INTER.POLAR>
0

>  <SCORE.INTER.ROT>
5

>  <SCORE.INTER.SOLV>
10.9154

>  <SCORE.INTER.VDW>
-18.0633

>  <SCORE.INTER.norm>
-0.510782

>  <SCORE.INTRA>
2.54809

>  <SCORE.INTRA.DIHEDRAL>
-1.03055

>  <SCORE.INTRA.DIHEDRAL.0>
3.49807

>  <SCORE.INTRA.POLAR>
0

>  <SCORE.INTRA.POLAR.0>
0

>  <SCORE.INTRA.REPUL>
0

>  <SCORE.INTRA.REPUL.0>
0

>  <SCORE.INTRA.SOLV>
4.21884

>  <SCORE.INTRA.SOLV.lig_0>
-73.062

>  <SCORE.INTRA.VDW>
0.953945

>  <SCORE.INTRA.VDW.0>
-1.83782

>  <SCORE.INTRA.norm>
0.115822

>  <SCORE.RESTR>
0

>  <SCORE.RESTR.CAVITY>
0

>  <SCORE.RESTR.norm>
0

>  <SCORE.SYSTEM>
0

>  <SCORE.SYSTEM.CONST>
0

>  <SCORE.SYSTEM.DIHEDRAL>
0

>  <SCORE.SYSTEM.SOLV>
0

>  <SCORE.SYSTEM.norm>
0

>  <SCORE.heavy>
22

>  <SCORE.norm>
-0.39496

>  <RMSD>
13.528

$$$$
ligand
 OpenBabel02271912143D
libRbt.so/2013.1/901 2013/11/27
 22 23  0  0  0  0  0  0  0  0999 V2000
  -33.3707    4.0593  -19.6361 N   0  0  0  0  0  0  0  0  0  0  0  0
  -35.6281    2.8527  -21.8498 C   0  0  1  0  0  0  0  0  0  0  0  0
  -34.4171    3.6351  -21.6473 O   0  0  0  0  0  0  0  0  0  0  0  0
  -39.3255    3.5886  -21.4936 P   0  0  1  0  0  0  0  0  0  0  0  0
  -33.7019    3.0687  -20.5373 C   0  0  2  0  0  0  0  0  0  0  0  0
  -32.4952    5.0697  -17.9262 N   0  0  0  0  0  0  0  0  0  0  0  0
  -34.0135    1.1797  -19.1123 O   0  0  0  0  0  0  0  0  0  0  0  0
  -34.6887    2.1989  -19.8587 C   0  0  2  0  0  0  0  0  0  0  0  0
  -34.5272    7.9637  -18.0740 N   0  0  0  0  0  0  0  0  0  0  0  0
  -34.7796    0.6743  -21.6792 O   0  0  0  0  0  0  0  0  0  0  0  0
  -35.5018    1.6829  -20.9531 C   0  0  2  0  0  0  0  0  0  0  0  0
  -33.1564    5.9801  -18.6574 C   0  0  0  0  0  0  0  0  0  0  0  0
  -34.4654    5.9564  -20.7668 N   0  0  0  0  0  0  0  0  0  0  0  0
  -37.9121    3.0238  -21.8699 O   0  0  0  0  0  0  0  0  0  0  0  0
  -36.7780    3.7170  -21.4614 C   0  0  0  0  0  0  0  0  0  0  0  0
  -39.4365    3.2829  -19.9558 O   0  0  0  0  0  0  0  0  0  0  0  0
  -32.6352    3.8759  -18.5334 C   0  0  0  0  0  0  0  0  0  0  0  0
  -32.2721    8.1373  -18.3385 O   0  0  0  0  0  0  0  0  0  0  0  0
  -33.2702    7.4170  -18.3459 C   0  0  0  0  0  0  0  0  0  0  0  0
  -33.7079    5.3519  -19.7375 C   0  0  0  0  0  0  0  0  0  0  0  0
  -39.3971    5.0377  -21.8443 O   0  5  0  0  0  0  0  0  0  0  0  0
  -40.3654    3.0212  -22.3707 O   0  0  0  0  0  0  0  0  0  0  0  0
  1 17  1  0  0  0  0
  1 20  1  0  0  0  0
  2 15  1  1  0  0  0
  2  3  1  0  0  0  0
  2 11  1  0  0  0  0
  3  5  1  0  0  0  0
  4 16  1  1  0  0  0
  4 21  1  0  0  0  0
  4 22  2  0  0  0  0
  4 14  1  0  0  0  0
  5  1  1  1  0  0  0
  5  8  1  0  0  0  0
  6 17  2  0  0  0  0
  6 12  1  0  0  0  0
  8  7  1  6  0  0  0
  8 11  1  0  0  0  0
  9 19  1  0  0  0  0
 11 10  1  6  0  0  0
 12 20  2  0  0  0  0
 12 19  1  0  0  0  0
 13 20  1  0  0  0  0
 14 15  1  0  0  0  0
 18 19  2  0  0  0  0
M  CHG  1  21  -1
M  END
>  <CHROM.1>
-175.92288843,170.61156332,-73.36941122,174.27407265,-116.50563878,-35.59337142
4.05101508,-20.33525737,-0.52378241,0.32684725,-2.84282109

>  <Name>
ligand

>  <RI>
0

>  <Rbt.Current_Directory>
/home/itssahil/PROJECTS/Mol_Feturizer/Test_systems_manuscript/rnas/4xwf

>  <Rbt.Executable>
rbdock ($Id: //depot/dev/client3/rdock/2013.1/src/exe/rbdock.cxx#4 $)

>  <Rbt.Library>
libRbt.so (2013.1, Build901 2013/11/27)

>  <Rbt.Parameter_File>
/export/apps/rDock/src/rDock_2013.1_src/data/scripts/dock_solv.prm

>  <Rbt.Receptor>
prm/blind_docking_100.prm

>  <SCORE>
-7.86583

>  <SCORE.INTER>
-9.23563

>  <SCORE.INTER.CONST>
1

>  <SCORE.INTER.POLAR>
0

>  <SCORE.INTER.ROT>
5

>  <SCORE.INTER.SOLV>
15.3143

>  <SCORE.INTER.VDW>
-18.1952

>  <SCORE.INTER.norm>
-0.419801

>  <SCORE.INTRA>
1.3698

>  <SCORE.INTRA.DIHEDRAL>
-1.1714

>  <SCORE.INTRA.DIHEDRAL.0>
3.49807

>  <SCORE.INTRA.POLAR>
0

>  <SCORE.INTRA.POLAR.0>
0

>  <SCORE.INTRA.REPUL>
0

>  <SCORE.INTRA.REPUL.0>
0

>  <SCORE.INTRA.SOLV>
2.90168

>  <SCORE.INTRA.SOLV.lig_0>
-73.062

>  <SCORE.INTRA.VDW>
0.504655

>  <SCORE.INTRA.VDW.0>
-1.83782

>  <SCORE.INTRA.norm>
0.0622635

>  <SCORE.RESTR>
0

>  <SCORE.RESTR.CAVITY>
0

>  <SCORE.RESTR.norm>
0

>  <SCORE.SYSTEM>
0

>  <SCORE.SYSTEM.CONST>
0

>  <SCORE.SYSTEM.DIHEDRAL>
0

>  <SCORE.SYSTEM.SOLV>
0

>  <SCORE.SYSTEM.norm>
0

>  <SCORE.heavy>
22

>  <SCORE.norm>
-0.357538

>  <RMSD>
13.529

$$$$
ligand
 OpenBabel02271912143D
libRbt.so/2013.1/901 2013/11/27
 22 23  0  0  0  0  0  0  0  0999 V2000
  -33.9350    7.3020  -21.0842 N   0  0  0  0  0  0  0  0  0  0  0  0
  -33.9693    3.9180  -21.0874 C   0  0  1  0  0  0  0  0  0  0  0  0
  -33.8113    5.1365  -21.8686 O   0  0  0  0  0  0  0  0  0  0  0  0
  -35.5155    1.1996  -20.5335 P   0  0  1  0  0  0  0  0  0  0  0  0
  -33.2083    6.1308  -21.0247 C   0  0  2  0  0  0  0  0  0  0  0  0
  -35.6158    8.6734  -21.1553 N   0  0  0  0  0  0  0  0  0  0  0  0
  -32.3766    6.1710  -18.7881 O   0  0  0  0  0  0  0  0  0  0  0  0
  -33.3716    5.6066  -19.6502 C   0  0  2  0  0  0  0  0  0  0  0  0
  -34.4085   11.5629  -19.9065 N   0  0  0  0  0  0  0  0  0  0  0  0
  -31.8798    3.7967  -20.0320 O   0  0  0  0  0  0  0  0  0  0  0  0
  -33.2530    4.1633  -19.8166 C   0  0  2  0  0  0  0  0  0  0  0  0
  -34.4863    9.3968  -21.1131 C   0  0  0  0  0  0  0  0  0  0  0  0
  -32.0578    8.8966  -20.9886 N   0  0  0  0  0  0  0  0  0  0  0  0
  -35.5287    2.6640  -19.9731 O   0  0  0  0  0  0  0  0  0  0  0  0
  -35.4299    3.7278  -20.8633 C   0  0  0  0  0  0  0  0  0  0  0  0
  -36.6320    1.2283  -21.6395 O   0  0  0  0  0  0  0  0  0  0  0  0
  -35.2699    7.3720  -21.1434 C   0  0  0  0  0  0  0  0  0  0  0  0
  -34.3521   11.4889  -22.1818 O   0  0  0  0  0  0  0  0  0  0  0  0
  -34.4060   10.8692  -21.1196 C   0  0  0  0  0  0  0  0  0  0  0  0
  -33.4237    8.5401  -21.0651 C   0  0  0  0  0  0  0  0  0  0  0  0
  -34.1508    0.8674  -21.0387 O   0  5  0  0  0  0  0  0  0  0  0  0
  -35.6722    0.2213  -19.4422 O   0  0  0  0  0  0  0  0  0  0  0  0
  1 17  1  0  0  0  0
  1 20  1  0  0  0  0
  2 15  1  1  0  0  0
  2  3  1  0  0  0  0
  2 11  1  0  0  0  0
  3  5  1  0  0  0  0
  4 16  1  6  0  0  0
  4 21  1  0  0  0  0
  4 22  2  0  0  0  0
  4 14  1  0  0  0  0
  5  1  1  1  0  0  0
  5  8  1  0  0  0  0
  6 17  2  0  0  0  0
  6 12  1  0  0  0  0
  8  7  1  1  0  0  0
  8 11  1  0  0  0  0
  9 19  1  0  0  0  0
 11 10  1  6  0  0  0
 12 20  2  0  0  0  0
 12 19  1  0  0  0  0
 13 20  1  0  0  0  0
 14 15  1  0  0  0  0
 18 19  2  0  0  0  0
M  CHG  1  21  -1
M  END
>  <CHROM.1>
38.50148059,-172.37223387,-51.95176082,-85.19296309,90.50328866,-34.29205408
5.46115265,-20.68620061,-1.42994900,0.36462915,3.02878983

>  <Name>
ligand

>  <RI>
0

>  <Rbt.Current_Directory>
/home/itssahil/PROJECTS/Mol_Feturizer/Test_systems_manuscript/rnas/4xwf

>  <Rbt.Executable>
rbdock ($Id: //depot/dev/client3/rdock/2013.1/src/exe/rbdock.cxx#4 $)

>  <Rbt.Library>
libRbt.so (2013.1, Build901 2013/11/27)

>  <Rbt.Parameter_File>
/export/apps/rDock/src/rDock_2013.1_src/data/scripts/dock_solv.prm

>  <Rbt.Receptor>
prm/blind_docking_60.prm

>  <SCORE>
-6.16681

>  <SCORE.INTER>
-7.89363

>  <SCORE.INTER.CONST>
1

>  <SCORE.INTER.POLAR>
0

>  <SCORE.INTER.ROT>
5

>  <SCORE.INTER.SOLV>
12.7441

>  <SCORE.INTER.VDW>
-16.4438

>  <SCORE.INTER.norm>
-0.358801

>  <SCORE.INTRA>
1.7262

>  <SCORE.INTRA.DIHEDRAL>
1.76009

>  <SCORE.INTRA.DIHEDRAL.0>
3.49807

>  <SCORE.INTRA.POLAR>
0

>  <SCORE.INTRA.POLAR.0>
0

>  <SCORE.INTRA.REPUL>
0

>  <SCORE.INTRA.REPUL.0>
0

>  <SCORE.INTRA.SOLV>
1.65674

>  <SCORE.INTRA.SOLV.lig_0>
-73.062

>  <SCORE.INTRA.VDW>
0.0177808

>  <SCORE.INTRA.VDW.0>
-1.83782

>  <SCORE.INTRA.norm>
0.0784635

>  <SCORE.RESTR>
0.000622864

>  <SCORE.RESTR.CAVITY>
0.000622864

>  <SCORE.RESTR.norm>
2.8312e-05

>  <SCORE.SYSTEM>
0

>  <SCORE.SYSTEM.CONST>
0

>  <SCORE.SYSTEM.DIHEDRAL>
0

>  <SCORE.SYSTEM.SOLV>
0

>  <SCORE.SYSTEM.norm>
0

>  <SCORE.heavy>
22

>  <SCORE.norm>
-0.280309

>  <RMSD>
13.532

$$$$
ligand
 OpenBabel02271912143D
libRbt.so/2013.1/901 2013/11/27
 22 23  0  0  0  0  0  0  0  0999 V2000
  -36.7512    3.6616  -21.9210 N   0  0  0  0  0  0  0  0  0  0  0  0
  -33.9954    4.9356  -20.4261 C   0  0  1  0  0  0  0  0  0  0  0  0
  -35.4454    4.8054  -20.4024 O   0  0  0  0  0  0  0  0  0  0  0  0
  -33.8691    7.8724  -19.7669 P   0  0  1  0  0  0  0  0  0  0  0  0
  -35.7855    3.5197  -20.9461 C   0  0  2  0  0  0  0  0  0  0  0  0
  -37.6845    3.9401  -23.8607 N   0  0  0  0  0  0  0  0  0  0  0  0
  -34.5488    1.6379  -21.7369 O   0  0  0  0  0  0  0  0  0  0  0  0
  -34.5573    3.0667  -21.6368 C   0  0  2  0  0  0  0  0  0  0  0  0
  -40.5689    4.1472  -24.4773 N   0  0  0  0  0  0  0  0  0  0  0  0
  -33.3506    2.8379  -19.6025 O   0  0  0  0  0  0  0  0  0  0  0  0
  -33.4816    3.6033  -20.8122 C   0  0  2  0  0  0  0  0  0  0  0  0
  -38.6535    3.7384  -22.9545 C   0  0  0  0  0  0  0  0  0  0  0  0
  -38.7413    3.2964  -20.5132 N   0  0  0  0  0  0  0  0  0  0  0  0
  -34.3470    7.1108  -21.0516 O   0  0  0  0  0  0  0  0  0  0  0  0
  -33.6650    5.9663  -21.4500 C   0  0  0  0  0  0  0  0  0  0  0  0
  -34.5175    7.0460  -18.5976 O   0  0  0  0  0  0  0  0  0  0  0  0
  -36.5037    3.8979  -23.2146 C   0  0  0  0  0  0  0  0  0  0  0  0
  -40.8985    3.3366  -22.3749 O   0  0  0  0  0  0  0  0  0  0  0  0
  -40.1015    3.7162  -23.2327 C   0  0  0  0  0  0  0  0  0  0  0  0
  -38.0734    3.5592  -21.7311 C   0  0  0  0  0  0  0  0  0  0  0  0
  -32.3776    7.9222  -19.7381 O   0  5  0  0  0  0  0  0  0  0  0  0
  -34.2104    9.3038  -19.8510 O   0  0  0  0  0  0  0  0  0  0  0  0
  1 17  1  0  0  0  0
  1 20  1  0  0  0  0
  2 15  1  6  0  0  0
  2  3  1  0  0  0  0
  2 11  1  0  0  0  0
  3  5  1  0  0  0  0
  4 16  1  1  0  0  0
  4 21  1  0  0  0  0
  4 22  2  0  0  0  0
  4 14  1  0  0  0  0
  5  1  1  6  0  0  0
  5  8  1  0  0  0  0
  6 17  2  0  0  0  0
  6 12  1  0  0  0  0
  8  7  1  1  0  0  0
  8 11  1  0  0  0  0
  9 19  1  0  0  0  0
 11 10  1  1  0  0  0
 12 20  2  0  0  0  0
 12 19  1  0  0  0  0
 13 20  1  0  0  0  0
 14 15  1  0  0  0  0
 18 19  2  0  0  0  0
M  CHG  1  21  -1
M  END
>  <CHROM.1>
87.69418039,57.38742156,-81.35115235,70.08474379,-11.22898380,-35.80712832
4.91660107,-21.21874398,-2.53269493,-0.39308568,0.17850473

>  <Name>
ligand

>  <RI>
0

>  <Rbt.Current_Directory>
/home/itssahil/PROJECTS/Mol_Feturizer/Test_systems_manuscript/rnas/4xwf

>  <Rbt.Executable>
rbdock ($Id: //depot/dev/client3/rdock/2013.1/src/exe/rbdock.cxx#4 $)

>  <Rbt.Library>
libRbt.so (2013.1, Build901 2013/11/27)

>  <Rbt.Parameter_File>
/export/apps/rDock/src/rDock_2013.1_src/data/scripts/dock_solv.prm

>  <Rbt.Receptor>
prm/blind_docking_80.prm

>  <SCORE>
-6.84276

>  <SCORE.INTER>
-8.67234

>  <SCORE.INTER.CONST>
1

>  <SCORE.INTER.POLAR>
0

>  <SCORE.INTER.ROT>
5

>  <SCORE.INTER.SOLV>
12.9119

>  <SCORE.INTER.VDW>
-17.0189

>  <SCORE.INTER.norm>
-0.394197

>  <SCORE.INTRA>
1.82958

>  <SCORE.INTRA.DIHEDRAL>
-0.564252

>  <SCORE.INTRA.DIHEDRAL.0>
3.49807

>  <SCORE.INTRA.POLAR>
0

>  <SCORE.INTRA.POLAR.0>
0

>  <SCORE.INTRA.REPUL>
0

>  <SCORE.INTRA.REPUL.0>
0

>  <SCORE.INTRA.SOLV>
0.403699

>  <SCORE.INTRA.SOLV.lig_0>
-73.062

>  <SCORE.INTRA.VDW>
1.90986

>  <SCORE.INTRA.VDW.0>
-1.83782

>  <SCORE.INTRA.norm>
0.0831628

>  <SCORE.RESTR>
0

>  <SCORE.RESTR.CAVITY>
0

>  <SCORE.RESTR.norm>
0

>  <SCORE.SYSTEM>
0

>  <SCORE.SYSTEM.CONST>
0

>  <SCORE.SYSTEM.DIHEDRAL>
0

>  <SCORE.SYSTEM.SOLV>
0

>  <SCORE.SYSTEM.norm>
0

>  <SCORE.heavy>
22

>  <SCORE.norm>
-0.311035

>  <RMSD>
13.569

$$$$
ligand
 OpenBabel02271912143D
libRbt.so/2013.1/901 2013/11/27
 22 23  0  0  0  0  0  0  0  0999 V2000
  -33.3299   -3.6046  -17.4242 N   0  0  0  0  0  0  0  0  0  0  0  0
  -34.6944   -3.9242  -14.3439 C   0  0  1  0  0  0  0  0  0  0  0  0
  -33.4979   -3.6425  -15.1242 O   0  0  0  0  0  0  0  0  0  0  0  0
  -33.6631   -7.4762  -13.5215 P   0  0  1  0  0  0  0  0  0  0  0  0
  -33.9015   -2.9813  -16.3343 C   0  0  2  0  0  0  0  0  0  0  0  0
  -31.9616   -4.0534  -19.0482 N   0  0  0  0  0  0  0  0  0  0  0  0
  -35.9757   -2.2112  -17.2289 O   0  0  0  0  0  0  0  0  0  0  0  0
  -35.3582   -3.2261  -16.4287 C   0  0  2  0  0  0  0  0  0  0  0  0
  -31.9025   -6.4626  -20.7625 N   0  0  0  0  0  0  0  0  0  0  0  0
  -35.8311   -1.8824  -14.5266 O   0  0  0  0  0  0  0  0  0  0  0  0
  -35.7975   -3.2252  -15.0387 C   0  0  2  0  0  0  0  0  0  0  0  0
  -32.8972   -5.0145  -19.0110 C   0  0  0  0  0  0  0  0  0  0  0  0
  -34.8745   -5.5178  -17.5966 N   0  0  0  0  0  0  0  0  0  0  0  0
  -33.7652   -5.9253  -13.7286 O   0  0  0  0  0  0  0  0  0  0  0  0
  -34.8889   -5.4014  -14.3583 C   0  0  0  0  0  0  0  0  0  0  0  0
  -33.6601   -8.0351  -14.9906 O   0  0  0  0  0  0  0  0  0  0  0  0
  -32.2364   -3.1753  -18.0648 C   0  0  0  0  0  0  0  0  0  0  0  0
  -33.9935   -6.8691  -19.9575 O   0  0  0  0  0  0  0  0  0  0  0  0
  -32.9803   -6.1711  -19.9221 C   0  0  0  0  0  0  0  0  0  0  0  0
  -33.7608   -4.7405  -17.9890 C   0  0  0  0  0  0  0  0  0  0  0  0
  -32.4371   -7.7981  -12.7333 O   0  5  0  0  0  0  0  0  0  0  0  0
  -34.7270   -7.9541  -12.6203 O   0  0  0  0  0  0  0  0  0  0  0  0
  1 17  1  0  0  0  0
  1 20  1  0  0  0  0
  2 15  1  6  0  0  0
  2  3  1  0  0  0  0
  2 11  1  0  0  0  0
  3  5  1  0  0  0  0
  4 16  1  6  0  0  0
  4 21  1  0  0  0  0
  4 22  2  0  0  0  0
  4 14  1  0  0  0  0
  5  1  1  6  0  0  0
  5  8  1  0  0  0  0
  6 17  2  0  0  0  0
  6 12  1  0  0  0  0
  8  7  1  6  0  0  0
  8 11  1  0  0  0  0
  9 19  1  0  0  0  0
 11 10  1  1  0  0  0
 12 20  2  0  0  0  0
 12 19  1  0  0  0  0
 13 20  1  0  0  0  0
 14 15  1  0  0  0  0
 18 19  2  0  0  0  0
M  CHG  1  21  -1
M  END
>  <CHROM.1>
-99.42593505,62.48622502,62.08520422,177.82154452,11.71359215,-33.92847893
-5.14907264,-16.14067431,1.29726494,1.12398317,-0.96165983

>  <Name>
ligand

>  <RI>
0

>  <Rbt.Current_Directory>
/home/itssahil/PROJECTS/Mol_Feturizer/Test_systems_manuscript/rnas/4xwf

>  <Rbt.Executable>
rbdock ($Id: //depot/dev/client3/rdock/2013.1/src/exe/rbdock.cxx#4 $)

>  <Rbt.Library>
libRbt.so (2013.1, Build901 2013/11/27)

>  <Rbt.Parameter_File>
/export/apps/rDock/src/rDock_2013.1_src/data/scripts/dock_solv.prm

>  <Rbt.Receptor>
prm/blind_docking_60.prm

>  <SCORE>
-9.16183

>  <SCORE.INTER>
-11.9338

>  <SCORE.INTER.CONST>
1

>  <SCORE.INTER.POLAR>
0

>  <SCORE.INTER.ROT>
5

>  <SCORE.INTER.SOLV>
13.3251

>  <SCORE.INTER.VDW>
-19.3309

>  <SCORE.INTER.norm>
-0.542446

>  <SCORE.INTRA>
2.74543

>  <SCORE.INTRA.DIHEDRAL>
-1.801

>  <SCORE.INTRA.DIHEDRAL.0>
3.49807

>  <SCORE.INTRA.POLAR>
0

>  <SCORE.INTRA.POLAR.0>
0

>  <SCORE.INTRA.REPUL>
0

>  <SCORE.INTRA.REPUL.0>
0

>  <SCORE.INTRA.SOLV>
4.56213

>  <SCORE.INTRA.SOLV.lig_0>
-73.062

>  <SCORE.INTRA.VDW>
1.36487

>  <SCORE.INTRA.VDW.0>
-1.83782

>  <SCORE.INTRA.norm>
0.124792

>  <SCORE.RESTR>
0.0265409

>  <SCORE.RESTR.CAVITY>
0.0265409

>  <SCORE.RESTR.norm>
0.00120641

>  <SCORE.SYSTEM>
0

>  <SCORE.SYSTEM.CONST>
0

>  <SCORE.SYSTEM.DIHEDRAL>
0

>  <SCORE.SYSTEM.SOLV>
0

>  <SCORE.SYSTEM.norm>
0

>  <SCORE.heavy>
22

>  <SCORE.norm>
-0.416447

>  <RMSD>
13.576

$$$$
ligand
 OpenBabel02271912143D
libRbt.so/2013.1/901 2013/11/27
 22 23  0  0  0  0  0  0  0  0999 V2000
  -35.4606    4.7956  -20.6559 N   0  0  0  0  0  0  0  0  0  0  0  0
  -36.5097    1.6157  -21.1464 C   0  0  1  0  0  0  0  0  0  0  0  0
  -36.4556    2.9754  -21.6642 O   0  0  0  0  0  0  0  0  0  0  0  0
  -37.0070   -0.6449  -19.0027 P   0  0  1  0  0  0  0  0  0  0  0  0
  -35.2188    3.5665  -21.2339 C   0  0  2  0  0  0  0  0  0  0  0  0
  -36.5126    6.4884  -19.7963 N   0  0  0  0  0  0  0  0  0  0  0  0
  -33.3161    2.8042  -20.0113 O   0  0  0  0  0  0  0  0  0  0  0  0
  -34.7366    2.6820  -20.1495 C   0  0  2  0  0  0  0  0  0  0  0  0
  -33.9119    8.8354  -19.9984 N   0  0  0  0  0  0  0  0  0  0  0  0
  -34.3419    0.8706  -21.6362 O   0  0  0  0  0  0  0  0  0  0  0  0
  -35.1731    1.3556  -20.5684 C   0  0  2  0  0  0  0  0  0  0  0  0
  -35.1950    6.7307  -19.7190 C   0  0  0  0  0  0  0  0  0  0  0  0
  -33.1234    5.5153  -20.3473 N   0  0  0  0  0  0  0  0  0  0  0  0
  -37.8933    0.2435  -19.9428 O   0  0  0  0  0  0  0  0  0  0  0  0
  -37.5716    1.5870  -20.1016 C   0  0  0  0  0  0  0  0  0  0  0  0
  -35.8992   -1.1979  -19.9710 O   0  0  0  0  0  0  0  0  0  0  0  0
  -36.6749    5.2879  -20.3845 C   0  0  0  0  0  0  0  0  0  0  0  0
  -34.6220    8.1628  -17.9419 O   0  0  0  0  0  0  0  0  0  0  0  0
  -34.5741    7.9421  -19.1519 C   0  0  0  0  0  0  0  0  0  0  0  0
  -34.5259    5.6678  -20.2555 C   0  0  0  0  0  0  0  0  0  0  0  0
  -36.4872    0.1817  -17.8738 O   0  5  0  0  0  0  0  0  0  0  0  0
  -37.8329   -1.6345  -18.2878 O   0  0  0  0  0  0  0  0  0  0  0  0
  1 17  1  0  0  0  0
  1 20  1  0  0  0  0
  2 15  1  1  0  0  0
  2  3  1  0  0  0  0
  2 11  1  0  0  0  0
  3  5  1  0  0  0  0
  4 16  1  6  0  0  0
  4 21  1  0  0  0  0
  4 22  2  0  0  0  0
  4 14  1  0  0  0  0
  5  1  1  1  0  0  0
  5  8  1  0  0  0  0
  6 17  2  0  0  0  0
  6 12  1  0  0  0  0
  8  7  1  6  0  0  0
  8 11  1  0  0  0  0
  9 19  1  0  0  0  0
 11 10  1  6  0  0  0
 12 20  2  0  0  0  0
 12 19  1  0  0  0  0
 13 20  1  0  0  0  0
 14 15  1  0  0  0  0
 18 19  2  0  0  0  0
M  CHG  1  21  -1
M  END
>  <CHROM.1>
7.74199741,161.42217501,-89.71178174,83.23270794,-111.45909909,-35.68935187
3.00075810,-19.91929073,-1.20613268,-0.67698428,-2.93655258

>  <Name>
ligand

>  <RI>
0

>  <Rbt.Current_Directory>
/home/itssahil/PROJECTS/Mol_Feturizer/Test_systems_manuscript/rnas/4xwf

>  <Rbt.Executable>
rbdock ($Id: //depot/dev/client3/rdock/2013.1/src/exe/rbdock.cxx#4 $)

>  <Rbt.Library>
libRbt.so (2013.1, Build901 2013/11/27)

>  <Rbt.Parameter_File>
/export/apps/rDock/src/rDock_2013.1_src/data/scripts/dock_solv.prm

>  <Rbt.Receptor>
prm/blind_docking_60.prm

>  <SCORE>
-5.93633

>  <SCORE.INTER>
-9.56062

>  <SCORE.INTER.CONST>
1

>  <SCORE.INTER.POLAR>
0

>  <SCORE.INTER.ROT>
5

>  <SCORE.INTER.SOLV>
18.2654

>  <SCORE.INTER.VDW>
-19.3955

>  <SCORE.INTER.norm>
-0.434573

>  <SCORE.INTRA>
3.62429

>  <SCORE.INTRA.DIHEDRAL>
2.78886

>  <SCORE.INTRA.DIHEDRAL.0>
3.49807

>  <SCORE.INTRA.POLAR>
0

>  <SCORE.INTRA.POLAR.0>
0

>  <SCORE.INTRA.REPUL>
0

>  <SCORE.INTRA.REPUL.0>
0

>  <SCORE.INTRA.SOLV>
3.78381

>  <SCORE.INTRA.SOLV.lig_0>
-73.062

>  <SCORE.INTRA.VDW>
0.33795

>  <SCORE.INTRA.VDW.0>
-1.83782

>  <SCORE.INTRA.norm>
0.16474

>  <SCORE.RESTR>
0

>  <SCORE.RESTR.CAVITY>
0

>  <SCORE.RESTR.norm>
0

>  <SCORE.SYSTEM>
0

>  <SCORE.SYSTEM.CONST>
0

>  <SCORE.SYSTEM.DIHEDRAL>
0

>  <SCORE.SYSTEM.SOLV>
0

>  <SCORE.SYSTEM.norm>
0

>  <SCORE.heavy>
22

>  <SCORE.norm>
-0.269833

>  <RMSD>
13.584

$$$$
ligand
 OpenBabel02271912143D
libRbt.so/2013.1/901 2013/11/27
 22 23  0  0  0  0  0  0  0  0999 V2000
  -34.1852    6.1625  -19.6764 N   0  0  0  0  0  0  0  0  0  0  0  0
  -37.1195    6.8197  -21.2290 C   0  0  1  0  0  0  0  0  0  0  0  0
  -36.4441    6.5211  -19.9742 O   0  0  0  0  0  0  0  0  0  0  0  0
  -38.1998    3.2031  -21.5637 P   0  0  1  0  0  0  0  0  0  0  0  0
  -35.1316    7.1034  -20.0260 C   0  0  2  0  0  0  0  0  0  0  0  0
  -32.9027    4.4132  -19.7562 N   0  0  0  0  0  0  0  0  0  0  0  0
  -33.9411    8.4518  -21.5946 O   0  0  0  0  0  0  0  0  0  0  0  0
  -34.9110    7.4067  -21.4578 C   0  0  2  0  0  0  0  0  0  0  0  0
  -31.9384    4.5738  -16.3163 N   0  0  0  0  0  0  0  0  0  0  0  0
  -36.5896    9.0885  -21.4863 O   0  0  0  0  0  0  0  0  0  0  0  0
  -36.2376    7.7708  -21.9402 C   0  0  2  0  0  0  0  0  0  0  0  0
  -32.5984    5.1056  -18.6478 C   0  0  0  0  0  0  0  0  0  0  0  0
  -33.3832    7.2130  -17.5958 N   0  0  0  0  0  0  0  0  0  0  0  0
  -37.8897    4.6668  -21.0947 O   0  0  0  0  0  0  0  0  0  0  0  0
  -37.2500    5.5351  -21.9726 C   0  0  0  0  0  0  0  0  0  0  0  0
  -39.3637    3.3978  -22.6020 O   0  0  0  0  0  0  0  0  0  0  0  0
  -33.8933    5.0690  -20.3903 C   0  0  0  0  0  0  0  0  0  0  0  0
  -30.3992    4.5822  -17.9945 O   0  0  0  0  0  0  0  0  0  0  0  0
  -31.5725    4.7350  -17.6554 C   0  0  0  0  0  0  0  0  0  0  0  0
  -33.3998    6.2102  -18.5922 C   0  0  0  0  0  0  0  0  0  0  0  0
  -36.9640    2.5835  -22.1267 O   0  5  0  0  0  0  0  0  0  0  0  0
  -38.4670    2.3295  -20.4070 O   0  0  0  0  0  0  0  0  0  0  0  0
  1 17  1  0  0  0  0
  1 20  1  0  0  0  0
  2 15  1  6  0  0  0
  2  3  1  0  0  0  0
  2 11  1  0  0  0  0
  3  5  1  0  0  0  0
  4 16  1  6  0  0  0
  4 21  1  0  0  0  0
  4 22  2  0  0  0  0
  4 14  1  0  0  0  0
  5  1  1  6  0  0  0
  5  8  1  0  0  0  0
  6 17  2  0  0  0  0
  6 12  1  0  0  0  0
  8  7  1  1  0  0  0
  8 11  1  0  0  0  0
  9 19  1  0  0  0  0
 11 10  1  1  0  0  0
 12 20  2  0  0  0  0
 12 19  1  0  0  0  0
 13 20  1  0  0  0  0
 14 15  1  0  0  0  0
 18 19  2  0  0  0  0
M  CHG  1  21  -1
M  END
>  <CHROM.1>
66.47777491,54.44471470,-71.90264125,179.61652460,-123.04156520,-35.38590696
5.43386919,-20.31389784,0.08571047,-0.56736159,-0.25115237

>  <Name>
ligand

>  <RI>
0

>  <Rbt.Current_Directory>
/home/itssahil/PROJECTS/Mol_Feturizer/Test_systems_manuscript/rnas/4xwf

>  <Rbt.Executable>
rbdock ($Id: //depot/dev/client3/rdock/2013.1/src/exe/rbdock.cxx#4 $)

>  <Rbt.Library>
libRbt.so (2013.1, Build901 2013/11/27)

>  <Rbt.Parameter_File>
/export/apps/rDock/src/rDock_2013.1_src/data/scripts/dock_solv.prm

>  <Rbt.Receptor>
prm/blind_docking_80.prm

>  <SCORE>
-5.29922

>  <SCORE.INTER>
-4.34458

>  <SCORE.INTER.CONST>
1

>  <SCORE.INTER.POLAR>
0

>  <SCORE.INTER.ROT>
5

>  <SCORE.INTER.SOLV>
16.6699

>  <SCORE.INTER.VDW>
-15.3864

>  <SCORE.INTER.norm>
-0.197481

>  <SCORE.INTRA>
-0.955421

>  <SCORE.INTRA.DIHEDRAL>
-1.58802

>  <SCORE.INTRA.DIHEDRAL.0>
3.49807

>  <SCORE.INTRA.POLAR>
0

>  <SCORE.INTRA.POLAR.0>
0

>  <SCORE.INTRA.REPUL>
0

>  <SCORE.INTRA.REPUL.0>
0

>  <SCORE.INTRA.SOLV>
-0.817993

>  <SCORE.INTRA.SOLV.lig_0>
-73.062

>  <SCORE.INTRA.VDW>
0.247584

>  <SCORE.INTRA.VDW.0>
-1.83782

>  <SCORE.INTRA.norm>
-0.0434282

>  <SCORE.RESTR>
0.000790069

>  <SCORE.RESTR.CAVITY>
0.000790069

>  <SCORE.RESTR.norm>
3.59122e-05

>  <SCORE.SYSTEM>
0

>  <SCORE.SYSTEM.CONST>
0

>  <SCORE.SYSTEM.DIHEDRAL>
0

>  <SCORE.SYSTEM.SOLV>
0

>  <SCORE.SYSTEM.norm>
0

>  <SCORE.heavy>
22

>  <SCORE.norm>
-0.240873

>  <RMSD>
13.585

$$$$
ligand
 OpenBabel02271912143D
libRbt.so/2013.1/901 2013/11/27
 22 23  0  0  0  0  0  0  0  0999 V2000
  -34.2594    3.4422  -20.3942 N   0  0  0  0  0  0  0  0  0  0  0  0
  -36.7959    5.1213  -21.8771 C   0  0  1  0  0  0  0  0  0  0  0  0
  -35.3594    5.0255  -21.6602 O   0  0  0  0  0  0  0  0  0  0  0  0
  -39.6919    6.5289  -19.9138 P   0  0  1  0  0  0  0  0  0  0  0  0
  -35.0212    3.6353  -21.5280 C   0  0  2  0  0  0  0  0  0  0  0  0
  -33.2826    2.4671  -18.7189 N   0  0  0  0  0  0  0  0  0  0  0  0
  -36.2263    1.5808  -21.6772 O   0  0  0  0  0  0  0  0  0  0  0  0
  -36.3132    2.9555  -21.2846 C   0  0  2  0  0  0  0  0  0  0  0  0
  -30.8553    5.0444  -18.2165 N   0  0  0  0  0  0  0  0  0  0  0  0
  -37.1152    3.4318  -23.4703 O   0  0  0  0  0  0  0  0  0  0  0  0
  -37.2634    3.7314  -22.0722 C   0  0  2  0  0  0  0  0  0  0  0  0
  -32.9141    3.7574  -18.7257 C   0  0  0  0  0  0  0  0  0  0  0  0
  -33.3817    5.7330  -20.1546 N   0  0  0  0  0  0  0  0  0  0  0  0
  -38.7613    5.6661  -20.8348 O   0  0  0  0  0  0  0  0  0  0  0  0
  -37.3845    5.7284  -20.6503 C   0  0  0  0  0  0  0  0  0  0  0  0
  -38.9924    6.4366  -18.5093 O   0  0  0  0  0  0  0  0  0  0  0  0
  -34.1234    2.2754  -19.7533 C   0  0  0  0  0  0  0  0  0  0  0  0
  -32.2465    4.3563  -16.5501 O   0  0  0  0  0  0  0  0  0  0  0  0
  -32.0062    4.3987  -17.7566 C   0  0  0  0  0  0  0  0  0  0  0  0
  -33.5228    4.3773  -19.7795 C   0  0  0  0  0  0  0  0  0  0  0  0
  -39.7992    7.9126  -20.4632 O   0  5  0  0  0  0  0  0  0  0  0  0
  -41.0888    6.0670  -20.0032 O   0  0  0  0  0  0  0  0  0  0  0  0
  1 17  1  0  0  0  0
  1 20  1  0  0  0  0
  2 15  1  1  0  0  0
  2  3  1  0  0  0  0
  2 11  1  0  0  0  0
  3  5  1  0  0  0  0
  4 16  1  1  0  0  0
  4 21  1  0  0  0  0
  4 22  2  0  0  0  0
  4 14  1  0  0  0  0
  5  1  1  1  0  0  0
  5  8  1  0  0  0  0
  6 17  2  0  0  0  0
  6 12  1  0  0  0  0
  8  7  1  6  0  0  0
  8 11  1  0  0  0  0
  9 19  1  0  0  0  0
 11 10  1  6  0  0  0
 12 20  2  0  0  0  0
 12 19  1  0  0  0  0
 13 20  1  0  0  0  0
 14 15  1  0  0  0  0
 18 19  2  0  0  0  0
M  CHG  1  21  -1
M  END
>  <CHROM.1>
158.31225867,-173.59702976,-38.37932159,-164.89230719,122.99384481,-36.08762211
4.68743969,-20.18860119,0.02637021,0.39662375,-2.27594474

>  <Name>
ligand

>  <RI>
0

>  <Rbt.Current_Directory>
/home/itssahil/PROJECTS/Mol_Feturizer/Test_systems_manuscript/rnas/4xwf

>  <Rbt.Executable>
rbdock ($Id: //depot/dev/client3/rdock/2013.1/src/exe/rbdock.cxx#4 $)

>  <Rbt.Library>
libRbt.so (2013.1, Build901 2013/11/27)

>  <Rbt.Parameter_File>
/export/apps/rDock/src/rDock_2013.1_src/data/scripts/dock_solv.prm

>  <Rbt.Receptor>
prm/blind_docking_80.prm

>  <SCORE>
-7.93894

>  <SCORE.INTER>
-10.2531

>  <SCORE.INTER.CONST>
1

>  <SCORE.INTER.POLAR>
0

>  <SCORE.INTER.ROT>
5

>  <SCORE.INTER.SOLV>
14.174

>  <SCORE.INTER.VDW>
-18.4934

>  <SCORE.INTER.norm>
-0.46605

>  <SCORE.INTRA>
2.31416

>  <SCORE.INTRA.DIHEDRAL>
-0.171422

>  <SCORE.INTRA.DIHEDRAL.0>
3.49807

>  <SCORE.INTRA.POLAR>
0

>  <SCORE.INTRA.POLAR.0>
0

>  <SCORE.INTRA.REPUL>
0

>  <SCORE.INTRA.REPUL.0>
0

>  <SCORE.INTRA.SOLV>
1.35165

>  <SCORE.INTRA.SOLV.lig_0>
-73.062

>  <SCORE.INTRA.VDW>
1.72405

>  <SCORE.INTRA.VDW.0>
-1.83782

>  <SCORE.INTRA.norm>
0.105189

>  <SCORE.RESTR>
0

>  <SCORE.RESTR.CAVITY>
0

>  <SCORE.RESTR.norm>
0

>  <SCORE.SYSTEM>
0

>  <SCORE.SYSTEM.CONST>
0

>  <SCORE.SYSTEM.DIHEDRAL>
0

>  <SCORE.SYSTEM.SOLV>
0

>  <SCORE.SYSTEM.norm>
0

>  <SCORE.heavy>
22

>  <SCORE.norm>
-0.360861

>  <RMSD>
13.599

$$$$
ligand
 OpenBabel02271912143D
libRbt.so/2013.1/901 2013/11/27
 22 23  0  0  0  0  0  0  0  0999 V2000
  -36.8998   -2.8426  -18.2036 N   0  0  0  0  0  0  0  0  0  0  0  0
  -37.3170    0.5112  -18.3776 C   0  0  1  0  0  0  0  0  0  0  0  0
  -37.6757   -0.7918  -18.9192 O   0  0  0  0  0  0  0  0  0  0  0  0
  -35.0114    2.0893  -20.9370 P   0  0  1  0  0  0  0  0  0  0  0  0
  -37.6509   -1.7431  -17.8428 C   0  0  2  0  0  0  0  0  0  0  0  0
  -35.3132   -4.0553  -19.0539 N   0  0  0  0  0  0  0  0  0  0  0  0
  -37.2663   -1.6244  -15.4904 O   0  0  0  0  0  0  0  0  0  0  0  0
  -36.9056   -1.0649  -16.7587 C   0  0  2  0  0  0  0  0  0  0  0  0
  -35.9564   -6.9178  -17.0149 N   0  0  0  0  0  0  0  0  0  0  0  0
  -38.6163    0.5509  -16.4270 O   0  0  0  0  0  0  0  0  0  0  0  0
  -37.2792    0.3361  -16.9092 C   0  0  2  0  0  0  0  0  0  0  0  0
  -36.1557   -4.8678  -18.3978 C   0  0  0  0  0  0  0  0  0  0  0  0
  -38.2332   -4.5783  -17.0698 N   0  0  0  0  0  0  0  0  0  0  0  0
  -36.2222    1.5304  -20.1122 O   0  0  0  0  0  0  0  0  0  0  0  0
  -35.9735    0.8567  -18.9213 C   0  0  0  0  0  0  0  0  0  0  0  0
  -34.3500    0.7916  -21.5278 O   0  0  0  0  0  0  0  0  0  0  0  0
  -35.7814   -2.7980  -18.9368 C   0  0  0  0  0  0  0  0  0  0  0  0
  -35.9605   -7.0369  -19.2890 O   0  0  0  0  0  0  0  0  0  0  0  0
  -36.0247   -6.3321  -18.2819 C   0  0  0  0  0  0  0  0  0  0  0  0
  -37.1558   -4.1111  -17.8570 C   0  0  0  0  0  0  0  0  0  0  0  0
  -35.5052    3.0552  -21.9622 O   0  5  0  0  0  0  0  0  0  0  0  0
  -34.1641    2.9564  -20.0987 O   0  0  0  0  0  0  0  0  0  0  0  0
  1 17  1  0  0  0  0
  1 20  1  0  0  0  0
  2 15  1  6  0  0  0
  2  3  1  0  0  0  0
  2 11  1  0  0  0  0
  3  5  1  0  0  0  0
  4 16  1  6  0  0  0
  4 21  1  0  0  0  0
  4 22  2  0  0  0  0
  4 14  1  0  0  0  0
  5  1  1  6  0  0  0
  5  8  1  0  0  0  0
  6 17  2  0  0  0  0
  6 12  1  0  0  0  0
  8  7  1  1  0  0  0
  8 11  1  0  0  0  0
  9 19  1  0  0  0  0
 11 10  1  6  0  0  0
 12 20  2  0  0  0  0
 12 19  1  0  0  0  0
 13 20  1  0  0  0  0
 14 15  1  0  0  0  0
 18 19  2  0  0  0  0
M  CHG  1  21  -1
M  END
>  <CHROM.1>
37.32442247,89.59397582,71.92909705,177.95858151,122.45036013,-36.33823965
-1.31565585,-18.73556695,1.82630809,-0.94707965,3.00671977

>  <Name>
ligand

>  <RI>
0

>  <Rbt.Current_Directory>
/home/itssahil/PROJECTS/Mol_Feturizer/Test_systems_manuscript/rnas/4xwf

>  <Rbt.Executable>
rbdock ($Id: //depot/dev/client3/rdock/2013.1/src/exe/rbdock.cxx#4 $)

>  <Rbt.Library>
libRbt.so (2013.1, Build901 2013/11/27)

>  <Rbt.Parameter_File>
/export/apps/rDock/src/rDock_2013.1_src/data/scripts/dock_solv.prm

>  <Rbt.Receptor>
prm/blind_docking_80.prm

>  <SCORE>
-9.29028

>  <SCORE.INTER>
-9.09536

>  <SCORE.INTER.CONST>
1

>  <SCORE.INTER.POLAR>
0

>  <SCORE.INTER.ROT>
5

>  <SCORE.INTER.SOLV>
19.3871

>  <SCORE.INTER.VDW>
-19.4593

>  <SCORE.INTER.norm>
-0.413425

>  <SCORE.INTRA>
-0.194917

>  <SCORE.INTRA.DIHEDRAL>
0.749314

>  <SCORE.INTRA.DIHEDRAL.0>
3.49807

>  <SCORE.INTRA.POLAR>
0

>  <SCORE.INTRA.POLAR.0>
0

>  <SCORE.INTRA.REPUL>
0

>  <SCORE.INTRA.REPUL.0>
0

>  <SCORE.INTRA.SOLV>
-0.239814

>  <SCORE.INTRA.SOLV.lig_0>
-73.062

>  <SCORE.INTRA.VDW>
-0.449667

>  <SCORE.INTRA.VDW.0>
-1.83782

>  <SCORE.INTRA.norm>
-0.00885988

>  <SCORE.RESTR>
0

>  <SCORE.RESTR.CAVITY>
0

>  <SCORE.RESTR.norm>
0

>  <SCORE.SYSTEM>
0

>  <SCORE.SYSTEM.CONST>
0

>  <SCORE.SYSTEM.DIHEDRAL>
0

>  <SCORE.SYSTEM.SOLV>
0

>  <SCORE.SYSTEM.norm>
0

>  <SCORE.heavy>
22

>  <SCORE.norm>
-0.422285

>  <RMSD>
13.637

$$$$
ligand
 OpenBabel02271912143D
libRbt.so/2013.1/901 2013/11/27
 22 23  0  0  0  0  0  0  0  0999 V2000
  -37.5028   -3.4805  -17.6445 N   0  0  0  0  0  0  0  0  0  0  0  0
  -36.9132   -0.2314  -18.3847 C   0  0  1  0  0  0  0  0  0  0  0  0
  -37.5688   -1.4714  -18.7753 O   0  0  0  0  0  0  0  0  0  0  0  0
  -35.3709    1.8403  -20.0330 P   0  0  1  0  0  0  0  0  0  0  0  0
  -37.9408   -2.1740  -17.5785 C   0  0  2  0  0  0  0  0  0  0  0  0
  -37.4326   -5.6366  -17.4043 N   0  0  0  0  0  0  0  0  0  0  0  0
  -37.8060   -1.7185  -15.2397 O   0  0  0  0  0  0  0  0  0  0  0  0
  -37.1588   -1.5245  -16.5027 C   0  0  2  0  0  0  0  0  0  0  0  0
  -35.4437   -7.5379  -18.4660 N   0  0  0  0  0  0  0  0  0  0  0  0
  -38.3571    0.5183  -16.6972 O   0  0  0  0  0  0  0  0  0  0  0  0
  -37.0933   -0.1293  -16.9200 C   0  0  2  0  0  0  0  0  0  0  0  0
  -36.3585   -5.2589  -18.1145 C   0  0  0  0  0  0  0  0  0  0  0  0
  -35.4636   -3.1105  -18.9789 N   0  0  0  0  0  0  0  0  0  0  0  0
  -35.3501    0.2733  -19.9809 O   0  0  0  0  0  0  0  0  0  0  0  0
  -35.4748   -0.3624  -18.7505 C   0  0  0  0  0  0  0  0  0  0  0  0
  -34.2417    2.2482  -19.0186 O   0  0  0  0  0  0  0  0  0  0  0  0
  -38.1387   -4.5287  -17.1084 C   0  0  0  0  0  0  0  0  0  0  0  0
  -34.3185   -5.6997  -19.2014 O   0  0  0  0  0  0  0  0  0  0  0  0
  -35.3111   -6.1570  -18.6350 C   0  0  0  0  0  0  0  0  0  0  0  0
  -36.3974   -3.9029  -18.2725 C   0  0  0  0  0  0  0  0  0  0  0  0
  -35.1407    2.2994  -21.4345 O   0  5  0  0  0  0  0  0  0  0  0  0
  -36.7280    2.3536  -19.7737 O   0  0  0  0  0  0  0  0  0  0  0  0
  1 17  1  0  0  0  0
  1 20  1  0  0  0  0
  2 15  1  1  0  0  0
  2  3  1  0  0  0  0
  2 11  1  0  0  0  0
  3  5  1  0  0  0  0
  4 16  1  1  0  0  0
  4 21  1  0  0  0  0
  4 22  2  0  0  0  0
  4 14  1  0  0  0  0
  5  1  1  6  0  0  0
  5  8  1  0  0  0  0
  6 17  2  0  0  0  0
  6 12  1  0  0  0  0
  8  7  1  1  0  0  0
  8 11  1  0  0  0  0
  9 19  1  0  0  0  0
 11 10  1  6  0  0  0
 12 20  2  0  0  0  0
 12 19  1  0  0  0  0
 13 20  1  0  0  0  0
 14 15  1  0  0  0  0
 18 19  2  0  0  0  0
M  CHG  1  21  -1
M  END
>  <CHROM.1>
-146.73524448,97.15752926,54.13764759,74.85290326,3.98424882,-36.35272434
-1.62638032,-18.44322293,1.69108389,-0.82157183,3.00427462

>  <Name>
ligand

>  <RI>
0

>  <Rbt.Current_Directory>
/home/itssahil/PROJECTS/Mol_Feturizer/Test_systems_manuscript/rnas/4xwf

>  <Rbt.Executable>
rbdock ($Id: //depot/dev/client3/rdock/2013.1/src/exe/rbdock.cxx#4 $)

>  <Rbt.Library>
libRbt.so (2013.1, Build901 2013/11/27)

>  <Rbt.Parameter_File>
/export/apps/rDock/src/rDock_2013.1_src/data/scripts/dock_solv.prm

>  <Rbt.Receptor>
prm/blind_docking_100.prm

>  <SCORE>
-6.11413

>  <SCORE.INTER>
-11.1954

>  <SCORE.INTER.CONST>
1

>  <SCORE.INTER.POLAR>
0

>  <SCORE.INTER.ROT>
5

>  <SCORE.INTER.SOLV>
15.9517

>  <SCORE.INTER.VDW>
-19.7142

>  <SCORE.INTER.norm>
-0.508883

>  <SCORE.INTRA>
5.08129

>  <SCORE.INTRA.DIHEDRAL>
2.75738

>  <SCORE.INTRA.DIHEDRAL.0>
3.49807

>  <SCORE.INTRA.POLAR>
0

>  <SCORE.INTRA.POLAR.0>
0

>  <SCORE.INTRA.REPUL>
0

>  <SCORE.INTRA.REPUL.0>
0

>  <SCORE.INTRA.SOLV>
6.43158

>  <SCORE.INTRA.SOLV.lig_0>
-73.062

>  <SCORE.INTRA.VDW>
0.486813

>  <SCORE.INTRA.VDW.0>
-1.83782

>  <SCORE.INTRA.norm>
0.230968

>  <SCORE.RESTR>
0

>  <SCORE.RESTR.CAVITY>
0

>  <SCORE.RESTR.norm>
0

>  <SCORE.SYSTEM>
0

>  <SCORE.SYSTEM.CONST>
0

>  <SCORE.SYSTEM.DIHEDRAL>
0

>  <SCORE.SYSTEM.SOLV>
0

>  <SCORE.SYSTEM.norm>
0

>  <SCORE.heavy>
22

>  <SCORE.norm>
-0.277915

>  <RMSD>
13.655

$$$$
ligand
 OpenBabel02271912143D
libRbt.so/2013.1/901 2013/11/27
 22 23  0  0  0  0  0  0  0  0999 V2000
  -33.7820    9.5275  -19.9191 N   0  0  0  0  0  0  0  0  0  0  0  0
  -32.7706    6.3006  -19.7893 C   0  0  1  0  0  0  0  0  0  0  0  0
  -32.3999    7.6853  -20.0443 O   0  0  0  0  0  0  0  0  0  0  0  0
  -34.6679    3.6764  -21.7519 P   0  0  1  0  0  0  0  0  0  0  0  0
  -33.1884    8.5228  -19.1834 C   0  0  2  0  0  0  0  0  0  0  0  0
  -35.2140   11.0229  -20.5707 N   0  0  0  0  0  0  0  0  0  0  0  0
  -34.8017    8.1394  -17.4669 O   0  0  0  0  0  0  0  0  0  0  0  0
  -34.2844    7.6483  -18.7091 C   0  0  2  0  0  0  0  0  0  0  0  0
  -34.9372   13.0026  -22.7409 N   0  0  0  0  0  0  0  0  0  0  0  0
  -32.8094    6.2788  -17.4457 O   0  0  0  0  0  0  0  0  0  0  0  0
  -33.6568    6.3366  -18.6054 C   0  0  2  0  0  0  0  0  0  0  0  0
  -34.1445   11.0870  -21.3785 C   0  0  0  0  0  0  0  0  0  0  0  0
  -31.9666    9.9066  -21.5427 N   0  0  0  0  0  0  0  0  0  0  0  0
  -33.7797    4.4756  -20.7366 O   0  0  0  0  0  0  0  0  0  0  0  0
  -33.4925    5.8110  -20.9973 C   0  0  0  0  0  0  0  0  0  0  0  0
  -33.7537    3.5752  -23.0264 O   0  0  0  0  0  0  0  0  0  0  0  0
  -34.9887   10.0488  -19.6685 C   0  0  0  0  0  0  0  0  0  0  0  0
  -33.0119   11.9081  -23.2707 O   0  0  0  0  0  0  0  0  0  0  0  0
  -33.9778   12.0119  -22.5149 C   0  0  0  0  0  0  0  0  0  0  0  0
  -33.2371   10.1504  -20.9726 C   0  0  0  0  0  0  0  0  0  0  0  0
  -35.0509    2.3617  -21.1577 O   0  5  0  0  0  0  0  0  0  0  0  0
  -35.9835    4.3208  -21.9150 O   0  0  0  0  0  0  0  0  0  0  0  0
  1 17  1  0  0  0  0
  1 20  1  0  0  0  0
  2 15  1  6  0  0  0
  2  3  1  0  0  0  0
  2 11  1  0  0  0  0
  3  5  1  0  0  0  0
  4 16  1  6  0  0  0
  4 21  1  0  0  0  0
  4 22  2  0  0  0  0
  4 14  1  0  0  0  0
  5  1  1  6  0  0  0
  5  8  1  0  0  0  0
  6 17  2  0  0  0  0
  6 12  1  0  0  0  0
  8  7  1  1  0  0  0
  8 11  1  0  0  0  0
  9 19  1  0  0  0  0
 11 10  1  1  0  0  0
 12 20  2  0  0  0  0
 12 19  1  0  0  0  0
 13 20  1  0  0  0  0
 14 15  1  0  0  0  0
 18 19  2  0  0  0  0
M  CHG  1  21  -1
M  END
>  <CHROM.1>
145.97762858,177.64007470,67.84051717,174.08277380,5.94977760,-33.94670944
7.53199360,-20.67522434,-1.14926663,1.41226247,2.67677671

>  <Name>
ligand

>  <RI>
0

>  <Rbt.Current_Directory>
/home/itssahil/PROJECTS/Mol_Feturizer/Test_systems_manuscript/rnas/4xwf

>  <Rbt.Executable>
rbdock ($Id: //depot/dev/client3/rdock/2013.1/src/exe/rbdock.cxx#4 $)

>  <Rbt.Library>
libRbt.so (2013.1, Build901 2013/11/27)

>  <Rbt.Parameter_File>
/export/apps/rDock/src/rDock_2013.1_src/data/scripts/dock_solv.prm

>  <Rbt.Receptor>
prm/blind_docking_100.prm

>  <SCORE>
-10.5664

>  <SCORE.INTER>
-11.564

>  <SCORE.INTER.CONST>
1

>  <SCORE.INTER.POLAR>
0

>  <SCORE.INTER.ROT>
5

>  <SCORE.INTER.SOLV>
12.5142

>  <SCORE.INTER.VDW>
-18.8141

>  <SCORE.INTER.norm>
-0.525638

>  <SCORE.INTRA>
0.997589

>  <SCORE.INTRA.DIHEDRAL>
-1.71528

>  <SCORE.INTRA.DIHEDRAL.0>
3.49807

>  <SCORE.INTRA.POLAR>
0

>  <SCORE.INTRA.POLAR.0>
0

>  <SCORE.INTRA.REPUL>
0

>  <SCORE.INTRA.REPUL.0>
0

>  <SCORE.INTRA.SOLV>
0.792235

>  <SCORE.INTRA.SOLV.lig_0>
-73.062

>  <SCORE.INTRA.VDW>
1.45911

>  <SCORE.INTRA.VDW.0>
-1.83782

>  <SCORE.INTRA.norm>
0.0453449

>  <SCORE.RESTR>
0

>  <SCORE.RESTR.CAVITY>
0

>  <SCORE.RESTR.norm>
0

>  <SCORE.SYSTEM>
0

>  <SCORE.SYSTEM.CONST>
0

>  <SCORE.SYSTEM.DIHEDRAL>
0

>  <SCORE.SYSTEM.SOLV>
0

>  <SCORE.SYSTEM.norm>
0

>  <SCORE.heavy>
22

>  <SCORE.norm>
-0.480293

>  <RMSD>
13.664

$$$$
ligand
 OpenBabel02271912143D
libRbt.so/2013.1/901 2013/11/27
 22 23  0  0  0  0  0  0  0  0999 V2000
  -33.7289    4.6406  -20.2117 N   0  0  0  0  0  0  0  0  0  0  0  0
  -36.0179    2.9336  -22.0281 C   0  0  1  0  0  0  0  0  0  0  0  0
  -34.8975    3.8634  -22.0420 O   0  0  0  0  0  0  0  0  0  0  0  0
  -37.8897    4.7803  -23.8330 P   0  0  1  0  0  0  0  0  0  0  0  0
  -34.0191    3.5178  -20.9588 C   0  0  2  0  0  0  0  0  0  0  0  0
  -33.8721    6.6300  -19.3556 N   0  0  0  0  0  0  0  0  0  0  0  0
  -33.9653    1.7924  -19.3107 O   0  0  0  0  0  0  0  0  0  0  0  0
  -34.8257    2.6332  -20.0883 C   0  0  2  0  0  0  0  0  0  0  0  0
  -32.1472    7.8823  -17.3187 N   0  0  0  0  0  0  0  0  0  0  0  0
  -34.8985    0.8987  -21.7111 O   0  0  0  0  0  0  0  0  0  0  0  0
  -35.6677    1.9021  -21.0272 C   0  0  2  0  0  0  0  0  0  0  0  0
  -32.8174    6.0111  -18.8031 C   0  0  0  0  0  0  0  0  0  0  0  0
  -31.7625    3.7728  -19.0050 N   0  0  0  0  0  0  0  0  0  0  0  0
  -37.2198    4.8442  -22.4168 O   0  0  0  0  0  0  0  0  0  0  0  0
  -37.2234    3.7067  -21.6169 C   0  0  0  0  0  0  0  0  0  0  0  0
  -36.9804    3.7640  -24.6147 O   0  0  0  0  0  0  0  0  0  0  0  0
  -34.4330    5.7783  -20.2350 C   0  0  0  0  0  0  0  0  0  0  0  0
  -30.9459    5.9486  -17.3780 O   0  0  0  0  0  0  0  0  0  0  0  0
  -31.9117    6.5890  -17.7930 C   0  0  0  0  0  0  0  0  0  0  0  0
  -32.7226    4.7567  -19.3350 C   0  0  0  0  0  0  0  0  0  0  0  0
  -39.3149    4.3586  -23.6961 O   0  5  0  0  0  0  0  0  0  0  0  0
  -38.0355    6.1316  -24.4034 O   0  0  0  0  0  0  0  0  0  0  0  0
  1 17  1  0  0  0  0
  1 20  1  0  0  0  0
  2 15  1  1  0  0  0
  2  3  1  0  0  0  0
  2 11  1  0  0  0  0
  3  5  1  0  0  0  0
  4 16  1  6  0  0  0
  4 21  1  0  0  0  0
  4 22  2  0  0  0  0
  4 14  1  0  0  0  0
  5  1  1  1  0  0  0
  5  8  1  0  0  0  0
  6 17  2  0  0  0  0
  6 12  1  0  0  0  0
  8  7  1  6  0  0  0
  8 11  1  0  0  0  0
  9 19  1  0  0  0  0
 11 10  1  6  0  0  0
 12 20  2  0  0  0  0
 12 19  1  0  0  0  0
 13 20  1  0  0  0  0
 14 15  1  0  0  0  0
 18 19  2  0  0  0  0
M  CHG  1  21  -1
M  END
>  <CHROM.1>
17.76234181,48.79979942,-65.56829710,86.42427262,1.36716053,-35.03444823
4.39836273,-21.03410192,-0.24117657,0.75025718,-3.05099306

>  <Name>
ligand

>  <RI>
0

>  <Rbt.Current_Directory>
/home/itssahil/PROJECTS/Mol_Feturizer/Test_systems_manuscript/rnas/4xwf

>  <Rbt.Executable>
rbdock ($Id: //depot/dev/client3/rdock/2013.1/src/exe/rbdock.cxx#4 $)

>  <Rbt.Library>
libRbt.so (2013.1, Build901 2013/11/27)

>  <Rbt.Parameter_File>
/export/apps/rDock/src/rDock_2013.1_src/data/scripts/dock_solv.prm

>  <Rbt.Receptor>
prm/blind_docking_60.prm

>  <SCORE>
-7.97621

>  <SCORE.INTER>
-9.39922

>  <SCORE.INTER.CONST>
1

>  <SCORE.INTER.POLAR>
0

>  <SCORE.INTER.ROT>
5

>  <SCORE.INTER.SOLV>
15.8194

>  <SCORE.INTER.VDW>
-18.4726

>  <SCORE.INTER.norm>
-0.427237

>  <SCORE.INTRA>
1.42083

>  <SCORE.INTRA.DIHEDRAL>
1.41242

>  <SCORE.INTRA.DIHEDRAL.0>
3.49807

>  <SCORE.INTRA.POLAR>
0

>  <SCORE.INTRA.POLAR.0>
0

>  <SCORE.INTRA.REPUL>
0

>  <SCORE.INTRA.REPUL.0>
0

>  <SCORE.INTRA.SOLV>
1.31855

>  <SCORE.INTRA.SOLV.lig_0>
-73.062

>  <SCORE.INTRA.VDW>
0.0553482

>  <SCORE.INTRA.VDW.0>
-1.83782

>  <SCORE.INTRA.norm>
0.0645832

>  <SCORE.RESTR>
0.00217816

>  <SCORE.RESTR.CAVITY>
0.00217816

>  <SCORE.RESTR.norm>
9.90074e-05

>  <SCORE.SYSTEM>
0

>  <SCORE.SYSTEM.CONST>
0

>  <SCORE.SYSTEM.DIHEDRAL>
0

>  <SCORE.SYSTEM.SOLV>
0

>  <SCORE.SYSTEM.norm>
0

>  <SCORE.heavy>
22

>  <SCORE.norm>
-0.362555

>  <RMSD>
13.671

$$$$
ligand
 OpenBabel02271912143D
libRbt.so/2013.1/901 2013/11/27
 22 23  0  0  0  0  0  0  0  0999 V2000
  -32.9987    4.7952  -20.8142 N   0  0  0  0  0  0  0  0  0  0  0  0
  -35.0619    2.2347  -21.6137 C   0  0  1  0  0  0  0  0  0  0  0  0
  -33.9956    3.1239  -22.0521 O   0  0  0  0  0  0  0  0  0  0  0  0
  -37.6723    4.2829  -23.4387 P   0  0  1  0  0  0  0  0  0  0  0  0
  -33.1756    3.4306  -20.9129 C   0  0  2  0  0  0  0  0  0  0  0  0
  -33.1990    6.9236  -21.1898 N   0  0  0  0  0  0  0  0  0  0  0  0
  -33.1401    2.7545  -18.6243 O   0  0  0  0  0  0  0  0  0  0  0  0
  -33.9901    3.0288  -19.7442 C   0  0  2  0  0  0  0  0  0  0  0  0
  -30.3175    7.8934  -19.3445 N   0  0  0  0  0  0  0  0  0  0  0  0
  -33.8573    0.7201  -20.2911 O   0  0  0  0  0  0  0  0  0  0  0  0
  -34.7251    1.8640  -20.2218 C   0  0  2  0  0  0  0  0  0  0  0  0
  -32.3729    6.7584  -20.1453 C   0  0  0  0  0  0  0  0  0  0  0  0
  -31.4812    4.8227  -18.8719 N   0  0  0  0  0  0  0  0  0  0  0  0
  -36.4906    3.3404  -23.0217 O   0  0  0  0  0  0  0  0  0  0  0  0
  -36.3331    3.0092  -21.6803 C   0  0  0  0  0  0  0  0  0  0  0  0
  -37.2481    5.6749  -22.8444 O   0  0  0  0  0  0  0  0  0  0  0  0
  -33.5815    5.7018  -21.6073 C   0  0  0  0  0  0  0  0  0  0  0  0
  -32.3806    8.6817  -18.7895 O   0  0  0  0  0  0  0  0  0  0  0  0
  -31.7132    7.8394  -19.3898 C   0  0  0  0  0  0  0  0  0  0  0  0
  -32.2442    5.4209  -19.9008 C   0  0  0  0  0  0  0  0  0  0  0  0
  -37.8298    4.2645  -24.9228 O   0  5  0  0  0  0  0  0  0  0  0  0
  -38.9643    3.7270  -22.9981 O   0  0  0  0  0  0  0  0  0  0  0  0
  1 17  1  0  0  0  0
  1 20  1  0  0  0  0
  2 15  1  1  0  0  0
  2  3  1  0  0  0  0
  2 11  1  0  0  0  0
  3  5  1  0  0  0  0
  4 16  1  1  0  0  0
  4 21  1  0  0  0  0
  4 22  2  0  0  0  0
  4 14  1  0  0  0  0
  5  1  1  1  0  0  0
  5  8  1  0  0  0  0
  6 17  2  0  0  0  0
  6 12  1  0  0  0  0
  8  7  1  1  0  0  0
  8 11  1  0  0  0  0
  9 19  1  0  0  0  0
 11 10  1  6  0  0  0
 12 20  2  0  0  0  0
 12 19  1  0  0  0  0
 13 20  1  0  0  0  0
 14 15  1  0  0  0  0
 18 19  2  0  0  0  0
M  CHG  1  21  -1
M  END
>  <CHROM.1>
4.29824810,62.17135000,69.71760184,-174.32492692,-119.51180341,-34.49869571
4.49676746,-21.19959735,-0.29921212,0.64558219,2.96856958

>  <Name>
ligand

>  <RI>
0

>  <Rbt.Current_Directory>
/home/itssahil/PROJECTS/Mol_Feturizer/Test_systems_manuscript/rnas/4xwf

>  <Rbt.Executable>
rbdock ($Id: //depot/dev/client3/rdock/2013.1/src/exe/rbdock.cxx#4 $)

>  <Rbt.Library>
libRbt.so (2013.1, Build901 2013/11/27)

>  <Rbt.Parameter_File>
/export/apps/rDock/src/rDock_2013.1_src/data/scripts/dock_solv.prm

>  <Rbt.Receptor>
prm/blind_docking_60.prm

>  <SCORE>
-9.67786

>  <SCORE.INTER>
-9.32766

>  <SCORE.INTER.CONST>
1

>  <SCORE.INTER.POLAR>
0

>  <SCORE.INTER.ROT>
5

>  <SCORE.INTER.SOLV>
19.9269

>  <SCORE.INTER.VDW>
-19.7941

>  <SCORE.INTER.norm>
-0.423985

>  <SCORE.INTRA>
-0.350203

>  <SCORE.INTRA.DIHEDRAL>
-1.69231

>  <SCORE.INTRA.DIHEDRAL.0>
3.49807

>  <SCORE.INTRA.POLAR>
0

>  <SCORE.INTRA.POLAR.0>
0

>  <SCORE.INTRA.REPUL>
0

>  <SCORE.INTRA.REPUL.0>
0

>  <SCORE.INTRA.SOLV>
1.13015

>  <SCORE.INTRA.SOLV.lig_0>
-73.062

>  <SCORE.INTRA.VDW>
-0.069123

>  <SCORE.INTRA.VDW.0>
-1.83782

>  <SCORE.INTRA.norm>
-0.0159183

>  <SCORE.RESTR>
0

>  <SCORE.RESTR.CAVITY>
0

>  <SCORE.RESTR.norm>
0

>  <SCORE.SYSTEM>
0

>  <SCORE.SYSTEM.CONST>
0

>  <SCORE.SYSTEM.DIHEDRAL>
0

>  <SCORE.SYSTEM.SOLV>
0

>  <SCORE.SYSTEM.norm>
0

>  <SCORE.heavy>
22

>  <SCORE.norm>
-0.439903

>  <RMSD>
13.683

$$$$
ligand
 OpenBabel02271912143D
libRbt.so/2013.1/901 2013/11/27
 22 23  0  0  0  0  0  0  0  0999 V2000
  -31.7901    9.6490  -23.2469 N   0  0  0  0  0  0  0  0  0  0  0  0
  -32.4709    9.6758  -19.9320 C   0  0  1  0  0  0  0  0  0  0  0  0
  -31.7797   10.3195  -21.0401 O   0  0  0  0  0  0  0  0  0  0  0  0
  -31.9018    6.4747  -17.9917 P   0  0  1  0  0  0  0  0  0  0  0  0
  -32.5741   10.1410  -22.2239 C   0  0  2  0  0  0  0  0  0  0  0  0
  -31.1598    9.0000  -25.2199 N   0  0  0  0  0  0  0  0  0  0  0  0
  -34.6962    9.1600  -22.7036 O   0  0  0  0  0  0  0  0  0  0  0  0
  -33.5307    9.0664  -21.8762 C   0  0  2  0  0  0  0  0  0  0  0  0
  -27.6434    8.9759  -24.1156 N   0  0  0  0  0  0  0  0  0  0  0  0
  -34.6644   10.4219  -20.2873 O   0  0  0  0  0  0  0  0  0  0  0  0
  -33.7973    9.2886  -20.4603 C   0  0  2  0  0  0  0  0  0  0  0  0
  -30.1077    8.9068  -24.3922 C   0  0  0  0  0  0  0  0  0  0  0  0
  -29.6822    9.3932  -21.9951 N   0  0  0  0  0  0  0  0  0  0  0  0
  -32.3913    7.8608  -18.5372 O   0  0  0  0  0  0  0  0  0  0  0  0
  -31.6661    8.4821  -19.5481 C   0  0  0  0  0  0  0  0  0  0  0  0
  -31.9049    5.5635  -19.2724 O   0  0  0  0  0  0  0  0  0  0  0  0
  -32.2055    9.4557  -24.5041 C   0  0  0  0  0  0  0  0  0  0  0  0
  -28.6104    7.5924  -25.6442 O   0  0  0  0  0  0  0  0  0  0  0  0
  -28.7594    8.4385  -24.7627 C   0  0  0  0  0  0  0  0  0  0  0  0
  -30.4960    9.3167  -23.1486 C   0  0  0  0  0  0  0  0  0  0  0  0
  -30.5652    6.6324  -17.3463 O   0  5  0  0  0  0  0  0  0  0  0  0
  -32.7299    6.0397  -16.8526 O   0  0  0  0  0  0  0  0  0  0  0  0
  1 17  1  0  0  0  0
  1 20  1  0  0  0  0
  2 15  1  6  0  0  0
  2  3  1  0  0  0  0
  2 11  1  0  0  0  0
  3  5  1  0  0  0  0
  4 16  1  6  0  0  0
  4 21  1  0  0  0  0
  4 22  2  0  0  0  0
  4 14  1  0  0  0  0
  5  1  1  6  0  0  0
  5  8  1  0  0  0  0
  6 17  2  0  0  0  0
  6 12  1  0  0  0  0
  8  7  1  6  0  0  0
  8 11  1  0  0  0  0
  9 19  1  0  0  0  0
 11 10  1  6  0  0  0
 12 20  2  0  0  0  0
 12 19  1  0  0  0  0
 13 20  1  0  0  0  0
 14 15  1  0  0  0  0
 18 19  2  0  0  0  0
M  CHG  1  21  -1
M  END
>  <CHROM.1>
-175.38063560,-177.08951959,-58.63933109,173.82334783,147.75972993,-31.65133343
8.46500753,-21.28496406,1.19636212,0.48396277,-1.09635793

>  <Name>
ligand

>  <RI>
0

>  <Rbt.Current_Directory>
/home/itssahil/PROJECTS/Mol_Feturizer/Test_systems_manuscript/rnas/4xwf

>  <Rbt.Executable>
rbdock ($Id: //depot/dev/client3/rdock/2013.1/src/exe/rbdock.cxx#4 $)

>  <Rbt.Library>
libRbt.so (2013.1, Build901 2013/11/27)

>  <Rbt.Parameter_File>
/export/apps/rDock/src/rDock_2013.1_src/data/scripts/dock_solv.prm

>  <Rbt.Receptor>
prm/blind_docking_100.prm

>  <SCORE>
-8.5932

>  <SCORE.INTER>
-10.3717

>  <SCORE.INTER.CONST>
1

>  <SCORE.INTER.POLAR>
0

>  <SCORE.INTER.ROT>
5

>  <SCORE.INTER.SOLV>
19.788

>  <SCORE.INTER.VDW>
-20.4438

>  <SCORE.INTER.norm>
-0.47144

>  <SCORE.INTRA>
1.77847

>  <SCORE.INTRA.DIHEDRAL>
-0.997992

>  <SCORE.INTRA.DIHEDRAL.0>
3.49807

>  <SCORE.INTRA.POLAR>
0

>  <SCORE.INTRA.POLAR.0>
0

>  <SCORE.INTRA.REPUL>
0

>  <SCORE.INTRA.REPUL.0>
0

>  <SCORE.INTRA.SOLV>
3.03044

>  <SCORE.INTRA.SOLV.lig_0>
-73.062

>  <SCORE.INTRA.VDW>
0.76225

>  <SCORE.INTRA.VDW.0>
-1.83782

>  <SCORE.INTRA.norm>
0.0808397

>  <SCORE.RESTR>
0

>  <SCORE.RESTR.CAVITY>
0

>  <SCORE.RESTR.norm>
0

>  <SCORE.SYSTEM>
0

>  <SCORE.SYSTEM.CONST>
0

>  <SCORE.SYSTEM.DIHEDRAL>
0

>  <SCORE.SYSTEM.SOLV>
0

>  <SCORE.SYSTEM.norm>
0

>  <SCORE.heavy>
22

>  <SCORE.norm>
-0.3906

>  <RMSD>
13.700

$$$$
ligand
 OpenBabel02271912143D
libRbt.so/2013.1/901 2013/11/27
 22 23  0  0  0  0  0  0  0  0999 V2000
  -37.2165   -4.1171  -17.3144 N   0  0  0  0  0  0  0  0  0  0  0  0
  -37.6196   -0.8143  -17.9322 C   0  0  1  0  0  0  0  0  0  0  0  0
  -38.2003   -2.1477  -18.0022 O   0  0  0  0  0  0  0  0  0  0  0  0
  -35.2532    1.1311  -20.1570 P   0  0  1  0  0  0  0  0  0  0  0  0
  -37.7128   -2.9046  -16.8825 C   0  0  2  0  0  0  0  0  0  0  0  0
  -36.5289   -5.7039  -18.6261 N   0  0  0  0  0  0  0  0  0  0  0  0
  -36.3202   -2.4348  -15.0022 O   0  0  0  0  0  0  0  0  0  0  0  0
  -36.5534   -2.1321  -16.3826 C   0  0  2  0  0  0  0  0  0  0  0  0
  -36.6333   -8.3436  -16.3267 N   0  0  0  0  0  0  0  0  0  0  0  0
  -37.9147   -0.3236  -15.6592 O   0  0  0  0  0  0  0  0  0  0  0  0
  -36.9350   -0.7458  -16.6227 C   0  0  2  0  0  0  0  0  0  0  0  0
  -36.3549   -6.1043  -17.3572 C   0  0  0  0  0  0  0  0  0  0  0  0
  -36.7510   -5.1215  -15.1120 N   0  0  0  0  0  0  0  0  0  0  0  0
  -36.1869    0.6114  -19.0096 O   0  0  0  0  0  0  0  0  0  0  0  0
  -36.6535   -0.6976  -19.0605 C   0  0  0  0  0  0  0  0  0  0  0  0
  -36.1990    1.1421  -21.4123 O   0  0  0  0  0  0  0  0  0  0  0  0
  -37.0702   -4.4711  -18.5965 C   0  0  0  0  0  0  0  0  0  0  0  0
  -34.6032   -7.6533  -17.0935 O   0  0  0  0  0  0  0  0  0  0  0  0
  -35.7973   -7.4017  -16.9324 C   0  0  0  0  0  0  0  0  0  0  0  0
  -36.7827   -5.1091  -16.5254 C   0  0  0  0  0  0  0  0  0  0  0  0
  -34.6984    2.4666  -19.7871 O   0  5  0  0  0  0  0  0  0  0  0  0
  -34.0279    0.3163  -20.2428 O   0  0  0  0  0  0  0  0  0  0  0  0
  1 17  1  0  0  0  0
  1 20  1  0  0  0  0
  2 15  1  6  0  0  0
  2  3  1  0  0  0  0
  2 11  1  0  0  0  0
  3  5  1  0  0  0  0
  4 16  1  6  0  0  0
  4 21  1  0  0  0  0
  4 22  2  0  0  0  0
  4 14  1  0  0  0  0
  5  1  1  6  0  0  0
  5  8  1  0  0  0  0
  6 17  2  0  0  0  0
  6 12  1  0  0  0  0
  8  7  1  1  0  0  0
  8 11  1  0  0  0  0
  9 19  1  0  0  0  0
 11 10  1  1  0  0  0
 12 20  2  0  0  0  0
 12 19  1  0  0  0  0
 13 20  1  0  0  0  0
 14 15  1  0  0  0  0
 18 19  2  0  0  0  0
M  CHG  1  21  -1
M  END
>  <CHROM.1>
7.05669925,176.32431417,66.79983203,-173.64743018,-110.38661726,-36.36192003
-2.40759246,-17.89911652,1.74070339,-1.03156041,2.89807971

>  <Name>
ligand

>  <RI>
0

>  <Rbt.Current_Directory>
/home/itssahil/PROJECTS/Mol_Feturizer/Test_systems_manuscript/rnas/4xwf

>  <Rbt.Executable>
rbdock ($Id: //depot/dev/client3/rdock/2013.1/src/exe/rbdock.cxx#4 $)

>  <Rbt.Library>
libRbt.so (2013.1, Build901 2013/11/27)

>  <Rbt.Parameter_File>
/export/apps/rDock/src/rDock_2013.1_src/data/scripts/dock_solv.prm

>  <Rbt.Receptor>
prm/blind_docking_60.prm

>  <SCORE>
-9.24508

>  <SCORE.INTER>
-9.08102

>  <SCORE.INTER.CONST>
1

>  <SCORE.INTER.POLAR>
0

>  <SCORE.INTER.ROT>
5

>  <SCORE.INTER.SOLV>
16.6162

>  <SCORE.INTER.VDW>
-18.5261

>  <SCORE.INTER.norm>
-0.412773

>  <SCORE.INTRA>
-0.164064

>  <SCORE.INTRA.DIHEDRAL>
-1.59005

>  <SCORE.INTRA.DIHEDRAL.0>
3.49807

>  <SCORE.INTRA.POLAR>
0

>  <SCORE.INTRA.POLAR.0>
0

>  <SCORE.INTRA.REPUL>
0

>  <SCORE.INTRA.REPUL.0>
0

>  <SCORE.INTRA.SOLV>
0.953988

>  <SCORE.INTRA.SOLV.lig_0>
-73.062

>  <SCORE.INTRA.VDW>
0.153966

>  <SCORE.INTRA.VDW.0>
-1.83782

>  <SCORE.INTRA.norm>
-0.00745744

>  <SCORE.RESTR>
0

>  <SCORE.RESTR.CAVITY>
0

>  <SCORE.RESTR.norm>
0

>  <SCORE.SYSTEM>
0

>  <SCORE.SYSTEM.CONST>
0

>  <SCORE.SYSTEM.DIHEDRAL>
0

>  <SCORE.SYSTEM.SOLV>
0

>  <SCORE.SYSTEM.norm>
0

>  <SCORE.heavy>
22

>  <SCORE.norm>
-0.420231

>  <RMSD>
13.749

$$$$
ligand
 OpenBabel02271912143D
libRbt.so/2013.1/901 2013/11/27
 22 23  0  0  0  0  0  0  0  0999 V2000
  -32.9168    4.9970  -20.7577 N   0  0  0  0  0  0  0  0  0  0  0  0
  -35.2995    2.9732  -22.0537 C   0  0  1  0  0  0  0  0  0  0  0  0
  -34.0603    3.7017  -22.2855 O   0  0  0  0  0  0  0  0  0  0  0  0
  -38.9516    3.9449  -22.2950 P   0  0  1  0  0  0  0  0  0  0  0  0
  -33.3131    3.7102  -21.0584 C   0  0  2  0  0  0  0  0  0  0  0  0
  -32.7660    7.1618  -20.8027 N   0  0  0  0  0  0  0  0  0  0  0  0
  -33.6128    2.7593  -18.8900 O   0  0  0  0  0  0  0  0  0  0  0  0
  -34.2923    3.3206  -20.0192 C   0  0  2  0  0  0  0  0  0  0  0  0
  -30.8076    8.8335  -19.3084 N   0  0  0  0  0  0  0  0  0  0  0  0
  -34.5027    1.1124  -20.8717 O   0  0  0  0  0  0  0  0  0  0  0  0
  -35.1656    2.3771  -20.7065 C   0  0  2  0  0  0  0  0  0  0  0  0
  -31.9831    6.7077  -19.8120 C   0  0  0  0  0  0  0  0  0  0  0  0
  -31.4249    4.4820  -18.8644 N   0  0  0  0  0  0  0  0  0  0  0  0
  -37.5764    3.2138  -22.1139 O   0  0  0  0  0  0  0  0  0  0  0  0
  -36.4079    3.9676  -22.1034 C   0  0  0  0  0  0  0  0  0  0  0  0
  -40.0008    2.7936  -22.0846 O   0  0  0  0  0  0  0  0  0  0  0  0
  -33.3403    6.0961  -21.3927 C   0  0  0  0  0  0  0  0  0  0  0  0
  -30.7706    7.0988  -17.8335 O   0  0  0  0  0  0  0  0  0  0  0  0
  -31.1599    7.5397  -18.9148 C   0  0  0  0  0  0  0  0  0  0  0  0
  -32.0751    5.3456  -19.7755 C   0  0  0  0  0  0  0  0  0  0  0  0
  -39.0572    5.0664  -21.3157 O   0  5  0  0  0  0  0  0  0  0  0  0
  -38.9932    4.6690  -23.5782 O   0  0  0  0  0  0  0  0  0  0  0  0
  1 17  1  0  0  0  0
  1 20  1  0  0  0  0
  2 15  1  1  0  0  0
  2  3  1  0  0  0  0
  2 11  1  0  0  0  0
  3  5  1  0  0  0  0
  4 16  1  1  0  0  0
  4 21  1  0  0  0  0
  4 22  2  0  0  0  0
  4 14  1  0  0  0  0
  5  1  1  1  0  0  0
  5  8  1  0  0  0  0
  6 17  2  0  0  0  0
  6 12  1  0  0  0  0
  8  7  1  1  0  0  0
  8 11  1  0  0  0  0
  9 19  1  0  0  0  0
 11 10  1  6  0  0  0
 12 20  2  0  0  0  0
 12 19  1  0  0  0  0
 13 20  1  0  0  0  0
 14 15  1  0  0  0  0
 18 19  2  0  0  0  0
M  CHG  1  21  -1
M  END
>  <CHROM.1>
9.76307016,169.88544617,-173.66505092,-174.51154184,-20.70274230,-34.84053966
4.52999501,-20.87840998,-0.35266967,0.41173483,3.10812221

>  <Name>
ligand

>  <RI>
0

>  <Rbt.Current_Directory>
/home/itssahil/PROJECTS/Mol_Feturizer/Test_systems_manuscript/rnas/4xwf

>  <Rbt.Executable>
rbdock ($Id: //depot/dev/client3/rdock/2013.1/src/exe/rbdock.cxx#4 $)

>  <Rbt.Library>
libRbt.so (2013.1, Build901 2013/11/27)

>  <Rbt.Parameter_File>
/export/apps/rDock/src/rDock_2013.1_src/data/scripts/dock_solv.prm

>  <Rbt.Receptor>
prm/blind_docking_80.prm

>  <SCORE>
-8.09955

>  <SCORE.INTER>
-8.43085

>  <SCORE.INTER.CONST>
1

>  <SCORE.INTER.POLAR>
0

>  <SCORE.INTER.ROT>
5

>  <SCORE.INTER.SOLV>
12.1495

>  <SCORE.INTER.VDW>
-16.6037

>  <SCORE.INTER.norm>
-0.38322

>  <SCORE.INTRA>
0.331298

>  <SCORE.INTRA.DIHEDRAL>
-1.04733

>  <SCORE.INTRA.DIHEDRAL.0>
3.49807

>  <SCORE.INTRA.POLAR>
0

>  <SCORE.INTRA.POLAR.0>
0

>  <SCORE.INTRA.REPUL>
0

>  <SCORE.INTRA.REPUL.0>
0

>  <SCORE.INTRA.SOLV>
1.4214

>  <SCORE.INTRA.SOLV.lig_0>
-73.062

>  <SCORE.INTRA.VDW>
0.144265

>  <SCORE.INTRA.VDW.0>
-1.83782

>  <SCORE.INTRA.norm>
0.015059

>  <SCORE.RESTR>
0

>  <SCORE.RESTR.CAVITY>
0

>  <SCORE.RESTR.norm>
0

>  <SCORE.SYSTEM>
0

>  <SCORE.SYSTEM.CONST>
0

>  <SCORE.SYSTEM.DIHEDRAL>
0

>  <SCORE.SYSTEM.SOLV>
0

>  <SCORE.SYSTEM.norm>
0

>  <SCORE.heavy>
22

>  <SCORE.norm>
-0.368161

>  <RMSD>
13.764

$$$$
ligand
 OpenBabel02271912143D
libRbt.so/2013.1/901 2013/11/27
 22 23  0  0  0  0  0  0  0  0999 V2000
  -33.3713    4.1628  -20.7178 N   0  0  0  0  0  0  0  0  0  0  0  0
  -35.7856    1.9458  -21.5596 C   0  0  1  0  0  0  0  0  0  0  0  0
  -34.5927    2.6674  -21.9794 O   0  0  0  0  0  0  0  0  0  0  0  0
  -37.9634    4.4698  -23.3588 P   0  0  1  0  0  0  0  0  0  0  0  0
  -33.7497    2.8408  -20.8289 C   0  0  2  0  0  0  0  0  0  0  0  0
  -33.3154    6.3133  -21.0070 N   0  0  0  0  0  0  0  0  0  0  0  0
  -33.8437    2.1535  -18.5453 O   0  0  0  0  0  0  0  0  0  0  0  0
  -34.6293    2.5589  -19.6723 C   0  0  2  0  0  0  0  0  0  0  0  0
  -31.5587    7.0455  -18.0011 N   0  0  0  0  0  0  0  0  0  0  0  0
  -34.8379    0.2597  -20.2354 O   0  0  0  0  0  0  0  0  0  0  0  0
  -35.5249    1.5205  -20.1669 C   0  0  2  0  0  0  0  0  0  0  0  0
  -32.3960    5.9906  -20.0844 C   0  0  0  0  0  0  0  0  0  0  0  0
  -31.6328    3.8965  -18.9908 N   0  0  0  0  0  0  0  0  0  0  0  0
  -36.9313    3.3639  -22.9461 O   0  0  0  0  0  0  0  0  0  0  0  0
  -36.9253    2.9026  -21.6342 C   0  0  0  0  0  0  0  0  0  0  0  0
  -39.3506    3.7569  -23.1636 O   0  0  0  0  0  0  0  0  0  0  0  0
  -33.9158    5.1748  -21.4033 C   0  0  0  0  0  0  0  0  0  0  0  0
  -30.7173    7.6387  -20.0323 O   0  0  0  0  0  0  0  0  0  0  0  0
  -31.5008    6.9368  -19.3932 C   0  0  0  0  0  0  0  0  0  0  0  0
  -32.4273    4.6384  -19.8947 C   0  0  0  0  0  0  0  0  0  0  0  0
  -37.7653    5.6829  -22.5121 O   0  5  0  0  0  0  0  0  0  0  0  0
  -37.6579    4.9944  -24.7019 O   0  0  0  0  0  0  0  0  0  0  0  0
  1 17  1  0  0  0  0
  1 20  1  0  0  0  0
  2 15  1  1  0  0  0
  2  3  1  0  0  0  0
  2 11  1  0  0  0  0
  3  5  1  0  0  0  0
  4 16  1  1  0  0  0
  4 21  1  0  0  0  0
  4 22  2  0  0  0  0
  4 14  1  0  0  0  0
  5  1  1  1  0  0  0
  5  8  1  0  0  0  0
  6 17  2  0  0  0  0
  6 12  1  0  0  0  0
  8  7  1  1  0  0  0
  8 11  1  0  0  0  0
  9 19  1  0  0  0  0
 11 10  1  6  0  0  0
 12 20  2  0  0  0  0
 12 19  1  0  0  0  0
 13 20  1  0  0  0  0
 14 15  1  0  0  0  0
 18 19  2  0  0  0  0
M  CHG  1  21  -1
M  END
>  <CHROM.1>
12.54963306,56.39027472,-63.89757302,-176.27153842,119.73951338,-34.83866043
4.11974229,-21.13371759,-0.08547383,0.60327166,2.81119908

>  <Name>
ligand

>  <RI>
0

>  <Rbt.Current_Directory>
/home/itssahil/PROJECTS/Mol_Feturizer/Test_systems_manuscript/rnas/4xwf

>  <Rbt.Executable>
rbdock ($Id: //depot/dev/client3/rdock/2013.1/src/exe/rbdock.cxx#4 $)

>  <Rbt.Library>
libRbt.so (2013.1, Build901 2013/11/27)

>  <Rbt.Parameter_File>
/export/apps/rDock/src/rDock_2013.1_src/data/scripts/dock_solv.prm

>  <Rbt.Receptor>
prm/blind_docking_80.prm

>  <SCORE>
-10.449

>  <SCORE.INTER>
-9.71605

>  <SCORE.INTER.CONST>
1

>  <SCORE.INTER.POLAR>
0

>  <SCORE.INTER.ROT>
5

>  <SCORE.INTER.SOLV>
16.8083

>  <SCORE.INTER.VDW>
-19.0135

>  <SCORE.INTER.norm>
-0.441639

>  <SCORE.INTRA>
-0.732973

>  <SCORE.INTRA.DIHEDRAL>
-1.85047

>  <SCORE.INTRA.DIHEDRAL.0>
3.49807

>  <SCORE.INTRA.POLAR>
0

>  <SCORE.INTRA.POLAR.0>
0

>  <SCORE.INTRA.REPUL>
0

>  <SCORE.INTRA.REPUL.0>
0

>  <SCORE.INTRA.SOLV>
0.871951

>  <SCORE.INTRA.SOLV.lig_0>
-73.062

>  <SCORE.INTRA.VDW>
-0.243713

>  <SCORE.INTRA.VDW.0>
-1.83782

>  <SCORE.INTRA.norm>
-0.0333169

>  <SCORE.RESTR>
0

>  <SCORE.RESTR.CAVITY>
0

>  <SCORE.RESTR.norm>
0

>  <SCORE.SYSTEM>
0

>  <SCORE.SYSTEM.CONST>
0

>  <SCORE.SYSTEM.DIHEDRAL>
0

>  <SCORE.SYSTEM.SOLV>
0

>  <SCORE.SYSTEM.norm>
0

>  <SCORE.heavy>
22

>  <SCORE.norm>
-0.474956

>  <RMSD>
13.770

$$$$
ligand
 OpenBabel02271912143D
libRbt.so/2013.1/901 2013/11/27
 22 23  0  0  0  0  0  0  0  0999 V2000
  -33.7239    6.9363  -20.6334 N   0  0  0  0  0  0  0  0  0  0  0  0
  -33.6022    3.6438  -21.4064 C   0  0  1  0  0  0  0  0  0  0  0  0
  -33.3733    5.0105  -21.8533 O   0  0  0  0  0  0  0  0  0  0  0  0
  -36.9385    3.8792  -23.1529 P   0  0  1  0  0  0  0  0  0  0  0  0
  -32.9642    5.7877  -20.7162 C   0  0  2  0  0  0  0  0  0  0  0  0
  -35.4431    8.2583  -20.5439 N   0  0  0  0  0  0  0  0  0  0  0  0
  -32.5163    5.3172  -18.4197 O   0  0  0  0  0  0  0  0  0  0  0  0
  -33.3283    4.9600  -19.5444 C   0  0  2  0  0  0  0  0  0  0  0  0
  -35.4371   11.1313  -19.7666 N   0  0  0  0  0  0  0  0  0  0  0  0
  -31.7126    3.2965  -20.0636 O   0  0  0  0  0  0  0  0  0  0  0  0
  -33.1178    3.5946  -20.0096 C   0  0  2  0  0  0  0  0  0  0  0  0
  -34.3350    9.0018  -20.4028 C   0  0  0  0  0  0  0  0  0  0  0  0
  -31.8936    8.5580  -20.3242 N   0  0  0  0  0  0  0  0  0  0  0  0
  -35.4224    3.6989  -22.7956 O   0  0  0  0  0  0  0  0  0  0  0  0
  -35.0696    3.3975  -21.4847 C   0  0  0  0  0  0  0  0  0  0  0  0
  -36.9330    3.9349  -24.7237 O   0  0  0  0  0  0  0  0  0  0  0  0
  -35.0601    6.9758  -20.6931 C   0  0  0  0  0  0  0  0  0  0  0  0
  -33.2770   11.1020  -20.4867 O   0  0  0  0  0  0  0  0  0  0  0  0
  -34.2968   10.4650  -20.2235 C   0  0  0  0  0  0  0  0  0  0  0  0
  -33.2484    8.1760  -20.4550 C   0  0  0  0  0  0  0  0  0  0  0  0
  -37.7282    2.7519  -22.5753 O   0  5  0  0  0  0  0  0  0  0  0  0
  -37.5095    5.0355  -22.4391 O   0  0  0  0  0  0  0  0  0  0  0  0
  1 17  1  0  0  0  0
  1 20  1  0  0  0  0
  2 15  1  1  0  0  0
  2  3  1  0  0  0  0
  2 11  1  0  0  0  0
  3  5  1  0  0  0  0
  4 16  1  6  0  0  0
  4 21  1  0  0  0  0
  4 22  2  0  0  0  0
  4 14  1  0  0  0  0
  5  1  1  1  0  0  0
  5  8  1  0  0  0  0
  6 17  2  0  0  0  0
  6 12  1  0  0  0  0
  8  7  1  1  0  0  0
  8 11  1  0  0  0  0
  9 19  1  0  0  0  0
 11 10  1  6  0  0  0
 12 20  2  0  0  0  0
 12 19  1  0  0  0  0
 13 20  1  0  0  0  0
 14 15  1  0  0  0  0
 18 19  2  0  0  0  0
M  CHG  1  21  -1
M  END
>  <CHROM.1>
49.70811916,54.88740360,-169.86675818,-165.67397470,20.44221488,-34.57405438
5.92057430,-21.19429939,-1.11769415,0.57643595,-2.97865063

>  <Name>
ligand

>  <RI>
0

>  <Rbt.Current_Directory>
/home/itssahil/PROJECTS/Mol_Feturizer/Test_systems_manuscript/rnas/4xwf

>  <Rbt.Executable>
rbdock ($Id: //depot/dev/client3/rdock/2013.1/src/exe/rbdock.cxx#4 $)

>  <Rbt.Library>
libRbt.so (2013.1, Build901 2013/11/27)

>  <Rbt.Parameter_File>
/export/apps/rDock/src/rDock_2013.1_src/data/scripts/dock_solv.prm

>  <Rbt.Receptor>
prm/blind_docking_100.prm

>  <SCORE>
-10.7213

>  <SCORE.INTER>
-10.4327

>  <SCORE.INTER.CONST>
1

>  <SCORE.INTER.POLAR>
0

>  <SCORE.INTER.ROT>
5

>  <SCORE.INTER.SOLV>
14.6253

>  <SCORE.INTER.VDW>
-18.7635

>  <SCORE.INTER.norm>
-0.474212

>  <SCORE.INTRA>
-0.288578

>  <SCORE.INTRA.DIHEDRAL>
-0.377589

>  <SCORE.INTRA.DIHEDRAL.0>
3.49807

>  <SCORE.INTRA.POLAR>
0

>  <SCORE.INTRA.POLAR.0>
0

>  <SCORE.INTRA.REPUL>
0

>  <SCORE.INTRA.REPUL.0>
0

>  <SCORE.INTRA.SOLV>
0.375779

>  <SCORE.INTRA.SOLV.lig_0>
-73.062

>  <SCORE.INTRA.VDW>
-0.287673

>  <SCORE.INTRA.VDW.0>
-1.83782

>  <SCORE.INTRA.norm>
-0.0131172

>  <SCORE.RESTR>
0

>  <SCORE.RESTR.CAVITY>
0

>  <SCORE.RESTR.norm>
0

>  <SCORE.SYSTEM>
0

>  <SCORE.SYSTEM.CONST>
0

>  <SCORE.SYSTEM.DIHEDRAL>
0

>  <SCORE.SYSTEM.SOLV>
0

>  <SCORE.SYSTEM.norm>
0

>  <SCORE.heavy>
22

>  <SCORE.norm>
-0.48733

>  <RMSD>
13.779

$$$$
ligand
 OpenBabel02271912143D
libRbt.so/2013.1/901 2013/11/27
 22 23  0  0  0  0  0  0  0  0999 V2000
  -36.4697    4.3596  -22.3329 N   0  0  0  0  0  0  0  0  0  0  0  0
  -34.0209    5.6907  -20.4135 C   0  0  1  0  0  0  0  0  0  0  0  0
  -35.4202    5.2994  -20.5067 O   0  0  0  0  0  0  0  0  0  0  0  0
  -32.1564    8.8641  -21.2659 P   0  0  1  0  0  0  0  0  0  0  0  0
  -35.5052    4.1529  -21.3685 C   0  0  2  0  0  0  0  0  0  0  0  0
  -37.6331    4.1419  -24.1523 N   0  0  0  0  0  0  0  0  0  0  0  0
  -33.9265    2.7864  -22.5244 O   0  0  0  0  0  0  0  0  0  0  0  0
  -34.2061    4.1181  -22.0770 C   0  0  2  0  0  0  0  0  0  0  0  0
  -40.2146    5.4290  -24.8175 N   0  0  0  0  0  0  0  0  0  0  0  0
  -33.0000    3.6049  -20.0948 O   0  0  0  0  0  0  0  0  0  0  0  0
  -33.2602    4.6141  -21.0848 C   0  0  2  0  0  0  0  0  0  0  0  0
  -38.2073    5.0924  -23.3991 C   0  0  0  0  0  0  0  0  0  0  0  0
  -37.7626    6.1133  -21.1802 N   0  0  0  0  0  0  0  0  0  0  0  0
  -32.5727    7.3985  -20.8955 O   0  0  0  0  0  0  0  0  0  0  0  0
  -33.8803    6.9885  -21.1319 C   0  0  0  0  0  0  0  0  0  0  0  0
  -32.9392    9.7354  -20.2177 O   0  0  0  0  0  0  0  0  0  0  0  0
  -36.5501    3.6925  -23.4901 C   0  0  0  0  0  0  0  0  0  0  0  0
  -39.7188    6.8758  -23.1303 O   0  0  0  0  0  0  0  0  0  0  0  0
  -39.4169    5.8580  -23.7532 C   0  0  0  0  0  0  0  0  0  0  0  0
  -37.4821    5.2331  -22.2503 C   0  0  0  0  0  0  0  0  0  0  0  0
  -30.6714    8.9971  -21.1971 O   0  5  0  0  0  0  0  0  0  0  0  0
  -32.4110    9.1348  -22.6923 O   0  0  0  0  0  0  0  0  0  0  0  0
  1 17  1  0  0  0  0
  1 20  1  0  0  0  0
  2 15  1  6  0  0  0
  2  3  1  0  0  0  0
  2 11  1  0  0  0  0
  3  5  1  0  0  0  0
  4 16  1  1  0  0  0
  4 21  1  0  0  0  0
  4 22  2  0  0  0  0
  4 14  1  0  0  0  0
  5  1  1  6  0  0  0
  5  8  1  0  0  0  0
  6 17  2  0  0  0  0
  6 12  1  0  0  0  0
  8  7  1  1  0  0  0
  8 11  1  0  0  0  0
  9 19  1  0  0  0  0
 11 10  1  1  0  0  0
 12 20  2  0  0  0  0
 12 19  1  0  0  0  0
 13 20  1  0  0  0  0
 14 15  1  0  0  0  0
 18 19  2  0  0  0  0
M  CHG  1  21  -1
M  END
>  <CHROM.1>
160.07909335,173.63906417,69.20570817,-168.04205941,13.33337224,-35.05112905
6.06174984,-21.91187546,-2.71685796,-0.37824315,-0.06297393

>  <Name>
ligand

>  <RI>
0

>  <Rbt.Current_Directory>
/home/itssahil/PROJECTS/Mol_Feturizer/Test_systems_manuscript/rnas/4xwf

>  <Rbt.Executable>
rbdock ($Id: //depot/dev/client3/rdock/2013.1/src/exe/rbdock.cxx#4 $)

>  <Rbt.Library>
libRbt.so (2013.1, Build901 2013/11/27)

>  <Rbt.Parameter_File>
/export/apps/rDock/src/rDock_2013.1_src/data/scripts/dock_solv.prm

>  <Rbt.Receptor>
prm/blind_docking_80.prm

>  <SCORE>
-7.44471

>  <SCORE.INTER>
-8.77722

>  <SCORE.INTER.CONST>
1

>  <SCORE.INTER.POLAR>
0

>  <SCORE.INTER.ROT>
5

>  <SCORE.INTER.SOLV>
8.91727

>  <SCORE.INTER.VDW>
-15.7572

>  <SCORE.INTER.norm>
-0.398964

>  <SCORE.INTRA>
1.33251

>  <SCORE.INTRA.DIHEDRAL>
-0.892626

>  <SCORE.INTRA.DIHEDRAL.0>
3.49807

>  <SCORE.INTRA.POLAR>
0

>  <SCORE.INTRA.POLAR.0>
0

>  <SCORE.INTRA.REPUL>
0

>  <SCORE.INTRA.REPUL.0>
0

>  <SCORE.INTRA.SOLV>
1.37249

>  <SCORE.INTRA.SOLV.lig_0>
-73.062

>  <SCORE.INTRA.VDW>
1.09257

>  <SCORE.INTRA.VDW.0>
-1.83782

>  <SCORE.INTRA.norm>
0.0605685

>  <SCORE.RESTR>
0

>  <SCORE.RESTR.CAVITY>
0

>  <SCORE.RESTR.norm>
0

>  <SCORE.SYSTEM>
0

>  <SCORE.SYSTEM.CONST>
0

>  <SCORE.SYSTEM.DIHEDRAL>
0

>  <SCORE.SYSTEM.SOLV>
0

>  <SCORE.SYSTEM.norm>
0

>  <SCORE.heavy>
22

>  <SCORE.norm>
-0.338396

>  <RMSD>
13.822

$$$$
ligand
 OpenBabel02271912143D
libRbt.so/2013.1/901 2013/11/27
 22 23  0  0  0  0  0  0  0  0999 V2000
  -34.8977   -4.4160  -13.5328 N   0  0  0  0  0  0  0  0  0  0  0  0
  -33.6513   -7.3062  -12.2894 C   0  0  1  0  0  0  0  0  0  0  0  0
  -33.6218   -5.8509  -12.2549 O   0  0  0  0  0  0  0  0  0  0  0  0
  -32.0171   -9.9255  -14.4648 P   0  0  1  0  0  0  0  0  0  0  0  0
  -34.9463   -5.3723  -12.5396 C   0  0  2  0  0  0  0  0  0  0  0  0
  -34.9670   -2.4920  -14.5349 N   0  0  0  0  0  0  0  0  0  0  0  0
  -37.0654   -6.3966  -12.9344 O   0  0  0  0  0  0  0  0  0  0  0  0
  -35.6518   -6.5387  -13.1162 C   0  0  2  0  0  0  0  0  0  0  0  0
  -35.0109   -2.1398  -17.5258 N   0  0  0  0  0  0  0  0  0  0  0  0
  -35.6030   -7.7370  -11.0647 O   0  0  0  0  0  0  0  0  0  0  0  0
  -35.0798   -7.6736  -12.4021 C   0  0  2  0  0  0  0  0  0  0  0  0
  -34.6228   -3.4227  -15.4382 C   0  0  0  0  0  0  0  0  0  0  0  0
  -34.2285   -5.8736  -15.4046 N   0  0  0  0  0  0  0  0  0  0  0  0
  -32.5685   -9.0685  -13.2732 O   0  0  0  0  0  0  0  0  0  0  0  0
  -32.8814   -7.7314  -13.4921 C   0  0  0  0  0  0  0  0  0  0  0  0
  -31.6611  -11.2976  -13.7857 O   0  0  0  0  0  0  0  0  0  0  0  0
  -35.1432   -3.1130  -13.3531 C   0  0  0  0  0  0  0  0  0  0  0  0
  -33.5477   -3.8841  -17.4799 O   0  0  0  0  0  0  0  0  0  0  0  0
  -34.3458   -3.1765  -16.8656 C   0  0  0  0  0  0  0  0  0  0  0  0
  -34.5741   -4.6365  -14.8140 C   0  0  0  0  0  0  0  0  0  0  0  0
  -33.0494  -10.0150  -15.5392 O   0  5  0  0  0  0  0  0  0  0  0  0
  -30.9289   -9.2147  -15.1599 O   0  0  0  0  0  0  0  0  0  0  0  0
  1 17  1  0  0  0  0
  1 20  1  0  0  0  0
  2 15  1  6  0  0  0
  2  3  1  0  0  0  0
  2 11  1  0  0  0  0
  3  5  1  0  0  0  0
  4 16  1  1  0  0  0
  4 21  1  0  0  0  0
  4 22  2  0  0  0  0
  4 14  1  0  0  0  0
  5  1  1  6  0  0  0
  5  8  1  0  0  0  0
  6 17  2  0  0  0  0
  6 12  1  0  0  0  0
  8  7  1  1  0  0  0
  8 11  1  0  0  0  0
  9 19  1  0  0  0  0
 11 10  1  1  0  0  0
 12 20  2  0  0  0  0
 12 19  1  0  0  0  0
 13 20  1  0  0  0  0
 14 15  1  0  0  0  0
 18 19  2  0  0  0  0
M  CHG  1  21  -1
M  END
>  <CHROM.1>
-110.64372271,161.68389583,174.58529628,167.41729303,-31.03020029,-33.93529986
-6.57072524,-14.14965702,2.18430350,0.89430510,-0.71723715

>  <Name>
ligand

>  <RI>
0

>  <Rbt.Current_Directory>
/home/itssahil/PROJECTS/Mol_Feturizer/Test_systems_manuscript/rnas/4xwf

>  <Rbt.Executable>
rbdock ($Id: //depot/dev/client3/rdock/2013.1/src/exe/rbdock.cxx#4 $)

>  <Rbt.Library>
libRbt.so (2013.1, Build901 2013/11/27)

>  <Rbt.Parameter_File>
/export/apps/rDock/src/rDock_2013.1_src/data/scripts/dock_solv.prm

>  <Rbt.Receptor>
prm/blind_docking_40.prm

>  <SCORE>
-3.51539

>  <SCORE.INTER>
-6.87111

>  <SCORE.INTER.CONST>
1

>  <SCORE.INTER.POLAR>
0

>  <SCORE.INTER.ROT>
5

>  <SCORE.INTER.SOLV>
14.4574

>  <SCORE.INTER.VDW>
-16.3332

>  <SCORE.INTER.norm>
-0.312323

>  <SCORE.INTRA>
3.35276

>  <SCORE.INTRA.DIHEDRAL>
0.752987

>  <SCORE.INTRA.DIHEDRAL.0>
3.49807

>  <SCORE.INTRA.POLAR>
0

>  <SCORE.INTRA.POLAR.0>
0

>  <SCORE.INTRA.REPUL>
0

>  <SCORE.INTRA.REPUL.0>
0

>  <SCORE.INTRA.SOLV>
5.26463

>  <SCORE.INTRA.SOLV.lig_0>
-73.062

>  <SCORE.INTRA.VDW>
0.343952

>  <SCORE.INTRA.VDW.0>
-1.83782

>  <SCORE.INTRA.norm>
0.152398

>  <SCORE.RESTR>
0.0029625

>  <SCORE.RESTR.CAVITY>
0.0029625

>  <SCORE.RESTR.norm>
0.000134659

>  <SCORE.SYSTEM>
0

>  <SCORE.SYSTEM.CONST>
0

>  <SCORE.SYSTEM.DIHEDRAL>
0

>  <SCORE.SYSTEM.SOLV>
0

>  <SCORE.SYSTEM.norm>
0

>  <SCORE.heavy>
22

>  <SCORE.norm>
-0.15979

>  <RMSD>
13.844

$$$$
ligand
 OpenBabel02271912143D
libRbt.so/2013.1/901 2013/11/27
 22 23  0  0  0  0  0  0  0  0999 V2000
  -34.9039   -4.4414  -13.5569 N   0  0  0  0  0  0  0  0  0  0  0  0
  -33.6301   -7.3195  -12.3133 C   0  0  1  0  0  0  0  0  0  0  0  0
  -33.6254   -5.8642  -12.2682 O   0  0  0  0  0  0  0  0  0  0  0  0
  -31.9742   -9.9111  -14.4971 P   0  0  1  0  0  0  0  0  0  0  0  0
  -34.9528   -5.4055  -12.5713 C   0  0  2  0  0  0  0  0  0  0  0  0
  -34.9538   -2.5073  -14.5407 N   0  0  0  0  0  0  0  0  0  0  0  0
  -37.0479   -6.4617  -13.0080 O   0  0  0  0  0  0  0  0  0  0  0  0
  -35.6293   -6.5792  -13.1676 C   0  0  2  0  0  0  0  0  0  0  0  0
  -34.9321   -2.0446  -17.4919 N   0  0  0  0  0  0  0  0  0  0  0  0
  -35.5941   -7.7914  -11.1239 O   0  0  0  0  0  0  0  0  0  0  0  0
  -35.0503   -7.7096  -12.4520 C   0  0  2  0  0  0  0  0  0  0  0  0
  -34.6452   -3.4363  -15.4584 C   0  0  0  0  0  0  0  0  0  0  0  0
  -34.2990   -5.8947  -15.4536 N   0  0  0  0  0  0  0  0  0  0  0  0
  -32.5072   -9.0582  -13.2942 O   0  0  0  0  0  0  0  0  0  0  0  0
  -32.8337   -7.7232  -13.5061 C   0  0  0  0  0  0  0  0  0  0  0  0
  -31.5847  -11.2770  -13.8240 O   0  0  0  0  0  0  0  0  0  0  0  0
  -35.1201   -3.1354  -13.3611 C   0  0  0  0  0  0  0  0  0  0  0  0
  -33.7188   -3.9707  -17.5545 O   0  0  0  0  0  0  0  0  0  0  0  0
  -34.3901   -3.1827  -16.8885 C   0  0  0  0  0  0  0  0  0  0  0  0
  -34.6088   -4.6565  -14.8458 C   0  0  0  0  0  0  0  0  0  0  0  0
  -33.0310  -10.0159  -15.5460 O   0  5  0  0  0  0  0  0  0  0  0  0
  -30.9121   -9.1883  -15.2198 O   0  0  0  0  0  0  0  0  0  0  0  0
  1 17  1  0  0  0  0
  1 20  1  0  0  0  0
  2 15  1  6  0  0  0
  2  3  1  0  0  0  0
  2 11  1  0  0  0  0
  3  5  1  0  0  0  0
  4 16  1  1  0  0  0
  4 21  1  0  0  0  0
  4 22  2  0  0  0  0
  4 14  1  0  0  0  0
  5  1  1  6  0  0  0
  5  8  1  0  0  0  0
  6 17  2  0  0  0  0
  6 12  1  0  0  0  0
  8  7  1  1  0  0  0
  8 11  1  0  0  0  0
  9 19  1  0  0  0  0
 11 10  1  1  0  0  0
 12 20  2  0  0  0  0
 12 19  1  0  0  0  0
 13 20  1  0  0  0  0
 14 15  1  0  0  0  0
 18 19  2  0  0  0  0
M  CHG  1  21  -1
M  END
>  <CHROM.1>
-107.74104679,161.93767519,174.16534357,165.15802939,-24.17173000,-33.92760940
-6.58265398,-14.18129682,2.19579271,0.89205294,-0.72773148

>  <Name>
ligand

>  <RI>
0

>  <Rbt.Current_Directory>
/home/itssahil/PROJECTS/Mol_Feturizer/Test_systems_manuscript/rnas/4xwf

>  <Rbt.Executable>
rbdock ($Id: //depot/dev/client3/rdock/2013.1/src/exe/rbdock.cxx#4 $)

>  <Rbt.Library>
libRbt.so (2013.1, Build901 2013/11/27)

>  <Rbt.Parameter_File>
/export/apps/rDock/src/rDock_2013.1_src/data/scripts/dock_solv.prm

>  <Rbt.Receptor>
prm/blind_docking_40.prm

>  <SCORE>
-3.26018

>  <SCORE.INTER>
-6.82616

>  <SCORE.INTER.CONST>
1

>  <SCORE.INTER.POLAR>
0

>  <SCORE.INTER.ROT>
5

>  <SCORE.INTER.SOLV>
14.4646

>  <SCORE.INTER.VDW>
-16.3056

>  <SCORE.INTER.norm>
-0.31028

>  <SCORE.INTRA>
3.56597

>  <SCORE.INTRA.DIHEDRAL>
0.717171

>  <SCORE.INTRA.DIHEDRAL.0>
3.49807

>  <SCORE.INTRA.POLAR>
0

>  <SCORE.INTRA.POLAR.0>
0

>  <SCORE.INTRA.REPUL>
0

>  <SCORE.INTRA.REPUL.0>
0

>  <SCORE.INTRA.SOLV>
5.31163

>  <SCORE.INTRA.SOLV.lig_0>
-73.062

>  <SCORE.INTRA.VDW>
0.551572

>  <SCORE.INTRA.VDW.0>
-1.83782

>  <SCORE.INTRA.norm>
0.16209

>  <SCORE.RESTR>
0

>  <SCORE.RESTR.CAVITY>
0

>  <SCORE.RESTR.norm>
0

>  <SCORE.SYSTEM>
0

>  <SCORE.SYSTEM.CONST>
0

>  <SCORE.SYSTEM.DIHEDRAL>
0

>  <SCORE.SYSTEM.SOLV>
0

>  <SCORE.SYSTEM.norm>
0

>  <SCORE.heavy>
22

>  <SCORE.norm>
-0.14819

>  <RMSD>
13.850

$$$$
ligand
 OpenBabel02271912143D
libRbt.so/2013.1/901 2013/11/27
 22 23  0  0  0  0  0  0  0  0999 V2000
  -36.3803    4.5151  -22.3279 N   0  0  0  0  0  0  0  0  0  0  0  0
  -34.0324    5.9418  -20.3520 C   0  0  1  0  0  0  0  0  0  0  0  0
  -35.4333    5.5799  -20.5143 O   0  0  0  0  0  0  0  0  0  0  0  0
  -32.0008    8.9654  -21.3745 P   0  0  1  0  0  0  0  0  0  0  0  0
  -35.4933    4.3667  -21.2818 C   0  0  2  0  0  0  0  0  0  0  0  0
  -37.5439    4.0859  -24.1092 N   0  0  0  0  0  0  0  0  0  0  0  0
  -33.8809    2.8669  -22.2018 O   0  0  0  0  0  0  0  0  0  0  0  0
  -34.1492    4.2385  -21.8881 C   0  0  2  0  0  0  0  0  0  0  0  0
  -38.5515    7.4567  -24.6828 N   0  0  0  0  0  0  0  0  0  0  0  0
  -33.1029    3.8653  -19.7874 O   0  0  0  0  0  0  0  0  0  0  0  0
  -33.2606    4.7928  -20.8741 C   0  0  2  0  0  0  0  0  0  0  0  0
  -37.9077    5.2939  -23.6522 C   0  0  0  0  0  0  0  0  0  0  0  0
  -37.2771    6.7316  -21.7289 N   0  0  0  0  0  0  0  0  0  0  0  0
  -32.5087    7.5780  -20.8495 O   0  0  0  0  0  0  0  0  0  0  0  0
  -33.8004    7.1697  -21.1635 C   0  0  0  0  0  0  0  0  0  0  0  0
  -32.8086    9.9959  -20.5049 O   0  0  0  0  0  0  0  0  0  0  0  0
  -36.5902    3.6069  -23.2879 C   0  0  0  0  0  0  0  0  0  0  0  0
  -40.0850    5.7994  -24.3876 O   0  0  0  0  0  0  0  0  0  0  0  0
  -38.9200    6.1762  -24.2617 C   0  0  0  0  0  0  0  0  0  0  0  0
  -37.1815    5.5699  -22.5289 C   0  0  0  0  0  0  0  0  0  0  0  0
  -30.5188    9.0497  -21.2183 O   0  5  0  0  0  0  0  0  0  0  0  0
  -32.1487    9.0560  -22.8383 O   0  0  0  0  0  0  0  0  0  0  0  0
  1 17  1  0  0  0  0
  1 20  1  0  0  0  0
  2 15  1  6  0  0  0
  2  3  1  0  0  0  0
  2 11  1  0  0  0  0
  3  5  1  0  0  0  0
  4 16  1  1  0  0  0
  4 21  1  0  0  0  0
  4 22  2  0  0  0  0
  4 14  1  0  0  0  0
  5  1  1  6  0  0  0
  5  8  1  0  0  0  0
  6 17  2  0  0  0  0
  6 12  1  0  0  0  0
  8  7  1  1  0  0  0
  8 11  1  0  0  0  0
  9 19  1  0  0  0  0
 11 10  1  1  0  0  0
 12 20  2  0  0  0  0
 12 19  1  0  0  0  0
 13 20  1  0  0  0  0
 14 15  1  0  0  0  0
 18 19  2  0  0  0  0
M  CHG  1  21  -1
M  END
>  <CHROM.1>
174.67056106,172.63531722,71.45643328,-171.43397001,-120.96244746,-34.88481095
6.25219716,-21.99864201,-2.78330188,-0.47670127,-0.22175550

>  <Name>
ligand

>  <RI>
0

>  <Rbt.Current_Directory>
/home/itssahil/PROJECTS/Mol_Feturizer/Test_systems_manuscript/rnas/4xwf

>  <Rbt.Executable>
rbdock ($Id: //depot/dev/client3/rdock/2013.1/src/exe/rbdock.cxx#4 $)

>  <Rbt.Library>
libRbt.so (2013.1, Build901 2013/11/27)

>  <Rbt.Parameter_File>
/export/apps/rDock/src/rDock_2013.1_src/data/scripts/dock_solv.prm

>  <Rbt.Receptor>
prm/blind_docking_100.prm

>  <SCORE>
-8.10718

>  <SCORE.INTER>
-9.3348

>  <SCORE.INTER.CONST>
1

>  <SCORE.INTER.POLAR>
0

>  <SCORE.INTER.ROT>
5

>  <SCORE.INTER.SOLV>
8.96869

>  <SCORE.INTER.VDW>
-16.1461

>  <SCORE.INTER.norm>
-0.424309

>  <SCORE.INTRA>
1.22762

>  <SCORE.INTRA.DIHEDRAL>
-1.29167

>  <SCORE.INTRA.DIHEDRAL.0>
3.49807

>  <SCORE.INTRA.POLAR>
0

>  <SCORE.INTRA.POLAR.0>
0

>  <SCORE.INTRA.REPUL>
0

>  <SCORE.INTRA.REPUL.0>
0

>  <SCORE.INTRA.SOLV>
2.30932

>  <SCORE.INTRA.SOLV.lig_0>
-73.062

>  <SCORE.INTRA.VDW>
0.718797

>  <SCORE.INTRA.VDW.0>
-1.83782

>  <SCORE.INTRA.norm>
0.0558011

>  <SCORE.RESTR>
0

>  <SCORE.RESTR.CAVITY>
0

>  <SCORE.RESTR.norm>
0

>  <SCORE.SYSTEM>
0

>  <SCORE.SYSTEM.CONST>
0

>  <SCORE.SYSTEM.DIHEDRAL>
0

>  <SCORE.SYSTEM.SOLV>
0

>  <SCORE.SYSTEM.norm>
0

>  <SCORE.heavy>
22

>  <SCORE.norm>
-0.368508

>  <RMSD>
13.861

$$$$
ligand
 OpenBabel02271912143D
libRbt.so/2013.1/901 2013/11/27
 22 23  0  0  0  0  0  0  0  0999 V2000
  -33.8412    7.1725  -20.7911 N   0  0  0  0  0  0  0  0  0  0  0  0
  -33.6062    3.8449  -21.3606 C   0  0  1  0  0  0  0  0  0  0  0  0
  -33.4474    5.1883  -21.8990 O   0  0  0  0  0  0  0  0  0  0  0  0
  -36.9867    3.9891  -22.9903 P   0  0  1  0  0  0  0  0  0  0  0  0
  -33.0374    6.0519  -20.8264 C   0  0  2  0  0  0  0  0  0  0  0  0
  -35.6088    8.4320  -20.8041 N   0  0  0  0  0  0  0  0  0  0  0  0
  -32.5026    5.7466  -18.5206 O   0  0  0  0  0  0  0  0  0  0  0  0
  -33.3320    5.2868  -19.5941 C   0  0  2  0  0  0  0  0  0  0  0  0
  -33.7525   11.4817  -21.2359 N   0  0  0  0  0  0  0  0  0  0  0  0
  -31.6650    3.6585  -20.0600 O   0  0  0  0  0  0  0  0  0  0  0  0
  -33.0791    3.9038  -19.9796 C   0  0  2  0  0  0  0  0  0  0  0  0
  -34.5378    9.2151  -20.6033 C   0  0  0  0  0  0  0  0  0  0  0  0
  -32.0905    8.8595  -20.3850 N   0  0  0  0  0  0  0  0  0  0  0  0
  -35.4677    3.7406  -22.6910 O   0  0  0  0  0  0  0  0  0  0  0  0
  -35.0638    3.5364  -21.3761 C   0  0  0  0  0  0  0  0  0  0  0  0
  -37.2654    5.3759  -22.3048 O   0  0  0  0  0  0  0  0  0  0  0  0
  -35.1724    7.1639  -20.9265 C   0  0  0  0  0  0  0  0  0  0  0  0
  -35.2765   11.1951  -19.5683 O   0  0  0  0  0  0  0  0  0  0  0  0
  -34.5623   10.6791  -20.4278 C   0  0  0  0  0  0  0  0  0  0  0  0
  -33.4212    8.4288  -20.5908 C   0  0  0  0  0  0  0  0  0  0  0  0
  -37.2181    3.9688  -24.4647 O   0  5  0  0  0  0  0  0  0  0  0  0
  -37.8006    2.8426  -22.5481 O   0  0  0  0  0  0  0  0  0  0  0  0
  1 17  1  0  0  0  0
  1 20  1  0  0  0  0
  2 15  1  1  0  0  0
  2  3  1  0  0  0  0
  2 11  1  0  0  0  0
  3  5  1  0  0  0  0
  4 16  1  1  0  0  0
  4 21  1  0  0  0  0
  4 22  2  0  0  0  0
  4 14  1  0  0  0  0
  5  1  1  1  0  0  0
  5  8  1  0  0  0  0
  6 17  2  0  0  0  0
  6 12  1  0  0  0  0
  8  7  1  1  0  0  0
  8 11  1  0  0  0  0
  9 19  1  0  0  0  0
 11 10  1  6  0  0  0
 12 20  2  0  0  0  0
 12 19  1  0  0  0  0
 13 20  1  0  0  0  0
 14 15  1  0  0  0  0
 18 19  2  0  0  0  0
M  CHG  1  21  -1
M  END
>  <CHROM.1>
43.60952426,54.83801342,66.30782801,-159.28459105,-126.85725672,-34.66176751
6.13354943,-21.22561384,-1.16120458,0.55515127,-2.99762094

>  <Name>
ligand

>  <RI>
0

>  <Rbt.Current_Directory>
/home/itssahil/PROJECTS/Mol_Feturizer/Test_systems_manuscript/rnas/4xwf

>  <Rbt.Executable>
rbdock ($Id: //depot/dev/client3/rdock/2013.1/src/exe/rbdock.cxx#4 $)

>  <Rbt.Library>
libRbt.so (2013.1, Build901 2013/11/27)

>  <Rbt.Parameter_File>
/export/apps/rDock/src/rDock_2013.1_src/data/scripts/dock_solv.prm

>  <Rbt.Receptor>
prm/blind_docking_100.prm

>  <SCORE>
-9.00988

>  <SCORE.INTER>
-8.15801

>  <SCORE.INTER.CONST>
1

>  <SCORE.INTER.POLAR>
0

>  <SCORE.INTER.ROT>
5

>  <SCORE.INTER.SOLV>
17.1719

>  <SCORE.INTER.VDW>
-18.096

>  <SCORE.INTER.norm>
-0.370819

>  <SCORE.INTRA>
-0.851869

>  <SCORE.INTRA.DIHEDRAL>
0.0802558

>  <SCORE.INTRA.DIHEDRAL.0>
3.49807

>  <SCORE.INTRA.POLAR>
0

>  <SCORE.INTRA.POLAR.0>
0

>  <SCORE.INTRA.REPUL>
0

>  <SCORE.INTRA.REPUL.0>
0

>  <SCORE.INTRA.SOLV>
-0.323173

>  <SCORE.INTRA.SOLV.lig_0>
-73.062

>  <SCORE.INTRA.VDW>
-0.73041

>  <SCORE.INTRA.VDW.0>
-1.83782

>  <SCORE.INTRA.norm>
-0.0387213

>  <SCORE.RESTR>
0

>  <SCORE.RESTR.CAVITY>
0

>  <SCORE.RESTR.norm>
0

>  <SCORE.SYSTEM>
0

>  <SCORE.SYSTEM.CONST>
0

>  <SCORE.SYSTEM.DIHEDRAL>
0

>  <SCORE.SYSTEM.SOLV>
0

>  <SCORE.SYSTEM.norm>
0

>  <SCORE.heavy>
22

>  <SCORE.norm>
-0.40954

>  <RMSD>
13.878

$$$$
ligand
 OpenBabel02271912143D
libRbt.so/2013.1/901 2013/11/27
 22 23  0  0  0  0  0  0  0  0999 V2000
  -34.3615   -4.9187  -15.4531 N   0  0  0  0  0  0  0  0  0  0  0  0
  -33.4459   -6.1299  -12.4287 C   0  0  1  0  0  0  0  0  0  0  0  0
  -33.2489   -5.1023  -13.4411 O   0  0  0  0  0  0  0  0  0  0  0  0
  -32.9621   -8.9979  -14.8406 P   0  0  1  0  0  0  0  0  0  0  0  0
  -34.5117   -4.8621  -14.0829 C   0  0  2  0  0  0  0  0  0  0  0  0
  -34.2851   -5.6925  -17.4795 N   0  0  0  0  0  0  0  0  0  0  0  0
  -36.7379   -5.6710  -13.7897 O   0  0  0  0  0  0  0  0  0  0  0  0
  -35.3515   -6.0213  -13.7060 C   0  0  2  0  0  0  0  0  0  0  0  0
  -34.7189   -2.5513  -19.0923 N   0  0  0  0  0  0  0  0  0  0  0  0
  -35.4241   -5.3806  -11.4188 O   0  0  0  0  0  0  0  0  0  0  0  0
  -34.9081   -6.3418  -12.3548 C   0  0  2  0  0  0  0  0  0  0  0  0
  -34.0781   -4.3676  -17.5289 C   0  0  0  0  0  0  0  0  0  0  0  0
  -33.9822   -2.5197  -15.8737 N   0  0  0  0  0  0  0  0  0  0  0  0
  -33.2737   -7.6205  -14.1592 O   0  0  0  0  0  0  0  0  0  0  0  0
  -32.7400   -7.3532  -12.9032 C   0  0  0  0  0  0  0  0  0  0  0  0
  -31.4000   -8.9684  -15.0120 O   0  0  0  0  0  0  0  0  0  0  0  0
  -34.4548   -6.0332  -16.1877 C   0  0  0  0  0  0  0  0  0  0  0  0
  -32.8732   -3.8284  -19.4769 O   0  0  0  0  0  0  0  0  0  0  0  0
  -33.8355   -3.5789  -18.7511 C   0  0  0  0  0  0  0  0  0  0  0  0
  -34.1278   -3.8727  -16.2569 C   0  0  0  0  0  0  0  0  0  0  0  0
  -33.4709  -10.1088  -13.9834 O   0  5  0  0  0  0  0  0  0  0  0  0
  -33.7713   -9.1722  -16.0603 O   0  0  0  0  0  0  0  0  0  0  0  0
  1 17  1  0  0  0  0
  1 20  1  0  0  0  0
  2 15  1  6  0  0  0
  2  3  1  0  0  0  0
  2 11  1  0  0  0  0
  3  5  1  0  0  0  0
  4 16  1  6  0  0  0
  4 21  1  0  0  0  0
  4 22  2  0  0  0  0
  4 14  1  0  0  0  0
  5  1  1  6  0  0  0
  5  8  1  0  0  0  0
  6 17  2  0  0  0  0
  6 12  1  0  0  0  0
  8  7  1  1  0  0  0
  8 11  1  0  0  0  0
  9 19  1  0  0  0  0
 11 10  1  1  0  0  0
 12 20  2  0  0  0  0
 12 19  1  0  0  0  0
 13 20  1  0  0  0  0
 14 15  1  0  0  0  0
 18 19  2  0  0  0  0
M  CHG  1  21  -1
M  END
>  <CHROM.1>
87.93752379,-55.82225821,-62.18186287,-168.26224482,119.71776878,-33.92428035
-6.11766435,-15.12712640,1.76974880,1.10923099,-0.93346723

>  <Name>
ligand

>  <RI>
0

>  <Rbt.Current_Directory>
/home/itssahil/PROJECTS/Mol_Feturizer/Test_systems_manuscript/rnas/4xwf

>  <Rbt.Executable>
rbdock ($Id: //depot/dev/client3/rdock/2013.1/src/exe/rbdock.cxx#4 $)

>  <Rbt.Library>
libRbt.so (2013.1, Build901 2013/11/27)

>  <Rbt.Parameter_File>
/export/apps/rDock/src/rDock_2013.1_src/data/scripts/dock_solv.prm

>  <Rbt.Receptor>
prm/blind_docking_40.prm

>  <SCORE>
-5.05242

>  <SCORE.INTER>
-6.53218

>  <SCORE.INTER.CONST>
1

>  <SCORE.INTER.POLAR>
0

>  <SCORE.INTER.ROT>
5

>  <SCORE.INTER.SOLV>
15.3419

>  <SCORE.INTER.VDW>
-16.4021

>  <SCORE.INTER.norm>
-0.296917

>  <SCORE.INTRA>
1.47092

>  <SCORE.INTRA.DIHEDRAL>
-1.18929

>  <SCORE.INTRA.DIHEDRAL.0>
3.49807

>  <SCORE.INTRA.POLAR>
0

>  <SCORE.INTRA.POLAR.0>
0

>  <SCORE.INTRA.REPUL>
0

>  <SCORE.INTRA.REPUL.0>
0

>  <SCORE.INTRA.SOLV>
0.987869

>  <SCORE.INTRA.SOLV.lig_0>
-73.062

>  <SCORE.INTRA.VDW>
1.57162

>  <SCORE.INTRA.VDW.0>
-1.83782

>  <SCORE.INTRA.norm>
0.0668598

>  <SCORE.RESTR>
0.00884814

>  <SCORE.RESTR.CAVITY>
0.00884814

>  <SCORE.RESTR.norm>
0.000402188

>  <SCORE.SYSTEM>
0

>  <SCORE.SYSTEM.CONST>
0

>  <SCORE.SYSTEM.DIHEDRAL>
0

>  <SCORE.SYSTEM.SOLV>
0

>  <SCORE.SYSTEM.norm>
0

>  <SCORE.heavy>
22

>  <SCORE.norm>
-0.229655

>  <RMSD>
13.881

$$$$
ligand
 OpenBabel02271912143D
libRbt.so/2013.1/901 2013/11/27
 22 23  0  0  0  0  0  0  0  0999 V2000
  -33.8853    4.3876  -20.8931 N   0  0  0  0  0  0  0  0  0  0  0  0
  -36.3328    2.1859  -21.6771 C   0  0  1  0  0  0  0  0  0  0  0  0
  -35.3465    3.1381  -22.1673 O   0  0  0  0  0  0  0  0  0  0  0  0
  -37.8552    4.3784  -23.2681 P   0  0  1  0  0  0  0  0  0  0  0  0
  -34.2172    3.1055  -21.2796 C   0  0  2  0  0  0  0  0  0  0  0  0
  -34.0190    6.5255  -20.5430 N   0  0  0  0  0  0  0  0  0  0  0  0
  -33.6176    1.8310  -19.3530 O   0  0  0  0  0  0  0  0  0  0  0  0
  -34.7125    2.4178  -20.0661 C   0  0  2  0  0  0  0  0  0  0  0  0
  -31.4942    6.6610  -18.0458 N   0  0  0  0  0  0  0  0  0  0  0  0
  -34.9661    0.3431  -21.1968 O   0  0  0  0  0  0  0  0  0  0  0  0
  -35.6627    1.4430  -20.5874 C   0  0  2  0  0  0  0  0  0  0  0  0
  -32.8526    6.0910  -20.0418 C   0  0  0  0  0  0  0  0  0  0  0  0
  -31.7010    3.8991  -19.8606 N   0  0  0  0  0  0  0  0  0  0  0  0
  -38.2776    3.2317  -22.2856 O   0  0  0  0  0  0  0  0  0  0  0  0
  -37.4894    2.9758  -21.1689 C   0  0  0  0  0  0  0  0  0  0  0  0
  -37.3885    5.5261  -22.3009 O   0  0  0  0  0  0  0  0  0  0  0  0
  -34.6560    5.4659  -21.0769 C   0  0  0  0  0  0  0  0  0  0  0  0
  -31.3044    7.8618  -19.9713 O   0  0  0  0  0  0  0  0  0  0  0  0
  -31.8376    6.9268  -19.3741 C   0  0  0  0  0  0  0  0  0  0  0  0
  -32.7625    4.7451  -20.2557 C   0  0  0  0  0  0  0  0  0  0  0  0
  -36.7970    3.8808  -24.1957 O   0  5  0  0  0  0  0  0  0  0  0  0
  -38.9476    4.6905  -24.2072 O   0  0  0  0  0  0  0  0  0  0  0  0
  1 17  1  0  0  0  0
  1 20  1  0  0  0  0
  2 15  1  1  0  0  0
  2  3  1  0  0  0  0
  2 11  1  0  0  0  0
  3  5  1  0  0  0  0
  4 16  1  1  0  0  0
  4 21  1  0  0  0  0
  4 22  2  0  0  0  0
  4 14  1  0  0  0  0
  5  1  1  1  0  0  0
  5  8  1  0  0  0  0
  6 17  2  0  0  0  0
  6 12  1  0  0  0  0
  8  7  1  6  0  0  0
  8 11  1  0  0  0  0
  9 19  1  0  0  0  0
 11 10  1  6  0  0  0
 12 20  2  0  0  0  0
 12 19  1  0  0  0  0
 13 20  1  0  0  0  0
 14 15  1  0  0  0  0
 18 19  2  0  0  0  0
M  CHG  1  21  -1
M  END
>  <CHROM.1>
13.16194006,84.75940732,-41.36945049,-78.86262928,119.03753358,-35.06767496
4.14504479,-21.26157982,-0.25168028,0.59440218,2.96050914

>  <Name>
ligand

>  <RI>
0

>  <Rbt.Current_Directory>
/home/itssahil/PROJECTS/Mol_Feturizer/Test_systems_manuscript/rnas/4xwf

>  <Rbt.Executable>
rbdock ($Id: //depot/dev/client3/rdock/2013.1/src/exe/rbdock.cxx#4 $)

>  <Rbt.Library>
libRbt.so (2013.1, Build901 2013/11/27)

>  <Rbt.Parameter_File>
/export/apps/rDock/src/rDock_2013.1_src/data/scripts/dock_solv.prm

>  <Rbt.Receptor>
prm/blind_docking_100.prm

>  <SCORE>
-6.32732

>  <SCORE.INTER>
-8.77282

>  <SCORE.INTER.CONST>
1

>  <SCORE.INTER.POLAR>
0

>  <SCORE.INTER.ROT>
5

>  <SCORE.INTER.SOLV>
17.8654

>  <SCORE.INTER.VDW>
-18.737

>  <SCORE.INTER.norm>
-0.398765

>  <SCORE.INTRA>
2.4455

>  <SCORE.INTRA.DIHEDRAL>
1.98106

>  <SCORE.INTRA.DIHEDRAL.0>
3.49807

>  <SCORE.INTRA.POLAR>
0

>  <SCORE.INTRA.POLAR.0>
0

>  <SCORE.INTRA.REPUL>
0

>  <SCORE.INTRA.REPUL.0>
0

>  <SCORE.INTRA.SOLV>
3.58742

>  <SCORE.INTRA.SOLV.lig_0>
-73.062

>  <SCORE.INTRA.VDW>
-0.338746

>  <SCORE.INTRA.VDW.0>
-1.83782

>  <SCORE.INTRA.norm>
0.111159

>  <SCORE.RESTR>
0

>  <SCORE.RESTR.CAVITY>
0

>  <SCORE.RESTR.norm>
0

>  <SCORE.SYSTEM>
0

>  <SCORE.SYSTEM.CONST>
0

>  <SCORE.SYSTEM.DIHEDRAL>
0

>  <SCORE.SYSTEM.SOLV>
0

>  <SCORE.SYSTEM.norm>
0

>  <SCORE.heavy>
22

>  <SCORE.norm>
-0.287606

>  <RMSD>
13.914

$$$$
ligand
 OpenBabel02271912143D
libRbt.so/2013.1/901 2013/11/27
 22 23  0  0  0  0  0  0  0  0999 V2000
  -36.4702    4.4638  -22.4522 N   0  0  0  0  0  0  0  0  0  0  0  0
  -33.9727    5.7708  -20.5796 C   0  0  1  0  0  0  0  0  0  0  0  0
  -35.4042    5.5413  -20.7136 O   0  0  0  0  0  0  0  0  0  0  0  0
  -33.9737    8.6881  -19.6671 P   0  0  1  0  0  0  0  0  0  0  0  0
  -35.5922    4.2940  -21.4017 C   0  0  2  0  0  0  0  0  0  0  0  0
  -37.5854    4.0897  -24.2763 N   0  0  0  0  0  0  0  0  0  0  0  0
  -34.1462    2.5852  -22.2293 O   0  0  0  0  0  0  0  0  0  0  0  0
  -34.2735    3.9939  -22.0031 C   0  0  2  0  0  0  0  0  0  0  0  0
  -38.7358    7.4203  -24.7104 N   0  0  0  0  0  0  0  0  0  0  0  0
  -33.2492    3.6518  -19.8863 O   0  0  0  0  0  0  0  0  0  0  0  0
  -33.3243    4.5197  -21.0297 C   0  0  2  0  0  0  0  0  0  0  0  0
  -38.0147    5.2483  -23.7530 C   0  0  0  0  0  0  0  0  0  0  0  0
  -37.4834    6.5933  -21.7350 N   0  0  0  0  0  0  0  0  0  0  0  0
  -34.3888    7.9827  -21.0045 O   0  0  0  0  0  0  0  0  0  0  0  0
  -33.6276    6.9155  -21.4687 C   0  0  0  0  0  0  0  0  0  0  0  0
  -34.9154    9.9456  -19.6172 O   0  0  0  0  0  0  0  0  0  0  0  0
  -36.6213    3.6074  -23.4692 C   0  0  0  0  0  0  0  0  0  0  0  0
  -40.2144    5.7079  -24.4512 O   0  0  0  0  0  0  0  0  0  0  0  0
  -39.0602    6.1167  -24.3252 C   0  0  0  0  0  0  0  0  0  0  0  0
  -37.3193    5.4891  -22.6024 C   0  0  0  0  0  0  0  0  0  0  0  0
  -34.1431    7.7410  -18.5260 O   0  5  0  0  0  0  0  0  0  0  0  0
  -32.5204    8.9322  -19.6345 O   0  0  0  0  0  0  0  0  0  0  0  0
  1 17  1  0  0  0  0
  1 20  1  0  0  0  0
  2 15  1  6  0  0  0
  2  3  1  0  0  0  0
  2 11  1  0  0  0  0
  3  5  1  0  0  0  0
  4 16  1  1  0  0  0
  4 21  1  0  0  0  0
  4 22  2  0  0  0  0
  4 14  1  0  0  0  0
  5  1  1  6  0  0  0
  5  8  1  0  0  0  0
  6 17  2  0  0  0  0
  6 12  1  0  0  0  0
  8  7  1  1  0  0  0
  8 11  1  0  0  0  0
  9 19  1  0  0  0  0
 11 10  1  1  0  0  0
 12 20  2  0  0  0  0
 12 19  1  0  0  0  0
 13 20  1  0  0  0  0
 14 15  1  0  0  0  0
 18 19  2  0  0  0  0
M  CHG  1  21  -1
M  END
>  <CHROM.1>
163.45913526,59.79251552,171.37019507,74.18398498,-118.42682652,-35.52242382
6.08613912,-21.60126123,-2.52641875,-0.60597921,0.30534045

>  <Name>
ligand

>  <RI>
0

>  <Rbt.Current_Directory>
/home/itssahil/PROJECTS/Mol_Feturizer/Test_systems_manuscript/rnas/4xwf

>  <Rbt.Executable>
rbdock ($Id: //depot/dev/client3/rdock/2013.1/src/exe/rbdock.cxx#4 $)

>  <Rbt.Library>
libRbt.so (2013.1, Build901 2013/11/27)

>  <Rbt.Parameter_File>
/export/apps/rDock/src/rDock_2013.1_src/data/scripts/dock_solv.prm

>  <Rbt.Receptor>
prm/blind_docking_80.prm

>  <SCORE>
-7.16413

>  <SCORE.INTER>
-10.383

>  <SCORE.INTER.CONST>
1

>  <SCORE.INTER.POLAR>
0

>  <SCORE.INTER.ROT>
5

>  <SCORE.INTER.SOLV>
8.52401

>  <SCORE.INTER.VDW>
-16.6967

>  <SCORE.INTER.norm>
-0.471954

>  <SCORE.INTRA>
3.21886

>  <SCORE.INTRA.DIHEDRAL>
-0.903636

>  <SCORE.INTRA.DIHEDRAL.0>
3.49807

>  <SCORE.INTRA.POLAR>
0

>  <SCORE.INTRA.POLAR.0>
0

>  <SCORE.INTRA.REPUL>
0

>  <SCORE.INTRA.REPUL.0>
0

>  <SCORE.INTRA.SOLV>
5.3455

>  <SCORE.INTRA.SOLV.lig_0>
-73.062

>  <SCORE.INTRA.VDW>
0.997929

>  <SCORE.INTRA.VDW.0>
-1.83782

>  <SCORE.INTRA.norm>
0.146312

>  <SCORE.RESTR>
0

>  <SCORE.RESTR.CAVITY>
0

>  <SCORE.RESTR.norm>
0

>  <SCORE.SYSTEM>
0

>  <SCORE.SYSTEM.CONST>
0

>  <SCORE.SYSTEM.DIHEDRAL>
0

>  <SCORE.SYSTEM.SOLV>
0

>  <SCORE.SYSTEM.norm>
0

>  <SCORE.heavy>
22

>  <SCORE.norm>
-0.325642

>  <RMSD>
13.926

$$$$
ligand
 OpenBabel02271912143D
libRbt.so/2013.1/901 2013/11/27
 22 23  0  0  0  0  0  0  0  0999 V2000
  -33.3274    4.5318  -20.8089 N   0  0  0  0  0  0  0  0  0  0  0  0
  -35.9186    2.7586  -22.0714 C   0  0  1  0  0  0  0  0  0  0  0  0
  -34.6451    3.4129  -22.3358 O   0  0  0  0  0  0  0  0  0  0  0  0
  -39.4953    4.0057  -22.1225 P   0  0  1  0  0  0  0  0  0  0  0  0
  -33.8317    3.2959  -21.1572 C   0  0  2  0  0  0  0  0  0  0  0  0
  -33.0346    6.6810  -20.7288 N   0  0  0  0  0  0  0  0  0  0  0  0
  -34.0774    2.2385  -19.0318 O   0  0  0  0  0  0  0  0  0  0  0  0
  -34.7768    2.9123  -20.0846 C   0  0  2  0  0  0  0  0  0  0  0  0
  -31.1956    8.2224  -19.0160 N   0  0  0  0  0  0  0  0  0  0  0  0
  -35.1932    0.7794  -21.0461 O   0  0  0  0  0  0  0  0  0  0  0  0
  -35.7530    2.0744  -20.7703 C   0  0  2  0  0  0  0  0  0  0  0  0
  -32.2103    6.1123  -19.8357 C   0  0  0  0  0  0  0  0  0  0  0  0
  -31.7325    3.7964  -19.0794 N   0  0  0  0  0  0  0  0  0  0  0  0
  -38.1728    3.1644  -22.0798 O   0  0  0  0  0  0  0  0  0  0  0  0
  -36.9535    3.8280  -21.9983 C   0  0  0  0  0  0  0  0  0  0  0  0
  -40.6039    2.9194  -22.3708 O   0  0  0  0  0  0  0  0  0  0  0  0
  -33.7233    5.6961  -21.3364 C   0  0  0  0  0  0  0  0  0  0  0  0
  -30.5331    6.2072  -18.1878 O   0  0  0  0  0  0  0  0  0  0  0  0
  -31.2662    6.8279  -18.9575 C   0  0  0  0  0  0  0  0  0  0  0  0
  -32.3911    4.7592  -19.8781 C   0  0  0  0  0  0  0  0  0  0  0  0
  -39.6478    4.7670  -20.8478 O   0  5  0  0  0  0  0  0  0  0  0  0
  -39.3883    5.0974  -23.1071 O   0  0  0  0  0  0  0  0  0  0  0  0
  1 17  1  0  0  0  0
  1 20  1  0  0  0  0
  2 15  1  1  0  0  0
  2  3  1  0  0  0  0
  2 11  1  0  0  0  0
  3  5  1  0  0  0  0
  4 16  1  6  0  0  0
  4 21  1  0  0  0  0
  4 22  2  0  0  0  0
  4 14  1  0  0  0  0
  5  1  1  1  0  0  0
  5  8  1  0  0  0  0
  6 17  2  0  0  0  0
  6 12  1  0  0  0  0
  8  7  1  1  0  0  0
  8 11  1  0  0  0  0
  9 19  1  0  0  0  0
 11 10  1  6  0  0  0
 12 20  2  0  0  0  0
 12 19  1  0  0  0  0
 13 20  1  0  0  0  0
 14 15  1  0  0  0  0
 18 19  2  0  0  0  0
M  CHG  1  21  -1
M  END
>  <CHROM.1>
11.08730799,165.65682135,174.00569861,-176.23442362,0.58214664,-35.27779496
4.20874361,-20.86889978,-0.27652476,0.35626988,-3.13283603

>  <Name>
ligand

>  <RI>
0

>  <Rbt.Current_Directory>
/home/itssahil/PROJECTS/Mol_Feturizer/Test_systems_manuscript/rnas/4xwf

>  <Rbt.Executable>
rbdock ($Id: //depot/dev/client3/rdock/2013.1/src/exe/rbdock.cxx#4 $)

>  <Rbt.Library>
libRbt.so (2013.1, Build901 2013/11/27)

>  <Rbt.Parameter_File>
/export/apps/rDock/src/rDock_2013.1_src/data/scripts/dock_solv.prm

>  <Rbt.Receptor>
prm/blind_docking_80.prm

>  <SCORE>
-8.04976

>  <SCORE.INTER>
-8.27566

>  <SCORE.INTER.CONST>
1

>  <SCORE.INTER.POLAR>
0

>  <SCORE.INTER.ROT>
5

>  <SCORE.INTER.SOLV>
11.9298

>  <SCORE.INTER.VDW>
-16.427

>  <SCORE.INTER.norm>
-0.376166

>  <SCORE.INTRA>
0.225905

>  <SCORE.INTRA.DIHEDRAL>
-1.17062

>  <SCORE.INTRA.DIHEDRAL.0>
3.49807

>  <SCORE.INTRA.POLAR>
0

>  <SCORE.INTRA.POLAR.0>
0

>  <SCORE.INTRA.REPUL>
0

>  <SCORE.INTRA.REPUL.0>
0

>  <SCORE.INTRA.SOLV>
1.39576

>  <SCORE.INTRA.SOLV.lig_0>
-73.062

>  <SCORE.INTRA.VDW>
0.113335

>  <SCORE.INTRA.VDW.0>
-1.83782

>  <SCORE.INTRA.norm>
0.0102684

>  <SCORE.RESTR>
0

>  <SCORE.RESTR.CAVITY>
0

>  <SCORE.RESTR.norm>
0

>  <SCORE.SYSTEM>
0

>  <SCORE.SYSTEM.CONST>
0

>  <SCORE.SYSTEM.DIHEDRAL>
0

>  <SCORE.SYSTEM.SOLV>
0

>  <SCORE.SYSTEM.norm>
0

>  <SCORE.heavy>
22

>  <SCORE.norm>
-0.365898

>  <RMSD>
13.949

$$$$
ligand
 OpenBabel02271912143D
libRbt.so/2013.1/901 2013/11/27
 22 23  0  0  0  0  0  0  0  0999 V2000
  -34.2383   -5.2101  -14.7866 N   0  0  0  0  0  0  0  0  0  0  0  0
  -33.1402   -7.4268  -12.4773 C   0  0  1  0  0  0  0  0  0  0  0  0
  -32.7987   -6.3370  -13.3805 O   0  0  0  0  0  0  0  0  0  0  0  0
  -31.7671  -10.0610  -14.8273 P   0  0  1  0  0  0  0  0  0  0  0  0
  -33.9315   -5.4573  -13.4645 C   0  0  2  0  0  0  0  0  0  0  0  0
  -34.7460   -5.5358  -16.8716 N   0  0  0  0  0  0  0  0  0  0  0  0
  -36.0783   -5.3617  -12.4262 O   0  0  0  0  0  0  0  0  0  0  0  0
  -35.0588   -6.2422  -12.9132 C   0  0  2  0  0  0  0  0  0  0  0  0
  -35.0811   -3.5113  -18.9997 N   0  0  0  0  0  0  0  0  0  0  0  0
  -34.1444   -6.2447  -10.7198 O   0  0  0  0  0  0  0  0  0  0  0  0
  -34.4372   -7.0520  -11.8726 C   0  0  2  0  0  0  0  0  0  0  0  0
  -34.7267   -4.2130  -16.6468 C   0  0  0  0  0  0  0  0  0  0  0  0
  -34.3089   -2.7482  -14.6863 N   0  0  0  0  0  0  0  0  0  0  0  0
  -31.9851   -8.8838  -13.8147 O   0  0  0  0  0  0  0  0  0  0  0  0
  -33.2593   -8.6602  -13.3045 C   0  0  0  0  0  0  0  0  0  0  0  0
  -32.6260   -9.6287  -16.0707 O   0  0  0  0  0  0  0  0  0  0  0  0
  -34.4361   -6.1528  -15.7154 C   0  0  0  0  0  0  0  0  0  0  0  0
  -35.1385   -1.9916  -17.3047 O   0  0  0  0  0  0  0  0  0  0  0  0
  -34.9989   -3.1653  -17.6482 C   0  0  0  0  0  0  0  0  0  0  0  0
  -34.4108   -4.0001  -15.3352 C   0  0  0  0  0  0  0  0  0  0  0  0
  -30.3094  -10.2204  -15.1060 O   0  5  0  0  0  0  0  0  0  0  0  0
  -32.0909  -11.3555  -14.2011 O   0  0  0  0  0  0  0  0  0  0  0  0
  1 17  1  0  0  0  0
  1 20  1  0  0  0  0
  2 15  1  6  0  0  0
  2  3  1  0  0  0  0
  2 11  1  0  0  0  0
  3  5  1  0  0  0  0
  4 16  1  6  0  0  0
  4 21  1  0  0  0  0
  4 22  2  0  0  0  0
  4 14  1  0  0  0  0
  5  1  1  6  0  0  0
  5  8  1  0  0  0  0
  6 17  2  0  0  0  0
  6 12  1  0  0  0  0
  8  7  1  1  0  0  0
  8 11  1  0  0  0  0
  9 19  1  0  0  0  0
 11 10  1  1  0  0  0
 12 20  2  0  0  0  0
 12 19  1  0  0  0  0
 13 20  1  0  0  0  0
 14 15  1  0  0  0  0
 18 19  2  0  0  0  0
M  CHG  1  21  -1
M  END
>  <CHROM.1>
52.51424060,64.31461705,64.57737525,-175.62223804,-10.94007461,-33.64373904
-6.63243537,-14.62811472,2.55756052,1.06604328,-1.26493950

>  <Name>
ligand

>  <RI>
0

>  <Rbt.Current_Directory>
/home/itssahil/PROJECTS/Mol_Feturizer/Test_systems_manuscript/rnas/4xwf

>  <Rbt.Executable>
rbdock ($Id: //depot/dev/client3/rdock/2013.1/src/exe/rbdock.cxx#4 $)

>  <Rbt.Library>
libRbt.so (2013.1, Build901 2013/11/27)

>  <Rbt.Parameter_File>
/export/apps/rDock/src/rDock_2013.1_src/data/scripts/dock_solv.prm

>  <Rbt.Receptor>
prm/blind_docking_40.prm

>  <SCORE>
-6.19457

>  <SCORE.INTER>
-4.79878

>  <SCORE.INTER.CONST>
1

>  <SCORE.INTER.POLAR>
0

>  <SCORE.INTER.ROT>
5

>  <SCORE.INTER.SOLV>
18.5878

>  <SCORE.INTER.VDW>
-16.3284

>  <SCORE.INTER.norm>
-0.218127

>  <SCORE.INTRA>
-1.39624

>  <SCORE.INTRA.DIHEDRAL>
-1.68929

>  <SCORE.INTRA.DIHEDRAL.0>
3.49807

>  <SCORE.INTRA.POLAR>
0

>  <SCORE.INTRA.POLAR.0>
0

>  <SCORE.INTRA.REPUL>
0

>  <SCORE.INTRA.REPUL.0>
0

>  <SCORE.INTRA.SOLV>
-0.715833

>  <SCORE.INTRA.SOLV.lig_0>
-73.062

>  <SCORE.INTRA.VDW>
-0.193678

>  <SCORE.INTRA.VDW.0>
-1.83782

>  <SCORE.INTRA.norm>
-0.0634654

>  <SCORE.RESTR>
0.000454434

>  <SCORE.RESTR.CAVITY>
0.000454434

>  <SCORE.RESTR.norm>
2.06561e-05

>  <SCORE.SYSTEM>
0

>  <SCORE.SYSTEM.CONST>
0

>  <SCORE.SYSTEM.DIHEDRAL>
0

>  <SCORE.SYSTEM.SOLV>
0

>  <SCORE.SYSTEM.norm>
0

>  <SCORE.heavy>
22

>  <SCORE.norm>
-0.281571

>  <RMSD>
13.980

$$$$
ligand
 OpenBabel02271912143D
libRbt.so/2013.1/901 2013/11/27
 22 23  0  0  0  0  0  0  0  0999 V2000
  -33.3051    4.3569  -20.5229 N   0  0  0  0  0  0  0  0  0  0  0  0
  -35.9267    2.7615  -21.9493 C   0  0  1  0  0  0  0  0  0  0  0  0
  -34.7113    3.5360  -22.1564 O   0  0  0  0  0  0  0  0  0  0  0  0
  -39.5430    3.8113  -21.5274 P   0  0  1  0  0  0  0  0  0  0  0  0
  -33.7880    3.2041  -21.1068 C   0  0  2  0  0  0  0  0  0  0  0  0
  -31.9833    5.7412  -19.4994 N   0  0  0  0  0  0  0  0  0  0  0  0
  -33.7917    1.6775  -19.2723 O   0  0  0  0  0  0  0  0  0  0  0  0
  -34.6130    2.5290  -20.0799 C   0  0  2  0  0  0  0  0  0  0  0  0
  -32.3126    8.6780  -19.2344 N   0  0  0  0  0  0  0  0  0  0  0  0
  -35.0283    0.6494  -21.4735 O   0  0  0  0  0  0  0  0  0  0  0  0
  -35.6130    1.8107  -20.8603 C   0  0  2  0  0  0  0  0  0  0  0  0
  -33.0940    6.4061  -19.8528 C   0  0  0  0  0  0  0  0  0  0  0  0
  -35.1938    5.8490  -21.0543 N   0  0  0  0  0  0  0  0  0  0  0  0
  -38.1924    3.0644  -21.8044 O   0  0  0  0  0  0  0  0  0  0  0  0
  -36.9937    3.7204  -21.5466 C   0  0  0  0  0  0  0  0  0  0  0  0
  -39.6128    3.8566  -19.9578 O   0  0  0  0  0  0  0  0  0  0  0  0
  -32.1198    4.4665  -19.9117 C   0  0  0  0  0  0  0  0  0  0  0  0
  -34.5139    8.2719  -19.6529 O   0  0  0  0  0  0  0  0  0  0  0  0
  -33.3670    7.8303  -19.5848 C   0  0  0  0  0  0  0  0  0  0  0  0
  -33.9299    5.5418  -20.5005 C   0  0  0  0  0  0  0  0  0  0  0  0
  -39.5207    5.1506  -22.1858 O   0  5  0  0  0  0  0  0  0  0  0  0
  -40.6577    3.1541  -22.2333 O   0  0  0  0  0  0  0  0  0  0  0  0
  1 17  1  0  0  0  0
  1 20  1  0  0  0  0
  2 15  1  1  0  0  0
  2  3  1  0  0  0  0
  2 11  1  0  0  0  0
  3  5  1  0  0  0  0
  4 16  1  1  0  0  0
  4 21  1  0  0  0  0
  4 22  2  0  0  0  0
  4 14  1  0  0  0  0
  5  1  1  1  0  0  0
  5  8  1  0  0  0  0
  6 17  2  0  0  0  0
  6 12  1  0  0  0  0
  8  7  1  6  0  0  0
  8 11  1  0  0  0  0
  9 19  1  0  0  0  0
 11 10  1  6  0  0  0
 12 20  2  0  0  0  0
 12 19  1  0  0  0  0
 13 20  1  0  0  0  0
 14 15  1  0  0  0  0
 18 19  2  0  0  0  0
M  CHG  1  21  -1
M  END
>  <CHROM.1>
-153.30281889,160.04139284,-71.41953634,-178.40195482,16.70367928,-35.70938799
4.28468014,-20.80013683,-0.45129690,0.21792547,-2.99038688

>  <Name>
ligand

>  <RI>
0

>  <Rbt.Current_Directory>
/home/itssahil/PROJECTS/Mol_Feturizer/Test_systems_manuscript/rnas/4xwf

>  <Rbt.Executable>
rbdock ($Id: //depot/dev/client3/rdock/2013.1/src/exe/rbdock.cxx#4 $)

>  <Rbt.Library>
libRbt.so (2013.1, Build901 2013/11/27)

>  <Rbt.Parameter_File>
/export/apps/rDock/src/rDock_2013.1_src/data/scripts/dock_solv.prm

>  <Rbt.Receptor>
prm/blind_docking_60.prm

>  <SCORE>
-6.05227

>  <SCORE.INTER>
-8.11436

>  <SCORE.INTER.CONST>
1

>  <SCORE.INTER.POLAR>
0

>  <SCORE.INTER.ROT>
5

>  <SCORE.INTER.SOLV>
12.4432

>  <SCORE.INTER.VDW>
-16.4906

>  <SCORE.INTER.norm>
-0.368835

>  <SCORE.INTRA>
2.06209

>  <SCORE.INTRA.DIHEDRAL>
-0.101748

>  <SCORE.INTRA.DIHEDRAL.0>
3.49807

>  <SCORE.INTRA.POLAR>
0

>  <SCORE.INTRA.POLAR.0>
0

>  <SCORE.INTRA.REPUL>
0

>  <SCORE.INTRA.REPUL.0>
0

>  <SCORE.INTRA.SOLV>
3.78913

>  <SCORE.INTRA.SOLV.lig_0>
-73.062

>  <SCORE.INTRA.VDW>
0.218399

>  <SCORE.INTRA.VDW.0>
-1.83782

>  <SCORE.INTRA.norm>
0.0937313

>  <SCORE.RESTR>
0

>  <SCORE.RESTR.CAVITY>
0

>  <SCORE.RESTR.norm>
0

>  <SCORE.SYSTEM>
0

>  <SCORE.SYSTEM.CONST>
0

>  <SCORE.SYSTEM.DIHEDRAL>
0

>  <SCORE.SYSTEM.SOLV>
0

>  <SCORE.SYSTEM.norm>
0

>  <SCORE.heavy>
22

>  <SCORE.norm>
-0.275103

>  <RMSD>
13.982

$$$$
ligand
 OpenBabel02271912143D
libRbt.so/2013.1/901 2013/11/27
 22 23  0  0  0  0  0  0  0  0999 V2000
  -33.8700   -7.4356  -14.1268 N   0  0  0  0  0  0  0  0  0  0  0  0
  -35.3122   -5.5480  -16.5372 C   0  0  1  0  0  0  0  0  0  0  0  0
  -35.2210   -6.8560  -15.9041 O   0  0  0  0  0  0  0  0  0  0  0  0
  -33.0563   -3.6042  -18.8798 P   0  0  1  0  0  0  0  0  0  0  0  0
  -34.9425   -6.6564  -14.5088 C   0  0  2  0  0  0  0  0  0  0  0  0
  -32.1884   -8.1950  -12.9838 N   0  0  0  0  0  0  0  0  0  0  0  0
  -34.7108   -4.7541  -13.0864 O   0  0  0  0  0  0  0  0  0  0  0  0
  -34.4928   -5.2496  -14.4126 C   0  0  2  0  0  0  0  0  0  0  0  0
  -32.0906  -11.4731  -14.0241 N   0  0  0  0  0  0  0  0  0  0  0  0
  -36.6364   -4.3970  -14.9827 O   0  0  0  0  0  0  0  0  0  0  0  0
  -35.2811   -4.5665  -15.4309 C   0  0  2  0  0  0  0  0  0  0  0  0
  -32.3850   -9.0099  -14.0316 C   0  0  0  0  0  0  0  0  0  0  0  0
  -33.9913   -9.1211  -15.9213 N   0  0  0  0  0  0  0  0  0  0  0  0
  -34.1997   -4.1168  -17.9371 O   0  0  0  0  0  0  0  0  0  0  0  0
  -34.1243   -5.4076  -17.4255 C   0  0  0  0  0  0  0  0  0  0  0  0
  -31.8578   -3.3629  -17.8919 O   0  0  0  0  0  0  0  0  0  0  0  0
  -33.1089   -7.2142  -13.0488 C   0  0  0  0  0  0  0  0  0  0  0  0
  -30.4859  -10.1061  -14.8856 O   0  0  0  0  0  0  0  0  0  0  0  0
  -31.5895  -10.2100  -14.3503 C   0  0  0  0  0  0  0  0  0  0  0  0
  -33.4442   -8.5399  -14.7545 C   0  0  0  0  0  0  0  0  0  0  0  0
  -32.7893   -4.6177  -19.9425 O   0  5  0  0  0  0  0  0  0  0  0  0
  -33.5143   -2.4531  -19.6784 O   0  0  0  0  0  0  0  0  0  0  0  0
  1 17  1  0  0  0  0
  1 20  1  0  0  0  0
  2 15  1  6  0  0  0
  2  3  1  0  0  0  0
  2 11  1  0  0  0  0
  3  5  1  0  0  0  0
  4 16  1  1  0  0  0
  4 21  1  0  0  0  0
  4 22  2  0  0  0  0
  4 14  1  0  0  0  0
  5  1  1  6  0  0  0
  5  8  1  0  0  0  0
  6 17  2  0  0  0  0
  6 12  1  0  0  0  0
  8  7  1  1  0  0  0
  8 11  1  0  0  0  0
  9 19  1  0  0  0  0
 11 10  1  1  0  0  0
 12 20  2  0  0  0  0
 12 19  1  0  0  0  0
 13 20  1  0  0  0  0
 14 15  1  0  0  0  0
 18 19  2  0  0  0  0
M  CHG  1  21  -1
M  END
>  <CHROM.1>
159.12688265,-176.02220758,-73.56947829,177.50363217,100.75654133,-33.58624169
-6.23507504,-15.93470077,1.35344294,-0.75802934,2.33080745

>  <Name>
ligand

>  <RI>
0

>  <Rbt.Current_Directory>
/home/itssahil/PROJECTS/Mol_Feturizer/Test_systems_manuscript/rnas/4xwf

>  <Rbt.Executable>
rbdock ($Id: //depot/dev/client3/rdock/2013.1/src/exe/rbdock.cxx#4 $)

>  <Rbt.Library>
libRbt.so (2013.1, Build901 2013/11/27)

>  <Rbt.Parameter_File>
/export/apps/rDock/src/rDock_2013.1_src/data/scripts/dock_solv.prm

>  <Rbt.Receptor>
prm/blind_docking_40.prm

>  <SCORE>
-4.50965

>  <SCORE.INTER>
-5.85844

>  <SCORE.INTER.CONST>
1

>  <SCORE.INTER.POLAR>
0

>  <SCORE.INTER.ROT>
5

>  <SCORE.INTER.SOLV>
15.5089

>  <SCORE.INTER.VDW>
-16.0086

>  <SCORE.INTER.norm>
-0.266293

>  <SCORE.INTRA>
1.29565

>  <SCORE.INTRA.DIHEDRAL>
-1.21739

>  <SCORE.INTRA.DIHEDRAL.0>
3.49807

>  <SCORE.INTRA.POLAR>
0

>  <SCORE.INTRA.POLAR.0>
0

>  <SCORE.INTRA.REPUL>
0

>  <SCORE.INTRA.REPUL.0>
0

>  <SCORE.INTRA.SOLV>
1.47976

>  <SCORE.INTRA.SOLV.lig_0>
-73.062

>  <SCORE.INTRA.VDW>
1.16447

>  <SCORE.INTRA.VDW.0>
-1.83782

>  <SCORE.INTRA.norm>
0.0588933

>  <SCORE.RESTR>
0.0531317

>  <SCORE.RESTR.CAVITY>
0.0531317

>  <SCORE.RESTR.norm>
0.00241508

>  <SCORE.SYSTEM>
0

>  <SCORE.SYSTEM.CONST>
0

>  <SCORE.SYSTEM.DIHEDRAL>
0

>  <SCORE.SYSTEM.SOLV>
0

>  <SCORE.SYSTEM.norm>
0

>  <SCORE.heavy>
22

>  <SCORE.norm>
-0.204984

>  <RMSD>
14.027

$$$$
ligand
 OpenBabel02271912143D
libRbt.so/2013.1/901 2013/11/27
 22 23  0  0  0  0  0  0  0  0999 V2000
  -34.7118   -4.5490  -13.9177 N   0  0  0  0  0  0  0  0  0  0  0  0
  -33.9108   -7.7735  -13.2743 C   0  0  1  0  0  0  0  0  0  0  0  0
  -33.5598   -6.3714  -13.0983 O   0  0  0  0  0  0  0  0  0  0  0  0
  -31.9507  -10.1296  -14.1558 P   0  0  1  0  0  0  0  0  0  0  0  0
  -34.7779   -5.6117  -13.0405 C   0  0  2  0  0  0  0  0  0  0  0  0
  -34.6631   -2.5181  -14.6818 N   0  0  0  0  0  0  0  0  0  0  0  0
  -37.1045   -6.1427  -13.0721 O   0  0  0  0  0  0  0  0  0  0  0  0
  -35.8162   -6.5254  -13.5678 C   0  0  2  0  0  0  0  0  0  0  0  0
  -33.2188   -3.4663  -17.8404 N   0  0  0  0  0  0  0  0  0  0  0  0
  -35.6411   -7.9949  -11.7085 O   0  0  0  0  0  0  0  0  0  0  0  0
  -35.3798   -7.8400  -13.1135 C   0  0  2  0  0  0  0  0  0  0  0  0
  -34.4920   -3.3583  -15.7140 C   0  0  0  0  0  0  0  0  0  0  0  0
  -34.3523   -5.8206  -15.9985 N   0  0  0  0  0  0  0  0  0  0  0  0
  -33.3304   -9.5400  -14.6116 O   0  0  0  0  0  0  0  0  0  0  0  0
  -33.4940   -8.1597  -14.6516 C   0  0  0  0  0  0  0  0  0  0  0  0
  -30.9311   -9.4691  -15.1532 O   0  0  0  0  0  0  0  0  0  0  0  0
  -34.8055   -3.2609  -13.5677 C   0  0  0  0  0  0  0  0  0  0  0  0
  -35.0965   -2.1898  -17.6651 O   0  0  0  0  0  0  0  0  0  0  0  0
  -34.3085   -2.9648  -17.1233 C   0  0  0  0  0  0  0  0  0  0  0  0
  -34.5185   -4.6390  -15.2403 C   0  0  0  0  0  0  0  0  0  0  0  0
  -31.7140   -9.8010  -12.7192 O   0  5  0  0  0  0  0  0  0  0  0  0
  -31.9990  -11.6023  -14.1175 O   0  0  0  0  0  0  0  0  0  0  0  0
  1 17  1  0  0  0  0
  1 20  1  0  0  0  0
  2 15  1  6  0  0  0
  2  3  1  0  0  0  0
  2 11  1  0  0  0  0
  3  5  1  0  0  0  0
  4 16  1  6  0  0  0
  4 21  1  0  0  0  0
  4 22  2  0  0  0  0
  4 14  1  0  0  0  0
  5  1  1  6  0  0  0
  5  8  1  0  0  0  0
  6 17  2  0  0  0  0
  6 12  1  0  0  0  0
  8  7  1  1  0  0  0
  8 11  1  0  0  0  0
  9 19  1  0  0  0  0
 11 10  1  1  0  0  0
 12 20  2  0  0  0  0
 12 19  1  0  0  0  0
 13 20  1  0  0  0  0
 14 15  1  0  0  0  0
 18 19  2  0  0  0  0
M  CHG  1  21  -1
M  END
>  <CHROM.1>
-119.85074181,156.65435923,-56.50519656,-86.40219419,127.63377553,-33.92948536
-6.68140016,-14.41068219,2.03340425,0.76647907,-0.62316648

>  <Name>
ligand

>  <RI>
0

>  <Rbt.Current_Directory>
/home/itssahil/PROJECTS/Mol_Feturizer/Test_systems_manuscript/rnas/4xwf

>  <Rbt.Executable>
rbdock ($Id: //depot/dev/client3/rdock/2013.1/src/exe/rbdock.cxx#4 $)

>  <Rbt.Library>
libRbt.so (2013.1, Build901 2013/11/27)

>  <Rbt.Parameter_File>
/export/apps/rDock/src/rDock_2013.1_src/data/scripts/dock_solv.prm

>  <Rbt.Receptor>
prm/blind_docking_40.prm

>  <SCORE>
-2.17365

>  <SCORE.INTER>
-6.73591

>  <SCORE.INTER.CONST>
1

>  <SCORE.INTER.POLAR>
0

>  <SCORE.INTER.ROT>
5

>  <SCORE.INTER.SOLV>
14.864

>  <SCORE.INTER.VDW>
-16.3786

>  <SCORE.INTER.norm>
-0.306178

>  <SCORE.INTRA>
4.55554

>  <SCORE.INTRA.DIHEDRAL>
2.70269

>  <SCORE.INTRA.DIHEDRAL.0>
3.49807

>  <SCORE.INTRA.POLAR>
0

>  <SCORE.INTRA.POLAR.0>
0

>  <SCORE.INTRA.REPUL>
0

>  <SCORE.INTRA.REPUL.0>
0

>  <SCORE.INTRA.SOLV>
6.10041

>  <SCORE.INTRA.SOLV.lig_0>
-73.062

>  <SCORE.INTRA.VDW>
0.153991

>  <SCORE.INTRA.VDW.0>
-1.83782

>  <SCORE.INTRA.norm>
0.20707

>  <SCORE.RESTR>
0.00672408

>  <SCORE.RESTR.CAVITY>
0.00672408

>  <SCORE.RESTR.norm>
0.00030564

>  <SCORE.SYSTEM>
0

>  <SCORE.SYSTEM.CONST>
0

>  <SCORE.SYSTEM.DIHEDRAL>
0

>  <SCORE.SYSTEM.SOLV>
0

>  <SCORE.SYSTEM.norm>
0

>  <SCORE.heavy>
22

>  <SCORE.norm>
-0.0988021

>  <RMSD>
14.029

$$$$
ligand
 OpenBabel02271912143D
libRbt.so/2013.1/901 2013/11/27
 22 23  0  0  0  0  0  0  0  0999 V2000
  -37.3624    4.9837  -20.6881 N   0  0  0  0  0  0  0  0  0  0  0  0
  -35.9686    2.0504  -21.6396 C   0  0  1  0  0  0  0  0  0  0  0  0
  -37.0057    3.0430  -21.8824 O   0  0  0  0  0  0  0  0  0  0  0  0
  -35.6895   -0.9140  -19.2968 P   0  0  1  0  0  0  0  0  0  0  0  0
  -36.4805    4.3317  -21.5249 C   0  0  2  0  0  0  0  0  0  0  0  0
  -38.1711    6.4180  -19.2739 N   0  0  0  0  0  0  0  0  0  0  0  0
  -34.3709    5.1445  -20.7600 O   0  0  0  0  0  0  0  0  0  0  0  0
  -35.2770    4.0359  -20.7156 C   0  0  2  0  0  0  0  0  0  0  0  0
  -41.6001    5.6400  -20.0880 N   0  0  0  0  0  0  0  0  0  0  0  0
  -34.1041    3.1238  -22.5702 O   0  0  0  0  0  0  0  0  0  0  0  0
  -34.7464    2.8203  -21.3206 C   0  0  2  0  0  0  0  0  0  0  0  0
  -39.1602    5.5894  -19.6423 C   0  0  0  0  0  0  0  0  0  0  0  0
  -39.3784    3.6544  -21.1823 N   0  0  0  0  0  0  0  0  0  0  0  0
  -35.4849    0.1959  -20.3853 O   0  0  0  0  0  0  0  0  0  0  0  0
  -36.4135    1.2267  -20.4804 C   0  0  0  0  0  0  0  0  0  0  0  0
  -36.9463   -1.7009  -19.8183 O   0  0  0  0  0  0  0  0  0  0  0  0
  -37.0536    6.0355  -19.9207 C   0  0  0  0  0  0  0  0  0  0  0  0
  -40.7988    5.7093  -17.9576 O   0  0  0  0  0  0  0  0  0  0  0  0
  -40.5534    5.6445  -19.1620 C   0  0  0  0  0  0  0  0  0  0  0  0
  -38.6594    4.6853  -20.5350 C   0  0  0  0  0  0  0  0  0  0  0  0
  -34.4491   -1.7357  -19.1779 O   0  5  0  0  0  0  0  0  0  0  0  0
  -35.7779   -0.3170  -17.9521 O   0  0  0  0  0  0  0  0  0  0  0  0
  1 17  1  0  0  0  0
  1 20  1  0  0  0  0
  2 15  1  1  0  0  0
  2  3  1  0  0  0  0
  2 11  1  0  0  0  0
  3  5  1  0  0  0  0
  4 16  1  6  0  0  0
  4 21  1  0  0  0  0
  4 22  2  0  0  0  0
  4 14  1  0  0  0  0
  5  1  1  1  0  0  0
  5  8  1  0  0  0  0
  6 17  2  0  0  0  0
  6 12  1  0  0  0  0
  8  7  1  6  0  0  0
  8 11  1  0  0  0  0
  9 19  1  0  0  0  0
 11 10  1  6  0  0  0
 12 20  2  0  0  0  0
 12 19  1  0  0  0  0
 13 20  1  0  0  0  0
 14 15  1  0  0  0  0
 18 19  2  0  0  0  0
M  CHG  1  21  -1
M  END
>  <CHROM.1>
162.87812660,172.88357332,69.63517142,-177.10176447,129.41781672,-36.92299228
2.82620439,-20.20993872,-2.21477524,-0.45140237,2.82223394

>  <Name>
ligand

>  <RI>
0

>  <Rbt.Current_Directory>
/home/itssahil/PROJECTS/Mol_Feturizer/Test_systems_manuscript/rnas/4xwf

>  <Rbt.Executable>
rbdock ($Id: //depot/dev/client3/rdock/2013.1/src/exe/rbdock.cxx#4 $)

>  <Rbt.Library>
libRbt.so (2013.1, Build901 2013/11/27)

>  <Rbt.Parameter_File>
/export/apps/rDock/src/rDock_2013.1_src/data/scripts/dock_solv.prm

>  <Rbt.Receptor>
prm/blind_docking_60.prm

>  <SCORE>
-6.304

>  <SCORE.INTER>
-7.27449

>  <SCORE.INTER.CONST>
1

>  <SCORE.INTER.POLAR>
0

>  <SCORE.INTER.ROT>
5

>  <SCORE.INTER.SOLV>
17.824

>  <SCORE.INTER.VDW>
-17.7243

>  <SCORE.INTER.norm>
-0.330659

>  <SCORE.INTRA>
0.970497

>  <SCORE.INTRA.DIHEDRAL>
-1.58391

>  <SCORE.INTRA.DIHEDRAL.0>
3.49807

>  <SCORE.INTRA.POLAR>
0

>  <SCORE.INTRA.POLAR.0>
0

>  <SCORE.INTRA.REPUL>
0

>  <SCORE.INTRA.REPUL.0>
0

>  <SCORE.INTRA.SOLV>
1.72349

>  <SCORE.INTRA.SOLV.lig_0>
-73.062

>  <SCORE.INTRA.VDW>
0.900706

>  <SCORE.INTRA.VDW.0>
-1.83782

>  <SCORE.INTRA.norm>
0.0441135

>  <SCORE.RESTR>
0

>  <SCORE.RESTR.CAVITY>
0

>  <SCORE.RESTR.norm>
0

>  <SCORE.SYSTEM>
0

>  <SCORE.SYSTEM.CONST>
0

>  <SCORE.SYSTEM.DIHEDRAL>
0

>  <SCORE.SYSTEM.SOLV>
0

>  <SCORE.SYSTEM.norm>
0

>  <SCORE.heavy>
22

>  <SCORE.norm>
-0.286545

>  <RMSD>
14.049

$$$$
ligand
 OpenBabel02271912143D
libRbt.so/2013.1/901 2013/11/27
 22 23  0  0  0  0  0  0  0  0999 V2000
  -36.2201   -4.3138  -18.4272 N   0  0  0  0  0  0  0  0  0  0  0  0
  -37.3282   -1.1213  -18.2476 C   0  0  1  0  0  0  0  0  0  0  0  0
  -37.5944   -2.4810  -18.6952 O   0  0  0  0  0  0  0  0  0  0  0  0
  -35.4636    1.7961  -19.7867 P   0  0  1  0  0  0  0  0  0  0  0  0
  -36.9886   -3.3848  -17.7568 C   0  0  2  0  0  0  0  0  0  0  0  0
  -34.6083   -5.1935  -19.5845 N   0  0  0  0  0  0  0  0  0  0  0  0
  -35.8001   -3.1417  -15.7015 O   0  0  0  0  0  0  0  0  0  0  0  0
  -36.0482   -2.5461  -16.9803 C   0  0  2  0  0  0  0  0  0  0  0  0
  -35.1058   -8.5351  -18.5435 N   0  0  0  0  0  0  0  0  0  0  0  0
  -37.8020   -1.3094  -15.9596 O   0  0  0  0  0  0  0  0  0  0  0  0
  -36.7208   -1.2550  -16.9054 C   0  0  2  0  0  0  0  0  0  0  0  0
  -35.4500   -6.1748  -19.2252 C   0  0  0  0  0  0  0  0  0  0  0  0
  -37.5484   -6.3240  -17.9068 N   0  0  0  0  0  0  0  0  0  0  0  0
  -36.3974    0.8469  -18.9587 O   0  0  0  0  0  0  0  0  0  0  0  0
  -36.3748   -0.5185  -19.2210 C   0  0  0  0  0  0  0  0  0  0  0  0
  -34.1818    1.9149  -18.8847 O   0  0  0  0  0  0  0  0  0  0  0  0
  -35.0925   -4.0372  -19.0925 C   0  0  0  0  0  0  0  0  0  0  0  0
  -35.3397   -7.9738  -20.7381 O   0  0  0  0  0  0  0  0  0  0  0  0
  -35.3037   -7.6023  -19.5651 C   0  0  0  0  0  0  0  0  0  0  0  0
  -36.4660   -5.6291  -18.4936 C   0  0  0  0  0  0  0  0  0  0  0  0
  -35.2192    1.2079  -21.1366 O   0  5  0  0  0  0  0  0  0  0  0  0
  -36.1635    3.0465  -20.1321 O   0  0  0  0  0  0  0  0  0  0  0  0
  1 17  1  0  0  0  0
  1 20  1  0  0  0  0
  2 15  1  6  0  0  0
  2  3  1  0  0  0  0
  2 11  1  0  0  0  0
  3  5  1  0  0  0  0
  4 16  1  1  0  0  0
  4 21  1  0  0  0  0
  4 22  2  0  0  0  0
  4 14  1  0  0  0  0
  5  1  1  6  0  0  0
  5  8  1  0  0  0  0
  6 17  2  0  0  0  0
  6 12  1  0  0  0  0
  8  7  1  1  0  0  0
  8 11  1  0  0  0  0
  9 19  1  0  0  0  0
 11 10  1  1  0  0  0
 12 20  2  0  0  0  0
 12 19  1  0  0  0  0
 13 20  1  0  0  0  0
 14 15  1  0  0  0  0
 18 19  2  0  0  0  0
M  CHG  1  21  -1
M  END
>  <CHROM.1>
67.54760670,165.96525929,-93.93531855,178.25808034,115.82329916,-36.02815319
-2.45757220,-18.70288845,1.56392597,-1.08429044,3.07870403

>  <Name>
ligand

>  <RI>
0

>  <Rbt.Current_Directory>
/home/itssahil/PROJECTS/Mol_Feturizer/Test_systems_manuscript/rnas/4xwf

>  <Rbt.Executable>
rbdock ($Id: //depot/dev/client3/rdock/2013.1/src/exe/rbdock.cxx#4 $)

>  <Rbt.Library>
libRbt.so (2013.1, Build901 2013/11/27)

>  <Rbt.Parameter_File>
/export/apps/rDock/src/rDock_2013.1_src/data/scripts/dock_solv.prm

>  <Rbt.Receptor>
prm/blind_docking_60.prm

>  <SCORE>
-8.46652

>  <SCORE.INTER>
-8.7515

>  <SCORE.INTER.CONST>
1

>  <SCORE.INTER.POLAR>
0

>  <SCORE.INTER.ROT>
5

>  <SCORE.INTER.SOLV>
18.4171

>  <SCORE.INTER.VDW>
-18.9067

>  <SCORE.INTER.norm>
-0.397795

>  <SCORE.INTRA>
0.284976

>  <SCORE.INTRA.DIHEDRAL>
0.207932

>  <SCORE.INTRA.DIHEDRAL.0>
3.49807

>  <SCORE.INTRA.POLAR>
0

>  <SCORE.INTRA.POLAR.0>
0

>  <SCORE.INTRA.REPUL>
0

>  <SCORE.INTRA.REPUL.0>
0

>  <SCORE.INTRA.SOLV>
-0.747332

>  <SCORE.INTRA.SOLV.lig_0>
-73.062

>  <SCORE.INTRA.VDW>
0.554677

>  <SCORE.INTRA.VDW.0>
-1.83782

>  <SCORE.INTRA.norm>
0.0129535

>  <SCORE.RESTR>
0

>  <SCORE.RESTR.CAVITY>
0

>  <SCORE.RESTR.norm>
0

>  <SCORE.SYSTEM>
0

>  <SCORE.SYSTEM.CONST>
0

>  <SCORE.SYSTEM.DIHEDRAL>
0

>  <SCORE.SYSTEM.SOLV>
0

>  <SCORE.SYSTEM.norm>
0

>  <SCORE.heavy>
22

>  <SCORE.norm>
-0.384842

>  <RMSD>
14.072

$$$$
ligand
 OpenBabel02271912143D
libRbt.so/2013.1/901 2013/11/27
 22 23  0  0  0  0  0  0  0  0999 V2000
  -36.7204    4.6587  -21.7805 N   0  0  0  0  0  0  0  0  0  0  0  0
  -37.2672    7.9649  -22.2525 C   0  0  1  0  0  0  0  0  0  0  0  0
  -37.0044    6.6723  -22.8689 O   0  0  0  0  0  0  0  0  0  0  0  0
  -35.1170   10.4953  -20.4273 P   0  0  1  0  0  0  0  0  0  0  0  0
  -37.6271    5.6597  -22.0619 C   0  0  2  0  0  0  0  0  0  0  0  0
  -35.8058    2.6946  -21.6507 N   0  0  0  0  0  0  0  0  0  0  0  0
  -38.9943    5.6609  -20.1057 O   0  0  0  0  0  0  0  0  0  0  0  0
  -37.9208    6.3316  -20.7761 C   0  0  2  0  0  0  0  0  0  0  0  0
  -33.3751    2.0896  -19.9611 N   0  0  0  0  0  0  0  0  0  0  0  0
  -39.5485    7.7602  -21.7542 O   0  0  0  0  0  0  0  0  0  0  0  0
  -38.2375    7.6996  -21.1678 C   0  0  2  0  0  0  0  0  0  0  0  0
  -34.9363    3.5945  -21.1662 C   0  0  0  0  0  0  0  0  0  0  0  0
  -34.9108    6.0584  -20.8630 N   0  0  0  0  0  0  0  0  0  0  0  0
  -36.2742    9.6690  -21.0880 O   0  0  0  0  0  0  0  0  0  0  0  0
  -35.9708    8.4656  -21.7153 C   0  0  0  0  0  0  0  0  0  0  0  0
  -35.8675   11.3795  -19.3664 O   0  0  0  0  0  0  0  0  0  0  0  0
  -36.9160    3.3580  -22.0261 C   0  0  0  0  0  0  0  0  0  0  0  0
  -32.6742    4.1023  -20.7634 O   0  0  0  0  0  0  0  0  0  0  0  0
  -33.5942    3.2950  -20.6335 C   0  0  0  0  0  0  0  0  0  0  0  0
  -35.5040    4.8341  -21.2474 C   0  0  0  0  0  0  0  0  0  0  0  0
  -34.1009    9.5655  -19.8520 O   0  5  0  0  0  0  0  0  0  0  0  0
  -34.3258   11.1986  -21.4530 O   0  0  0  0  0  0  0  0  0  0  0  0
  1 17  1  0  0  0  0
  1 20  1  0  0  0  0
  2 15  1  1  0  0  0
  2  3  1  0  0  0  0
  2 11  1  0  0  0  0
  3  5  1  0  0  0  0
  4 16  1  1  0  0  0
  4 21  1  0  0  0  0
  4 22  2  0  0  0  0
  4 14  1  0  0  0  0
  5  1  1  1  0  0  0
  5  8  1  0  0  0  0
  6 17  2  0  0  0  0
  6 12  1  0  0  0  0
  8  7  1  6  0  0  0
  8 11  1  0  0  0  0
  9 19  1  0  0  0  0
 11 10  1  6  0  0  0
 12 20  2  0  0  0  0
 12 19  1  0  0  0  0
 13 20  1  0  0  0  0
 14 15  1  0  0  0  0
 18 19  2  0  0  0  0
M  CHG  1  21  -1
M  END
>  <CHROM.1>
-125.72072544,-177.54210039,-157.17486985,-178.74250112,-33.39198545,-35.98607124
6.86096520,-21.07956217,1.48941709,0.22966905,-3.05739245

>  <Name>
ligand

>  <RI>
0

>  <Rbt.Current_Directory>
/home/itssahil/PROJECTS/Mol_Feturizer/Test_systems_manuscript/rnas/4xwf

>  <Rbt.Executable>
rbdock ($Id: //depot/dev/client3/rdock/2013.1/src/exe/rbdock.cxx#4 $)

>  <Rbt.Library>
libRbt.so (2013.1, Build901 2013/11/27)

>  <Rbt.Parameter_File>
/export/apps/rDock/src/rDock_2013.1_src/data/scripts/dock_solv.prm

>  <Rbt.Receptor>
prm/blind_docking_60.prm

>  <SCORE>
-4.86423

>  <SCORE.INTER>
-8.24147

>  <SCORE.INTER.CONST>
1

>  <SCORE.INTER.POLAR>
0

>  <SCORE.INTER.ROT>
5

>  <SCORE.INTER.SOLV>
10.8849

>  <SCORE.INTER.VDW>
-16.0559

>  <SCORE.INTER.norm>
-0.374612

>  <SCORE.INTRA>
3.37724

>  <SCORE.INTRA.DIHEDRAL>
-0.303416

>  <SCORE.INTRA.DIHEDRAL.0>
3.49807

>  <SCORE.INTRA.POLAR>
0

>  <SCORE.INTRA.POLAR.0>
0

>  <SCORE.INTRA.REPUL>
0

>  <SCORE.INTRA.REPUL.0>
0

>  <SCORE.INTRA.SOLV>
5.92018

>  <SCORE.INTRA.SOLV.lig_0>
-73.062

>  <SCORE.INTRA.VDW>
0.56886

>  <SCORE.INTRA.VDW.0>
-1.83782

>  <SCORE.INTRA.norm>
0.153511

>  <SCORE.RESTR>
0

>  <SCORE.RESTR.CAVITY>
0

>  <SCORE.RESTR.norm>
0

>  <SCORE.SYSTEM>
0

>  <SCORE.SYSTEM.CONST>
0

>  <SCORE.SYSTEM.DIHEDRAL>
0

>  <SCORE.SYSTEM.SOLV>
0

>  <SCORE.SYSTEM.norm>
0

>  <SCORE.heavy>
22

>  <SCORE.norm>
-0.221102

>  <RMSD>
14.083

$$$$
ligand
 OpenBabel02271912143D
libRbt.so/2013.1/901 2013/11/27
 22 23  0  0  0  0  0  0  0  0999 V2000
  -33.8705   -8.1017  -13.9287 N   0  0  0  0  0  0  0  0  0  0  0  0
  -35.2728   -5.0789  -14.5192 C   0  0  1  0  0  0  0  0  0  0  0  0
  -34.8376   -6.3511  -15.0776 O   0  0  0  0  0  0  0  0  0  0  0  0
  -34.2624   -3.3080  -16.6879 P   0  0  1  0  0  0  0  0  0  0  0  0
  -35.0271   -7.3644  -14.0768 C   0  0  2  0  0  0  0  0  0  0  0  0
  -32.0276   -8.8832  -13.0896 N   0  0  0  0  0  0  0  0  0  0  0  0
  -35.9369   -7.4124  -11.8709 O   0  0  0  0  0  0  0  0  0  0  0  0
  -35.2101   -6.6153  -12.8133 C   0  0  2  0  0  0  0  0  0  0  0  0
  -30.9752  -10.4860  -16.1137 N   0  0  0  0  0  0  0  0  0  0  0  0
  -37.2929   -5.7080  -13.5103 O   0  0  0  0  0  0  0  0  0  0  0  0
  -35.9155   -5.4089  -13.2283 C   0  0  2  0  0  0  0  0  0  0  0  0
  -32.2842   -9.5465  -14.2275 C   0  0  0  0  0  0  0  0  0  0  0  0
  -34.0775   -9.5060  -15.9439 N   0  0  0  0  0  0  0  0  0  0  0  0
  -33.4903   -4.1187  -15.5902 O   0  0  0  0  0  0  0  0  0  0  0  0
  -34.0529   -4.2457  -14.3248 C   0  0  0  0  0  0  0  0  0  0  0  0
  -33.1317   -2.9169  -17.7072 O   0  0  0  0  0  0  0  0  0  0  0  0
  -33.0118   -7.9817  -12.9096 C   0  0  0  0  0  0  0  0  0  0  0  0
  -31.1877  -11.6273  -14.1546 O   0  0  0  0  0  0  0  0  0  0  0  0
  -31.4518  -10.6171  -14.8066 C   0  0  0  0  0  0  0  0  0  0  0  0
  -33.4448   -9.0621  -14.7601 C   0  0  0  0  0  0  0  0  0  0  0  0
  -35.3509   -4.1519  -17.2632 O   0  5  0  0  0  0  0  0  0  0  0  0
  -35.0324   -2.2078  -16.0800 O   0  0  0  0  0  0  0  0  0  0  0  0
  1 17  1  0  0  0  0
  1 20  1  0  0  0  0
  2 15  1  1  0  0  0
  2  3  1  0  0  0  0
  2 11  1  0  0  0  0
  3  5  1  0  0  0  0
  4 16  1  6  0  0  0
  4 21  1  0  0  0  0
  4 22  2  0  0  0  0
  4 14  1  0  0  0  0
  5  1  1  1  0  0  0
  5  8  1  0  0  0  0
  6 17  2  0  0  0  0
  6 12  1  0  0  0  0
  8  7  1  1  0  0  0
  8 11  1  0  0  0  0
  9 19  1  0  0  0  0
 11 10  1  6  0  0  0
 12 20  2  0  0  0  0
 12 19  1  0  0  0  0
 13 20  1  0  0  0  0
 14 15  1  0  0  0  0
 18 19  2  0  0  0  0
M  CHG  1  21  -1
M  END
>  <CHROM.1>
104.08401684,59.52664946,158.67557099,66.73105269,-123.91898854,-34.02185545
-6.55416637,-14.81931952,1.08996331,-0.73453415,2.54431970

>  <Name>
ligand

>  <RI>
0

>  <Rbt.Current_Directory>
/home/itssahil/PROJECTS/Mol_Feturizer/Test_systems_manuscript/rnas/4xwf

>  <Rbt.Executable>
rbdock ($Id: //depot/dev/client3/rdock/2013.1/src/exe/rbdock.cxx#4 $)

>  <Rbt.Library>
libRbt.so (2013.1, Build901 2013/11/27)

>  <Rbt.Parameter_File>
/export/apps/rDock/src/rDock_2013.1_src/data/scripts/dock_solv.prm

>  <Rbt.Receptor>
prm/blind_docking_40.prm

>  <SCORE>
-1.40433

>  <SCORE.INTER>
-5.23762

>  <SCORE.INTER.CONST>
1

>  <SCORE.INTER.POLAR>
0

>  <SCORE.INTER.ROT>
5

>  <SCORE.INTER.SOLV>
10.9095

>  <SCORE.INTER.VDW>
-14.0616

>  <SCORE.INTER.norm>
-0.238074

>  <SCORE.INTRA>
3.55801

>  <SCORE.INTRA.DIHEDRAL>
-0.97843

>  <SCORE.INTRA.DIHEDRAL.0>
3.49807

>  <SCORE.INTRA.POLAR>
0

>  <SCORE.INTRA.POLAR.0>
0

>  <SCORE.INTRA.REPUL>
0

>  <SCORE.INTRA.REPUL.0>
0

>  <SCORE.INTRA.SOLV>
2.92712

>  <SCORE.INTRA.SOLV.lig_0>
-73.062

>  <SCORE.INTRA.VDW>
2.58367

>  <SCORE.INTRA.VDW.0>
-1.83782

>  <SCORE.INTRA.norm>
0.161728

>  <SCORE.RESTR>
0.275275

>  <SCORE.RESTR.CAVITY>
0.275275

>  <SCORE.RESTR.norm>
0.0125125

>  <SCORE.SYSTEM>
0

>  <SCORE.SYSTEM.CONST>
0

>  <SCORE.SYSTEM.DIHEDRAL>
0

>  <SCORE.SYSTEM.SOLV>
0

>  <SCORE.SYSTEM.norm>
0

>  <SCORE.heavy>
22

>  <SCORE.norm>
-0.0638333

>  <RMSD>
14.133

$$$$
ligand
 OpenBabel02271912143D
libRbt.so/2013.1/901 2013/11/27
 22 23  0  0  0  0  0  0  0  0999 V2000
  -34.0723   -7.8108  -14.9426 N   0  0  0  0  0  0  0  0  0  0  0  0
  -35.2423   -4.6391  -14.7879 C   0  0  1  0  0  0  0  0  0  0  0  0
  -35.4627   -5.9983  -15.2609 O   0  0  0  0  0  0  0  0  0  0  0  0
  -33.9506   -3.6821  -18.2189 P   0  0  1  0  0  0  0  0  0  0  0  0
  -34.8887   -6.9016  -14.3023 C   0  0  2  0  0  0  0  0  0  0  0  0
  -33.0606   -8.9062  -16.5198 N   0  0  0  0  0  0  0  0  0  0  0  0
  -33.8074   -6.6600  -12.1885 O   0  0  0  0  0  0  0  0  0  0  0  0
  -34.0022   -6.0554  -13.4723 C   0  0  2  0  0  0  0  0  0  0  0  0
  -31.9438  -11.5751  -14.4500 N   0  0  0  0  0  0  0  0  0  0  0  0
  -35.8251   -4.8585  -12.5281 O   0  0  0  0  0  0  0  0  0  0  0  0
  -34.6996   -4.7764  -13.4186 C   0  0  2  0  0  0  0  0  0  0  0  0
  -32.6074   -9.3565  -15.3398 C   0  0  0  0  0  0  0  0  0  0  0  0
  -33.0296   -8.8238  -12.9520 N   0  0  0  0  0  0  0  0  0  0  0  0
  -34.7344   -4.2563  -16.9882 O   0  0  0  0  0  0  0  0  0  0  0  0
  -34.2524   -4.0106  -15.7072 C   0  0  0  0  0  0  0  0  0  0  0  0
  -32.4470   -3.9321  -17.8354 O   0  0  0  0  0  0  0  0  0  0  0  0
  -33.9752   -7.9499  -16.2699 C   0  0  0  0  0  0  0  0  0  0  0  0
  -30.4592  -10.2824  -15.5948 O   0  0  0  0  0  0  0  0  0  0  0  0
  -31.5998  -10.4168  -15.1522 C   0  0  0  0  0  0  0  0  0  0  0  0
  -33.2377   -8.6694  -14.3418 C   0  0  0  0  0  0  0  0  0  0  0  0
  -34.3957   -4.3731  -19.4648 O   0  5  0  0  0  0  0  0  0  0  0  0
  -34.3545   -2.2912  -18.4928 O   0  0  0  0  0  0  0  0  0  0  0  0
  1 17  1  0  0  0  0
  1 20  1  0  0  0  0
  2 15  1  6  0  0  0
  2  3  1  0  0  0  0
  2 11  1  0  0  0  0
  3  5  1  0  0  0  0
  4 16  1  1  0  0  0
  4 21  1  0  0  0  0
  4 22  2  0  0  0  0
  4 14  1  0  0  0  0
  5  1  1  6  0  0  0
  5  8  1  0  0  0  0
  6 17  2  0  0  0  0
  6 12  1  0  0  0  0
  8  7  1  1  0  0  0
  8 11  1  0  0  0  0
  9 19  1  0  0  0  0
 11 10  1  1  0  0  0
 12 20  2  0  0  0  0
 12 19  1  0  0  0  0
 13 20  1  0  0  0  0
 14 15  1  0  0  0  0
 18 19  2  0  0  0  0
M  CHG  1  21  -1
M  END
>  <CHROM.1>
-8.58244639,49.87273930,41.35388894,177.88669779,-119.66112016,-33.76033950
-6.38312448,-15.57210090,1.04145559,-1.01546043,2.19886922

>  <Name>
ligand

>  <RI>
0

>  <Rbt.Current_Directory>
/home/itssahil/PROJECTS/Mol_Feturizer/Test_systems_manuscript/rnas/4xwf

>  <Rbt.Executable>
rbdock ($Id: //depot/dev/client3/rdock/2013.1/src/exe/rbdock.cxx#4 $)

>  <Rbt.Library>
libRbt.so (2013.1, Build901 2013/11/27)

>  <Rbt.Parameter_File>
/export/apps/rDock/src/rDock_2013.1_src/data/scripts/dock_solv.prm

>  <Rbt.Receptor>
prm/blind_docking_40.prm

>  <SCORE>
-3.27498

>  <SCORE.INTER>
-5.33098

>  <SCORE.INTER.CONST>
1

>  <SCORE.INTER.POLAR>
0

>  <SCORE.INTER.ROT>
5

>  <SCORE.INTER.SOLV>
12.6246

>  <SCORE.INTER.VDW>
-14.6955

>  <SCORE.INTER.norm>
-0.242317

>  <SCORE.INTRA>
2.05599

>  <SCORE.INTRA.DIHEDRAL>
-1.01191

>  <SCORE.INTRA.DIHEDRAL.0>
3.49807

>  <SCORE.INTRA.POLAR>
0

>  <SCORE.INTRA.POLAR.0>
0

>  <SCORE.INTRA.REPUL>
0

>  <SCORE.INTRA.REPUL.0>
0

>  <SCORE.INTRA.SOLV>
1.55765

>  <SCORE.INTRA.SOLV.lig_0>
-73.062

>  <SCORE.INTRA.VDW>
1.78312

>  <SCORE.INTRA.VDW.0>
-1.83782

>  <SCORE.INTRA.norm>
0.0934542

>  <SCORE.RESTR>
0

>  <SCORE.RESTR.CAVITY>
0

>  <SCORE.RESTR.norm>
0

>  <SCORE.SYSTEM>
0

>  <SCORE.SYSTEM.CONST>
0

>  <SCORE.SYSTEM.DIHEDRAL>
0

>  <SCORE.SYSTEM.SOLV>
0

>  <SCORE.SYSTEM.norm>
0

>  <SCORE.heavy>
22

>  <SCORE.norm>
-0.148863

>  <RMSD>
14.150

$$$$
ligand
 OpenBabel02271912143D
libRbt.so/2013.1/901 2013/11/27
 22 23  0  0  0  0  0  0  0  0999 V2000
  -37.6440    5.2514  -20.6080 N   0  0  0  0  0  0  0  0  0  0  0  0
  -36.2021    2.4351  -21.8086 C   0  0  1  0  0  0  0  0  0  0  0  0
  -37.2869    3.3981  -21.9337 O   0  0  0  0  0  0  0  0  0  0  0  0
  -35.6154   -0.5831  -19.5940 P   0  0  1  0  0  0  0  0  0  0  0  0
  -36.7889    4.6840  -21.5299 C   0  0  2  0  0  0  0  0  0  0  0  0
  -38.3775    6.4568  -18.9587 N   0  0  0  0  0  0  0  0  0  0  0  0
  -34.6695    5.5344  -20.8366 O   0  0  0  0  0  0  0  0  0  0  0  0
  -35.5306    4.3901  -20.8080 C   0  0  2  0  0  0  0  0  0  0  0  0
  -41.1510    6.7857  -18.0144 N   0  0  0  0  0  0  0  0  0  0  0  0
  -34.4348    3.6331  -22.7761 O   0  0  0  0  0  0  0  0  0  0  0  0
  -34.9922    3.2332  -21.5129 C   0  0  2  0  0  0  0  0  0  0  0  0
  -39.4251    5.8357  -19.5221 C   0  0  0  0  0  0  0  0  0  0  0  0
  -39.7563    4.2844  -21.4319 N   0  0  0  0  0  0  0  0  0  0  0  0
  -35.5473    0.5648  -20.6599 O   0  0  0  0  0  0  0  0  0  0  0  0
  -36.5489    1.5293  -20.6776 C   0  0  0  0  0  0  0  0  0  0  0  0
  -34.2160   -1.2853  -19.7326 O   0  0  0  0  0  0  0  0  0  0  0  0
  -37.2712    6.0871  -19.6316 C   0  0  0  0  0  0  0  0  0  0  0  0
  -41.7148    5.3092  -19.6539 O   0  0  0  0  0  0  0  0  0  0  0  0
  -40.8298    5.9513  -19.0885 C   0  0  0  0  0  0  0  0  0  0  0  0
  -38.9715    5.0772  -20.5634 C   0  0  0  0  0  0  0  0  0  0  0  0
  -35.8866   -0.0018  -18.2463 O   0  5  0  0  0  0  0  0  0  0  0  0
  -36.8124   -1.4180  -19.8013 O   0  0  0  0  0  0  0  0  0  0  0  0
  1 17  1  0  0  0  0
  1 20  1  0  0  0  0
  2 15  1  1  0  0  0
  2  3  1  0  0  0  0
  2 11  1  0  0  0  0
  3  5  1  0  0  0  0
  4 16  1  6  0  0  0
  4 21  1  0  0  0  0
  4 22  2  0  0  0  0
  4 14  1  0  0  0  0
  5  1  1  1  0  0  0
  5  8  1  0  0  0  0
  6 17  2  0  0  0  0
  6 12  1  0  0  0  0
  8  7  1  6  0  0  0
  8 11  1  0  0  0  0
  9 19  1  0  0  0  0
 11 10  1  6  0  0  0
 12 20  2  0  0  0  0
 12 19  1  0  0  0  0
 13 20  1  0  0  0  0
 14 15  1  0  0  0  0
 18 19  2  0  0  0  0
M  CHG  1  21  -1
M  END
>  <CHROM.1>
149.64096998,175.37327697,-170.30601334,-178.80354310,1.11857156,-37.09905860
3.16512138,-20.30588799,-2.28151003,-0.47314735,2.83694395

>  <Name>
ligand

>  <RI>
0

>  <Rbt.Current_Directory>
/home/itssahil/PROJECTS/Mol_Feturizer/Test_systems_manuscript/rnas/4xwf

>  <Rbt.Executable>
rbdock ($Id: //depot/dev/client3/rdock/2013.1/src/exe/rbdock.cxx#4 $)

>  <Rbt.Library>
libRbt.so (2013.1, Build901 2013/11/27)

>  <Rbt.Parameter_File>
/export/apps/rDock/src/rDock_2013.1_src/data/scripts/dock_solv.prm

>  <Rbt.Receptor>
prm/blind_docking_100.prm

>  <SCORE>
-7.31218

>  <SCORE.INTER>
-8.57191

>  <SCORE.INTER.CONST>
1

>  <SCORE.INTER.POLAR>
0

>  <SCORE.INTER.ROT>
5

>  <SCORE.INTER.SOLV>
18.1144

>  <SCORE.INTER.VDW>
-18.6861

>  <SCORE.INTER.norm>
-0.389632

>  <SCORE.INTRA>
1.25974

>  <SCORE.INTRA.DIHEDRAL>
-1.82824

>  <SCORE.INTRA.DIHEDRAL.0>
3.49807

>  <SCORE.INTRA.POLAR>
0

>  <SCORE.INTRA.POLAR.0>
0

>  <SCORE.INTRA.REPUL>
0

>  <SCORE.INTRA.REPUL.0>
0

>  <SCORE.INTRA.SOLV>
1.50587

>  <SCORE.INTRA.SOLV.lig_0>
-73.062

>  <SCORE.INTRA.VDW>
1.42092

>  <SCORE.INTRA.VDW.0>
-1.83782

>  <SCORE.INTRA.norm>
0.0572607

>  <SCORE.RESTR>
0

>  <SCORE.RESTR.CAVITY>
0

>  <SCORE.RESTR.norm>
0

>  <SCORE.SYSTEM>
0

>  <SCORE.SYSTEM.CONST>
0

>  <SCORE.SYSTEM.DIHEDRAL>
0

>  <SCORE.SYSTEM.SOLV>
0

>  <SCORE.SYSTEM.norm>
0

>  <SCORE.heavy>
22

>  <SCORE.norm>
-0.332372

>  <RMSD>
14.178

$$$$
ligand
 OpenBabel02271912143D
libRbt.so/2013.1/901 2013/11/27
 22 23  0  0  0  0  0  0  0  0999 V2000
  -36.3792    4.5166  -22.4374 N   0  0  0  0  0  0  0  0  0  0  0  0
  -33.9037    5.8237  -20.5358 C   0  0  1  0  0  0  0  0  0  0  0  0
  -35.3319    5.5795  -20.6786 O   0  0  0  0  0  0  0  0  0  0  0  0
  -33.9559    9.5075  -21.3955 P   0  0  1  0  0  0  0  0  0  0  0  0
  -35.5028    4.3409  -21.3865 C   0  0  2  0  0  0  0  0  0  0  0  0
  -37.4823    4.1585  -24.2721 N   0  0  0  0  0  0  0  0  0  0  0  0
  -34.0339    2.6622  -22.2351 O   0  0  0  0  0  0  0  0  0  0  0  0
  -34.1786    4.0657  -21.9877 C   0  0  2  0  0  0  0  0  0  0  0  0
  -38.6775    7.4806  -24.6517 N   0  0  0  0  0  0  0  0  0  0  0  0
  -33.1575    3.7029  -19.8728 O   0  0  0  0  0  0  0  0  0  0  0  0
  -33.2390    4.5875  -21.0029 C   0  0  2  0  0  0  0  0  0  0  0  0
  -37.9295    5.3020  -23.7307 C   0  0  0  0  0  0  0  0  0  0  0  0
  -37.4243    6.6194  -21.6880 N   0  0  0  0  0  0  0  0  0  0  0  0
  -34.2479    8.0660  -20.8521 O   0  0  0  0  0  0  0  0  0  0  0  0
  -33.5691    6.9860  -21.4060 C   0  0  0  0  0  0  0  0  0  0  0  0
  -32.4833    9.7797  -20.9181 O   0  0  0  0  0  0  0  0  0  0  0  0
  -36.5147    3.6757  -23.4694 C   0  0  0  0  0  0  0  0  0  0  0  0
  -40.1322    5.7425  -24.4315 O   0  0  0  0  0  0  0  0  0  0  0  0
  -38.9847    6.1656  -24.2921 C   0  0  0  0  0  0  0  0  0  0  0  0
  -37.2417    5.5326  -22.5735 C   0  0  0  0  0  0  0  0  0  0  0  0
  -34.1423    9.5336  -22.8762 O   0  5  0  0  0  0  0  0  0  0  0  0
  -34.9948   10.4538  -20.9508 O   0  0  0  0  0  0  0  0  0  0  0  0
  1 17  1  0  0  0  0
  1 20  1  0  0  0  0
  2 15  1  6  0  0  0
  2  3  1  0  0  0  0
  2 11  1  0  0  0  0
  3  5  1  0  0  0  0
  4 16  1  1  0  0  0
  4 21  1  0  0  0  0
  4 22  2  0  0  0  0
  4 14  1  0  0  0  0
  5  1  1  6  0  0  0
  5  8  1  0  0  0  0
  6 17  2  0  0  0  0
  6 12  1  0  0  0  0
  8  7  1  1  0  0  0
  8 11  1  0  0  0  0
  9 19  1  0  0  0  0
 11 10  1  1  0  0  0
 12 20  2  0  0  0  0
 12 19  1  0  0  0  0
 13 20  1  0  0  0  0
 14 15  1  0  0  0  0
 18 19  2  0  0  0  0
M  CHG  1  21  -1
M  END
>  <CHROM.1>
163.31041825,65.18908947,-68.45875066,171.15174680,-118.53659991,-35.45676622
6.35924625,-22.07710778,-2.48383667,-0.54888671,-0.01656238

>  <Name>
ligand

>  <RI>
0

>  <Rbt.Current_Directory>
/home/itssahil/PROJECTS/Mol_Feturizer/Test_systems_manuscript/rnas/4xwf

>  <Rbt.Executable>
rbdock ($Id: //depot/dev/client3/rdock/2013.1/src/exe/rbdock.cxx#4 $)

>  <Rbt.Library>
libRbt.so (2013.1, Build901 2013/11/27)

>  <Rbt.Parameter_File>
/export/apps/rDock/src/rDock_2013.1_src/data/scripts/dock_solv.prm

>  <Rbt.Receptor>
prm/blind_docking_80.prm

>  <SCORE>
-7.63901

>  <SCORE.INTER>
-8.7397

>  <SCORE.INTER.CONST>
1

>  <SCORE.INTER.POLAR>
0

>  <SCORE.INTER.ROT>
5

>  <SCORE.INTER.SOLV>
5.80638

>  <SCORE.INTER.VDW>
-14.6953

>  <SCORE.INTER.norm>
-0.397259

>  <SCORE.INTRA>
1.10069

>  <SCORE.INTRA.DIHEDRAL>
-1.375

>  <SCORE.INTRA.DIHEDRAL.0>
3.49807

>  <SCORE.INTRA.POLAR>
0

>  <SCORE.INTRA.POLAR.0>
0

>  <SCORE.INTRA.REPUL>
0

>  <SCORE.INTRA.REPUL.0>
0

>  <SCORE.INTRA.SOLV>
2.22682

>  <SCORE.INTRA.SOLV.lig_0>
-73.062

>  <SCORE.INTRA.VDW>
0.67478

>  <SCORE.INTRA.VDW.0>
-1.83782

>  <SCORE.INTRA.norm>
0.0500314

>  <SCORE.RESTR>
0

>  <SCORE.RESTR.CAVITY>
0

>  <SCORE.RESTR.norm>
0

>  <SCORE.SYSTEM>
0

>  <SCORE.SYSTEM.CONST>
0

>  <SCORE.SYSTEM.DIHEDRAL>
0

>  <SCORE.SYSTEM.SOLV>
0

>  <SCORE.SYSTEM.norm>
0

>  <SCORE.heavy>
22

>  <SCORE.norm>
-0.347228

>  <RMSD>
14.190

$$$$
ligand
 OpenBabel02271912143D
libRbt.so/2013.1/901 2013/11/27
 22 23  0  0  0  0  0  0  0  0999 V2000
  -37.9770    2.2782  -20.5037 N   0  0  0  0  0  0  0  0  0  0  0  0
  -35.7461   -0.1300  -19.6812 C   0  0  1  0  0  0  0  0  0  0  0  0
  -36.9471    0.2158  -20.4281 O   0  0  0  0  0  0  0  0  0  0  0  0
  -37.2697   -2.1288  -16.8664 P   0  0  1  0  0  0  0  0  0  0  0  0
  -36.8330    1.5863  -20.8442 C   0  0  2  0  0  0  0  0  0  0  0  0
  -39.8579    2.7920  -19.5502 N   0  0  0  0  0  0  0  0  0  0  0  0
  -35.1551    3.2738  -20.6635 O   0  0  0  0  0  0  0  0  0  0  0  0
  -35.7439    2.1429  -20.0107 C   0  0  2  0  0  0  0  0  0  0  0  0
  -40.7247    5.4007  -21.7971 N   0  0  0  0  0  0  0  0  0  0  0  0
  -34.0892    0.7957  -21.0569 O   0  0  0  0  0  0  0  0  0  0  0  0
  -34.8296    1.0196  -19.8453 C   0  0  2  0  0  0  0  0  0  0  0  0
  -39.4946    3.8152  -20.3386 C   0  0  0  0  0  0  0  0  0  0  0  0
  -37.5737    4.3167  -21.8294 N   0  0  0  0  0  0  0  0  0  0  0  0
  -36.9413   -1.4511  -18.2417 O   0  0  0  0  0  0  0  0  0  0  0  0
  -36.1511   -0.3070  -18.2583 C   0  0  0  0  0  0  0  0  0  0  0  0
  -38.2988   -3.2512  -17.2559 O   0  0  0  0  0  0  0  0  0  0  0  0
  -38.9161    1.8356  -19.6595 C   0  0  0  0  0  0  0  0  0  0  0  0
  -40.4491    5.8268  -19.5771 O   0  0  0  0  0  0  0  0  0  0  0  0
  -40.2492    5.0683  -20.5257 C   0  0  0  0  0  0  0  0  0  0  0  0
  -38.3094    3.5004  -20.9400 C   0  0  0  0  0  0  0  0  0  0  0  0
  -36.0111   -2.6317  -16.2410 O   0  5  0  0  0  0  0  0  0  0  0  0
  -37.7080   -1.1245  -15.8806 O   0  0  0  0  0  0  0  0  0  0  0  0
  1 17  1  0  0  0  0
  1 20  1  0  0  0  0
  2 15  1  1  0  0  0
  2  3  1  0  0  0  0
  2 11  1  0  0  0  0
  3  5  1  0  0  0  0
  4 16  1  6  0  0  0
  4 21  1  0  0  0  0
  4 22  2  0  0  0  0
  4 14  1  0  0  0  0
  5  1  1  1  0  0  0
  5  8  1  0  0  0  0
  6 17  2  0  0  0  0
  6 12  1  0  0  0  0
  8  7  1  6  0  0  0
  8 11  1  0  0  0  0
  9 19  1  0  0  0  0
 11 10  1  6  0  0  0
 12 20  2  0  0  0  0
 12 19  1  0  0  0  0
 13 20  1  0  0  0  0
 14 15  1  0  0  0  0
 18 19  2  0  0  0  0
M  CHG  1  21  -1
M  END
>  <CHROM.1>
13.80370565,68.04673325,173.46830441,165.87535943,-118.43698053,-37.45141992
1.19783102,-19.33806024,-1.90338883,-0.38720483,2.50422267

>  <Name>
ligand

>  <RI>
0

>  <Rbt.Current_Directory>
/home/itssahil/PROJECTS/Mol_Feturizer/Test_systems_manuscript/rnas/4xwf

>  <Rbt.Executable>
rbdock ($Id: //depot/dev/client3/rdock/2013.1/src/exe/rbdock.cxx#4 $)

>  <Rbt.Library>
libRbt.so (2013.1, Build901 2013/11/27)

>  <Rbt.Parameter_File>
/export/apps/rDock/src/rDock_2013.1_src/data/scripts/dock_solv.prm

>  <Rbt.Receptor>
prm/blind_docking_100.prm

>  <SCORE>
-8.6592

>  <SCORE.INTER>
-8.78116

>  <SCORE.INTER.CONST>
1

>  <SCORE.INTER.POLAR>
0

>  <SCORE.INTER.ROT>
5

>  <SCORE.INTER.SOLV>
12.6741

>  <SCORE.INTER.VDW>
-17.0121

>  <SCORE.INTER.norm>
-0.399144

>  <SCORE.INTRA>
0.121953

>  <SCORE.INTRA.DIHEDRAL>
-0.724154

>  <SCORE.INTRA.DIHEDRAL.0>
3.49807

>  <SCORE.INTRA.POLAR>
0

>  <SCORE.INTRA.POLAR.0>
0

>  <SCORE.INTRA.REPUL>
0

>  <SCORE.INTRA.REPUL.0>
0

>  <SCORE.INTRA.SOLV>
1.33177

>  <SCORE.INTRA.SOLV.lig_0>
-73.062

>  <SCORE.INTRA.VDW>
-0.181853

>  <SCORE.INTRA.VDW.0>
-1.83782

>  <SCORE.INTRA.norm>
0.00554334

>  <SCORE.RESTR>
0

>  <SCORE.RESTR.CAVITY>
0

>  <SCORE.RESTR.norm>
0

>  <SCORE.SYSTEM>
0

>  <SCORE.SYSTEM.CONST>
0

>  <SCORE.SYSTEM.DIHEDRAL>
0

>  <SCORE.SYSTEM.SOLV>
0

>  <SCORE.SYSTEM.norm>
0

>  <SCORE.heavy>
22

>  <SCORE.norm>
-0.3936

>  <RMSD>
14.214

$$$$
ligand
 OpenBabel02271912143D
libRbt.so/2013.1/901 2013/11/27
 22 23  0  0  0  0  0  0  0  0999 V2000
  -34.0597   -7.8180  -14.9470 N   0  0  0  0  0  0  0  0  0  0  0  0
  -35.2750   -4.6603  -14.8764 C   0  0  1  0  0  0  0  0  0  0  0  0
  -35.4834   -6.0378  -15.2993 O   0  0  0  0  0  0  0  0  0  0  0  0
  -34.0351   -3.8428  -18.3625 P   0  0  1  0  0  0  0  0  0  0  0  0
  -34.8779   -6.8997  -14.3221 C   0  0  2  0  0  0  0  0  0  0  0  0
  -33.0399   -8.9326  -16.5054 N   0  0  0  0  0  0  0  0  0  0  0  0
  -33.7614   -6.5710  -12.2385 O   0  0  0  0  0  0  0  0  0  0  0  0
  -33.9892   -6.0130  -13.5380 C   0  0  2  0  0  0  0  0  0  0  0  0
  -31.9447  -11.5803  -14.3938 N   0  0  0  0  0  0  0  0  0  0  0  0
  -35.8124   -4.8118  -12.5998 O   0  0  0  0  0  0  0  0  0  0  0  0
  -34.7050   -4.7434  -13.5138 C   0  0  2  0  0  0  0  0  0  0  0  0
  -32.5969   -9.3723  -15.3175 C   0  0  0  0  0  0  0  0  0  0  0  0
  -33.0350   -8.8138  -12.9385 N   0  0  0  0  0  0  0  0  0  0  0  0
  -34.8087   -4.3531  -17.0977 O   0  0  0  0  0  0  0  0  0  0  0  0
  -34.3121   -4.0488  -15.8350 C   0  0  0  0  0  0  0  0  0  0  0  0
  -32.5296   -4.0975  -17.9896 O   0  0  0  0  0  0  0  0  0  0  0  0
  -33.9533   -7.9709  -16.2721 C   0  0  0  0  0  0  0  0  0  0  0  0
  -30.4517  -10.3102  -15.5528 O   0  0  0  0  0  0  0  0  0  0  0  0
  -31.5941  -10.4337  -15.1116 C   0  0  0  0  0  0  0  0  0  0  0  0
  -33.2323   -8.6730  -14.3313 C   0  0  0  0  0  0  0  0  0  0  0  0
  -34.5075   -4.5796  -19.5715 O   0  5  0  0  0  0  0  0  0  0  0  0
  -34.4240   -2.4591  -18.6897 O   0  0  0  0  0  0  0  0  0  0  0  0
  1 17  1  0  0  0  0
  1 20  1  0  0  0  0
  2 15  1  6  0  0  0
  2  3  1  0  0  0  0
  2 11  1  0  0  0  0
  3  5  1  0  0  0  0
  4 16  1  1  0  0  0
  4 21  1  0  0  0  0
  4 22  2  0  0  0  0
  4 14  1  0  0  0  0
  5  1  1  6  0  0  0
  5  8  1  0  0  0  0
  6 17  2  0  0  0  0
  6 12  1  0  0  0  0
  8  7  1  1  0  0  0
  8 11  1  0  0  0  0
  9 19  1  0  0  0  0
 11 10  1  1  0  0  0
 12 20  2  0  0  0  0
 12 19  1  0  0  0  0
 13 20  1  0  0  0  0
 14 15  1  0  0  0  0
 18 19  2  0  0  0  0
M  CHG  1  21  -1
M  END
>  <CHROM.1>
-6.31641209,49.45110852,41.98504003,179.43504113,-120.01931245,-33.78290396
-6.42858393,-15.62904311,1.00554495,-1.01911854,2.13474547

>  <Name>
ligand

>  <RI>
0

>  <Rbt.Current_Directory>
/home/itssahil/PROJECTS/Mol_Feturizer/Test_systems_manuscript/rnas/4xwf

>  <Rbt.Executable>
rbdock ($Id: //depot/dev/client3/rdock/2013.1/src/exe/rbdock.cxx#4 $)

>  <Rbt.Library>
libRbt.so (2013.1, Build901 2013/11/27)

>  <Rbt.Parameter_File>
/export/apps/rDock/src/rDock_2013.1_src/data/scripts/dock_solv.prm

>  <Rbt.Receptor>
prm/blind_docking_40.prm

>  <SCORE>
-3.45628

>  <SCORE.INTER>
-5.12552

>  <SCORE.INTER.CONST>
1

>  <SCORE.INTER.POLAR>
0

>  <SCORE.INTER.ROT>
5

>  <SCORE.INTER.SOLV>
12.7942

>  <SCORE.INTER.VDW>
-14.6151

>  <SCORE.INTER.norm>
-0.232978

>  <SCORE.INTRA>
1.66925

>  <SCORE.INTRA.DIHEDRAL>
-1.04192

>  <SCORE.INTRA.DIHEDRAL.0>
3.49807

>  <SCORE.INTRA.POLAR>
0

>  <SCORE.INTRA.POLAR.0>
0

>  <SCORE.INTRA.REPUL>
0

>  <SCORE.INTRA.REPUL.0>
0

>  <SCORE.INTRA.SOLV>
1.46658

>  <SCORE.INTRA.SOLV.lig_0>
-73.062

>  <SCORE.INTRA.VDW>
1.45691

>  <SCORE.INTRA.VDW.0>
-1.83782

>  <SCORE.INTRA.norm>
0.0758748

>  <SCORE.RESTR>
0

>  <SCORE.RESTR.CAVITY>
0

>  <SCORE.RESTR.norm>
0

>  <SCORE.SYSTEM>
0

>  <SCORE.SYSTEM.CONST>
0

>  <SCORE.SYSTEM.DIHEDRAL>
0

>  <SCORE.SYSTEM.SOLV>
0

>  <SCORE.SYSTEM.norm>
0

>  <SCORE.heavy>
22

>  <SCORE.norm>
-0.157104

>  <RMSD>
14.216

$$$$
ligand
 OpenBabel02271912143D
libRbt.so/2013.1/901 2013/11/27
 22 23  0  0  0  0  0  0  0  0999 V2000
  -35.3205   -5.5732  -17.4255 N   0  0  0  0  0  0  0  0  0  0  0  0
  -34.6168   -3.8219  -14.6165 C   0  0  1  0  0  0  0  0  0  0  0  0
  -34.1240   -4.3451  -15.8828 O   0  0  0  0  0  0  0  0  0  0  0  0
  -33.0699   -6.8030  -12.8618 P   0  0  1  0  0  0  0  0  0  0  0  0
  -35.2124   -4.3380  -16.8208 C   0  0  2  0  0  0  0  0  0  0  0  0
  -35.7833   -7.6699  -17.7428 N   0  0  0  0  0  0  0  0  0  0  0  0
  -37.4831   -3.6051  -16.7699 O   0  0  0  0  0  0  0  0  0  0  0  0
  -36.4250   -4.1722  -15.9884 C   0  0  2  0  0  0  0  0  0  0  0  0
  -33.7841   -8.0499  -20.6589 N   0  0  0  0  0  0  0  0  0  0  0  0
  -35.8351   -1.9597  -15.3529 O   0  0  0  0  0  0  0  0  0  0  0  0
  -35.9781   -3.3154  -14.8970 C   0  0  2  0  0  0  0  0  0  0  0  0
  -35.2798   -7.1747  -18.8838 C   0  0  0  0  0  0  0  0  0  0  0  0
  -34.4620   -4.9605  -19.6534 N   0  0  0  0  0  0  0  0  0  0  0  0
  -33.3970   -5.5631  -13.7643 O   0  0  0  0  0  0  0  0  0  0  0  0
  -34.6446   -4.9590  -13.6540 C   0  0  0  0  0  0  0  0  0  0  0  0
  -32.3365   -6.1647  -11.6268 O   0  0  0  0  0  0  0  0  0  0  0  0
  -35.8018   -6.6740  -16.8365 C   0  0  0  0  0  0  0  0  0  0  0  0
  -36.0267   -8.4405  -20.7215 O   0  0  0  0  0  0  0  0  0  0  0  0
  -35.0734   -7.9301  -20.1333 C   0  0  0  0  0  0  0  0  0  0  0  0
  -34.9888   -5.8540  -18.6928 C   0  0  0  0  0  0  0  0  0  0  0  0
  -34.3313   -7.5275  -12.5273 O   0  5  0  0  0  0  0  0  0  0  0  0
  -32.3358   -7.8269  -13.6269 O   0  0  0  0  0  0  0  0  0  0  0  0
  1 17  1  0  0  0  0
  1 20  1  0  0  0  0
  2 15  1  1  0  0  0
  2  3  1  0  0  0  0
  2 11  1  0  0  0  0
  3  5  1  0  0  0  0
  4 16  1  1  0  0  0
  4 21  1  0  0  0  0
  4 22  2  0  0  0  0
  4 14  1  0  0  0  0
  5  1  1  1  0  0  0
  5  8  1  0  0  0  0
  6 17  2  0  0  0  0
  6 12  1  0  0  0  0
  8  7  1  6  0  0  0
  8 11  1  0  0  0  0
  9 19  1  0  0  0  0
 11 10  1  6  0  0  0
 12 20  2  0  0  0  0
 12 19  1  0  0  0  0
 13 20  1  0  0  0  0
 14 15  1  0  0  0  0
 18 19  2  0  0  0  0
M  CHG  1  21  -1
M  END
>  <CHROM.1>
73.88029052,48.89335494,-94.65495478,179.13421061,-119.41511548,-34.70481398
-5.80449250,-16.03613239,2.10164279,1.01697167,-2.17815656

>  <Name>
ligand

>  <RI>
0

>  <Rbt.Current_Directory>
/home/itssahil/PROJECTS/Mol_Feturizer/Test_systems_manuscript/rnas/4xwf

>  <Rbt.Executable>
rbdock ($Id: //depot/dev/client3/rdock/2013.1/src/exe/rbdock.cxx#4 $)

>  <Rbt.Library>
libRbt.so (2013.1, Build901 2013/11/27)

>  <Rbt.Parameter_File>
/export/apps/rDock/src/rDock_2013.1_src/data/scripts/dock_solv.prm

>  <Rbt.Receptor>
prm/blind_docking_60.prm

>  <SCORE>
-8.10154

>  <SCORE.INTER>
-8.6612

>  <SCORE.INTER.CONST>
1

>  <SCORE.INTER.POLAR>
0

>  <SCORE.INTER.ROT>
5

>  <SCORE.INTER.SOLV>
13.9967

>  <SCORE.INTER.VDW>
-17.373

>  <SCORE.INTER.norm>
-0.393691

>  <SCORE.INTRA>
0.559658

>  <SCORE.INTRA.DIHEDRAL>
-0.00113751

>  <SCORE.INTRA.DIHEDRAL.0>
3.49807

>  <SCORE.INTRA.POLAR>
0

>  <SCORE.INTRA.POLAR.0>
0

>  <SCORE.INTRA.REPUL>
0

>  <SCORE.INTRA.REPUL.0>
0

>  <SCORE.INTRA.SOLV>
-0.715915

>  <SCORE.INTRA.SOLV.lig_0>
-73.062

>  <SCORE.INTRA.VDW>
0.918184

>  <SCORE.INTRA.VDW.0>
-1.83782

>  <SCORE.INTRA.norm>
0.025439

>  <SCORE.RESTR>
0

>  <SCORE.RESTR.CAVITY>
0

>  <SCORE.RESTR.norm>
0

>  <SCORE.SYSTEM>
0

>  <SCORE.SYSTEM.CONST>
0

>  <SCORE.SYSTEM.DIHEDRAL>
0

>  <SCORE.SYSTEM.SOLV>
0

>  <SCORE.SYSTEM.norm>
0

>  <SCORE.heavy>
22

>  <SCORE.norm>
-0.368252

>  <RMSD>
14.217

$$$$
ligand
 OpenBabel02271912143D
libRbt.so/2013.1/901 2013/11/27
 22 23  0  0  0  0  0  0  0  0999 V2000
  -30.1035    9.2265  -24.0443 N   0  0  0  0  0  0  0  0  0  0  0  0
  -31.1761    9.7575  -20.8789 C   0  0  1  0  0  0  0  0  0  0  0  0
  -30.3069   10.1960  -21.9615 O   0  0  0  0  0  0  0  0  0  0  0  0
  -30.9280    7.0512  -18.2403 P   0  0  1  0  0  0  0  0  0  0  0  0
  -30.9638    9.9042  -23.2055 C   0  0  2  0  0  0  0  0  0  0  0  0
  -28.3274    8.2269  -24.7910 N   0  0  0  0  0  0  0  0  0  0  0  0
  -33.0836    9.0005  -23.8264 O   0  0  0  0  0  0  0  0  0  0  0  0
  -32.0380    8.9504  -22.8487 C   0  0  2  0  0  0  0  0  0  0  0  0
  -30.2846    6.9782  -27.6803 N   0  0  0  0  0  0  0  0  0  0  0  0
  -33.2441   10.5823  -21.6120 O   0  0  0  0  0  0  0  0  0  0  0  0
  -32.4554    9.3840  -21.5210 C   0  0  2  0  0  0  0  0  0  0  0  0
  -29.2845    8.1353  -25.7270 C   0  0  0  0  0  0  0  0  0  0  0  0
  -31.6472    8.8693  -25.9325 N   0  0  0  0  0  0  0  0  0  0  0  0
  -31.2801    8.3092  -19.1075 O   0  0  0  0  0  0  0  0  0  0  0  0
  -30.5213    8.5810  -20.2407 C   0  0  0  0  0  0  0  0  0  0  0  0
  -29.4000    7.2466  -17.9281 O   0  0  0  0  0  0  0  0  0  0  0  0
  -28.8371    8.9108  -23.7489 C   0  0  0  0  0  0  0  0  0  0  0  0
  -28.0398    7.3415  -27.5595 O   0  0  0  0  0  0  0  0  0  0  0  0
  -29.1467    7.4733  -27.0376 C   0  0  0  0  0  0  0  0  0  0  0  0
  -30.4069    8.7598  -25.2629 C   0  0  0  0  0  0  0  0  0  0  0  0
  -31.8068    7.0104  -17.0345 O   0  5  0  0  0  0  0  0  0  0  0  0
  -31.3215    5.8116  -18.9340 O   0  0  0  0  0  0  0  0  0  0  0  0
  1 17  1  0  0  0  0
  1 20  1  0  0  0  0
  2 15  1  6  0  0  0
  2  3  1  0  0  0  0
  2 11  1  0  0  0  0
  3  5  1  0  0  0  0
  4 16  1  1  0  0  0
  4 21  1  0  0  0  0
  4 22  2  0  0  0  0
  4 14  1  0  0  0  0
  5  1  1  6  0  0  0
  5  8  1  0  0  0  0
  6 17  2  0  0  0  0
  6 12  1  0  0  0  0
  8  7  1  6  0  0  0
  8 11  1  0  0  0  0
  9 19  1  0  0  0  0
 11 10  1  6  0  0  0
 12 20  2  0  0  0  0
 12 19  1  0  0  0  0
 13 20  1  0  0  0  0
 14 15  1  0  0  0  0
 18 19  2  0  0  0  0
M  CHG  1  21  -1
M  END
>  <CHROM.1>
-1.12380380,172.00872639,53.72583790,175.69419879,154.61656809,-30.71486040
8.34749662,-22.31608376,1.32908161,0.70346597,-1.33497418

>  <Name>
ligand

>  <RI>
0

>  <Rbt.Current_Directory>
/home/itssahil/PROJECTS/Mol_Feturizer/Test_systems_manuscript/rnas/4xwf

>  <Rbt.Executable>
rbdock ($Id: //depot/dev/client3/rdock/2013.1/src/exe/rbdock.cxx#4 $)

>  <Rbt.Library>
libRbt.so (2013.1, Build901 2013/11/27)

>  <Rbt.Parameter_File>
/export/apps/rDock/src/rDock_2013.1_src/data/scripts/dock_solv.prm

>  <Rbt.Receptor>
prm/blind_docking_100.prm

>  <SCORE>
-11.29

>  <SCORE.INTER>
-12.6135

>  <SCORE.INTER.CONST>
1

>  <SCORE.INTER.POLAR>
0

>  <SCORE.INTER.ROT>
5

>  <SCORE.INTER.SOLV>
20.8843

>  <SCORE.INTER.VDW>
-22.3038

>  <SCORE.INTER.norm>
-0.57334

>  <SCORE.INTRA>
1.32339

>  <SCORE.INTRA.DIHEDRAL>
-0.538191

>  <SCORE.INTRA.DIHEDRAL.0>
3.49807

>  <SCORE.INTRA.POLAR>
0

>  <SCORE.INTRA.POLAR.0>
0

>  <SCORE.INTRA.REPUL>
0

>  <SCORE.INTRA.REPUL.0>
0

>  <SCORE.INTRA.SOLV>
1.58491

>  <SCORE.INTRA.SOLV.lig_0>
-73.062

>  <SCORE.INTRA.VDW>
0.800028

>  <SCORE.INTRA.VDW.0>
-1.83782

>  <SCORE.INTRA.norm>
0.0601541

>  <SCORE.RESTR>
4.81555e-05

>  <SCORE.RESTR.CAVITY>
4.81555e-05

>  <SCORE.RESTR.norm>
2.18889e-06

>  <SCORE.SYSTEM>
0

>  <SCORE.SYSTEM.CONST>
0

>  <SCORE.SYSTEM.DIHEDRAL>
0

>  <SCORE.SYSTEM.SOLV>
0

>  <SCORE.SYSTEM.norm>
0

>  <SCORE.heavy>
22

>  <SCORE.norm>
-0.513184

>  <RMSD>
14.220

$$$$
ligand
 OpenBabel02271912143D
libRbt.so/2013.1/901 2013/11/27
 22 23  0  0  0  0  0  0  0  0999 V2000
  -34.1229   -7.5714  -14.8821 N   0  0  0  0  0  0  0  0  0  0  0  0
  -36.1036   -4.8335  -15.0644 C   0  0  1  0  0  0  0  0  0  0  0  0
  -36.0324   -6.2777  -14.8944 O   0  0  0  0  0  0  0  0  0  0  0  0
  -34.0156   -4.3870  -18.1908 P   0  0  1  0  0  0  0  0  0  0  0  0
  -34.8096   -6.5848  -14.2052 C   0  0  2  0  0  0  0  0  0  0  0  0
  -33.3948   -8.8284  -16.4949 N   0  0  0  0  0  0  0  0  0  0  0  0
  -33.0353   -5.3008  -13.2569 O   0  0  0  0  0  0  0  0  0  0  0  0
  -33.9946   -5.3545  -14.3193 C   0  0  2  0  0  0  0  0  0  0  0  0
  -30.4331  -10.0011  -15.5602 N   0  0  0  0  0  0  0  0  0  0  0  0
  -35.4637   -4.1059  -12.9300 O   0  0  0  0  0  0  0  0  0  0  0  0
  -34.9818   -4.2829  -14.2727 C   0  0  2  0  0  0  0  0  0  0  0  0
  -32.7706   -9.1936  -15.3646 C   0  0  0  0  0  0  0  0  0  0  0  0
  -32.8004   -8.4492  -12.9964 N   0  0  0  0  0  0  0  0  0  0  0  0
  -34.5812   -4.7477  -16.7736 O   0  0  0  0  0  0  0  0  0  0  0  0
  -35.9345   -4.5549  -16.5183 C   0  0  0  0  0  0  0  0  0  0  0  0
  -34.6024   -2.9534  -18.4573 O   0  0  0  0  0  0  0  0  0  0  0  0
  -34.2391   -7.8242  -16.1910 C   0  0  0  0  0  0  0  0  0  0  0  0
  -32.0995  -11.3965  -14.8807 O   0  0  0  0  0  0  0  0  0  0  0  0
  -31.7678  -10.2679  -15.2432 C   0  0  0  0  0  0  0  0  0  0  0  0
  -33.2217   -8.4046  -14.3451 C   0  0  0  0  0  0  0  0  0  0  0  0
  -32.5245   -4.4522  -18.1681 O   0  5  0  0  0  0  0  0  0  0  0  0
  -34.3420   -5.4416  -19.1674 O   0  0  0  0  0  0  0  0  0  0  0  0
  1 17  1  0  0  0  0
  1 20  1  0  0  0  0
  2 15  1  6  0  0  0
  2  3  1  0  0  0  0
  2 11  1  0  0  0  0
  3  5  1  0  0  0  0
  4 16  1  6  0  0  0
  4 21  1  0  0  0  0
  4 22  2  0  0  0  0
  4 14  1  0  0  0  0
  5  1  1  6  0  0  0
  5  8  1  0  0  0  0
  6 17  2  0  0  0  0
  6 12  1  0  0  0  0
  8  7  1  1  0  0  0
  8 11  1  0  0  0  0
  9 19  1  0  0  0  0
 11 10  1  1  0  0  0
 12 20  2  0  0  0  0
 12 19  1  0  0  0  0
 13 20  1  0  0  0  0
 14 15  1  0  0  0  0
 18 19  2  0  0  0  0
M  CHG  1  21  -1
M  END
>  <CHROM.1>
25.21138958,-74.83679021,48.01905460,-173.45433726,83.01636219,-33.90149997
-6.39690786,-15.73386705,0.77341900,-1.01670725,2.04107045

>  <Name>
ligand

>  <RI>
0

>  <Rbt.Current_Directory>
/home/itssahil/PROJECTS/Mol_Feturizer/Test_systems_manuscript/rnas/4xwf

>  <Rbt.Executable>
rbdock ($Id: //depot/dev/client3/rdock/2013.1/src/exe/rbdock.cxx#4 $)

>  <Rbt.Library>
libRbt.so (2013.1, Build901 2013/11/27)

>  <Rbt.Parameter_File>
/export/apps/rDock/src/rDock_2013.1_src/data/scripts/dock_solv.prm

>  <Rbt.Receptor>
prm/blind_docking_40.prm

>  <SCORE>
0.156686

>  <SCORE.INTER>
-1.87586

>  <SCORE.INTER.CONST>
1

>  <SCORE.INTER.POLAR>
0

>  <SCORE.INTER.ROT>
5

>  <SCORE.INTER.SOLV>
16.7915

>  <SCORE.INTER.VDW>
-13.7811

>  <SCORE.INTER.norm>
-0.0852662

>  <SCORE.INTRA>
2.03138

>  <SCORE.INTRA.DIHEDRAL>
0.284688

>  <SCORE.INTRA.DIHEDRAL.0>
3.49807

>  <SCORE.INTRA.POLAR>
0

>  <SCORE.INTRA.POLAR.0>
0

>  <SCORE.INTRA.REPUL>
0

>  <SCORE.INTRA.REPUL.0>
0

>  <SCORE.INTRA.SOLV>
1.06589

>  <SCORE.INTRA.SOLV.lig_0>
-73.062

>  <SCORE.INTRA.VDW>
1.35609

>  <SCORE.INTRA.VDW.0>
-1.83782

>  <SCORE.INTRA.norm>
0.0923355

>  <SCORE.RESTR>
0.00116021

>  <SCORE.RESTR.CAVITY>
0.00116021

>  <SCORE.RESTR.norm>
5.27366e-05

>  <SCORE.SYSTEM>
0

>  <SCORE.SYSTEM.CONST>
0

>  <SCORE.SYSTEM.DIHEDRAL>
0

>  <SCORE.SYSTEM.SOLV>
0

>  <SCORE.SYSTEM.norm>
0

>  <SCORE.heavy>
22

>  <SCORE.norm>
0.00712211

>  <RMSD>
14.230

$$$$
ligand
 OpenBabel02271912143D
libRbt.so/2013.1/901 2013/11/27
 22 23  0  0  0  0  0  0  0  0999 V2000
  -33.6330   -8.5600  -14.1895 N   0  0  0  0  0  0  0  0  0  0  0  0
  -35.7162   -6.0290  -13.3487 C   0  0  1  0  0  0  0  0  0  0  0  0
  -35.5849   -7.4396  -13.6848 O   0  0  0  0  0  0  0  0  0  0  0  0
  -35.3935   -2.8271  -15.3353 P   0  0  1  0  0  0  0  0  0  0  0  0
  -34.3164   -7.8985  -13.1902 C   0  0  2  0  0  0  0  0  0  0  0  0
  -32.9446   -9.1511  -16.1612 N   0  0  0  0  0  0  0  0  0  0  0  0
  -32.5397   -6.9224  -11.9306 O   0  0  0  0  0  0  0  0  0  0  0  0
  -33.5528   -6.6620  -12.9092 C   0  0  2  0  0  0  0  0  0  0  0  0
  -29.8706  -10.4882  -15.4926 N   0  0  0  0  0  0  0  0  0  0  0  0
  -34.9874   -6.0366  -11.1209 O   0  0  0  0  0  0  0  0  0  0  0  0
  -34.5733   -5.7224  -12.4611 C   0  0  2  0  0  0  0  0  0  0  0  0
  -32.2567   -9.8547  -15.2489 C   0  0  0  0  0  0  0  0  0  0  0  0
  -32.1964   -9.9730  -12.7698 N   0  0  0  0  0  0  0  0  0  0  0  0
  -35.6850   -3.9259  -14.2553 O   0  0  0  0  0  0  0  0  0  0  0  0
  -35.6364   -5.2654  -14.6256 C   0  0  0  0  0  0  0  0  0  0  0  0
  -33.8235   -2.8016  -15.4068 O   0  0  0  0  0  0  0  0  0  0  0  0
  -33.8035   -8.3518  -15.5003 C   0  0  0  0  0  0  0  0  0  0  0  0
  -31.5266  -12.0123  -15.8398 O   0  0  0  0  0  0  0  0  0  0  0  0
  -31.2171  -10.8590  -15.5408 C   0  0  0  0  0  0  0  0  0  0  0  0
  -32.6825   -9.4858  -14.0048 C   0  0  0  0  0  0  0  0  0  0  0  0
  -36.0666   -3.1912  -16.6167 O   0  5  0  0  0  0  0  0  0  0  0  0
  -36.0736   -1.5649  -14.9931 O   0  0  0  0  0  0  0  0  0  0  0  0
  1 17  1  0  0  0  0
  1 20  1  0  0  0  0
  2 15  1  6  0  0  0
  2  3  1  0  0  0  0
  2 11  1  0  0  0  0
  3  5  1  0  0  0  0
  4 16  1  6  0  0  0
  4 21  1  0  0  0  0
  4 22  2  0  0  0  0
  4 14  1  0  0  0  0
  5  1  1  6  0  0  0
  5  8  1  0  0  0  0
  6 17  2  0  0  0  0
  6 12  1  0  0  0  0
  8  7  1  1  0  0  0
  8 11  1  0  0  0  0
  9 19  1  0  0  0  0
 11 10  1  1  0  0  0
 12 20  2  0  0  0  0
 12 19  1  0  0  0  0
 13 20  1  0  0  0  0
 14 15  1  0  0  0  0
 18 19  2  0  0  0  0
M  CHG  1  21  -1
M  END
>  <CHROM.1>
25.77501850,-176.54436763,-80.38776246,170.31302071,97.40923956,-33.96122943
-6.69608448,-14.34826135,0.36388872,-1.05779478,1.97684370

>  <Name>
ligand

>  <RI>
0

>  <Rbt.Current_Directory>
/home/itssahil/PROJECTS/Mol_Feturizer/Test_systems_manuscript/rnas/4xwf

>  <Rbt.Executable>
rbdock ($Id: //depot/dev/client3/rdock/2013.1/src/exe/rbdock.cxx#4 $)

>  <Rbt.Library>
libRbt.so (2013.1, Build901 2013/11/27)

>  <Rbt.Parameter_File>
/export/apps/rDock/src/rDock_2013.1_src/data/scripts/dock_solv.prm

>  <Rbt.Receptor>
prm/blind_docking_40.prm

>  <SCORE>
-4.36063

>  <SCORE.INTER>
-4.89329

>  <SCORE.INTER.CONST>
1

>  <SCORE.INTER.POLAR>
0

>  <SCORE.INTER.ROT>
5

>  <SCORE.INTER.SOLV>
13.7816

>  <SCORE.INTER.VDW>
-14.7894

>  <SCORE.INTER.norm>
-0.222422

>  <SCORE.INTRA>
-0.0574904

>  <SCORE.INTRA.DIHEDRAL>
-0.343779

>  <SCORE.INTRA.DIHEDRAL.0>
3.49807

>  <SCORE.INTRA.POLAR>
0

>  <SCORE.INTRA.POLAR.0>
0

>  <SCORE.INTRA.REPUL>
0

>  <SCORE.INTRA.REPUL.0>
0

>  <SCORE.INTRA.SOLV>
0.339091

>  <SCORE.INTRA.SOLV.lig_0>
-73.062

>  <SCORE.INTRA.VDW>
-0.0551465

>  <SCORE.INTRA.VDW.0>
-1.83782

>  <SCORE.INTRA.norm>
-0.0026132

>  <SCORE.RESTR>
0.590144

>  <SCORE.RESTR.CAVITY>
0.590144

>  <SCORE.RESTR.norm>
0.0268247

>  <SCORE.SYSTEM>
0

>  <SCORE.SYSTEM.CONST>
0

>  <SCORE.SYSTEM.DIHEDRAL>
0

>  <SCORE.SYSTEM.SOLV>
0

>  <SCORE.SYSTEM.norm>
0

>  <SCORE.heavy>
22

>  <SCORE.norm>
-0.198211

>  <RMSD>
14.237

$$$$
ligand
 OpenBabel02271912143D
libRbt.so/2013.1/901 2013/11/27
 22 23  0  0  0  0  0  0  0  0999 V2000
  -37.2019   -5.0134  -17.9566 N   0  0  0  0  0  0  0  0  0  0  0  0
  -36.9953   -1.6373  -18.0643 C   0  0  1  0  0  0  0  0  0  0  0  0
  -37.7423   -2.8260  -18.4498 O   0  0  0  0  0  0  0  0  0  0  0  0
  -35.7484    1.0169  -18.9984 P   0  0  1  0  0  0  0  0  0  0  0  0
  -37.5860   -3.8060  -17.4108 C   0  0  2  0  0  0  0  0  0  0  0  0
  -37.2524   -7.0893  -18.5886 N   0  0  0  0  0  0  0  0  0  0  0  0
  -36.5101   -3.8548  -15.2810 O   0  0  0  0  0  0  0  0  0  0  0  0
  -36.4380   -3.3250  -16.6099 C   0  0  2  0  0  0  0  0  0  0  0  0
  -35.3353   -8.4744  -20.3775 N   0  0  0  0  0  0  0  0  0  0  0  0
  -37.6289   -1.4275  -15.8173 O   0  0  0  0  0  0  0  0  0  0  0  0
  -36.5612   -1.8737  -16.6700 C   0  0  2  0  0  0  0  0  0  0  0  0
  -36.0952   -6.5526  -19.0050 C   0  0  0  0  0  0  0  0  0  0  0  0
  -35.0216   -4.3180  -18.8724 N   0  0  0  0  0  0  0  0  0  0  0  0
  -35.1575   -0.3798  -18.6004 O   0  0  0  0  0  0  0  0  0  0  0  0
  -35.8313   -1.5327  -18.9885 C   0  0  0  0  0  0  0  0  0  0  0  0
  -34.6094    2.0190  -18.5873 O   0  0  0  0  0  0  0  0  0  0  0  0
  -37.9355   -6.1322  -17.9321 C   0  0  0  0  0  0  0  0  0  0  0  0
  -33.9039   -6.7903  -19.8291 O   0  0  0  0  0  0  0  0  0  0  0  0
  -35.0405   -7.2573  -19.7571 C   0  0  0  0  0  0  0  0  0  0  0  0
  -36.0574   -5.2447  -18.6134 C   0  0  0  0  0  0  0  0  0  0  0  0
  -36.0853    1.0240  -20.4525 O   0  5  0  0  0  0  0  0  0  0  0  0
  -37.0750    1.2162  -18.3875 O   0  0  0  0  0  0  0  0  0  0  0  0
  1 17  1  0  0  0  0
  1 20  1  0  0  0  0
  2 15  1  6  0  0  0
  2  3  1  0  0  0  0
  2 11  1  0  0  0  0
  3  5  1  0  0  0  0
  4 16  1  1  0  0  0
  4 21  1  0  0  0  0
  4 22  2  0  0  0  0
  4 14  1  0  0  0  0
  5  1  1  6  0  0  0
  5  8  1  0  0  0  0
  6 17  2  0  0  0  0
  6 12  1  0  0  0  0
  8  7  1  1  0  0  0
  8 11  1  0  0  0  0
  9 19  1  0  0  0  0
 11 10  1  1  0  0  0
 12 20  2  0  0  0  0
 12 19  1  0  0  0  0
 13 20  1  0  0  0  0
 14 15  1  0  0  0  0
 18 19  2  0  0  0  0
M  CHG  1  21  -1
M  END
>  <CHROM.1>
-115.24087389,179.19449488,-171.44354458,-76.12280165,15.96652294,-36.22109338
-2.90470254,-18.35821714,1.56573721,-0.95565160,-3.09940400

>  <Name>
ligand

>  <RI>
0

>  <Rbt.Current_Directory>
/home/itssahil/PROJECTS/Mol_Feturizer/Test_systems_manuscript/rnas/4xwf

>  <Rbt.Executable>
rbdock ($Id: //depot/dev/client3/rdock/2013.1/src/exe/rbdock.cxx#4 $)

>  <Rbt.Library>
libRbt.so (2013.1, Build901 2013/11/27)

>  <Rbt.Parameter_File>
/export/apps/rDock/src/rDock_2013.1_src/data/scripts/dock_solv.prm

>  <Rbt.Receptor>
prm/blind_docking_80.prm

>  <SCORE>
-7.13043

>  <SCORE.INTER>
-11.3865

>  <SCORE.INTER.CONST>
1

>  <SCORE.INTER.POLAR>
0

>  <SCORE.INTER.ROT>
5

>  <SCORE.INTER.SOLV>
16.403

>  <SCORE.INTER.VDW>
-19.992

>  <SCORE.INTER.norm>
-0.51757

>  <SCORE.INTRA>
4.25612

>  <SCORE.INTRA.DIHEDRAL>
-0.404211

>  <SCORE.INTRA.DIHEDRAL.0>
3.49807

>  <SCORE.INTRA.POLAR>
0

>  <SCORE.INTRA.POLAR.0>
0

>  <SCORE.INTRA.REPUL>
0

>  <SCORE.INTRA.REPUL.0>
0

>  <SCORE.INTRA.SOLV>
7.68379

>  <SCORE.INTRA.SOLV.lig_0>
-73.062

>  <SCORE.INTRA.VDW>
0.616326

>  <SCORE.INTRA.VDW.0>
-1.83782

>  <SCORE.INTRA.norm>
0.19346

>  <SCORE.RESTR>
0

>  <SCORE.RESTR.CAVITY>
0

>  <SCORE.RESTR.norm>
0

>  <SCORE.SYSTEM>
0

>  <SCORE.SYSTEM.CONST>
0

>  <SCORE.SYSTEM.DIHEDRAL>
0

>  <SCORE.SYSTEM.SOLV>
0

>  <SCORE.SYSTEM.norm>
0

>  <SCORE.heavy>
22

>  <SCORE.norm>
-0.32411

>  <RMSD>
14.239

$$$$
ligand
 OpenBabel02271912143D
libRbt.so/2013.1/901 2013/11/27
 22 23  0  0  0  0  0  0  0  0999 V2000
  -34.0843   -7.9108  -14.7791 N   0  0  0  0  0  0  0  0  0  0  0  0
  -35.2661   -4.7397  -14.7902 C   0  0  1  0  0  0  0  0  0  0  0  0
  -35.4854   -6.1240  -15.1844 O   0  0  0  0  0  0  0  0  0  0  0  0
  -34.0741   -3.8590  -18.2770 P   0  0  1  0  0  0  0  0  0  0  0  0
  -34.8984   -6.9702  -14.1825 C   0  0  2  0  0  0  0  0  0  0  0  0
  -33.0003   -9.0205  -16.2971 N   0  0  0  0  0  0  0  0  0  0  0  0
  -33.7979   -6.6069  -12.0962 O   0  0  0  0  0  0  0  0  0  0  0  0
  -34.0075   -6.0757  -13.4099 C   0  0  2  0  0  0  0  0  0  0  0  0
  -30.5992  -10.7710  -15.6125 N   0  0  0  0  0  0  0  0  0  0  0  0
  -35.8263   -4.8347  -12.5160 O   0  0  0  0  0  0  0  0  0  0  0  0
  -34.7098   -4.7983  -13.4207 C   0  0  2  0  0  0  0  0  0  0  0  0
  -32.6886   -9.5365  -15.0982 C   0  0  0  0  0  0  0  0  0  0  0  0
  -33.2980   -9.0521  -12.7408 N   0  0  0  0  0  0  0  0  0  0  0  0
  -34.8259   -4.4009  -17.0122 O   0  0  0  0  0  0  0  0  0  0  0  0
  -34.2878   -4.1599  -15.7528 C   0  0  0  0  0  0  0  0  0  0  0  0
  -34.3472   -2.3121  -18.2216 O   0  0  0  0  0  0  0  0  0  0  0  0
  -33.8725   -8.0143  -16.0962 C   0  0  0  0  0  0  0  0  0  0  0  0
  -32.0378  -11.5213  -14.0146 O   0  0  0  0  0  0  0  0  0  0  0  0
  -31.7715  -10.6662  -14.8590 C   0  0  0  0  0  0  0  0  0  0  0  0
  -33.3651   -8.8409  -14.1370 C   0  0  0  0  0  0  0  0  0  0  0  0
  -32.6320   -4.2369  -18.2045 O   0  5  0  0  0  0  0  0  0  0  0  0
  -34.5066   -4.5772  -19.4894 O   0  0  0  0  0  0  0  0  0  0  0  0
  1 17  1  0  0  0  0
  1 20  1  0  0  0  0
  2 15  1  6  0  0  0
  2  3  1  0  0  0  0
  2 11  1  0  0  0  0
  3  5  1  0  0  0  0
  4 16  1  6  0  0  0
  4 21  1  0  0  0  0
  4 22  2  0  0  0  0
  4 14  1  0  0  0  0
  5  1  1  6  0  0  0
  5  8  1  0  0  0  0
  6 17  2  0  0  0  0
  6 12  1  0  0  0  0
  8  7  1  1  0  0  0
  8 11  1  0  0  0  0
  9 19  1  0  0  0  0
 11 10  1  1  0  0  0
 12 20  2  0  0  0  0
 12 19  1  0  0  0  0
 13 20  1  0  0  0  0
 14 15  1  0  0  0  0
 18 19  2  0  0  0  0
M  CHG  1  21  -1
M  END
>  <CHROM.1>
0.16133406,53.70588449,-73.19952626,177.30841064,39.53268929,-33.83359648
-6.51877340,-15.48472083,1.04447901,-1.04279745,2.16437303

>  <Name>
ligand

>  <RI>
0

>  <Rbt.Current_Directory>
/home/itssahil/PROJECTS/Mol_Feturizer/Test_systems_manuscript/rnas/4xwf

>  <Rbt.Executable>
rbdock ($Id: //depot/dev/client3/rdock/2013.1/src/exe/rbdock.cxx#4 $)

>  <Rbt.Library>
libRbt.so (2013.1, Build901 2013/11/27)

>  <Rbt.Parameter_File>
/export/apps/rDock/src/rDock_2013.1_src/data/scripts/dock_solv.prm

>  <Rbt.Receptor>
prm/blind_docking_40.prm

>  <SCORE>
-1.96662

>  <SCORE.INTER>
-2.93411

>  <SCORE.INTER.CONST>
1

>  <SCORE.INTER.POLAR>
0

>  <SCORE.INTER.ROT>
5

>  <SCORE.INTER.SOLV>
15.0453

>  <SCORE.INTER.VDW>
-13.9045

>  <SCORE.INTER.norm>
-0.133369

>  <SCORE.INTRA>
0.965174

>  <SCORE.INTRA.DIHEDRAL>
-0.250871

>  <SCORE.INTRA.DIHEDRAL.0>
3.49807

>  <SCORE.INTRA.POLAR>
0

>  <SCORE.INTRA.POLAR.0>
0

>  <SCORE.INTRA.REPUL>
0

>  <SCORE.INTRA.REPUL.0>
0

>  <SCORE.INTRA.SOLV>
1.19094

>  <SCORE.INTRA.SOLV.lig_0>
-73.062

>  <SCORE.INTRA.VDW>
0.495142

>  <SCORE.INTRA.VDW.0>
-1.83782

>  <SCORE.INTRA.norm>
0.0438715

>  <SCORE.RESTR>
0.00231118

>  <SCORE.RESTR.CAVITY>
0.00231118

>  <SCORE.RESTR.norm>
0.000105054

>  <SCORE.SYSTEM>
0

>  <SCORE.SYSTEM.CONST>
0

>  <SCORE.SYSTEM.DIHEDRAL>
0

>  <SCORE.SYSTEM.SOLV>
0

>  <SCORE.SYSTEM.norm>
0

>  <SCORE.heavy>
22

>  <SCORE.norm>
-0.089392

>  <RMSD>
14.247

$$$$
ligand
 OpenBabel02271912143D
libRbt.so/2013.1/901 2013/11/27
 22 23  0  0  0  0  0  0  0  0999 V2000
  -37.9954    3.0658  -20.8857 N   0  0  0  0  0  0  0  0  0  0  0  0
  -35.2682    1.0624  -20.8457 C   0  0  1  0  0  0  0  0  0  0  0  0
  -36.6243    1.2663  -21.3349 O   0  0  0  0  0  0  0  0  0  0  0  0
  -36.8777   -0.9751  -18.0981 P   0  0  1  0  0  0  0  0  0  0  0  0
  -36.8271    2.6781  -21.5085 C   0  0  2  0  0  0  0  0  0  0  0  0
  -39.7515    3.0297  -19.6105 N   0  0  0  0  0  0  0  0  0  0  0  0
  -35.4646    4.6232  -21.2720 O   0  0  0  0  0  0  0  0  0  0  0  0
  -35.7215    3.3120  -20.7557 C   0  0  2  0  0  0  0  0  0  0  0  0
  -41.4997    5.3305  -18.9137 N   0  0  0  0  0  0  0  0  0  0  0  0
  -34.0693    2.4988  -22.2577 O   0  0  0  0  0  0  0  0  0  0  0  0
  -34.6105    2.3847  -20.9309 C   0  0  2  0  0  0  0  0  0  0  0  0
  -39.6921    4.2298  -20.2079 C   0  0  0  0  0  0  0  0  0  0  0  0
  -38.1489    5.3509  -21.7970 N   0  0  0  0  0  0  0  0  0  0  0  0
  -36.3251   -0.4209  -19.4568 O   0  0  0  0  0  0  0  0  0  0  0  0
  -35.3772    0.5964  -19.4347 C   0  0  0  0  0  0  0  0  0  0  0  0
  -37.3973    0.3164  -17.3683 O   0  0  0  0  0  0  0  0  0  0  0  0
  -38.6992    2.3062  -20.0382 C   0  0  0  0  0  0  0  0  0  0  0  0
  -40.7394    6.2332  -20.8612 O   0  0  0  0  0  0  0  0  0  0  0  0
  -40.6586    5.3292  -20.0298 C   0  0  0  0  0  0  0  0  0  0  0  0
  -38.5872    4.2612  -21.0102 C   0  0  0  0  0  0  0  0  0  0  0  0
  -37.9280   -2.0017  -18.3644 O   0  5  0  0  0  0  0  0  0  0  0  0
  -35.8524   -1.7753  -17.4046 O   0  0  0  0  0  0  0  0  0  0  0  0
  1 17  1  0  0  0  0
  1 20  1  0  0  0  0
  2 15  1  1  0  0  0
  2  3  1  0  0  0  0
  2 11  1  0  0  0  0
  3  5  1  0  0  0  0
  4 16  1  1  0  0  0
  4 21  1  0  0  0  0
  4 22  2  0  0  0  0
  4 14  1  0  0  0  0
  5  1  1  1  0  0  0
  5  8  1  0  0  0  0
  6 17  2  0  0  0  0
  6 12  1  0  0  0  0
  8  7  1  6  0  0  0
  8 11  1  0  0  0  0
  9 19  1  0  0  0  0
 11 10  1  6  0  0  0
 12 20  2  0  0  0  0
 12 19  1  0  0  0  0
 13 20  1  0  0  0  0
 14 15  1  0  0  0  0
 18 19  2  0  0  0  0
M  CHG  1  21  -1
M  END
>  <CHROM.1>
11.70855493,48.14414045,54.54100990,-169.36108965,18.98626624,-37.37264753
2.13141646,-19.97338321,-2.10488328,-0.42896288,2.57245874

>  <Name>
ligand

>  <RI>
0

>  <Rbt.Current_Directory>
/home/itssahil/PROJECTS/Mol_Feturizer/Test_systems_manuscript/rnas/4xwf

>  <Rbt.Executable>
rbdock ($Id: //depot/dev/client3/rdock/2013.1/src/exe/rbdock.cxx#4 $)

>  <Rbt.Library>
libRbt.so (2013.1, Build901 2013/11/27)

>  <Rbt.Parameter_File>
/export/apps/rDock/src/rDock_2013.1_src/data/scripts/dock_solv.prm

>  <Rbt.Receptor>
prm/blind_docking_100.prm

>  <SCORE>
-9.58002

>  <SCORE.INTER>
-9.50291

>  <SCORE.INTER.CONST>
1

>  <SCORE.INTER.POLAR>
0

>  <SCORE.INTER.ROT>
5

>  <SCORE.INTER.SOLV>
16.2832

>  <SCORE.INTER.VDW>
-18.6963

>  <SCORE.INTER.norm>
-0.431951

>  <SCORE.INTRA>
-0.0771042

>  <SCORE.INTRA.DIHEDRAL>
-0.527381

>  <SCORE.INTRA.DIHEDRAL.0>
3.49807

>  <SCORE.INTRA.POLAR>
0

>  <SCORE.INTRA.POLAR.0>
0

>  <SCORE.INTRA.REPUL>
0

>  <SCORE.INTRA.REPUL.0>
0

>  <SCORE.INTRA.SOLV>
0.630614

>  <SCORE.INTRA.SOLV.lig_0>
-73.062

>  <SCORE.INTRA.VDW>
-0.128721

>  <SCORE.INTRA.VDW.0>
-1.83782

>  <SCORE.INTRA.norm>
-0.00350474

>  <SCORE.RESTR>
0

>  <SCORE.RESTR.CAVITY>
0

>  <SCORE.RESTR.norm>
0

>  <SCORE.SYSTEM>
0

>  <SCORE.SYSTEM.CONST>
0

>  <SCORE.SYSTEM.DIHEDRAL>
0

>  <SCORE.SYSTEM.SOLV>
0

>  <SCORE.SYSTEM.norm>
0

>  <SCORE.heavy>
22

>  <SCORE.norm>
-0.435455

>  <RMSD>
14.256

$$$$
ligand
 OpenBabel02271912143D
libRbt.so/2013.1/901 2013/11/27
 22 23  0  0  0  0  0  0  0  0999 V2000
  -36.0942   -4.9473  -18.5933 N   0  0  0  0  0  0  0  0  0  0  0  0
  -37.0547   -1.7251  -18.2098 C   0  0  1  0  0  0  0  0  0  0  0  0
  -37.4040   -3.0517  -18.6976 O   0  0  0  0  0  0  0  0  0  0  0  0
  -34.8998    1.0888  -19.5480 P   0  0  1  0  0  0  0  0  0  0  0  0
  -36.7814   -4.0199  -17.8378 C   0  0  2  0  0  0  0  0  0  0  0  0
  -34.6148   -5.8274  -19.9155 N   0  0  0  0  0  0  0  0  0  0  0  0
  -35.4625   -3.9165  -15.8514 O   0  0  0  0  0  0  0  0  0  0  0  0
  -35.7617   -3.2546  -17.0860 C   0  0  2  0  0  0  0  0  0  0  0  0
  -36.0511   -8.6981  -20.9664 N   0  0  0  0  0  0  0  0  0  0  0  0
  -37.3977   -1.9972  -15.9071 O   0  0  0  0  0  0  0  0  0  0  0  0
  -36.3739   -1.9427  -16.9147 C   0  0  2  0  0  0  0  0  0  0  0  0
  -35.4298   -6.8045  -19.4891 C   0  0  0  0  0  0  0  0  0  0  0  0
  -37.3906   -6.9499  -17.9734 N   0  0  0  0  0  0  0  0  0  0  0  0
  -35.8031    0.1302  -18.6972 O   0  0  0  0  0  0  0  0  0  0  0  0
  -36.1370   -1.1169  -19.2139 C   0  0  0  0  0  0  0  0  0  0  0  0
  -34.3576    2.1100  -18.4832 O   0  0  0  0  0  0  0  0  0  0  0  0
  -35.0337   -4.6734  -19.3621 C   0  0  0  0  0  0  0  0  0  0  0  0
  -34.6464   -9.0046  -19.2005 O   0  0  0  0  0  0  0  0  0  0  0  0
  -35.3357   -8.2282  -19.8617 C   0  0  0  0  0  0  0  0  0  0  0  0
  -36.3622   -6.2585  -18.6537 C   0  0  0  0  0  0  0  0  0  0  0  0
  -33.8420    0.2973  -20.2427 O   0  5  0  0  0  0  0  0  0  0  0  0
  -35.6527    1.6401  -20.6889 O   0  0  0  0  0  0  0  0  0  0  0  0
  1 17  1  0  0  0  0
  1 20  1  0  0  0  0
  2 15  1  6  0  0  0
  2  3  1  0  0  0  0
  2 11  1  0  0  0  0
  3  5  1  0  0  0  0
  4 16  1  1  0  0  0
  4 21  1  0  0  0  0
  4 22  2  0  0  0  0
  4 14  1  0  0  0  0
  5  1  1  6  0  0  0
  5  8  1  0  0  0  0
  6 17  2  0  0  0  0
  6 12  1  0  0  0  0
  8  7  1  1  0  0  0
  8 11  1  0  0  0  0
  9 19  1  0  0  0  0
 11 10  1  1  0  0  0
 12 20  2  0  0  0  0
 12 19  1  0  0  0  0
 13 20  1  0  0  0  0
 14 15  1  0  0  0  0
 18 19  2  0  0  0  0
M  CHG  1  21  -1
M  END
>  <CHROM.1>
64.38465010,-178.60698994,-161.29771067,-176.61153278,-91.41349929,-35.75269533
-3.12028993,-18.73109476,1.69745308,-1.07309630,-3.02168831

>  <Name>
ligand

>  <RI>
0

>  <Rbt.Current_Directory>
/home/itssahil/PROJECTS/Mol_Feturizer/Test_systems_manuscript/rnas/4xwf

>  <Rbt.Executable>
rbdock ($Id: //depot/dev/client3/rdock/2013.1/src/exe/rbdock.cxx#4 $)

>  <Rbt.Library>
libRbt.so (2013.1, Build901 2013/11/27)

>  <Rbt.Parameter_File>
/export/apps/rDock/src/rDock_2013.1_src/data/scripts/dock_solv.prm

>  <Rbt.Receptor>
prm/blind_docking_60.prm

>  <SCORE>
-8.79651

>  <SCORE.INTER>
-8.79071

>  <SCORE.INTER.CONST>
1

>  <SCORE.INTER.POLAR>
0

>  <SCORE.INTER.ROT>
5

>  <SCORE.INTER.SOLV>
20.2211

>  <SCORE.INTER.VDW>
-19.5342

>  <SCORE.INTER.norm>
-0.399578

>  <SCORE.INTRA>
-0.00579727

>  <SCORE.INTRA.DIHEDRAL>
-0.660077

>  <SCORE.INTRA.DIHEDRAL.0>
3.49807

>  <SCORE.INTRA.POLAR>
0

>  <SCORE.INTRA.POLAR.0>
0

>  <SCORE.INTRA.REPUL>
0

>  <SCORE.INTRA.REPUL.0>
0

>  <SCORE.INTRA.SOLV>
-0.365924

>  <SCORE.INTRA.SOLV.lig_0>
-73.062

>  <SCORE.INTRA.VDW>
0.507203

>  <SCORE.INTRA.VDW.0>
-1.83782

>  <SCORE.INTRA.norm>
-0.000263512

>  <SCORE.RESTR>
0

>  <SCORE.RESTR.CAVITY>
0

>  <SCORE.RESTR.norm>
0

>  <SCORE.SYSTEM>
0

>  <SCORE.SYSTEM.CONST>
0

>  <SCORE.SYSTEM.DIHEDRAL>
0

>  <SCORE.SYSTEM.SOLV>
0

>  <SCORE.SYSTEM.norm>
0

>  <SCORE.heavy>
22

>  <SCORE.norm>
-0.399841

>  <RMSD>
14.280

$$$$
ligand
 OpenBabel02271912143D
libRbt.so/2013.1/901 2013/11/27
 22 23  0  0  0  0  0  0  0  0999 V2000
  -34.0979    4.1463  -21.2322 N   0  0  0  0  0  0  0  0  0  0  0  0
  -36.2415    1.5358  -21.0255 C   0  0  1  0  0  0  0  0  0  0  0  0
  -35.5684    2.4953  -21.8893 O   0  0  0  0  0  0  0  0  0  0  0  0
  -39.6108    3.2685  -21.0620 P   0  0  1  0  0  0  0  0  0  0  0  0
  -34.2815    2.7817  -21.3181 C   0  0  2  0  0  0  0  0  0  0  0  0
  -33.1289    6.0793  -21.0434 N   0  0  0  0  0  0  0  0  0  0  0  0
  -33.0575    1.9922  -19.4275 O   0  0  0  0  0  0  0  0  0  0  0  0
  -34.3681    2.2830  -19.9272 C   0  0  2  0  0  0  0  0  0  0  0  0
  -35.9483    7.8923  -22.3742 N   0  0  0  0  0  0  0  0  0  0  0  0
  -34.5055    0.0139  -20.6196 O   0  0  0  0  0  0  0  0  0  0  0  0
  -35.2279    1.1108  -20.0354 C   0  0  2  0  0  0  0  0  0  0  0  0
  -34.4411    6.2853  -21.2341 C   0  0  0  0  0  0  0  0  0  0  0  0
  -36.4335    4.8479  -21.5911 N   0  0  0  0  0  0  0  0  0  0  0  0
  -38.2579    2.5537  -21.4050 O   0  0  0  0  0  0  0  0  0  0  0  0
  -37.3743    2.2521  -20.3745 C   0  0  0  0  0  0  0  0  0  0  0  0
  -40.5058    2.9645  -22.3179 O   0  0  0  0  0  0  0  0  0  0  0  0
  -32.9194    4.7490  -21.0365 C   0  0  0  0  0  0  0  0  0  0  0  0
  -34.9130    8.4429  -20.4221 O   0  0  0  0  0  0  0  0  0  0  0  0
  -35.1059    7.6000  -21.2981 C   0  0  0  0  0  0  0  0  0  0  0  0
  -35.0575    5.0728  -21.3570 C   0  0  0  0  0  0  0  0  0  0  0  0
  -40.1476    2.7368  -19.7748 O   0  5  0  0  0  0  0  0  0  0  0  0
  -39.3822    4.6848  -20.7237 O   0  0  0  0  0  0  0  0  0  0  0  0
  1 17  1  0  0  0  0
  1 20  1  0  0  0  0
  2 15  1  1  0  0  0
  2  3  1  0  0  0  0
  2 11  1  0  0  0  0
  3  5  1  0  0  0  0
  4 16  1  6  0  0  0
  4 21  1  0  0  0  0
  4 22  2  0  0  0  0
  4 14  1  0  0  0  0
  5  1  1  1  0  0  0
  5  8  1  0  0  0  0
  6 17  2  0  0  0  0
  6 12  1  0  0  0  0
  8  7  1  6  0  0  0
  8 11  1  0  0  0  0
  9 19  1  0  0  0  0
 11 10  1  6  0  0  0
 12 20  2  0  0  0  0
 12 19  1  0  0  0  0
 13 20  1  0  0  0  0
 14 15  1  0  0  0  0
 18 19  2  0  0  0  0
M  CHG  1  21  -1
M  END
>  <CHROM.1>
-164.12140201,66.59337088,-160.22811409,177.52121060,128.90024437,-36.22696402
3.80921592,-20.97229162,-0.51536063,0.08136127,3.00160486

>  <Name>
ligand

>  <RI>
0

>  <Rbt.Current_Directory>
/home/itssahil/PROJECTS/Mol_Feturizer/Test_systems_manuscript/rnas/4xwf

>  <Rbt.Executable>
rbdock ($Id: //depot/dev/client3/rdock/2013.1/src/exe/rbdock.cxx#4 $)

>  <Rbt.Library>
libRbt.so (2013.1, Build901 2013/11/27)

>  <Rbt.Parameter_File>
/export/apps/rDock/src/rDock_2013.1_src/data/scripts/dock_solv.prm

>  <Rbt.Receptor>
prm/blind_docking_60.prm

>  <SCORE>
-7.44127

>  <SCORE.INTER>
-10.4273

>  <SCORE.INTER.CONST>
1

>  <SCORE.INTER.POLAR>
0

>  <SCORE.INTER.ROT>
5

>  <SCORE.INTER.SOLV>
13.8139

>  <SCORE.INTER.VDW>
-18.4895

>  <SCORE.INTER.norm>
-0.473966

>  <SCORE.INTRA>
2.98599

>  <SCORE.INTRA.DIHEDRAL>
-1.14496

>  <SCORE.INTRA.DIHEDRAL.0>
3.49807

>  <SCORE.INTRA.POLAR>
0

>  <SCORE.INTRA.POLAR.0>
0

>  <SCORE.INTRA.REPUL>
0

>  <SCORE.INTRA.REPUL.0>
0

>  <SCORE.INTRA.SOLV>
7.41689

>  <SCORE.INTRA.SOLV.lig_0>
-73.062

>  <SCORE.INTRA.VDW>
-0.149978

>  <SCORE.INTRA.VDW.0>
-1.83782

>  <SCORE.INTRA.norm>
0.135727

>  <SCORE.RESTR>
0

>  <SCORE.RESTR.CAVITY>
0

>  <SCORE.RESTR.norm>
0

>  <SCORE.SYSTEM>
0

>  <SCORE.SYSTEM.CONST>
0

>  <SCORE.SYSTEM.DIHEDRAL>
0

>  <SCORE.SYSTEM.SOLV>
0

>  <SCORE.SYSTEM.norm>
0

>  <SCORE.heavy>
22

>  <SCORE.norm>
-0.338239

>  <RMSD>
14.338

$$$$
ligand
 OpenBabel02271912143D
libRbt.so/2013.1/901 2013/11/27
 22 23  0  0  0  0  0  0  0  0999 V2000
  -37.8336    4.1122  -21.6822 N   0  0  0  0  0  0  0  0  0  0  0  0
  -34.4902    3.7520  -22.0618 C   0  0  1  0  0  0  0  0  0  0  0  0
  -35.7943    3.7842  -22.7085 O   0  0  0  0  0  0  0  0  0  0  0  0
  -35.5467    1.1111  -19.5782 P   0  0  1  0  0  0  0  0  0  0  0  0
  -36.6262    4.7064  -21.9862 C   0  0  2  0  0  0  0  0  0  0  0  0
  -39.2962    2.6241  -21.0844 N   0  0  0  0  0  0  0  0  0  0  0  0
  -36.3088    6.1730  -20.1303 O   0  0  0  0  0  0  0  0  0  0  0  0
  -35.9267    4.9149  -20.6986 C   0  0  2  0  0  0  0  0  0  0  0  0
  -41.8423    4.9788  -20.2339 N   0  0  0  0  0  0  0  0  0  0  0  0
  -34.1056    6.0403  -21.7301 O   0  0  0  0  0  0  0  0  0  0  0  0
  -34.5159    4.8379  -21.0577 C   0  0  2  0  0  0  0  0  0  0  0  0
  -39.9378    3.7855  -21.2842 C   0  0  0  0  0  0  0  0  0  0  0  0
  -39.2837    6.0887  -21.9408 N   0  0  0  0  0  0  0  0  0  0  0  0
  -35.4947    2.2668  -20.6367 O   0  0  0  0  0  0  0  0  0  0  0  0
  -34.3538    2.4154  -21.4176 C   0  0  0  0  0  0  0  0  0  0  0  0
  -34.4660    1.5430  -18.5218 O   0  0  0  0  0  0  0  0  0  0  0  0
  -37.9895    2.8285  -21.3384 C   0  0  0  0  0  0  0  0  0  0  0  0
  -42.1959    3.3326  -21.7671 O   0  0  0  0  0  0  0  0  0  0  0  0
  -41.3875    4.0062  -21.1285 C   0  0  0  0  0  0  0  0  0  0  0  0
  -39.0230    4.7282  -21.6580 C   0  0  0  0  0  0  0  0  0  0  0  0
  -36.9314    0.9898  -19.0344 O   0  5  0  0  0  0  0  0  0  0  0  0
  -35.3689   -0.2002  -20.2274 O   0  0  0  0  0  0  0  0  0  0  0  0
  1 17  1  0  0  0  0
  1 20  1  0  0  0  0
  2 15  1  1  0  0  0
  2  3  1  0  0  0  0
  2 11  1  0  0  0  0
  3  5  1  0  0  0  0
  4 16  1  1  0  0  0
  4 21  1  0  0  0  0
  4 22  2  0  0  0  0
  4 14  1  0  0  0  0
  5  1  1  1  0  0  0
  5  8  1  0  0  0  0
  6 17  2  0  0  0  0
  6 12  1  0  0  0  0
  8  7  1  6  0  0  0
  8 11  1  0  0  0  0
  9 19  1  0  0  0  0
 11 10  1  6  0  0  0
 12 20  2  0  0  0  0
 12 19  1  0  0  0  0
 13 20  1  0  0  0  0
 14 15  1  0  0  0  0
 18 19  2  0  0  0  0
M  CHG  1  21  -1
M  END
>  <CHROM.1>
37.21155372,-52.55451317,67.42121731,-167.05788637,122.08664168,-37.05007815
3.40874779,-20.88917109,-2.76438333,0.02011215,2.74967647

>  <Name>
ligand

>  <RI>
0

>  <Rbt.Current_Directory>
/home/itssahil/PROJECTS/Mol_Feturizer/Test_systems_manuscript/rnas/4xwf

>  <Rbt.Executable>
rbdock ($Id: //depot/dev/client3/rdock/2013.1/src/exe/rbdock.cxx#4 $)

>  <Rbt.Library>
libRbt.so (2013.1, Build901 2013/11/27)

>  <Rbt.Parameter_File>
/export/apps/rDock/src/rDock_2013.1_src/data/scripts/dock_solv.prm

>  <Rbt.Receptor>
prm/blind_docking_80.prm

>  <SCORE>
-8.73175

>  <SCORE.INTER>
-9.05679

>  <SCORE.INTER.CONST>
1

>  <SCORE.INTER.POLAR>
0

>  <SCORE.INTER.ROT>
5

>  <SCORE.INTER.SOLV>
14.2084

>  <SCORE.INTER.VDW>
-17.7073

>  <SCORE.INTER.norm>
-0.411672

>  <SCORE.INTRA>
0.325038

>  <SCORE.INTRA.DIHEDRAL>
-0.948116

>  <SCORE.INTRA.DIHEDRAL.0>
3.49807

>  <SCORE.INTRA.POLAR>
0

>  <SCORE.INTRA.POLAR.0>
0

>  <SCORE.INTRA.REPUL>
0

>  <SCORE.INTRA.REPUL.0>
0

>  <SCORE.INTRA.SOLV>
1.50036

>  <SCORE.INTRA.SOLV.lig_0>
-73.062

>  <SCORE.INTRA.VDW>
0.0489166

>  <SCORE.INTRA.VDW.0>
-1.83782

>  <SCORE.INTRA.norm>
0.0147744

>  <SCORE.RESTR>
0

>  <SCORE.RESTR.CAVITY>
0

>  <SCORE.RESTR.norm>
0

>  <SCORE.SYSTEM>
0

>  <SCORE.SYSTEM.CONST>
0

>  <SCORE.SYSTEM.DIHEDRAL>
0

>  <SCORE.SYSTEM.SOLV>
0

>  <SCORE.SYSTEM.norm>
0

>  <SCORE.heavy>
22

>  <SCORE.norm>
-0.396898

>  <RMSD>
14.369

$$$$
ligand
 OpenBabel02271912143D
libRbt.so/2013.1/901 2013/11/27
 22 23  0  0  0  0  0  0  0  0999 V2000
  -35.4751    5.3191  -21.4819 N   0  0  0  0  0  0  0  0  0  0  0  0
  -37.6470    2.7529  -21.0948 C   0  0  1  0  0  0  0  0  0  0  0  0
  -37.0053    3.9095  -20.4862 O   0  0  0  0  0  0  0  0  0  0  0  0
  -35.2863    0.4043  -19.3196 P   0  0  1  0  0  0  0  0  0  0  0  0
  -36.7853    4.8885  -21.5146 C   0  0  2  0  0  0  0  0  0  0  0  0
  -33.3058    5.3002  -21.5518 N   0  0  0  0  0  0  0  0  0  0  0  0
  -37.3057    5.0452  -23.8385 O   0  0  0  0  0  0  0  0  0  0  0  0
  -36.9494    4.1443  -22.7835 C   0  0  2  0  0  0  0  0  0  0  0  0
  -32.9149    8.7608  -22.2547 N   0  0  0  0  0  0  0  0  0  0  0  0
  -39.2724    3.7975  -22.4219 O   0  0  0  0  0  0  0  0  0  0  0  0
  -37.9833    3.1638  -22.4755 C   0  0  2  0  0  0  0  0  0  0  0  0
  -33.7091    6.5711  -21.4010 C   0  0  0  0  0  0  0  0  0  0  0  0
  -35.8955    7.7351  -21.2330 N   0  0  0  0  0  0  0  0  0  0  0  0
  -36.4987    1.3045  -19.7420 O   0  0  0  0  0  0  0  0  0  0  0  0
  -36.6527    1.6433  -21.0819 C   0  0  0  0  0  0  0  0  0  0  0  0
  -34.1415    1.4471  -19.0507 O   0  0  0  0  0  0  0  0  0  0  0  0
  -34.4052    4.5236  -21.5956 C   0  0  0  0  0  0  0  0  0  0  0  0
  -32.0063    7.8362  -20.3825 O   0  0  0  0  0  0  0  0  0  0  0  0
  -32.8265    7.7479  -21.2960 C   0  0  0  0  0  0  0  0  0  0  0  0
  -35.0741    6.5915  -21.3592 C   0  0  0  0  0  0  0  0  0  0  0  0
  -35.6630   -0.4220  -18.1350 O   0  5  0  0  0  0  0  0  0  0  0  0
  -35.0283   -0.6340  -20.3335 O   0  0  0  0  0  0  0  0  0  0  0  0
  1 17  1  0  0  0  0
  1 20  1  0  0  0  0
  2 15  1  6  0  0  0
  2  3  1  0  0  0  0
  2 11  1  0  0  0  0
  3  5  1  0  0  0  0
  4 16  1  1  0  0  0
  4 21  1  0  0  0  0
  4 22  2  0  0  0  0
  4 14  1  0  0  0  0
  5  1  1  1  0  0  0
  5  8  1  0  0  0  0
  6 17  2  0  0  0  0
  6 12  1  0  0  0  0
  8  7  1  6  0  0  0
  8 11  1  0  0  0  0
  9 19  1  0  0  0  0
 11 10  1  1  0  0  0
 12 20  2  0  0  0  0
 12 19  1  0  0  0  0
 13 20  1  0  0  0  0
 14 15  1  0  0  0  0
 18 19  2  0  0  0  0
M  CHG  1  21  -1
M  END
>  <CHROM.1>
57.27952092,68.66365394,88.18997954,-165.85277511,118.87276169,-35.55631535
3.86463177,-20.99047251,1.26231640,-0.45740687,-0.41523209

>  <Name>
ligand

>  <RI>
0

>  <Rbt.Current_Directory>
/home/itssahil/PROJECTS/Mol_Feturizer/Test_systems_manuscript/rnas/4xwf

>  <Rbt.Executable>
rbdock ($Id: //depot/dev/client3/rdock/2013.1/src/exe/rbdock.cxx#4 $)

>  <Rbt.Library>
libRbt.so (2013.1, Build901 2013/11/27)

>  <Rbt.Parameter_File>
/export/apps/rDock/src/rDock_2013.1_src/data/scripts/dock_solv.prm

>  <Rbt.Receptor>
prm/blind_docking_80.prm

>  <SCORE>
-8.57698

>  <SCORE.INTER>
-8.21162

>  <SCORE.INTER.CONST>
1

>  <SCORE.INTER.POLAR>
0

>  <SCORE.INTER.ROT>
5

>  <SCORE.INTER.SOLV>
14.2776

>  <SCORE.INTER.VDW>
-17.1669

>  <SCORE.INTER.norm>
-0.373255

>  <SCORE.INTRA>
-0.365359

>  <SCORE.INTRA.DIHEDRAL>
0.223315

>  <SCORE.INTRA.DIHEDRAL.0>
3.49807

>  <SCORE.INTRA.POLAR>
0

>  <SCORE.INTRA.POLAR.0>
0

>  <SCORE.INTRA.REPUL>
0

>  <SCORE.INTRA.REPUL.0>
0

>  <SCORE.INTRA.SOLV>
-0.578875

>  <SCORE.INTRA.SOLV.lig_0>
-73.062

>  <SCORE.INTRA.VDW>
-0.187579

>  <SCORE.INTRA.VDW.0>
-1.83782

>  <SCORE.INTRA.norm>
-0.0166072

>  <SCORE.RESTR>
0

>  <SCORE.RESTR.CAVITY>
0

>  <SCORE.RESTR.norm>
0

>  <SCORE.SYSTEM>
0

>  <SCORE.SYSTEM.CONST>
0

>  <SCORE.SYSTEM.DIHEDRAL>
0

>  <SCORE.SYSTEM.SOLV>
0

>  <SCORE.SYSTEM.norm>
0

>  <SCORE.heavy>
22

>  <SCORE.norm>
-0.389863

>  <RMSD>
14.375

$$$$
ligand
 OpenBabel02271912143D
libRbt.so/2013.1/901 2013/11/27
 22 23  0  0  0  0  0  0  0  0999 V2000
  -36.0674   -5.0129  -18.6755 N   0  0  0  0  0  0  0  0  0  0  0  0
  -37.1582   -1.8364  -18.2606 C   0  0  1  0  0  0  0  0  0  0  0  0
  -37.4516   -3.1702  -18.7653 O   0  0  0  0  0  0  0  0  0  0  0  0
  -35.0591    1.0533  -19.5256 P   0  0  1  0  0  0  0  0  0  0  0  0
  -36.7950   -4.1227  -17.9132 C   0  0  2  0  0  0  0  0  0  0  0  0
  -34.5285   -5.8250  -19.9731 N   0  0  0  0  0  0  0  0  0  0  0  0
  -35.4914   -3.9895  -15.9186 O   0  0  0  0  0  0  0  0  0  0  0  0
  -35.8106   -3.3259  -17.1471 C   0  0  2  0  0  0  0  0  0  0  0  0
  -36.0454   -8.7309  -21.0396 N   0  0  0  0  0  0  0  0  0  0  0  0
  -37.5016   -2.1488  -15.9630 O   0  0  0  0  0  0  0  0  0  0  0  0
  -36.4758   -2.0417  -16.9643 C   0  0  2  0  0  0  0  0  0  0  0  0
  -35.3437   -6.8277  -19.6115 C   0  0  0  0  0  0  0  0  0  0  0  0
  -37.3554   -7.0539  -18.1743 N   0  0  0  0  0  0  0  0  0  0  0  0
  -35.9613    0.0642  -18.7093 O   0  0  0  0  0  0  0  0  0  0  0  0
  -36.2606   -1.1804  -19.2526 C   0  0  0  0  0  0  0  0  0  0  0  0
  -34.5700    2.0753  -18.4361 O   0  0  0  0  0  0  0  0  0  0  0  0
  -34.9842   -4.6973  -19.3949 C   0  0  0  0  0  0  0  0  0  0  0  0
  -34.3957   -8.9779  -19.4895 O   0  0  0  0  0  0  0  0  0  0  0  0
  -35.2151   -8.2357  -20.0305 C   0  0  0  0  0  0  0  0  0  0  0  0
  -36.3135   -6.3247  -18.7918 C   0  0  0  0  0  0  0  0  0  0  0  0
  -33.9646    0.2949  -20.1999 O   0  5  0  0  0  0  0  0  0  0  0  0
  -35.7945    1.5992  -20.6805 O   0  0  0  0  0  0  0  0  0  0  0  0
  1 17  1  0  0  0  0
  1 20  1  0  0  0  0
  2 15  1  6  0  0  0
  2  3  1  0  0  0  0
  2 11  1  0  0  0  0
  3  5  1  0  0  0  0
  4 16  1  1  0  0  0
  4 21  1  0  0  0  0
  4 22  2  0  0  0  0
  4 14  1  0  0  0  0
  5  1  1  6  0  0  0
  5  8  1  0  0  0  0
  6 17  2  0  0  0  0
  6 12  1  0  0  0  0
  8  7  1  1  0  0  0
  8 11  1  0  0  0  0
  9 19  1  0  0  0  0
 11 10  1  1  0  0  0
 12 20  2  0  0  0  0
 12 19  1  0  0  0  0
 13 20  1  0  0  0  0
 14 15  1  0  0  0  0
 18 19  2  0  0  0  0
M  CHG  1  21  -1
M  END
>  <CHROM.1>
67.07550764,-177.63225389,-161.82811039,-178.07146250,-101.74941168,-35.79330919
-3.17684705,-18.79361814,1.63128382,-1.05439287,-3.05878355

>  <Name>
ligand

>  <RI>
0

>  <Rbt.Current_Directory>
/home/itssahil/PROJECTS/Mol_Feturizer/Test_systems_manuscript/rnas/4xwf

>  <Rbt.Executable>
rbdock ($Id: //depot/dev/client3/rdock/2013.1/src/exe/rbdock.cxx#4 $)

>  <Rbt.Library>
libRbt.so (2013.1, Build901 2013/11/27)

>  <Rbt.Parameter_File>
/export/apps/rDock/src/rDock_2013.1_src/data/scripts/dock_solv.prm

>  <Rbt.Receptor>
prm/blind_docking_60.prm

>  <SCORE>
-8.9931

>  <SCORE.INTER>
-8.86998

>  <SCORE.INTER.CONST>
1

>  <SCORE.INTER.POLAR>
0

>  <SCORE.INTER.ROT>
5

>  <SCORE.INTER.SOLV>
20.3168

>  <SCORE.INTER.VDW>
-19.6189

>  <SCORE.INTER.norm>
-0.403181

>  <SCORE.INTRA>
-0.123118

>  <SCORE.INTRA.DIHEDRAL>
-1.1227

>  <SCORE.INTRA.DIHEDRAL.0>
3.49807

>  <SCORE.INTRA.POLAR>
0

>  <SCORE.INTRA.POLAR.0>
0

>  <SCORE.INTRA.REPUL>
0

>  <SCORE.INTRA.REPUL.0>
0

>  <SCORE.INTRA.SOLV>
-0.36867

>  <SCORE.INTRA.SOLV.lig_0>
-73.062

>  <SCORE.INTRA.VDW>
0.622568

>  <SCORE.INTRA.VDW.0>
-1.83782

>  <SCORE.INTRA.norm>
-0.00559628

>  <SCORE.RESTR>
0

>  <SCORE.RESTR.CAVITY>
0

>  <SCORE.RESTR.norm>
0

>  <SCORE.SYSTEM>
0

>  <SCORE.SYSTEM.CONST>
0

>  <SCORE.SYSTEM.DIHEDRAL>
0

>  <SCORE.SYSTEM.SOLV>
0

>  <SCORE.SYSTEM.norm>
0

>  <SCORE.heavy>
22

>  <SCORE.norm>
-0.408777

>  <RMSD>
14.383

$$$$
ligand
 OpenBabel02271912143D
libRbt.so/2013.1/901 2013/11/27
 22 23  0  0  0  0  0  0  0  0999 V2000
  -36.0570   -4.9733  -18.6192 N   0  0  0  0  0  0  0  0  0  0  0  0
  -37.0943   -1.7617  -18.3698 C   0  0  1  0  0  0  0  0  0  0  0  0
  -37.4285   -3.1243  -18.7592 O   0  0  0  0  0  0  0  0  0  0  0  0
  -35.2188    1.0645  -20.0571 P   0  0  1  0  0  0  0  0  0  0  0  0
  -36.7302   -4.0219  -17.8812 C   0  0  2  0  0  0  0  0  0  0  0  0
  -34.5729   -5.9072  -19.8985 N   0  0  0  0  0  0  0  0  0  0  0  0
  -35.3085   -3.7637  -15.9817 O   0  0  0  0  0  0  0  0  0  0  0  0
  -35.6951   -3.1852  -17.2337 C   0  0  2  0  0  0  0  0  0  0  0  0
  -35.9902   -8.6946  -21.0699 N   0  0  0  0  0  0  0  0  0  0  0  0
  -37.3023   -1.9054  -16.0394 O   0  0  0  0  0  0  0  0  0  0  0  0
  -36.3373   -1.8829  -17.1046 C   0  0  2  0  0  0  0  0  0  0  0  0
  -35.4392   -6.8524  -19.5025 C   0  0  0  0  0  0  0  0  0  0  0  0
  -37.4511   -6.9247  -18.0497 N   0  0  0  0  0  0  0  0  0  0  0  0
  -36.0202    0.1303  -19.0858 O   0  0  0  0  0  0  0  0  0  0  0  0
  -36.2521   -1.1895  -19.4575 C   0  0  0  0  0  0  0  0  0  0  0  0
  -36.1970    1.2402  -21.2748 O   0  0  0  0  0  0  0  0  0  0  0  0
  -34.9628   -4.7393  -19.3530 C   0  0  0  0  0  0  0  0  0  0  0  0
  -34.8399   -9.1000  -19.1469 O   0  0  0  0  0  0  0  0  0  0  0  0
  -35.3901   -8.2774  -19.8788 C   0  0  0  0  0  0  0  0  0  0  0  0
  -36.3749   -6.2726  -18.6942 C   0  0  0  0  0  0  0  0  0  0  0  0
  -34.8669    2.3345  -19.3562 O   0  5  0  0  0  0  0  0  0  0  0  0
  -33.8850    0.5040  -20.3390 O   0  0  0  0  0  0  0  0  0  0  0  0
  1 17  1  0  0  0  0
  1 20  1  0  0  0  0
  2 15  1  6  0  0  0
  2  3  1  0  0  0  0
  2 11  1  0  0  0  0
  3  5  1  0  0  0  0
  4 16  1  6  0  0  0
  4 21  1  0  0  0  0
  4 22  2  0  0  0  0
  4 14  1  0  0  0  0
  5  1  1  6  0  0  0
  5  8  1  0  0  0  0
  6 17  2  0  0  0  0
  6 12  1  0  0  0  0
  8  7  1  1  0  0  0
  8 11  1  0  0  0  0
  9 19  1  0  0  0  0
 11 10  1  1  0  0  0
 12 20  2  0  0  0  0
 12 19  1  0  0  0  0
 13 20  1  0  0  0  0
 14 15  1  0  0  0  0
 18 19  2  0  0  0  0
M  CHG  1  21  -1
M  END
>  <CHROM.1>
71.70947241,176.66602905,68.24013453,-176.70060798,-85.84994309,-35.84222702
-3.12658622,-18.92871131,1.64511497,-1.16741807,-3.12012657

>  <Name>
ligand

>  <RI>
0

>  <Rbt.Current_Directory>
/home/itssahil/PROJECTS/Mol_Feturizer/Test_systems_manuscript/rnas/4xwf

>  <Rbt.Executable>
rbdock ($Id: //depot/dev/client3/rdock/2013.1/src/exe/rbdock.cxx#4 $)

>  <Rbt.Library>
libRbt.so (2013.1, Build901 2013/11/27)

>  <Rbt.Parameter_File>
/export/apps/rDock/src/rDock_2013.1_src/data/scripts/dock_solv.prm

>  <Rbt.Receptor>
prm/blind_docking_60.prm

>  <SCORE>
-8.16157

>  <SCORE.INTER>
-7.79492

>  <SCORE.INTER.CONST>
1

>  <SCORE.INTER.POLAR>
0

>  <SCORE.INTER.ROT>
5

>  <SCORE.INTER.SOLV>
21.471

>  <SCORE.INTER.VDW>
-19.287

>  <SCORE.INTER.norm>
-0.354314

>  <SCORE.INTRA>
-0.366651

>  <SCORE.INTRA.DIHEDRAL>
-0.764936

>  <SCORE.INTRA.DIHEDRAL.0>
3.49807

>  <SCORE.INTRA.POLAR>
0

>  <SCORE.INTRA.POLAR.0>
0

>  <SCORE.INTRA.REPUL>
0

>  <SCORE.INTRA.REPUL.0>
0

>  <SCORE.INTRA.SOLV>
-1.15393

>  <SCORE.INTRA.SOLV.lig_0>
-73.062

>  <SCORE.INTRA.VDW>
0.59278

>  <SCORE.INTRA.VDW.0>
-1.83782

>  <SCORE.INTRA.norm>
-0.016666

>  <SCORE.RESTR>
0

>  <SCORE.RESTR.CAVITY>
0

>  <SCORE.RESTR.norm>
0

>  <SCORE.SYSTEM>
0

>  <SCORE.SYSTEM.CONST>
0

>  <SCORE.SYSTEM.DIHEDRAL>
0

>  <SCORE.SYSTEM.SOLV>
0

>  <SCORE.SYSTEM.norm>
0

>  <SCORE.heavy>
22

>  <SCORE.norm>
-0.37098

>  <RMSD>
14.437

$$$$
ligand
 OpenBabel02271912143D
libRbt.so/2013.1/901 2013/11/27
 22 23  0  0  0  0  0  0  0  0999 V2000
  -38.0429    2.6620  -21.1457 N   0  0  0  0  0  0  0  0  0  0  0  0
  -35.0553    1.0932  -20.8900 C   0  0  1  0  0  0  0  0  0  0  0  0
  -36.3820    1.0990  -21.4897 O   0  0  0  0  0  0  0  0  0  0  0  0
  -36.2076   -1.4419  -18.3216 P   0  0  1  0  0  0  0  0  0  0  0  0
  -36.7822    2.4670  -21.6709 C   0  0  2  0  0  0  0  0  0  0  0  0
  -39.7686    2.5066  -19.8384 N   0  0  0  0  0  0  0  0  0  0  0  0
  -35.7554    4.5909  -21.3094 O   0  0  0  0  0  0  0  0  0  0  0  0
  -35.8513    3.2465  -20.8245 C   0  0  2  0  0  0  0  0  0  0  0  0
  -41.3074    5.5455  -20.6874 N   0  0  0  0  0  0  0  0  0  0  0  0
  -33.9774    2.7205  -22.1880 O   0  0  0  0  0  0  0  0  0  0  0  0
  -34.6015    2.5010  -20.9118 C   0  0  2  0  0  0  0  0  0  0  0  0
  -40.0431    3.4134  -20.7886 C   0  0  0  0  0  0  0  0  0  0  0  0
  -38.8309    4.3805  -22.7273 N   0  0  0  0  0  0  0  0  0  0  0  0
  -35.8178   -0.6535  -19.6196 O   0  0  0  0  0  0  0  0  0  0  0  0
  -35.2070    0.5897  -19.4959 C   0  0  0  0  0  0  0  0  0  0  0  0
  -34.8167   -1.7507  -17.6577 O   0  0  0  0  0  0  0  0  0  0  0  0
  -38.5272    2.0368  -20.0663 C   0  0  0  0  0  0  0  0  0  0  0  0
  -42.3496    3.5918  -21.2191 O   0  0  0  0  0  0  0  0  0  0  0  0
  -41.3034    4.1676  -20.9207 C   0  0  0  0  0  0  0  0  0  0  0  0
  -38.9600    3.5191  -21.6138 C   0  0  0  0  0  0  0  0  0  0  0  0
  -37.1230   -0.6111  -17.4850 O   0  5  0  0  0  0  0  0  0  0  0  0
  -37.0693   -2.5923  -18.6481 O   0  0  0  0  0  0  0  0  0  0  0  0
  1 17  1  0  0  0  0
  1 20  1  0  0  0  0
  2 15  1  1  0  0  0
  2  3  1  0  0  0  0
  2 11  1  0  0  0  0
  3  5  1  0  0  0  0
  4 16  1  1  0  0  0
  4 21  1  0  0  0  0
  4 22  2  0  0  0  0
  4 14  1  0  0  0  0
  5  1  1  1  0  0  0
  5  8  1  0  0  0  0
  6 17  2  0  0  0  0
  6 12  1  0  0  0  0
  8  7  1  6  0  0  0
  8 11  1  0  0  0  0
  9 19  1  0  0  0  0
 11 10  1  6  0  0  0
 12 20  2  0  0  0  0
 12 19  1  0  0  0  0
 13 20  1  0  0  0  0
 14 15  1  0  0  0  0
 18 19  2  0  0  0  0
M  CHG  1  21  -1
M  END
>  <CHROM.1>
33.79548319,56.36269510,-64.88253180,-176.48215243,111.71424886,-37.31025401
1.69017039,-20.28277983,-2.23636980,-0.18379524,2.54223476

>  <Name>
ligand

>  <RI>
0

>  <Rbt.Current_Directory>
/home/itssahil/PROJECTS/Mol_Feturizer/Test_systems_manuscript/rnas/4xwf

>  <Rbt.Executable>
rbdock ($Id: //depot/dev/client3/rdock/2013.1/src/exe/rbdock.cxx#4 $)

>  <Rbt.Library>
libRbt.so (2013.1, Build901 2013/11/27)

>  <Rbt.Parameter_File>
/export/apps/rDock/src/rDock_2013.1_src/data/scripts/dock_solv.prm

>  <Rbt.Receptor>
prm/blind_docking_80.prm

>  <SCORE>
-10.903

>  <SCORE.INTER>
-9.55355

>  <SCORE.INTER.CONST>
1

>  <SCORE.INTER.POLAR>
0

>  <SCORE.INTER.ROT>
5

>  <SCORE.INTER.SOLV>
16.4753

>  <SCORE.INTER.VDW>
-18.7941

>  <SCORE.INTER.norm>
-0.434252

>  <SCORE.INTRA>
-1.34947

>  <SCORE.INTRA.DIHEDRAL>
-1.78862

>  <SCORE.INTRA.DIHEDRAL.0>
3.49807

>  <SCORE.INTRA.POLAR>
0

>  <SCORE.INTRA.POLAR.0>
0

>  <SCORE.INTRA.REPUL>
0

>  <SCORE.INTRA.REPUL.0>
0

>  <SCORE.INTRA.SOLV>
0.0277695

>  <SCORE.INTRA.SOLV.lig_0>
-73.062

>  <SCORE.INTRA.VDW>
-0.469052

>  <SCORE.INTRA.VDW.0>
-1.83782

>  <SCORE.INTRA.norm>
-0.0613397

>  <SCORE.RESTR>
0

>  <SCORE.RESTR.CAVITY>
0

>  <SCORE.RESTR.norm>
0

>  <SCORE.SYSTEM>
0

>  <SCORE.SYSTEM.CONST>
0

>  <SCORE.SYSTEM.DIHEDRAL>
0

>  <SCORE.SYSTEM.SOLV>
0

>  <SCORE.SYSTEM.norm>
0

>  <SCORE.heavy>
22

>  <SCORE.norm>
-0.495592

>  <RMSD>
14.444

$$$$
ligand
 OpenBabel02271912143D
libRbt.so/2013.1/901 2013/11/27
 22 23  0  0  0  0  0  0  0  0999 V2000
  -38.0413    2.6531  -21.1331 N   0  0  0  0  0  0  0  0  0  0  0  0
  -35.0395    1.1062  -20.9117 C   0  0  1  0  0  0  0  0  0  0  0  0
  -36.3711    1.1054  -21.5006 O   0  0  0  0  0  0  0  0  0  0  0  0
  -36.0795   -1.4890  -18.3543 P   0  0  1  0  0  0  0  0  0  0  0  0
  -36.7834    2.4713  -21.6698 C   0  0  2  0  0  0  0  0  0  0  0  0
  -39.7405    2.5093  -19.7904 N   0  0  0  0  0  0  0  0  0  0  0  0
  -35.7703    4.6008  -21.3030 O   0  0  0  0  0  0  0  0  0  0  0  0
  -35.8517    3.2526  -20.8259 C   0  0  2  0  0  0  0  0  0  0  0  0
  -42.1825    3.7520  -21.9987 N   0  0  0  0  0  0  0  0  0  0  0  0
  -33.9849    2.7500  -22.2079 O   0  0  0  0  0  0  0  0  0  0  0  0
  -34.5970    2.5176  -20.9282 C   0  0  2  0  0  0  0  0  0  0  0  0
  -40.0584    3.3592  -20.7789 C   0  0  0  0  0  0  0  0  0  0  0  0
  -38.9079    4.2662  -22.7832 N   0  0  0  0  0  0  0  0  0  0  0  0
  -35.7482   -0.6682  -19.6486 O   0  0  0  0  0  0  0  0  0  0  0  0
  -35.1760    0.5926  -19.5197 C   0  0  0  0  0  0  0  0  0  0  0  0
  -34.6598   -1.8603  -17.7914 O   0  0  0  0  0  0  0  0  0  0  0  0
  -38.4886    2.0673  -20.0163 C   0  0  0  0  0  0  0  0  0  0  0  0
  -41.6744    4.9388  -20.1228 O   0  0  0  0  0  0  0  0  0  0  0  0
  -41.3438    4.0667  -20.9261 C   0  0  0  0  0  0  0  0  0  0  0  0
  -38.9922    3.4573  -21.6268 C   0  0  0  0  0  0  0  0  0  0  0  0
  -36.9140   -0.6611  -17.4344 O   0  5  0  0  0  0  0  0  0  0  0  0
  -36.9954   -2.6022  -18.6618 O   0  0  0  0  0  0  0  0  0  0  0  0
  1 17  1  0  0  0  0
  1 20  1  0  0  0  0
  2 15  1  1  0  0  0
  2  3  1  0  0  0  0
  2 11  1  0  0  0  0
  3  5  1  0  0  0  0
  4 16  1  1  0  0  0
  4 21  1  0  0  0  0
  4 22  2  0  0  0  0
  4 14  1  0  0  0  0
  5  1  1  1  0  0  0
  5  8  1  0  0  0  0
  6 17  2  0  0  0  0
  6 12  1  0  0  0  0
  8  7  1  6  0  0  0
  8 11  1  0  0  0  0
  9 19  1  0  0  0  0
 11 10  1  6  0  0  0
 12 20  2  0  0  0  0
 12 19  1  0  0  0  0
 13 20  1  0  0  0  0
 14 15  1  0  0  0  0
 18 19  2  0  0  0  0
M  CHG  1  21  -1
M  END
>  <CHROM.1>
37.28287799,57.76787436,-69.26301868,-178.05674807,-113.14823768,-37.28017592
1.65795627,-20.29650612,-2.26133438,-0.18666612,2.52855824

>  <Name>
ligand

>  <RI>
0

>  <Rbt.Current_Directory>
/home/itssahil/PROJECTS/Mol_Feturizer/Test_systems_manuscript/rnas/4xwf

>  <Rbt.Executable>
rbdock ($Id: //depot/dev/client3/rdock/2013.1/src/exe/rbdock.cxx#4 $)

>  <Rbt.Library>
libRbt.so (2013.1, Build901 2013/11/27)

>  <Rbt.Parameter_File>
/export/apps/rDock/src/rDock_2013.1_src/data/scripts/dock_solv.prm

>  <Rbt.Receptor>
prm/blind_docking_100.prm

>  <SCORE>
-11.1444

>  <SCORE.INTER>
-9.75761

>  <SCORE.INTER.CONST>
1

>  <SCORE.INTER.POLAR>
0

>  <SCORE.INTER.ROT>
5

>  <SCORE.INTER.SOLV>
17.3716

>  <SCORE.INTER.VDW>
-19.2289

>  <SCORE.INTER.norm>
-0.443528

>  <SCORE.INTRA>
-1.38681

>  <SCORE.INTRA.DIHEDRAL>
-1.75032

>  <SCORE.INTRA.DIHEDRAL.0>
3.49807

>  <SCORE.INTRA.POLAR>
0

>  <SCORE.INTRA.POLAR.0>
0

>  <SCORE.INTRA.REPUL>
0

>  <SCORE.INTRA.REPUL.0>
0

>  <SCORE.INTRA.SOLV>
-0.0963047

>  <SCORE.INTRA.SOLV.lig_0>
-73.062

>  <SCORE.INTRA.VDW>
-0.463498

>  <SCORE.INTRA.VDW.0>
-1.83782

>  <SCORE.INTRA.norm>
-0.0630368

>  <SCORE.RESTR>
0

>  <SCORE.RESTR.CAVITY>
0

>  <SCORE.RESTR.norm>
0

>  <SCORE.SYSTEM>
0

>  <SCORE.SYSTEM.CONST>
0

>  <SCORE.SYSTEM.DIHEDRAL>
0

>  <SCORE.SYSTEM.SOLV>
0

>  <SCORE.SYSTEM.norm>
0

>  <SCORE.heavy>
22

>  <SCORE.norm>
-0.506564

>  <RMSD>
14.454

$$$$
ligand
 OpenBabel02271912143D
libRbt.so/2013.1/901 2013/11/27
 22 23  0  0  0  0  0  0  0  0999 V2000
  -35.9056    5.2773  -21.2015 N   0  0  0  0  0  0  0  0  0  0  0  0
  -38.4512    3.0719  -20.8716 C   0  0  1  0  0  0  0  0  0  0  0  0
  -37.7749    4.2430  -20.3322 O   0  0  0  0  0  0  0  0  0  0  0  0
  -36.9949    0.6535  -18.3445 P   0  0  1  0  0  0  0  0  0  0  0  0
  -37.2352    4.9917  -21.4334 C   0  0  2  0  0  0  0  0  0  0  0  0
  -33.7887    5.0128  -20.8018 N   0  0  0  0  0  0  0  0  0  0  0  0
  -37.2953    4.7833  -23.8101 O   0  0  0  0  0  0  0  0  0  0  0  0
  -37.2681    4.0536  -22.5778 C   0  0  2  0  0  0  0  0  0  0  0  0
  -31.8629    7.2049  -20.1313 N   0  0  0  0  0  0  0  0  0  0  0  0
  -39.6434    4.0301  -22.6479 O   0  0  0  0  0  0  0  0  0  0  0  0
  -38.4685    3.2618  -22.3386 C   0  0  2  0  0  0  0  0  0  0  0  0
  -34.0214    6.3226  -20.9777 C   0  0  0  0  0  0  0  0  0  0  0  0
  -36.0047    7.7223  -21.4982 N   0  0  0  0  0  0  0  0  0  0  0  0
  -37.7720    1.7844  -19.1033 O   0  0  0  0  0  0  0  0  0  0  0  0
  -37.6424    1.8820  -20.4844 C   0  0  0  0  0  0  0  0  0  0  0  0
  -37.5496    0.7589  -16.8776 O   0  0  0  0  0  0  0  0  0  0  0  0
  -34.9624    4.3662  -20.9354 C   0  0  0  0  0  0  0  0  0  0  0  0
  -33.1780    8.4545  -21.5077 O   0  0  0  0  0  0  0  0  0  0  0  0
  -33.0108    7.3941  -20.9055 C   0  0  0  0  0  0  0  0  0  0  0  0
  -35.3518    6.4967  -21.2329 C   0  0  0  0  0  0  0  0  0  0  0  0
  -37.2441   -0.6598  -19.0086 O   0  5  0  0  0  0  0  0  0  0  0  0
  -35.5403    0.8055  -18.5280 O   0  0  0  0  0  0  0  0  0  0  0  0
  1 17  1  0  0  0  0
  1 20  1  0  0  0  0
  2 15  1  6  0  0  0
  2  3  1  0  0  0  0
  2 11  1  0  0  0  0
  3  5  1  0  0  0  0
  4 16  1  1  0  0  0
  4 21  1  0  0  0  0
  4 22  2  0  0  0  0
  4 14  1  0  0  0  0
  5  1  1  1  0  0  0
  5  8  1  0  0  0  0
  6 17  2  0  0  0  0
  6 12  1  0  0  0  0
  8  7  1  6  0  0  0
  8 11  1  0  0  0  0
  9 19  1  0  0  0  0
 11 10  1  1  0  0  0
 12 20  2  0  0  0  0
 12 19  1  0  0  0  0
 13 20  1  0  0  0  0
 14 15  1  0  0  0  0
 18 19  2  0  0  0  0
M  CHG  1  21  -1
M  END
>  <CHROM.1>
55.43933905,67.98033738,-172.60776442,-177.81543082,-26.18287249,-36.32921588
3.89641257,-20.54116778,1.02693994,-0.53274717,-0.68155845

>  <Name>
ligand

>  <RI>
0

>  <Rbt.Current_Directory>
/home/itssahil/PROJECTS/Mol_Feturizer/Test_systems_manuscript/rnas/4xwf

>  <Rbt.Executable>
rbdock ($Id: //depot/dev/client3/rdock/2013.1/src/exe/rbdock.cxx#4 $)

>  <Rbt.Library>
libRbt.so (2013.1, Build901 2013/11/27)

>  <Rbt.Parameter_File>
/export/apps/rDock/src/rDock_2013.1_src/data/scripts/dock_solv.prm

>  <Rbt.Receptor>
prm/blind_docking_80.prm

>  <SCORE>
-8.4769

>  <SCORE.INTER>
-7.77216

>  <SCORE.INTER.CONST>
1

>  <SCORE.INTER.POLAR>
0

>  <SCORE.INTER.ROT>
5

>  <SCORE.INTER.SOLV>
16.5859

>  <SCORE.INTER.VDW>
-17.6434

>  <SCORE.INTER.norm>
-0.35328

>  <SCORE.INTRA>
-0.704738

>  <SCORE.INTRA.DIHEDRAL>
-1.02822

>  <SCORE.INTRA.DIHEDRAL.0>
3.49807

>  <SCORE.INTRA.POLAR>
0

>  <SCORE.INTRA.POLAR.0>
0

>  <SCORE.INTRA.REPUL>
0

>  <SCORE.INTRA.REPUL.0>
0

>  <SCORE.INTRA.SOLV>
-0.219849

>  <SCORE.INTRA.SOLV.lig_0>
-73.062

>  <SCORE.INTRA.VDW>
-0.0807025

>  <SCORE.INTRA.VDW.0>
-1.83782

>  <SCORE.INTRA.norm>
-0.0320335

>  <SCORE.RESTR>
0

>  <SCORE.RESTR.CAVITY>
0

>  <SCORE.RESTR.norm>
0

>  <SCORE.SYSTEM>
0

>  <SCORE.SYSTEM.CONST>
0

>  <SCORE.SYSTEM.DIHEDRAL>
0

>  <SCORE.SYSTEM.SOLV>
0

>  <SCORE.SYSTEM.norm>
0

>  <SCORE.heavy>
22

>  <SCORE.norm>
-0.385314

>  <RMSD>
14.507

$$$$
ligand
 OpenBabel02271912143D
libRbt.so/2013.1/901 2013/11/27
 22 23  0  0  0  0  0  0  0  0999 V2000
  -34.1479   -8.8299  -13.6580 N   0  0  0  0  0  0  0  0  0  0  0  0
  -36.0316   -6.2935  -14.8708 C   0  0  1  0  0  0  0  0  0  0  0  0
  -35.7836   -7.7281  -14.8540 O   0  0  0  0  0  0  0  0  0  0  0  0
  -34.4972   -3.3874  -16.7528 P   0  0  1  0  0  0  0  0  0  0  0  0
  -35.3012   -8.0809  -13.5474 C   0  0  2  0  0  0  0  0  0  0  0  0
  -32.4679  -10.1010  -13.1357 N   0  0  0  0  0  0  0  0  0  0  0  0
  -34.9383   -6.9021  -11.5042 O   0  0  0  0  0  0  0  0  0  0  0  0
  -34.9066   -6.7938  -12.9322 C   0  0  2  0  0  0  0  0  0  0  0  0
  -30.6673   -9.5047  -16.1668 N   0  0  0  0  0  0  0  0  0  0  0  0
  -37.1494   -6.0152  -12.8293 O   0  0  0  0  0  0  0  0  0  0  0  0
  -35.8739   -5.8451  -13.4700 C   0  0  2  0  0  0  0  0  0  0  0  0
  -32.4269   -9.8747  -14.4577 C   0  0  0  0  0  0  0  0  0  0  0  0
  -33.8164   -8.6248  -16.0919 N   0  0  0  0  0  0  0  0  0  0  0  0
  -35.4237   -4.3710  -15.9573 O   0  0  0  0  0  0  0  0  0  0  0  0
  -35.0038   -5.6818  -15.7593 C   0  0  0  0  0  0  0  0  0  0  0  0
  -33.2561   -3.2165  -15.8036 O   0  0  0  0  0  0  0  0  0  0  0  0
  -33.5349   -9.4455  -12.6403 C   0  0  0  0  0  0  0  0  0  0  0  0
  -31.2241  -11.6091  -15.4981 O   0  0  0  0  0  0  0  0  0  0  0  0
  -31.4106  -10.3972  -15.3897 C   0  0  0  0  0  0  0  0  0  0  0  0
  -33.4835   -9.0775  -14.7946 C   0  0  0  0  0  0  0  0  0  0  0  0
  -34.1792   -3.9681  -18.0905 O   0  5  0  0  0  0  0  0  0  0  0  0
  -35.2322   -2.1662  -17.1285 O   0  0  0  0  0  0  0  0  0  0  0  0
  1 17  1  0  0  0  0
  1 20  1  0  0  0  0
  2 15  1  6  0  0  0
  2  3  1  0  0  0  0
  2 11  1  0  0  0  0
  3  5  1  0  0  0  0
  4 16  1  1  0  0  0
  4 21  1  0  0  0  0
  4 22  2  0  0  0  0
  4 14  1  0  0  0  0
  5  1  1  6  0  0  0
  5  8  1  0  0  0  0
  6 17  2  0  0  0  0
  6 12  1  0  0  0  0
  8  7  1  1  0  0  0
  8 11  1  0  0  0  0
  9 19  1  0  0  0  0
 11 10  1  1  0  0  0
 12 20  2  0  0  0  0
 12 19  1  0  0  0  0
 13 20  1  0  0  0  0
 14 15  1  0  0  0  0
 18 19  2  0  0  0  0
M  CHG  1  21  -1
M  END
>  <CHROM.1>
-171.84024965,168.77565261,-66.99493505,174.60356271,-122.96614609,-34.18723504
-6.85708187,-14.93389209,1.07334936,-0.76884535,2.48562088

>  <Name>
ligand

>  <RI>
0

>  <Rbt.Current_Directory>
/home/itssahil/PROJECTS/Mol_Feturizer/Test_systems_manuscript/rnas/4xwf

>  <Rbt.Executable>
rbdock ($Id: //depot/dev/client3/rdock/2013.1/src/exe/rbdock.cxx#4 $)

>  <Rbt.Library>
libRbt.so (2013.1, Build901 2013/11/27)

>  <Rbt.Parameter_File>
/export/apps/rDock/src/rDock_2013.1_src/data/scripts/dock_solv.prm

>  <Rbt.Receptor>
prm/blind_docking_40.prm

>  <SCORE>
0.259738

>  <SCORE.INTER>
-1.35096

>  <SCORE.INTER.CONST>
1

>  <SCORE.INTER.POLAR>
0

>  <SCORE.INTER.ROT>
5

>  <SCORE.INTER.SOLV>
11.8813

>  <SCORE.INTER.VDW>
-11.7944

>  <SCORE.INTER.norm>
-0.0614073

>  <SCORE.INTRA>
1.26552

>  <SCORE.INTRA.DIHEDRAL>
-1.28679

>  <SCORE.INTRA.DIHEDRAL.0>
3.49807

>  <SCORE.INTRA.POLAR>
0

>  <SCORE.INTRA.POLAR.0>
0

>  <SCORE.INTRA.REPUL>
0

>  <SCORE.INTRA.REPUL.0>
0

>  <SCORE.INTRA.SOLV>
3.08652

>  <SCORE.INTRA.SOLV.lig_0>
-73.062

>  <SCORE.INTRA.VDW>
0.365653

>  <SCORE.INTRA.VDW.0>
-1.83782

>  <SCORE.INTRA.norm>
0.0575234

>  <SCORE.RESTR>
0.345182

>  <SCORE.RESTR.CAVITY>
0.345182

>  <SCORE.RESTR.norm>
0.0156901

>  <SCORE.SYSTEM>
0

>  <SCORE.SYSTEM.CONST>
0

>  <SCORE.SYSTEM.DIHEDRAL>
0

>  <SCORE.SYSTEM.SOLV>
0

>  <SCORE.SYSTEM.norm>
0

>  <SCORE.heavy>
22

>  <SCORE.norm>
0.0118063

>  <RMSD>
14.555

$$$$
ligand
 OpenBabel02271912143D
libRbt.so/2013.1/901 2013/11/27
 22 23  0  0  0  0  0  0  0  0999 V2000
  -38.1363    2.7097  -21.1282 N   0  0  0  0  0  0  0  0  0  0  0  0
  -35.2122    1.0240  -20.8826 C   0  0  1  0  0  0  0  0  0  0  0  0
  -36.5359    1.0878  -21.4855 O   0  0  0  0  0  0  0  0  0  0  0  0
  -36.6014   -1.4076  -18.3318 P   0  0  1  0  0  0  0  0  0  0  0  0
  -36.8825    2.4721  -21.6524 C   0  0  2  0  0  0  0  0  0  0  0  0
  -39.8522    2.6447  -19.8007 N   0  0  0  0  0  0  0  0  0  0  0  0
  -35.7756    4.5506  -21.2642 O   0  0  0  0  0  0  0  0  0  0  0  0
  -35.9247    3.2055  -20.7948 C   0  0  2  0  0  0  0  0  0  0  0  0
  -41.3708    5.6474  -20.7655 N   0  0  0  0  0  0  0  0  0  0  0  0
  -34.0684    2.6229  -22.1592 O   0  0  0  0  0  0  0  0  0  0  0  0
  -34.7044    2.4134  -20.8873 C   0  0  2  0  0  0  0  0  0  0  0  0
  -40.1247    3.5025  -20.7959 C   0  0  0  0  0  0  0  0  0  0  0  0
  -38.9185    4.3501  -22.7934 N   0  0  0  0  0  0  0  0  0  0  0  0
  -36.1428   -0.6490  -19.6252 O   0  0  0  0  0  0  0  0  0  0  0  0
  -35.3874    0.5112  -19.4946 C   0  0  0  0  0  0  0  0  0  0  0  0
  -37.5967   -2.4911  -18.8850 O   0  0  0  0  0  0  0  0  0  0  0  0
  -38.6183    2.1489  -20.0130 C   0  0  0  0  0  0  0  0  0  0  0  0
  -42.4270    3.6880  -21.2461 O   0  0  0  0  0  0  0  0  0  0  0  0
  -41.3776    4.2633  -20.9582 C   0  0  0  0  0  0  0  0  0  0  0  0
  -39.0477    3.5511  -21.6343 C   0  0  0  0  0  0  0  0  0  0  0  0
  -35.4094   -1.9636  -17.6262 O   0  5  0  0  0  0  0  0  0  0  0  0
  -37.1233   -0.4619  -17.3289 O   0  0  0  0  0  0  0  0  0  0  0  0
  1 17  1  0  0  0  0
  1 20  1  0  0  0  0
  2 15  1  1  0  0  0
  2  3  1  0  0  0  0
  2 11  1  0  0  0  0
  3  5  1  0  0  0  0
  4 16  1  6  0  0  0
  4 21  1  0  0  0  0
  4 22  2  0  0  0  0
  4 14  1  0  0  0  0
  5  1  1  1  0  0  0
  5  8  1  0  0  0  0
  6 17  2  0  0  0  0
  6 12  1  0  0  0  0
  8  7  1  6  0  0  0
  8 11  1  0  0  0  0
  9 19  1  0  0  0  0
 11 10  1  6  0  0  0
 12 20  2  0  0  0  0
 12 19  1  0  0  0  0
 13 20  1  0  0  0  0
 14 15  1  0  0  0  0
 18 19  2  0  0  0  0
M  CHG  1  21  -1
M  END
>  <CHROM.1>
37.87195713,51.52082083,171.20709703,-175.92947014,110.09055111,-37.48523517
1.70486294,-20.28493679,-2.20205363,-0.19132273,2.54918331

>  <Name>
ligand

>  <RI>
0

>  <Rbt.Current_Directory>
/home/itssahil/PROJECTS/Mol_Feturizer/Test_systems_manuscript/rnas/4xwf

>  <Rbt.Executable>
rbdock ($Id: //depot/dev/client3/rdock/2013.1/src/exe/rbdock.cxx#4 $)

>  <Rbt.Library>
libRbt.so (2013.1, Build901 2013/11/27)

>  <Rbt.Parameter_File>
/export/apps/rDock/src/rDock_2013.1_src/data/scripts/dock_solv.prm

>  <Rbt.Receptor>
prm/blind_docking_100.prm

>  <SCORE>
-11.3548

>  <SCORE.INTER>
-10.4842

>  <SCORE.INTER.CONST>
1

>  <SCORE.INTER.POLAR>
0

>  <SCORE.INTER.ROT>
5

>  <SCORE.INTER.SOLV>
15.284

>  <SCORE.INTER.VDW>
-19.0175

>  <SCORE.INTER.norm>
-0.476556

>  <SCORE.INTRA>
-0.870574

>  <SCORE.INTRA.DIHEDRAL>
-1.43978

>  <SCORE.INTRA.DIHEDRAL.0>
3.49807

>  <SCORE.INTRA.POLAR>
0

>  <SCORE.INTRA.POLAR.0>
0

>  <SCORE.INTRA.REPUL>
0

>  <SCORE.INTRA.REPUL.0>
0

>  <SCORE.INTRA.SOLV>
0.460168

>  <SCORE.INTRA.SOLV.lig_0>
-73.062

>  <SCORE.INTRA.VDW>
-0.380768

>  <SCORE.INTRA.VDW.0>
-1.83782

>  <SCORE.INTRA.norm>
-0.0395715

>  <SCORE.RESTR>
0

>  <SCORE.RESTR.CAVITY>
0

>  <SCORE.RESTR.norm>
0

>  <SCORE.SYSTEM>
0

>  <SCORE.SYSTEM.CONST>
0

>  <SCORE.SYSTEM.DIHEDRAL>
0

>  <SCORE.SYSTEM.SOLV>
0

>  <SCORE.SYSTEM.norm>
0

>  <SCORE.heavy>
22

>  <SCORE.norm>
-0.516128

>  <RMSD>
14.560

$$$$
ligand
 OpenBabel02271912143D
libRbt.so/2013.1/901 2013/11/27
 22 23  0  0  0  0  0  0  0  0999 V2000
  -35.5772   -6.6515  -15.3138 N   0  0  0  0  0  0  0  0  0  0  0  0
  -36.0388   -5.7198  -18.5342 C   0  0  1  0  0  0  0  0  0  0  0  0
  -35.1463   -5.7304  -17.3840 O   0  0  0  0  0  0  0  0  0  0  0  0
  -37.0377   -2.1621  -17.7334 P   0  0  1  0  0  0  0  0  0  0  0  0
  -35.3830   -6.9417  -16.6484 C   0  0  2  0  0  0  0  0  0  0  0  0
  -36.2460   -5.6528  -13.5065 N   0  0  0  0  0  0  0  0  0  0  0  0
  -36.7713   -8.8593  -16.9508 O   0  0  0  0  0  0  0  0  0  0  0  0
  -36.6775   -7.4453  -17.1597 C   0  0  2  0  0  0  0  0  0  0  0  0
  -35.5592   -6.3416  -10.7070 N   0  0  0  0  0  0  0  0  0  0  0  0
  -35.7839   -7.9168  -19.3106 O   0  0  0  0  0  0  0  0  0  0  0  0
  -36.6651   -7.0597  -18.5655 C   0  0  2  0  0  0  0  0  0  0  0  0
  -35.5905   -6.7682  -13.1507 C   0  0  0  0  0  0  0  0  0  0  0  0
  -34.4610   -8.6261  -14.3490 N   0  0  0  0  0  0  0  0  0  0  0  0
  -36.3196   -3.4686  -18.2191 O   0  0  0  0  0  0  0  0  0  0  0  0
  -37.0485   -4.6504  -18.2953 C   0  0  0  0  0  0  0  0  0  0  0  0
  -38.3197   -2.0987  -18.6405 O   0  0  0  0  0  0  0  0  0  0  0  0
  -36.2310   -5.5796  -14.8511 C   0  0  0  0  0  0  0  0  0  0  0  0
  -34.9860   -8.3796  -11.5459 O   0  0  0  0  0  0  0  0  0  0  0  0
  -35.3619   -7.2289  -11.7686 C   0  0  0  0  0  0  0  0  0  0  0  0
  -35.1690   -7.4042  -14.2834 C   0  0  0  0  0  0  0  0  0  0  0  0
  -37.3176   -2.2570  -16.2703 O   0  5  0  0  0  0  0  0  0  0  0  0
  -36.1183   -1.0111  -17.7837 O   0  0  0  0  0  0  0  0  0  0  0  0
  1 17  1  0  0  0  0
  1 20  1  0  0  0  0
  2 15  1  1  0  0  0
  2  3  1  0  0  0  0
  2 11  1  0  0  0  0
  3  5  1  0  0  0  0
  4 16  1  6  0  0  0
  4 21  1  0  0  0  0
  4 22  2  0  0  0  0
  4 14  1  0  0  0  0
  5  1  1  1  0  0  0
  5  8  1  0  0  0  0
  6 17  2  0  0  0  0
  6 12  1  0  0  0  0
  8  7  1  6  0  0  0
  8 11  1  0  0  0  0
  9 19  1  0  0  0  0
 11 10  1  6  0  0  0
 12 20  2  0  0  0  0
 12 19  1  0  0  0  0
 13 20  1  0  0  0  0
 14 15  1  0  0  0  0
 18 19  2  0  0  0  0
M  CHG  1  21  -1
M  END
>  <CHROM.1>
37.35804763,61.78680321,-51.01318739,-169.78633409,-15.11515346,-36.15496337
-5.55217472,-16.13438647,-0.23004167,1.33877805,-2.15715687

>  <Name>
ligand

>  <RI>
0

>  <Rbt.Current_Directory>
/home/itssahil/PROJECTS/Mol_Feturizer/Test_systems_manuscript/rnas/4xwf

>  <Rbt.Executable>
rbdock ($Id: //depot/dev/client3/rdock/2013.1/src/exe/rbdock.cxx#4 $)

>  <Rbt.Library>
libRbt.so (2013.1, Build901 2013/11/27)

>  <Rbt.Parameter_File>
/export/apps/rDock/src/rDock_2013.1_src/data/scripts/dock_solv.prm

>  <Rbt.Receptor>
prm/blind_docking_60.prm

>  <SCORE>
-6.90523

>  <SCORE.INTER>
-6.00785

>  <SCORE.INTER.CONST>
1

>  <SCORE.INTER.POLAR>
0

>  <SCORE.INTER.ROT>
5

>  <SCORE.INTER.SOLV>
9.54648

>  <SCORE.INTER.VDW>
-14.1207

>  <SCORE.INTER.norm>
-0.273084

>  <SCORE.INTRA>
-0.897383

>  <SCORE.INTRA.DIHEDRAL>
-1.17368

>  <SCORE.INTRA.DIHEDRAL.0>
3.49807

>  <SCORE.INTRA.POLAR>
0

>  <SCORE.INTRA.POLAR.0>
0

>  <SCORE.INTRA.REPUL>
0

>  <SCORE.INTRA.REPUL.0>
0

>  <SCORE.INTRA.SOLV>
-0.0532127

>  <SCORE.INTRA.SOLV.lig_0>
-73.062

>  <SCORE.INTRA.VDW>
-0.283937

>  <SCORE.INTRA.VDW.0>
-1.83782

>  <SCORE.INTRA.norm>
-0.0407902

>  <SCORE.RESTR>
0

>  <SCORE.RESTR.CAVITY>
0

>  <SCORE.RESTR.norm>
0

>  <SCORE.SYSTEM>
0

>  <SCORE.SYSTEM.CONST>
0

>  <SCORE.SYSTEM.DIHEDRAL>
0

>  <SCORE.SYSTEM.SOLV>
0

>  <SCORE.SYSTEM.norm>
0

>  <SCORE.heavy>
22

>  <SCORE.norm>
-0.313874

>  <RMSD>
14.587

$$$$
ligand
 OpenBabel02271912143D
libRbt.so/2013.1/901 2013/11/27
 22 23  0  0  0  0  0  0  0  0999 V2000
  -33.2541    8.4215  -22.3754 N   0  0  0  0  0  0  0  0  0  0  0  0
  -33.9069    6.6457  -19.5695 C   0  0  1  0  0  0  0  0  0  0  0  0
  -33.5610    6.6083  -20.9833 O   0  0  0  0  0  0  0  0  0  0  0  0
  -37.5286    5.9327  -20.4022 P   0  0  1  0  0  0  0  0  0  0  0  0
  -32.7521    7.7596  -21.2740 C   0  0  2  0  0  0  0  0  0  0  0  0
  -34.6526    9.1980  -23.8424 N   0  0  0  0  0  0  0  0  0  0  0  0
  -31.8356    9.5498  -19.9890 O   0  0  0  0  0  0  0  0  0  0  0  0
  -32.9517    8.6612  -20.1172 C   0  0  2  0  0  0  0  0  0  0  0  0
  -32.9894   11.9256  -25.0620 N   0  0  0  0  0  0  0  0  0  0  0  0
  -31.8332    7.1910  -18.6223 O   0  0  0  0  0  0  0  0  0  0  0  0
  -33.1061    7.7473  -18.9920 C   0  0  2  0  0  0  0  0  0  0  0  0
  -33.4304    9.6650  -24.1405 C   0  0  0  0  0  0  0  0  0  0  0  0
  -31.1588    9.4549  -23.1612 N   0  0  0  0  0  0  0  0  0  0  0  0
  -35.9855    5.8654  -20.1322 O   0  0  0  0  0  0  0  0  0  0  0  0
  -35.3672    6.9286  -19.4833 C   0  0  0  0  0  0  0  0  0  0  0  0
  -38.1229    6.3098  -18.9968 O   0  0  0  0  0  0  0  0  0  0  0  0
  -34.5390    8.4206  -22.7486 C   0  0  0  0  0  0  0  0  0  0  0  0
  -32.9336   10.0852  -26.4019 O   0  0  0  0  0  0  0  0  0  0  0  0
  -33.0989   10.5486  -25.2736 C   0  0  0  0  0  0  0  0  0  0  0  0
  -32.5448    9.1828  -23.2193 C   0  0  0  0  0  0  0  0  0  0  0  0
  -37.8070    6.9271  -21.4801 O   0  5  0  0  0  0  0  0  0  0  0  0
  -38.0053    4.6837  -21.0230 O   0  0  0  0  0  0  0  0  0  0  0  0
  1 17  1  0  0  0  0
  1 20  1  0  0  0  0
  2 15  1  6  0  0  0
  2  3  1  0  0  0  0
  2 11  1  0  0  0  0
  3  5  1  0  0  0  0
  4 16  1  1  0  0  0
  4 21  1  0  0  0  0
  4 22  2  0  0  0  0
  4 14  1  0  0  0  0
  5  1  1  6  0  0  0
  5  8  1  0  0  0  0
  6 17  2  0  0  0  0
  6 12  1  0  0  0  0
  8  7  1  1  0  0  0
  8 11  1  0  0  0  0
  9 19  1  0  0  0  0
 11 10  1  6  0  0  0
 12 20  2  0  0  0  0
 12 19  1  0  0  0  0
 13 20  1  0  0  0  0
 14 15  1  0  0  0  0
 18 19  2  0  0  0  0
M  CHG  1  21  -1
M  END
>  <CHROM.1>
28.17064107,61.16856547,-50.34258922,-171.77245848,97.60157697,-34.39844094
7.89346102,-21.56062183,-0.88320717,0.39688405,2.03540786

>  <Name>
ligand

>  <RI>
0

>  <Rbt.Current_Directory>
/home/itssahil/PROJECTS/Mol_Feturizer/Test_systems_manuscript/rnas/4xwf

>  <Rbt.Executable>
rbdock ($Id: //depot/dev/client3/rdock/2013.1/src/exe/rbdock.cxx#4 $)

>  <Rbt.Library>
libRbt.so (2013.1, Build901 2013/11/27)

>  <Rbt.Parameter_File>
/export/apps/rDock/src/rDock_2013.1_src/data/scripts/dock_solv.prm

>  <Rbt.Receptor>
prm/blind_docking_100.prm

>  <SCORE>
-6.11195

>  <SCORE.INTER>
-5.25644

>  <SCORE.INTER.CONST>
1

>  <SCORE.INTER.POLAR>
0

>  <SCORE.INTER.ROT>
5

>  <SCORE.INTER.SOLV>
14.0761

>  <SCORE.INTER.VDW>
-15.1297

>  <SCORE.INTER.norm>
-0.238929

>  <SCORE.INTRA>
-0.855511

>  <SCORE.INTRA.DIHEDRAL>
-1.08404

>  <SCORE.INTRA.DIHEDRAL.0>
3.49807

>  <SCORE.INTRA.POLAR>
0

>  <SCORE.INTRA.POLAR.0>
0

>  <SCORE.INTRA.REPUL>
0

>  <SCORE.INTRA.REPUL.0>
0

>  <SCORE.INTRA.SOLV>
0.175049

>  <SCORE.INTRA.SOLV.lig_0>
-73.062

>  <SCORE.INTRA.VDW>
-0.401014

>  <SCORE.INTRA.VDW.0>
-1.83782

>  <SCORE.INTRA.norm>
-0.0388869

>  <SCORE.RESTR>
0

>  <SCORE.RESTR.CAVITY>
0

>  <SCORE.RESTR.norm>
0

>  <SCORE.SYSTEM>
0

>  <SCORE.SYSTEM.CONST>
0

>  <SCORE.SYSTEM.DIHEDRAL>
0

>  <SCORE.SYSTEM.SOLV>
0

>  <SCORE.SYSTEM.norm>
0

>  <SCORE.heavy>
22

>  <SCORE.norm>
-0.277816

>  <RMSD>
14.630

$$$$
ligand
 OpenBabel02271912143D
libRbt.so/2013.1/901 2013/11/27
 22 23  0  0  0  0  0  0  0  0999 V2000
  -35.6757   -4.8122  -18.7323 N   0  0  0  0  0  0  0  0  0  0  0  0
  -37.9115   -2.5442  -17.5878 C   0  0  1  0  0  0  0  0  0  0  0  0
  -37.5229   -3.4323  -18.6741 O   0  0  0  0  0  0  0  0  0  0  0  0
  -36.3527    0.3420  -19.4694 P   0  0  1  0  0  0  0  0  0  0  0  0
  -36.8803   -4.5822  -18.1004 C   0  0  2  0  0  0  0  0  0  0  0  0
  -33.7100   -4.4759  -19.5890 N   0  0  0  0  0  0  0  0  0  0  0  0
  -36.4334   -5.3373  -15.8810 O   0  0  0  0  0  0  0  0  0  0  0  0
  -36.5550   -4.1785  -16.7141 C   0  0  2  0  0  0  0  0  0  0  0  0
  -33.6534   -8.0530  -20.6322 N   0  0  0  0  0  0  0  0  0  0  0  0
  -38.8421   -4.0759  -16.0771 O   0  0  0  0  0  0  0  0  0  0  0  0
  -37.6598   -3.3028  -16.3430 C   0  0  2  0  0  0  0  0  0  0  0  0
  -33.9920   -5.7840  -19.6883 C   0  0  0  0  0  0  0  0  0  0  0  0
  -35.8863   -7.2495  -19.0342 N   0  0  0  0  0  0  0  0  0  0  0  0
  -37.2781   -0.8085  -18.9415 O   0  0  0  0  0  0  0  0  0  0  0  0
  -37.0426   -1.3371  -17.6770 C   0  0  0  0  0  0  0  0  0  0  0  0
  -34.9971   -0.3957  -19.7673 O   0  0  0  0  0  0  0  0  0  0  0  0
  -34.7605   -3.8734  -19.0000 C   0  0  0  0  0  0  0  0  0  0  0  0
  -31.9189   -6.5878  -20.4585 O   0  0  0  0  0  0  0  0  0  0  0  0
  -33.1165   -6.8110  -20.2828 C   0  0  0  0  0  0  0  0  0  0  0  0
  -35.2270   -6.0041  -19.1482 C   0  0  0  0  0  0  0  0  0  0  0  0
  -36.9821    0.9869  -20.6593 O   0  5  0  0  0  0  0  0  0  0  0  0
  -36.3146    1.4624  -18.5124 O   0  0  0  0  0  0  0  0  0  0  0  0
  1 17  1  0  0  0  0
  1 20  1  0  0  0  0
  2 15  1  1  0  0  0
  2  3  1  0  0  0  0
  2 11  1  0  0  0  0
  3  5  1  0  0  0  0
  4 16  1  6  0  0  0
  4 21  1  0  0  0  0
  4 22  2  0  0  0  0
  4 14  1  0  0  0  0
  5  1  1  6  0  0  0
  5  8  1  0  0  0  0
  6 17  2  0  0  0  0
  6 12  1  0  0  0  0
  8  7  1  1  0  0  0
  8 11  1  0  0  0  0
  9 19  1  0  0  0  0
 11 10  1  6  0  0  0
 12 20  2  0  0  0  0
 12 19  1  0  0  0  0
 13 20  1  0  0  0  0
 14 15  1  0  0  0  0
 18 19  2  0  0  0  0
M  CHG  1  21  -1
M  END
>  <CHROM.1>
46.53205184,58.70956063,72.01524936,-170.06043979,-163.72469759,-35.91903237
-3.35323000,-18.71553380,1.02845809,-0.74035550,2.84614396

>  <Name>
ligand

>  <RI>
0

>  <Rbt.Current_Directory>
/home/itssahil/PROJECTS/Mol_Feturizer/Test_systems_manuscript/rnas/4xwf

>  <Rbt.Executable>
rbdock ($Id: //depot/dev/client3/rdock/2013.1/src/exe/rbdock.cxx#4 $)

>  <Rbt.Library>
libRbt.so (2013.1, Build901 2013/11/27)

>  <Rbt.Parameter_File>
/export/apps/rDock/src/rDock_2013.1_src/data/scripts/dock_solv.prm

>  <Rbt.Receptor>
prm/blind_docking_60.prm

>  <SCORE>
-9.69957

>  <SCORE.INTER>
-9.19146

>  <SCORE.INTER.CONST>
1

>  <SCORE.INTER.POLAR>
0

>  <SCORE.INTER.ROT>
5

>  <SCORE.INTER.SOLV>
18.9252

>  <SCORE.INTER.VDW>
-19.3694

>  <SCORE.INTER.norm>
-0.417793

>  <SCORE.INTRA>
-0.508113

>  <SCORE.INTRA.DIHEDRAL>
0.011048

>  <SCORE.INTRA.DIHEDRAL.0>
3.49807

>  <SCORE.INTRA.POLAR>
0

>  <SCORE.INTRA.POLAR.0>
0

>  <SCORE.INTRA.REPUL>
0

>  <SCORE.INTRA.REPUL.0>
0

>  <SCORE.INTRA.SOLV>
-0.168312

>  <SCORE.INTRA.SOLV.lig_0>
-73.062

>  <SCORE.INTRA.VDW>
-0.429481

>  <SCORE.INTRA.VDW.0>
-1.83782

>  <SCORE.INTRA.norm>
-0.0230961

>  <SCORE.RESTR>
0

>  <SCORE.RESTR.CAVITY>
0

>  <SCORE.RESTR.norm>
0

>  <SCORE.SYSTEM>
0

>  <SCORE.SYSTEM.CONST>
0

>  <SCORE.SYSTEM.DIHEDRAL>
0

>  <SCORE.SYSTEM.SOLV>
0

>  <SCORE.SYSTEM.norm>
0

>  <SCORE.heavy>
22

>  <SCORE.norm>
-0.440889

>  <RMSD>
14.634

$$$$
ligand
 OpenBabel02271912143D
libRbt.so/2013.1/901 2013/11/27
 22 23  0  0  0  0  0  0  0  0999 V2000
  -35.6532   -4.8231  -18.6945 N   0  0  0  0  0  0  0  0  0  0  0  0
  -37.8508   -2.5317  -17.5229 C   0  0  1  0  0  0  0  0  0  0  0  0
  -37.5020   -3.4472  -18.5999 O   0  0  0  0  0  0  0  0  0  0  0  0
  -36.4519    0.3797  -19.4977 P   0  0  1  0  0  0  0  0  0  0  0  0
  -36.8329   -4.5797  -18.0219 C   0  0  2  0  0  0  0  0  0  0  0  0
  -33.6984   -4.5174  -19.5868 N   0  0  0  0  0  0  0  0  0  0  0  0
  -36.2962   -5.2747  -15.8027 O   0  0  0  0  0  0  0  0  0  0  0  0
  -36.4549   -4.1386  -16.6606 C   0  0  2  0  0  0  0  0  0  0  0  0
  -33.8232   -7.9726  -20.9321 N   0  0  0  0  0  0  0  0  0  0  0  0
  -38.7156   -4.0255  -15.9369 O   0  0  0  0  0  0  0  0  0  0  0  0
  -37.5476   -3.2565  -16.2695 C   0  0  2  0  0  0  0  0  0  0  0  0
  -34.0296   -5.8092  -19.7358 C   0  0  0  0  0  0  0  0  0  0  0  0
  -35.9585   -7.2357  -19.0970 N   0  0  0  0  0  0  0  0  0  0  0  0
  -37.2952   -0.8171  -18.9361 O   0  0  0  0  0  0  0  0  0  0  0  0
  -36.9907   -1.3250  -17.6780 C   0  0  0  0  0  0  0  0  0  0  0  0
  -37.2457    0.8048  -20.7860 O   0  0  0  0  0  0  0  0  0  0  0  0
  -34.7119   -3.9057  -18.9448 C   0  0  0  0  0  0  0  0  0  0  0  0
  -31.9839   -6.7130  -20.4676 O   0  0  0  0  0  0  0  0  0  0  0  0
  -33.2063   -6.8385  -20.3972 C   0  0  0  0  0  0  0  0  0  0  0  0
  -35.2580   -6.0101  -19.1736 C   0  0  0  0  0  0  0  0  0  0  0  0
  -36.3391    1.4457  -18.4591 O   0  5  0  0  0  0  0  0  0  0  0  0
  -35.0417   -0.0118  -19.6730 O   0  0  0  0  0  0  0  0  0  0  0  0
  1 17  1  0  0  0  0
  1 20  1  0  0  0  0
  2 15  1  6  0  0  0
  2  3  1  0  0  0  0
  2 11  1  0  0  0  0
  3  5  1  0  0  0  0
  4 16  1  6  0  0  0
  4 21  1  0  0  0  0
  4 22  2  0  0  0  0
  4 14  1  0  0  0  0
  5  1  1  6  0  0  0
  5  8  1  0  0  0  0
  6 17  2  0  0  0  0
  6 12  1  0  0  0  0
  8  7  1  1  0  0  0
  8 11  1  0  0  0  0
  9 19  1  0  0  0  0
 11 10  1  6  0  0  0
 12 20  2  0  0  0  0
 12 19  1  0  0  0  0
 13 20  1  0  0  0  0
 14 15  1  0  0  0  0
 18 19  2  0  0  0  0
M  CHG  1  21  -1
M  END
>  <CHROM.1>
51.20716724,59.74287404,-170.70975544,-173.42175918,-155.96189543,-35.93268440
-3.33944800,-18.71104212,1.00170938,-0.79095882,2.81678649

>  <Name>
ligand

>  <RI>
0

>  <Rbt.Current_Directory>
/home/itssahil/PROJECTS/Mol_Feturizer/Test_systems_manuscript/rnas/4xwf

>  <Rbt.Executable>
rbdock ($Id: //depot/dev/client3/rdock/2013.1/src/exe/rbdock.cxx#4 $)

>  <Rbt.Library>
libRbt.so (2013.1, Build901 2013/11/27)

>  <Rbt.Parameter_File>
/export/apps/rDock/src/rDock_2013.1_src/data/scripts/dock_solv.prm

>  <Rbt.Receptor>
prm/blind_docking_60.prm

>  <SCORE>
-9.49232

>  <SCORE.INTER>
-9.17778

>  <SCORE.INTER.CONST>
1

>  <SCORE.INTER.POLAR>
0

>  <SCORE.INTER.ROT>
5

>  <SCORE.INTER.SOLV>
18.5066

>  <SCORE.INTER.VDW>
-19.2207

>  <SCORE.INTER.norm>
-0.417172

>  <SCORE.INTRA>
-0.314539

>  <SCORE.INTRA.DIHEDRAL>
-0.623084

>  <SCORE.INTRA.DIHEDRAL.0>
3.49807

>  <SCORE.INTRA.POLAR>
0

>  <SCORE.INTRA.POLAR.0>
0

>  <SCORE.INTRA.REPUL>
0

>  <SCORE.INTRA.REPUL.0>
0

>  <SCORE.INTRA.SOLV>
0.383954

>  <SCORE.INTRA.SOLV.lig_0>
-73.062

>  <SCORE.INTRA.VDW>
-0.194974

>  <SCORE.INTRA.VDW.0>
-1.83782

>  <SCORE.INTRA.norm>
-0.0142972

>  <SCORE.RESTR>
0

>  <SCORE.RESTR.CAVITY>
0

>  <SCORE.RESTR.norm>
0

>  <SCORE.SYSTEM>
0

>  <SCORE.SYSTEM.CONST>
0

>  <SCORE.SYSTEM.DIHEDRAL>
0

>  <SCORE.SYSTEM.SOLV>
0

>  <SCORE.SYSTEM.norm>
0

>  <SCORE.heavy>
22

>  <SCORE.norm>
-0.431469

>  <RMSD>
14.642

$$$$
ligand
 OpenBabel02271912143D
libRbt.so/2013.1/901 2013/11/27
 22 23  0  0  0  0  0  0  0  0999 V2000
  -38.1750    2.6946  -21.3276 N   0  0  0  0  0  0  0  0  0  0  0  0
  -35.2332    1.1019  -20.8162 C   0  0  1  0  0  0  0  0  0  0  0  0
  -36.5399    1.0731  -21.4577 O   0  0  0  0  0  0  0  0  0  0  0  0
  -36.7546   -0.9831  -18.0444 P   0  0  1  0  0  0  0  0  0  0  0  0
  -36.9031    2.4233  -21.7881 C   0  0  2  0  0  0  0  0  0  0  0  0
  -39.9213    2.7612  -20.0403 N   0  0  0  0  0  0  0  0  0  0  0  0
  -35.8403    4.5525  -21.6063 O   0  0  0  0  0  0  0  0  0  0  0  0
  -35.9818    3.2658  -20.9930 C   0  0  2  0  0  0  0  0  0  0  0  0
  -42.1391    4.8110  -20.4019 N   0  0  0  0  0  0  0  0  0  0  0  0
  -34.0784    2.5691  -22.2333 O   0  0  0  0  0  0  0  0  0  0  0  0
  -34.7472    2.4913  -20.9633 C   0  0  2  0  0  0  0  0  0  0  0  0
  -40.1897    3.4700  -21.1476 C   0  0  0  0  0  0  0  0  0  0  0  0
  -38.9552    4.0749  -23.2149 N   0  0  0  0  0  0  0  0  0  0  0  0
  -36.2387   -0.3940  -19.4029 O   0  0  0  0  0  0  0  0  0  0  0  0
  -35.4401    0.7443  -19.3846 C   0  0  0  0  0  0  0  0  0  0  0  0
  -37.4958    0.2351  -17.3833 O   0  0  0  0  0  0  0  0  0  0  0  0
  -38.6707    2.2754  -20.1576 C   0  0  0  0  0  0  0  0  0  0  0  0
  -41.9212    4.1739  -22.5773 O   0  0  0  0  0  0  0  0  0  0  0  0
  -41.4562    4.1675  -21.4376 C   0  0  0  0  0  0  0  0  0  0  0  0
  -39.0937    3.4353  -21.9617 C   0  0  0  0  0  0  0  0  0  0  0  0
  -37.6229   -2.1681  -18.3082 O   0  5  0  0  0  0  0  0  0  0  0  0
  -35.6476   -1.5918  -17.2850 O   0  0  0  0  0  0  0  0  0  0  0  0
  1 17  1  0  0  0  0
  1 20  1  0  0  0  0
  2 15  1  1  0  0  0
  2  3  1  0  0  0  0
  2 11  1  0  0  0  0
  3  5  1  0  0  0  0
  4 16  1  1  0  0  0
  4 21  1  0  0  0  0
  4 22  2  0  0  0  0
  4 14  1  0  0  0  0
  5  1  1  1  0  0  0
  5  8  1  0  0  0  0
  6 17  2  0  0  0  0
  6 12  1  0  0  0  0
  8  7  1  6  0  0  0
  8 11  1  0  0  0  0
  9 19  1  0  0  0  0
 11 10  1  6  0  0  0
 12 20  2  0  0  0  0
 12 19  1  0  0  0  0
 13 20  1  0  0  0  0
 14 15  1  0  0  0  0
 18 19  2  0  0  0  0
M  CHG  1  21  -1
M  END
>  <CHROM.1>
39.28060276,48.17360643,55.68902826,-175.05274878,37.91371218,-37.57001573
1.81450839,-20.36629236,-2.20366405,-0.18223988,2.40971972

>  <Name>
ligand

>  <RI>
0

>  <Rbt.Current_Directory>
/home/itssahil/PROJECTS/Mol_Feturizer/Test_systems_manuscript/rnas/4xwf

>  <Rbt.Executable>
rbdock ($Id: //depot/dev/client3/rdock/2013.1/src/exe/rbdock.cxx#4 $)

>  <Rbt.Library>
libRbt.so (2013.1, Build901 2013/11/27)

>  <Rbt.Parameter_File>
/export/apps/rDock/src/rDock_2013.1_src/data/scripts/dock_solv.prm

>  <Rbt.Receptor>
prm/blind_docking_80.prm

>  <SCORE>
-10.3541

>  <SCORE.INTER>
-9.69828

>  <SCORE.INTER.CONST>
1

>  <SCORE.INTER.POLAR>
0

>  <SCORE.INTER.ROT>
5

>  <SCORE.INTER.SOLV>
18.6764

>  <SCORE.INTER.VDW>
-19.6243

>  <SCORE.INTER.norm>
-0.440831

>  <SCORE.INTRA>
-0.655859

>  <SCORE.INTRA.DIHEDRAL>
-0.207136

>  <SCORE.INTRA.DIHEDRAL.0>
3.49807

>  <SCORE.INTRA.POLAR>
0

>  <SCORE.INTRA.POLAR.0>
0

>  <SCORE.INTRA.REPUL>
0

>  <SCORE.INTRA.REPUL.0>
0

>  <SCORE.INTRA.SOLV>
-0.501556

>  <SCORE.INTRA.SOLV.lig_0>
-73.062

>  <SCORE.INTRA.VDW>
-0.301513

>  <SCORE.INTRA.VDW.0>
-1.83782

>  <SCORE.INTRA.norm>
-0.0298118

>  <SCORE.RESTR>
0

>  <SCORE.RESTR.CAVITY>
0

>  <SCORE.RESTR.norm>
0

>  <SCORE.SYSTEM>
0

>  <SCORE.SYSTEM.CONST>
0

>  <SCORE.SYSTEM.DIHEDRAL>
0

>  <SCORE.SYSTEM.SOLV>
0

>  <SCORE.SYSTEM.norm>
0

>  <SCORE.heavy>
22

>  <SCORE.norm>
-0.470643

>  <RMSD>
14.642

$$$$
ligand
 OpenBabel02271912143D
libRbt.so/2013.1/901 2013/11/27
 22 23  0  0  0  0  0  0  0  0999 V2000
  -35.6421   -4.9577  -18.7364 N   0  0  0  0  0  0  0  0  0  0  0  0
  -37.8748   -2.6708  -17.6239 C   0  0  1  0  0  0  0  0  0  0  0  0
  -37.4604   -3.5388  -18.7169 O   0  0  0  0  0  0  0  0  0  0  0  0
  -36.3464    0.3778  -19.2734 P   0  0  1  0  0  0  0  0  0  0  0  0
  -36.8668   -4.7173  -18.1485 C   0  0  2  0  0  0  0  0  0  0  0  0
  -33.6310   -4.6465  -19.4910 N   0  0  0  0  0  0  0  0  0  0  0  0
  -36.5289   -5.5399  -15.9338 O   0  0  0  0  0  0  0  0  0  0  0  0
  -36.5910   -4.3573  -16.7396 C   0  0  2  0  0  0  0  0  0  0  0  0
  -31.8128   -6.6049  -20.7368 N   0  0  0  0  0  0  0  0  0  0  0  0
  -38.9000   -4.2201  -16.1946 O   0  0  0  0  0  0  0  0  0  0  0  0
  -37.6914   -3.4670  -16.3908 C   0  0  2  0  0  0  0  0  0  0  0  0
  -33.9459   -5.9401  -19.6587 C   0  0  0  0  0  0  0  0  0  0  0  0
  -35.9091   -7.3727  -19.1516 N   0  0  0  0  0  0  0  0  0  0  0  0
  -37.2034   -0.8733  -18.8747 O   0  0  0  0  0  0  0  0  0  0  0  0
  -36.9774   -1.4815  -17.6448 C   0  0  0  0  0  0  0  0  0  0  0  0
  -36.5055    1.3316  -18.0343 O   0  0  0  0  0  0  0  0  0  0  0  0
  -34.6892   -4.0371  -18.9233 C   0  0  0  0  0  0  0  0  0  0  0  0
  -33.4551   -8.1347  -20.3518 O   0  0  0  0  0  0  0  0  0  0  0  0
  -33.0745   -6.9679  -20.2578 C   0  0  0  0  0  0  0  0  0  0  0  0
  -35.2098   -6.1444  -19.1830 C   0  0  0  0  0  0  0  0  0  0  0  0
  -34.9425   -0.0439  -19.5549 O   0  5  0  0  0  0  0  0  0  0  0  0
  -36.7658    0.9015  -20.5858 O   0  0  0  0  0  0  0  0  0  0  0  0
  1 17  1  0  0  0  0
  1 20  1  0  0  0  0
  2 15  1  1  0  0  0
  2  3  1  0  0  0  0
  2 11  1  0  0  0  0
  3  5  1  0  0  0  0
  4 16  1  1  0  0  0
  4 21  1  0  0  0  0
  4 22  2  0  0  0  0
  4 14  1  0  0  0  0
  5  1  1  6  0  0  0
  5  8  1  0  0  0  0
  6 17  2  0  0  0  0
  6 12  1  0  0  0  0
  8  7  1  1  0  0  0
  8 11  1  0  0  0  0
  9 19  1  0  0  0  0
 11 10  1  6  0  0  0
 12 20  2  0  0  0  0
 12 19  1  0  0  0  0
 13 20  1  0  0  0  0
 14 15  1  0  0  0  0
 18 19  2  0  0  0  0
M  CHG  1  21  -1
M  END
>  <CHROM.1>
47.55684048,61.88945523,-51.82475349,-176.22051654,-1.64747824,-35.89933230
-3.45329767,-18.66866644,1.05968972,-0.71767852,2.89962314

>  <Name>
ligand

>  <RI>
0

>  <Rbt.Current_Directory>
/home/itssahil/PROJECTS/Mol_Feturizer/Test_systems_manuscript/rnas/4xwf

>  <Rbt.Executable>
rbdock ($Id: //depot/dev/client3/rdock/2013.1/src/exe/rbdock.cxx#4 $)

>  <Rbt.Library>
libRbt.so (2013.1, Build901 2013/11/27)

>  <Rbt.Parameter_File>
/export/apps/rDock/src/rDock_2013.1_src/data/scripts/dock_solv.prm

>  <Rbt.Receptor>
prm/blind_docking_100.prm

>  <SCORE>
-10.962

>  <SCORE.INTER>
-9.67812

>  <SCORE.INTER.CONST>
1

>  <SCORE.INTER.POLAR>
0

>  <SCORE.INTER.ROT>
5

>  <SCORE.INTER.SOLV>
18.647

>  <SCORE.INTER.VDW>
-19.6011

>  <SCORE.INTER.norm>
-0.439914

>  <SCORE.INTRA>
-1.28384

>  <SCORE.INTRA.DIHEDRAL>
-1.84004

>  <SCORE.INTRA.DIHEDRAL.0>
3.49807

>  <SCORE.INTRA.POLAR>
0

>  <SCORE.INTRA.POLAR.0>
0

>  <SCORE.INTRA.REPUL>
0

>  <SCORE.INTRA.REPUL.0>
0

>  <SCORE.INTRA.SOLV>
-0.555966

>  <SCORE.INTRA.SOLV.lig_0>
-73.062

>  <SCORE.INTRA.VDW>
-0.0858385

>  <SCORE.INTRA.VDW.0>
-1.83782

>  <SCORE.INTRA.norm>
-0.0583564

>  <SCORE.RESTR>
0

>  <SCORE.RESTR.CAVITY>
0

>  <SCORE.RESTR.norm>
0

>  <SCORE.SYSTEM>
0

>  <SCORE.SYSTEM.CONST>
0

>  <SCORE.SYSTEM.DIHEDRAL>
0

>  <SCORE.SYSTEM.SOLV>
0

>  <SCORE.SYSTEM.norm>
0

>  <SCORE.heavy>
22

>  <SCORE.norm>
-0.498271

>  <RMSD>
14.662

$$$$
ligand
 OpenBabel02271912143D
libRbt.so/2013.1/901 2013/11/27
 22 23  0  0  0  0  0  0  0  0999 V2000
  -35.6237   -4.9280  -18.7621 N   0  0  0  0  0  0  0  0  0  0  0  0
  -37.8414   -2.5952  -17.7169 C   0  0  1  0  0  0  0  0  0  0  0  0
  -37.4469   -3.5153  -18.7741 O   0  0  0  0  0  0  0  0  0  0  0  0
  -36.3615    0.3673  -19.5535 P   0  0  1  0  0  0  0  0  0  0  0  0
  -36.8365   -4.6623  -18.1607 C   0  0  2  0  0  0  0  0  0  0  0  0
  -33.6177   -4.6567  -19.5453 N   0  0  0  0  0  0  0  0  0  0  0  0
  -36.4480   -5.3725  -15.9156 O   0  0  0  0  0  0  0  0  0  0  0  0
  -36.5321   -4.2317  -16.7777 C   0  0  2  0  0  0  0  0  0  0  0  0
  -31.8279   -6.6661  -20.7496 N   0  0  0  0  0  0  0  0  0  0  0  0
  -38.8295   -4.0746  -16.1905 O   0  0  0  0  0  0  0  0  0  0  0  0
  -37.6284   -3.3285  -16.4499 C   0  0  2  0  0  0  0  0  0  0  0  0
  -33.9561   -5.9462  -19.6976 C   0  0  0  0  0  0  0  0  0  0  0  0
  -35.9358   -7.3416  -19.1528 N   0  0  0  0  0  0  0  0  0  0  0  0
  -37.2277   -0.8415  -19.0563 O   0  0  0  0  0  0  0  0  0  0  0  0
  -36.9495   -1.4058  -17.8162 C   0  0  0  0  0  0  0  0  0  0  0  0
  -34.9985   -0.3072  -19.9507 O   0  0  0  0  0  0  0  0  0  0  0  0
  -34.6583   -4.0250  -18.9693 C   0  0  0  0  0  0  0  0  0  0  0  0
  -33.5281   -8.1447  -20.4193 O   0  0  0  0  0  0  0  0  0  0  0  0
  -33.1096   -6.9934  -20.2988 C   0  0  0  0  0  0  0  0  0  0  0  0
  -35.2168   -6.1255  -19.2039 C   0  0  0  0  0  0  0  0  0  0  0  0
  -37.0614    1.0587  -20.6760 O   0  5  0  0  0  0  0  0  0  0  0  0
  -36.3158    1.4313  -18.5344 O   0  0  0  0  0  0  0  0  0  0  0  0
  1 17  1  0  0  0  0
  1 20  1  0  0  0  0
  2 15  1  1  0  0  0
  2  3  1  0  0  0  0
  2 11  1  0  0  0  0
  3  5  1  0  0  0  0
  4 16  1  6  0  0  0
  4 21  1  0  0  0  0
  4 22  2  0  0  0  0
  4 14  1  0  0  0  0
  5  1  1  6  0  0  0
  5  8  1  0  0  0  0
  6 17  2  0  0  0  0
  6 12  1  0  0  0  0
  8  7  1  1  0  0  0
  8 11  1  0  0  0  0
  9 19  1  0  0  0  0
 11 10  1  6  0  0  0
 12 20  2  0  0  0  0
 12 19  1  0  0  0  0
 13 20  1  0  0  0  0
 14 15  1  0  0  0  0
 18 19  2  0  0  0  0
M  CHG  1  21  -1
M  END
>  <CHROM.1>
50.22619626,63.29459517,74.11300335,-174.27130626,0.84580983,-35.89804183
-3.41881578,-18.78141902,1.04532125,-0.73922451,2.84405627

>  <Name>
ligand

>  <RI>
0

>  <Rbt.Current_Directory>
/home/itssahil/PROJECTS/Mol_Feturizer/Test_systems_manuscript/rnas/4xwf

>  <Rbt.Executable>
rbdock ($Id: //depot/dev/client3/rdock/2013.1/src/exe/rbdock.cxx#4 $)

>  <Rbt.Library>
libRbt.so (2013.1, Build901 2013/11/27)

>  <Rbt.Parameter_File>
/export/apps/rDock/src/rDock_2013.1_src/data/scripts/dock_solv.prm

>  <Rbt.Receptor>
prm/blind_docking_60.prm

>  <SCORE>
-10.4602

>  <SCORE.INTER>
-9.14492

>  <SCORE.INTER.CONST>
1

>  <SCORE.INTER.POLAR>
0

>  <SCORE.INTER.ROT>
5

>  <SCORE.INTER.SOLV>
19.9994

>  <SCORE.INTER.VDW>
-19.6964

>  <SCORE.INTER.norm>
-0.415678

>  <SCORE.INTRA>
-1.31524

>  <SCORE.INTRA.DIHEDRAL>
-1.5359

>  <SCORE.INTRA.DIHEDRAL.0>
3.49807

>  <SCORE.INTRA.POLAR>
0

>  <SCORE.INTRA.POLAR.0>
0

>  <SCORE.INTRA.REPUL>
0

>  <SCORE.INTRA.REPUL.0>
0

>  <SCORE.INTRA.SOLV>
-0.565145

>  <SCORE.INTRA.SOLV.lig_0>
-73.062

>  <SCORE.INTRA.VDW>
-0.264717

>  <SCORE.INTRA.VDW.0>
-1.83782

>  <SCORE.INTRA.norm>
-0.0597836

>  <SCORE.RESTR>
0

>  <SCORE.RESTR.CAVITY>
0

>  <SCORE.RESTR.norm>
0

>  <SCORE.SYSTEM>
0

>  <SCORE.SYSTEM.CONST>
0

>  <SCORE.SYSTEM.DIHEDRAL>
0

>  <SCORE.SYSTEM.SOLV>
0

>  <SCORE.SYSTEM.norm>
0

>  <SCORE.heavy>
22

>  <SCORE.norm>
-0.475462

>  <RMSD>
14.687

$$$$
ligand
 OpenBabel02271912143D
libRbt.so/2013.1/901 2013/11/27
 22 23  0  0  0  0  0  0  0  0999 V2000
  -35.9574   -5.1118  -18.6012 N   0  0  0  0  0  0  0  0  0  0  0  0
  -37.6305   -2.4761  -17.2948 C   0  0  1  0  0  0  0  0  0  0  0  0
  -37.5513   -3.4617  -18.3636 O   0  0  0  0  0  0  0  0  0  0  0  0
  -36.1109    0.2205  -19.4777 P   0  0  1  0  0  0  0  0  0  0  0  0
  -37.0011   -4.6700  -17.8146 C   0  0  2  0  0  0  0  0  0  0  0  0
  -34.1171   -5.1251  -19.7520 N   0  0  0  0  0  0  0  0  0  0  0  0
  -36.3258   -5.3844  -15.6398 O   0  0  0  0  0  0  0  0  0  0  0  0
  -36.4065   -4.2595  -16.5228 C   0  0  2  0  0  0  0  0  0  0  0  0
  -34.7674   -8.2977  -21.2937 N   0  0  0  0  0  0  0  0  0  0  0  0
  -38.5254   -3.7759  -15.5616 O   0  0  0  0  0  0  0  0  0  0  0  0
  -37.2996   -3.2077  -16.0524 C   0  0  2  0  0  0  0  0  0  0  0  0
  -34.6107   -6.3728  -19.7366 C   0  0  0  0  0  0  0  0  0  0  0  0
  -36.5875   -7.4911  -18.7338 N   0  0  0  0  0  0  0  0  0  0  0  0
  -37.0213   -0.8625  -18.8019 O   0  0  0  0  0  0  0  0  0  0  0  0
  -36.6198   -1.4231  -17.5943 C   0  0  0  0  0  0  0  0  0  0  0  0
  -34.8461   -0.6002  -19.9218 O   0  0  0  0  0  0  0  0  0  0  0  0
  -34.9592   -4.3424  -19.0507 C   0  0  0  0  0  0  0  0  0  0  0  0
  -32.8464   -7.8751  -20.1461 O   0  0  0  0  0  0  0  0  0  0  0  0
  -34.0063   -7.5462  -20.3943 C   0  0  0  0  0  0  0  0  0  0  0  0
  -35.7680   -6.3730  -19.0113 C   0  0  0  0  0  0  0  0  0  0  0  0
  -36.8519    0.8718  -20.5978 O   0  5  0  0  0  0  0  0  0  0  0  0
  -35.8906    1.3593  -18.5682 O   0  0  0  0  0  0  0  0  0  0  0  0
  1 17  1  0  0  0  0
  1 20  1  0  0  0  0
  2 15  1  6  0  0  0
  2  3  1  0  0  0  0
  2 11  1  0  0  0  0
  3  5  1  0  0  0  0
  4 16  1  6  0  0  0
  4 21  1  0  0  0  0
  4 22  2  0  0  0  0
  4 14  1  0  0  0  0
  5  1  1  6  0  0  0
  5  8  1  0  0  0  0
  6 17  2  0  0  0  0
  6 12  1  0  0  0  0
  8  7  1  1  0  0  0
  8 11  1  0  0  0  0
  9 19  1  0  0  0  0
 11 10  1  6  0  0  0
 12 20  2  0  0  0  0
 12 19  1  0  0  0  0
 13 20  1  0  0  0  0
 14 15  1  0  0  0  0
 18 19  2  0  0  0  0
M  CHG  1  21  -1
M  END
>  <CHROM.1>
47.46299337,62.46321817,68.76455774,-175.36235851,-125.04248758,-36.01948425
-3.58337630,-18.62363559,1.15932105,-0.94587750,2.88927510

>  <Name>
ligand

>  <RI>
0

>  <Rbt.Current_Directory>
/home/itssahil/PROJECTS/Mol_Feturizer/Test_systems_manuscript/rnas/4xwf

>  <Rbt.Executable>
rbdock ($Id: //depot/dev/client3/rdock/2013.1/src/exe/rbdock.cxx#4 $)

>  <Rbt.Library>
libRbt.so (2013.1, Build901 2013/11/27)

>  <Rbt.Parameter_File>
/export/apps/rDock/src/rDock_2013.1_src/data/scripts/dock_solv.prm

>  <Rbt.Receptor>
prm/blind_docking_60.prm

>  <SCORE>
-9.89662

>  <SCORE.INTER>
-8.33714

>  <SCORE.INTER.CONST>
1

>  <SCORE.INTER.POLAR>
0

>  <SCORE.INTER.ROT>
5

>  <SCORE.INTER.SOLV>
17.9004

>  <SCORE.INTER.VDW>
-18.4582

>  <SCORE.INTER.norm>
-0.378961

>  <SCORE.INTRA>
-1.55947

>  <SCORE.INTRA.DIHEDRAL>
-1.75971

>  <SCORE.INTRA.DIHEDRAL.0>
3.49807

>  <SCORE.INTRA.POLAR>
0

>  <SCORE.INTRA.POLAR.0>
0

>  <SCORE.INTRA.REPUL>
0

>  <SCORE.INTRA.REPUL.0>
0

>  <SCORE.INTRA.SOLV>
-0.427051

>  <SCORE.INTRA.SOLV.lig_0>
-73.062

>  <SCORE.INTRA.VDW>
-0.466095

>  <SCORE.INTRA.VDW.0>
-1.83782

>  <SCORE.INTRA.norm>
-0.0708852

>  <SCORE.RESTR>
0

>  <SCORE.RESTR.CAVITY>
0

>  <SCORE.RESTR.norm>
0

>  <SCORE.SYSTEM>
0

>  <SCORE.SYSTEM.CONST>
0

>  <SCORE.SYSTEM.DIHEDRAL>
0

>  <SCORE.SYSTEM.SOLV>
0

>  <SCORE.SYSTEM.norm>
0

>  <SCORE.heavy>
22

>  <SCORE.norm>
-0.449846

>  <RMSD>
14.708

$$$$
ligand
 OpenBabel02271912143D
libRbt.so/2013.1/901 2013/11/27
 22 23  0  0  0  0  0  0  0  0999 V2000
  -35.4836   -1.3421  -18.6214 N   0  0  0  0  0  0  0  0  0  0  0  0
  -35.5382   -4.5840  -17.6521 C   0  0  1  0  0  0  0  0  0  0  0  0
  -34.9390   -3.2687  -17.4763 O   0  0  0  0  0  0  0  0  0  0  0  0
  -34.5502   -7.5054  -19.8456 P   0  0  1  0  0  0  0  0  0  0  0  0
  -35.9523   -2.2813  -17.7261 C   0  0  2  0  0  0  0  0  0  0  0  0
  -34.3968   -0.4405  -20.2697 N   0  0  0  0  0  0  0  0  0  0  0  0
  -38.2824   -2.3424  -18.2390 O   0  0  0  0  0  0  0  0  0  0  0  0
  -37.0324   -3.0180  -18.4200 C   0  0  2  0  0  0  0  0  0  0  0  0
  -36.4681    2.3354  -20.7939 N   0  0  0  0  0  0  0  0  0  0  0  0
  -37.5572   -4.3072  -16.4939 O   0  0  0  0  0  0  0  0  0  0  0  0
  -36.9888   -4.3430  -17.8137 C   0  0  2  0  0  0  0  0  0  0  0  0
  -35.1885    0.4972  -19.7272 C   0  0  0  0  0  0  0  0  0  0  0  0
  -36.8346    0.5780  -17.8705 N   0  0  0  0  0  0  0  0  0  0  0  0
  -35.2024   -6.5391  -18.7970 O   0  0  0  0  0  0  0  0  0  0  0  0
  -34.9423   -5.1758  -18.8828 C   0  0  0  0  0  0  0  0  0  0  0  0
  -33.0391   -7.0730  -19.8410 O   0  0  0  0  0  0  0  0  0  0  0  0
  -34.5776   -1.5809  -19.5767 C   0  0  0  0  0  0  0  0  0  0  0  0
  -34.3546    2.6783  -20.0186 O   0  0  0  0  0  0  0  0  0  0  0  0
  -35.2943    1.8986  -20.1739 C   0  0  0  0  0  0  0  0  0  0  0  0
  -35.8784   -0.0638  -18.6905 C   0  0  0  0  0  0  0  0  0  0  0  0
  -34.7909   -8.9219  -19.4412 O   0  5  0  0  0  0  0  0  0  0  0  0
  -35.2664   -7.4402  -21.1322 O   0  0  0  0  0  0  0  0  0  0  0  0
  1 17  1  0  0  0  0
  1 20  1  0  0  0  0
  2 15  1  6  0  0  0
  2  3  1  0  0  0  0
  2 11  1  0  0  0  0
  3  5  1  0  0  0  0
  4 16  1  6  0  0  0
  4 21  1  0  0  0  0
  4 22  2  0  0  0  0
  4 14  1  0  0  0  0
  5  1  1  6  0  0  0
  5  8  1  0  0  0  0
  6 17  2  0  0  0  0
  6 12  1  0  0  0  0
  8  7  1  1  0  0  0
  8 11  1  0  0  0  0
  9 19  1  0  0  0  0
 11 10  1  1  0  0  0
 12 20  2  0  0  0  0
 12 19  1  0  0  0  0
 13 20  1  0  0  0  0
 14 15  1  0  0  0  0
 18 19  2  0  0  0  0
M  CHG  1  21  -1
M  END
>  <CHROM.1>
29.51244890,162.16570689,48.85347850,-172.15420516,110.49859699,-35.50977417
-3.22301054,-19.01907515,1.71083274,0.78279579,-0.10402397

>  <Name>
ligand

>  <RI>
0

>  <Rbt.Current_Directory>
/home/itssahil/PROJECTS/Mol_Feturizer/Test_systems_manuscript/rnas/4xwf

>  <Rbt.Executable>
rbdock ($Id: //depot/dev/client3/rdock/2013.1/src/exe/rbdock.cxx#4 $)

>  <Rbt.Library>
libRbt.so (2013.1, Build901 2013/11/27)

>  <Rbt.Parameter_File>
/export/apps/rDock/src/rDock_2013.1_src/data/scripts/dock_solv.prm

>  <Rbt.Receptor>
prm/blind_docking_100.prm

>  <SCORE>
-7.30616

>  <SCORE.INTER>
-6.88733

>  <SCORE.INTER.CONST>
1

>  <SCORE.INTER.POLAR>
0

>  <SCORE.INTER.ROT>
5

>  <SCORE.INTER.SOLV>
17.3663

>  <SCORE.INTER.VDW>
-17.3137

>  <SCORE.INTER.norm>
-0.31306

>  <SCORE.INTRA>
-0.418827

>  <SCORE.INTRA.DIHEDRAL>
-0.368003

>  <SCORE.INTRA.DIHEDRAL.0>
3.49807

>  <SCORE.INTRA.POLAR>
0

>  <SCORE.INTRA.POLAR.0>
0

>  <SCORE.INTRA.REPUL>
0

>  <SCORE.INTRA.REPUL.0>
0

>  <SCORE.INTRA.SOLV>
-0.148887

>  <SCORE.INTRA.SOLV.lig_0>
-73.062

>  <SCORE.INTRA.VDW>
-0.160382

>  <SCORE.INTRA.VDW.0>
-1.83782

>  <SCORE.INTRA.norm>
-0.0190376

>  <SCORE.RESTR>
0

>  <SCORE.RESTR.CAVITY>
0

>  <SCORE.RESTR.norm>
0

>  <SCORE.SYSTEM>
0

>  <SCORE.SYSTEM.CONST>
0

>  <SCORE.SYSTEM.DIHEDRAL>
0

>  <SCORE.SYSTEM.SOLV>
0

>  <SCORE.SYSTEM.norm>
0

>  <SCORE.heavy>
22

>  <SCORE.norm>
-0.332098

>  <RMSD>
14.766

$$$$
ligand
 OpenBabel02271912143D
libRbt.so/2013.1/901 2013/11/27
 22 23  0  0  0  0  0  0  0  0999 V2000
  -34.7525   -5.5273  -15.8676 N   0  0  0  0  0  0  0  0  0  0  0  0
  -35.1232   -4.9380  -19.1794 C   0  0  1  0  0  0  0  0  0  0  0  0
  -35.7608   -5.3393  -17.9335 O   0  0  0  0  0  0  0  0  0  0  0  0
  -34.8823   -8.4793  -20.4984 P   0  0  1  0  0  0  0  0  0  0  0  0
  -35.1160   -4.6381  -16.8578 C   0  0  2  0  0  0  0  0  0  0  0  0
  -34.1773   -7.3681  -14.8718 N   0  0  0  0  0  0  0  0  0  0  0  0
  -33.3977   -2.9889  -16.7048 O   0  0  0  0  0  0  0  0  0  0  0  0
  -33.8566   -4.1269  -17.4438 C   0  0  2  0  0  0  0  0  0  0  0  0
  -32.5357   -6.2008  -12.1023 N   0  0  0  0  0  0  0  0  0  0  0  0
  -34.9956   -2.6164  -18.8819 O   0  0  0  0  0  0  0  0  0  0  0  0
  -34.2177   -3.8238  -18.8232 C   0  0  2  0  0  0  0  0  0  0  0  0
  -34.1648   -6.3794  -13.9646 C   0  0  0  0  0  0  0  0  0  0  0  0
  -34.6110   -3.9373  -13.9893 N   0  0  0  0  0  0  0  0  0  0  0  0
  -35.3339   -7.0468  -20.0481 O   0  0  0  0  0  0  0  0  0  0  0  0
  -34.3655   -6.1179  -19.6834 C   0  0  0  0  0  0  0  0  0  0  0  0
  -34.4854   -9.1727  -19.1448 O   0  0  0  0  0  0  0  0  0  0  0  0
  -34.5488   -6.8368  -16.0522 C   0  0  0  0  0  0  0  0  0  0  0  0
  -34.6572   -6.9415  -11.7333 O   0  0  0  0  0  0  0  0  0  0  0  0
  -33.8236   -6.5247  -12.5374 C   0  0  0  0  0  0  0  0  0  0  0  0
  -34.5230   -5.2165  -14.5848 C   0  0  0  0  0  0  0  0  0  0  0  0
  -35.9949   -9.1484  -21.2348 O   0  5  0  0  0  0  0  0  0  0  0  0
  -33.8455   -8.3959  -21.5428 O   0  0  0  0  0  0  0  0  0  0  0  0
  1 17  1  0  0  0  0
  1 20  1  0  0  0  0
  2 15  1  1  0  0  0
  2  3  1  0  0  0  0
  2 11  1  0  0  0  0
  3  5  1  0  0  0  0
  4 16  1  1  0  0  0
  4 21  1  0  0  0  0
  4 22  2  0  0  0  0
  4 14  1  0  0  0  0
  5  1  1  1  0  0  0
  5  8  1  0  0  0  0
  6 17  2  0  0  0  0
  6 12  1  0  0  0  0
  8  7  1  1  0  0  0
  8 11  1  0  0  0  0
  9 19  1  0  0  0  0
 11 10  1  1  0  0  0
 12 20  2  0  0  0  0
 12 19  1  0  0  0  0
 13 20  1  0  0  0  0
 14 15  1  0  0  0  0
 18 19  2  0  0  0  0
M  CHG  1  21  -1
M  END
>  <CHROM.1>
23.43002402,68.22089787,75.17791628,-174.12552957,98.35644375,-34.54660770
-6.15351540,-17.28779829,0.12313543,-1.44973876,-0.16599891

>  <Name>
ligand

>  <RI>
0

>  <Rbt.Current_Directory>
/home/itssahil/PROJECTS/Mol_Feturizer/Test_systems_manuscript/rnas/4xwf

>  <Rbt.Executable>
rbdock ($Id: //depot/dev/client3/rdock/2013.1/src/exe/rbdock.cxx#4 $)

>  <Rbt.Library>
libRbt.so (2013.1, Build901 2013/11/27)

>  <Rbt.Parameter_File>
/export/apps/rDock/src/rDock_2013.1_src/data/scripts/dock_solv.prm

>  <Rbt.Receptor>
prm/blind_docking_100.prm

>  <SCORE>
-7.24373

>  <SCORE.INTER>
-6.42117

>  <SCORE.INTER.CONST>
1

>  <SCORE.INTER.POLAR>
0

>  <SCORE.INTER.ROT>
5

>  <SCORE.INTER.SOLV>
18.8756

>  <SCORE.INTER.VDW>
-17.506

>  <SCORE.INTER.norm>
-0.291871

>  <SCORE.INTRA>
-0.824822

>  <SCORE.INTRA.DIHEDRAL>
-0.842138

>  <SCORE.INTRA.DIHEDRAL.0>
3.49807

>  <SCORE.INTRA.POLAR>
0

>  <SCORE.INTRA.POLAR.0>
0

>  <SCORE.INTRA.REPUL>
0

>  <SCORE.INTRA.REPUL.0>
0

>  <SCORE.INTRA.SOLV>
0.266404

>  <SCORE.INTRA.SOLV.lig_0>
-73.062

>  <SCORE.INTRA.VDW>
-0.536955

>  <SCORE.INTRA.VDW.0>
-1.83782

>  <SCORE.INTRA.norm>
-0.0374919

>  <SCORE.RESTR>
0.00225557

>  <SCORE.RESTR.CAVITY>
0.00225557

>  <SCORE.RESTR.norm>
0.000102526

>  <SCORE.SYSTEM>
0

>  <SCORE.SYSTEM.CONST>
0

>  <SCORE.SYSTEM.DIHEDRAL>
0

>  <SCORE.SYSTEM.SOLV>
0

>  <SCORE.SYSTEM.norm>
0

>  <SCORE.heavy>
22

>  <SCORE.norm>
-0.329261

>  <RMSD>
14.862

$$$$
ligand
 OpenBabel02271912143D
libRbt.so/2013.1/901 2013/11/27
 22 23  0  0  0  0  0  0  0  0999 V2000
  -34.7901   -5.5151  -15.7901 N   0  0  0  0  0  0  0  0  0  0  0  0
  -35.2655   -5.0274  -19.1050 C   0  0  1  0  0  0  0  0  0  0  0  0
  -35.8601   -5.4032  -17.8302 O   0  0  0  0  0  0  0  0  0  0  0  0
  -34.9990   -8.4500  -20.7091 P   0  0  1  0  0  0  0  0  0  0  0  0
  -35.1971   -4.6609  -16.7940 C   0  0  2  0  0  0  0  0  0  0  0  0
  -34.1211   -7.3082  -14.7663 N   0  0  0  0  0  0  0  0  0  0  0  0
  -33.5042   -2.9797  -16.7376 O   0  0  0  0  0  0  0  0  0  0  0  0
  -33.9641   -4.1459  -17.4305 C   0  0  2  0  0  0  0  0  0  0  0  0
  -34.8235   -6.2654  -11.4825 N   0  0  0  0  0  0  0  0  0  0  0  0
  -35.1699   -2.6964  -18.8770 O   0  0  0  0  0  0  0  0  0  0  0  0
  -34.3697   -3.8885  -18.8069 C   0  0  2  0  0  0  0  0  0  0  0  0
  -34.1638   -6.3073  -13.8735 C   0  0  0  0  0  0  0  0  0  0  0  0
  -34.7388   -3.8930  -13.9349 N   0  0  0  0  0  0  0  0  0  0  0  0
  -35.4600   -7.0757  -20.1113 O   0  0  0  0  0  0  0  0  0  0  0  0
  -34.5021   -6.2085  -19.5973 C   0  0  0  0  0  0  0  0  0  0  0  0
  -36.2606   -8.9331  -21.5127 O   0  0  0  0  0  0  0  0  0  0  0  0
  -34.5166   -6.8145  -15.9551 C   0  0  0  0  0  0  0  0  0  0  0  0
  -32.6577   -6.6161  -12.0921 O   0  0  0  0  0  0  0  0  0  0  0  0
  -33.8198   -6.4136  -12.4435 C   0  0  0  0  0  0  0  0  0  0  0  0
  -34.5813   -5.1741  -14.5115 C   0  0  0  0  0  0  0  0  0  0  0  0
  -33.7742   -8.2514  -21.5388 O   0  5  0  0  0  0  0  0  0  0  0  0
  -34.4948   -9.3390  -19.6470 O   0  0  0  0  0  0  0  0  0  0  0  0
  1 17  1  0  0  0  0
  1 20  1  0  0  0  0
  2 15  1  1  0  0  0
  2  3  1  0  0  0  0
  2 11  1  0  0  0  0
  3  5  1  0  0  0  0
  4 16  1  6  0  0  0
  4 21  1  0  0  0  0
  4 22  2  0  0  0  0
  4 14  1  0  0  0  0
  5  1  1  1  0  0  0
  5  8  1  0  0  0  0
  6 17  2  0  0  0  0
  6 12  1  0  0  0  0
  8  7  1  1  0  0  0
  8 11  1  0  0  0  0
  9 19  1  0  0  0  0
 11 10  1  1  0  0  0
 12 20  2  0  0  0  0
 12 19  1  0  0  0  0
 13 20  1  0  0  0  0
 14 15  1  0  0  0  0
 18 19  2  0  0  0  0
M  CHG  1  21  -1
M  END
>  <CHROM.1>
26.29018847,77.71548380,-165.08895659,-179.32940671,-112.66153113,-34.62261117
-6.13386401,-17.30243440,0.47762312,-1.43082336,0.18850334

>  <Name>
ligand

>  <RI>
0

>  <Rbt.Current_Directory>
/home/itssahil/PROJECTS/Mol_Feturizer/Test_systems_manuscript/rnas/4xwf

>  <Rbt.Executable>
rbdock ($Id: //depot/dev/client3/rdock/2013.1/src/exe/rbdock.cxx#4 $)

>  <Rbt.Library>
libRbt.so (2013.1, Build901 2013/11/27)

>  <Rbt.Parameter_File>
/export/apps/rDock/src/rDock_2013.1_src/data/scripts/dock_solv.prm

>  <Rbt.Receptor>
prm/blind_docking_60.prm

>  <SCORE>
-9.55722

>  <SCORE.INTER>
-9.25372

>  <SCORE.INTER.CONST>
1

>  <SCORE.INTER.POLAR>
0

>  <SCORE.INTER.ROT>
5

>  <SCORE.INTER.SOLV>
13.1036

>  <SCORE.INTER.VDW>
-17.4703

>  <SCORE.INTER.norm>
-0.420624

>  <SCORE.INTRA>
-0.303491

>  <SCORE.INTRA.DIHEDRAL>
-0.602096

>  <SCORE.INTRA.DIHEDRAL.0>
3.49807

>  <SCORE.INTRA.POLAR>
0

>  <SCORE.INTRA.POLAR.0>
0

>  <SCORE.INTRA.REPUL>
0

>  <SCORE.INTRA.REPUL.0>
0

>  <SCORE.INTRA.SOLV>
0.754898

>  <SCORE.INTRA.SOLV.lig_0>
-73.062

>  <SCORE.INTRA.VDW>
-0.379892

>  <SCORE.INTRA.VDW.0>
-1.83782

>  <SCORE.INTRA.norm>
-0.0137951

>  <SCORE.RESTR>
0

>  <SCORE.RESTR.CAVITY>
0

>  <SCORE.RESTR.norm>
0

>  <SCORE.SYSTEM>
0

>  <SCORE.SYSTEM.CONST>
0

>  <SCORE.SYSTEM.DIHEDRAL>
0

>  <SCORE.SYSTEM.SOLV>
0

>  <SCORE.SYSTEM.norm>
0

>  <SCORE.heavy>
22

>  <SCORE.norm>
-0.434419

>  <RMSD>
14.882

$$$$
ligand
 OpenBabel02271912143D
libRbt.so/2013.1/901 2013/11/27
 22 23  0  0  0  0  0  0  0  0999 V2000
  -34.7620    8.3087  -22.2146 N   0  0  0  0  0  0  0  0  0  0  0  0
  -36.4968    5.9746  -20.4840 C   0  0  1  0  0  0  0  0  0  0  0  0
  -35.4959    7.0311  -20.4401 O   0  0  0  0  0  0  0  0  0  0  0  0
  -33.6019    3.5533  -20.8060 P   0  0  1  0  0  0  0  0  0  0  0  0
  -35.8514    8.0216  -21.4184 C   0  0  2  0  0  0  0  0  0  0  0  0
  -32.8105    8.1633  -23.1536 N   0  0  0  0  0  0  0  0  0  0  0  0
  -37.6715    8.3258  -22.9318 O   0  0  0  0  0  0  0  0  0  0  0  0
  -36.8414    7.3505  -22.2903 C   0  0  2  0  0  0  0  0  0  0  0  0
  -32.8994   11.4908  -24.4970 N   0  0  0  0  0  0  0  0  0  0  0  0
  -38.4693    7.2386  -20.5626 O   0  0  0  0  0  0  0  0  0  0  0  0
  -37.5649    6.4740  -21.3774 C   0  0  2  0  0  0  0  0  0  0  0  0
  -33.4548    9.2129  -23.6866 C   0  0  0  0  0  0  0  0  0  0  0  0
  -35.6848   10.2647  -23.3970 N   0  0  0  0  0  0  0  0  0  0  0  0
  -34.6184    4.6682  -20.3789 O   0  0  0  0  0  0  0  0  0  0  0  0
  -35.8332    4.7659  -21.0486 C   0  0  0  0  0  0  0  0  0  0  0  0
  -33.4145    3.8091  -22.3455 O   0  0  0  0  0  0  0  0  0  0  0  0
  -33.6228    7.6070  -22.2348 C   0  0  0  0  0  0  0  0  0  0  0  0
  -32.5139    9.6609  -25.7964 O   0  0  0  0  0  0  0  0  0  0  0  0
  -32.9223   10.1125  -24.7267 C   0  0  0  0  0  0  0  0  0  0  0  0
  -34.6856    9.3090  -23.1025 C   0  0  0  0  0  0  0  0  0  0  0  0
  -32.3517    3.6779  -20.0001 O   0  5  0  0  0  0  0  0  0  0  0  0
  -34.0847    2.2219  -20.3974 O   0  0  0  0  0  0  0  0  0  0  0  0
  1 17  1  0  0  0  0
  1 20  1  0  0  0  0
  2 15  1  6  0  0  0
  2  3  1  0  0  0  0
  2 11  1  0  0  0  0
  3  5  1  0  0  0  0
  4 16  1  6  0  0  0
  4 21  1  0  0  0  0
  4 22  2  0  0  0  0
  4 14  1  0  0  0  0
  5  1  1  6  0  0  0
  5  8  1  0  0  0  0
  6 17  2  0  0  0  0
  6 12  1  0  0  0  0
  8  7  1  1  0  0  0
  8 11  1  0  0  0  0
  9 19  1  0  0  0  0
 11 10  1  1  0  0  0
 12 20  2  0  0  0  0
 12 19  1  0  0  0  0
 13 20  1  0  0  0  0
 14 15  1  0  0  0  0
 18 19  2  0  0  0  0
M  CHG  1  21  -1
M  END
>  <CHROM.1>
11.04670917,45.91071063,54.88234816,-175.43199531,-125.56222740,-34.74653907
6.85401655,-22.03178059,1.52251036,0.33171983,-0.50079161

>  <Name>
ligand

>  <RI>
0

>  <Rbt.Current_Directory>
/home/itssahil/PROJECTS/Mol_Feturizer/Test_systems_manuscript/rnas/4xwf

>  <Rbt.Executable>
rbdock ($Id: //depot/dev/client3/rdock/2013.1/src/exe/rbdock.cxx#4 $)

>  <Rbt.Library>
libRbt.so (2013.1, Build901 2013/11/27)

>  <Rbt.Parameter_File>
/export/apps/rDock/src/rDock_2013.1_src/data/scripts/dock_solv.prm

>  <Rbt.Receptor>
prm/blind_docking_80.prm

>  <SCORE>
-8.71571

>  <SCORE.INTER>
-8.48439

>  <SCORE.INTER.CONST>
1

>  <SCORE.INTER.POLAR>
0

>  <SCORE.INTER.ROT>
5

>  <SCORE.INTER.SOLV>
11.8598

>  <SCORE.INTER.VDW>
-16.5429

>  <SCORE.INTER.norm>
-0.385654

>  <SCORE.INTRA>
-0.231325

>  <SCORE.INTRA.DIHEDRAL>
-1.15166

>  <SCORE.INTRA.DIHEDRAL.0>
3.49807

>  <SCORE.INTRA.POLAR>
0

>  <SCORE.INTRA.POLAR.0>
0

>  <SCORE.INTRA.REPUL>
0

>  <SCORE.INTRA.REPUL.0>
0

>  <SCORE.INTRA.SOLV>
0.835866

>  <SCORE.INTRA.SOLV.lig_0>
-73.062

>  <SCORE.INTRA.VDW>
-0.0734285

>  <SCORE.INTRA.VDW.0>
-1.83782

>  <SCORE.INTRA.norm>
-0.0105148

>  <SCORE.RESTR>
0

>  <SCORE.RESTR.CAVITY>
0

>  <SCORE.RESTR.norm>
0

>  <SCORE.SYSTEM>
0

>  <SCORE.SYSTEM.CONST>
0

>  <SCORE.SYSTEM.DIHEDRAL>
0

>  <SCORE.SYSTEM.SOLV>
0

>  <SCORE.SYSTEM.norm>
0

>  <SCORE.heavy>
22

>  <SCORE.norm>
-0.396169

>  <RMSD>
14.972

$$$$
ligand
 OpenBabel02271912143D
libRbt.so/2013.1/901 2013/11/27
 22 23  0  0  0  0  0  0  0  0999 V2000
  -36.7913    6.9538  -21.5888 N   0  0  0  0  0  0  0  0  0  0  0  0
  -37.6803    3.7174  -22.0225 C   0  0  1  0  0  0  0  0  0  0  0  0
  -37.6478    4.8632  -21.1247 O   0  0  0  0  0  0  0  0  0  0  0  0
  -34.7053    2.0590  -20.3621 P   0  0  1  0  0  0  0  0  0  0  0  0
  -37.7837    6.0536  -21.9176 C   0  0  2  0  0  0  0  0  0  0  0  0
  -34.8595    7.7609  -21.0165 N   0  0  0  0  0  0  0  0  0  0  0  0
  -38.1270    6.5115  -24.2346 O   0  0  0  0  0  0  0  0  0  0  0  0
  -37.5081    5.6153  -23.3042 C   0  0  2  0  0  0  0  0  0  0  0  0
  -35.6970   10.9080  -19.9547 N   0  0  0  0  0  0  0  0  0  0  0  0
  -39.4805    4.2940  -23.4086 O   0  0  0  0  0  0  0  0  0  0  0  0
  -38.0446    4.2606  -23.3494 C   0  0  2  0  0  0  0  0  0  0  0  0
  -35.6921    8.7884  -21.2436 C   0  0  0  0  0  0  0  0  0  0  0  0
  -38.0578    9.0366  -21.9548 N   0  0  0  0  0  0  0  0  0  0  0  0
  -36.0865    2.7067  -20.7247 O   0  0  0  0  0  0  0  0  0  0  0  0
  -36.3117    3.1284  -22.0305 C   0  0  0  0  0  0  0  0  0  0  0  0
  -34.5539    0.9152  -21.4294 O   0  0  0  0  0  0  0  0  0  0  0  0
  -35.5469    6.6220  -21.2258 C   0  0  0  0  0  0  0  0  0  0  0  0
  -34.7780   10.8068  -22.0358 O   0  0  0  0  0  0  0  0  0  0  0  0
  -35.3504   10.2175  -21.1192 C   0  0  0  0  0  0  0  0  0  0  0  0
  -36.9098    8.2881  -21.6074 C   0  0  0  0  0  0  0  0  0  0  0  0
  -33.6349    3.0981  -20.4108 O   0  5  0  0  0  0  0  0  0  0  0  0
  -34.6697    1.6653  -18.9421 O   0  0  0  0  0  0  0  0  0  0  0  0
  1 17  1  0  0  0  0
  1 20  1  0  0  0  0
  2 15  1  6  0  0  0
  2  3  1  0  0  0  0
  2 11  1  0  0  0  0
  3  5  1  0  0  0  0
  4 16  1  6  0  0  0
  4 21  1  0  0  0  0
  4 22  2  0  0  0  0
  4 14  1  0  0  0  0
  5  1  1  1  0  0  0
  5  8  1  0  0  0  0
  6 17  2  0  0  0  0
  6 12  1  0  0  0  0
  8  7  1  6  0  0  0
  8 11  1  0  0  0  0
  9 19  1  0  0  0  0
 11 10  1  1  0  0  0
 12 20  2  0  0  0  0
 12 19  1  0  0  0  0
 13 20  1  0  0  0  0
 14 15  1  0  0  0  0
 18 19  2  0  0  0  0
M  CHG  1  21  -1
M  END
>  <CHROM.1>
34.15594580,62.80084809,-53.01787601,-178.54755155,-98.46842407,-36.25808948
5.51132561,-21.51978303,1.72095326,-0.62957550,-0.02064381

>  <Name>
ligand

>  <RI>
0

>  <Rbt.Current_Directory>
/home/itssahil/PROJECTS/Mol_Feturizer/Test_systems_manuscript/rnas/4xwf

>  <Rbt.Executable>
rbdock ($Id: //depot/dev/client3/rdock/2013.1/src/exe/rbdock.cxx#4 $)

>  <Rbt.Library>
libRbt.so (2013.1, Build901 2013/11/27)

>  <Rbt.Parameter_File>
/export/apps/rDock/src/rDock_2013.1_src/data/scripts/dock_solv.prm

>  <Rbt.Receptor>
prm/blind_docking_80.prm

>  <SCORE>
-8.21637

>  <SCORE.INTER>
-6.99051

>  <SCORE.INTER.CONST>
1

>  <SCORE.INTER.POLAR>
0

>  <SCORE.INTER.ROT>
5

>  <SCORE.INTER.SOLV>
13.175

>  <SCORE.INTER.VDW>
-15.9853

>  <SCORE.INTER.norm>
-0.31775

>  <SCORE.INTRA>
-1.22586

>  <SCORE.INTRA.DIHEDRAL>
-1.43371

>  <SCORE.INTRA.DIHEDRAL.0>
3.49807

>  <SCORE.INTRA.POLAR>
0

>  <SCORE.INTRA.POLAR.0>
0

>  <SCORE.INTRA.REPUL>
0

>  <SCORE.INTRA.REPUL.0>
0

>  <SCORE.INTRA.SOLV>
-0.221315

>  <SCORE.INTRA.SOLV.lig_0>
-73.062

>  <SCORE.INTRA.VDW>
-0.398348

>  <SCORE.INTRA.VDW.0>
-1.83782

>  <SCORE.INTRA.norm>
-0.0557209

>  <SCORE.RESTR>
0

>  <SCORE.RESTR.CAVITY>
0

>  <SCORE.RESTR.norm>
0

>  <SCORE.SYSTEM>
0

>  <SCORE.SYSTEM.CONST>
0

>  <SCORE.SYSTEM.DIHEDRAL>
0

>  <SCORE.SYSTEM.SOLV>
0

>  <SCORE.SYSTEM.norm>
0

>  <SCORE.heavy>
22

>  <SCORE.norm>
-0.373471

>  <RMSD>
15.002

$$$$
ligand
 OpenBabel02271912143D
libRbt.so/2013.1/901 2013/11/27
 22 23  0  0  0  0  0  0  0  0999 V2000
  -34.8194    8.0508  -21.8696 N   0  0  0  0  0  0  0  0  0  0  0  0
  -36.8247    5.5959  -20.6843 C   0  0  1  0  0  0  0  0  0  0  0  0
  -35.7419    6.5278  -20.4035 O   0  0  0  0  0  0  0  0  0  0  0  0
  -34.2687    2.8561  -21.2453 P   0  0  1  0  0  0  0  0  0  0  0  0
  -35.9658    7.7166  -21.1787 C   0  0  2  0  0  0  0  0  0  0  0  0
  -32.8539    7.9031  -22.7785 N   0  0  0  0  0  0  0  0  0  0  0  0
  -37.6797    8.4725  -22.6577 O   0  0  0  0  0  0  0  0  0  0  0  0
  -36.9660    7.3199  -22.1951 C   0  0  2  0  0  0  0  0  0  0  0  0
  -33.2802   10.5667  -25.0823 N   0  0  0  0  0  0  0  0  0  0  0  0
  -38.6781    7.0267  -20.5733 O   0  0  0  0  0  0  0  0  0  0  0  0
  -37.8033    6.3539  -21.4943 C   0  0  2  0  0  0  0  0  0  0  0  0
  -33.3647    9.1073  -23.0781 C   0  0  0  0  0  0  0  0  0  0  0  0
  -35.4869   10.3062  -22.6068 N   0  0  0  0  0  0  0  0  0  0  0  0
  -35.1638    4.0188  -20.6926 O   0  0  0  0  0  0  0  0  0  0  0  0
  -36.2388    4.4631  -21.4546 C   0  0  0  0  0  0  0  0  0  0  0  0
  -33.7528    3.4217  -22.6180 O   0  0  0  0  0  0  0  0  0  0  0  0
  -33.7576    7.2510  -22.0223 C   0  0  0  0  0  0  0  0  0  0  0  0
  -31.6328   10.6402  -23.5118 O   0  0  0  0  0  0  0  0  0  0  0  0
  -32.6991   10.1492  -23.8819 C   0  0  0  0  0  0  0  0  0  0  0  0
  -34.6035    9.2065  -22.5118 C   0  0  0  0  0  0  0  0  0  0  0  0
  -33.1919    2.5398  -20.2611 O   0  5  0  0  0  0  0  0  0  0  0  0
  -35.0202    1.5885  -21.2777 O   0  0  0  0  0  0  0  0  0  0  0  0
  1 17  1  0  0  0  0
  1 20  1  0  0  0  0
  2 15  1  6  0  0  0
  2  3  1  0  0  0  0
  2 11  1  0  0  0  0
  3  5  1  0  0  0  0
  4 16  1  6  0  0  0
  4 21  1  0  0  0  0
  4 22  2  0  0  0  0
  4 14  1  0  0  0  0
  5  1  1  6  0  0  0
  5  8  1  0  0  0  0
  6 17  2  0  0  0  0
  6 12  1  0  0  0  0
  8  7  1  1  0  0  0
  8 11  1  0  0  0  0
  9 19  1  0  0  0  0
 11 10  1  1  0  0  0
 12 20  2  0  0  0  0
 12 19  1  0  0  0  0
 13 20  1  0  0  0  0
 14 15  1  0  0  0  0
 18 19  2  0  0  0  0
M  CHG  1  21  -1
M  END
>  <CHROM.1>
12.90789008,53.10006933,58.04105516,-177.35781722,117.92670352,-34.96993679
6.54710748,-21.92633907,1.41033902,0.28995732,-0.28215031

>  <Name>
ligand

>  <RI>
0

>  <Rbt.Current_Directory>
/home/itssahil/PROJECTS/Mol_Feturizer/Test_systems_manuscript/rnas/4xwf

>  <Rbt.Executable>
rbdock ($Id: //depot/dev/client3/rdock/2013.1/src/exe/rbdock.cxx#4 $)

>  <Rbt.Library>
libRbt.so (2013.1, Build901 2013/11/27)

>  <Rbt.Parameter_File>
/export/apps/rDock/src/rDock_2013.1_src/data/scripts/dock_solv.prm

>  <Rbt.Receptor>
prm/blind_docking_100.prm

>  <SCORE>
-8.14919

>  <SCORE.INTER>
-7.38526

>  <SCORE.INTER.CONST>
1

>  <SCORE.INTER.POLAR>
0

>  <SCORE.INTER.ROT>
5

>  <SCORE.INTER.SOLV>
12.6495

>  <SCORE.INTER.VDW>
-16.0733

>  <SCORE.INTER.norm>
-0.335693

>  <SCORE.INTRA>
-0.763937

>  <SCORE.INTRA.DIHEDRAL>
-1.79255

>  <SCORE.INTRA.DIHEDRAL.0>
3.49807

>  <SCORE.INTRA.POLAR>
0

>  <SCORE.INTRA.POLAR.0>
0

>  <SCORE.INTRA.REPUL>
0

>  <SCORE.INTRA.REPUL.0>
0

>  <SCORE.INTRA.SOLV>
0.717017

>  <SCORE.INTRA.SOLV.lig_0>
-73.062

>  <SCORE.INTRA.VDW>
-0.22617

>  <SCORE.INTRA.VDW.0>
-1.83782

>  <SCORE.INTRA.norm>
-0.0347244

>  <SCORE.RESTR>
0

>  <SCORE.RESTR.CAVITY>
0

>  <SCORE.RESTR.norm>
0

>  <SCORE.SYSTEM>
0

>  <SCORE.SYSTEM.CONST>
0

>  <SCORE.SYSTEM.DIHEDRAL>
0

>  <SCORE.SYSTEM.SOLV>
0

>  <SCORE.SYSTEM.norm>
0

>  <SCORE.heavy>
22

>  <SCORE.norm>
-0.370418

>  <RMSD>
15.008

$$$$
ligand
 OpenBabel02271912143D
libRbt.so/2013.1/901 2013/11/27
 22 23  0  0  0  0  0  0  0  0999 V2000
  -39.0441    5.3705  -20.9044 N   0  0  0  0  0  0  0  0  0  0  0  0
  -37.3181    3.0706  -22.6887 C   0  0  1  0  0  0  0  0  0  0  0  0
  -38.5115    3.3632  -21.9077 O   0  0  0  0  0  0  0  0  0  0  0  0
  -35.4815    1.0632  -20.0574 P   0  0  1  0  0  0  0  0  0  0  0  0
  -38.8536    4.7427  -22.1179 C   0  0  2  0  0  0  0  0  0  0  0  0
  -38.6303    6.3084  -18.9912 N   0  0  0  0  0  0  0  0  0  0  0  0
  -37.9897    6.5120  -23.4666 O   0  0  0  0  0  0  0  0  0  0  0  0
  -37.6399    5.3444  -22.7142 C   0  0  2  0  0  0  0  0  0  0  0  0
  -40.7649    6.8905  -16.9276 N   0  0  0  0  0  0  0  0  0  0  0  0
  -37.8608    4.0972  -24.7249 O   0  0  0  0  0  0  0  0  0  0  0  0
  -37.0861    4.2678  -23.5261 C   0  0  2  0  0  0  0  0  0  0  0  0
  -39.9517    6.3770  -19.2143 C   0  0  0  0  0  0  0  0  0  0  0  0
  -41.4867    5.6745  -21.0348 N   0  0  0  0  0  0  0  0  0  0  0  0
  -36.5307    1.6884  -21.0408 O   0  0  0  0  0  0  0  0  0  0  0  0
  -36.2043    2.8556  -21.7226 C   0  0  0  0  0  0  0  0  0  0  0  0
  -35.2564    2.2041  -18.9999 O   0  0  0  0  0  0  0  0  0  0  0  0
  -38.0695    5.6771  -20.0402 C   0  0  0  0  0  0  0  0  0  0  0  0
  -41.9411    7.5498  -18.7627 O   0  0  0  0  0  0  0  0  0  0  0  0
  -40.9475    6.9815  -18.3101 C   0  0  0  0  0  0  0  0  0  0  0  0
  -40.2196    5.7912  -20.4186 C   0  0  0  0  0  0  0  0  0  0  0  0
  -36.0190   -0.2092  -19.4918 O   0  5  0  0  0  0  0  0  0  0  0  0
  -34.2981    0.5823  -20.7929 O   0  0  0  0  0  0  0  0  0  0  0  0
  1 17  1  0  0  0  0
  1 20  1  0  0  0  0
  2 15  1  1  0  0  0
  2  3  1  0  0  0  0
  2 11  1  0  0  0  0
  3  5  1  0  0  0  0
  4 16  1  1  0  0  0
  4 21  1  0  0  0  0
  4 22  2  0  0  0  0
  4 14  1  0  0  0  0
  5  1  1  1  0  0  0
  5  8  1  0  0  0  0
  6 17  2  0  0  0  0
  6 12  1  0  0  0  0
  8  7  1  6  0  0  0
  8 11  1  0  0  0  0
  9 19  1  0  0  0  0
 11 10  1  6  0  0  0
 12 20  2  0  0  0  0
 12 19  1  0  0  0  0
 13 20  1  0  0  0  0
 14 15  1  0  0  0  0
 18 19  2  0  0  0  0
M  CHG  1  21  -1
M  END
>  <CHROM.1>
71.63159389,66.73397319,60.15095522,172.58228631,-34.34532332,-37.97060748
4.10220321,-20.79760558,3.11973902,-0.84071189,1.76992326

>  <Name>
ligand

>  <RI>
0

>  <Rbt.Current_Directory>
/home/itssahil/PROJECTS/Mol_Feturizer/Test_systems_manuscript/rnas/4xwf

>  <Rbt.Executable>
rbdock ($Id: //depot/dev/client3/rdock/2013.1/src/exe/rbdock.cxx#4 $)

>  <Rbt.Library>
libRbt.so (2013.1, Build901 2013/11/27)

>  <Rbt.Parameter_File>
/export/apps/rDock/src/rDock_2013.1_src/data/scripts/dock_solv.prm

>  <Rbt.Receptor>
prm/blind_docking_100.prm

>  <SCORE>
-10.0807

>  <SCORE.INTER>
-9.67725

>  <SCORE.INTER.CONST>
1

>  <SCORE.INTER.POLAR>
0

>  <SCORE.INTER.ROT>
5

>  <SCORE.INTER.SOLV>
18.1107

>  <SCORE.INTER.VDW>
-19.4217

>  <SCORE.INTER.norm>
-0.439875

>  <SCORE.INTRA>
-0.403441

>  <SCORE.INTRA.DIHEDRAL>
-0.522383

>  <SCORE.INTRA.DIHEDRAL.0>
3.49807

>  <SCORE.INTRA.POLAR>
0

>  <SCORE.INTRA.POLAR.0>
0

>  <SCORE.INTRA.REPUL>
0

>  <SCORE.INTRA.REPUL.0>
0

>  <SCORE.INTRA.SOLV>
-1.29291

>  <SCORE.INTRA.SOLV.lig_0>
-73.062

>  <SCORE.INTRA.VDW>
0.504203

>  <SCORE.INTRA.VDW.0>
-1.83782

>  <SCORE.INTRA.norm>
-0.0183382

>  <SCORE.RESTR>
0

>  <SCORE.RESTR.CAVITY>
0

>  <SCORE.RESTR.norm>
0

>  <SCORE.SYSTEM>
0

>  <SCORE.SYSTEM.CONST>
0

>  <SCORE.SYSTEM.DIHEDRAL>
0

>  <SCORE.SYSTEM.SOLV>
0

>  <SCORE.SYSTEM.norm>
0

>  <SCORE.heavy>
22

>  <SCORE.norm>
-0.458213

>  <RMSD>
15.019

$$$$
ligand
 OpenBabel02271912143D
libRbt.so/2013.1/901 2013/11/27
 22 23  0  0  0  0  0  0  0  0999 V2000
  -36.9878    6.7860  -21.6012 N   0  0  0  0  0  0  0  0  0  0  0  0
  -37.6973    3.4964  -21.9586 C   0  0  1  0  0  0  0  0  0  0  0  0
  -37.7777    4.6757  -21.1085 O   0  0  0  0  0  0  0  0  0  0  0  0
  -34.7670    2.0519  -20.0389 P   0  0  1  0  0  0  0  0  0  0  0  0
  -37.9137    5.8272  -21.9570 C   0  0  2  0  0  0  0  0  0  0  0  0
  -35.1510    7.7054  -20.8999 N   0  0  0  0  0  0  0  0  0  0  0  0
  -38.1205    6.1795  -24.3084 O   0  0  0  0  0  0  0  0  0  0  0  0
  -37.5256    5.3502  -23.3033 C   0  0  2  0  0  0  0  0  0  0  0  0
  -35.6905   10.8622  -22.4376 N   0  0  0  0  0  0  0  0  0  0  0  0
  -39.4243    3.9324  -23.4824 O   0  0  0  0  0  0  0  0  0  0  0  0
  -37.9957    3.9705  -23.3277 C   0  0  2  0  0  0  0  0  0  0  0  0
  -35.9842    8.6809  -21.2931 C   0  0  0  0  0  0  0  0  0  0  0  0
  -38.2679    8.7863  -22.2612 N   0  0  0  0  0  0  0  0  0  0  0  0
  -36.1471    2.6228  -20.5164 O   0  0  0  0  0  0  0  0  0  0  0  0
  -36.3059    2.9741  -21.8525 C   0  0  0  0  0  0  0  0  0  0  0  0
  -34.9812    1.8380  -18.4965 O   0  0  0  0  0  0  0  0  0  0  0  0
  -35.7795    6.5291  -21.0868 C   0  0  0  0  0  0  0  0  0  0  0  0
  -35.4539   10.6850  -20.1797 O   0  0  0  0  0  0  0  0  0  0  0  0
  -35.6987   10.1270  -21.2492 C   0  0  0  0  0  0  0  0  0  0  0  0
  -37.1419    8.1096  -21.7389 C   0  0  0  0  0  0  0  0  0  0  0  0
  -34.4481    0.8075  -20.7989 O   0  5  0  0  0  0  0  0  0  0  0  0
  -33.6642    2.9393  -20.4500 O   0  0  0  0  0  0  0  0  0  0  0  0
  1 17  1  0  0  0  0
  1 20  1  0  0  0  0
  2 15  1  6  0  0  0
  2  3  1  0  0  0  0
  2 11  1  0  0  0  0
  3  5  1  0  0  0  0
  4 16  1  1  0  0  0
  4 21  1  0  0  0  0
  4 22  2  0  0  0  0
  4 14  1  0  0  0  0
  5  1  1  1  0  0  0
  5  8  1  0  0  0  0
  6 17  2  0  0  0  0
  6 12  1  0  0  0  0
  8  7  1  6  0  0  0
  8 11  1  0  0  0  0
  9 19  1  0  0  0  0
 11 10  1  1  0  0  0
 12 20  2  0  0  0  0
 12 19  1  0  0  0  0
 13 20  1  0  0  0  0
 14 15  1  0  0  0  0
 18 19  2  0  0  0  0
M  CHG  1  21  -1
M  END
>  <CHROM.1>
30.94247773,62.37814511,177.98767495,-178.87661844,118.83386236,-36.38846477
5.36781228,-21.45609717,1.77601332,-0.70028185,-0.04192610

>  <Name>
ligand

>  <RI>
0

>  <Rbt.Current_Directory>
/home/itssahil/PROJECTS/Mol_Feturizer/Test_systems_manuscript/rnas/4xwf

>  <Rbt.Executable>
rbdock ($Id: //depot/dev/client3/rdock/2013.1/src/exe/rbdock.cxx#4 $)

>  <Rbt.Library>
libRbt.so (2013.1, Build901 2013/11/27)

>  <Rbt.Parameter_File>
/export/apps/rDock/src/rDock_2013.1_src/data/scripts/dock_solv.prm

>  <Rbt.Receptor>
prm/blind_docking_100.prm

>  <SCORE>
-8.27398

>  <SCORE.INTER>
-7.14051

>  <SCORE.INTER.CONST>
1

>  <SCORE.INTER.POLAR>
0

>  <SCORE.INTER.ROT>
5

>  <SCORE.INTER.SOLV>
11.3801

>  <SCORE.INTER.VDW>
-15.487

>  <SCORE.INTER.norm>
-0.324569

>  <SCORE.INTRA>
-1.13347

>  <SCORE.INTRA.DIHEDRAL>
-1.97176

>  <SCORE.INTRA.DIHEDRAL.0>
3.49807

>  <SCORE.INTRA.POLAR>
0

>  <SCORE.INTRA.POLAR.0>
0

>  <SCORE.INTRA.REPUL>
0

>  <SCORE.INTRA.REPUL.0>
0

>  <SCORE.INTRA.SOLV>
0.689185

>  <SCORE.INTRA.SOLV.lig_0>
-73.062

>  <SCORE.INTRA.VDW>
-0.492179

>  <SCORE.INTRA.VDW.0>
-1.83782

>  <SCORE.INTRA.norm>
-0.0515213

>  <SCORE.RESTR>
0

>  <SCORE.RESTR.CAVITY>
0

>  <SCORE.RESTR.norm>
0

>  <SCORE.SYSTEM>
0

>  <SCORE.SYSTEM.CONST>
0

>  <SCORE.SYSTEM.DIHEDRAL>
0

>  <SCORE.SYSTEM.SOLV>
0

>  <SCORE.SYSTEM.norm>
0

>  <SCORE.heavy>
22

>  <SCORE.norm>
-0.37609

>  <RMSD>
15.028

$$$$
ligand
 OpenBabel02271912143D
libRbt.so/2013.1/901 2013/11/27
 22 23  0  0  0  0  0  0  0  0999 V2000
  -35.1590   -3.1705  -18.5763 N   0  0  0  0  0  0  0  0  0  0  0  0
  -34.1760   -6.4072  -18.6746 C   0  0  1  0  0  0  0  0  0  0  0  0
  -33.9295   -5.0736  -18.1448 O   0  0  0  0  0  0  0  0  0  0  0  0
  -34.3133   -8.8260  -20.6373 P   0  0  1  0  0  0  0  0  0  0  0  0
  -35.1974   -4.4168  -17.9859 C   0  0  2  0  0  0  0  0  0  0  0  0
  -34.7064   -1.5761  -19.9778 N   0  0  0  0  0  0  0  0  0  0  0  0
  -37.4784   -5.0471  -18.2954 O   0  0  0  0  0  0  0  0  0  0  0  0
  -36.1440   -5.2284  -18.7835 C   0  0  2  0  0  0  0  0  0  0  0  0
  -37.3906    0.5452  -18.9794 N   0  0  0  0  0  0  0  0  0  0  0  0
  -35.9639   -7.0949  -17.3237 O   0  0  0  0  0  0  0  0  0  0  0  0
  -35.6434   -6.5890  -18.6305 C   0  0  2  0  0  0  0  0  0  0  0  0
  -35.5201   -1.0835  -19.0313 C   0  0  0  0  0  0  0  0  0  0  0  0
  -36.6548   -1.9858  -17.0159 N   0  0  0  0  0  0  0  0  0  0  0  0
  -33.2447   -7.7306  -20.2955 O   0  0  0  0  0  0  0  0  0  0  0  0
  -33.6653   -6.4238  -20.0742 C   0  0  0  0  0  0  0  0  0  0  0  0
  -34.8833   -9.2237  -19.2276 O   0  0  0  0  0  0  0  0  0  0  0  0
  -34.4788   -2.8716  -19.6892 C   0  0  0  0  0  0  0  0  0  0  0  0
  -35.2260    1.2470  -18.8919 O   0  0  0  0  0  0  0  0  0  0  0  0
  -36.0143    0.3039  -18.9574 C   0  0  0  0  0  0  0  0  0  0  0  0
  -35.8120   -2.0824  -18.1468 C   0  0  0  0  0  0  0  0  0  0  0  0
  -35.3255   -8.2637  -21.5792 O   0  5  0  0  0  0  0  0  0  0  0  0
  -33.7177   -9.9007  -21.4516 O   0  0  0  0  0  0  0  0  0  0  0  0
  1 17  1  0  0  0  0
  1 20  1  0  0  0  0
  2 15  1  6  0  0  0
  2  3  1  0  0  0  0
  2 11  1  0  0  0  0
  3  5  1  0  0  0  0
  4 16  1  1  0  0  0
  4 21  1  0  0  0  0
  4 22  2  0  0  0  0
  4 14  1  0  0  0  0
  5  1  1  6  0  0  0
  5  8  1  0  0  0  0
  6 17  2  0  0  0  0
  6 12  1  0  0  0  0
  8  7  1  1  0  0  0
  8 11  1  0  0  0  0
  9 19  1  0  0  0  0
 11 10  1  1  0  0  0
 12 20  2  0  0  0  0
 12 19  1  0  0  0  0
 13 20  1  0  0  0  0
 14 15  1  0  0  0  0
 18 19  2  0  0  0  0
M  CHG  1  21  -1
M  END
>  <CHROM.1>
34.75852102,148.96190104,-81.52526684,79.83310637,120.83933480,-35.14621255
-4.95574363,-19.21159431,1.86665410,0.88684606,-0.03654450

>  <Name>
ligand

>  <RI>
0

>  <Rbt.Current_Directory>
/home/itssahil/PROJECTS/Mol_Feturizer/Test_systems_manuscript/rnas/4xwf

>  <Rbt.Executable>
rbdock ($Id: //depot/dev/client3/rdock/2013.1/src/exe/rbdock.cxx#4 $)

>  <Rbt.Library>
libRbt.so (2013.1, Build901 2013/11/27)

>  <Rbt.Parameter_File>
/export/apps/rDock/src/rDock_2013.1_src/data/scripts/dock_solv.prm

>  <Rbt.Receptor>
prm/blind_docking_100.prm

>  <SCORE>
-4.54266

>  <SCORE.INTER>
-6.90353

>  <SCORE.INTER.CONST>
1

>  <SCORE.INTER.POLAR>
0

>  <SCORE.INTER.ROT>
5

>  <SCORE.INTER.SOLV>
13.3177

>  <SCORE.INTER.VDW>
-15.9749

>  <SCORE.INTER.norm>
-0.313797

>  <SCORE.INTRA>
2.36087

>  <SCORE.INTRA.DIHEDRAL>
3.19042

>  <SCORE.INTRA.DIHEDRAL.0>
3.49807

>  <SCORE.INTRA.POLAR>
0

>  <SCORE.INTRA.POLAR.0>
0

>  <SCORE.INTRA.REPUL>
0

>  <SCORE.INTRA.REPUL.0>
0

>  <SCORE.INTRA.SOLV>
2.26106

>  <SCORE.INTRA.SOLV.lig_0>
-73.062

>  <SCORE.INTRA.VDW>
-0.364869

>  <SCORE.INTRA.VDW.0>
-1.83782

>  <SCORE.INTRA.norm>
0.107312

>  <SCORE.RESTR>
0

>  <SCORE.RESTR.CAVITY>
0

>  <SCORE.RESTR.norm>
0

>  <SCORE.SYSTEM>
0

>  <SCORE.SYSTEM.CONST>
0

>  <SCORE.SYSTEM.DIHEDRAL>
0

>  <SCORE.SYSTEM.SOLV>
0

>  <SCORE.SYSTEM.norm>
0

>  <SCORE.heavy>
22

>  <SCORE.norm>
-0.206485

>  <RMSD>
15.436

$$$$
ligand
 OpenBabel02271912143D
libRbt.so/2013.1/901 2013/11/27
 22 23  0  0  0  0  0  0  0  0999 V2000
  -34.2421   -6.7240  -19.8975 N   0  0  0  0  0  0  0  0  0  0  0  0
  -36.4518   -5.6301  -17.5794 C   0  0  1  0  0  0  0  0  0  0  0  0
  -35.9484   -5.5029  -18.9397 O   0  0  0  0  0  0  0  0  0  0  0  0
  -35.2047   -4.4736  -14.1933 P   0  0  1  0  0  0  0  0  0  0  0  0
  -35.5178   -6.8017  -19.3779 C   0  0  2  0  0  0  0  0  0  0  0  0
  -32.2057   -6.0602  -20.2488 N   0  0  0  0  0  0  0  0  0  0  0  0
  -35.5438   -8.9965  -18.4410 O   0  0  0  0  0  0  0  0  0  0  0  0
  -35.4161   -7.6025  -18.1373 C   0  0  2  0  0  0  0  0  0  0  0  0
  -31.7452   -7.8601  -23.2786 N   0  0  0  0  0  0  0  0  0  0  0  0
  -37.7641   -7.5626  -17.7736 O   0  0  0  0  0  0  0  0  0  0  0  0
  -36.4932   -7.0829  -17.3037 C   0  0  2  0  0  0  0  0  0  0  0  0
  -32.4276   -7.1482  -21.0023 C   0  0  0  0  0  0  0  0  0  0  0  0
  -34.3297   -8.7018  -21.3660 N   0  0  0  0  0  0  0  0  0  0  0  0
  -35.9981   -5.0775  -15.4034 O   0  0  0  0  0  0  0  0  0  0  0  0
  -35.4839   -4.9321  -16.6872 C   0  0  0  0  0  0  0  0  0  0  0  0
  -36.0069   -4.9903  -12.9443 O   0  0  0  0  0  0  0  0  0  0  0  0
  -33.3369   -5.7953  -19.5679 C   0  0  0  0  0  0  0  0  0  0  0  0
  -30.3994   -8.2409  -21.4815 O   0  0  0  0  0  0  0  0  0  0  0  0
  -31.4544   -7.7773  -21.9142 C   0  0  0  0  0  0  0  0  0  0  0  0
  -33.7069   -7.5738  -20.7841 C   0  0  0  0  0  0  0  0  0  0  0  0
  -33.7836   -4.9266  -14.2481 O   0  5  0  0  0  0  0  0  0  0  0  0
  -35.0552   -3.0148  -14.3425 O   0  0  0  0  0  0  0  0  0  0  0  0
  1 17  1  0  0  0  0
  1 20  1  0  0  0  0
  2 15  1  1  0  0  0
  2  3  1  0  0  0  0
  2 11  1  0  0  0  0
  3  5  1  0  0  0  0
  4 16  1  1  0  0  0
  4 21  1  0  0  0  0
  4 22  2  0  0  0  0
  4 14  1  0  0  0  0
  5  1  1  1  0  0  0
  5  8  1  0  0  0  0
  6 17  2  0  0  0  0
  6 12  1  0  0  0  0
  8  7  1  6  0  0  0
  8 11  1  0  0  0  0
  9 19  1  0  0  0  0
 11 10  1  6  0  0  0
 12 20  2  0  0  0  0
 12 19  1  0  0  0  0
 13 20  1  0  0  0  0
 14 15  1  0  0  0  0
 18 19  2  0  0  0  0
M  CHG  1  21  -1
M  END
>  <CHROM.1>
25.70594632,-179.93613627,-173.53344765,178.94553378,-119.07935451,-34.56825620
-6.33354895,-18.05029596,1.15719475,-0.34422860,-2.13086714

>  <Name>
ligand

>  <RI>
0

>  <Rbt.Current_Directory>
/home/itssahil/PROJECTS/Mol_Feturizer/Test_systems_manuscript/rnas/4xwf

>  <Rbt.Executable>
rbdock ($Id: //depot/dev/client3/rdock/2013.1/src/exe/rbdock.cxx#4 $)

>  <Rbt.Library>
libRbt.so (2013.1, Build901 2013/11/27)

>  <Rbt.Parameter_File>
/export/apps/rDock/src/rDock_2013.1_src/data/scripts/dock_solv.prm

>  <Rbt.Receptor>
prm/blind_docking_80.prm

>  <SCORE>
-8.83675

>  <SCORE.INTER>
-8.2197

>  <SCORE.INTER.CONST>
1

>  <SCORE.INTER.POLAR>
0

>  <SCORE.INTER.ROT>
5

>  <SCORE.INTER.SOLV>
14.7143

>  <SCORE.INTER.VDW>
-17.3179

>  <SCORE.INTER.norm>
-0.373623

>  <SCORE.INTRA>
-0.617612

>  <SCORE.INTRA.DIHEDRAL>
-1.96663

>  <SCORE.INTRA.DIHEDRAL.0>
3.49807

>  <SCORE.INTRA.POLAR>
0

>  <SCORE.INTRA.POLAR.0>
0

>  <SCORE.INTRA.REPUL>
0

>  <SCORE.INTRA.REPUL.0>
0

>  <SCORE.INTRA.SOLV>
0.995131

>  <SCORE.INTRA.SOLV.lig_0>
-73.062

>  <SCORE.INTRA.VDW>
-0.131861

>  <SCORE.INTRA.VDW.0>
-1.83782

>  <SCORE.INTRA.norm>
-0.0280733

>  <SCORE.RESTR>
0.000569152

>  <SCORE.RESTR.CAVITY>
0.000569152

>  <SCORE.RESTR.norm>
2.58705e-05

>  <SCORE.SYSTEM>
0

>  <SCORE.SYSTEM.CONST>
0

>  <SCORE.SYSTEM.DIHEDRAL>
0

>  <SCORE.SYSTEM.SOLV>
0

>  <SCORE.SYSTEM.norm>
0

>  <SCORE.heavy>
22

>  <SCORE.norm>
-0.40167

>  <RMSD>
15.729

$$$$
ligand
 OpenBabel02271912143D
libRbt.so/2013.1/901 2013/11/27
 22 23  0  0  0  0  0  0  0  0999 V2000
  -34.5426   -7.8221  -19.8778 N   0  0  0  0  0  0  0  0  0  0  0  0
  -37.2932   -6.9365  -18.1164 C   0  0  1  0  0  0  0  0  0  0  0  0
  -36.7653   -7.5147  -19.3439 O   0  0  0  0  0  0  0  0  0  0  0  0
  -37.6929   -3.4040  -16.8198 P   0  0  1  0  0  0  0  0  0  0  0  0
  -35.5512   -8.2119  -19.0211 C   0  0  2  0  0  0  0  0  0  0  0  0
  -33.0097   -6.6159  -20.8296 N   0  0  0  0  0  0  0  0  0  0  0  0
  -34.3501   -8.6731  -17.0110 O   0  0  0  0  0  0  0  0  0  0  0  0
  -35.1764   -7.7125  -17.6791 C   0  0  2  0  0  0  0  0  0  0  0  0
  -30.8881   -7.6182  -22.6791 N   0  0  0  0  0  0  0  0  0  0  0  0
  -37.0498   -8.7400  -16.6390 O   0  0  0  0  0  0  0  0  0  0  0  0
  -36.4598   -7.4875  -17.0254 C   0  0  2  0  0  0  0  0  0  0  0  0
  -33.0065   -7.8280  -21.4052 C   0  0  0  0  0  0  0  0  0  0  0  0
  -34.2734   -9.9420  -21.1063 N   0  0  0  0  0  0  0  0  0  0  0  0
  -37.8124   -4.9369  -17.1274 O   0  0  0  0  0  0  0  0  0  0  0  0
  -37.1404   -5.4585  -18.2274 C   0  0  0  0  0  0  0  0  0  0  0  0
  -38.5266   -3.2371  -15.4978 O   0  0  0  0  0  0  0  0  0  0  0  0
  -33.9694   -6.6130  -19.8849 C   0  0  0  0  0  0  0  0  0  0  0  0
  -32.4538   -9.1663  -23.2602 O   0  0  0  0  0  0  0  0  0  0  0  0
  -32.1166   -8.2595  -22.4991 C   0  0  0  0  0  0  0  0  0  0  0  0
  -33.9671   -8.5942  -20.8091 C   0  0  0  0  0  0  0  0  0  0  0  0
  -36.2539   -3.0270  -16.6969 O   0  5  0  0  0  0  0  0  0  0  0  0
  -38.1090   -2.6033  -17.9852 O   0  0  0  0  0  0  0  0  0  0  0  0
  1 17  1  0  0  0  0
  1 20  1  0  0  0  0
  2 15  1  6  0  0  0
  2  3  1  0  0  0  0
  2 11  1  0  0  0  0
  3  5  1  0  0  0  0
  4 16  1  1  0  0  0
  4 21  1  0  0  0  0
  4 22  2  0  0  0  0
  4 14  1  0  0  0  0
  5  1  1  6  0  0  0
  5  8  1  0  0  0  0
  6 17  2  0  0  0  0
  6 12  1  0  0  0  0
  8  7  1  1  0  0  0
  8 11  1  0  0  0  0
  9 19  1  0  0  0  0
 11 10  1  6  0  0  0
 12 20  2  0  0  0  0
 12 19  1  0  0  0  0
 13 20  1  0  0  0  0
 14 15  1  0  0  0  0
 18 19  2  0  0  0  0
M  CHG  1  21  -1
M  END
>  <CHROM.1>
69.29039056,172.26686116,-177.72569960,171.85949384,24.28076424,-35.50883442
-6.58534979,-18.86242009,0.45551668,-0.85160087,2.98072346

>  <Name>
ligand

>  <RI>
0

>  <Rbt.Current_Directory>
/home/itssahil/PROJECTS/Mol_Feturizer/Test_systems_manuscript/rnas/4xwf

>  <Rbt.Executable>
rbdock ($Id: //depot/dev/client3/rdock/2013.1/src/exe/rbdock.cxx#4 $)

>  <Rbt.Library>
libRbt.so (2013.1, Build901 2013/11/27)

>  <Rbt.Parameter_File>
/export/apps/rDock/src/rDock_2013.1_src/data/scripts/dock_solv.prm

>  <Rbt.Receptor>
prm/blind_docking_60.prm

>  <SCORE>
-10.3576

>  <SCORE.INTER>
-10.2762

>  <SCORE.INTER.CONST>
1

>  <SCORE.INTER.POLAR>
0

>  <SCORE.INTER.ROT>
5

>  <SCORE.INTER.SOLV>
15.2008

>  <SCORE.INTER.VDW>
-18.8511

>  <SCORE.INTER.norm>
-0.467099

>  <SCORE.INTRA>
-0.0838415

>  <SCORE.INTRA.DIHEDRAL>
-0.83655

>  <SCORE.INTRA.DIHEDRAL.0>
3.49807

>  <SCORE.INTRA.POLAR>
0

>  <SCORE.INTRA.POLAR.0>
0

>  <SCORE.INTRA.REPUL>
0

>  <SCORE.INTRA.REPUL.0>
0

>  <SCORE.INTRA.SOLV>
-0.348068

>  <SCORE.INTRA.SOLV.lig_0>
-73.062

>  <SCORE.INTRA.VDW>
0.508468

>  <SCORE.INTRA.VDW.0>
-1.83782

>  <SCORE.INTRA.norm>
-0.00381098

>  <SCORE.RESTR>
0.00242257

>  <SCORE.RESTR.CAVITY>
0.00242257

>  <SCORE.RESTR.norm>
0.000110117

>  <SCORE.SYSTEM>
0

>  <SCORE.SYSTEM.CONST>
0

>  <SCORE.SYSTEM.DIHEDRAL>
0

>  <SCORE.SYSTEM.SOLV>
0

>  <SCORE.SYSTEM.norm>
0

>  <SCORE.heavy>
22

>  <SCORE.norm>
-0.4708

>  <RMSD>
16.714

$$$$
ligand
 OpenBabel02271912143D
libRbt.so/2013.1/901 2013/11/27
 22 23  0  0  0  0  0  0  0  0999 V2000
  -12.9103   -9.8362   -5.8252 N   0  0  0  0  0  0  0  0  0  0  0  0
  -11.2474  -10.6702   -8.6522 C   0  0  1  0  0  0  0  0  0  0  0  0
  -12.4873  -10.7628   -7.8946 O   0  0  0  0  0  0  0  0  0  0  0  0
   -7.8537  -11.1887   -8.6471 P   0  0  1  0  0  0  0  0  0  0  0  0
  -12.6440   -9.5457   -7.1473 C   0  0  2  0  0  0  0  0  0  0  0  0
  -13.7580   -9.7273   -3.8301 N   0  0  0  0  0  0  0  0  0  0  0  0
  -11.4278   -7.4994   -6.9748 O   0  0  0  0  0  0  0  0  0  0  0  0
  -11.3064   -8.9125   -7.1751 C   0  0  2  0  0  0  0  0  0  0  0  0
  -12.9935  -13.1030   -2.9544 N   0  0  0  0  0  0  0  0  0  0  0  0
  -11.4173   -8.4962   -9.5121 O   0  0  0  0  0  0  0  0  0  0  0  0
  -10.7814   -9.2761   -8.4856 C   0  0  2  0  0  0  0  0  0  0  0  0
  -12.9607  -10.8050   -3.8882 C   0  0  0  0  0  0  0  0  0  0  0  0
  -11.5509  -11.8826   -5.6246 N   0  0  0  0  0  0  0  0  0  0  0  0
   -9.2688  -11.7760   -8.9809 O   0  0  0  0  0  0  0  0  0  0  0  0
  -10.2920  -11.6413   -8.0488 C   0  0  0  0  0  0  0  0  0  0  0  0
   -8.1240   -9.6447   -8.5317 O   0  0  0  0  0  0  0  0  0  0  0  0
  -13.7201   -9.1237   -5.0333 C   0  0  0  0  0  0  0  0  0  0  0  0
  -12.2520  -11.3456   -1.7105 O   0  0  0  0  0  0  0  0  0  0  0  0
  -12.7037  -11.7467   -2.7829 C   0  0  0  0  0  0  0  0  0  0  0  0
  -12.4256  -10.8820   -5.1425 C   0  0  0  0  0  0  0  0  0  0  0  0
   -7.3285  -11.8210   -7.4012 O   0  5  0  0  0  0  0  0  0  0  0  0
   -6.8584  -11.6267   -9.6422 O   0  0  0  0  0  0  0  0  0  0  0  0
  1 17  1  0  0  0  0
  1 20  1  0  0  0  0
  2 15  1  1  0  0  0
  2  3  1  0  0  0  0
  2 11  1  0  0  0  0
  3  5  1  0  0  0  0
  4 16  1  1  0  0  0
  4 21  1  0  0  0  0
  4 22  2  0  0  0  0
  4 14  1  0  0  0  0
  5  1  1  1  0  0  0
  5  8  1  0  0  0  0
  6 17  2  0  0  0  0
  6 12  1  0  0  0  0
  8  7  1  6  0  0  0
  8 11  1  0  0  0  0
  9 19  1  0  0  0  0
 11 10  1  6  0  0  0
 12 20  2  0  0  0  0
 12 19  1  0  0  0  0
 13 20  1  0  0  0  0
 14 15  1  0  0  0  0
 18 19  2  0  0  0  0
M  CHG  1  21  -1
M  END
>  <CHROM.1>
-144.75802336,165.26553954,-63.36295221,110.31764666,121.98977235,-10.91445704
-10.55009813,-6.73992343,2.49316119,-0.58481049,2.20826119

>  <Name>
ligand

>  <RI>
0

>  <Rbt.Current_Directory>
/home/itssahil/PROJECTS/Mol_Feturizer/Test_systems_manuscript/rnas/4xwf

>  <Rbt.Executable>
rbdock ($Id: //depot/dev/client3/rdock/2013.1/src/exe/rbdock.cxx#4 $)

>  <Rbt.Library>
libRbt.so (2013.1, Build901 2013/11/27)

>  <Rbt.Parameter_File>
/export/apps/rDock/src/rDock_2013.1_src/data/scripts/dock_solv.prm

>  <Rbt.Receptor>
prm/blind_docking_20.prm

>  <SCORE>
6.45832

>  <SCORE.INTER>
0.0761177

>  <SCORE.INTER.CONST>
1

>  <SCORE.INTER.POLAR>
0

>  <SCORE.INTER.ROT>
5

>  <SCORE.INTER.SOLV>
27.1296

>  <SCORE.INTER.VDW>
-15.9258

>  <SCORE.INTER.norm>
0.00345989

>  <SCORE.INTRA>
5.52453

>  <SCORE.INTRA.DIHEDRAL>
5.56197

>  <SCORE.INTRA.DIHEDRAL.0>
3.49807

>  <SCORE.INTRA.POLAR>
0

>  <SCORE.INTRA.POLAR.0>
0

>  <SCORE.INTRA.REPUL>
0

>  <SCORE.INTRA.REPUL.0>
0

>  <SCORE.INTRA.SOLV>
4.90412

>  <SCORE.INTRA.SOLV.lig_0>
-73.062

>  <SCORE.INTRA.VDW>
0.291489

>  <SCORE.INTRA.VDW.0>
-1.83782

>  <SCORE.INTRA.norm>
0.251115

>  <SCORE.RESTR>
0.857665

>  <SCORE.RESTR.CAVITY>
0.857665

>  <SCORE.RESTR.norm>
0.0389848

>  <SCORE.SYSTEM>
0

>  <SCORE.SYSTEM.CONST>
0

>  <SCORE.SYSTEM.DIHEDRAL>
0

>  <SCORE.SYSTEM.SOLV>
0

>  <SCORE.SYSTEM.norm>
0

>  <SCORE.heavy>
22

>  <SCORE.norm>
0.29356

>  <RMSD>
23.222

$$$$
ligand
 OpenBabel02271912143D
libRbt.so/2013.1/901 2013/11/27
 22 23  0  0  0  0  0  0  0  0999 V2000
  -12.0740  -10.2515   -5.7741 N   0  0  0  0  0  0  0  0  0  0  0  0
  -11.5044   -9.9948   -9.1000 C   0  0  1  0  0  0  0  0  0  0  0  0
  -12.4110  -10.4333   -8.0485 O   0  0  0  0  0  0  0  0  0  0  0  0
   -8.0103  -11.2966   -8.4298 P   0  0  1  0  0  0  0  0  0  0  0  0
  -12.2701   -9.5347   -6.9363 C   0  0  2  0  0  0  0  0  0  0  0  0
  -11.3216  -11.7346   -4.3792 N   0  0  0  0  0  0  0  0  0  0  0  0
  -11.0161   -7.5479   -6.5166 O   0  0  0  0  0  0  0  0  0  0  0  0
  -11.0074   -8.8080   -7.1977 C   0  0  2  0  0  0  0  0  0  0  0  0
  -12.0734   -9.9658   -1.4149 N   0  0  0  0  0  0  0  0  0  0  0  0
  -11.9027   -7.6848   -9.0908 O   0  0  0  0  0  0  0  0  0  0  0  0
  -10.9736   -8.6893   -8.6502 C   0  0  2  0  0  0  0  0  0  0  0  0
  -12.1373  -10.9057   -3.7098 C   0  0  0  0  0  0  0  0  0  0  0  0
  -13.4835   -8.8971   -4.2726 N   0  0  0  0  0  0  0  0  0  0  0  0
   -9.3613  -10.5016   -8.4707 O   0  0  0  0  0  0  0  0  0  0  0  0
  -10.4254  -11.0171   -9.2025 C   0  0  0  0  0  0  0  0  0  0  0  0
   -8.1982  -12.2609   -7.2029 O   0  0  0  0  0  0  0  0  0  0  0  0
  -11.2889  -11.3294   -5.6631 C   0  0  0  0  0  0  0  0  0  0  0  0
  -13.0698  -11.9709   -1.8302 O   0  0  0  0  0  0  0  0  0  0  0  0
  -12.4667  -10.9944   -2.2752 C   0  0  0  0  0  0  0  0  0  0  0  0
  -12.6126   -9.9672   -4.5808 C   0  0  0  0  0  0  0  0  0  0  0  0
   -7.7949  -11.9884   -9.7348 O   0  5  0  0  0  0  0  0  0  0  0  0
   -6.8619  -10.3734   -8.3923 O   0  0  0  0  0  0  0  0  0  0  0  0
  1 17  1  0  0  0  0
  1 20  1  0  0  0  0
  2 15  1  1  0  0  0
  2  3  1  0  0  0  0
  2 11  1  0  0  0  0
  3  5  1  0  0  0  0
  4 16  1  1  0  0  0
  4 21  1  0  0  0  0
  4 22  2  0  0  0  0
  4 14  1  0  0  0  0
  5  1  1  1  0  0  0
  5  8  1  0  0  0  0
  6 17  2  0  0  0  0
  6 12  1  0  0  0  0
  8  7  1  1  0  0  0
  8 11  1  0  0  0  0
  9 19  1  0  0  0  0
 11 10  1  1  0  0  0
 12 20  2  0  0  0  0
 12 19  1  0  0  0  0
 13 20  1  0  0  0  0
 14 15  1  0  0  0  0
 18 19  2  0  0  0  0
M  CHG  1  21  -1
M  END
>  <CHROM.1>
41.54527117,-98.14059840,-88.72959685,-176.69943238,115.43426757,-10.77982350
-10.33476357,-6.59483861,2.33356117,-0.64170456,2.05687544

>  <Name>
ligand

>  <RI>
0

>  <Rbt.Current_Directory>
/home/itssahil/PROJECTS/Mol_Feturizer/Test_systems_manuscript/rnas/4xwf

>  <Rbt.Executable>
rbdock ($Id: //depot/dev/client3/rdock/2013.1/src/exe/rbdock.cxx#4 $)

>  <Rbt.Library>
libRbt.so (2013.1, Build901 2013/11/27)

>  <Rbt.Parameter_File>
/export/apps/rDock/src/rDock_2013.1_src/data/scripts/dock_solv.prm

>  <Rbt.Receptor>
prm/blind_docking_20.prm

>  <SCORE>
5.09851

>  <SCORE.INTER>
-1.01958

>  <SCORE.INTER.CONST>
1

>  <SCORE.INTER.POLAR>
0

>  <SCORE.INTER.ROT>
5

>  <SCORE.INTER.SOLV>
23.9015

>  <SCORE.INTER.VDW>
-15.5802

>  <SCORE.INTER.norm>
-0.0463448

>  <SCORE.INTRA>
4.57611

>  <SCORE.INTRA.DIHEDRAL>
2.85737

>  <SCORE.INTRA.DIHEDRAL.0>
3.49807

>  <SCORE.INTRA.POLAR>
0

>  <SCORE.INTRA.POLAR.0>
0

>  <SCORE.INTRA.REPUL>
0

>  <SCORE.INTRA.REPUL.0>
0

>  <SCORE.INTRA.SOLV>
0.562406

>  <SCORE.INTRA.SOLV.lig_0>
-73.062

>  <SCORE.INTRA.VDW>
2.86622

>  <SCORE.INTRA.VDW.0>
-1.83782

>  <SCORE.INTRA.norm>
0.208005

>  <SCORE.RESTR>
1.54198

>  <SCORE.RESTR.CAVITY>
1.54198

>  <SCORE.RESTR.norm>
0.07009

>  <SCORE.SYSTEM>
0

>  <SCORE.SYSTEM.CONST>
0

>  <SCORE.SYSTEM.DIHEDRAL>
0

>  <SCORE.SYSTEM.SOLV>
0

>  <SCORE.SYSTEM.norm>
0

>  <SCORE.heavy>
22

>  <SCORE.norm>
0.23175

>  <RMSD>
23.303

$$$$
ligand
 OpenBabel02271912143D
libRbt.so/2013.1/901 2013/11/27
 22 23  0  0  0  0  0  0  0  0999 V2000
  -12.4359  -10.5434   -5.7404 N   0  0  0  0  0  0  0  0  0  0  0  0
  -11.4670  -10.0790   -8.9495 C   0  0  1  0  0  0  0  0  0  0  0  0
  -12.5097  -10.5435   -8.0457 O   0  0  0  0  0  0  0  0  0  0  0  0
   -7.8974  -11.2268   -8.7067 P   0  0  1  0  0  0  0  0  0  0  0  0
  -12.4618   -9.7357   -6.8585 C   0  0  2  0  0  0  0  0  0  0  0  0
  -12.0939  -12.2580   -4.4543 N   0  0  0  0  0  0  0  0  0  0  0  0
  -11.1801   -7.8529   -6.1456 O   0  0  0  0  0  0  0  0  0  0  0  0
  -11.1464   -9.0596   -6.9166 C   0  0  2  0  0  0  0  0  0  0  0  0
  -11.9052  -11.8392   -1.3938 N   0  0  0  0  0  0  0  0  0  0  0  0
  -11.7618   -7.7579   -8.8071 O   0  0  0  0  0  0  0  0  0  0  0  0
  -10.9362   -8.8389   -8.3422 C   0  0  2  0  0  0  0  0  0  0  0  0
  -12.6011  -11.2669   -3.7052 C   0  0  0  0  0  0  0  0  0  0  0  0
  -13.3206   -8.9248   -4.1054 N   0  0  0  0  0  0  0  0  0  0  0  0
   -9.2158  -10.4740   -9.0984 O   0  0  0  0  0  0  0  0  0  0  0  0
  -10.4294  -11.1467   -9.0067 C   0  0  0  0  0  0  0  0  0  0  0  0
   -6.8778  -10.0575   -8.4543 O   0  0  0  0  0  0  0  0  0  0  0  0
  -11.9980  -11.8077   -5.7198 C   0  0  0  0  0  0  0  0  0  0  0  0
  -13.9689  -10.9726   -1.8131 O   0  0  0  0  0  0  0  0  0  0  0  0
  -12.8811  -11.3373   -2.2591 C   0  0  0  0  0  0  0  0  0  0  0  0
  -12.8162  -10.1828   -4.5075 C   0  0  0  0  0  0  0  0  0  0  0  0
   -8.1492  -12.0967   -7.5202 O   0  5  0  0  0  0  0  0  0  0  0  0
   -7.5403  -12.2233   -9.7324 O   0  0  0  0  0  0  0  0  0  0  0  0
  1 17  1  0  0  0  0
  1 20  1  0  0  0  0
  2 15  1  1  0  0  0
  2  3  1  0  0  0  0
  2 11  1  0  0  0  0
  3  5  1  0  0  0  0
  4 16  1  1  0  0  0
  4 21  1  0  0  0  0
  4 22  2  0  0  0  0
  4 14  1  0  0  0  0
  5  1  1  1  0  0  0
  5  8  1  0  0  0  0
  6 17  2  0  0  0  0
  6 12  1  0  0  0  0
  8  7  1  1  0  0  0
  8 11  1  0  0  0  0
  9 19  1  0  0  0  0
 11 10  1  6  0  0  0
 12 20  2  0  0  0  0
 12 19  1  0  0  0  0
 13 20  1  0  0  0  0
 14 15  1  0  0  0  0
 18 19  2  0  0  0  0
M  CHG  1  21  -1
M  END
>  <CHROM.1>
24.33992487,-143.67156084,-160.92531864,159.90422639,48.24804028,-10.90758809
-10.48942699,-6.58865624,2.41401568,-0.62375007,2.15801597

>  <Name>
ligand

>  <RI>
0

>  <Rbt.Current_Directory>
/home/itssahil/PROJECTS/Mol_Feturizer/Test_systems_manuscript/rnas/4xwf

>  <Rbt.Executable>
rbdock ($Id: //depot/dev/client3/rdock/2013.1/src/exe/rbdock.cxx#4 $)

>  <Rbt.Library>
libRbt.so (2013.1, Build901 2013/11/27)

>  <Rbt.Parameter_File>
/export/apps/rDock/src/rDock_2013.1_src/data/scripts/dock_solv.prm

>  <Rbt.Receptor>
prm/blind_docking_20.prm

>  <SCORE>
2.84077

>  <SCORE.INTER>
-3.53101

>  <SCORE.INTER.CONST>
1

>  <SCORE.INTER.POLAR>
0

>  <SCORE.INTER.ROT>
5

>  <SCORE.INTER.SOLV>
21.3702

>  <SCORE.INTER.VDW>
-16.4107

>  <SCORE.INTER.norm>
-0.160501

>  <SCORE.INTRA>
4.91813

>  <SCORE.INTRA.DIHEDRAL>
5.23672

>  <SCORE.INTRA.DIHEDRAL.0>
3.49807

>  <SCORE.INTRA.POLAR>
0

>  <SCORE.INTRA.POLAR.0>
0

>  <SCORE.INTRA.REPUL>
0

>  <SCORE.INTRA.REPUL.0>
0

>  <SCORE.INTRA.SOLV>
1.516

>  <SCORE.INTRA.SOLV.lig_0>
-73.062

>  <SCORE.INTRA.VDW>
1.54177

>  <SCORE.INTRA.VDW.0>
-1.83782

>  <SCORE.INTRA.norm>
0.223552

>  <SCORE.RESTR>
1.45365

>  <SCORE.RESTR.CAVITY>
1.45365

>  <SCORE.RESTR.norm>
0.0660749

>  <SCORE.SYSTEM>
0

>  <SCORE.SYSTEM.CONST>
0

>  <SCORE.SYSTEM.DIHEDRAL>
0

>  <SCORE.SYSTEM.SOLV>
0

>  <SCORE.SYSTEM.norm>
0

>  <SCORE.heavy>
22

>  <SCORE.norm>
0.129126

>  <RMSD>
23.305

$$$$
ligand
 OpenBabel02271912143D
libRbt.so/2013.1/901 2013/11/27
 22 23  0  0  0  0  0  0  0  0999 V2000
  -12.4310  -10.5389   -5.7382 N   0  0  0  0  0  0  0  0  0  0  0  0
  -11.4537  -10.0752   -8.9448 C   0  0  1  0  0  0  0  0  0  0  0  0
  -12.4997  -10.5374   -8.0437 O   0  0  0  0  0  0  0  0  0  0  0  0
   -7.8884  -11.2397   -8.6915 P   0  0  1  0  0  0  0  0  0  0  0  0
  -12.4522   -9.7304   -6.8559 C   0  0  2  0  0  0  0  0  0  0  0  0
  -12.0944  -12.2543   -4.4517 N   0  0  0  0  0  0  0  0  0  0  0  0
  -11.1667   -7.8517   -6.1389 O   0  0  0  0  0  0  0  0  0  0  0  0
  -11.1347   -9.0580   -6.9106 C   0  0  2  0  0  0  0  0  0  0  0  0
  -11.9112  -11.8166   -1.3875 N   0  0  0  0  0  0  0  0  0  0  0  0
  -11.7422   -7.7534   -8.8017 O   0  0  0  0  0  0  0  0  0  0  0  0
  -10.9208   -8.8370   -8.3356 C   0  0  2  0  0  0  0  0  0  0  0  0
  -12.6051  -11.2638   -3.7042 C   0  0  0  0  0  0  0  0  0  0  0  0
  -13.3234   -8.9216   -4.1061 N   0  0  0  0  0  0  0  0  0  0  0  0
   -9.2026  -10.4763   -9.0776 O   0  0  0  0  0  0  0  0  0  0  0  0
  -10.4190  -11.1458   -9.0004 C   0  0  0  0  0  0  0  0  0  0  0  0
   -6.8554  -10.0789   -8.4550 O   0  0  0  0  0  0  0  0  0  0  0  0
  -11.9930  -11.8031   -5.7165 C   0  0  0  0  0  0  0  0  0  0  0  0
  -13.9883  -10.9895   -1.8204 O   0  0  0  0  0  0  0  0  0  0  0  0
  -12.8916  -11.3353   -2.2594 C   0  0  0  0  0  0  0  0  0  0  0  0
  -12.8170  -10.1792   -4.5068 C   0  0  0  0  0  0  0  0  0  0  0  0
   -8.1392  -12.0994   -7.4974 O   0  5  0  0  0  0  0  0  0  0  0  0
   -7.5496  -12.2462   -9.7136 O   0  0  0  0  0  0  0  0  0  0  0  0
  1 17  1  0  0  0  0
  1 20  1  0  0  0  0
  2 15  1  1  0  0  0
  2  3  1  0  0  0  0
  2 11  1  0  0  0  0
  3  5  1  0  0  0  0
  4 16  1  1  0  0  0
  4 21  1  0  0  0  0
  4 22  2  0  0  0  0
  4 14  1  0  0  0  0
  5  1  1  1  0  0  0
  5  8  1  0  0  0  0
  6 17  2  0  0  0  0
  6 12  1  0  0  0  0
  8  7  1  1  0  0  0
  8 11  1  0  0  0  0
  9 19  1  0  0  0  0
 11 10  1  6  0  0  0
 12 20  2  0  0  0  0
 12 19  1  0  0  0  0
 13 20  1  0  0  0  0
 14 15  1  0  0  0  0
 18 19  2  0  0  0  0
M  CHG  1  21  -1
M  END
>  <CHROM.1>
24.55628017,-143.18303520,-162.35552698,160.42416473,49.31470594,-10.90197759
-10.49081073,-6.58221743,2.41920716,-0.62447515,2.16120137

>  <Name>
ligand

>  <RI>
0

>  <Rbt.Current_Directory>
/home/itssahil/PROJECTS/Mol_Feturizer/Test_systems_manuscript/rnas/4xwf

>  <Rbt.Executable>
rbdock ($Id: //depot/dev/client3/rdock/2013.1/src/exe/rbdock.cxx#4 $)

>  <Rbt.Library>
libRbt.so (2013.1, Build901 2013/11/27)

>  <Rbt.Parameter_File>
/export/apps/rDock/src/rDock_2013.1_src/data/scripts/dock_solv.prm

>  <Rbt.Receptor>
prm/blind_docking_20.prm

>  <SCORE>
2.74046

>  <SCORE.INTER>
-3.65002

>  <SCORE.INTER.CONST>
1

>  <SCORE.INTER.POLAR>
0

>  <SCORE.INTER.ROT>
5

>  <SCORE.INTER.SOLV>
21.3939

>  <SCORE.INTER.VDW>
-16.498

>  <SCORE.INTER.norm>
-0.16591

>  <SCORE.INTRA>
4.90411

>  <SCORE.INTRA.DIHEDRAL>
5.16978

>  <SCORE.INTRA.DIHEDRAL.0>
3.49807

>  <SCORE.INTRA.POLAR>
0

>  <SCORE.INTRA.POLAR.0>
0

>  <SCORE.INTRA.REPUL>
0

>  <SCORE.INTRA.REPUL.0>
0

>  <SCORE.INTRA.SOLV>
1.50634

>  <SCORE.INTRA.SOLV.lig_0>
-73.062

>  <SCORE.INTRA.VDW>
1.56605

>  <SCORE.INTRA.VDW.0>
-1.83782

>  <SCORE.INTRA.norm>
0.222914

>  <SCORE.RESTR>
1.48637

>  <SCORE.RESTR.CAVITY>
1.48637

>  <SCORE.RESTR.norm>
0.0675623

>  <SCORE.SYSTEM>
0

>  <SCORE.SYSTEM.CONST>
0

>  <SCORE.SYSTEM.DIHEDRAL>
0

>  <SCORE.SYSTEM.SOLV>
0

>  <SCORE.SYSTEM.norm>
0

>  <SCORE.heavy>
22

>  <SCORE.norm>
0.124566

>  <RMSD>
23.309

$$$$
ligand
 OpenBabel02271912143D
libRbt.so/2013.1/901 2013/11/27
 22 23  0  0  0  0  0  0  0  0999 V2000
  -12.4520  -10.5687   -5.5999 N   0  0  0  0  0  0  0  0  0  0  0  0
  -11.3413  -10.0740   -8.7581 C   0  0  1  0  0  0  0  0  0  0  0  0
  -12.4305  -10.5292   -7.9059 O   0  0  0  0  0  0  0  0  0  0  0  0
   -7.8240  -11.3855   -9.2354 P   0  0  1  0  0  0  0  0  0  0  0  0
  -12.4136   -9.7423   -6.7039 C   0  0  2  0  0  0  0  0  0  0  0  0
  -12.1996  -12.3108   -4.3301 N   0  0  0  0  0  0  0  0  0  0  0  0
  -11.1207   -7.9016   -5.9065 O   0  0  0  0  0  0  0  0  0  0  0  0
  -11.0822   -9.0958   -6.6964 C   0  0  2  0  0  0  0  0  0  0  0  0
  -13.5036  -12.6278   -1.6283 N   0  0  0  0  0  0  0  0  0  0  0  0
  -11.5898   -7.7494   -8.5876 O   0  0  0  0  0  0  0  0  0  0  0  0
  -10.8084   -8.8566   -8.1081 C   0  0  2  0  0  0  0  0  0  0  0  0
  -12.7194  -11.3221   -3.5865 C   0  0  0  0  0  0  0  0  0  0  0  0
  -13.3751   -8.9597   -3.9768 N   0  0  0  0  0  0  0  0  0  0  0  0
   -9.1604  -10.5657   -9.2563 O   0  0  0  0  0  0  0  0  0  0  0  0
  -10.3263  -11.1643   -8.7913 C   0  0  0  0  0  0  0  0  0  0  0  0
   -7.4420  -11.4883  -10.7566 O   0  0  0  0  0  0  0  0  0  0  0  0
  -12.0401  -11.8417   -5.5823 C   0  0  0  0  0  0  0  0  0  0  0  0
  -12.9796  -10.4207   -1.4285 O   0  0  0  0  0  0  0  0  0  0  0  0
  -13.0632  -11.4106   -2.1552 C   0  0  0  0  0  0  0  0  0  0  0  0
  -12.8784  -10.2208   -4.3785 C   0  0  0  0  0  0  0  0  0  0  0  0
   -6.8159  -10.6813   -8.3893 O   0  5  0  0  0  0  0  0  0  0  0  0
   -7.9978  -12.6492   -8.4968 O   0  0  0  0  0  0  0  0  0  0  0  0
  1 17  1  0  0  0  0
  1 20  1  0  0  0  0
  2 15  1  1  0  0  0
  2  3  1  0  0  0  0
  2 11  1  0  0  0  0
  3  5  1  0  0  0  0
  4 16  1  6  0  0  0
  4 21  1  0  0  0  0
  4 22  2  0  0  0  0
  4 14  1  0  0  0  0
  5  1  1  1  0  0  0
  5  8  1  0  0  0  0
  6 17  2  0  0  0  0
  6 12  1  0  0  0  0
  8  7  1  1  0  0  0
  8 11  1  0  0  0  0
  9 19  1  0  0  0  0
 11 10  1  6  0  0  0
 12 20  2  0  0  0  0
 12 19  1  0  0  0  0
 13 20  1  0  0  0  0
 14 15  1  0  0  0  0
 18 19  2  0  0  0  0
M  CHG  1  21  -1
M  END
>  <CHROM.1>
24.54430008,-162.64309633,117.14554877,171.85276382,-32.25293681,-10.89107956
-10.55333181,-6.62695865,2.53272424,-0.74972483,2.32720835

>  <Name>
ligand

>  <RI>
0

>  <Rbt.Current_Directory>
/home/itssahil/PROJECTS/Mol_Feturizer/Test_systems_manuscript/rnas/4xwf

>  <Rbt.Executable>
rbdock ($Id: //depot/dev/client3/rdock/2013.1/src/exe/rbdock.cxx#4 $)

>  <Rbt.Library>
libRbt.so (2013.1, Build901 2013/11/27)

>  <Rbt.Parameter_File>
/export/apps/rDock/src/rDock_2013.1_src/data/scripts/dock_solv.prm

>  <Rbt.Receptor>
prm/blind_docking_20.prm

>  <SCORE>
2.27951

>  <SCORE.INTER>
-2.41218

>  <SCORE.INTER.CONST>
1

>  <SCORE.INTER.POLAR>
0

>  <SCORE.INTER.ROT>
5

>  <SCORE.INTER.SOLV>
23.3414

>  <SCORE.INTER.VDW>
-16.3219

>  <SCORE.INTER.norm>
-0.109644

>  <SCORE.INTRA>
2.57736

>  <SCORE.INTRA.DIHEDRAL>
2.55548

>  <SCORE.INTRA.DIHEDRAL.0>
3.49807

>  <SCORE.INTRA.POLAR>
0

>  <SCORE.INTRA.POLAR.0>
0

>  <SCORE.INTRA.REPUL>
0

>  <SCORE.INTRA.REPUL.0>
0

>  <SCORE.INTRA.SOLV>
0.867613

>  <SCORE.INTRA.SOLV.lig_0>
-73.062

>  <SCORE.INTRA.VDW>
0.865809

>  <SCORE.INTRA.VDW.0>
-1.83782

>  <SCORE.INTRA.norm>
0.117153

>  <SCORE.RESTR>
2.11433

>  <SCORE.RESTR.CAVITY>
2.11433

>  <SCORE.RESTR.norm>
0.0961058

>  <SCORE.SYSTEM>
0

>  <SCORE.SYSTEM.CONST>
0

>  <SCORE.SYSTEM.DIHEDRAL>
0

>  <SCORE.SYSTEM.SOLV>
0

>  <SCORE.SYSTEM.norm>
0

>  <SCORE.heavy>
22

>  <SCORE.norm>
0.103614

>  <RMSD>
23.357

$$$$
ligand
 OpenBabel02271912143D
libRbt.so/2013.1/901 2013/11/27
 22 23  0  0  0  0  0  0  0  0999 V2000
  -12.0050  -10.2983   -5.7666 N   0  0  0  0  0  0  0  0  0  0  0  0
  -11.4977  -10.0438   -9.1028 C   0  0  1  0  0  0  0  0  0  0  0  0
  -12.3819  -10.4867   -8.0342 O   0  0  0  0  0  0  0  0  0  0  0  0
   -7.9756  -11.2690   -8.5023 P   0  0  1  0  0  0  0  0  0  0  0  0
  -12.2272   -9.5850   -6.9264 C   0  0  2  0  0  0  0  0  0  0  0  0
  -11.2347  -11.7878   -4.3885 N   0  0  0  0  0  0  0  0  0  0  0  0
  -10.9798   -7.5887   -6.5329 O   0  0  0  0  0  0  0  0  0  0  0  0
  -10.9746   -8.8500   -7.2119 C   0  0  2  0  0  0  0  0  0  0  0  0
  -13.4725  -11.6078   -1.8093 N   0  0  0  0  0  0  0  0  0  0  0  0
  -11.9120   -7.7367   -9.0904 O   0  0  0  0  0  0  0  0  0  0  0  0
  -10.9680   -8.7338   -8.6650 C   0  0  2  0  0  0  0  0  0  0  0  0
  -12.0087  -10.9375   -3.6967 C   0  0  0  0  0  0  0  0  0  0  0  0
  -13.3320   -8.9047   -4.2261 N   0  0  0  0  0  0  0  0  0  0  0  0
   -9.3910  -10.6023   -8.3986 O   0  0  0  0  0  0  0  0  0  0  0  0
  -10.4136  -11.0588   -9.2231 C   0  0  0  0  0  0  0  0  0  0  0  0
   -6.9954  -10.0418   -8.4406 O   0  0  0  0  0  0  0  0  0  0  0  0
  -11.2391  -11.3917   -5.6756 C   0  0  0  0  0  0  0  0  0  0  0  0
  -11.4982  -10.5366   -1.4349 O   0  0  0  0  0  0  0  0  0  0  0  0
  -12.2889  -11.0101   -2.2508 C   0  0  0  0  0  0  0  0  0  0  0  0
  -12.4950   -9.9949   -4.5572 C   0  0  0  0  0  0  0  0  0  0  0  0
   -7.8031  -12.2563   -7.3962 O   0  5  0  0  0  0  0  0  0  0  0  0
   -7.8934  -12.1387   -9.6894 O   0  0  0  0  0  0  0  0  0  0  0  0
  1 17  1  0  0  0  0
  1 20  1  0  0  0  0
  2 15  1  1  0  0  0
  2  3  1  0  0  0  0
  2 11  1  0  0  0  0
  3  5  1  0  0  0  0
  4 16  1  1  0  0  0
  4 21  1  0  0  0  0
  4 22  2  0  0  0  0
  4 14  1  0  0  0  0
  5  1  1  1  0  0  0
  5  8  1  0  0  0  0
  6 17  2  0  0  0  0
  6 12  1  0  0  0  0
  8  7  1  1  0  0  0
  8 11  1  0  0  0  0
  9 19  1  0  0  0  0
 11 10  1  1  0  0  0
 12 20  2  0  0  0  0
 12 19  1  0  0  0  0
 13 20  1  0  0  0  0
 14 15  1  0  0  0  0
 18 19  2  0  0  0  0
M  CHG  1  21  -1
M  END
>  <CHROM.1>
39.64436157,-92.10209935,137.46173834,-167.61661909,-97.57986765,-10.71614625
-10.35399833,-6.60341419,2.29378449,-0.61956226,2.01520905

>  <Name>
ligand

>  <RI>
0

>  <Rbt.Current_Directory>
/home/itssahil/PROJECTS/Mol_Feturizer/Test_systems_manuscript/rnas/4xwf

>  <Rbt.Executable>
rbdock ($Id: //depot/dev/client3/rdock/2013.1/src/exe/rbdock.cxx#4 $)

>  <Rbt.Library>
libRbt.so (2013.1, Build901 2013/11/27)

>  <Rbt.Parameter_File>
/export/apps/rDock/src/rDock_2013.1_src/data/scripts/dock_solv.prm

>  <Rbt.Receptor>
prm/blind_docking_20.prm

>  <SCORE>
4.00759

>  <SCORE.INTER>
-2.22354

>  <SCORE.INTER.CONST>
1

>  <SCORE.INTER.POLAR>
0

>  <SCORE.INTER.ROT>
5

>  <SCORE.INTER.SOLV>
20.208

>  <SCORE.INTER.VDW>
-15.1517

>  <SCORE.INTER.norm>
-0.10107

>  <SCORE.INTRA>
5.20301

>  <SCORE.INTRA.DIHEDRAL>
4.03207

>  <SCORE.INTRA.DIHEDRAL.0>
3.49807

>  <SCORE.INTRA.POLAR>
0

>  <SCORE.INTRA.POLAR.0>
0

>  <SCORE.INTRA.REPUL>
0

>  <SCORE.INTRA.REPUL.0>
0

>  <SCORE.INTRA.SOLV>
0.748522

>  <SCORE.INTRA.SOLV.lig_0>
-73.062

>  <SCORE.INTRA.VDW>
2.81271

>  <SCORE.INTRA.VDW.0>
-1.83782

>  <SCORE.INTRA.norm>
0.2365

>  <SCORE.RESTR>
1.02812

>  <SCORE.RESTR.CAVITY>
1.02812

>  <SCORE.RESTR.norm>
0.0467329

>  <SCORE.SYSTEM>
0

>  <SCORE.SYSTEM.CONST>
0

>  <SCORE.SYSTEM.DIHEDRAL>
0

>  <SCORE.SYSTEM.SOLV>
0

>  <SCORE.SYSTEM.norm>
0

>  <SCORE.heavy>
22

>  <SCORE.norm>
0.182163

>  <RMSD>
23.371

$$$$
ligand
 OpenBabel02271912143D
libRbt.so/2013.1/901 2013/11/27
 22 23  0  0  0  0  0  0  0  0999 V2000
  -12.3662  -10.5848   -5.6154 N   0  0  0  0  0  0  0  0  0  0  0  0
  -11.4403  -10.0241   -8.8218 C   0  0  1  0  0  0  0  0  0  0  0  0
  -12.4805  -10.4926   -7.9172 O   0  0  0  0  0  0  0  0  0  0  0  0
   -7.9002  -11.2509   -8.7008 P   0  0  1  0  0  0  0  0  0  0  0  0
  -12.3873   -9.7336   -6.7008 C   0  0  2  0  0  0  0  0  0  0  0  0
  -12.0577  -12.3591   -4.4039 N   0  0  0  0  0  0  0  0  0  0  0  0
  -11.0368   -7.9188   -5.9400 O   0  0  0  0  0  0  0  0  0  0  0  0
  -11.0532   -9.0949   -6.7575 C   0  0  2  0  0  0  0  0  0  0  0  0
  -14.0256  -11.1714   -1.6507 N   0  0  0  0  0  0  0  0  0  0  0  0
  -11.6622   -7.7027   -8.5846 O   0  0  0  0  0  0  0  0  0  0  0  0
  -10.8616   -8.8250   -8.1772 C   0  0  2  0  0  0  0  0  0  0  0  0
  -12.5136  -11.3812   -3.6062 C   0  0  0  0  0  0  0  0  0  0  0  0
  -13.1583   -9.0018   -3.9000 N   0  0  0  0  0  0  0  0  0  0  0  0
   -9.2105  -10.4786   -9.0819 O   0  0  0  0  0  0  0  0  0  0  0  0
  -10.4366  -11.1190   -8.9396 C   0  0  0  0  0  0  0  0  0  0  0  0
   -6.8583  -10.0974   -8.4683 O   0  0  0  0  0  0  0  0  0  0  0  0
  -11.9728  -11.8632   -5.6531 C   0  0  0  0  0  0  0  0  0  0  0  0
  -11.8722  -11.8662   -1.3947 O   0  0  0  0  0  0  0  0  0  0  0  0
  -12.7651  -11.4984   -2.1579 C   0  0  0  0  0  0  0  0  0  0  0  0
  -12.7073  -10.2598   -4.3613 C   0  0  0  0  0  0  0  0  0  0  0  0
   -8.1524  -12.1088   -7.5056 O   0  5  0  0  0  0  0  0  0  0  0  0
   -7.5722  -12.2599   -9.7241 O   0  0  0  0  0  0  0  0  0  0  0  0
  1 17  1  0  0  0  0
  1 20  1  0  0  0  0
  2 15  1  1  0  0  0
  2  3  1  0  0  0  0
  2 11  1  0  0  0  0
  3  5  1  0  0  0  0
  4 16  1  1  0  0  0
  4 21  1  0  0  0  0
  4 22  2  0  0  0  0
  4 14  1  0  0  0  0
  5  1  1  1  0  0  0
  5  8  1  0  0  0  0
  6 17  2  0  0  0  0
  6 12  1  0  0  0  0
  8  7  1  1  0  0  0
  8 11  1  0  0  0  0
  9 19  1  0  0  0  0
 11 10  1  6  0  0  0
 12 20  2  0  0  0  0
 12 19  1  0  0  0  0
 13 20  1  0  0  0  0
 14 15  1  0  0  0  0
 18 19  2  0  0  0  0
M  CHG  1  21  -1
M  END
>  <CHROM.1>
23.98541173,-145.98218562,-159.33688519,157.22920216,-125.01537312,-10.84938121
-10.53091551,-6.49214718,2.41057661,-0.65292334,2.19369081

>  <Name>
ligand

>  <RI>
0

>  <Rbt.Current_Directory>
/home/itssahil/PROJECTS/Mol_Feturizer/Test_systems_manuscript/rnas/4xwf

>  <Rbt.Executable>
rbdock ($Id: //depot/dev/client3/rdock/2013.1/src/exe/rbdock.cxx#4 $)

>  <Rbt.Library>
libRbt.so (2013.1, Build901 2013/11/27)

>  <Rbt.Parameter_File>
/export/apps/rDock/src/rDock_2013.1_src/data/scripts/dock_solv.prm

>  <Rbt.Receptor>
prm/blind_docking_20.prm

>  <SCORE>
2.23597

>  <SCORE.INTER>
-3.4837

>  <SCORE.INTER.CONST>
1

>  <SCORE.INTER.POLAR>
0

>  <SCORE.INTER.ROT>
5

>  <SCORE.INTER.SOLV>
20.5823

>  <SCORE.INTER.VDW>
-16.1166

>  <SCORE.INTER.norm>
-0.15835

>  <SCORE.INTRA>
4.25691

>  <SCORE.INTRA.DIHEDRAL>
3.98384

>  <SCORE.INTRA.DIHEDRAL.0>
3.49807

>  <SCORE.INTRA.POLAR>
0

>  <SCORE.INTRA.POLAR.0>
0

>  <SCORE.INTRA.REPUL>
0

>  <SCORE.INTRA.REPUL.0>
0

>  <SCORE.INTRA.SOLV>
1.85782

>  <SCORE.INTRA.SOLV.lig_0>
-73.062

>  <SCORE.INTRA.VDW>
1.33608

>  <SCORE.INTRA.VDW.0>
-1.83782

>  <SCORE.INTRA.norm>
0.193496

>  <SCORE.RESTR>
1.46276

>  <SCORE.RESTR.CAVITY>
1.46276

>  <SCORE.RESTR.norm>
0.0664889

>  <SCORE.SYSTEM>
0

>  <SCORE.SYSTEM.CONST>
0

>  <SCORE.SYSTEM.DIHEDRAL>
0

>  <SCORE.SYSTEM.SOLV>
0

>  <SCORE.SYSTEM.norm>
0

>  <SCORE.heavy>
22

>  <SCORE.norm>
0.101635

>  <RMSD>
23.382

$$$$
ligand
 OpenBabel02271912143D
libRbt.so/2013.1/901 2013/11/27
 22 23  0  0  0  0  0  0  0  0999 V2000
  -12.8826   -9.9771   -5.8546 N   0  0  0  0  0  0  0  0  0  0  0  0
  -11.1529  -10.6793   -8.6773 C   0  0  1  0  0  0  0  0  0  0  0  0
  -12.3966  -10.8401   -7.9376 O   0  0  0  0  0  0  0  0  0  0  0  0
   -7.6368  -11.5589   -8.4204 P   0  0  1  0  0  0  0  0  0  0  0  0
  -12.6132   -9.6471   -7.1668 C   0  0  2  0  0  0  0  0  0  0  0  0
  -13.8059   -9.9944   -3.8904 N   0  0  0  0  0  0  0  0  0  0  0  0
  -11.4864   -7.5559   -6.9357 O   0  0  0  0  0  0  0  0  0  0  0  0
  -11.3032   -8.9581   -7.1643 C   0  0  2  0  0  0  0  0  0  0  0  0
  -11.7148  -11.3822   -1.7649 N   0  0  0  0  0  0  0  0  0  0  0  0
  -11.4041   -8.4962   -9.4932 O   0  0  0  0  0  0  0  0  0  0  0  0
  -10.7480   -9.2709   -8.4754 C   0  0  2  0  0  0  0  0  0  0  0  0
  -12.8659  -10.9515   -3.9199 C   0  0  0  0  0  0  0  0  0  0  0  0
  -11.2614  -11.8170   -5.6052 N   0  0  0  0  0  0  0  0  0  0  0  0
   -9.1000  -11.6497   -8.9768 O   0  0  0  0  0  0  0  0  0  0  0  0
  -10.1646  -11.6224   -8.0826 C   0  0  0  0  0  0  0  0  0  0  0  0
   -7.3343  -10.0169   -8.4561 O   0  0  0  0  0  0  0  0  0  0  0  0
  -13.8099   -9.3864   -5.0920 C   0  0  0  0  0  0  0  0  0  0  0  0
  -12.9211  -13.0169   -2.7937 O   0  0  0  0  0  0  0  0  0  0  0  0
  -12.5198  -11.8533   -2.8056 C   0  0  0  0  0  0  0  0  0  0  0  0
  -12.2821  -10.9488   -5.1546 C   0  0  0  0  0  0  0  0  0  0  0  0
   -7.5776  -12.1710   -7.0604 O   0  5  0  0  0  0  0  0  0  0  0  0
   -6.7332  -12.4411   -9.1805 O   0  0  0  0  0  0  0  0  0  0  0  0
  1 17  1  0  0  0  0
  1 20  1  0  0  0  0
  2 15  1  1  0  0  0
  2  3  1  0  0  0  0
  2 11  1  0  0  0  0
  3  5  1  0  0  0  0
  4 16  1  1  0  0  0
  4 21  1  0  0  0  0
  4 22  2  0  0  0  0
  4 14  1  0  0  0  0
  5  1  1  1  0  0  0
  5  8  1  0  0  0  0
  6 17  2  0  0  0  0
  6 12  1  0  0  0  0
  8  7  1  6  0  0  0
  8 11  1  0  0  0  0
  9 19  1  0  0  0  0
 11 10  1  6  0  0  0
 12 20  2  0  0  0  0
 12 19  1  0  0  0  0
 13 20  1  0  0  0  0
 14 15  1  0  0  0  0
 18 19  2  0  0  0  0
M  CHG  1  21  -1
M  END
>  <CHROM.1>
-138.96568688,167.74803613,-92.14478569,134.96091066,-78.54287998,-10.79396929
-10.70899126,-6.68695382,2.53734589,-0.55672657,2.17301808

>  <Name>
ligand

>  <RI>
0

>  <Rbt.Current_Directory>
/home/itssahil/PROJECTS/Mol_Feturizer/Test_systems_manuscript/rnas/4xwf

>  <Rbt.Executable>
rbdock ($Id: //depot/dev/client3/rdock/2013.1/src/exe/rbdock.cxx#4 $)

>  <Rbt.Library>
libRbt.so (2013.1, Build901 2013/11/27)

>  <Rbt.Parameter_File>
/export/apps/rDock/src/rDock_2013.1_src/data/scripts/dock_solv.prm

>  <Rbt.Receptor>
prm/blind_docking_20.prm

>  <SCORE>
6.07024

>  <SCORE.INTER>
-1.69678

>  <SCORE.INTER.CONST>
1

>  <SCORE.INTER.POLAR>
0

>  <SCORE.INTER.ROT>
5

>  <SCORE.INTER.SOLV>
27.3183

>  <SCORE.INTER.VDW>
-17.1706

>  <SCORE.INTER.norm>
-0.0771264

>  <SCORE.INTRA>
6.44996

>  <SCORE.INTRA.DIHEDRAL>
7.39996

>  <SCORE.INTRA.DIHEDRAL.0>
3.49807

>  <SCORE.INTRA.POLAR>
0

>  <SCORE.INTRA.POLAR.0>
0

>  <SCORE.INTRA.REPUL>
0

>  <SCORE.INTRA.REPUL.0>
0

>  <SCORE.INTRA.SOLV>
5.23703

>  <SCORE.INTRA.SOLV.lig_0>
-73.062

>  <SCORE.INTRA.VDW>
0.131466

>  <SCORE.INTRA.VDW.0>
-1.83782

>  <SCORE.INTRA.norm>
0.29318

>  <SCORE.RESTR>
1.31706

>  <SCORE.RESTR.CAVITY>
1.31706

>  <SCORE.RESTR.norm>
0.0598663

>  <SCORE.SYSTEM>
0

>  <SCORE.SYSTEM.CONST>
0

>  <SCORE.SYSTEM.DIHEDRAL>
0

>  <SCORE.SYSTEM.SOLV>
0

>  <SCORE.SYSTEM.norm>
0

>  <SCORE.heavy>
22

>  <SCORE.norm>
0.27592

>  <RMSD>
23.407

$$$$
ligand
 OpenBabel02271912143D
libRbt.so/2013.1/901 2013/11/27
 22 23  0  0  0  0  0  0  0  0999 V2000
  -12.3740  -10.6677   -5.6946 N   0  0  0  0  0  0  0  0  0  0  0  0
  -11.5749  -10.3223   -8.9649 C   0  0  1  0  0  0  0  0  0  0  0  0
  -12.5444  -10.8030   -7.9908 O   0  0  0  0  0  0  0  0  0  0  0  0
   -7.9427  -11.2460   -8.6716 P   0  0  1  0  0  0  0  0  0  0  0  0
  -12.5022   -9.9279   -6.8520 C   0  0  2  0  0  0  0  0  0  0  0  0
  -11.9456  -12.3157   -4.3487 N   0  0  0  0  0  0  0  0  0  0  0  0
  -11.3237   -7.9273   -6.3001 O   0  0  0  0  0  0  0  0  0  0  0  0
  -11.2398   -9.1707   -7.0063 C   0  0  2  0  0  0  0  0  0  0  0  0
  -11.4969  -10.5109   -1.3961 N   0  0  0  0  0  0  0  0  0  0  0  0
  -12.0218   -8.0214   -8.9336 O   0  0  0  0  0  0  0  0  0  0  0  0
  -11.1053   -9.0175   -8.4497 C   0  0  2  0  0  0  0  0  0  0  0  0
  -12.3242  -11.2603   -3.6115 C   0  0  0  0  0  0  0  0  0  0  0  0
  -12.9997   -8.9170   -4.0762 N   0  0  0  0  0  0  0  0  0  0  0  0
   -9.3004  -10.5704   -9.0703 O   0  0  0  0  0  0  0  0  0  0  0  0
  -10.4698  -11.3206   -9.0122 C   0  0  0  0  0  0  0  0  0  0  0  0
   -8.3174  -12.0759   -7.3904 O   0  0  0  0  0  0  0  0  0  0  0  0
  -11.9834  -11.9465   -5.6432 C   0  0  0  0  0  0  0  0  0  0  0  0
  -13.3322  -11.8479   -1.5680 O   0  0  0  0  0  0  0  0  0  0  0  0
  -12.4340  -11.2318   -2.1412 C   0  0  0  0  0  0  0  0  0  0  0  0
  -12.5928  -10.2177   -4.4519 C   0  0  0  0  0  0  0  0  0  0  0  0
   -7.4340  -12.0629   -9.8125 O   0  5  0  0  0  0  0  0  0  0  0  0
   -6.8776  -10.2365   -8.5336 O   0  0  0  0  0  0  0  0  0  0  0  0
  1 17  1  0  0  0  0
  1 20  1  0  0  0  0
  2 15  1  1  0  0  0
  2  3  1  0  0  0  0
  2 11  1  0  0  0  0
  3  5  1  0  0  0  0
  4 16  1  1  0  0  0
  4 21  1  0  0  0  0
  4 22  2  0  0  0  0
  4 14  1  0  0  0  0
  5  1  1  1  0  0  0
  5  8  1  0  0  0  0
  6 17  2  0  0  0  0
  6 12  1  0  0  0  0
  8  7  1  1  0  0  0
  8 11  1  0  0  0  0
  9 19  1  0  0  0  0
 11 10  1  6  0  0  0
 12 20  2  0  0  0  0
 12 19  1  0  0  0  0
 13 20  1  0  0  0  0
 14 15  1  0  0  0  0
 18 19  2  0  0  0  0
M  CHG  1  21  -1
M  END
>  <CHROM.1>
16.86293891,-138.31836418,-42.25218816,160.44921137,108.33084392,-10.85222250
-10.55663286,-6.57274489,2.29666488,-0.57872245,2.02281102

>  <Name>
ligand

>  <RI>
0

>  <Rbt.Current_Directory>
/home/itssahil/PROJECTS/Mol_Feturizer/Test_systems_manuscript/rnas/4xwf

>  <Rbt.Executable>
rbdock ($Id: //depot/dev/client3/rdock/2013.1/src/exe/rbdock.cxx#4 $)

>  <Rbt.Library>
libRbt.so (2013.1, Build901 2013/11/27)

>  <Rbt.Parameter_File>
/export/apps/rDock/src/rDock_2013.1_src/data/scripts/dock_solv.prm

>  <Rbt.Receptor>
prm/blind_docking_20.prm

>  <SCORE>
4.34404

>  <SCORE.INTER>
-1.61358

>  <SCORE.INTER.CONST>
1

>  <SCORE.INTER.POLAR>
0

>  <SCORE.INTER.ROT>
5

>  <SCORE.INTER.SOLV>
23.5681

>  <SCORE.INTER.VDW>
-15.8651

>  <SCORE.INTER.norm>
-0.0733446

>  <SCORE.INTRA>
4.85603

>  <SCORE.INTRA.DIHEDRAL>
4.35746

>  <SCORE.INTRA.DIHEDRAL.0>
3.49807

>  <SCORE.INTRA.POLAR>
0

>  <SCORE.INTRA.POLAR.0>
0

>  <SCORE.INTRA.REPUL>
0

>  <SCORE.INTRA.REPUL.0>
0

>  <SCORE.INTRA.SOLV>
0.952939

>  <SCORE.INTRA.SOLV.lig_0>
-73.062

>  <SCORE.INTRA.VDW>
2.20083

>  <SCORE.INTRA.VDW.0>
-1.83782

>  <SCORE.INTRA.norm>
0.220729

>  <SCORE.RESTR>
1.10159

>  <SCORE.RESTR.CAVITY>
1.10159

>  <SCORE.RESTR.norm>
0.0500724

>  <SCORE.SYSTEM>
0

>  <SCORE.SYSTEM.CONST>
0

>  <SCORE.SYSTEM.DIHEDRAL>
0

>  <SCORE.SYSTEM.SOLV>
0

>  <SCORE.SYSTEM.norm>
0

>  <SCORE.heavy>
22

>  <SCORE.norm>
0.197456

>  <RMSD>
23.407

$$$$
ligand
 OpenBabel02271912143D
libRbt.so/2013.1/901 2013/11/27
 22 23  0  0  0  0  0  0  0  0999 V2000
  -12.8870   -9.9856   -5.5751 N   0  0  0  0  0  0  0  0  0  0  0  0
  -11.2849  -10.2286   -8.5461 C   0  0  1  0  0  0  0  0  0  0  0  0
  -12.4695  -10.5635   -7.7686 O   0  0  0  0  0  0  0  0  0  0  0  0
   -7.7258  -11.5001   -8.6238 P   0  0  1  0  0  0  0  0  0  0  0  0
  -12.7178   -9.4868   -6.8502 C   0  0  2  0  0  0  0  0  0  0  0  0
  -13.7381  -10.3614   -3.6141 N   0  0  0  0  0  0  0  0  0  0  0  0
  -11.7188   -7.3610   -6.4275 O   0  0  0  0  0  0  0  0  0  0  0  0
  -11.4580   -8.7102   -6.8317 C   0  0  2  0  0  0  0  0  0  0  0  0
  -12.3770  -11.8168   -1.3806 N   0  0  0  0  0  0  0  0  0  0  0  0
  -11.7263   -7.9893   -9.0802 O   0  0  0  0  0  0  0  0  0  0  0  0
  -10.9619   -8.8277   -8.1975 C   0  0  2  0  0  0  0  0  0  0  0  0
  -12.6410  -11.1224   -3.7475 C   0  0  0  0  0  0  0  0  0  0  0  0
  -10.9524  -11.5123   -5.5252 N   0  0  0  0  0  0  0  0  0  0  0  0
   -9.1274  -10.8800   -8.9548 O   0  0  0  0  0  0  0  0  0  0  0  0
  -10.2035  -11.1608   -8.1199 C   0  0  0  0  0  0  0  0  0  0  0  0
   -6.8052  -10.2373   -8.4558 O   0  0  0  0  0  0  0  0  0  0  0  0
  -13.8851   -9.6514   -4.7489 C   0  0  0  0  0  0  0  0  0  0  0  0
  -11.4152  -13.0113   -3.0640 O   0  0  0  0  0  0  0  0  0  0  0  0
  -12.1067  -12.0486   -2.7319 C   0  0  0  0  0  0  0  0  0  0  0  0
  -12.1012  -10.8936   -4.9810 C   0  0  0  0  0  0  0  0  0  0  0  0
   -7.8306  -12.3572   -7.4063 O   0  5  0  0  0  0  0  0  0  0  0  0
   -7.3366  -12.4873   -9.6468 O   0  0  0  0  0  0  0  0  0  0  0  0
  1 17  1  0  0  0  0
  1 20  1  0  0  0  0
  2 15  1  1  0  0  0
  2  3  1  0  0  0  0
  2 11  1  0  0  0  0
  3  5  1  0  0  0  0
  4 16  1  1  0  0  0
  4 21  1  0  0  0  0
  4 22  2  0  0  0  0
  4 14  1  0  0  0  0
  5  1  1  1  0  0  0
  5  8  1  0  0  0  0
  6 17  2  0  0  0  0
  6 12  1  0  0  0  0
  8  7  1  6  0  0  0
  8 11  1  0  0  0  0
  9 19  1  0  0  0  0
 11 10  1  6  0  0  0
 12 20  2  0  0  0  0
 12 19  1  0  0  0  0
 13 20  1  0  0  0  0
 14 15  1  0  0  0  0
 18 19  2  0  0  0  0
M  CHG  1  21  -1
M  END
>  <CHROM.1>
-131.96878586,175.46011127,-121.16100762,169.24429494,-25.97613623,-10.78767589
-10.61157750,-6.59311997,2.51254084,-0.61039752,2.20197552

>  <Name>
ligand

>  <RI>
0

>  <Rbt.Current_Directory>
/home/itssahil/PROJECTS/Mol_Feturizer/Test_systems_manuscript/rnas/4xwf

>  <Rbt.Executable>
rbdock ($Id: //depot/dev/client3/rdock/2013.1/src/exe/rbdock.cxx#4 $)

>  <Rbt.Library>
libRbt.so (2013.1, Build901 2013/11/27)

>  <Rbt.Parameter_File>
/export/apps/rDock/src/rDock_2013.1_src/data/scripts/dock_solv.prm

>  <Rbt.Receptor>
prm/blind_docking_20.prm

>  <SCORE>
3.84526

>  <SCORE.INTER>
-2.1716

>  <SCORE.INTER.CONST>
1

>  <SCORE.INTER.POLAR>
0

>  <SCORE.INTER.ROT>
5

>  <SCORE.INTER.SOLV>
25.7835

>  <SCORE.INTER.VDW>
-16.9756

>  <SCORE.INTER.norm>
-0.0987092

>  <SCORE.INTRA>
4.52004

>  <SCORE.INTRA.DIHEDRAL>
1.65015

>  <SCORE.INTRA.DIHEDRAL.0>
3.49807

>  <SCORE.INTRA.POLAR>
0

>  <SCORE.INTRA.POLAR.0>
0

>  <SCORE.INTRA.REPUL>
0

>  <SCORE.INTRA.REPUL.0>
0

>  <SCORE.INTRA.SOLV>
5.62775

>  <SCORE.INTRA.SOLV.lig_0>
-73.062

>  <SCORE.INTRA.VDW>
0.881085

>  <SCORE.INTRA.VDW.0>
-1.83782

>  <SCORE.INTRA.norm>
0.205456

>  <SCORE.RESTR>
1.49683

>  <SCORE.RESTR.CAVITY>
1.49683

>  <SCORE.RESTR.norm>
0.0680376

>  <SCORE.SYSTEM>
0

>  <SCORE.SYSTEM.CONST>
0

>  <SCORE.SYSTEM.DIHEDRAL>
0

>  <SCORE.SYSTEM.SOLV>
0

>  <SCORE.SYSTEM.norm>
0

>  <SCORE.heavy>
22

>  <SCORE.norm>
0.174785

>  <RMSD>
23.410

$$$$
ligand
 OpenBabel02271912143D
libRbt.so/2013.1/901 2013/11/27
 22 23  0  0  0  0  0  0  0  0999 V2000
  -12.9184  -10.0067   -5.6185 N   0  0  0  0  0  0  0  0  0  0  0  0
  -11.2432  -10.2671   -8.5474 C   0  0  1  0  0  0  0  0  0  0  0  0
  -12.4480  -10.5951   -7.7984 O   0  0  0  0  0  0  0  0  0  0  0  0
   -7.6978  -11.5717   -8.5699 P   0  0  1  0  0  0  0  0  0  0  0  0
  -12.7158   -9.5139   -6.8910 C   0  0  2  0  0  0  0  0  0  0  0  0
  -13.7997  -10.3432   -3.6637 N   0  0  0  0  0  0  0  0  0  0  0  0
  -11.7211   -7.3893   -6.4523 O   0  0  0  0  0  0  0  0  0  0  0  0
  -11.4544   -8.7409   -6.8442 C   0  0  2  0  0  0  0  0  0  0  0  0
  -12.7126  -11.9995   -1.4588 N   0  0  0  0  0  0  0  0  0  0  0  0
  -11.6641   -8.0288   -9.1017 O   0  0  0  0  0  0  0  0  0  0  0  0
  -10.9247   -8.8657   -8.1966 C   0  0  2  0  0  0  0  0  0  0  0  0
  -12.7429  -11.1598   -3.7930 C   0  0  0  0  0  0  0  0  0  0  0  0
  -11.0661  -11.6320   -5.5619 N   0  0  0  0  0  0  0  0  0  0  0  0
   -9.0970  -10.9663   -8.9361 O   0  0  0  0  0  0  0  0  0  0  0  0
  -10.1757  -11.2007   -8.0904 C   0  0  0  0  0  0  0  0  0  0  0  0
   -6.7775  -10.3029   -8.4515 O   0  0  0  0  0  0  0  0  0  0  0  0
  -13.9028   -9.6234   -4.7972 C   0  0  0  0  0  0  0  0  0  0  0  0
  -11.4632  -13.0007   -3.0782 O   0  0  0  0  0  0  0  0  0  0  0  0
  -12.2636  -12.1154   -2.7771 C   0  0  0  0  0  0  0  0  0  0  0  0
  -12.1845  -10.9559   -5.0226 C   0  0  0  0  0  0  0  0  0  0  0  0
   -7.8103  -12.3749   -7.3168 O   0  5  0  0  0  0  0  0  0  0  0  0
   -7.3028  -12.6026   -9.5465 O   0  0  0  0  0  0  0  0  0  0  0  0
  1 17  1  0  0  0  0
  1 20  1  0  0  0  0
  2 15  1  1  0  0  0
  2  3  1  0  0  0  0
  2 11  1  0  0  0  0
  3  5  1  0  0  0  0
  4 16  1  1  0  0  0
  4 21  1  0  0  0  0
  4 22  2  0  0  0  0
  4 14  1  0  0  0  0
  5  1  1  1  0  0  0
  5  8  1  0  0  0  0
  6 17  2  0  0  0  0
  6 12  1  0  0  0  0
  8  7  1  6  0  0  0
  8 11  1  0  0  0  0
  9 19  1  0  0  0  0
 11 10  1  6  0  0  0
 12 20  2  0  0  0  0
 12 19  1  0  0  0  0
 13 20  1  0  0  0  0
 14 15  1  0  0  0  0
 18 19  2  0  0  0  0
M  CHG  1  21  -1
M  END
>  <CHROM.1>
-135.00470015,173.01470794,-120.62281056,167.98695370,-15.39620452,-10.80964765
-10.66153270,-6.59838732,2.54914279,-0.60665744,2.23308667

>  <Name>
ligand

>  <RI>
0

>  <Rbt.Current_Directory>
/home/itssahil/PROJECTS/Mol_Feturizer/Test_systems_manuscript/rnas/4xwf

>  <Rbt.Executable>
rbdock ($Id: //depot/dev/client3/rdock/2013.1/src/exe/rbdock.cxx#4 $)

>  <Rbt.Library>
libRbt.so (2013.1, Build901 2013/11/27)

>  <Rbt.Parameter_File>
/export/apps/rDock/src/rDock_2013.1_src/data/scripts/dock_solv.prm

>  <Rbt.Receptor>
prm/blind_docking_20.prm

>  <SCORE>
3.54929

>  <SCORE.INTER>
-2.52283

>  <SCORE.INTER.CONST>
1

>  <SCORE.INTER.POLAR>
0

>  <SCORE.INTER.ROT>
5

>  <SCORE.INTER.SOLV>
25.9586

>  <SCORE.INTER.VDW>
-17.2681

>  <SCORE.INTER.norm>
-0.114674

>  <SCORE.INTRA>
4.44174

>  <SCORE.INTRA.DIHEDRAL>
1.49257

>  <SCORE.INTRA.DIHEDRAL.0>
3.49807

>  <SCORE.INTRA.POLAR>
0

>  <SCORE.INTRA.POLAR.0>
0

>  <SCORE.INTRA.REPUL>
0

>  <SCORE.INTRA.REPUL.0>
0

>  <SCORE.INTRA.SOLV>
5.54631

>  <SCORE.INTRA.SOLV.lig_0>
-73.062

>  <SCORE.INTRA.VDW>
0.9223

>  <SCORE.INTRA.VDW.0>
-1.83782

>  <SCORE.INTRA.norm>
0.201897

>  <SCORE.RESTR>
1.63038

>  <SCORE.RESTR.CAVITY>
1.63038

>  <SCORE.RESTR.norm>
0.0741082

>  <SCORE.SYSTEM>
0

>  <SCORE.SYSTEM.CONST>
0

>  <SCORE.SYSTEM.DIHEDRAL>
0

>  <SCORE.SYSTEM.SOLV>
0

>  <SCORE.SYSTEM.norm>
0

>  <SCORE.heavy>
22

>  <SCORE.norm>
0.161331

>  <RMSD>
23.410

$$$$
ligand
 OpenBabel02271912143D
libRbt.so/2013.1/901 2013/11/27
 22 23  0  0  0  0  0  0  0  0999 V2000
  -11.7259  -10.3480   -6.5956 N   0  0  0  0  0  0  0  0  0  0  0  0
  -11.0799   -9.4196   -9.7852 C   0  0  1  0  0  0  0  0  0  0  0  0
  -11.9575  -10.1502   -8.8819 O   0  0  0  0  0  0  0  0  0  0  0  0
   -7.9985  -11.2708   -8.5971 P   0  0  1  0  0  0  0  0  0  0  0  0
  -11.9733   -9.4599   -7.6219 C   0  0  2  0  0  0  0  0  0  0  0  0
  -10.9380  -12.0441   -5.4940 N   0  0  0  0  0  0  0  0  0  0  0  0
  -11.0037   -7.4459   -6.7855 O   0  0  0  0  0  0  0  0  0  0  0  0
  -10.8076   -8.5495   -7.6773 C   0  0  2  0  0  0  0  0  0  0  0  0
  -11.3234  -10.7788   -2.2516 N   0  0  0  0  0  0  0  0  0  0  0  0
  -11.7754   -7.2163   -9.3899 O   0  0  0  0  0  0  0  0  0  0  0  0
  -10.7394   -8.1638   -9.0815 C   0  0  2  0  0  0  0  0  0  0  0  0
  -11.6726  -11.3018   -4.6513 C   0  0  0  0  0  0  0  0  0  0  0  0
  -12.9746   -9.1941   -4.8110 N   0  0  0  0  0  0  0  0  0  0  0  0
   -9.3703  -10.5239   -8.7345 O   0  0  0  0  0  0  0  0  0  0  0  0
   -9.8742  -10.2670  -10.0049 C   0  0  0  0  0  0  0  0  0  0  0  0
   -7.9163  -12.1167   -9.9193 O   0  0  0  0  0  0  0  0  0  0  0  0
  -10.9779  -11.4523   -6.7030 C   0  0  0  0  0  0  0  0  0  0  0  0
  -12.5942  -12.5581   -2.8879 O   0  0  0  0  0  0  0  0  0  0  0  0
  -11.9057  -11.5951   -3.2250 C   0  0  0  0  0  0  0  0  0  0  0  0
  -12.1696  -10.2303   -5.3370 C   0  0  0  0  0  0  0  0  0  0  0  0
   -6.8991  -10.2754   -8.4287 O   0  5  0  0  0  0  0  0  0  0  0  0
   -7.9292  -12.0055   -7.3211 O   0  0  0  0  0  0  0  0  0  0  0  0
  1 17  1  0  0  0  0
  1 20  1  0  0  0  0
  2 15  1  1  0  0  0
  2  3  1  0  0  0  0
  2 11  1  0  0  0  0
  3  5  1  0  0  0  0
  4 16  1  6  0  0  0
  4 21  1  0  0  0  0
  4 22  2  0  0  0  0
  4 14  1  0  0  0  0
  5  1  1  1  0  0  0
  5  8  1  0  0  0  0
  6 17  2  0  0  0  0
  6 12  1  0  0  0  0
  8  7  1  1  0  0  0
  8 11  1  0  0  0  0
  9 19  1  0  0  0  0
 11 10  1  1  0  0  0
 12 20  2  0  0  0  0
 12 19  1  0  0  0  0
 13 20  1  0  0  0  0
 14 15  1  0  0  0  0
 18 19  2  0  0  0  0
M  CHG  1  21  -1
M  END
>  <CHROM.1>
29.96798825,-55.77909891,-26.65038650,-173.48290895,110.30301140,-10.50300408
-10.33582373,-7.15934831,2.24258444,-0.66164608,2.17284386

>  <Name>
ligand

>  <RI>
0

>  <Rbt.Current_Directory>
/home/itssahil/PROJECTS/Mol_Feturizer/Test_systems_manuscript/rnas/4xwf

>  <Rbt.Executable>
rbdock ($Id: //depot/dev/client3/rdock/2013.1/src/exe/rbdock.cxx#4 $)

>  <Rbt.Library>
libRbt.so (2013.1, Build901 2013/11/27)

>  <Rbt.Parameter_File>
/export/apps/rDock/src/rDock_2013.1_src/data/scripts/dock_solv.prm

>  <Rbt.Receptor>
prm/blind_docking_20.prm

>  <SCORE>
3.35035

>  <SCORE.INTER>
-1.01956

>  <SCORE.INTER.CONST>
1

>  <SCORE.INTER.POLAR>
0

>  <SCORE.INTER.ROT>
5

>  <SCORE.INTER.SOLV>
26.9326

>  <SCORE.INTER.VDW>
-16.5906

>  <SCORE.INTER.norm>
-0.0463435

>  <SCORE.INTRA>
1.50428

>  <SCORE.INTRA.DIHEDRAL>
-0.340931

>  <SCORE.INTRA.DIHEDRAL.0>
3.49807

>  <SCORE.INTRA.POLAR>
0

>  <SCORE.INTRA.POLAR.0>
0

>  <SCORE.INTRA.REPUL>
0

>  <SCORE.INTRA.REPUL.0>
0

>  <SCORE.INTRA.SOLV>
1.69463

>  <SCORE.INTRA.SOLV.lig_0>
-73.062

>  <SCORE.INTRA.VDW>
0.827428

>  <SCORE.INTRA.VDW.0>
-1.83782

>  <SCORE.INTRA.norm>
0.0683762

>  <SCORE.RESTR>
2.86563

>  <SCORE.RESTR.CAVITY>
2.86563

>  <SCORE.RESTR.norm>
0.130256

>  <SCORE.SYSTEM>
0

>  <SCORE.SYSTEM.CONST>
0

>  <SCORE.SYSTEM.DIHEDRAL>
0

>  <SCORE.SYSTEM.SOLV>
0

>  <SCORE.SYSTEM.norm>
0

>  <SCORE.heavy>
22

>  <SCORE.norm>
0.152289

>  <RMSD>
23.411

$$$$
ligand
 OpenBabel02271912143D
libRbt.so/2013.1/901 2013/11/27
 22 23  0  0  0  0  0  0  0  0999 V2000
  -12.8713  -10.0120   -5.8517 N   0  0  0  0  0  0  0  0  0  0  0  0
  -11.1520  -10.6843   -8.6880 C   0  0  1  0  0  0  0  0  0  0  0  0
  -12.3927  -10.8536   -7.9451 O   0  0  0  0  0  0  0  0  0  0  0  0
   -7.6369  -11.5234   -8.4619 P   0  0  1  0  0  0  0  0  0  0  0  0
  -12.6072   -9.6686   -7.1615 C   0  0  2  0  0  0  0  0  0  0  0  0
  -13.7966  -10.0605   -3.8889 N   0  0  0  0  0  0  0  0  0  0  0  0
  -11.4811   -7.5790   -6.9136 O   0  0  0  0  0  0  0  0  0  0  0  0
  -11.2978   -8.9786   -7.1571 C   0  0  2  0  0  0  0  0  0  0  0  0
  -13.1447  -11.7908   -1.5926 N   0  0  0  0  0  0  0  0  0  0  0  0
  -11.4079   -8.4933   -9.4808 O   0  0  0  0  0  0  0  0  0  0  0  0
  -10.7474   -9.2777   -8.4734 C   0  0  2  0  0  0  0  0  0  0  0  0
  -12.8366  -10.9975   -3.9228 C   0  0  0  0  0  0  0  0  0  0  0  0
  -11.2123  -11.8190   -5.6110 N   0  0  0  0  0  0  0  0  0  0  0  0
   -9.1013  -11.6532   -9.0072 O   0  0  0  0  0  0  0  0  0  0  0  0
  -10.1607  -11.6326   -8.1066 C   0  0  0  0  0  0  0  0  0  0  0  0
   -7.3906   -9.9711   -8.4604 O   0  0  0  0  0  0  0  0  0  0  0  0
  -13.8118   -9.4454   -5.0868 C   0  0  0  0  0  0  0  0  0  0  0  0
  -11.5765  -12.7306   -2.9503 O   0  0  0  0  0  0  0  0  0  0  0  0
  -12.4732  -11.8985   -2.8134 C   0  0  0  0  0  0  0  0  0  0  0  0
  -12.2515  -10.9751   -5.1567 C   0  0  0  0  0  0  0  0  0  0  0  0
   -7.5420  -12.1675   -7.1188 O   0  5  0  0  0  0  0  0  0  0  0  0
   -6.7096  -12.3526   -9.2527 O   0  0  0  0  0  0  0  0  0  0  0  0
  1 17  1  0  0  0  0
  1 20  1  0  0  0  0
  2 15  1  1  0  0  0
  2  3  1  0  0  0  0
  2 11  1  0  0  0  0
  3  5  1  0  0  0  0
  4 16  1  1  0  0  0
  4 21  1  0  0  0  0
  4 22  2  0  0  0  0
  4 14  1  0  0  0  0
  5  1  1  1  0  0  0
  5  8  1  0  0  0  0
  6 17  2  0  0  0  0
  6 12  1  0  0  0  0
  8  7  1  6  0  0  0
  8 11  1  0  0  0  0
  9 19  1  0  0  0  0
 11 10  1  6  0  0  0
 12 20  2  0  0  0  0
 12 19  1  0  0  0  0
 13 20  1  0  0  0  0
 14 15  1  0  0  0  0
 18 19  2  0  0  0  0
M  CHG  1  21  -1
M  END
>  <CHROM.1>
-137.74949876,167.57052902,-89.55001593,133.11436883,-1.10289502,-10.78166452
-10.71762764,-6.69906208,2.52963018,-0.55683312,2.17147707

>  <Name>
ligand

>  <RI>
0

>  <Rbt.Current_Directory>
/home/itssahil/PROJECTS/Mol_Feturizer/Test_systems_manuscript/rnas/4xwf

>  <Rbt.Executable>
rbdock ($Id: //depot/dev/client3/rdock/2013.1/src/exe/rbdock.cxx#4 $)

>  <Rbt.Library>
libRbt.so (2013.1, Build901 2013/11/27)

>  <Rbt.Parameter_File>
/export/apps/rDock/src/rDock_2013.1_src/data/scripts/dock_solv.prm

>  <Rbt.Receptor>
prm/blind_docking_20.prm

>  <SCORE>
4.98069

>  <SCORE.INTER>
-2.30032

>  <SCORE.INTER.CONST>
1

>  <SCORE.INTER.POLAR>
0

>  <SCORE.INTER.ROT>
5

>  <SCORE.INTER.SOLV>
27.1646

>  <SCORE.INTER.VDW>
-17.5218

>  <SCORE.INTER.norm>
-0.10456

>  <SCORE.INTRA>
6.00262

>  <SCORE.INTRA.DIHEDRAL>
6.17889

>  <SCORE.INTRA.DIHEDRAL.0>
3.49807

>  <SCORE.INTRA.POLAR>
0

>  <SCORE.INTRA.POLAR.0>
0

>  <SCORE.INTRA.REPUL>
0

>  <SCORE.INTRA.REPUL.0>
0

>  <SCORE.INTRA.SOLV>
5.34078

>  <SCORE.INTRA.SOLV.lig_0>
-73.062

>  <SCORE.INTRA.VDW>
0.242782

>  <SCORE.INTRA.VDW.0>
-1.83782

>  <SCORE.INTRA.norm>
0.272846

>  <SCORE.RESTR>
1.27839

>  <SCORE.RESTR.CAVITY>
1.27839

>  <SCORE.RESTR.norm>
0.0581088

>  <SCORE.SYSTEM>
0

>  <SCORE.SYSTEM.CONST>
0

>  <SCORE.SYSTEM.DIHEDRAL>
0

>  <SCORE.SYSTEM.SOLV>
0

>  <SCORE.SYSTEM.norm>
0

>  <SCORE.heavy>
22

>  <SCORE.norm>
0.226395

>  <RMSD>
23.416

$$$$
ligand
 OpenBabel02271912143D
libRbt.so/2013.1/901 2013/11/27
 22 23  0  0  0  0  0  0  0  0999 V2000
  -12.4103   -9.5673   -5.3074 N   0  0  0  0  0  0  0  0  0  0  0  0
  -11.2840  -10.1524   -8.4446 C   0  0  1  0  0  0  0  0  0  0  0  0
  -12.3614  -10.3339   -7.4823 O   0  0  0  0  0  0  0  0  0  0  0  0
   -7.7542  -11.5044   -8.6458 P   0  0  1  0  0  0  0  0  0  0  0  0
  -12.3967   -9.1772   -6.6306 C   0  0  2  0  0  0  0  0  0  0  0  0
  -12.5928   -9.4889   -3.1461 N   0  0  0  0  0  0  0  0  0  0  0  0
  -11.2017   -7.1137   -6.5318 O   0  0  0  0  0  0  0  0  0  0  0  0
  -11.0972   -8.5052   -6.8552 C   0  0  2  0  0  0  0  0  0  0  0  0
  -12.8670  -13.1135   -2.8967 N   0  0  0  0  0  0  0  0  0  0  0  0
  -11.6433   -7.9294   -9.0952 O   0  0  0  0  0  0  0  0  0  0  0  0
  -10.8171   -8.7606   -8.2629 C   0  0  2  0  0  0  0  0  0  0  0  0
  -12.3588  -10.7617   -3.5009 C   0  0  0  0  0  0  0  0  0  0  0  0
  -12.0209  -11.9787   -5.6382 N   0  0  0  0  0  0  0  0  0  0  0  0
   -9.1244  -10.7789   -8.8802 O   0  0  0  0  0  0  0  0  0  0  0  0
  -10.2186  -11.1354   -8.0997 C   0  0  0  0  0  0  0  0  0  0  0  0
   -6.7400  -10.3141   -8.4882 O   0  0  0  0  0  0  0  0  0  0  0  0
  -12.6182   -8.7479   -4.2702 C   0  0  0  0  0  0  0  0  0  0  0  0
  -11.6114  -11.7989   -1.5253 O   0  0  0  0  0  0  0  0  0  0  0  0
  -12.2413  -11.9054   -2.5774 C   0  0  0  0  0  0  0  0  0  0  0  0
  -12.2457  -10.8196   -4.8607 C   0  0  0  0  0  0  0  0  0  0  0  0
   -7.8552  -12.3950   -7.4522 O   0  5  0  0  0  0  0  0  0  0  0  0
   -7.4888  -12.4790   -9.7193 O   0  0  0  0  0  0  0  0  0  0  0  0
  1 17  1  0  0  0  0
  1 20  1  0  0  0  0
  2 15  1  1  0  0  0
  2  3  1  0  0  0  0
  2 11  1  0  0  0  0
  3  5  1  0  0  0  0
  4 16  1  1  0  0  0
  4 21  1  0  0  0  0
  4 22  2  0  0  0  0
  4 14  1  0  0  0  0
  5  1  1  1  0  0  0
  5  8  1  0  0  0  0
  6 17  2  0  0  0  0
  6 12  1  0  0  0  0
  8  7  1  6  0  0  0
  8 11  1  0  0  0  0
  9 19  1  0  0  0  0
 11 10  1  6  0  0  0
 12 20  2  0  0  0  0
 12 19  1  0  0  0  0
 13 20  1  0  0  0  0
 14 15  1  0  0  0  0
 18 19  2  0  0  0  0
M  CHG  1  21  -1
M  END
>  <CHROM.1>
-170.77220222,-169.91270602,-128.92421992,172.73357044,136.78559717,-10.68959889
-10.46614397,-6.50745109,2.52940104,-0.73403306,2.29717421

>  <Name>
ligand

>  <RI>
0

>  <Rbt.Current_Directory>
/home/itssahil/PROJECTS/Mol_Feturizer/Test_systems_manuscript/rnas/4xwf

>  <Rbt.Executable>
rbdock ($Id: //depot/dev/client3/rdock/2013.1/src/exe/rbdock.cxx#4 $)

>  <Rbt.Library>
libRbt.so (2013.1, Build901 2013/11/27)

>  <Rbt.Parameter_File>
/export/apps/rDock/src/rDock_2013.1_src/data/scripts/dock_solv.prm

>  <Rbt.Receptor>
prm/blind_docking_20.prm

>  <SCORE>
5.44652

>  <SCORE.INTER>
0.00309468

>  <SCORE.INTER.CONST>
1

>  <SCORE.INTER.POLAR>
0

>  <SCORE.INTER.ROT>
5

>  <SCORE.INTER.SOLV>
24.4567

>  <SCORE.INTER.VDW>
-15.0835

>  <SCORE.INTER.norm>
0.000140667

>  <SCORE.INTRA>
3.72376

>  <SCORE.INTRA.DIHEDRAL>
1.17279

>  <SCORE.INTRA.DIHEDRAL.0>
3.49807

>  <SCORE.INTRA.POLAR>
0

>  <SCORE.INTRA.POLAR.0>
0

>  <SCORE.INTRA.REPUL>
0

>  <SCORE.INTRA.REPUL.0>
0

>  <SCORE.INTRA.SOLV>
3.76488

>  <SCORE.INTRA.SOLV.lig_0>
-73.062

>  <SCORE.INTRA.VDW>
1.25492

>  <SCORE.INTRA.VDW.0>
-1.83782

>  <SCORE.INTRA.norm>
0.169262

>  <SCORE.RESTR>
1.71967

>  <SCORE.RESTR.CAVITY>
1.71967

>  <SCORE.RESTR.norm>
0.0781667

>  <SCORE.SYSTEM>
0

>  <SCORE.SYSTEM.CONST>
0

>  <SCORE.SYSTEM.DIHEDRAL>
0

>  <SCORE.SYSTEM.SOLV>
0

>  <SCORE.SYSTEM.norm>
0

>  <SCORE.heavy>
22

>  <SCORE.norm>
0.247569

>  <RMSD>
23.419

$$$$
ligand
 OpenBabel02271912143D
libRbt.so/2013.1/901 2013/11/27
 22 23  0  0  0  0  0  0  0  0999 V2000
  -11.9887  -10.3406   -5.7681 N   0  0  0  0  0  0  0  0  0  0  0  0
  -11.4606  -10.0762   -9.1003 C   0  0  1  0  0  0  0  0  0  0  0  0
  -12.3536  -10.5180   -8.0386 O   0  0  0  0  0  0  0  0  0  0  0  0
   -7.9975  -11.3643   -8.3517 P   0  0  1  0  0  0  0  0  0  0  0  0
  -12.2000   -9.6216   -6.9264 C   0  0  2  0  0  0  0  0  0  0  0  0
  -11.2522  -11.8529   -4.3964 N   0  0  0  0  0  0  0  0  0  0  0  0
  -10.9430   -7.6343   -6.5179 O   0  0  0  0  0  0  0  0  0  0  0  0
  -10.9414   -8.8930   -7.2018 C   0  0  2  0  0  0  0  0  0  0  0  0
  -13.4116  -11.6831   -1.7898 N   0  0  0  0  0  0  0  0  0  0  0  0
  -11.8613   -7.7668   -9.0813 O   0  0  0  0  0  0  0  0  0  0  0  0
  -10.9257   -8.7712   -8.6543 C   0  0  2  0  0  0  0  0  0  0  0  0
  -11.9915  -10.9777   -3.6976 C   0  0  0  0  0  0  0  0  0  0  0  0
  -13.2544   -8.9041   -4.2157 N   0  0  0  0  0  0  0  0  0  0  0  0
   -9.4333  -10.7399   -8.2664 O   0  0  0  0  0  0  0  0  0  0  0  0
  -10.3819  -11.0972   -9.2184 C   0  0  0  0  0  0  0  0  0  0  0  0
   -7.9607  -12.3486   -7.1268 O   0  0  0  0  0  0  0  0  0  0  0  0
  -11.2573  -11.4580   -5.6838 C   0  0  0  0  0  0  0  0  0  0  0  0
  -11.4849  -10.5191   -1.4459 O   0  0  0  0  0  0  0  0  0  0  0  0
  -12.2589  -11.0401   -2.2487 C   0  0  0  0  0  0  0  0  0  0  0  0
  -12.4562  -10.0208   -4.5541 C   0  0  0  0  0  0  0  0  0  0  0  0
   -7.8130  -12.0202   -9.6797 O   0  5  0  0  0  0  0  0  0  0  0  0
   -6.9705  -10.3081   -8.3992 O   0  0  0  0  0  0  0  0  0  0  0  0
  1 17  1  0  0  0  0
  1 20  1  0  0  0  0
  2 15  1  1  0  0  0
  2  3  1  0  0  0  0
  2 11  1  0  0  0  0
  3  5  1  0  0  0  0
  4 16  1  1  0  0  0
  4 21  1  0  0  0  0
  4 22  2  0  0  0  0
  4 14  1  0  0  0  0
  5  1  1  1  0  0  0
  5  8  1  0  0  0  0
  6 17  2  0  0  0  0
  6 12  1  0  0  0  0
  8  7  1  1  0  0  0
  8 11  1  0  0  0  0
  9 19  1  0  0  0  0
 11 10  1  1  0  0  0
 12 20  2  0  0  0  0
 12 19  1  0  0  0  0
 13 20  1  0  0  0  0
 14 15  1  0  0  0  0
 18 19  2  0  0  0  0
M  CHG  1  21  -1
M  END
>  <CHROM.1>
37.86616157,-85.00044879,-109.04305149,-164.34899374,-93.10088712,-10.70133710
-10.40689629,-6.56494833,2.28919027,-0.62460393,2.01438233

>  <Name>
ligand

>  <RI>
0

>  <Rbt.Current_Directory>
/home/itssahil/PROJECTS/Mol_Feturizer/Test_systems_manuscript/rnas/4xwf

>  <Rbt.Executable>
rbdock ($Id: //depot/dev/client3/rdock/2013.1/src/exe/rbdock.cxx#4 $)

>  <Rbt.Library>
libRbt.so (2013.1, Build901 2013/11/27)

>  <Rbt.Parameter_File>
/export/apps/rDock/src/rDock_2013.1_src/data/scripts/dock_solv.prm

>  <Rbt.Receptor>
prm/blind_docking_20.prm

>  <SCORE>
4.74254

>  <SCORE.INTER>
-1.3655

>  <SCORE.INTER.CONST>
1

>  <SCORE.INTER.POLAR>
0

>  <SCORE.INTER.ROT>
5

>  <SCORE.INTER.SOLV>
23.2892

>  <SCORE.INTER.VDW>
-15.6067

>  <SCORE.INTER.norm>
-0.0620681

>  <SCORE.INTRA>
4.87588

>  <SCORE.INTRA.DIHEDRAL>
3.92931

>  <SCORE.INTRA.DIHEDRAL.0>
3.49807

>  <SCORE.INTRA.POLAR>
0

>  <SCORE.INTRA.POLAR.0>
0

>  <SCORE.INTRA.REPUL>
0

>  <SCORE.INTRA.REPUL.0>
0

>  <SCORE.INTRA.SOLV>
1.10898

>  <SCORE.INTRA.SOLV.lig_0>
-73.062

>  <SCORE.INTRA.VDW>
2.35674

>  <SCORE.INTRA.VDW.0>
-1.83782

>  <SCORE.INTRA.norm>
0.221631

>  <SCORE.RESTR>
1.23215

>  <SCORE.RESTR.CAVITY>
1.23215

>  <SCORE.RESTR.norm>
0.056007

>  <SCORE.SYSTEM>
0

>  <SCORE.SYSTEM.CONST>
0

>  <SCORE.SYSTEM.DIHEDRAL>
0

>  <SCORE.SYSTEM.SOLV>
0

>  <SCORE.SYSTEM.norm>
0

>  <SCORE.heavy>
22

>  <SCORE.norm>
0.21557

>  <RMSD>
23.420

$$$$
ligand
 OpenBabel02271912143D
libRbt.so/2013.1/901 2013/11/27
 22 23  0  0  0  0  0  0  0  0999 V2000
  -12.4392   -9.6631   -5.3054 N   0  0  0  0  0  0  0  0  0  0  0  0
  -11.3589  -10.2006   -8.4672 C   0  0  1  0  0  0  0  0  0  0  0  0
  -12.4120  -10.4166   -7.4852 O   0  0  0  0  0  0  0  0  0  0  0  0
   -7.7758  -11.3790   -8.6812 P   0  0  1  0  0  0  0  0  0  0  0  0
  -12.4621   -9.2658   -6.6263 C   0  0  2  0  0  0  0  0  0  0  0  0
  -12.6117   -9.6094   -3.1425 N   0  0  0  0  0  0  0  0  0  0  0  0
  -11.3222   -7.1709   -6.5387 O   0  0  0  0  0  0  0  0  0  0  0  0
  -11.1861   -8.5573   -6.8722 C   0  0  2  0  0  0  0  0  0  0  0  0
  -12.4946  -11.8890   -1.2578 N   0  0  0  0  0  0  0  0  0  0  0  0
  -11.7914   -7.9848   -9.0978 O   0  0  0  0  0  0  0  0  0  0  0  0
  -10.9267   -8.7975   -8.2865 C   0  0  2  0  0  0  0  0  0  0  0  0
  -12.2917  -10.8608   -3.5063 C   0  0  0  0  0  0  0  0  0  0  0  0
  -11.8846  -12.0395   -5.6530 N   0  0  0  0  0  0  0  0  0  0  0  0
   -9.1950  -10.7713   -8.9552 O   0  0  0  0  0  0  0  0  0  0  0  0
  -10.2606  -11.1558   -8.1487 C   0  0  0  0  0  0  0  0  0  0  0  0
   -6.8723  -10.1076   -8.4870 O   0  0  0  0  0  0  0  0  0  0  0  0
  -12.6967   -8.8659   -4.2620 C   0  0  0  0  0  0  0  0  0  0  0  0
  -11.5518  -13.0332   -2.9863 O   0  0  0  0  0  0  0  0  0  0  0  0
  -12.0882  -11.9985   -2.5904 C   0  0  0  0  0  0  0  0  0  0  0  0
  -12.1844  -10.9032   -4.8672 C   0  0  0  0  0  0  0  0  0  0  0  0
   -7.8369  -12.2831   -7.4952 O   0  5  0  0  0  0  0  0  0  0  0  0
   -7.3952  -12.3199   -9.7500 O   0  0  0  0  0  0  0  0  0  0  0  0
  1 17  1  0  0  0  0
  1 20  1  0  0  0  0
  2 15  1  1  0  0  0
  2  3  1  0  0  0  0
  2 11  1  0  0  0  0
  3  5  1  0  0  0  0
  4 16  1  1  0  0  0
  4 21  1  0  0  0  0
  4 22  2  0  0  0  0
  4 14  1  0  0  0  0
  5  1  1  1  0  0  0
  5  8  1  0  0  0  0
  6 17  2  0  0  0  0
  6 12  1  0  0  0  0
  8  7  1  6  0  0  0
  8 11  1  0  0  0  0
  9 19  1  0  0  0  0
 11 10  1  6  0  0  0
 12 20  2  0  0  0  0
 12 19  1  0  0  0  0
 13 20  1  0  0  0  0
 14 15  1  0  0  0  0
 18 19  2  0  0  0  0
M  CHG  1  21  -1
M  END
>  <CHROM.1>
-168.22286227,-170.32345015,-124.46223646,168.00584688,13.25588263,-10.69684773
-10.48411307,-6.52525212,2.47331242,-0.71323426,2.25651347

>  <Name>
ligand

>  <RI>
0

>  <Rbt.Current_Directory>
/home/itssahil/PROJECTS/Mol_Feturizer/Test_systems_manuscript/rnas/4xwf

>  <Rbt.Executable>
rbdock ($Id: //depot/dev/client3/rdock/2013.1/src/exe/rbdock.cxx#4 $)

>  <Rbt.Library>
libRbt.so (2013.1, Build901 2013/11/27)

>  <Rbt.Parameter_File>
/export/apps/rDock/src/rDock_2013.1_src/data/scripts/dock_solv.prm

>  <Rbt.Receptor>
prm/blind_docking_20.prm

>  <SCORE>
5.18779

>  <SCORE.INTER>
-0.0110487

>  <SCORE.INTER.CONST>
1

>  <SCORE.INTER.POLAR>
0

>  <SCORE.INTER.ROT>
5

>  <SCORE.INTER.SOLV>
24.2383

>  <SCORE.INTER.VDW>
-15.0201

>  <SCORE.INTER.norm>
-0.000502213

>  <SCORE.INTRA>
3.92048

>  <SCORE.INTRA.DIHEDRAL>
1.57961

>  <SCORE.INTRA.DIHEDRAL.0>
3.49807

>  <SCORE.INTRA.POLAR>
0

>  <SCORE.INTRA.POLAR.0>
0

>  <SCORE.INTRA.REPUL>
0

>  <SCORE.INTRA.REPUL.0>
0

>  <SCORE.INTRA.SOLV>
3.72644

>  <SCORE.INTRA.SOLV.lig_0>
-73.062

>  <SCORE.INTRA.VDW>
1.26746

>  <SCORE.INTRA.VDW.0>
-1.83782

>  <SCORE.INTRA.norm>
0.178204

>  <SCORE.RESTR>
1.27836

>  <SCORE.RESTR.CAVITY>
1.27836

>  <SCORE.RESTR.norm>
0.0581073

>  <SCORE.SYSTEM>
0

>  <SCORE.SYSTEM.CONST>
0

>  <SCORE.SYSTEM.DIHEDRAL>
0

>  <SCORE.SYSTEM.SOLV>
0

>  <SCORE.SYSTEM.norm>
0

>  <SCORE.heavy>
22

>  <SCORE.norm>
0.235809

>  <RMSD>
23.424

$$$$
ligand
 OpenBabel02271912143D
libRbt.so/2013.1/901 2013/11/27
 22 23  0  0  0  0  0  0  0  0999 V2000
  -12.3751  -10.6698   -5.6718 N   0  0  0  0  0  0  0  0  0  0  0  0
  -11.5030  -10.3330   -8.9242 C   0  0  1  0  0  0  0  0  0  0  0  0
  -12.4944  -10.8104   -7.9709 O   0  0  0  0  0  0  0  0  0  0  0  0
   -7.8599  -11.2419   -8.7059 P   0  0  1  0  0  0  0  0  0  0  0  0
  -12.4767   -9.9327   -6.8335 C   0  0  2  0  0  0  0  0  0  0  0  0
  -11.9948  -12.3205   -4.3148 N   0  0  0  0  0  0  0  0  0  0  0  0
  -11.3089   -7.9318   -6.2604 O   0  0  0  0  0  0  0  0  0  0  0  0
  -11.2105   -9.1770   -6.9614 C   0  0  2  0  0  0  0  0  0  0  0  0
  -11.5309  -10.5164   -1.3658 N   0  0  0  0  0  0  0  0  0  0  0  0
  -11.9482   -8.0317   -8.9085 O   0  0  0  0  0  0  0  0  0  0  0  0
  -11.0437   -9.0274   -8.4019 C   0  0  2  0  0  0  0  0  0  0  0  0
  -12.3571  -11.2538   -3.5857 C   0  0  0  0  0  0  0  0  0  0  0  0
  -12.9773   -8.8985   -4.0669 N   0  0  0  0  0  0  0  0  0  0  0  0
   -9.2326  -10.5877   -9.0882 O   0  0  0  0  0  0  0  0  0  0  0  0
  -10.3981  -11.3325   -8.9445 C   0  0  0  0  0  0  0  0  0  0  0  0
   -6.9155  -10.0020   -8.5027 O   0  0  0  0  0  0  0  0  0  0  0  0
  -12.0128  -11.9564   -5.6112 C   0  0  0  0  0  0  0  0  0  0  0  0
  -13.3985  -11.8065   -1.5493 O   0  0  0  0  0  0  0  0  0  0  0  0
  -12.4794  -11.2161   -2.1166 C   0  0  0  0  0  0  0  0  0  0  0  0
  -12.5953  -10.2094   -4.4331 C   0  0  0  0  0  0  0  0  0  0  0  0
   -8.0308  -12.0963   -7.4940 O   0  5  0  0  0  0  0  0  0  0  0  0
   -7.4571  -12.2382   -9.7148 O   0  0  0  0  0  0  0  0  0  0  0  0
  1 17  1  0  0  0  0
  1 20  1  0  0  0  0
  2 15  1  1  0  0  0
  2  3  1  0  0  0  0
  2 11  1  0  0  0  0
  3  5  1  0  0  0  0
  4 16  1  1  0  0  0
  4 21  1  0  0  0  0
  4 22  2  0  0  0  0
  4 14  1  0  0  0  0
  5  1  1  1  0  0  0
  5  8  1  0  0  0  0
  6 17  2  0  0  0  0
  6 12  1  0  0  0  0
  8  7  1  1  0  0  0
  8 11  1  0  0  0  0
  9 19  1  0  0  0  0
 11 10  1  6  0  0  0
 12 20  2  0  0  0  0
 12 19  1  0  0  0  0
 13 20  1  0  0  0  0
 14 15  1  0  0  0  0
 18 19  2  0  0  0  0
M  CHG  1  21  -1
M  END
>  <CHROM.1>
15.45091964,-143.02087811,-160.37752829,161.06231564,108.09612954,-10.82281009
-10.55500326,-6.55392090,2.32180133,-0.58877277,2.04332826

>  <Name>
ligand

>  <RI>
0

>  <Rbt.Current_Directory>
/home/itssahil/PROJECTS/Mol_Feturizer/Test_systems_manuscript/rnas/4xwf

>  <Rbt.Executable>
rbdock ($Id: //depot/dev/client3/rdock/2013.1/src/exe/rbdock.cxx#4 $)

>  <Rbt.Library>
libRbt.so (2013.1, Build901 2013/11/27)

>  <Rbt.Parameter_File>
/export/apps/rDock/src/rDock_2013.1_src/data/scripts/dock_solv.prm

>  <Rbt.Receptor>
prm/blind_docking_20.prm

>  <SCORE>
2.33851

>  <SCORE.INTER>
-3.35806

>  <SCORE.INTER.CONST>
1

>  <SCORE.INTER.POLAR>
0

>  <SCORE.INTER.ROT>
5

>  <SCORE.INTER.SOLV>
19.3058

>  <SCORE.INTER.VDW>
-15.6073

>  <SCORE.INTER.norm>
-0.152639

>  <SCORE.INTRA>
4.62257

>  <SCORE.INTRA.DIHEDRAL>
3.8027

>  <SCORE.INTRA.DIHEDRAL.0>
3.49807

>  <SCORE.INTRA.POLAR>
0

>  <SCORE.INTRA.POLAR.0>
0

>  <SCORE.INTRA.REPUL>
0

>  <SCORE.INTRA.REPUL.0>
0

>  <SCORE.INTRA.SOLV>
1.97927

>  <SCORE.INTRA.SOLV.lig_0>
-73.062

>  <SCORE.INTRA.VDW>
1.73158

>  <SCORE.INTRA.VDW.0>
-1.83782

>  <SCORE.INTRA.norm>
0.210117

>  <SCORE.RESTR>
1.074

>  <SCORE.RESTR.CAVITY>
1.074

>  <SCORE.RESTR.norm>
0.0488181

>  <SCORE.SYSTEM>
0

>  <SCORE.SYSTEM.CONST>
0

>  <SCORE.SYSTEM.DIHEDRAL>
0

>  <SCORE.SYSTEM.SOLV>
0

>  <SCORE.SYSTEM.norm>
0

>  <SCORE.heavy>
22

>  <SCORE.norm>
0.106296

>  <RMSD>
23.427

$$$$
ligand
 OpenBabel02271912143D
libRbt.so/2013.1/901 2013/11/27
 22 23  0  0  0  0  0  0  0  0999 V2000
  -11.9887  -10.3706   -5.8015 N   0  0  0  0  0  0  0  0  0  0  0  0
  -11.4503   -9.9759   -9.1192 C   0  0  1  0  0  0  0  0  0  0  0  0
  -12.3511  -10.4496   -8.0780 O   0  0  0  0  0  0  0  0  0  0  0  0
   -7.9760  -11.3010   -8.4907 P   0  0  1  0  0  0  0  0  0  0  0  0
  -12.1883   -9.6017   -6.9295 C   0  0  2  0  0  0  0  0  0  0  0  0
  -11.2746  -11.9476   -4.4922 N   0  0  0  0  0  0  0  0  0  0  0  0
  -10.9069   -7.6493   -6.4375 O   0  0  0  0  0  0  0  0  0  0  0  0
  -10.9200   -8.8786   -7.1726 C   0  0  2  0  0  0  0  0  0  0  0  0
  -11.4890  -10.4943   -1.4070 N   0  0  0  0  0  0  0  0  0  0  0  0
  -11.8215   -7.6642   -9.0056 O   0  0  0  0  0  0  0  0  0  0  0  0
  -10.8997   -8.6973   -8.6190 C   0  0  2  0  0  0  0  0  0  0  0  0
  -12.0036  -11.0922   -3.7590 C   0  0  0  0  0  0  0  0  0  0  0  0
  -13.2382   -8.9825   -4.1929 N   0  0  0  0  0  0  0  0  0  0  0  0
   -9.3994  -10.6566   -8.3599 O   0  0  0  0  0  0  0  0  0  0  0  0
  -10.3845  -11.0049   -9.2775 C   0  0  0  0  0  0  0  0  0  0  0  0
   -7.0138  -10.0590   -8.4423 O   0  0  0  0  0  0  0  0  0  0  0  0
  -11.2721  -11.5000   -5.7623 C   0  0  0  0  0  0  0  0  0  0  0  0
  -13.1736  -11.9440   -1.9035 O   0  0  0  0  0  0  0  0  0  0  0  0
  -12.2744  -11.2106   -2.3142 C   0  0  0  0  0  0  0  0  0  0  0  0
  -12.4541  -10.0947   -4.5759 C   0  0  0  0  0  0  0  0  0  0  0  0
   -7.7688  -12.2888   -7.3911 O   0  5  0  0  0  0  0  0  0  0  0  0
   -7.9015  -12.1658   -9.6820 O   0  0  0  0  0  0  0  0  0  0  0  0
  1 17  1  0  0  0  0
  1 20  1  0  0  0  0
  2 15  1  1  0  0  0
  2  3  1  0  0  0  0
  2 11  1  0  0  0  0
  3  5  1  0  0  0  0
  4 16  1  6  0  0  0
  4 21  1  0  0  0  0
  4 22  2  0  0  0  0
  4 14  1  0  0  0  0
  5  1  1  1  0  0  0
  5  8  1  0  0  0  0
  6 17  2  0  0  0  0
  6 12  1  0  0  0  0
  8  7  1  1  0  0  0
  8 11  1  0  0  0  0
  9 19  1  0  0  0  0
 11 10  1  1  0  0  0
 12 20  2  0  0  0  0
 12 19  1  0  0  0  0
 13 20  1  0  0  0  0
 14 15  1  0  0  0  0
 18 19  2  0  0  0  0
M  CHG  1  21  -1
M  END
>  <CHROM.1>
37.84040278,-88.15673689,129.45939894,-164.85591313,97.23475313,-10.69029811
-10.41114060,-6.61156837,2.30535613,-0.64341776,2.07104397

>  <Name>
ligand

>  <RI>
0

>  <Rbt.Current_Directory>
/home/itssahil/PROJECTS/Mol_Feturizer/Test_systems_manuscript/rnas/4xwf

>  <Rbt.Executable>
rbdock ($Id: //depot/dev/client3/rdock/2013.1/src/exe/rbdock.cxx#4 $)

>  <Rbt.Library>
libRbt.so (2013.1, Build901 2013/11/27)

>  <Rbt.Parameter_File>
/export/apps/rDock/src/rDock_2013.1_src/data/scripts/dock_solv.prm

>  <Rbt.Receptor>
prm/blind_docking_20.prm

>  <SCORE>
3.34739

>  <SCORE.INTER>
-2.97871

>  <SCORE.INTER.CONST>
1

>  <SCORE.INTER.POLAR>
0

>  <SCORE.INTER.ROT>
5

>  <SCORE.INTER.SOLV>
20.3297

>  <SCORE.INTER.VDW>
-15.6957

>  <SCORE.INTER.norm>
-0.135396

>  <SCORE.INTRA>
5.01185

>  <SCORE.INTRA.DIHEDRAL>
4.10986

>  <SCORE.INTRA.DIHEDRAL.0>
3.49807

>  <SCORE.INTRA.POLAR>
0

>  <SCORE.INTRA.POLAR.0>
0

>  <SCORE.INTRA.REPUL>
0

>  <SCORE.INTRA.REPUL.0>
0

>  <SCORE.INTRA.SOLV>
0.757781

>  <SCORE.INTRA.SOLV.lig_0>
-73.062

>  <SCORE.INTRA.VDW>
2.57803

>  <SCORE.INTRA.VDW.0>
-1.83782

>  <SCORE.INTRA.norm>
0.227811

>  <SCORE.RESTR>
1.31425

>  <SCORE.RESTR.CAVITY>
1.31425

>  <SCORE.RESTR.norm>
0.0597386

>  <SCORE.SYSTEM>
0

>  <SCORE.SYSTEM.CONST>
0

>  <SCORE.SYSTEM.DIHEDRAL>
0

>  <SCORE.SYSTEM.SOLV>
0

>  <SCORE.SYSTEM.norm>
0

>  <SCORE.heavy>
22

>  <SCORE.norm>
0.152154

>  <RMSD>
23.427

$$$$
ligand
 OpenBabel02271912143D
libRbt.so/2013.1/901 2013/11/27
 22 23  0  0  0  0  0  0  0  0999 V2000
  -12.4525   -9.6750   -5.2858 N   0  0  0  0  0  0  0  0  0  0  0  0
  -11.3946  -10.2067   -8.4561 C   0  0  1  0  0  0  0  0  0  0  0  0
  -12.4412  -10.4236   -7.4674 O   0  0  0  0  0  0  0  0  0  0  0  0
   -7.8038  -11.3672   -8.6557 P   0  0  1  0  0  0  0  0  0  0  0  0
  -12.4840   -9.2747   -6.6056 C   0  0  2  0  0  0  0  0  0  0  0  0
  -12.6392   -9.6354   -3.1237 N   0  0  0  0  0  0  0  0  0  0  0  0
  -11.3410   -7.1814   -6.5211 O   0  0  0  0  0  0  0  0  0  0  0  0
  -11.2089   -8.5671   -6.8587 C   0  0  2  0  0  0  0  0  0  0  0  0
  -12.4009  -11.8974   -1.2347 N   0  0  0  0  0  0  0  0  0  0  0  0
  -11.8288   -7.9889   -9.0787 O   0  0  0  0  0  0  0  0  0  0  0  0
  -10.9595   -8.8044   -8.2752 C   0  0  2  0  0  0  0  0  0  0  0  0
  -12.2668  -10.8716   -3.4894 C   0  0  0  0  0  0  0  0  0  0  0  0
  -11.8000  -12.0259   -5.6373 N   0  0  0  0  0  0  0  0  0  0  0  0
   -9.2197  -10.7502   -8.9257 O   0  0  0  0  0  0  0  0  0  0  0  0
  -10.2953  -11.1639   -8.1474 C   0  0  0  0  0  0  0  0  0  0  0  0
   -6.8868  -10.1017   -8.4877 O   0  0  0  0  0  0  0  0  0  0  0  0
  -12.7479   -8.8923   -4.2415 C   0  0  0  0  0  0  0  0  0  0  0  0
  -11.4766  -13.0290   -2.9813 O   0  0  0  0  0  0  0  0  0  0  0  0
  -12.0225  -12.0030   -2.5758 C   0  0  0  0  0  0  0  0  0  0  0  0
  -12.1501  -10.9052   -4.8498 C   0  0  0  0  0  0  0  0  0  0  0  0
   -7.8625  -12.2538   -7.4564 O   0  5  0  0  0  0  0  0  0  0  0  0
   -7.4415  -12.3267   -9.7143 O   0  0  0  0  0  0  0  0  0  0  0  0
  1 17  1  0  0  0  0
  1 20  1  0  0  0  0
  2 15  1  1  0  0  0
  2  3  1  0  0  0  0
  2 11  1  0  0  0  0
  3  5  1  0  0  0  0
  4 16  1  1  0  0  0
  4 21  1  0  0  0  0
  4 22  2  0  0  0  0
  4 14  1  0  0  0  0
  5  1  1  1  0  0  0
  5  8  1  0  0  0  0
  6 17  2  0  0  0  0
  6 12  1  0  0  0  0
  8  7  1  6  0  0  0
  8 11  1  0  0  0  0
  9 19  1  0  0  0  0
 11 10  1  6  0  0  0
 12 20  2  0  0  0  0
 12 19  1  0  0  0  0
 13 20  1  0  0  0  0
 14 15  1  0  0  0  0
 18 19  2  0  0  0  0
M  CHG  1  21  -1
M  END
>  <CHROM.1>
-165.72501174,-168.30194099,-127.65758316,168.59297866,11.16409157,-10.70279005
-10.48603541,-6.50681843,2.45545351,-0.70890650,2.23873913

>  <Name>
ligand

>  <RI>
0

>  <Rbt.Current_Directory>
/home/itssahil/PROJECTS/Mol_Feturizer/Test_systems_manuscript/rnas/4xwf

>  <Rbt.Executable>
rbdock ($Id: //depot/dev/client3/rdock/2013.1/src/exe/rbdock.cxx#4 $)

>  <Rbt.Library>
libRbt.so (2013.1, Build901 2013/11/27)

>  <Rbt.Parameter_File>
/export/apps/rDock/src/rDock_2013.1_src/data/scripts/dock_solv.prm

>  <Rbt.Receptor>
prm/blind_docking_20.prm

>  <SCORE>
5.38283

>  <SCORE.INTER>
0.127016

>  <SCORE.INTER.CONST>
1

>  <SCORE.INTER.POLAR>
0

>  <SCORE.INTER.ROT>
5

>  <SCORE.INTER.SOLV>
24.2877

>  <SCORE.INTER.VDW>
-14.9446

>  <SCORE.INTER.norm>
0.00577346

>  <SCORE.INTRA>
4.05432

>  <SCORE.INTRA.DIHEDRAL>
1.53885

>  <SCORE.INTRA.DIHEDRAL.0>
3.49807

>  <SCORE.INTRA.POLAR>
0

>  <SCORE.INTRA.POLAR.0>
0

>  <SCORE.INTRA.REPUL>
0

>  <SCORE.INTRA.REPUL.0>
0

>  <SCORE.INTRA.SOLV>
3.9991

>  <SCORE.INTRA.SOLV.lig_0>
-73.062

>  <SCORE.INTRA.VDW>
1.28534

>  <SCORE.INTRA.VDW.0>
-1.83782

>  <SCORE.INTRA.norm>
0.184287

>  <SCORE.RESTR>
1.20149

>  <SCORE.RESTR.CAVITY>
1.20149

>  <SCORE.RESTR.norm>
0.0546133

>  <SCORE.SYSTEM>
0

>  <SCORE.SYSTEM.CONST>
0

>  <SCORE.SYSTEM.DIHEDRAL>
0

>  <SCORE.SYSTEM.SOLV>
0

>  <SCORE.SYSTEM.norm>
0

>  <SCORE.heavy>
22

>  <SCORE.norm>
0.244674

>  <RMSD>
23.428

$$$$
ligand
 OpenBabel02271912143D
libRbt.so/2013.1/901 2013/11/27
 22 23  0  0  0  0  0  0  0  0999 V2000
  -12.3832  -10.7191   -5.6718 N   0  0  0  0  0  0  0  0  0  0  0  0
  -11.4560  -10.0333   -8.8534 C   0  0  1  0  0  0  0  0  0  0  0  0
  -12.4911  -10.5503   -7.9696 O   0  0  0  0  0  0  0  0  0  0  0  0
   -7.9052  -11.2540   -8.6949 P   0  0  1  0  0  0  0  0  0  0  0  0
  -12.4153   -9.8318   -6.7277 C   0  0  2  0  0  0  0  0  0  0  0  0
  -12.0615  -12.5329   -4.5239 N   0  0  0  0  0  0  0  0  0  0  0  0
  -11.0993   -8.0211   -5.8998 O   0  0  0  0  0  0  0  0  0  0  0  0
  -11.0924   -9.1686   -6.7571 C   0  0  2  0  0  0  0  0  0  0  0  0
  -12.0064  -10.9927   -1.3333 N   0  0  0  0  0  0  0  0  0  0  0  0
  -11.7190   -7.7255   -8.5380 O   0  0  0  0  0  0  0  0  0  0  0  0
  -10.9005   -8.8471   -8.1659 C   0  0  2  0  0  0  0  0  0  0  0  0
  -12.5111  -11.5831   -3.6894 C   0  0  0  0  0  0  0  0  0  0  0  0
  -13.1612   -9.1961   -3.8968 N   0  0  0  0  0  0  0  0  0  0  0  0
   -9.2092  -10.4460   -9.0194 O   0  0  0  0  0  0  0  0  0  0  0  0
  -10.4331  -11.1060   -9.0043 C   0  0  0  0  0  0  0  0  0  0  0  0
   -6.8274  -10.1286   -8.4893 O   0  0  0  0  0  0  0  0  0  0  0  0
  -11.9888  -11.9950   -5.7563 C   0  0  0  0  0  0  0  0  0  0  0  0
  -13.5831  -12.5574   -1.8349 O   0  0  0  0  0  0  0  0  0  0  0  0
  -12.7492  -11.7495   -2.2436 C   0  0  0  0  0  0  0  0  0  0  0  0
  -12.7131  -10.4371   -4.4044 C   0  0  0  0  0  0  0  0  0  0  0  0
   -8.1343  -12.1187   -7.5000 O   0  5  0  0  0  0  0  0  0  0  0  0
   -7.6398  -12.2592   -9.7398 O   0  0  0  0  0  0  0  0  0  0  0  0
  1 17  1  0  0  0  0
  1 20  1  0  0  0  0
  2 15  1  1  0  0  0
  2  3  1  0  0  0  0
  2 11  1  0  0  0  0
  3  5  1  0  0  0  0
  4 16  1  1  0  0  0
  4 21  1  0  0  0  0
  4 22  2  0  0  0  0
  4 14  1  0  0  0  0
  5  1  1  1  0  0  0
  5  8  1  0  0  0  0
  6 17  2  0  0  0  0
  6 12  1  0  0  0  0
  8  7  1  1  0  0  0
  8 11  1  0  0  0  0
  9 19  1  0  0  0  0
 11 10  1  6  0  0  0
 12 20  2  0  0  0  0
 12 19  1  0  0  0  0
 13 20  1  0  0  0  0
 14 15  1  0  0  0  0
 18 19  2  0  0  0  0
M  CHG  1  21  -1
M  END
>  <CHROM.1>
22.80149618,-141.67648045,-167.49616884,160.09460518,117.20579208,-10.86004766
-10.62315439,-6.51976866,2.41058918,-0.65701555,2.24495772

>  <Name>
ligand

>  <RI>
0

>  <Rbt.Current_Directory>
/home/itssahil/PROJECTS/Mol_Feturizer/Test_systems_manuscript/rnas/4xwf

>  <Rbt.Executable>
rbdock ($Id: //depot/dev/client3/rdock/2013.1/src/exe/rbdock.cxx#4 $)

>  <Rbt.Library>
libRbt.so (2013.1, Build901 2013/11/27)

>  <Rbt.Parameter_File>
/export/apps/rDock/src/rDock_2013.1_src/data/scripts/dock_solv.prm

>  <Rbt.Receptor>
prm/blind_docking_20.prm

>  <SCORE>
2.13985

>  <SCORE.INTER>
-3.30722

>  <SCORE.INTER.CONST>
1

>  <SCORE.INTER.POLAR>
0

>  <SCORE.INTER.ROT>
5

>  <SCORE.INTER.SOLV>
20.6478

>  <SCORE.INTER.VDW>
-16.0208

>  <SCORE.INTER.norm>
-0.150328

>  <SCORE.INTRA>
4.37328

>  <SCORE.INTRA.DIHEDRAL>
3.6719

>  <SCORE.INTRA.DIHEDRAL.0>
3.49807

>  <SCORE.INTRA.POLAR>
0

>  <SCORE.INTRA.POLAR.0>
0

>  <SCORE.INTRA.REPUL>
0

>  <SCORE.INTRA.REPUL.0>
0

>  <SCORE.INTRA.SOLV>
1.85358

>  <SCORE.INTRA.SOLV.lig_0>
-73.062

>  <SCORE.INTRA.VDW>
1.61054

>  <SCORE.INTRA.VDW.0>
-1.83782

>  <SCORE.INTRA.norm>
0.198785

>  <SCORE.RESTR>
1.07378

>  <SCORE.RESTR.CAVITY>
1.07378

>  <SCORE.RESTR.norm>
0.0488083

>  <SCORE.SYSTEM>
0

>  <SCORE.SYSTEM.CONST>
0

>  <SCORE.SYSTEM.DIHEDRAL>
0

>  <SCORE.SYSTEM.SOLV>
0

>  <SCORE.SYSTEM.norm>
0

>  <SCORE.heavy>
22

>  <SCORE.norm>
0.0972657

>  <RMSD>
23.436

$$$$
ligand
 OpenBabel02271912143D
libRbt.so/2013.1/901 2013/11/27
 22 23  0  0  0  0  0  0  0  0999 V2000
  -12.3843  -10.7304   -5.6798 N   0  0  0  0  0  0  0  0  0  0  0  0
  -11.4462  -10.0373   -8.8566 C   0  0  1  0  0  0  0  0  0  0  0  0
  -12.4829  -10.5596   -7.9778 O   0  0  0  0  0  0  0  0  0  0  0  0
   -7.8917  -11.2254   -8.6712 P   0  0  1  0  0  0  0  0  0  0  0  0
  -12.4155   -9.8421   -6.7349 C   0  0  2  0  0  0  0  0  0  0  0  0
  -12.0680  -12.5468   -4.5344 N   0  0  0  0  0  0  0  0  0  0  0  0
  -11.1107   -8.0268   -5.8994 O   0  0  0  0  0  0  0  0  0  0  0  0
  -11.0953   -9.1734   -6.7578 C   0  0  2  0  0  0  0  0  0  0  0  0
  -11.9984  -11.0040   -1.3432 N   0  0  0  0  0  0  0  0  0  0  0  0
  -11.7203   -7.7310   -8.5400 O   0  0  0  0  0  0  0  0  0  0  0  0
  -10.8987   -8.8495   -8.1655 C   0  0  2  0  0  0  0  0  0  0  0  0
  -12.5096  -11.5953   -3.6976 C   0  0  0  0  0  0  0  0  0  0  0  0
  -13.1479   -9.2047   -3.9008 N   0  0  0  0  0  0  0  0  0  0  0  0
   -9.1983  -10.4386   -9.0353 O   0  0  0  0  0  0  0  0  0  0  0  0
  -10.4181  -11.1056   -9.0043 C   0  0  0  0  0  0  0  0  0  0  0  0
   -6.8309  -10.0839   -8.4654 O   0  0  0  0  0  0  0  0  0  0  0  0
  -11.9969  -12.0083   -5.7667 C   0  0  0  0  0  0  0  0  0  0  0  0
  -13.5754  -12.5699   -1.8398 O   0  0  0  0  0  0  0  0  0  0  0  0
  -12.7433  -11.7615   -2.2511 C   0  0  0  0  0  0  0  0  0  0  0  0
  -12.7081  -10.4477   -4.4110 C   0  0  0  0  0  0  0  0  0  0  0  0
   -8.1341  -12.0712   -7.4655 O   0  5  0  0  0  0  0  0  0  0  0  0
   -7.5947  -12.2459   -9.6925 O   0  0  0  0  0  0  0  0  0  0  0  0
  1 17  1  0  0  0  0
  1 20  1  0  0  0  0
  2 15  1  1  0  0  0
  2  3  1  0  0  0  0
  2 11  1  0  0  0  0
  3  5  1  0  0  0  0
  4 16  1  1  0  0  0
  4 21  1  0  0  0  0
  4 22  2  0  0  0  0
  4 14  1  0  0  0  0
  5  1  1  1  0  0  0
  5  8  1  0  0  0  0
  6 17  2  0  0  0  0
  6 12  1  0  0  0  0
  8  7  1  1  0  0  0
  8 11  1  0  0  0  0
  9 19  1  0  0  0  0
 11 10  1  6  0  0  0
 12 20  2  0  0  0  0
 12 19  1  0  0  0  0
 13 20  1  0  0  0  0
 14 15  1  0  0  0  0
 18 19  2  0  0  0  0
M  CHG  1  21  -1
M  END
>  <CHROM.1>
22.09405588,-142.61850606,-166.15105119,158.31558915,117.54995998,-10.85434409
-10.62107431,-6.51688665,2.40557342,-0.64741127,2.24206604

>  <Name>
ligand

>  <RI>
0

>  <Rbt.Current_Directory>
/home/itssahil/PROJECTS/Mol_Feturizer/Test_systems_manuscript/rnas/4xwf

>  <Rbt.Executable>
rbdock ($Id: //depot/dev/client3/rdock/2013.1/src/exe/rbdock.cxx#4 $)

>  <Rbt.Library>
libRbt.so (2013.1, Build901 2013/11/27)

>  <Rbt.Parameter_File>
/export/apps/rDock/src/rDock_2013.1_src/data/scripts/dock_solv.prm

>  <Rbt.Receptor>
prm/blind_docking_20.prm

>  <SCORE>
2.3473

>  <SCORE.INTER>
-3.10753

>  <SCORE.INTER.CONST>
1

>  <SCORE.INTER.POLAR>
0

>  <SCORE.INTER.ROT>
5

>  <SCORE.INTER.SOLV>
20.9862

>  <SCORE.INTER.VDW>
-16.0004

>  <SCORE.INTER.norm>
-0.141251

>  <SCORE.INTRA>
4.45208

>  <SCORE.INTRA.DIHEDRAL>
3.90029

>  <SCORE.INTRA.DIHEDRAL.0>
3.49807

>  <SCORE.INTRA.POLAR>
0

>  <SCORE.INTRA.POLAR.0>
0

>  <SCORE.INTRA.REPUL>
0

>  <SCORE.INTRA.REPUL.0>
0

>  <SCORE.INTRA.SOLV>
1.933

>  <SCORE.INTRA.SOLV.lig_0>
-73.062

>  <SCORE.INTRA.VDW>
1.53543

>  <SCORE.INTRA.VDW.0>
-1.83782

>  <SCORE.INTRA.norm>
0.202367

>  <SCORE.RESTR>
1.00276

>  <SCORE.RESTR.CAVITY>
1.00276

>  <SCORE.RESTR.norm>
0.0455798

>  <SCORE.SYSTEM>
0

>  <SCORE.SYSTEM.CONST>
0

>  <SCORE.SYSTEM.DIHEDRAL>
0

>  <SCORE.SYSTEM.SOLV>
0

>  <SCORE.SYSTEM.norm>
0

>  <SCORE.heavy>
22

>  <SCORE.norm>
0.106696

>  <RMSD>
23.438

$$$$
ligand
 OpenBabel02271912143D
libRbt.so/2013.1/901 2013/11/27
 22 23  0  0  0  0  0  0  0  0999 V2000
  -12.3095  -10.6362   -5.6441 N   0  0  0  0  0  0  0  0  0  0  0  0
  -11.4311  -10.0831   -8.8651 C   0  0  1  0  0  0  0  0  0  0  0  0
  -12.4559  -10.5544   -7.9445 O   0  0  0  0  0  0  0  0  0  0  0  0
   -7.8892  -11.2673   -8.7038 P   0  0  1  0  0  0  0  0  0  0  0  0
  -12.3509   -9.7897   -6.7327 C   0  0  2  0  0  0  0  0  0  0  0  0
  -12.0291  -12.4210   -4.4412 N   0  0  0  0  0  0  0  0  0  0  0  0
  -11.0018   -7.9632   -5.9978 O   0  0  0  0  0  0  0  0  0  0  0  0
  -11.0219   -9.1428   -6.8102 C   0  0  2  0  0  0  0  0  0  0  0  0
  -13.8192  -11.5342   -1.6120 N   0  0  0  0  0  0  0  0  0  0  0  0
  -11.6646   -7.7622   -8.6345 O   0  0  0  0  0  0  0  0  0  0  0  0
  -10.8514   -8.8776   -8.2335 C   0  0  2  0  0  0  0  0  0  0  0  0
  -12.3719  -11.4140   -3.6232 C   0  0  0  0  0  0  0  0  0  0  0  0
  -12.8906   -9.0013   -3.8934 N   0  0  0  0  0  0  0  0  0  0  0  0
   -9.2002  -10.5245   -9.1377 O   0  0  0  0  0  0  0  0  0  0  0  0
  -10.4221  -11.1721   -8.9921 C   0  0  0  0  0  0  0  0  0  0  0  0
   -6.8743  -10.0920   -8.4608 O   0  0  0  0  0  0  0  0  0  0  0  0
  -11.9970  -11.9362   -5.6972 C   0  0  0  0  0  0  0  0  0  0  0  0
  -11.5500  -11.5533   -1.4227 O   0  0  0  0  0  0  0  0  0  0  0  0
  -12.5342  -11.5099   -2.1607 C   0  0  0  0  0  0  0  0  0  0  0  0
  -12.5473  -10.2860   -4.3731 C   0  0  0  0  0  0  0  0  0  0  0  0
   -8.1630  -12.1086   -7.5017 O   0  5  0  0  0  0  0  0  0  0  0  0
   -7.5135  -12.2880   -9.6987 O   0  0  0  0  0  0  0  0  0  0  0  0
  1 17  1  0  0  0  0
  1 20  1  0  0  0  0
  2 15  1  1  0  0  0
  2  3  1  0  0  0  0
  2 11  1  0  0  0  0
  3  5  1  0  0  0  0
  4 16  1  1  0  0  0
  4 21  1  0  0  0  0
  4 22  2  0  0  0  0
  4 14  1  0  0  0  0
  5  1  1  1  0  0  0
  5  8  1  0  0  0  0
  6 17  2  0  0  0  0
  6 12  1  0  0  0  0
  8  7  1  1  0  0  0
  8 11  1  0  0  0  0
  9 19  1  0  0  0  0
 11 10  1  6  0  0  0
 12 20  2  0  0  0  0
 12 19  1  0  0  0  0
 13 20  1  0  0  0  0
 14 15  1  0  0  0  0
 18 19  2  0  0  0  0
M  CHG  1  21  -1
M  END
>  <CHROM.1>
19.13580172,-145.29068345,-157.87261509,154.43509903,-104.25557820,-10.78141827
-10.56491364,-6.51444972,2.36522724,-0.64279462,2.15238966

>  <Name>
ligand

>  <RI>
0

>  <Rbt.Current_Directory>
/home/itssahil/PROJECTS/Mol_Feturizer/Test_systems_manuscript/rnas/4xwf

>  <Rbt.Executable>
rbdock ($Id: //depot/dev/client3/rdock/2013.1/src/exe/rbdock.cxx#4 $)

>  <Rbt.Library>
libRbt.so (2013.1, Build901 2013/11/27)

>  <Rbt.Parameter_File>
/export/apps/rDock/src/rDock_2013.1_src/data/scripts/dock_solv.prm

>  <Rbt.Receptor>
prm/blind_docking_20.prm

>  <SCORE>
2.69271

>  <SCORE.INTER>
-3.39231

>  <SCORE.INTER.CONST>
1

>  <SCORE.INTER.POLAR>
0

>  <SCORE.INTER.ROT>
5

>  <SCORE.INTER.SOLV>
20.2551

>  <SCORE.INTER.VDW>
-15.9466

>  <SCORE.INTER.norm>
-0.154196

>  <SCORE.INTRA>
4.89832

>  <SCORE.INTRA.DIHEDRAL>
4.91674

>  <SCORE.INTRA.DIHEDRAL.0>
3.49807

>  <SCORE.INTRA.POLAR>
0

>  <SCORE.INTRA.POLAR.0>
0

>  <SCORE.INTRA.REPUL>
0

>  <SCORE.INTRA.REPUL.0>
0

>  <SCORE.INTRA.SOLV>
2.02894

>  <SCORE.INTRA.SOLV.lig_0>
-73.062

>  <SCORE.INTRA.VDW>
1.42548

>  <SCORE.INTRA.VDW.0>
-1.83782

>  <SCORE.INTRA.norm>
0.222651

>  <SCORE.RESTR>
1.18669

>  <SCORE.RESTR.CAVITY>
1.18669

>  <SCORE.RESTR.norm>
0.0539404

>  <SCORE.SYSTEM>
0

>  <SCORE.SYSTEM.CONST>
0

>  <SCORE.SYSTEM.DIHEDRAL>
0

>  <SCORE.SYSTEM.SOLV>
0

>  <SCORE.SYSTEM.norm>
0

>  <SCORE.heavy>
22

>  <SCORE.norm>
0.122396

>  <RMSD>
23.460

$$$$
ligand
 OpenBabel02271912143D
libRbt.so/2013.1/901 2013/11/27
 22 23  0  0  0  0  0  0  0  0999 V2000
  -12.8451   -9.9652   -5.6361 N   0  0  0  0  0  0  0  0  0  0  0  0
  -11.1475  -10.2015   -8.5541 C   0  0  1  0  0  0  0  0  0  0  0  0
  -12.3558  -10.5398   -7.8156 O   0  0  0  0  0  0  0  0  0  0  0  0
   -7.6901  -11.7250   -8.7666 P   0  0  1  0  0  0  0  0  0  0  0  0
  -12.6360   -9.4647   -6.9046 C   0  0  2  0  0  0  0  0  0  0  0  0
  -13.7491  -10.3314   -3.6971 N   0  0  0  0  0  0  0  0  0  0  0  0
  -11.6557   -7.3372   -6.4477 O   0  0  0  0  0  0  0  0  0  0  0  0
  -11.3791   -8.6854   -6.8447 C   0  0  2  0  0  0  0  0  0  0  0  0
  -12.4998  -11.8435   -1.4432 N   0  0  0  0  0  0  0  0  0  0  0  0
  -11.5763   -7.9626   -9.0999 O   0  0  0  0  0  0  0  0  0  0  0  0
  -10.8390   -8.8003   -8.1939 C   0  0  2  0  0  0  0  0  0  0  0  0
  -12.6654  -11.1147   -3.8087 C   0  0  0  0  0  0  0  0  0  0  0  0
  -10.9445  -11.5324   -5.5488 N   0  0  0  0  0  0  0  0  0  0  0  0
   -8.9597  -10.8091   -8.8547 O   0  0  0  0  0  0  0  0  0  0  0  0
  -10.0783  -11.1318   -8.0943 C   0  0  0  0  0  0  0  0  0  0  0  0
   -7.1436  -11.4429   -7.3201 O   0  0  0  0  0  0  0  0  0  0  0  0
  -13.8550   -9.6137   -4.8317 C   0  0  0  0  0  0  0  0  0  0  0  0
  -11.4707  -13.0151   -3.1027 O   0  0  0  0  0  0  0  0  0  0  0  0
  -12.1743  -12.0563   -2.7855 C   0  0  0  0  0  0  0  0  0  0  0  0
  -12.0925  -10.8920   -5.0284 C   0  0  0  0  0  0  0  0  0  0  0  0
   -8.0765  -13.1448   -9.0172 O   0  5  0  0  0  0  0  0  0  0  0  0
   -6.7782  -11.4640   -9.8948 O   0  0  0  0  0  0  0  0  0  0  0  0
  1 17  1  0  0  0  0
  1 20  1  0  0  0  0
  2 15  1  1  0  0  0
  2  3  1  0  0  0  0
  2 11  1  0  0  0  0
  3  5  1  0  0  0  0
  4 16  1  1  0  0  0
  4 21  1  0  0  0  0
  4 22  2  0  0  0  0
  4 14  1  0  0  0  0
  5  1  1  1  0  0  0
  5  8  1  0  0  0  0
  6 17  2  0  0  0  0
  6 12  1  0  0  0  0
  8  7  1  6  0  0  0
  8 11  1  0  0  0  0
  9 19  1  0  0  0  0
 11 10  1  6  0  0  0
 12 20  2  0  0  0  0
 12 19  1  0  0  0  0
 13 20  1  0  0  0  0
 14 15  1  0  0  0  0
 18 19  2  0  0  0  0
M  CHG  1  21  -1
M  END
>  <CHROM.1>
-133.40460618,177.91457743,-69.89313290,-171.94896156,-24.34742173,-10.74775686
-10.66619317,-6.66343322,2.56389693,-0.65303192,2.23065921

>  <Name>
ligand

>  <RI>
0

>  <Rbt.Current_Directory>
/home/itssahil/PROJECTS/Mol_Feturizer/Test_systems_manuscript/rnas/4xwf

>  <Rbt.Executable>
rbdock ($Id: //depot/dev/client3/rdock/2013.1/src/exe/rbdock.cxx#4 $)

>  <Rbt.Library>
libRbt.so (2013.1, Build901 2013/11/27)

>  <Rbt.Parameter_File>
/export/apps/rDock/src/rDock_2013.1_src/data/scripts/dock_solv.prm

>  <Rbt.Receptor>
prm/blind_docking_20.prm

>  <SCORE>
3.1234

>  <SCORE.INTER>
-1.0018

>  <SCORE.INTER.CONST>
1

>  <SCORE.INTER.POLAR>
0

>  <SCORE.INTER.ROT>
5

>  <SCORE.INTER.SOLV>
25.7738

>  <SCORE.INTER.VDW>
-16.1925

>  <SCORE.INTER.norm>
-0.0455363

>  <SCORE.INTRA>
2.31132

>  <SCORE.INTRA.DIHEDRAL>
-0.860669

>  <SCORE.INTRA.DIHEDRAL.0>
3.49807

>  <SCORE.INTRA.POLAR>
0

>  <SCORE.INTRA.POLAR.0>
0

>  <SCORE.INTRA.REPUL>
0

>  <SCORE.INTRA.REPUL.0>
0

>  <SCORE.INTRA.SOLV>
4.42081

>  <SCORE.INTRA.SOLV.lig_0>
-73.062

>  <SCORE.INTRA.VDW>
0.531249

>  <SCORE.INTRA.VDW.0>
-1.83782

>  <SCORE.INTRA.norm>
0.10506

>  <SCORE.RESTR>
1.81388

>  <SCORE.RESTR.CAVITY>
1.81388

>  <SCORE.RESTR.norm>
0.0824489

>  <SCORE.SYSTEM>
0

>  <SCORE.SYSTEM.CONST>
0

>  <SCORE.SYSTEM.DIHEDRAL>
0

>  <SCORE.SYSTEM.SOLV>
0

>  <SCORE.SYSTEM.norm>
0

>  <SCORE.heavy>
22

>  <SCORE.norm>
0.141973

>  <RMSD>
23.464

$$$$
ligand
 OpenBabel02271912143D
libRbt.so/2013.1/901 2013/11/27
 22 23  0  0  0  0  0  0  0  0999 V2000
  -12.3396  -10.6979   -5.6296 N   0  0  0  0  0  0  0  0  0  0  0  0
  -11.4673  -10.1687   -8.8564 C   0  0  1  0  0  0  0  0  0  0  0  0
  -12.4778  -10.6624   -7.9317 O   0  0  0  0  0  0  0  0  0  0  0  0
   -7.8782  -11.2456   -8.7123 P   0  0  1  0  0  0  0  0  0  0  0  0
  -12.4079   -9.8729   -6.7333 C   0  0  2  0  0  0  0  0  0  0  0  0
  -12.0125  -12.4539   -4.3966 N   0  0  0  0  0  0  0  0  0  0  0  0
  -11.1327   -7.9837   -6.0255 O   0  0  0  0  0  0  0  0  0  0  0  0
  -11.1040   -9.1774   -6.8168 C   0  0  2  0  0  0  0  0  0  0  0  0
  -13.7940  -11.5279   -1.5662 N   0  0  0  0  0  0  0  0  0  0  0  0
  -11.7899   -7.8546   -8.6681 O   0  0  0  0  0  0  0  0  0  0  0  0
  -10.9369   -8.9311   -8.2439 C   0  0  2  0  0  0  0  0  0  0  0  0
  -12.3679  -11.4388   -3.5942 C   0  0  0  0  0  0  0  0  0  0  0  0
  -12.9371   -9.0422   -3.9041 N   0  0  0  0  0  0  0  0  0  0  0  0
   -9.2185  -10.5294   -9.0987 O   0  0  0  0  0  0  0  0  0  0  0  0
  -10.4171  -11.2206   -8.9597 C   0  0  0  0  0  0  0  0  0  0  0  0
   -6.8833  -10.0494   -8.4892 O   0  0  0  0  0  0  0  0  0  0  0  0
  -12.0017  -11.9922   -5.6616 C   0  0  0  0  0  0  0  0  0  0  0  0
  -11.5229  -11.5395   -1.4003 O   0  0  0  0  0  0  0  0  0  0  0  0
  -12.5148  -11.5103   -2.1286 C   0  0  0  0  0  0  0  0  0  0  0  0
  -12.5726  -10.3287   -4.3631 C   0  0  0  0  0  0  0  0  0  0  0  0
   -8.0955  -12.1036   -7.5104 O   0  5  0  0  0  0  0  0  0  0  0  0
   -7.5101  -12.2485   -9.7279 O   0  0  0  0  0  0  0  0  0  0  0  0
  1 17  1  0  0  0  0
  1 20  1  0  0  0  0
  2 15  1  1  0  0  0
  2  3  1  0  0  0  0
  2 11  1  0  0  0  0
  3  5  1  0  0  0  0
  4 16  1  1  0  0  0
  4 21  1  0  0  0  0
  4 22  2  0  0  0  0
  4 14  1  0  0  0  0
  5  1  1  1  0  0  0
  5  8  1  0  0  0  0
  6 17  2  0  0  0  0
  6 12  1  0  0  0  0
  8  7  1  1  0  0  0
  8 11  1  0  0  0  0
  9 19  1  0  0  0  0
 11 10  1  6  0  0  0
 12 20  2  0  0  0  0
 12 19  1  0  0  0  0
 13 20  1  0  0  0  0
 14 15  1  0  0  0  0
 18 19  2  0  0  0  0
M  CHG  1  21  -1
M  END
>  <CHROM.1>
17.82607343,-144.73054835,-159.78020021,157.61654563,-105.29102671,-10.80228978
-10.59118649,-6.50890416,2.34610929,-0.61857949,2.12186406

>  <Name>
ligand

>  <RI>
0

>  <Rbt.Current_Directory>
/home/itssahil/PROJECTS/Mol_Feturizer/Test_systems_manuscript/rnas/4xwf

>  <Rbt.Executable>
rbdock ($Id: //depot/dev/client3/rdock/2013.1/src/exe/rbdock.cxx#4 $)

>  <Rbt.Library>
libRbt.so (2013.1, Build901 2013/11/27)

>  <Rbt.Parameter_File>
/export/apps/rDock/src/rDock_2013.1_src/data/scripts/dock_solv.prm

>  <Rbt.Receptor>
prm/blind_docking_20.prm

>  <SCORE>
2.72711

>  <SCORE.INTER>
-3.03776

>  <SCORE.INTER.CONST>
1

>  <SCORE.INTER.POLAR>
0

>  <SCORE.INTER.ROT>
5

>  <SCORE.INTER.SOLV>
20.3012

>  <SCORE.INTER.VDW>
-15.7256

>  <SCORE.INTER.norm>
-0.13808

>  <SCORE.INTRA>
4.64269

>  <SCORE.INTRA.DIHEDRAL>
4.28757

>  <SCORE.INTRA.DIHEDRAL.0>
3.49807

>  <SCORE.INTRA.POLAR>
0

>  <SCORE.INTRA.POLAR.0>
0

>  <SCORE.INTRA.REPUL>
0

>  <SCORE.INTRA.REPUL.0>
0

>  <SCORE.INTRA.SOLV>
1.99099

>  <SCORE.INTRA.SOLV.lig_0>
-73.062

>  <SCORE.INTRA.VDW>
1.5034

>  <SCORE.INTRA.VDW.0>
-1.83782

>  <SCORE.INTRA.norm>
0.211031

>  <SCORE.RESTR>
1.12218

>  <SCORE.RESTR.CAVITY>
1.12218

>  <SCORE.RESTR.norm>
0.0510084

>  <SCORE.SYSTEM>
0

>  <SCORE.SYSTEM.CONST>
0

>  <SCORE.SYSTEM.DIHEDRAL>
0

>  <SCORE.SYSTEM.SOLV>
0

>  <SCORE.SYSTEM.norm>
0

>  <SCORE.heavy>
22

>  <SCORE.norm>
0.12396

>  <RMSD>
23.465

$$$$
ligand
 OpenBabel02271912143D
libRbt.so/2013.1/901 2013/11/27
 22 23  0  0  0  0  0  0  0  0999 V2000
  -12.0129  -10.4805   -5.7943 N   0  0  0  0  0  0  0  0  0  0  0  0
  -11.4537  -10.0624   -9.1056 C   0  0  1  0  0  0  0  0  0  0  0  0
  -12.3490  -10.5674   -8.0744 O   0  0  0  0  0  0  0  0  0  0  0  0
   -7.9951  -11.3730   -8.3333 P   0  0  1  0  0  0  0  0  0  0  0  0
  -12.2262   -9.7167   -6.9231 C   0  0  2  0  0  0  0  0  0  0  0  0
  -11.2885  -12.0555   -4.4883 N   0  0  0  0  0  0  0  0  0  0  0  0
  -11.0153   -7.7238   -6.4151 O   0  0  0  0  0  0  0  0  0  0  0  0
  -10.9800   -8.9516   -7.1521 C   0  0  2  0  0  0  0  0  0  0  0  0
  -11.5069  -10.5039   -1.4145 N   0  0  0  0  0  0  0  0  0  0  0  0
  -11.9023   -7.7644   -8.9925 O   0  0  0  0  0  0  0  0  0  0  0  0
  -10.9509   -8.7671   -8.5978 C   0  0  2  0  0  0  0  0  0  0  0  0
  -11.9976  -11.1900   -3.7475 C   0  0  0  0  0  0  0  0  0  0  0  0
  -13.2227   -9.0729   -4.1723 N   0  0  0  0  0  0  0  0  0  0  0  0
   -9.4163  -10.7121   -8.2854 O   0  0  0  0  0  0  0  0  0  0  0  0
  -10.3528  -11.0553   -9.2543 C   0  0  0  0  0  0  0  0  0  0  0  0
   -8.0082  -12.3425   -7.0963 O   0  0  0  0  0  0  0  0  0  0  0  0
  -11.3048  -11.6154   -5.7609 C   0  0  0  0  0  0  0  0  0  0  0  0
  -13.0796  -12.0891   -1.8612 O   0  0  0  0  0  0  0  0  0  0  0  0
  -12.2439  -11.2977   -2.2975 C   0  0  0  0  0  0  0  0  0  0  0  0
  -12.4544  -10.1937   -4.5624 C   0  0  0  0  0  0  0  0  0  0  0  0
   -7.7999  -12.0497   -9.6493 O   0  5  0  0  0  0  0  0  0  0  0  0
   -6.9412  -10.3432   -8.3720 O   0  0  0  0  0  0  0  0  0  0  0  0
  1 17  1  0  0  0  0
  1 20  1  0  0  0  0
  2 15  1  1  0  0  0
  2  3  1  0  0  0  0
  2 11  1  0  0  0  0
  3  5  1  0  0  0  0
  4 16  1  1  0  0  0
  4 21  1  0  0  0  0
  4 22  2  0  0  0  0
  4 14  1  0  0  0  0
  5  1  1  1  0  0  0
  5  8  1  0  0  0  0
  6 17  2  0  0  0  0
  6 12  1  0  0  0  0
  8  7  1  1  0  0  0
  8 11  1  0  0  0  0
  9 19  1  0  0  0  0
 11 10  1  1  0  0  0
 12 20  2  0  0  0  0
 12 19  1  0  0  0  0
 13 20  1  0  0  0  0
 14 15  1  0  0  0  0
 18 19  2  0  0  0  0
M  CHG  1  21  -1
M  END
>  <CHROM.1>
34.95960229,-85.56861365,-109.18651916,-168.20084111,102.20163227,-10.70688649
-10.49653129,-6.56381676,2.28622097,-0.62442871,2.05509778

>  <Name>
ligand

>  <RI>
0

>  <Rbt.Current_Directory>
/home/itssahil/PROJECTS/Mol_Feturizer/Test_systems_manuscript/rnas/4xwf

>  <Rbt.Executable>
rbdock ($Id: //depot/dev/client3/rdock/2013.1/src/exe/rbdock.cxx#4 $)

>  <Rbt.Library>
libRbt.so (2013.1, Build901 2013/11/27)

>  <Rbt.Parameter_File>
/export/apps/rDock/src/rDock_2013.1_src/data/scripts/dock_solv.prm

>  <Rbt.Receptor>
prm/blind_docking_20.prm

>  <SCORE>
4.45406

>  <SCORE.INTER>
-1.40093

>  <SCORE.INTER.CONST>
1

>  <SCORE.INTER.POLAR>
0

>  <SCORE.INTER.ROT>
5

>  <SCORE.INTER.SOLV>
23.8434

>  <SCORE.INTER.VDW>
-15.8151

>  <SCORE.INTER.norm>
-0.0636787

>  <SCORE.INTRA>
4.47432

>  <SCORE.INTRA.DIHEDRAL>
3.1337

>  <SCORE.INTRA.DIHEDRAL.0>
3.49807

>  <SCORE.INTRA.POLAR>
0

>  <SCORE.INTRA.POLAR.0>
0

>  <SCORE.INTRA.REPUL>
0

>  <SCORE.INTRA.REPUL.0>
0

>  <SCORE.INTRA.SOLV>
1.12339

>  <SCORE.INTRA.SOLV.lig_0>
-73.062

>  <SCORE.INTRA.VDW>
2.34578

>  <SCORE.INTRA.VDW.0>
-1.83782

>  <SCORE.INTRA.norm>
0.203378

>  <SCORE.RESTR>
1.38067

>  <SCORE.RESTR.CAVITY>
1.38067

>  <SCORE.RESTR.norm>
0.0627578

>  <SCORE.SYSTEM>
0

>  <SCORE.SYSTEM.CONST>
0

>  <SCORE.SYSTEM.DIHEDRAL>
0

>  <SCORE.SYSTEM.SOLV>
0

>  <SCORE.SYSTEM.norm>
0

>  <SCORE.heavy>
22

>  <SCORE.norm>
0.202457

>  <RMSD>
23.474

$$$$
ligand
 OpenBabel02271912143D
libRbt.so/2013.1/901 2013/11/27
 22 23  0  0  0  0  0  0  0  0999 V2000
  -12.8685   -9.9720   -5.8420 N   0  0  0  0  0  0  0  0  0  0  0  0
  -11.1769  -10.5877   -8.7077 C   0  0  1  0  0  0  0  0  0  0  0  0
  -12.4003  -10.7939   -7.9456 O   0  0  0  0  0  0  0  0  0  0  0  0
   -7.6483  -11.9302   -8.4132 P   0  0  1  0  0  0  0  0  0  0  0  0
  -12.6354   -9.6177   -7.1548 C   0  0  2  0  0  0  0  0  0  0  0  0
  -13.8015  -10.1068   -3.8869 N   0  0  0  0  0  0  0  0  0  0  0  0
  -11.5647   -7.4978   -6.9182 O   0  0  0  0  0  0  0  0  0  0  0  0
  -11.3460   -8.8910   -7.1691 C   0  0  2  0  0  0  0  0  0  0  0  0
  -13.2051  -12.2580   -1.8648 N   0  0  0  0  0  0  0  0  0  0  0  0
  -11.5072   -8.4025   -9.4892 O   0  0  0  0  0  0  0  0  0  0  0  0
  -10.8087   -9.1708   -8.4951 C   0  0  2  0  0  0  0  0  0  0  0  0
  -12.7318  -10.9169   -3.8974 C   0  0  0  0  0  0  0  0  0  0  0  0
  -10.9996  -11.5538   -5.5579 N   0  0  0  0  0  0  0  0  0  0  0  0
   -8.9813  -11.2255   -8.8434 O   0  0  0  0  0  0  0  0  0  0  0  0
  -10.1500  -11.5092   -8.1454 C   0  0  0  0  0  0  0  0  0  0  0  0
   -7.5989  -13.2001   -9.3381 O   0  0  0  0  0  0  0  0  0  0  0  0
  -13.8805   -9.5163   -5.0946 C   0  0  0  0  0  0  0  0  0  0  0  0
  -11.0725  -11.9846   -2.6152 O   0  0  0  0  0  0  0  0  0  0  0  0
  -12.2706  -11.7490   -2.7707 C   0  0  0  0  0  0  0  0  0  0  0  0
  -12.1408  -10.8398   -5.1263 C   0  0  0  0  0  0  0  0  0  0  0  0
   -6.5030  -10.9895   -8.5901 O   0  5  0  0  0  0  0  0  0  0  0  0
   -7.6228  -12.1553   -6.9567 O   0  0  0  0  0  0  0  0  0  0  0  0
  1 17  1  0  0  0  0
  1 20  1  0  0  0  0
  2 15  1  1  0  0  0
  2  3  1  0  0  0  0
  2 11  1  0  0  0  0
  3  5  1  0  0  0  0
  4 16  1  6  0  0  0
  4 21  1  0  0  0  0
  4 22  2  0  0  0  0
  4 14  1  0  0  0  0
  5  1  1  1  0  0  0
  5  8  1  0  0  0  0
  6 17  2  0  0  0  0
  6 12  1  0  0  0  0
  8  7  1  6  0  0  0
  8 11  1  0  0  0  0
  9 19  1  0  0  0  0
 11 10  1  6  0  0  0
 12 20  2  0  0  0  0
 12 19  1  0  0  0  0
 13 20  1  0  0  0  0
 14 15  1  0  0  0  0
 18 19  2  0  0  0  0
M  CHG  1  21  -1
M  END
>  <CHROM.1>
-131.89994592,-176.54121571,93.10515594,174.44734753,31.08200280,-10.75249230
-10.75703333,-6.68247834,2.56273864,-0.58199036,2.11539425

>  <Name>
ligand

>  <RI>
0

>  <Rbt.Current_Directory>
/home/itssahil/PROJECTS/Mol_Feturizer/Test_systems_manuscript/rnas/4xwf

>  <Rbt.Executable>
rbdock ($Id: //depot/dev/client3/rdock/2013.1/src/exe/rbdock.cxx#4 $)

>  <Rbt.Library>
libRbt.so (2013.1, Build901 2013/11/27)

>  <Rbt.Parameter_File>
/export/apps/rDock/src/rDock_2013.1_src/data/scripts/dock_solv.prm

>  <Rbt.Receptor>
prm/blind_docking_20.prm

>  <SCORE>
5.90562

>  <SCORE.INTER>
0.463774

>  <SCORE.INTER.CONST>
1

>  <SCORE.INTER.POLAR>
0

>  <SCORE.INTER.ROT>
5

>  <SCORE.INTER.SOLV>
29.8929

>  <SCORE.INTER.VDW>
-16.5884

>  <SCORE.INTER.norm>
0.0210806

>  <SCORE.INTRA>
3.61148

>  <SCORE.INTRA.DIHEDRAL>
0.432368

>  <SCORE.INTRA.DIHEDRAL.0>
3.49807

>  <SCORE.INTRA.POLAR>
0

>  <SCORE.INTRA.POLAR.0>
0

>  <SCORE.INTRA.REPUL>
0

>  <SCORE.INTRA.REPUL.0>
0

>  <SCORE.INTRA.SOLV>
5.57523

>  <SCORE.INTRA.SOLV.lig_0>
-73.062

>  <SCORE.INTRA.VDW>
0.607678

>  <SCORE.INTRA.VDW.0>
-1.83782

>  <SCORE.INTRA.norm>
0.164158

>  <SCORE.RESTR>
1.83037

>  <SCORE.RESTR.CAVITY>
1.83037

>  <SCORE.RESTR.norm>
0.0831985

>  <SCORE.SYSTEM>
0

>  <SCORE.SYSTEM.CONST>
0

>  <SCORE.SYSTEM.DIHEDRAL>
0

>  <SCORE.SYSTEM.SOLV>
0

>  <SCORE.SYSTEM.norm>
0

>  <SCORE.heavy>
22

>  <SCORE.norm>
0.268437

>  <RMSD>
23.475

$$$$
ligand
 OpenBabel02271912143D
libRbt.so/2013.1/901 2013/11/27
 22 23  0  0  0  0  0  0  0  0999 V2000
  -12.9089  -10.0138   -5.8040 N   0  0  0  0  0  0  0  0  0  0  0  0
  -11.1741  -10.6147   -8.6468 C   0  0  1  0  0  0  0  0  0  0  0  0
  -12.4138  -10.8140   -7.9098 O   0  0  0  0  0  0  0  0  0  0  0  0
   -7.6672  -12.0037   -8.2870 P   0  0  1  0  0  0  0  0  0  0  0  0
  -12.6471   -9.6452   -7.1074 C   0  0  2  0  0  0  0  0  0  0  0  0
  -13.8365  -10.1065   -3.8439 N   0  0  0  0  0  0  0  0  0  0  0  0
  -11.5520   -7.5439   -6.8228 O   0  0  0  0  0  0  0  0  0  0  0  0
  -11.3478   -8.9365   -7.0887 C   0  0  2  0  0  0  0  0  0  0  0  0
  -13.1592  -11.8595   -1.5721 N   0  0  0  0  0  0  0  0  0  0  0  0
  -11.4601   -8.4150   -9.4044 O   0  0  0  0  0  0  0  0  0  0  0  0
  -10.7904   -9.2061   -8.4084 C   0  0  2  0  0  0  0  0  0  0  0  0
  -12.8652  -11.0311   -3.8919 C   0  0  0  0  0  0  0  0  0  0  0  0
  -11.2284  -11.8044   -5.5908 N   0  0  0  0  0  0  0  0  0  0  0  0
   -8.9549  -11.1814   -8.6396 O   0  0  0  0  0  0  0  0  0  0  0  0
  -10.1703  -11.5579   -8.0787 C   0  0  0  0  0  0  0  0  0  0  0  0
   -6.5011  -11.0002   -8.6088 O   0  0  0  0  0  0  0  0  0  0  0  0
  -13.8574   -9.4717   -5.0313 C   0  0  0  0  0  0  0  0  0  0  0  0
  -11.5923  -12.7717   -2.9499 O   0  0  0  0  0  0  0  0  0  0  0  0
  -12.4925  -11.9462   -2.7972 C   0  0  0  0  0  0  0  0  0  0  0  0
  -12.2785  -10.9809   -5.1242 C   0  0  0  0  0  0  0  0  0  0  0  0
   -7.7284  -12.4469   -6.8630 O   0  5  0  0  0  0  0  0  0  0  0  0
   -7.6611  -13.2950   -8.9978 O   0  0  0  0  0  0  0  0  0  0  0  0
  1 17  1  0  0  0  0
  1 20  1  0  0  0  0
  2 15  1  1  0  0  0
  2  3  1  0  0  0  0
  2 11  1  0  0  0  0
  3  5  1  0  0  0  0
  4 16  1  6  0  0  0
  4 21  1  0  0  0  0
  4 22  2  0  0  0  0
  4 14  1  0  0  0  0
  5  1  1  1  0  0  0
  5  8  1  0  0  0  0
  6 17  2  0  0  0  0
  6 12  1  0  0  0  0
  8  7  1  6  0  0  0
  8 11  1  0  0  0  0
  9 19  1  0  0  0  0
 11 10  1  6  0  0  0
 12 20  2  0  0  0  0
 12 19  1  0  0  0  0
 13 20  1  0  0  0  0
 14 15  1  0  0  0  0
 18 19  2  0  0  0  0
M  CHG  1  21  -1
M  END
>  <CHROM.1>
-137.89103860,-169.99747353,-158.69316468,-178.16702445,-1.65271903,-10.81277690
-10.84098164,-6.61641737,2.61704648,-0.60014817,2.19332606

>  <Name>
ligand

>  <RI>
0

>  <Rbt.Current_Directory>
/home/itssahil/PROJECTS/Mol_Feturizer/Test_systems_manuscript/rnas/4xwf

>  <Rbt.Executable>
rbdock ($Id: //depot/dev/client3/rdock/2013.1/src/exe/rbdock.cxx#4 $)

>  <Rbt.Library>
libRbt.so (2013.1, Build901 2013/11/27)

>  <Rbt.Parameter_File>
/export/apps/rDock/src/rDock_2013.1_src/data/scripts/dock_solv.prm

>  <Rbt.Receptor>
prm/blind_docking_20.prm

>  <SCORE>
1.27186

>  <SCORE.INTER>
-4.20016

>  <SCORE.INTER.CONST>
1

>  <SCORE.INTER.POLAR>
0

>  <SCORE.INTER.ROT>
5

>  <SCORE.INTER.SOLV>
23.9528

>  <SCORE.INTER.VDW>
-17.7177

>  <SCORE.INTER.norm>
-0.190917

>  <SCORE.INTRA>
3.43667

>  <SCORE.INTRA.DIHEDRAL>
-0.970892

>  <SCORE.INTRA.DIHEDRAL.0>
3.49807

>  <SCORE.INTRA.POLAR>
0

>  <SCORE.INTRA.POLAR.0>
0

>  <SCORE.INTRA.REPUL>
0

>  <SCORE.INTRA.REPUL.0>
0

>  <SCORE.INTRA.SOLV>
5.85859

>  <SCORE.INTRA.SOLV.lig_0>
-73.062

>  <SCORE.INTRA.VDW>
0.992825

>  <SCORE.INTRA.VDW.0>
-1.83782

>  <SCORE.INTRA.norm>
0.156212

>  <SCORE.RESTR>
2.03535

>  <SCORE.RESTR.CAVITY>
2.03535

>  <SCORE.RESTR.norm>
0.092516

>  <SCORE.SYSTEM>
0

>  <SCORE.SYSTEM.CONST>
0

>  <SCORE.SYSTEM.DIHEDRAL>
0

>  <SCORE.SYSTEM.SOLV>
0

>  <SCORE.SYSTEM.norm>
0

>  <SCORE.heavy>
22

>  <SCORE.norm>
0.0578119

>  <RMSD>
23.485

$$$$
ligand
 OpenBabel02271912143D
libRbt.so/2013.1/901 2013/11/27
 22 23  0  0  0  0  0  0  0  0999 V2000
  -11.9749  -10.4544   -5.7910 N   0  0  0  0  0  0  0  0  0  0  0  0
  -11.4021  -10.0434   -9.1009 C   0  0  1  0  0  0  0  0  0  0  0  0
  -12.3084  -10.5329   -8.0718 O   0  0  0  0  0  0  0  0  0  0  0  0
   -7.9576  -11.3828   -8.3413 P   0  0  1  0  0  0  0  0  0  0  0  0
  -12.1721   -9.6857   -6.9194 C   0  0  2  0  0  0  0  0  0  0  0  0
  -11.2786  -12.0415   -4.4842 N   0  0  0  0  0  0  0  0  0  0  0  0
  -10.9256   -7.7160   -6.4072 O   0  0  0  0  0  0  0  0  0  0  0  0
  -10.9116   -8.9435   -7.1454 C   0  0  2  0  0  0  0  0  0  0  0  0
  -11.5001  -10.4846   -1.4095 N   0  0  0  0  0  0  0  0  0  0  0  0
  -11.8085   -7.7377   -8.9863 O   0  0  0  0  0  0  0  0  0  0  0  0
  -10.8764   -8.7582   -8.5909 C   0  0  2  0  0  0  0  0  0  0  0  0
  -11.9799  -11.1679   -3.7455 C   0  0  0  0  0  0  0  0  0  0  0  0
  -13.1743   -9.0338   -4.1726 N   0  0  0  0  0  0  0  0  0  0  0  0
   -9.3866  -10.7417   -8.2664 O   0  0  0  0  0  0  0  0  0  0  0  0
  -10.3194  -11.0563   -9.2486 C   0  0  0  0  0  0  0  0  0  0  0  0
   -7.9357  -12.3561   -7.1073 O   0  0  0  0  0  0  0  0  0  0  0  0
  -11.2823  -11.5988   -5.7561 C   0  0  0  0  0  0  0  0  0  0  0  0
  -13.0768  -12.0629   -1.8659 O   0  0  0  0  0  0  0  0  0  0  0  0
  -12.2352  -11.2750   -2.2971 C   0  0  0  0  0  0  0  0  0  0  0  0
  -12.4191  -10.1641   -4.5608 C   0  0  0  0  0  0  0  0  0  0  0  0
   -7.7763  -12.0529   -9.6627 O   0  5  0  0  0  0  0  0  0  0  0  0
   -6.9187  -10.3386   -8.3951 O   0  0  0  0  0  0  0  0  0  0  0  0
  1 17  1  0  0  0  0
  1 20  1  0  0  0  0
  2 15  1  1  0  0  0
  2  3  1  0  0  0  0
  2 11  1  0  0  0  0
  3  5  1  0  0  0  0
  4 16  1  1  0  0  0
  4 21  1  0  0  0  0
  4 22  2  0  0  0  0
  4 14  1  0  0  0  0
  5  1  1  1  0  0  0
  5  8  1  0  0  0  0
  6 17  2  0  0  0  0
  6 12  1  0  0  0  0
  8  7  1  1  0  0  0
  8 11  1  0  0  0  0
  9 19  1  0  0  0  0
 11 10  1  1  0  0  0
 12 20  2  0  0  0  0
 12 19  1  0  0  0  0
 13 20  1  0  0  0  0
 14 15  1  0  0  0  0
 18 19  2  0  0  0  0
M  CHG  1  21  -1
M  END
>  <CHROM.1>
35.31044548,-84.83222590,-111.56778177,-165.60570147,102.73807538,-10.66640022
-10.48473752,-6.56342068,2.29745761,-0.63419823,2.06453356

>  <Name>
ligand

>  <RI>
0

>  <Rbt.Current_Directory>
/home/itssahil/PROJECTS/Mol_Feturizer/Test_systems_manuscript/rnas/4xwf

>  <Rbt.Executable>
rbdock ($Id: //depot/dev/client3/rdock/2013.1/src/exe/rbdock.cxx#4 $)

>  <Rbt.Library>
libRbt.so (2013.1, Build901 2013/11/27)

>  <Rbt.Parameter_File>
/export/apps/rDock/src/rDock_2013.1_src/data/scripts/dock_solv.prm

>  <Rbt.Receptor>
prm/blind_docking_20.prm

>  <SCORE>
4.35999

>  <SCORE.INTER>
-1.69239

>  <SCORE.INTER.CONST>
1

>  <SCORE.INTER.POLAR>
0

>  <SCORE.INTER.ROT>
5

>  <SCORE.INTER.SOLV>
23.8253

>  <SCORE.INTER.VDW>
-16.0034

>  <SCORE.INTER.norm>
-0.076927

>  <SCORE.INTRA>
4.64072

>  <SCORE.INTRA.DIHEDRAL>
3.39151

>  <SCORE.INTRA.DIHEDRAL.0>
3.49807

>  <SCORE.INTRA.POLAR>
0

>  <SCORE.INTRA.POLAR.0>
0

>  <SCORE.INTRA.REPUL>
0

>  <SCORE.INTRA.REPUL.0>
0

>  <SCORE.INTRA.SOLV>
1.20183

>  <SCORE.INTRA.SOLV.lig_0>
-73.062

>  <SCORE.INTRA.VDW>
2.34404

>  <SCORE.INTRA.VDW.0>
-1.83782

>  <SCORE.INTRA.norm>
0.210942

>  <SCORE.RESTR>
1.41166

>  <SCORE.RESTR.CAVITY>
1.41166

>  <SCORE.RESTR.norm>
0.0641666

>  <SCORE.SYSTEM>
0

>  <SCORE.SYSTEM.CONST>
0

>  <SCORE.SYSTEM.DIHEDRAL>
0

>  <SCORE.SYSTEM.SOLV>
0

>  <SCORE.SYSTEM.norm>
0

>  <SCORE.heavy>
22

>  <SCORE.norm>
0.198181

>  <RMSD>
23.495

$$$$
ligand
 OpenBabel02271912143D
libRbt.so/2013.1/901 2013/11/27
 22 23  0  0  0  0  0  0  0  0999 V2000
  -12.3293  -10.7240   -5.6497 N   0  0  0  0  0  0  0  0  0  0  0  0
  -11.3407  -10.0729   -8.8201 C   0  0  1  0  0  0  0  0  0  0  0  0
  -12.3944  -10.5764   -7.9505 O   0  0  0  0  0  0  0  0  0  0  0  0
   -7.7825  -11.2738   -9.1669 P   0  0  1  0  0  0  0  0  0  0  0  0
  -12.3376   -9.8466   -6.7142 C   0  0  2  0  0  0  0  0  0  0  0  0
  -12.0458  -12.5310   -4.4811 N   0  0  0  0  0  0  0  0  0  0  0  0
  -11.0277   -8.0346   -5.8795 O   0  0  0  0  0  0  0  0  0  0  0  0
  -11.0110   -9.1902   -6.7257 C   0  0  2  0  0  0  0  0  0  0  0  0
  -12.0088  -10.9536   -1.3055 N   0  0  0  0  0  0  0  0  0  0  0  0
  -11.5977   -7.7610   -8.5313 O   0  0  0  0  0  0  0  0  0  0  0  0
  -10.7918   -8.8830   -8.1337 C   0  0  2  0  0  0  0  0  0  0  0  0
  -12.4904  -11.5668   -3.6606 C   0  0  0  0  0  0  0  0  0  0  0  0
  -13.1040   -9.1729   -3.8976 N   0  0  0  0  0  0  0  0  0  0  0  0
   -9.1424  -10.5043   -9.2971 O   0  0  0  0  0  0  0  0  0  0  0  0
  -10.3206  -11.1521   -8.9422 C   0  0  0  0  0  0  0  0  0  0  0  0
   -6.8759  -10.2680   -8.3687 O   0  0  0  0  0  0  0  0  0  0  0  0
  -11.9524  -12.0061   -5.7178 C   0  0  0  0  0  0  0  0  0  0  0  0
  -13.5896  -12.5138   -1.8079 O   0  0  0  0  0  0  0  0  0  0  0  0
  -12.7459  -11.7157   -2.2159 C   0  0  0  0  0  0  0  0  0  0  0  0
  -12.6684  -10.4250   -4.3886 C   0  0  0  0  0  0  0  0  0  0  0  0
   -8.0085  -12.5813   -8.4833 O   0  5  0  0  0  0  0  0  0  0  0  0
   -7.3014  -11.7118  -10.4895 O   0  0  0  0  0  0  0  0  0  0  0  0
  1 17  1  0  0  0  0
  1 20  1  0  0  0  0
  2 15  1  1  0  0  0
  2  3  1  0  0  0  0
  2 11  1  0  0  0  0
  3  5  1  0  0  0  0
  4 16  1  1  0  0  0
  4 21  1  0  0  0  0
  4 22  2  0  0  0  0
  4 14  1  0  0  0  0
  5  1  1  1  0  0  0
  5  8  1  0  0  0  0
  6 17  2  0  0  0  0
  6 12  1  0  0  0  0
  8  7  1  1  0  0  0
  8 11  1  0  0  0  0
  9 19  1  0  0  0  0
 11 10  1  6  0  0  0
 12 20  2  0  0  0  0
 12 19  1  0  0  0  0
 13 20  1  0  0  0  0
 14 15  1  0  0  0  0
 18 19  2  0  0  0  0
M  CHG  1  21  -1
M  END
>  <CHROM.1>
22.10824215,-157.07493609,-129.92506552,164.93844810,117.67219954,-10.78220037
-10.63402805,-6.63755053,2.45849524,-0.72025346,2.29728326

>  <Name>
ligand

>  <RI>
0

>  <Rbt.Current_Directory>
/home/itssahil/PROJECTS/Mol_Feturizer/Test_systems_manuscript/rnas/4xwf

>  <Rbt.Executable>
rbdock ($Id: //depot/dev/client3/rdock/2013.1/src/exe/rbdock.cxx#4 $)

>  <Rbt.Library>
libRbt.so (2013.1, Build901 2013/11/27)

>  <Rbt.Parameter_File>
/export/apps/rDock/src/rDock_2013.1_src/data/scripts/dock_solv.prm

>  <Rbt.Receptor>
prm/blind_docking_20.prm

>  <SCORE>
0.786461

>  <SCORE.INTER>
-3.96617

>  <SCORE.INTER.CONST>
1

>  <SCORE.INTER.POLAR>
0

>  <SCORE.INTER.ROT>
5

>  <SCORE.INTER.SOLV>
19.6957

>  <SCORE.INTER.VDW>
-16.1427

>  <SCORE.INTER.norm>
-0.18028

>  <SCORE.INTRA>
3.13628

>  <SCORE.INTRA.DIHEDRAL>
2.88612

>  <SCORE.INTRA.DIHEDRAL.0>
3.49807

>  <SCORE.INTRA.POLAR>
0

>  <SCORE.INTRA.POLAR.0>
0

>  <SCORE.INTRA.REPUL>
0

>  <SCORE.INTRA.REPUL.0>
0

>  <SCORE.INTRA.SOLV>
1.19456

>  <SCORE.INTRA.SOLV.lig_0>
-73.062

>  <SCORE.INTRA.VDW>
1.09595

>  <SCORE.INTRA.VDW.0>
-1.83782

>  <SCORE.INTRA.norm>
0.142558

>  <SCORE.RESTR>
1.61634

>  <SCORE.RESTR.CAVITY>
1.61634

>  <SCORE.RESTR.norm>
0.0734701

>  <SCORE.SYSTEM>
0

>  <SCORE.SYSTEM.CONST>
0

>  <SCORE.SYSTEM.DIHEDRAL>
0

>  <SCORE.SYSTEM.SOLV>
0

>  <SCORE.SYSTEM.norm>
0

>  <SCORE.heavy>
22

>  <SCORE.norm>
0.0357482

>  <RMSD>
23.498

$$$$
ligand
 OpenBabel02271912143D
libRbt.so/2013.1/901 2013/11/27
 22 23  0  0  0  0  0  0  0  0999 V2000
  -12.3214  -10.7250   -5.6714 N   0  0  0  0  0  0  0  0  0  0  0  0
  -11.3469  -10.0365   -8.8383 C   0  0  1  0  0  0  0  0  0  0  0  0
  -12.3972  -10.5492   -7.9699 O   0  0  0  0  0  0  0  0  0  0  0  0
   -7.7890  -11.2663   -9.1600 P   0  0  1  0  0  0  0  0  0  0  0  0
  -12.3335   -9.8346   -6.7251 C   0  0  2  0  0  0  0  0  0  0  0  0
  -12.0350  -12.5465   -4.5264 N   0  0  0  0  0  0  0  0  0  0  0  0
  -11.0169   -8.0348   -5.8745 O   0  0  0  0  0  0  0  0  0  0  0  0
  -11.0059   -9.1800   -6.7348 C   0  0  2  0  0  0  0  0  0  0  0  0
  -12.0048  -10.9831   -1.3333 N   0  0  0  0  0  0  0  0  0  0  0  0
  -11.5991   -7.7279   -8.5200 O   0  0  0  0  0  0  0  0  0  0  0  0
  -10.7930   -8.8559   -8.1401 C   0  0  2  0  0  0  0  0  0  0  0  0
  -12.4742  -11.5918   -3.6920 C   0  0  0  0  0  0  0  0  0  0  0  0
  -13.0851   -9.1942   -3.8968 N   0  0  0  0  0  0  0  0  0  0  0  0
   -9.1306  -10.4580   -9.2336 O   0  0  0  0  0  0  0  0  0  0  0  0
  -10.3290  -11.1156   -8.9785 C   0  0  0  0  0  0  0  0  0  0  0  0
   -6.8172  -10.2818   -8.4137 O   0  0  0  0  0  0  0  0  0  0  0  0
  -11.9468  -12.0067   -5.7570 C   0  0  0  0  0  0  0  0  0  0  0  0
  -13.5442  -12.5813   -1.8445 O   0  0  0  0  0  0  0  0  0  0  0  0
  -12.7230  -11.7580   -2.2480 C   0  0  0  0  0  0  0  0  0  0  0  0
  -12.6539  -10.4409   -4.4051 C   0  0  0  0  0  0  0  0  0  0  0  0
   -8.0208  -12.5615   -8.4552 O   0  5  0  0  0  0  0  0  0  0  0  0
   -7.3832  -11.7281  -10.4997 O   0  0  0  0  0  0  0  0  0  0  0  0
  1 17  1  0  0  0  0
  1 20  1  0  0  0  0
  2 15  1  1  0  0  0
  2  3  1  0  0  0  0
  2 11  1  0  0  0  0
  3  5  1  0  0  0  0
  4 16  1  1  0  0  0
  4 21  1  0  0  0  0
  4 22  2  0  0  0  0
  4 14  1  0  0  0  0
  5  1  1  1  0  0  0
  5  8  1  0  0  0  0
  6 17  2  0  0  0  0
  6 12  1  0  0  0  0
  8  7  1  1  0  0  0
  8 11  1  0  0  0  0
  9 19  1  0  0  0  0
 11 10  1  6  0  0  0
 12 20  2  0  0  0  0
 12 19  1  0  0  0  0
 13 20  1  0  0  0  0
 14 15  1  0  0  0  0
 18 19  2  0  0  0  0
M  CHG  1  21  -1
M  END
>  <CHROM.1>
22.10208557,-152.80446158,-137.84316440,168.13938068,119.32753129,-10.77778622
-10.63291842,-6.64872550,2.45659435,-0.72067112,2.30409195

>  <Name>
ligand

>  <RI>
0

>  <Rbt.Current_Directory>
/home/itssahil/PROJECTS/Mol_Feturizer/Test_systems_manuscript/rnas/4xwf

>  <Rbt.Executable>
rbdock ($Id: //depot/dev/client3/rdock/2013.1/src/exe/rbdock.cxx#4 $)

>  <Rbt.Library>
libRbt.so (2013.1, Build901 2013/11/27)

>  <Rbt.Parameter_File>
/export/apps/rDock/src/rDock_2013.1_src/data/scripts/dock_solv.prm

>  <Rbt.Receptor>
prm/blind_docking_20.prm

>  <SCORE>
0.869668

>  <SCORE.INTER>
-4.03696

>  <SCORE.INTER.CONST>
1

>  <SCORE.INTER.POLAR>
0

>  <SCORE.INTER.ROT>
5

>  <SCORE.INTER.SOLV>
19.6602

>  <SCORE.INTER.VDW>
-16.1781

>  <SCORE.INTER.norm>
-0.183498

>  <SCORE.INTRA>
3.26554

>  <SCORE.INTRA.DIHEDRAL>
2.70507

>  <SCORE.INTRA.DIHEDRAL.0>
3.49807

>  <SCORE.INTRA.POLAR>
0

>  <SCORE.INTRA.POLAR.0>
0

>  <SCORE.INTRA.REPUL>
0

>  <SCORE.INTRA.REPUL.0>
0

>  <SCORE.INTRA.SOLV>
1.26006

>  <SCORE.INTRA.SOLV.lig_0>
-73.062

>  <SCORE.INTRA.VDW>
1.28298

>  <SCORE.INTRA.VDW.0>
-1.83782

>  <SCORE.INTRA.norm>
0.148434

>  <SCORE.RESTR>
1.64109

>  <SCORE.RESTR.CAVITY>
1.64109

>  <SCORE.RESTR.norm>
0.0745951

>  <SCORE.SYSTEM>
0

>  <SCORE.SYSTEM.CONST>
0

>  <SCORE.SYSTEM.DIHEDRAL>
0

>  <SCORE.SYSTEM.SOLV>
0

>  <SCORE.SYSTEM.norm>
0

>  <SCORE.heavy>
22

>  <SCORE.norm>
0.0395304

>  <RMSD>
23.498

$$$$
ligand
 OpenBabel02271912143D
libRbt.so/2013.1/901 2013/11/27
 22 23  0  0  0  0  0  0  0  0999 V2000
  -12.0369  -10.6044   -5.7747 N   0  0  0  0  0  0  0  0  0  0  0  0
  -11.4020   -9.9789   -9.0394 C   0  0  1  0  0  0  0  0  0  0  0  0
  -12.3328  -10.5226   -8.0606 O   0  0  0  0  0  0  0  0  0  0  0  0
   -7.9163  -11.3242   -8.4868 P   0  0  1  0  0  0  0  0  0  0  0  0
  -12.2036   -9.7578   -6.8512 C   0  0  2  0  0  0  0  0  0  0  0  0
  -11.3036  -12.2271   -4.5337 N   0  0  0  0  0  0  0  0  0  0  0  0
  -10.9372   -7.8474   -6.1862 O   0  0  0  0  0  0  0  0  0  0  0  0
  -10.9287   -9.0220   -7.0059 C   0  0  2  0  0  0  0  0  0  0  0  0
  -11.9936  -11.0055   -1.3835 N   0  0  0  0  0  0  0  0  0  0  0  0
  -11.7764   -7.6801   -8.7745 O   0  0  0  0  0  0  0  0  0  0  0  0
  -10.8663   -8.7396   -8.4347 C   0  0  2  0  0  0  0  0  0  0  0  0
  -12.1687  -11.5024   -3.8077 C   0  0  0  0  0  0  0  0  0  0  0  0
  -13.5441   -9.4707   -4.1875 N   0  0  0  0  0  0  0  0  0  0  0  0
   -9.3238  -10.6474   -8.3466 O   0  0  0  0  0  0  0  0  0  0  0  0
  -10.3320  -10.9964   -9.2385 C   0  0  0  0  0  0  0  0  0  0  0  0
   -6.9247  -10.1062   -8.4265 O   0  0  0  0  0  0  0  0  0  0  0  0
  -11.2283  -11.6704   -5.7576 C   0  0  0  0  0  0  0  0  0  0  0  0
  -13.3541  -12.6668   -2.1415 O   0  0  0  0  0  0  0  0  0  0  0  0
  -12.5553  -11.7696   -2.4099 C   0  0  0  0  0  0  0  0  0  0  0  0
  -12.6324  -10.4769   -4.5814 C   0  0  0  0  0  0  0  0  0  0  0  0
   -7.7313  -12.3287   -7.3985 O   0  5  0  0  0  0  0  0  0  0  0  0
   -7.8643  -12.1774   -9.6876 O   0  0  0  0  0  0  0  0  0  0  0  0
  1 17  1  0  0  0  0
  1 20  1  0  0  0  0
  2 15  1  1  0  0  0
  2  3  1  0  0  0  0
  2 11  1  0  0  0  0
  3  5  1  0  0  0  0
  4 16  1  6  0  0  0
  4 21  1  0  0  0  0
  4 22  2  0  0  0  0
  4 14  1  0  0  0  0
  5  1  1  1  0  0  0
  5  8  1  0  0  0  0
  6 17  2  0  0  0  0
  6 12  1  0  0  0  0
  8  7  1  1  0  0  0
  8 11  1  0  0  0  0
  9 19  1  0  0  0  0
 11 10  1  1  0  0  0
 12 20  2  0  0  0  0
 12 19  1  0  0  0  0
 13 20  1  0  0  0  0
 14 15  1  0  0  0  0
 18 19  2  0  0  0  0
M  CHG  1  21  -1
M  END
>  <CHROM.1>
44.07890305,-93.02015689,131.64355287,-167.48441857,101.95546746,-10.73464728
-10.59993144,-6.58059877,2.36156086,-0.62439000,2.19123738

>  <Name>
ligand

>  <RI>
0

>  <Rbt.Current_Directory>
/home/itssahil/PROJECTS/Mol_Feturizer/Test_systems_manuscript/rnas/4xwf

>  <Rbt.Executable>
rbdock ($Id: //depot/dev/client3/rdock/2013.1/src/exe/rbdock.cxx#4 $)

>  <Rbt.Library>
libRbt.so (2013.1, Build901 2013/11/27)

>  <Rbt.Parameter_File>
/export/apps/rDock/src/rDock_2013.1_src/data/scripts/dock_solv.prm

>  <Rbt.Receptor>
prm/blind_docking_20.prm

>  <SCORE>
4.29833

>  <SCORE.INTER>
-2.38825

>  <SCORE.INTER.CONST>
1

>  <SCORE.INTER.POLAR>
0

>  <SCORE.INTER.ROT>
5

>  <SCORE.INTER.SOLV>
23.465

>  <SCORE.INTER.VDW>
-16.3472

>  <SCORE.INTER.norm>
-0.108557

>  <SCORE.INTRA>
5.3384

>  <SCORE.INTRA.DIHEDRAL>
4.20541

>  <SCORE.INTRA.DIHEDRAL.0>
3.49807

>  <SCORE.INTRA.POLAR>
0

>  <SCORE.INTRA.POLAR.0>
0

>  <SCORE.INTRA.REPUL>
0

>  <SCORE.INTRA.REPUL.0>
0

>  <SCORE.INTRA.SOLV>
0.603695

>  <SCORE.INTRA.SOLV.lig_0>
-73.062

>  <SCORE.INTRA.VDW>
2.93384

>  <SCORE.INTRA.VDW.0>
-1.83782

>  <SCORE.INTRA.norm>
0.242654

>  <SCORE.RESTR>
1.34818

>  <SCORE.RESTR.CAVITY>
1.34818

>  <SCORE.RESTR.norm>
0.0612807

>  <SCORE.SYSTEM>
0

>  <SCORE.SYSTEM.CONST>
0

>  <SCORE.SYSTEM.DIHEDRAL>
0

>  <SCORE.SYSTEM.SOLV>
0

>  <SCORE.SYSTEM.norm>
0

>  <SCORE.heavy>
22

>  <SCORE.norm>
0.195378

>  <RMSD>
23.500

$$$$
ligand
 OpenBabel02271912143D
libRbt.so/2013.1/901 2013/11/27
 22 23  0  0  0  0  0  0  0  0999 V2000
  -12.8266   -9.9780   -5.8374 N   0  0  0  0  0  0  0  0  0  0  0  0
  -11.1847  -10.5853   -8.7335 C   0  0  1  0  0  0  0  0  0  0  0  0
  -12.3974  -10.7881   -7.9538 O   0  0  0  0  0  0  0  0  0  0  0  0
   -7.6487  -11.9128   -8.4500 P   0  0  1  0  0  0  0  0  0  0  0  0
  -12.6114   -9.6158   -7.1511 C   0  0  2  0  0  0  0  0  0  0  0  0
  -13.7308  -10.1213   -3.8694 N   0  0  0  0  0  0  0  0  0  0  0  0
  -11.5213   -7.5057   -6.9163 O   0  0  0  0  0  0  0  0  0  0  0  0
  -11.3169   -8.8986   -7.1805 C   0  0  2  0  0  0  0  0  0  0  0  0
  -11.4615  -12.9376   -3.0643 N   0  0  0  0  0  0  0  0  0  0  0  0
  -11.5107   -8.3922   -9.4942 O   0  0  0  0  0  0  0  0  0  0  0  0
  -10.8026   -9.1728   -8.5166 C   0  0  2  0  0  0  0  0  0  0  0  0
  -12.6656  -10.9367   -3.9015 C   0  0  0  0  0  0  0  0  0  0  0  0
  -10.9617  -11.5710   -5.5921 N   0  0  0  0  0  0  0  0  0  0  0  0
   -8.9795  -11.1915   -8.8592 O   0  0  0  0  0  0  0  0  0  0  0  0
  -10.1560  -11.5185   -8.1939 C   0  0  0  0  0  0  0  0  0  0  0  0
   -7.6095  -13.1618   -9.4034 O   0  0  0  0  0  0  0  0  0  0  0  0
  -13.8249   -9.5222   -5.0718 C   0  0  0  0  0  0  0  0  0  0  0  0
  -12.4471  -11.4771   -1.6216 O   0  0  0  0  0  0  0  0  0  0  0  0
  -12.1918  -11.7788   -2.7874 C   0  0  0  0  0  0  0  0  0  0  0  0
  -12.0927  -10.8542   -5.1385 C   0  0  0  0  0  0  0  0  0  0  0  0
   -6.4990  -10.9744   -8.6100 O   0  5  0  0  0  0  0  0  0  0  0  0
   -7.6191  -12.1707   -6.9991 O   0  0  0  0  0  0  0  0  0  0  0  0
  1 17  1  0  0  0  0
  1 20  1  0  0  0  0
  2 15  1  1  0  0  0
  2  3  1  0  0  0  0
  2 11  1  0  0  0  0
  3  5  1  0  0  0  0
  4 16  1  6  0  0  0
  4 21  1  0  0  0  0
  4 22  2  0  0  0  0
  4 14  1  0  0  0  0
  5  1  1  1  0  0  0
  5  8  1  0  0  0  0
  6 17  2  0  0  0  0
  6 12  1  0  0  0  0
  8  7  1  6  0  0  0
  8 11  1  0  0  0  0
  9 19  1  0  0  0  0
 11 10  1  6  0  0  0
 12 20  2  0  0  0  0
 12 19  1  0  0  0  0
 13 20  1  0  0  0  0
 14 15  1  0  0  0  0
 18 19  2  0  0  0  0
M  CHG  1  21  -1
M  END
>  <CHROM.1>
-131.75864673,-173.56155528,90.91833159,175.25458660,154.19151471,-10.72588344
-10.76050880,-6.70133889,2.55204785,-0.60095251,2.11516689

>  <Name>
ligand

>  <RI>
0

>  <Rbt.Current_Directory>
/home/itssahil/PROJECTS/Mol_Feturizer/Test_systems_manuscript/rnas/4xwf

>  <Rbt.Executable>
rbdock ($Id: //depot/dev/client3/rdock/2013.1/src/exe/rbdock.cxx#4 $)

>  <Rbt.Library>
libRbt.so (2013.1, Build901 2013/11/27)

>  <Rbt.Parameter_File>
/export/apps/rDock/src/rDock_2013.1_src/data/scripts/dock_solv.prm

>  <Rbt.Receptor>
prm/blind_docking_20.prm

>  <SCORE>
4.79563

>  <SCORE.INTER>
-0.9729

>  <SCORE.INTER.CONST>
1

>  <SCORE.INTER.POLAR>
0

>  <SCORE.INTER.ROT>
5

>  <SCORE.INTER.SOLV>
29.934

>  <SCORE.INTER.VDW>
-17.5599

>  <SCORE.INTER.norm>
-0.0442227

>  <SCORE.INTRA>
3.91936

>  <SCORE.INTRA.DIHEDRAL>
0.49711

>  <SCORE.INTRA.DIHEDRAL.0>
3.49807

>  <SCORE.INTRA.POLAR>
0

>  <SCORE.INTRA.POLAR.0>
0

>  <SCORE.INTRA.REPUL>
0

>  <SCORE.INTRA.REPUL.0>
0

>  <SCORE.INTRA.SOLV>
6.00286

>  <SCORE.INTRA.SOLV.lig_0>
-73.062

>  <SCORE.INTRA.VDW>
0.669375

>  <SCORE.INTRA.VDW.0>
-1.83782

>  <SCORE.INTRA.norm>
0.178153

>  <SCORE.RESTR>
1.84917

>  <SCORE.RESTR.CAVITY>
1.84917

>  <SCORE.RESTR.norm>
0.084053

>  <SCORE.SYSTEM>
0

>  <SCORE.SYSTEM.CONST>
0

>  <SCORE.SYSTEM.DIHEDRAL>
0

>  <SCORE.SYSTEM.SOLV>
0

>  <SCORE.SYSTEM.norm>
0

>  <SCORE.heavy>
22

>  <SCORE.norm>
0.217983

>  <RMSD>
23.513

$$$$
ligand
 OpenBabel02271912143D
libRbt.so/2013.1/901 2013/11/27
 22 23  0  0  0  0  0  0  0  0999 V2000
  -12.8393   -9.9827   -5.8338 N   0  0  0  0  0  0  0  0  0  0  0  0
  -11.2250  -10.6003   -8.7433 C   0  0  1  0  0  0  0  0  0  0  0  0
  -12.4378  -10.7841   -7.9589 O   0  0  0  0  0  0  0  0  0  0  0  0
   -7.7495  -12.1008   -8.5956 P   0  0  1  0  0  0  0  0  0  0  0  0
  -12.6231   -9.6143   -7.1456 C   0  0  2  0  0  0  0  0  0  0  0  0
  -13.7427  -10.1322   -3.8659 N   0  0  0  0  0  0  0  0  0  0  0  0
  -11.4881   -7.5294   -6.8994 O   0  0  0  0  0  0  0  0  0  0  0  0
  -11.3142   -8.9240   -7.1759 C   0  0  2  0  0  0  0  0  0  0  0  0
  -12.6293  -11.5257   -1.4902 N   0  0  0  0  0  0  0  0  0  0  0  0
  -11.5090   -8.3947   -9.4844 O   0  0  0  0  0  0  0  0  0  0  0  0
  -10.8124   -9.1978   -8.5169 C   0  0  2  0  0  0  0  0  0  0  0  0
  -12.6819  -10.9532   -3.9034 C   0  0  0  0  0  0  0  0  0  0  0  0
  -10.9829  -11.5872   -5.5990 N   0  0  0  0  0  0  0  0  0  0  0  0
   -9.0572  -11.3107   -8.9483 O   0  0  0  0  0  0  0  0  0  0  0  0
  -10.2134  -11.5591   -8.2166 C   0  0  0  0  0  0  0  0  0  0  0  0
   -6.6626  -11.4197   -9.5040 O   0  0  0  0  0  0  0  0  0  0  0  0
  -13.8345   -9.5258   -5.0648 C   0  0  0  0  0  0  0  0  0  0  0  0
  -11.4462  -12.7441   -3.0073 O   0  0  0  0  0  0  0  0  0  0  0  0
  -12.2119  -11.8041   -2.7945 C   0  0  0  0  0  0  0  0  0  0  0  0
  -12.1096  -10.8668   -5.1405 C   0  0  0  0  0  0  0  0  0  0  0  0
   -7.4829  -12.0024   -7.1303 O   0  5  0  0  0  0  0  0  0  0  0  0
   -7.9546  -13.5510   -8.7614 O   0  0  0  0  0  0  0  0  0  0  0  0
  1 17  1  0  0  0  0
  1 20  1  0  0  0  0
  2 15  1  1  0  0  0
  2  3  1  0  0  0  0
  2 11  1  0  0  0  0
  3  5  1  0  0  0  0
  4 16  1  6  0  0  0
  4 21  1  0  0  0  0
  4 22  2  0  0  0  0
  4 14  1  0  0  0  0
  5  1  1  1  0  0  0
  5  8  1  0  0  0  0
  6 17  2  0  0  0  0
  6 12  1  0  0  0  0
  8  7  1  6  0  0  0
  8 11  1  0  0  0  0
  9 19  1  0  0  0  0
 11 10  1  6  0  0  0
 12 20  2  0  0  0  0
 12 19  1  0  0  0  0
 13 20  1  0  0  0  0
 14 15  1  0  0  0  0
 18 19  2  0  0  0  0
M  CHG  1  21  -1
M  END
>  <CHROM.1>
-130.82945719,-177.39428179,-173.35631149,176.65083012,-18.27271988,-10.76757668
-10.82667634,-6.73841764,2.56516160,-0.64341034,2.13360744

>  <Name>
ligand

>  <RI>
0

>  <Rbt.Current_Directory>
/home/itssahil/PROJECTS/Mol_Feturizer/Test_systems_manuscript/rnas/4xwf

>  <Rbt.Executable>
rbdock ($Id: //depot/dev/client3/rdock/2013.1/src/exe/rbdock.cxx#4 $)

>  <Rbt.Library>
libRbt.so (2013.1, Build901 2013/11/27)

>  <Rbt.Parameter_File>
/export/apps/rDock/src/rDock_2013.1_src/data/scripts/dock_solv.prm

>  <Rbt.Receptor>
prm/blind_docking_20.prm

>  <SCORE>
0.756244

>  <SCORE.INTER>
-3.86776

>  <SCORE.INTER.CONST>
1

>  <SCORE.INTER.POLAR>
0

>  <SCORE.INTER.ROT>
5

>  <SCORE.INTER.SOLV>
22.2935

>  <SCORE.INTER.VDW>
-16.943

>  <SCORE.INTER.norm>
-0.175807

>  <SCORE.INTRA>
2.75504

>  <SCORE.INTRA.DIHEDRAL>
-1.48945

>  <SCORE.INTRA.DIHEDRAL.0>
3.49807

>  <SCORE.INTRA.POLAR>
0

>  <SCORE.INTRA.POLAR.0>
0

>  <SCORE.INTRA.REPUL>
0

>  <SCORE.INTRA.REPUL.0>
0

>  <SCORE.INTRA.SOLV>
5.92264

>  <SCORE.INTRA.SOLV.lig_0>
-73.062

>  <SCORE.INTRA.VDW>
0.538451

>  <SCORE.INTRA.VDW.0>
-1.83782

>  <SCORE.INTRA.norm>
0.125229

>  <SCORE.RESTR>
1.86896

>  <SCORE.RESTR.CAVITY>
1.86896

>  <SCORE.RESTR.norm>
0.0849529

>  <SCORE.SYSTEM>
0

>  <SCORE.SYSTEM.CONST>
0

>  <SCORE.SYSTEM.DIHEDRAL>
0

>  <SCORE.SYSTEM.SOLV>
0

>  <SCORE.SYSTEM.norm>
0

>  <SCORE.heavy>
22

>  <SCORE.norm>
0.0343747

>  <RMSD>
23.516

$$$$
ligand
 OpenBabel02271912143D
libRbt.so/2013.1/901 2013/11/27
 22 23  0  0  0  0  0  0  0  0999 V2000
  -12.8428  -10.0150   -5.8315 N   0  0  0  0  0  0  0  0  0  0  0  0
  -11.1866  -10.5888   -8.7263 C   0  0  1  0  0  0  0  0  0  0  0  0
  -12.4031  -10.8006   -7.9550 O   0  0  0  0  0  0  0  0  0  0  0  0
   -7.6924  -12.0472   -8.5755 P   0  0  1  0  0  0  0  0  0  0  0  0
  -12.6212   -9.6377   -7.1399 C   0  0  2  0  0  0  0  0  0  0  0  0
  -13.7510  -10.1729   -3.8665 N   0  0  0  0  0  0  0  0  0  0  0  0
  -11.5325   -7.5304   -6.8754 O   0  0  0  0  0  0  0  0  0  0  0  0
  -11.3267   -8.9202   -7.1546 C   0  0  2  0  0  0  0  0  0  0  0  0
  -12.6958  -11.6278   -1.5083 N   0  0  0  0  0  0  0  0  0  0  0  0
  -11.5091   -8.3871   -9.4632 O   0  0  0  0  0  0  0  0  0  0  0  0
  -10.8057   -9.1789   -8.4913 C   0  0  2  0  0  0  0  0  0  0  0  0
  -12.6974  -11.0028   -3.9090 C   0  0  0  0  0  0  0  0  0  0  0  0
  -11.0009  -11.6375   -5.6069 N   0  0  0  0  0  0  0  0  0  0  0  0
   -8.9968  -11.2385   -8.8966 O   0  0  0  0  0  0  0  0  0  0  0  0
  -10.1605  -11.5281   -8.1925 C   0  0  0  0  0  0  0  0  0  0  0  0
   -6.6047  -11.3416   -9.4640 O   0  0  0  0  0  0  0  0  0  0  0  0
  -13.8354   -9.5559   -5.0605 C   0  0  0  0  0  0  0  0  0  0  0  0
  -11.4428  -12.7833   -3.0184 O   0  0  0  0  0  0  0  0  0  0  0  0
  -12.2367  -11.8668   -2.8064 C   0  0  0  0  0  0  0  0  0  0  0  0
  -12.1221  -10.9112   -5.1443 C   0  0  0  0  0  0  0  0  0  0  0  0
   -7.4205  -12.0002   -7.1086 O   0  5  0  0  0  0  0  0  0  0  0  0
   -7.9061  -13.4898   -8.7897 O   0  0  0  0  0  0  0  0  0  0  0  0
  1 17  1  0  0  0  0
  1 20  1  0  0  0  0
  2 15  1  1  0  0  0
  2  3  1  0  0  0  0
  2 11  1  0  0  0  0
  3  5  1  0  0  0  0
  4 16  1  6  0  0  0
  4 21  1  0  0  0  0
  4 22  2  0  0  0  0
  4 14  1  0  0  0  0
  5  1  1  1  0  0  0
  5  8  1  0  0  0  0
  6 17  2  0  0  0  0
  6 12  1  0  0  0  0
  8  7  1  6  0  0  0
  8 11  1  0  0  0  0
  9 19  1  0  0  0  0
 11 10  1  6  0  0  0
 12 20  2  0  0  0  0
 12 19  1  0  0  0  0
 13 20  1  0  0  0  0
 14 15  1  0  0  0  0
 18 19  2  0  0  0  0
M  CHG  1  21  -1
M  END
>  <CHROM.1>
-132.61623689,-176.47348726,-174.92124244,179.56631292,-15.76381185,-10.75382249
-10.82831440,-6.72842219,2.57075006,-0.62881704,2.14829475

>  <Name>
ligand

>  <RI>
0

>  <Rbt.Current_Directory>
/home/itssahil/PROJECTS/Mol_Feturizer/Test_systems_manuscript/rnas/4xwf

>  <Rbt.Executable>
rbdock ($Id: //depot/dev/client3/rdock/2013.1/src/exe/rbdock.cxx#4 $)

>  <Rbt.Library>
libRbt.so (2013.1, Build901 2013/11/27)

>  <Rbt.Parameter_File>
/export/apps/rDock/src/rDock_2013.1_src/data/scripts/dock_solv.prm

>  <Rbt.Receptor>
prm/blind_docking_20.prm

>  <SCORE>
0.432314

>  <SCORE.INTER>
-4.22434

>  <SCORE.INTER.CONST>
1

>  <SCORE.INTER.POLAR>
0

>  <SCORE.INTER.ROT>
5

>  <SCORE.INTER.SOLV>
23.0887

>  <SCORE.INTER.VDW>
-17.4458

>  <SCORE.INTER.norm>
-0.192016

>  <SCORE.INTRA>
2.68566

>  <SCORE.INTRA.DIHEDRAL>
-1.62493

>  <SCORE.INTRA.DIHEDRAL.0>
3.49807

>  <SCORE.INTRA.POLAR>
0

>  <SCORE.INTRA.POLAR.0>
0

>  <SCORE.INTRA.REPUL>
0

>  <SCORE.INTRA.REPUL.0>
0

>  <SCORE.INTRA.SOLV>
5.78989

>  <SCORE.INTRA.SOLV.lig_0>
-73.062

>  <SCORE.INTRA.VDW>
0.603176

>  <SCORE.INTRA.VDW.0>
-1.83782

>  <SCORE.INTRA.norm>
0.122075

>  <SCORE.RESTR>
1.971

>  <SCORE.RESTR.CAVITY>
1.971

>  <SCORE.RESTR.norm>
0.0895908

>  <SCORE.SYSTEM>
0

>  <SCORE.SYSTEM.CONST>
0

>  <SCORE.SYSTEM.DIHEDRAL>
0

>  <SCORE.SYSTEM.SOLV>
0

>  <SCORE.SYSTEM.norm>
0

>  <SCORE.heavy>
22

>  <SCORE.norm>
0.0196507

>  <RMSD>
23.523

$$$$
ligand
 OpenBabel02271912143D
libRbt.so/2013.1/901 2013/11/27
 22 23  0  0  0  0  0  0  0  0999 V2000
  -12.8333   -9.9957   -5.8347 N   0  0  0  0  0  0  0  0  0  0  0  0
  -11.2247  -10.6146   -8.7471 C   0  0  1  0  0  0  0  0  0  0  0  0
  -12.4374  -10.7949   -7.9617 O   0  0  0  0  0  0  0  0  0  0  0  0
   -7.7534  -12.1252   -8.6006 P   0  0  1  0  0  0  0  0  0  0  0  0
  -12.6171   -9.6259   -7.1460 C   0  0  2  0  0  0  0  0  0  0  0  0
  -13.7377  -10.1489   -3.8675 N   0  0  0  0  0  0  0  0  0  0  0  0
  -11.4732   -7.5460   -6.8974 O   0  0  0  0  0  0  0  0  0  0  0  0
  -11.3053   -8.9409   -7.1766 C   0  0  2  0  0  0  0  0  0  0  0  0
  -12.6588  -11.5698   -1.4985 N   0  0  0  0  0  0  0  0  0  0  0  0
  -11.5006   -8.4066   -9.4839 O   0  0  0  0  0  0  0  0  0  0  0  0
  -10.8061   -9.2143   -8.5187 C   0  0  2  0  0  0  0  0  0  0  0  0
  -12.6749  -10.9673   -3.9049 C   0  0  0  0  0  0  0  0  0  0  0  0
  -10.9732  -11.5959   -5.5998 N   0  0  0  0  0  0  0  0  0  0  0  0
   -9.0572  -11.3269   -8.9490 O   0  0  0  0  0  0  0  0  0  0  0  0
  -10.2164  -11.5785   -8.2233 C   0  0  0  0  0  0  0  0  0  0  0  0
   -6.6598  -11.4337   -9.4931 O   0  0  0  0  0  0  0  0  0  0  0  0
  -13.8301   -9.5418   -5.0661 C   0  0  0  0  0  0  0  0  0  0  0  0
  -11.4043  -12.7308   -3.0033 O   0  0  0  0  0  0  0  0  0  0  0  0
  -12.2036  -11.8178   -2.7963 C   0  0  0  0  0  0  0  0  0  0  0  0
  -12.1019  -10.8786   -5.1415 C   0  0  0  0  0  0  0  0  0  0  0  0
   -7.4948  -12.0487   -7.1326 O   0  5  0  0  0  0  0  0  0  0  0  0
   -7.9610  -13.5723   -8.7885 O   0  0  0  0  0  0  0  0  0  0  0  0
  1 17  1  0  0  0  0
  1 20  1  0  0  0  0
  2 15  1  1  0  0  0
  2  3  1  0  0  0  0
  2 11  1  0  0  0  0
  3  5  1  0  0  0  0
  4 16  1  6  0  0  0
  4 21  1  0  0  0  0
  4 22  2  0  0  0  0
  4 14  1  0  0  0  0
  5  1  1  1  0  0  0
  5  8  1  0  0  0  0
  6 17  2  0  0  0  0
  6 12  1  0  0  0  0
  8  7  1  6  0  0  0
  8 11  1  0  0  0  0
  9 19  1  0  0  0  0
 11 10  1  6  0  0  0
 12 20  2  0  0  0  0
 12 19  1  0  0  0  0
 13 20  1  0  0  0  0
 14 15  1  0  0  0  0
 18 19  2  0  0  0  0
M  CHG  1  21  -1
M  END
>  <CHROM.1>
-130.43782497,-176.97130677,-173.06130800,176.88254052,-16.08926195,-10.76417604
-10.84371358,-6.74089302,2.56526642,-0.64530567,2.13360616

>  <Name>
ligand

>  <RI>
0

>  <Rbt.Current_Directory>
/home/itssahil/PROJECTS/Mol_Feturizer/Test_systems_manuscript/rnas/4xwf

>  <Rbt.Executable>
rbdock ($Id: //depot/dev/client3/rdock/2013.1/src/exe/rbdock.cxx#4 $)

>  <Rbt.Library>
libRbt.so (2013.1, Build901 2013/11/27)

>  <Rbt.Parameter_File>
/export/apps/rDock/src/rDock_2013.1_src/data/scripts/dock_solv.prm

>  <Rbt.Receptor>
prm/blind_docking_20.prm

>  <SCORE>
0.58845

>  <SCORE.INTER>
-4.08364

>  <SCORE.INTER.CONST>
1

>  <SCORE.INTER.POLAR>
0

>  <SCORE.INTER.ROT>
5

>  <SCORE.INTER.SOLV>
22.184

>  <SCORE.INTER.VDW>
-17.0504

>  <SCORE.INTER.norm>
-0.18562

>  <SCORE.INTRA>
2.75118

>  <SCORE.INTRA.DIHEDRAL>
-1.5557

>  <SCORE.INTRA.DIHEDRAL.0>
3.49807

>  <SCORE.INTRA.POLAR>
0

>  <SCORE.INTRA.POLAR.0>
0

>  <SCORE.INTRA.REPUL>
0

>  <SCORE.INTRA.REPUL.0>
0

>  <SCORE.INTRA.SOLV>
5.95893

>  <SCORE.INTRA.SOLV.lig_0>
-73.062

>  <SCORE.INTRA.VDW>
0.549564

>  <SCORE.INTRA.VDW.0>
-1.83782

>  <SCORE.INTRA.norm>
0.125054

>  <SCORE.RESTR>
1.92091

>  <SCORE.RESTR.CAVITY>
1.92091

>  <SCORE.RESTR.norm>
0.0873139

>  <SCORE.SYSTEM>
0

>  <SCORE.SYSTEM.CONST>
0

>  <SCORE.SYSTEM.DIHEDRAL>
0

>  <SCORE.SYSTEM.SOLV>
0

>  <SCORE.SYSTEM.norm>
0

>  <SCORE.heavy>
22

>  <SCORE.norm>
0.0267477

>  <RMSD>
23.530

$$$$
ligand
 OpenBabel02271912143D
libRbt.so/2013.1/901 2013/11/27
 22 23  0  0  0  0  0  0  0  0999 V2000
  -12.8343  -10.0087   -5.8288 N   0  0  0  0  0  0  0  0  0  0  0  0
  -11.2385  -10.6279   -8.7482 C   0  0  1  0  0  0  0  0  0  0  0  0
  -12.4468  -10.8102   -7.9565 O   0  0  0  0  0  0  0  0  0  0  0  0
   -7.7569  -12.1132   -8.6029 P   0  0  1  0  0  0  0  0  0  0  0  0
  -12.6256   -9.6404   -7.1418 C   0  0  2  0  0  0  0  0  0  0  0  0
  -13.7313  -10.1652   -3.8585 N   0  0  0  0  0  0  0  0  0  0  0  0
  -11.4864   -7.5570   -6.9021 O   0  0  0  0  0  0  0  0  0  0  0  0
  -11.3160   -8.9518   -7.1800 C   0  0  2  0  0  0  0  0  0  0  0  0
  -12.5565  -11.5108   -1.4773 N   0  0  0  0  0  0  0  0  0  0  0  0
  -11.5241   -8.4218   -9.4871 O   0  0  0  0  0  0  0  0  0  0  0  0
  -10.8227   -9.2260   -8.5241 C   0  0  2  0  0  0  0  0  0  0  0  0
  -12.6608  -10.9734   -3.8969 C   0  0  0  0  0  0  0  0  0  0  0  0
  -10.9582  -11.5902   -5.5952 N   0  0  0  0  0  0  0  0  0  0  0  0
   -9.0707  -11.3360   -8.9612 O   0  0  0  0  0  0  0  0  0  0  0  0
  -10.2250  -11.5881   -8.2278 C   0  0  0  0  0  0  0  0  0  0  0  0
   -6.6728  -11.4217   -9.5067 O   0  0  0  0  0  0  0  0  0  0  0  0
  -13.8332   -9.5623   -5.0584 C   0  0  0  0  0  0  0  0  0  0  0  0
  -11.4354  -12.7735   -3.0052 O   0  0  0  0  0  0  0  0  0  0  0  0
  -12.1780  -11.8163   -2.7874 C   0  0  0  0  0  0  0  0  0  0  0  0
  -12.0925  -10.8826   -5.1355 C   0  0  0  0  0  0  0  0  0  0  0  0
   -7.4976  -12.0122   -7.1364 O   0  5  0  0  0  0  0  0  0  0  0  0
   -7.9472  -13.5654   -8.7693 O   0  0  0  0  0  0  0  0  0  0  0  0
  1 17  1  0  0  0  0
  1 20  1  0  0  0  0
  2 15  1  1  0  0  0
  2  3  1  0  0  0  0
  2 11  1  0  0  0  0
  3  5  1  0  0  0  0
  4 16  1  6  0  0  0
  4 21  1  0  0  0  0
  4 22  2  0  0  0  0
  4 14  1  0  0  0  0
  5  1  1  1  0  0  0
  5  8  1  0  0  0  0
  6 17  2  0  0  0  0
  6 12  1  0  0  0  0
  8  7  1  6  0  0  0
  8 11  1  0  0  0  0
  9 19  1  0  0  0  0
 11 10  1  6  0  0  0
 12 20  2  0  0  0  0
 12 19  1  0  0  0  0
 13 20  1  0  0  0  0
 14 15  1  0  0  0  0
 18 19  2  0  0  0  0
M  CHG  1  21  -1
M  END
>  <CHROM.1>
-130.02320728,-177.06721497,-172.87292265,175.87656909,-20.60277316,-10.76443897
-10.84638088,-6.73943022,2.55524599,-0.64275389,2.12434615

>  <Name>
ligand

>  <RI>
0

>  <Rbt.Current_Directory>
/home/itssahil/PROJECTS/Mol_Feturizer/Test_systems_manuscript/rnas/4xwf

>  <Rbt.Executable>
rbdock ($Id: //depot/dev/client3/rdock/2013.1/src/exe/rbdock.cxx#4 $)

>  <Rbt.Library>
libRbt.so (2013.1, Build901 2013/11/27)

>  <Rbt.Parameter_File>
/export/apps/rDock/src/rDock_2013.1_src/data/scripts/dock_solv.prm

>  <Rbt.Receptor>
prm/blind_docking_20.prm

>  <SCORE>
0.670761

>  <SCORE.INTER>
-4.03953

>  <SCORE.INTER.CONST>
1

>  <SCORE.INTER.POLAR>
0

>  <SCORE.INTER.ROT>
5

>  <SCORE.INTER.SOLV>
22.2024

>  <SCORE.INTER.VDW>
-17.0272

>  <SCORE.INTER.norm>
-0.183615

>  <SCORE.INTRA>
2.83373

>  <SCORE.INTRA.DIHEDRAL>
-1.36265

>  <SCORE.INTRA.DIHEDRAL.0>
3.49807

>  <SCORE.INTRA.POLAR>
0

>  <SCORE.INTRA.POLAR.0>
0

>  <SCORE.INTRA.REPUL>
0

>  <SCORE.INTRA.REPUL.0>
0

>  <SCORE.INTRA.SOLV>
5.99017

>  <SCORE.INTRA.SOLV.lig_0>
-73.062

>  <SCORE.INTRA.VDW>
0.519966

>  <SCORE.INTRA.VDW.0>
-1.83782

>  <SCORE.INTRA.norm>
0.128806

>  <SCORE.RESTR>
1.87657

>  <SCORE.RESTR.CAVITY>
1.87657

>  <SCORE.RESTR.norm>
0.0852985

>  <SCORE.SYSTEM>
0

>  <SCORE.SYSTEM.CONST>
0

>  <SCORE.SYSTEM.DIHEDRAL>
0

>  <SCORE.SYSTEM.SOLV>
0

>  <SCORE.SYSTEM.norm>
0

>  <SCORE.heavy>
22

>  <SCORE.norm>
0.0304891

>  <RMSD>
23.533

$$$$
ligand
 OpenBabel02271912143D
libRbt.so/2013.1/901 2013/11/27
 22 23  0  0  0  0  0  0  0  0999 V2000
  -12.8285  -10.0174   -5.8302 N   0  0  0  0  0  0  0  0  0  0  0  0
  -11.1822  -10.5931   -8.7304 C   0  0  1  0  0  0  0  0  0  0  0  0
  -12.3966  -10.8033   -7.9552 O   0  0  0  0  0  0  0  0  0  0  0  0
   -7.6889  -12.0542   -8.5892 P   0  0  1  0  0  0  0  0  0  0  0  0
  -12.6104   -9.6402   -7.1392 C   0  0  2  0  0  0  0  0  0  0  0  0
  -13.7298  -10.1732   -3.8619 N   0  0  0  0  0  0  0  0  0  0  0  0
  -11.5181   -7.5344   -6.8779 O   0  0  0  0  0  0  0  0  0  0  0  0
  -11.3151   -8.9244   -7.1580 C   0  0  2  0  0  0  0  0  0  0  0  0
  -12.6966  -11.6537   -1.5139 N   0  0  0  0  0  0  0  0  0  0  0  0
  -11.5041   -8.3908   -9.4660 O   0  0  0  0  0  0  0  0  0  0  0  0
  -10.7987   -9.1837   -8.4964 C   0  0  2  0  0  0  0  0  0  0  0  0
  -12.6791  -11.0065   -3.9087 C   0  0  0  0  0  0  0  0  0  0  0  0
  -10.9912  -11.6462   -5.6132 N   0  0  0  0  0  0  0  0  0  0  0  0
   -8.9968  -11.2533   -8.9154 O   0  0  0  0  0  0  0  0  0  0  0  0
  -10.1557  -11.5338   -8.1999 C   0  0  0  0  0  0  0  0  0  0  0  0
   -6.6029  -11.3455   -9.4774 O   0  0  0  0  0  0  0  0  0  0  0  0
  -13.8166   -9.5553   -5.0553 C   0  0  0  0  0  0  0  0  0  0  0  0
  -11.4049  -12.7732   -3.0185 O   0  0  0  0  0  0  0  0  0  0  0  0
  -12.2172  -11.8727   -2.8082 C   0  0  0  0  0  0  0  0  0  0  0  0
  -12.1082  -10.9163   -5.1462 C   0  0  0  0  0  0  0  0  0  0  0  0
   -7.4204  -12.0015   -7.1218 O   0  5  0  0  0  0  0  0  0  0  0  0
   -7.8946  -13.4985   -8.7996 O   0  0  0  0  0  0  0  0  0  0  0  0
  1 17  1  0  0  0  0
  1 20  1  0  0  0  0
  2 15  1  1  0  0  0
  2  3  1  0  0  0  0
  2 11  1  0  0  0  0
  3  5  1  0  0  0  0
  4 16  1  6  0  0  0
  4 21  1  0  0  0  0
  4 22  2  0  0  0  0
  4 14  1  0  0  0  0
  5  1  1  1  0  0  0
  5  8  1  0  0  0  0
  6 17  2  0  0  0  0
  6 12  1  0  0  0  0
  8  7  1  6  0  0  0
  8 11  1  0  0  0  0
  9 19  1  0  0  0  0
 11 10  1  6  0  0  0
 12 20  2  0  0  0  0
 12 19  1  0  0  0  0
 13 20  1  0  0  0  0
 14 15  1  0  0  0  0
 18 19  2  0  0  0  0
M  CHG  1  21  -1
M  END
>  <CHROM.1>
-132.73572419,-176.95050990,-174.02707182,178.85598101,-14.17027940,-10.74373156
-10.83334624,-6.73364891,2.56848494,-0.63097644,2.14757369

>  <Name>
ligand

>  <RI>
0

>  <Rbt.Current_Directory>
/home/itssahil/PROJECTS/Mol_Feturizer/Test_systems_manuscript/rnas/4xwf

>  <Rbt.Executable>
rbdock ($Id: //depot/dev/client3/rdock/2013.1/src/exe/rbdock.cxx#4 $)

>  <Rbt.Library>
libRbt.so (2013.1, Build901 2013/11/27)

>  <Rbt.Parameter_File>
/export/apps/rDock/src/rDock_2013.1_src/data/scripts/dock_solv.prm

>  <Rbt.Receptor>
prm/blind_docking_20.prm

>  <SCORE>
0.366747

>  <SCORE.INTER>
-4.28686

>  <SCORE.INTER.CONST>
1

>  <SCORE.INTER.POLAR>
0

>  <SCORE.INTER.ROT>
5

>  <SCORE.INTER.SOLV>
23.0894

>  <SCORE.INTER.VDW>
-17.4877

>  <SCORE.INTER.norm>
-0.194857

>  <SCORE.INTRA>
2.6671

>  <SCORE.INTRA.DIHEDRAL>
-1.66617

>  <SCORE.INTRA.DIHEDRAL.0>
3.49807

>  <SCORE.INTRA.POLAR>
0

>  <SCORE.INTRA.POLAR.0>
0

>  <SCORE.INTRA.REPUL>
0

>  <SCORE.INTRA.REPUL.0>
0

>  <SCORE.INTRA.SOLV>
5.80215

>  <SCORE.INTRA.SOLV.lig_0>
-73.062

>  <SCORE.INTRA.VDW>
0.599107

>  <SCORE.INTRA.VDW.0>
-1.83782

>  <SCORE.INTRA.norm>
0.121232

>  <SCORE.RESTR>
1.98651

>  <SCORE.RESTR.CAVITY>
1.98651

>  <SCORE.RESTR.norm>
0.0902961

>  <SCORE.SYSTEM>
0

>  <SCORE.SYSTEM.CONST>
0

>  <SCORE.SYSTEM.DIHEDRAL>
0

>  <SCORE.SYSTEM.SOLV>
0

>  <SCORE.SYSTEM.norm>
0

>  <SCORE.heavy>
22

>  <SCORE.norm>
0.0166703

>  <RMSD>
23.534

$$$$
ligand
 OpenBabel02271912143D
libRbt.so/2013.1/901 2013/11/27
 22 23  0  0  0  0  0  0  0  0999 V2000
  -12.8336  -10.0282   -5.8095 N   0  0  0  0  0  0  0  0  0  0  0  0
  -11.2179  -10.5935   -8.7289 C   0  0  1  0  0  0  0  0  0  0  0  0
  -12.4233  -10.8083   -7.9409 O   0  0  0  0  0  0  0  0  0  0  0  0
   -7.7104  -12.0160   -8.6092 P   0  0  1  0  0  0  0  0  0  0  0  0
  -12.6308   -9.6476   -7.1199 C   0  0  2  0  0  0  0  0  0  0  0  0
  -13.7243  -10.2070   -3.8383 N   0  0  0  0  0  0  0  0  0  0  0  0
  -11.5405   -7.5398   -6.8658 O   0  0  0  0  0  0  0  0  0  0  0  0
  -11.3373   -8.9287   -7.1513 C   0  0  2  0  0  0  0  0  0  0  0  0
  -12.5330  -11.5638   -1.4713 N   0  0  0  0  0  0  0  0  0  0  0  0
  -11.5529   -8.3903   -9.4558 O   0  0  0  0  0  0  0  0  0  0  0  0
  -10.8351   -9.1837   -8.4958 C   0  0  2  0  0  0  0  0  0  0  0  0
  -12.6487  -11.0079   -3.8862 C   0  0  0  0  0  0  0  0  0  0  0  0
  -10.9468  -11.5996   -5.5941 N   0  0  0  0  0  0  0  0  0  0  0  0
   -8.9980  -11.1485   -8.8286 O   0  0  0  0  0  0  0  0  0  0  0  0
  -10.1835  -11.5330   -8.2118 C   0  0  0  0  0  0  0  0  0  0  0  0
   -7.5126  -11.9772   -7.0504 O   0  0  0  0  0  0  0  0  0  0  0  0
  -13.8332   -9.5947   -5.0328 C   0  0  0  0  0  0  0  0  0  0  0  0
  -11.4108  -12.8086   -3.0131 O   0  0  0  0  0  0  0  0  0  0  0  0
  -12.1576  -11.8570   -2.7851 C   0  0  0  0  0  0  0  0  0  0  0  0
  -12.0843  -10.9031   -5.1255 C   0  0  0  0  0  0  0  0  0  0  0  0
   -7.9225  -13.3815   -9.1734 O   0  5  0  0  0  0  0  0  0  0  0  0
   -6.5994  -11.5219   -9.4425 O   0  0  0  0  0  0  0  0  0  0  0  0
  1 17  1  0  0  0  0
  1 20  1  0  0  0  0
  2 15  1  1  0  0  0
  2  3  1  0  0  0  0
  2 11  1  0  0  0  0
  3  5  1  0  0  0  0
  4 16  1  1  0  0  0
  4 21  1  0  0  0  0
  4 22  2  0  0  0  0
  4 14  1  0  0  0  0
  5  1  1  1  0  0  0
  5  8  1  0  0  0  0
  6 17  2  0  0  0  0
  6 12  1  0  0  0  0
  8  7  1  6  0  0  0
  8 11  1  0  0  0  0
  9 19  1  0  0  0  0
 11 10  1  6  0  0  0
 12 20  2  0  0  0  0
 12 19  1  0  0  0  0
 13 20  1  0  0  0  0
 14 15  1  0  0  0  0
 18 19  2  0  0  0  0
M  CHG  1  21  -1
M  END
>  <CHROM.1>
-131.03160635,-170.40728053,-59.15208491,-174.48394091,-20.69099195,-10.74983304
-10.82553515,-6.73393112,2.54640045,-0.63233764,2.12342938

>  <Name>
ligand

>  <RI>
0

>  <Rbt.Current_Directory>
/home/itssahil/PROJECTS/Mol_Feturizer/Test_systems_manuscript/rnas/4xwf

>  <Rbt.Executable>
rbdock ($Id: //depot/dev/client3/rdock/2013.1/src/exe/rbdock.cxx#4 $)

>  <Rbt.Library>
libRbt.so (2013.1, Build901 2013/11/27)

>  <Rbt.Parameter_File>
/export/apps/rDock/src/rDock_2013.1_src/data/scripts/dock_solv.prm

>  <Rbt.Receptor>
prm/blind_docking_20.prm

>  <SCORE>
1.24547

>  <SCORE.INTER>
-3.50172

>  <SCORE.INTER.CONST>
1

>  <SCORE.INTER.POLAR>
0

>  <SCORE.INTER.ROT>
5

>  <SCORE.INTER.SOLV>
24.5848

>  <SCORE.INTER.VDW>
-17.4628

>  <SCORE.INTER.norm>
-0.159169

>  <SCORE.INTRA>
2.65876

>  <SCORE.INTRA.DIHEDRAL>
-1.04852

>  <SCORE.INTRA.DIHEDRAL.0>
3.49807

>  <SCORE.INTRA.POLAR>
0

>  <SCORE.INTRA.POLAR.0>
0

>  <SCORE.INTRA.REPUL>
0

>  <SCORE.INTRA.REPUL.0>
0

>  <SCORE.INTRA.SOLV>
4.8734

>  <SCORE.INTRA.SOLV.lig_0>
-73.062

>  <SCORE.INTRA.VDW>
0.746315

>  <SCORE.INTRA.VDW.0>
-1.83782

>  <SCORE.INTRA.norm>
0.120853

>  <SCORE.RESTR>
2.08844

>  <SCORE.RESTR.CAVITY>
2.08844

>  <SCORE.RESTR.norm>
0.094929

>  <SCORE.SYSTEM>
0

>  <SCORE.SYSTEM.CONST>
0

>  <SCORE.SYSTEM.DIHEDRAL>
0

>  <SCORE.SYSTEM.SOLV>
0

>  <SCORE.SYSTEM.norm>
0

>  <SCORE.heavy>
22

>  <SCORE.norm>
0.0566124

>  <RMSD>
23.541

$$$$
ligand
 OpenBabel02271912143D
libRbt.so/2013.1/901 2013/11/27
 22 23  0  0  0  0  0  0  0  0999 V2000
  -12.8338  -10.0280   -5.8075 N   0  0  0  0  0  0  0  0  0  0  0  0
  -11.2434  -10.6341   -8.7325 C   0  0  1  0  0  0  0  0  0  0  0  0
  -12.4509  -10.8184   -7.9402 O   0  0  0  0  0  0  0  0  0  0  0  0
   -7.7599  -12.1153   -8.5855 P   0  0  1  0  0  0  0  0  0  0  0  0
  -12.6262   -9.6528   -7.1187 C   0  0  2  0  0  0  0  0  0  0  0  0
  -13.7184  -10.1796   -3.8312 N   0  0  0  0  0  0  0  0  0  0  0  0
  -11.4823   -7.5731   -6.8689 O   0  0  0  0  0  0  0  0  0  0  0  0
  -11.3152   -8.9667   -7.1548 C   0  0  2  0  0  0  0  0  0  0  0  0
  -12.5786  -11.5918   -1.4751 N   0  0  0  0  0  0  0  0  0  0  0  0
  -11.5255   -8.4233   -9.4586 O   0  0  0  0  0  0  0  0  0  0  0  0
  -10.8244   -9.2344   -8.5011 C   0  0  2  0  0  0  0  0  0  0  0  0
  -12.6703  -11.0157   -3.8863 C   0  0  0  0  0  0  0  0  0  0  0  0
  -10.9989  -11.6613   -5.6048 N   0  0  0  0  0  0  0  0  0  0  0  0
   -9.0710  -11.3303   -8.9369 O   0  0  0  0  0  0  0  0  0  0  0  0
  -10.2311  -11.5993   -8.2190 C   0  0  0  0  0  0  0  0  0  0  0  0
   -6.6745  -11.4233   -9.4875 O   0  0  0  0  0  0  0  0  0  0  0  0
  -13.8140   -9.5626   -5.0244 C   0  0  0  0  0  0  0  0  0  0  0  0
  -11.4704  -12.8452   -3.0200 O   0  0  0  0  0  0  0  0  0  0  0  0
  -12.2010  -11.8819   -2.7890 C   0  0  0  0  0  0  0  0  0  0  0  0
  -12.1099  -10.9281   -5.1288 C   0  0  0  0  0  0  0  0  0  0  0  0
   -7.4974  -12.0238   -7.1190 O   0  5  0  0  0  0  0  0  0  0  0  0
   -7.9568  -13.5657   -8.7599 O   0  0  0  0  0  0  0  0  0  0  0  0
  1 17  1  0  0  0  0
  1 20  1  0  0  0  0
  2 15  1  1  0  0  0
  2  3  1  0  0  0  0
  2 11  1  0  0  0  0
  3  5  1  0  0  0  0
  4 16  1  6  0  0  0
  4 21  1  0  0  0  0
  4 22  2  0  0  0  0
  4 14  1  0  0  0  0
  5  1  1  1  0  0  0
  5  8  1  0  0  0  0
  6 17  2  0  0  0  0
  6 12  1  0  0  0  0
  8  7  1  6  0  0  0
  8 11  1  0  0  0  0
  9 19  1  0  0  0  0
 11 10  1  6  0  0  0
 12 20  2  0  0  0  0
 12 19  1  0  0  0  0
 13 20  1  0  0  0  0
 14 15  1  0  0  0  0
 18 19  2  0  0  0  0
M  CHG  1  21  -1
M  END
>  <CHROM.1>
-131.51036175,-176.09746031,-174.04012791,176.26551329,-19.54904113,-10.77077143
-10.86734567,-6.72389999,2.55912713,-0.64370946,2.13874375

>  <Name>
ligand

>  <RI>
0

>  <Rbt.Current_Directory>
/home/itssahil/PROJECTS/Mol_Feturizer/Test_systems_manuscript/rnas/4xwf

>  <Rbt.Executable>
rbdock ($Id: //depot/dev/client3/rdock/2013.1/src/exe/rbdock.cxx#4 $)

>  <Rbt.Library>
libRbt.so (2013.1, Build901 2013/11/27)

>  <Rbt.Parameter_File>
/export/apps/rDock/src/rDock_2013.1_src/data/scripts/dock_solv.prm

>  <Rbt.Receptor>
prm/blind_docking_20.prm

>  <SCORE>
0.568405

>  <SCORE.INTER>
-4.20345

>  <SCORE.INTER.CONST>
1

>  <SCORE.INTER.POLAR>
0

>  <SCORE.INTER.ROT>
5

>  <SCORE.INTER.SOLV>
22.3214

>  <SCORE.INTER.VDW>
-17.1761

>  <SCORE.INTER.norm>
-0.191066

>  <SCORE.INTRA>
2.83866

>  <SCORE.INTRA.DIHEDRAL>
-1.40872

>  <SCORE.INTRA.DIHEDRAL.0>
3.49807

>  <SCORE.INTRA.POLAR>
0

>  <SCORE.INTRA.POLAR.0>
0

>  <SCORE.INTRA.REPUL>
0

>  <SCORE.INTRA.REPUL.0>
0

>  <SCORE.INTRA.SOLV>
5.94785

>  <SCORE.INTRA.SOLV.lig_0>
-73.062

>  <SCORE.INTRA.VDW>
0.569098

>  <SCORE.INTRA.VDW.0>
-1.83782

>  <SCORE.INTRA.norm>
0.12903

>  <SCORE.RESTR>
1.93319

>  <SCORE.RESTR.CAVITY>
1.93319

>  <SCORE.RESTR.norm>
0.0878725

>  <SCORE.SYSTEM>
0

>  <SCORE.SYSTEM.CONST>
0

>  <SCORE.SYSTEM.DIHEDRAL>
0

>  <SCORE.SYSTEM.SOLV>
0

>  <SCORE.SYSTEM.norm>
0

>  <SCORE.heavy>
22

>  <SCORE.norm>
0.0258366

>  <RMSD>
23.543

$$$$
ligand
 OpenBabel02271912143D
libRbt.so/2013.1/901 2013/11/27
 22 23  0  0  0  0  0  0  0  0999 V2000
  -11.8609  -10.5054   -6.1769 N   0  0  0  0  0  0  0  0  0  0  0  0
  -10.4412   -9.3642   -9.0290 C   0  0  1  0  0  0  0  0  0  0  0  0
  -11.3597  -10.3159   -8.4202 O   0  0  0  0  0  0  0  0  0  0  0  0
   -7.8172  -12.0930   -8.9542 P   0  0  1  0  0  0  0  0  0  0  0  0
  -11.9642   -9.6838   -7.2803 C   0  0  2  0  0  0  0  0  0  0  0  0
  -11.2158  -12.1105   -4.8660 N   0  0  0  0  0  0  0  0  0  0  0  0
  -11.8586   -7.5112   -6.2982 O   0  0  0  0  0  0  0  0  0  0  0  0
  -11.1103   -8.5063   -7.0064 C   0  0  2  0  0  0  0  0  0  0  0  0
  -12.4387  -10.5343   -1.8774 N   0  0  0  0  0  0  0  0  0  0  0  0
  -11.7508   -7.4201   -9.0207 O   0  0  0  0  0  0  0  0  0  0  0  0
  -10.6762   -8.0810   -8.3315 C   0  0  2  0  0  0  0  0  0  0  0  0
  -12.0935  -11.3489   -4.1951 C   0  0  0  0  0  0  0  0  0  0  0  0
  -13.4062   -9.2989   -4.6828 N   0  0  0  0  0  0  0  0  0  0  0  0
   -9.0821  -11.1998   -9.2010 O   0  0  0  0  0  0  0  0  0  0  0  0
   -9.0613   -9.8720   -8.7883 C   0  0  0  0  0  0  0  0  0  0  0  0
   -8.1815  -13.4394   -9.6788 O   0  0  0  0  0  0  0  0  0  0  0  0
  -11.0777  -11.5876   -6.0993 C   0  0  0  0  0  0  0  0  0  0  0  0
  -12.9936  -12.6637   -2.4635 O   0  0  0  0  0  0  0  0  0  0  0  0
  -12.5431  -11.5713   -2.8084 C   0  0  0  0  0  0  0  0  0  0  0  0
  -12.5019  -10.3342   -5.0130 C   0  0  0  0  0  0  0  0  0  0  0  0
   -6.6054  -11.4075   -9.4923 O   0  5  0  0  0  0  0  0  0  0  0  0
   -7.5012  -12.1650   -7.5163 O   0  0  0  0  0  0  0  0  0  0  0  0
  1 17  1  0  0  0  0
  1 20  1  0  0  0  0
  2 15  1  1  0  0  0
  2  3  1  0  0  0  0
  2 11  1  0  0  0  0
  3  5  1  0  0  0  0
  4 16  1  6  0  0  0
  4 21  1  0  0  0  0
  4 22  2  0  0  0  0
  4 14  1  0  0  0  0
  5  1  1  1  0  0  0
  5  8  1  0  0  0  0
  6 17  2  0  0  0  0
  6 12  1  0  0  0  0
  8  7  1  6  0  0  0
  8 11  1  0  0  0  0
  9 19  1  0  0  0  0
 11 10  1  6  0  0  0
 12 20  2  0  0  0  0
 12 19  1  0  0  0  0
 13 20  1  0  0  0  0
 14 15  1  0  0  0  0
 18 19  2  0  0  0  0
M  CHG  1  21  -1
M  END
>  <CHROM.1>
13.10709883,50.46551752,-174.47929011,-173.93024257,126.27865460,-10.56745070
-10.59739186,-6.89732211,2.65256870,-0.77838122,2.36168857

>  <Name>
ligand

>  <RI>
0

>  <Rbt.Current_Directory>
/home/itssahil/PROJECTS/Mol_Feturizer/Test_systems_manuscript/rnas/4xwf

>  <Rbt.Executable>
rbdock ($Id: //depot/dev/client3/rdock/2013.1/src/exe/rbdock.cxx#4 $)

>  <Rbt.Library>
libRbt.so (2013.1, Build901 2013/11/27)

>  <Rbt.Parameter_File>
/export/apps/rDock/src/rDock_2013.1_src/data/scripts/dock_solv.prm

>  <Rbt.Receptor>
prm/blind_docking_20.prm

>  <SCORE>
1.87052

>  <SCORE.INTER>
-0.669289

>  <SCORE.INTER.CONST>
1

>  <SCORE.INTER.POLAR>
0

>  <SCORE.INTER.ROT>
5

>  <SCORE.INTER.SOLV>
25.7569

>  <SCORE.INTER.VDW>
-15.9652

>  <SCORE.INTER.norm>
-0.0304222

>  <SCORE.INTRA>
-0.131244

>  <SCORE.INTRA.DIHEDRAL>
-1.44168

>  <SCORE.INTRA.DIHEDRAL.0>
3.49807

>  <SCORE.INTRA.POLAR>
0

>  <SCORE.INTRA.POLAR.0>
0

>  <SCORE.INTRA.REPUL>
0

>  <SCORE.INTRA.REPUL.0>
0

>  <SCORE.INTRA.SOLV>
1.59765

>  <SCORE.INTRA.SOLV.lig_0>
-73.062

>  <SCORE.INTRA.VDW>
-0.209226

>  <SCORE.INTRA.VDW.0>
-1.83782

>  <SCORE.INTRA.norm>
-0.00596565

>  <SCORE.RESTR>
2.67105

>  <SCORE.RESTR.CAVITY>
2.67105

>  <SCORE.RESTR.norm>
0.121412

>  <SCORE.SYSTEM>
0

>  <SCORE.SYSTEM.CONST>
0

>  <SCORE.SYSTEM.DIHEDRAL>
0

>  <SCORE.SYSTEM.SOLV>
0

>  <SCORE.SYSTEM.norm>
0

>  <SCORE.heavy>
22

>  <SCORE.norm>
0.0850236

>  <RMSD>
23.551

$$$$
ligand
 OpenBabel02271912143D
libRbt.so/2013.1/901 2013/11/27
 22 23  0  0  0  0  0  0  0  0999 V2000
  -12.8243  -10.0336   -5.8107 N   0  0  0  0  0  0  0  0  0  0  0  0
  -11.1972  -10.6058   -8.7224 C   0  0  1  0  0  0  0  0  0  0  0  0
  -12.4030  -10.8243   -7.9361 O   0  0  0  0  0  0  0  0  0  0  0  0
   -7.6855  -12.0204   -8.5989 P   0  0  1  0  0  0  0  0  0  0  0  0
  -12.6210   -9.6599   -7.1231 C   0  0  2  0  0  0  0  0  0  0  0  0
  -13.7113  -10.1953   -3.8363 N   0  0  0  0  0  0  0  0  0  0  0  0
  -11.5467   -7.5427   -6.8799 O   0  0  0  0  0  0  0  0  0  0  0  0
  -11.3327   -8.9318   -7.1559 C   0  0  2  0  0  0  0  0  0  0  0  0
  -12.5458  -11.5697   -1.4701 N   0  0  0  0  0  0  0  0  0  0  0  0
  -11.5465   -8.4099   -9.4644 O   0  0  0  0  0  0  0  0  0  0  0  0
  -10.8253   -9.1918   -8.4975 C   0  0  2  0  0  0  0  0  0  0  0  0
  -12.6450  -11.0085   -3.8845 C   0  0  0  0  0  0  0  0  0  0  0  0
  -10.9547  -11.6254   -5.5951 N   0  0  0  0  0  0  0  0  0  0  0  0
   -8.9815  -11.1728   -8.8452 O   0  0  0  0  0  0  0  0  0  0  0  0
  -10.1573  -11.5344   -8.1968 C   0  0  0  0  0  0  0  0  0  0  0  0
   -7.5182  -11.9747   -7.0368 O   0  0  0  0  0  0  0  0  0  0  0  0
  -13.8168   -9.5861   -5.0327 C   0  0  0  0  0  0  0  0  0  0  0  0
  -11.4099  -12.8087   -3.0064 O   0  0  0  0  0  0  0  0  0  0  0  0
  -12.1602  -11.8591   -2.7818 C   0  0  0  0  0  0  0  0  0  0  0  0
  -12.0829  -10.9144   -5.1257 C   0  0  0  0  0  0  0  0  0  0  0  0
   -7.8665  -13.3903   -9.1633 O   0  5  0  0  0  0  0  0  0  0  0  0
   -6.5664  -11.5118   -9.4123 O   0  0  0  0  0  0  0  0  0  0  0  0
  1 17  1  0  0  0  0
  1 20  1  0  0  0  0
  2 15  1  1  0  0  0
  2  3  1  0  0  0  0
  2 11  1  0  0  0  0
  3  5  1  0  0  0  0
  4 16  1  1  0  0  0
  4 21  1  0  0  0  0
  4 22  2  0  0  0  0
  4 14  1  0  0  0  0
  5  1  1  1  0  0  0
  5  8  1  0  0  0  0
  6 17  2  0  0  0  0
  6 12  1  0  0  0  0
  8  7  1  6  0  0  0
  8 11  1  0  0  0  0
  9 19  1  0  0  0  0
 11 10  1  6  0  0  0
 12 20  2  0  0  0  0
 12 19  1  0  0  0  0
 13 20  1  0  0  0  0
 14 15  1  0  0  0  0
 18 19  2  0  0  0  0
M  CHG  1  21  -1
M  END
>  <CHROM.1>
-132.15018107,-172.25029305,-55.95543675,-175.81845681,-19.67754094,-10.73793757
-10.83157004,-6.73093860,2.54971882,-0.63005599,2.12374982

>  <Name>
ligand

>  <RI>
0

>  <Rbt.Current_Directory>
/home/itssahil/PROJECTS/Mol_Feturizer/Test_systems_manuscript/rnas/4xwf

>  <Rbt.Executable>
rbdock ($Id: //depot/dev/client3/rdock/2013.1/src/exe/rbdock.cxx#4 $)

>  <Rbt.Library>
libRbt.so (2013.1, Build901 2013/11/27)

>  <Rbt.Parameter_File>
/export/apps/rDock/src/rDock_2013.1_src/data/scripts/dock_solv.prm

>  <Rbt.Receptor>
prm/blind_docking_20.prm

>  <SCORE>
1.11525

>  <SCORE.INTER>
-3.53944

>  <SCORE.INTER.CONST>
1

>  <SCORE.INTER.POLAR>
0

>  <SCORE.INTER.ROT>
5

>  <SCORE.INTER.SOLV>
24.8734

>  <SCORE.INTER.VDW>
-17.5841

>  <SCORE.INTER.norm>
-0.160883

>  <SCORE.INTRA>
2.53247

>  <SCORE.INTRA.DIHEDRAL>
-1.24687

>  <SCORE.INTRA.DIHEDRAL.0>
3.49807

>  <SCORE.INTRA.POLAR>
0

>  <SCORE.INTRA.POLAR.0>
0

>  <SCORE.INTRA.REPUL>
0

>  <SCORE.INTRA.REPUL.0>
0

>  <SCORE.INTRA.SOLV>
4.79515

>  <SCORE.INTRA.SOLV.lig_0>
-73.062

>  <SCORE.INTRA.VDW>
0.758331

>  <SCORE.INTRA.VDW.0>
-1.83782

>  <SCORE.INTRA.norm>
0.115112

>  <SCORE.RESTR>
2.12222

>  <SCORE.RESTR.CAVITY>
2.12222

>  <SCORE.RESTR.norm>
0.0964644

>  <SCORE.SYSTEM>
0

>  <SCORE.SYSTEM.CONST>
0

>  <SCORE.SYSTEM.DIHEDRAL>
0

>  <SCORE.SYSTEM.SOLV>
0

>  <SCORE.SYSTEM.norm>
0

>  <SCORE.heavy>
22

>  <SCORE.norm>
0.0506932

>  <RMSD>
23.552

$$$$
ligand
 OpenBabel02271912143D
libRbt.so/2013.1/901 2013/11/27
 22 23  0  0  0  0  0  0  0  0999 V2000
  -11.8193  -10.4203   -5.9841 N   0  0  0  0  0  0  0  0  0  0  0  0
  -10.4680   -9.3930   -8.9117 C   0  0  1  0  0  0  0  0  0  0  0  0
  -11.3663  -10.3238   -8.2436 O   0  0  0  0  0  0  0  0  0  0  0  0
   -7.8206  -12.0954   -8.8137 P   0  0  1  0  0  0  0  0  0  0  0  0
  -11.9518   -9.6475   -7.1192 C   0  0  2  0  0  0  0  0  0  0  0  0
  -11.1897  -12.0059   -4.6423 N   0  0  0  0  0  0  0  0  0  0  0  0
  -11.8422   -7.4341   -6.2333 O   0  0  0  0  0  0  0  0  0  0  0  0
  -11.1012   -8.4536   -6.9140 C   0  0  2  0  0  0  0  0  0  0  0  0
  -11.6082  -10.4983   -1.5769 N   0  0  0  0  0  0  0  0  0  0  0  0
  -11.7917   -7.4591   -8.9588 O   0  0  0  0  0  0  0  0  0  0  0  0
  -10.6981   -8.0826   -8.2649 C   0  0  2  0  0  0  0  0  0  0  0  0
  -11.9498  -11.1460   -3.9472 C   0  0  0  0  0  0  0  0  0  0  0  0
  -13.1419   -9.0251   -4.4414 N   0  0  0  0  0  0  0  0  0  0  0  0
   -9.0831  -11.2083   -9.0926 O   0  0  0  0  0  0  0  0  0  0  0  0
   -9.0795   -9.8808   -8.6787 C   0  0  0  0  0  0  0  0  0  0  0  0
   -6.7189  -11.4502   -9.7304 O   0  0  0  0  0  0  0  0  0  0  0  0
  -11.1153  -11.5558   -5.9094 C   0  0  0  0  0  0  0  0  0  0  0  0
  -13.1798  -12.0425   -2.1525 O   0  0  0  0  0  0  0  0  0  0  0  0
  -12.2988  -11.2651   -2.5193 C   0  0  0  0  0  0  0  0  0  0  0  0
  -12.3476  -10.1431   -4.7846 C   0  0  0  0  0  0  0  0  0  0  0  0
   -7.5040  -12.0741   -7.3552 O   0  5  0  0  0  0  0  0  0  0  0  0
   -8.1263  -13.5213   -9.0283 O   0  0  0  0  0  0  0  0  0  0  0  0
  1 17  1  0  0  0  0
  1 20  1  0  0  0  0
  2 15  1  1  0  0  0
  2  3  1  0  0  0  0
  2 11  1  0  0  0  0
  3  5  1  0  0  0  0
  4 16  1  6  0  0  0
  4 21  1  0  0  0  0
  4 22  2  0  0  0  0
  4 14  1  0  0  0  0
  5  1  1  1  0  0  0
  5  8  1  0  0  0  0
  6 17  2  0  0  0  0
  6 12  1  0  0  0  0
  8  7  1  6  0  0  0
  8 11  1  0  0  0  0
  9 19  1  0  0  0  0
 11 10  1  6  0  0  0
 12 20  2  0  0  0  0
 12 19  1  0  0  0  0
 13 20  1  0  0  0  0
 14 15  1  0  0  0  0
 18 19  2  0  0  0  0
M  CHG  1  21  -1
M  END
>  <CHROM.1>
7.18217137,53.16057736,-67.12685074,-172.06836315,100.92002768,-10.51531145
-10.51810732,-6.72348187,2.59796197,-0.79382122,2.27031677

>  <Name>
ligand

>  <RI>
0

>  <Rbt.Current_Directory>
/home/itssahil/PROJECTS/Mol_Feturizer/Test_systems_manuscript/rnas/4xwf

>  <Rbt.Executable>
rbdock ($Id: //depot/dev/client3/rdock/2013.1/src/exe/rbdock.cxx#4 $)

>  <Rbt.Library>
libRbt.so (2013.1, Build901 2013/11/27)

>  <Rbt.Parameter_File>
/export/apps/rDock/src/rDock_2013.1_src/data/scripts/dock_solv.prm

>  <Rbt.Receptor>
prm/blind_docking_20.prm

>  <SCORE>
-0.0856941

>  <SCORE.INTER>
-2.42244

>  <SCORE.INTER.CONST>
1

>  <SCORE.INTER.POLAR>
0

>  <SCORE.INTER.ROT>
5

>  <SCORE.INTER.SOLV>
20.1249

>  <SCORE.INTER.VDW>
-15.2566

>  <SCORE.INTER.norm>
-0.110111

>  <SCORE.INTRA>
-0.0709329

>  <SCORE.INTRA.DIHEDRAL>
-1.0584

>  <SCORE.INTRA.DIHEDRAL.0>
3.49807

>  <SCORE.INTRA.POLAR>
0

>  <SCORE.INTRA.POLAR.0>
0

>  <SCORE.INTRA.REPUL>
0

>  <SCORE.INTRA.REPUL.0>
0

>  <SCORE.INTRA.SOLV>
1.11589

>  <SCORE.INTRA.SOLV.lig_0>
-73.062

>  <SCORE.INTRA.VDW>
-0.0996746

>  <SCORE.INTRA.VDW.0>
-1.83782

>  <SCORE.INTRA.norm>
-0.00322422

>  <SCORE.RESTR>
2.40768

>  <SCORE.RESTR.CAVITY>
2.40768

>  <SCORE.RESTR.norm>
0.10944

>  <SCORE.SYSTEM>
0

>  <SCORE.SYSTEM.CONST>
0

>  <SCORE.SYSTEM.DIHEDRAL>
0

>  <SCORE.SYSTEM.SOLV>
0

>  <SCORE.SYSTEM.norm>
0

>  <SCORE.heavy>
22

>  <SCORE.norm>
-0.00389519

>  <RMSD>
23.594

$$$$
ligand
 OpenBabel02271912143D
libRbt.so/2013.1/901 2013/11/27
 22 23  0  0  0  0  0  0  0  0999 V2000
  -11.7890  -10.4323   -5.9592 N   0  0  0  0  0  0  0  0  0  0  0  0
  -10.4850   -9.4063   -8.9086 C   0  0  1  0  0  0  0  0  0  0  0  0
  -11.3679  -10.3406   -8.2250 O   0  0  0  0  0  0  0  0  0  0  0  0
   -7.7725  -12.0504   -8.9746 P   0  0  1  0  0  0  0  0  0  0  0  0
  -11.9422   -9.6643   -7.0949 C   0  0  2  0  0  0  0  0  0  0  0  0
  -11.1098  -11.9939   -4.6134 N   0  0  0  0  0  0  0  0  0  0  0  0
  -11.8349   -7.4472   -6.2180 O   0  0  0  0  0  0  0  0  0  0  0  0
  -11.0967   -8.4642   -6.9055 C   0  0  2  0  0  0  0  0  0  0  0  0
  -11.6023  -10.5110   -1.5497 N   0  0  0  0  0  0  0  0  0  0  0  0
  -11.8219   -7.4812   -8.9439 O   0  0  0  0  0  0  0  0  0  0  0  0
  -10.7148   -8.0953   -8.2631 C   0  0  2  0  0  0  0  0  0  0  0  0
  -11.9071  -11.1638   -3.9235 C   0  0  0  0  0  0  0  0  0  0  0  0
  -13.1748   -9.0892   -4.4258 N   0  0  0  0  0  0  0  0  0  0  0  0
   -9.0839  -11.2048   -9.1291 O   0  0  0  0  0  0  0  0  0  0  0  0
   -9.0903   -9.8843   -8.6932 C   0  0  0  0  0  0  0  0  0  0  0  0
   -7.5337  -12.0620   -7.4211 O   0  0  0  0  0  0  0  0  0  0  0  0
  -11.0431  -11.5404   -5.8796 C   0  0  0  0  0  0  0  0  0  0  0  0
  -13.1205  -12.1025   -2.1392 O   0  0  0  0  0  0  0  0  0  0  0  0
  -12.2620  -11.2970   -2.4984 C   0  0  0  0  0  0  0  0  0  0  0  0
  -12.3363  -10.1761   -4.7635 C   0  0  0  0  0  0  0  0  0  0  0  0
   -7.9704  -13.3996   -9.5815 O   0  5  0  0  0  0  0  0  0  0  0  0
   -6.6953  -11.5026   -9.8185 O   0  0  0  0  0  0  0  0  0  0  0  0
  1 17  1  0  0  0  0
  1 20  1  0  0  0  0
  2 15  1  1  0  0  0
  2  3  1  0  0  0  0
  2 11  1  0  0  0  0
  3  5  1  0  0  0  0
  4 16  1  1  0  0  0
  4 21  1  0  0  0  0
  4 22  2  0  0  0  0
  4 14  1  0  0  0  0
  5  1  1  1  0  0  0
  5  8  1  0  0  0  0
  6 17  2  0  0  0  0
  6 12  1  0  0  0  0
  8  7  1  6  0  0  0
  8 11  1  0  0  0  0
  9 19  1  0  0  0  0
 11 10  1  6  0  0  0
 12 20  2  0  0  0  0
 12 19  1  0  0  0  0
 13 20  1  0  0  0  0
 14 15  1  0  0  0  0
 18 19  2  0  0  0  0
M  CHG  1  21  -1
M  END
>  <CHROM.1>
9.36252416,54.38669737,60.99133056,-176.80088538,100.54085745,-10.49360176
-10.52316939,-6.76328627,2.58133250,-0.79923972,2.25753580

>  <Name>
ligand

>  <RI>
0

>  <Rbt.Current_Directory>
/home/itssahil/PROJECTS/Mol_Feturizer/Test_systems_manuscript/rnas/4xwf

>  <Rbt.Executable>
rbdock ($Id: //depot/dev/client3/rdock/2013.1/src/exe/rbdock.cxx#4 $)

>  <Rbt.Library>
libRbt.so (2013.1, Build901 2013/11/27)

>  <Rbt.Parameter_File>
/export/apps/rDock/src/rDock_2013.1_src/data/scripts/dock_solv.prm

>  <Rbt.Receptor>
prm/blind_docking_20.prm

>  <SCORE>
0.711502

>  <SCORE.INTER>
-1.33179

>  <SCORE.INTER.CONST>
1

>  <SCORE.INTER.POLAR>
0

>  <SCORE.INTER.ROT>
5

>  <SCORE.INTER.SOLV>
22.1129

>  <SCORE.INTER.VDW>
-15.1922

>  <SCORE.INTER.norm>
-0.0605361

>  <SCORE.INTRA>
-0.519524

>  <SCORE.INTRA.DIHEDRAL>
-1.46751

>  <SCORE.INTRA.DIHEDRAL.0>
3.49807

>  <SCORE.INTRA.POLAR>
0

>  <SCORE.INTRA.POLAR.0>
0

>  <SCORE.INTRA.REPUL>
0

>  <SCORE.INTRA.REPUL.0>
0

>  <SCORE.INTRA.SOLV>
0.77586

>  <SCORE.INTRA.SOLV.lig_0>
-73.062

>  <SCORE.INTRA.VDW>
-0.173699

>  <SCORE.INTRA.VDW.0>
-1.83782

>  <SCORE.INTRA.norm>
-0.0236147

>  <SCORE.RESTR>
2.56282

>  <SCORE.RESTR.CAVITY>
2.56282

>  <SCORE.RESTR.norm>
0.116492

>  <SCORE.SYSTEM>
0

>  <SCORE.SYSTEM.CONST>
0

>  <SCORE.SYSTEM.DIHEDRAL>
0

>  <SCORE.SYSTEM.SOLV>
0

>  <SCORE.SYSTEM.norm>
0

>  <SCORE.heavy>
22

>  <SCORE.norm>
0.032341

>  <RMSD>
23.623

$$$$
ligand
 OpenBabel02271912143D
libRbt.so/2013.1/901 2013/11/27
 22 23  0  0  0  0  0  0  0  0999 V2000
  -10.9136   -9.4231   -7.6854 N   0  0  0  0  0  0  0  0  0  0  0  0
  -11.9687   -9.1528   -4.4813 C   0  0  1  0  0  0  0  0  0  0  0  0
  -11.3216   -8.5010   -5.6110 O   0  0  0  0  0  0  0  0  0  0  0  0
  -12.5474  -11.5083   -2.4930 P   0  0  1  0  0  0  0  0  0  0  0  0
  -11.9063   -9.0177   -6.8174 C   0  0  2  0  0  0  0  0  0  0  0  0
   -9.5117   -9.4277   -9.3424 N   0  0  0  0  0  0  0  0  0  0  0  0
  -13.6675  -10.5473   -7.3220 O   0  0  0  0  0  0  0  0  0  0  0  0
  -12.6187  -10.2443   -6.3946 C   0  0  2  0  0  0  0  0  0  0  0  0
   -7.3583  -11.9096   -7.9212 N   0  0  0  0  0  0  0  0  0  0  0  0
  -14.2182   -9.0258   -5.1281 O   0  0  0  0  0  0  0  0  0  0  0  0
  -13.0954   -9.9204   -5.0556 C   0  0  2  0  0  0  0  0  0  0  0  0
   -9.3042  -10.5360   -8.6149 C   0  0  0  0  0  0  0  0  0  0  0  0
  -10.2769  -11.5176   -6.5525 N   0  0  0  0  0  0  0  0  0  0  0  0
  -11.4745  -10.3704   -2.6053 O   0  0  0  0  0  0  0  0  0  0  0  0
  -10.9578  -10.0515   -3.8563 C   0  0  0  0  0  0  0  0  0  0  0  0
  -12.4048  -11.9906   -1.0039 O   0  0  0  0  0  0  0  0  0  0  0  0
  -10.5165   -8.7410   -8.7659 C   0  0  0  0  0  0  0  0  0  0  0  0
   -8.2749  -12.1420   -9.9928 O   0  0  0  0  0  0  0  0  0  0  0  0
   -8.2994  -11.5772   -8.8994 C   0  0  0  0  0  0  0  0  0  0  0  0
  -10.1812  -10.5387   -7.5679 C   0  0  0  0  0  0  0  0  0  0  0  0
  -13.8933  -10.9660   -2.8429 O   0  5  0  0  0  0  0  0  0  0  0  0
  -12.3520  -12.5167   -3.5502 O   0  0  0  0  0  0  0  0  0  0  0  0
  1 17  1  0  0  0  0
  1 20  1  0  0  0  0
  2 15  1  6  0  0  0
  2  3  1  0  0  0  0
  2 11  1  0  0  0  0
  3  5  1  0  0  0  0
  4 16  1  1  0  0  0
  4 21  1  0  0  0  0
  4 22  2  0  0  0  0
  4 14  1  0  0  0  0
  5  1  1  6  0  0  0
  5  8  1  0  0  0  0
  6 17  2  0  0  0  0
  6 12  1  0  0  0  0
  8  7  1  6  0  0  0
  8 11  1  0  0  0  0
  9 19  1  0  0  0  0
 11 10  1  6  0  0  0
 12 20  2  0  0  0  0
 12 19  1  0  0  0  0
 13 20  1  0  0  0  0
 14 15  1  0  0  0  0
 18 19  2  0  0  0  0
M  CHG  1  21  -1
M  END
>  <CHROM.1>
-103.41505371,164.47176230,156.07539542,81.52040351,123.77388087,-11.37117062
-10.52061187,-5.72436149,0.89290154,0.61264148,-1.08930341

>  <Name>
ligand

>  <RI>
0

>  <Rbt.Current_Directory>
/home/itssahil/PROJECTS/Mol_Feturizer/Test_systems_manuscript/rnas/4xwf

>  <Rbt.Executable>
rbdock ($Id: //depot/dev/client3/rdock/2013.1/src/exe/rbdock.cxx#4 $)

>  <Rbt.Library>
libRbt.so (2013.1, Build901 2013/11/27)

>  <Rbt.Parameter_File>
/export/apps/rDock/src/rDock_2013.1_src/data/scripts/dock_solv.prm

>  <Rbt.Receptor>
prm/blind_docking_20.prm

>  <SCORE>
13.8781

>  <SCORE.INTER>
3.72

>  <SCORE.INTER.CONST>
1

>  <SCORE.INTER.POLAR>
0

>  <SCORE.INTER.ROT>
5

>  <SCORE.INTER.SOLV>
23.0299

>  <SCORE.INTER.VDW>
-12.13

>  <SCORE.INTER.norm>
0.169091

>  <SCORE.INTRA>
8.6168

>  <SCORE.INTRA.DIHEDRAL>
1.73424

>  <SCORE.INTRA.DIHEDRAL.0>
3.49807

>  <SCORE.INTRA.POLAR>
0

>  <SCORE.INTRA.POLAR.0>
0

>  <SCORE.INTRA.REPUL>
0

>  <SCORE.INTRA.REPUL.0>
0

>  <SCORE.INTRA.SOLV>
11.1489

>  <SCORE.INTRA.SOLV.lig_0>
-73.062

>  <SCORE.INTRA.VDW>
2.17523

>  <SCORE.INTRA.VDW.0>
-1.83782

>  <SCORE.INTRA.norm>
0.391673

>  <SCORE.RESTR>
1.54126

>  <SCORE.RESTR.CAVITY>
1.54126

>  <SCORE.RESTR.norm>
0.0700571

>  <SCORE.SYSTEM>
0

>  <SCORE.SYSTEM.CONST>
0

>  <SCORE.SYSTEM.DIHEDRAL>
0

>  <SCORE.SYSTEM.SOLV>
0

>  <SCORE.SYSTEM.norm>
0

>  <SCORE.heavy>
22

>  <SCORE.norm>
0.630821

>  <RMSD>
23.648

$$$$
ligand
 OpenBabel02271912143D
libRbt.so/2013.1/901 2013/11/27
 22 23  0  0  0  0  0  0  0  0999 V2000
  -10.9274   -9.5835   -7.8133 N   0  0  0  0  0  0  0  0  0  0  0  0
  -12.0789   -9.2877   -4.6448 C   0  0  1  0  0  0  0  0  0  0  0  0
  -11.5144   -8.6130   -5.8050 O   0  0  0  0  0  0  0  0  0  0  0  0
  -12.4375  -11.4500   -2.4830 P   0  0  1  0  0  0  0  0  0  0  0  0
  -11.9883   -9.2837   -6.9839 C   0  0  2  0  0  0  0  0  0  0  0  0
   -9.4862   -9.4540   -9.4311 N   0  0  0  0  0  0  0  0  0  0  0  0
  -13.4860  -11.0915   -7.4136 O   0  0  0  0  0  0  0  0  0  0  0  0
  -12.5152  -10.5773   -6.4944 C   0  0  2  0  0  0  0  0  0  0  0  0
   -7.5018  -11.5543  -10.1831 N   0  0  0  0  0  0  0  0  0  0  0  0
  -14.3074   -9.5442   -5.3248 O   0  0  0  0  0  0  0  0  0  0  0  0
  -13.0637  -10.2510   -5.1838 C   0  0  2  0  0  0  0  0  0  0  0  0
   -9.1659  -10.5104   -8.6681 C   0  0  0  0  0  0  0  0  0  0  0  0
  -10.0723  -11.5555   -6.6066 N   0  0  0  0  0  0  0  0  0  0  0  0
  -11.4308  -10.2636   -2.6767 O   0  0  0  0  0  0  0  0  0  0  0  0
  -10.9568   -9.9827   -3.9535 C   0  0  0  0  0  0  0  0  0  0  0  0
  -11.8623  -12.5667   -3.4277 O   0  0  0  0  0  0  0  0  0  0  0  0
  -10.5849   -8.8835   -8.9010 C   0  0  0  0  0  0  0  0  0  0  0  0
   -7.5627  -12.0849   -7.9694 O   0  0  0  0  0  0  0  0  0  0  0  0
   -8.0324  -11.4256   -8.8967 C   0  0  0  0  0  0  0  0  0  0  0  0
  -10.0671  -10.5967   -7.6456 C   0  0  0  0  0  0  0  0  0  0  0  0
  -12.4965  -11.8283   -1.0403 O   0  5  0  0  0  0  0  0  0  0  0  0
  -13.8215  -11.0060   -2.7283 O   0  0  0  0  0  0  0  0  0  0  0  0
  1 17  1  0  0  0  0
  1 20  1  0  0  0  0
  2 15  1  6  0  0  0
  2  3  1  0  0  0  0
  2 11  1  0  0  0  0
  3  5  1  0  0  0  0
  4 16  1  6  0  0  0
  4 21  1  0  0  0  0
  4 22  2  0  0  0  0
  4 14  1  0  0  0  0
  5  1  1  6  0  0  0
  5  8  1  0  0  0  0
  6 17  2  0  0  0  0
  6 12  1  0  0  0  0
  8  7  1  6  0  0  0
  8 11  1  0  0  0  0
  9 19  1  0  0  0  0
 11 10  1  6  0  0  0
 12 20  2  0  0  0  0
 12 19  1  0  0  0  0
 13 20  1  0  0  0  0
 14 15  1  0  0  0  0
 18 19  2  0  0  0  0
M  CHG  1  21  -1
M  END
>  <CHROM.1>
-100.70698097,162.61155594,40.86008356,76.20684853,-23.68634019,-11.28877844
-10.59520738,-5.78582715,0.92974757,0.50543011,-1.16441647

>  <Name>
ligand

>  <RI>
0

>  <Rbt.Current_Directory>
/home/itssahil/PROJECTS/Mol_Feturizer/Test_systems_manuscript/rnas/4xwf

>  <Rbt.Executable>
rbdock ($Id: //depot/dev/client3/rdock/2013.1/src/exe/rbdock.cxx#4 $)

>  <Rbt.Library>
libRbt.so (2013.1, Build901 2013/11/27)

>  <Rbt.Parameter_File>
/export/apps/rDock/src/rDock_2013.1_src/data/scripts/dock_solv.prm

>  <Rbt.Receptor>
prm/blind_docking_20.prm

>  <SCORE>
11.4339

>  <SCORE.INTER>
2.57617

>  <SCORE.INTER.CONST>
1

>  <SCORE.INTER.POLAR>
0

>  <SCORE.INTER.ROT>
5

>  <SCORE.INTER.SOLV>
22.3697

>  <SCORE.INTER.VDW>
-12.6725

>  <SCORE.INTER.norm>
0.117098

>  <SCORE.INTRA>
7.21281

>  <SCORE.INTRA.DIHEDRAL>
1.33087

>  <SCORE.INTRA.DIHEDRAL.0>
3.49807

>  <SCORE.INTRA.POLAR>
0

>  <SCORE.INTRA.POLAR.0>
0

>  <SCORE.INTRA.REPUL>
0

>  <SCORE.INTRA.REPUL.0>
0

>  <SCORE.INTRA.SOLV>
8.30196

>  <SCORE.INTRA.SOLV.lig_0>
-73.062

>  <SCORE.INTRA.VDW>
2.3964

>  <SCORE.INTRA.VDW.0>
-1.83782

>  <SCORE.INTRA.norm>
0.327855

>  <SCORE.RESTR>
1.64495

>  <SCORE.RESTR.CAVITY>
1.64495

>  <SCORE.RESTR.norm>
0.0747707

>  <SCORE.SYSTEM>
0

>  <SCORE.SYSTEM.CONST>
0

>  <SCORE.SYSTEM.DIHEDRAL>
0

>  <SCORE.SYSTEM.SOLV>
0

>  <SCORE.SYSTEM.norm>
0

>  <SCORE.heavy>
22

>  <SCORE.norm>
0.519724

>  <RMSD>
23.747

$$$$
ligand
 OpenBabel02271912143D
libRbt.so/2013.1/901 2013/11/27
 22 23  0  0  0  0  0  0  0  0999 V2000
  -10.8171   -9.4247   -7.8263 N   0  0  0  0  0  0  0  0  0  0  0  0
  -12.1065   -9.9842   -4.7479 C   0  0  1  0  0  0  0  0  0  0  0  0
  -11.3066   -9.1105   -5.5944 O   0  0  0  0  0  0  0  0  0  0  0  0
  -12.6802  -11.7888   -2.3658 P   0  0  1  0  0  0  0  0  0  0  0  0
  -11.8353   -9.1780   -6.9287 C   0  0  2  0  0  0  0  0  0  0  0  0
   -9.3897   -9.1486   -9.4379 N   0  0  0  0  0  0  0  0  0  0  0  0
  -13.6878  -10.2739   -7.9596 O   0  0  0  0  0  0  0  0  0  0  0  0
  -12.6963  -10.3819   -6.9315 C   0  0  2  0  0  0  0  0  0  0  0  0
   -8.4956  -12.5030   -9.9030 N   0  0  0  0  0  0  0  0  0  0  0  0
  -14.2707   -9.4093   -5.4408 O   0  0  0  0  0  0  0  0  0  0  0  0
  -13.2501  -10.4114   -5.5834 C   0  0  2  0  0  0  0  0  0  0  0  0
   -9.1603  -10.3451   -8.8755 C   0  0  0  0  0  0  0  0  0  0  0  0
  -10.1355  -11.6438   -6.9978 N   0  0  0  0  0  0  0  0  0  0  0  0
  -11.3498  -11.2403   -2.9884 O   0  0  0  0  0  0  0  0  0  0  0  0
  -11.2437  -11.1391   -4.3712 C   0  0  0  0  0  0  0  0  0  0  0  0
  -12.9424  -13.1060   -3.1823 O   0  0  0  0  0  0  0  0  0  0  0  0
  -10.4238   -8.5814   -8.7879 C   0  0  0  0  0  0  0  0  0  0  0  0
   -6.9302  -11.0671   -9.0824 O   0  0  0  0  0  0  0  0  0  0  0  0
   -8.1202  -11.3054   -9.2883 C   0  0  0  0  0  0  0  0  0  0  0  0
  -10.0533  -10.5248   -7.8578 C   0  0  0  0  0  0  0  0  0  0  0  0
  -12.5007  -11.9944   -0.8983 O   0  5  0  0  0  0  0  0  0  0  0  0
  -13.7333  -10.7579   -2.3924 O   0  0  0  0  0  0  0  0  0  0  0  0
  1 17  1  0  0  0  0
  1 20  1  0  0  0  0
  2 15  1  6  0  0  0
  2  3  1  0  0  0  0
  2 11  1  0  0  0  0
  3  5  1  0  0  0  0
  4 16  1  6  0  0  0
  4 21  1  0  0  0  0
  4 22  2  0  0  0  0
  4 14  1  0  0  0  0
  5  1  1  6  0  0  0
  5  8  1  0  0  0  0
  6 17  2  0  0  0  0
  6 12  1  0  0  0  0
  8  7  1  6  0  0  0
  8 11  1  0  0  0  0
  9 19  1  0  0  0  0
 11 10  1  6  0  0  0
 12 20  2  0  0  0  0
 12 19  1  0  0  0  0
 13 20  1  0  0  0  0
 14 15  1  0  0  0  0
 18 19  2  0  0  0  0
M  CHG  1  21  -1
M  END
>  <CHROM.1>
-115.71056468,129.48417205,49.43443658,72.92056998,-110.42308767,-11.37788844
-10.69677661,-5.91466189,0.94961428,0.50366626,-1.09088774

>  <Name>
ligand

>  <RI>
0

>  <Rbt.Current_Directory>
/home/itssahil/PROJECTS/Mol_Feturizer/Test_systems_manuscript/rnas/4xwf

>  <Rbt.Executable>
rbdock ($Id: //depot/dev/client3/rdock/2013.1/src/exe/rbdock.cxx#4 $)

>  <Rbt.Library>
libRbt.so (2013.1, Build901 2013/11/27)

>  <Rbt.Parameter_File>
/export/apps/rDock/src/rDock_2013.1_src/data/scripts/dock_solv.prm

>  <Rbt.Receptor>
prm/blind_docking_20.prm

>  <SCORE>
11.0293

>  <SCORE.INTER>
3.34615

>  <SCORE.INTER.CONST>
1

>  <SCORE.INTER.POLAR>
0

>  <SCORE.INTER.ROT>
5

>  <SCORE.INTER.SOLV>
22.0229

>  <SCORE.INTER.VDW>
-12.0435

>  <SCORE.INTER.norm>
0.152098

>  <SCORE.INTRA>
5.6959

>  <SCORE.INTRA.DIHEDRAL>
3.97421

>  <SCORE.INTRA.DIHEDRAL.0>
3.49807

>  <SCORE.INTRA.POLAR>
0

>  <SCORE.INTRA.POLAR.0>
0

>  <SCORE.INTRA.REPUL>
0

>  <SCORE.INTRA.REPUL.0>
0

>  <SCORE.INTRA.SOLV>
7.06756

>  <SCORE.INTRA.SOLV.lig_0>
-73.062

>  <SCORE.INTRA.VDW>
0.175014

>  <SCORE.INTRA.VDW.0>
-1.83782

>  <SCORE.INTRA.norm>
0.258904

>  <SCORE.RESTR>
1.98725

>  <SCORE.RESTR.CAVITY>
1.98725

>  <SCORE.RESTR.norm>
0.0903295

>  <SCORE.SYSTEM>
0

>  <SCORE.SYSTEM.CONST>
0

>  <SCORE.SYSTEM.DIHEDRAL>
0

>  <SCORE.SYSTEM.SOLV>
0

>  <SCORE.SYSTEM.norm>
0

>  <SCORE.heavy>
22

>  <SCORE.norm>
0.501332

>  <RMSD>
23.751

$$$$
ligand
 OpenBabel02271912143D
libRbt.so/2013.1/901 2013/11/27
 22 23  0  0  0  0  0  0  0  0999 V2000
  -10.6943   -9.6574   -7.8257 N   0  0  0  0  0  0  0  0  0  0  0  0
  -12.0509  -10.0050   -4.7448 C   0  0  1  0  0  0  0  0  0  0  0  0
  -11.1569   -9.2423   -5.6045 O   0  0  0  0  0  0  0  0  0  0  0  0
  -12.7001  -11.2466   -2.1917 P   0  0  1  0  0  0  0  0  0  0  0  0
  -11.6837   -9.2818   -6.9407 C   0  0  2  0  0  0  0  0  0  0  0  0
   -9.2608   -9.5847   -9.4538 N   0  0  0  0  0  0  0  0  0  0  0  0
  -13.6396  -10.1929   -7.9604 O   0  0  0  0  0  0  0  0  0  0  0  0
  -12.6704  -10.3849   -6.9234 C   0  0  2  0  0  0  0  0  0  0  0  0
   -7.0397  -12.0361   -8.3839 N   0  0  0  0  0  0  0  0  0  0  0  0
  -14.1366   -9.2142   -5.4651 O   0  0  0  0  0  0  0  0  0  0  0  0
  -13.2302  -10.3241   -5.5788 C   0  0  2  0  0  0  0  0  0  0  0  0
   -9.1222  -10.7624   -8.8258 C   0  0  0  0  0  0  0  0  0  0  0  0
  -10.1833  -11.8739   -6.8759 N   0  0  0  0  0  0  0  0  0  0  0  0
  -12.2001  -11.9294   -3.5117 O   0  0  0  0  0  0  0  0  0  0  0  0
  -11.3203  -11.2379   -4.3373 C   0  0  0  0  0  0  0  0  0  0  0  0
  -13.3318  -12.4402   -1.3872 O   0  0  0  0  0  0  0  0  0  0  0  0
  -10.2426   -8.9025   -8.8339 C   0  0  0  0  0  0  0  0  0  0  0  0
   -8.3380  -12.5089  -10.1941 O   0  0  0  0  0  0  0  0  0  0  0  0
   -8.1635  -11.8232   -9.1868 C   0  0  0  0  0  0  0  0  0  0  0  0
  -10.0194  -10.8144   -7.7975 C   0  0  0  0  0  0  0  0  0  0  0  0
  -11.5553  -10.5755   -1.5084 O   0  5  0  0  0  0  0  0  0  0  0  0
  -13.5753  -10.1002   -2.4956 O   0  0  0  0  0  0  0  0  0  0  0  0
  1 17  1  0  0  0  0
  1 20  1  0  0  0  0
  2 15  1  6  0  0  0
  2  3  1  0  0  0  0
  2 11  1  0  0  0  0
  3  5  1  0  0  0  0
  4 16  1  1  0  0  0
  4 21  1  0  0  0  0
  4 22  2  0  0  0  0
  4 14  1  0  0  0  0
  5  1  1  6  0  0  0
  5  8  1  0  0  0  0
  6 17  2  0  0  0  0
  6 12  1  0  0  0  0
  8  7  1  6  0  0  0
  8 11  1  0  0  0  0
  9 19  1  0  0  0  0
 11 10  1  6  0  0  0
 12 20  2  0  0  0  0
 12 19  1  0  0  0  0
 13 20  1  0  0  0  0
 14 15  1  0  0  0  0
 18 19  2  0  0  0  0
M  CHG  1  21  -1
M  END
>  <CHROM.1>
-118.36927213,179.49318432,-165.66661282,-60.58774454,106.31355469,-11.35364469
-10.68961520,-5.85006839,0.92999301,0.55145456,-1.19533011

>  <Name>
ligand

>  <RI>
0

>  <Rbt.Current_Directory>
/home/itssahil/PROJECTS/Mol_Feturizer/Test_systems_manuscript/rnas/4xwf

>  <Rbt.Executable>
rbdock ($Id: //depot/dev/client3/rdock/2013.1/src/exe/rbdock.cxx#4 $)

>  <Rbt.Library>
libRbt.so (2013.1, Build901 2013/11/27)

>  <Rbt.Parameter_File>
/export/apps/rDock/src/rDock_2013.1_src/data/scripts/dock_solv.prm

>  <Rbt.Receptor>
prm/blind_docking_20.prm

>  <SCORE>
9.41286

>  <SCORE.INTER>
1.5725

>  <SCORE.INTER.CONST>
1

>  <SCORE.INTER.POLAR>
0

>  <SCORE.INTER.ROT>
5

>  <SCORE.INTER.SOLV>
18.6037

>  <SCORE.INTER.VDW>
-12.0862

>  <SCORE.INTER.norm>
0.0714775

>  <SCORE.INTRA>
5.19369

>  <SCORE.INTRA.DIHEDRAL>
-1.52167

>  <SCORE.INTRA.DIHEDRAL.0>
3.49807

>  <SCORE.INTRA.POLAR>
0

>  <SCORE.INTRA.POLAR.0>
0

>  <SCORE.INTRA.REPUL>
0

>  <SCORE.INTRA.REPUL.0>
0

>  <SCORE.INTRA.SOLV>
9.05243

>  <SCORE.INTRA.SOLV.lig_0>
-73.062

>  <SCORE.INTRA.VDW>
1.42831

>  <SCORE.INTRA.VDW.0>
-1.83782

>  <SCORE.INTRA.norm>
0.236077

>  <SCORE.RESTR>
2.64667

>  <SCORE.RESTR.CAVITY>
2.64667

>  <SCORE.RESTR.norm>
0.120303

>  <SCORE.SYSTEM>
0

>  <SCORE.SYSTEM.CONST>
0

>  <SCORE.SYSTEM.DIHEDRAL>
0

>  <SCORE.SYSTEM.SOLV>
0

>  <SCORE.SYSTEM.norm>
0

>  <SCORE.heavy>
22

>  <SCORE.norm>
0.427857

>  <RMSD>
23.775

$$$$
ligand
 OpenBabel02271912143D
libRbt.so/2013.1/901 2013/11/27
 22 23  0  0  0  0  0  0  0  0999 V2000
  -10.6231   -9.7384   -8.0301 N   0  0  0  0  0  0  0  0  0  0  0  0
  -12.0074  -10.1949   -4.9760 C   0  0  1  0  0  0  0  0  0  0  0  0
  -11.1001   -9.4069   -5.7980 O   0  0  0  0  0  0  0  0  0  0  0  0
  -12.6642  -11.3825   -2.4631 P   0  0  1  0  0  0  0  0  0  0  0  0
  -11.6164   -9.3891   -7.1387 C   0  0  2  0  0  0  0  0  0  0  0  0
   -9.2238   -9.6396   -9.6864 N   0  0  0  0  0  0  0  0  0  0  0  0
  -13.5717  -10.2422   -8.2087 O   0  0  0  0  0  0  0  0  0  0  0  0
  -12.6125  -10.4834   -7.1726 C   0  0  2  0  0  0  0  0  0  0  0  0
   -6.9055  -12.0025   -8.5257 N   0  0  0  0  0  0  0  0  0  0  0  0
  -14.0805   -9.3581   -5.6807 O   0  0  0  0  0  0  0  0  0  0  0  0
  -13.1827  -10.4706   -5.8310 C   0  0  2  0  0  0  0  0  0  0  0  0
   -9.0099  -10.7874   -9.0251 C   0  0  0  0  0  0  0  0  0  0  0  0
   -9.9748  -11.8923   -7.0222 N   0  0  0  0  0  0  0  0  0  0  0  0
  -12.1455  -12.1215   -3.7450 O   0  0  0  0  0  0  0  0  0  0  0  0
  -11.2907  -11.4494   -4.6117 C   0  0  0  0  0  0  0  0  0  0  0  0
  -13.8246  -10.4774   -3.0153 O   0  0  0  0  0  0  0  0  0  0  0  0
  -10.2309   -8.9925   -9.0696 C   0  0  0  0  0  0  0  0  0  0  0  0
   -8.1081  -12.4689  -10.4023 O   0  0  0  0  0  0  0  0  0  0  0  0
   -8.0006  -11.8054   -9.3712 C   0  0  0  0  0  0  0  0  0  0  0  0
   -9.8852  -10.8554   -7.9789 C   0  0  0  0  0  0  0  0  0  0  0  0
  -13.0917  -12.3853   -1.4435 O   0  5  0  0  0  0  0  0  0  0  0  0
  -11.5556  -10.7066   -1.7653 O   0  0  0  0  0  0  0  0  0  0  0  0
  1 17  1  0  0  0  0
  1 20  1  0  0  0  0
  2 15  1  6  0  0  0
  2  3  1  0  0  0  0
  2 11  1  0  0  0  0
  3  5  1  0  0  0  0
  4 16  1  6  0  0  0
  4 21  1  0  0  0  0
  4 22  2  0  0  0  0
  4 14  1  0  0  0  0
  5  1  1  6  0  0  0
  5  8  1  0  0  0  0
  6 17  2  0  0  0  0
  6 12  1  0  0  0  0
  8  7  1  6  0  0  0
  8 11  1  0  0  0  0
  9 19  1  0  0  0  0
 11 10  1  6  0  0  0
 12 20  2  0  0  0  0
 12 19  1  0  0  0  0
 13 20  1  0  0  0  0
 14 15  1  0  0  0  0
 18 19  2  0  0  0  0
M  CHG  1  21  -1
M  END
>  <CHROM.1>
-124.01489211,175.42882723,79.56444450,-54.99099370,111.28341620,-11.28373467
-10.78986400,-6.07809394,0.92984812,0.50524078,-1.19978060

>  <Name>
ligand

>  <RI>
0

>  <Rbt.Current_Directory>
/home/itssahil/PROJECTS/Mol_Feturizer/Test_systems_manuscript/rnas/4xwf

>  <Rbt.Executable>
rbdock ($Id: //depot/dev/client3/rdock/2013.1/src/exe/rbdock.cxx#4 $)

>  <Rbt.Library>
libRbt.so (2013.1, Build901 2013/11/27)

>  <Rbt.Parameter_File>
/export/apps/rDock/src/rDock_2013.1_src/data/scripts/dock_solv.prm

>  <Rbt.Receptor>
prm/blind_docking_20.prm

>  <SCORE>
8.98244

>  <SCORE.INTER>
1.77934

>  <SCORE.INTER.CONST>
1

>  <SCORE.INTER.POLAR>
0

>  <SCORE.INTER.ROT>
5

>  <SCORE.INTER.SOLV>
21.0894

>  <SCORE.INTER.VDW>
-12.7769

>  <SCORE.INTER.norm>
0.0808793

>  <SCORE.INTRA>
4.66368

>  <SCORE.INTRA.DIHEDRAL>
-1.20024

>  <SCORE.INTRA.DIHEDRAL.0>
3.49807

>  <SCORE.INTRA.POLAR>
0

>  <SCORE.INTRA.POLAR.0>
0

>  <SCORE.INTRA.REPUL>
0

>  <SCORE.INTRA.REPUL.0>
0

>  <SCORE.INTRA.SOLV>
6.43167

>  <SCORE.INTRA.SOLV.lig_0>
-73.062

>  <SCORE.INTRA.VDW>
2.04796

>  <SCORE.INTRA.VDW.0>
-1.83782

>  <SCORE.INTRA.norm>
0.211985

>  <SCORE.RESTR>
2.53942

>  <SCORE.RESTR.CAVITY>
2.53942

>  <SCORE.RESTR.norm>
0.115428

>  <SCORE.SYSTEM>
0

>  <SCORE.SYSTEM.CONST>
0

>  <SCORE.SYSTEM.DIHEDRAL>
0

>  <SCORE.SYSTEM.SOLV>
0

>  <SCORE.SYSTEM.norm>
0

>  <SCORE.heavy>
22

>  <SCORE.norm>
0.408293

>  <RMSD>
23.855

$$$$
ligand
 OpenBabel02271912143D
libRbt.so/2013.1/901 2013/11/27
 22 23  0  0  0  0  0  0  0  0999 V2000
  -10.6051   -9.7705   -8.0294 N   0  0  0  0  0  0  0  0  0  0  0  0
  -11.9834  -10.3351   -4.9906 C   0  0  1  0  0  0  0  0  0  0  0  0
  -11.0579   -9.5350   -5.7801 O   0  0  0  0  0  0  0  0  0  0  0  0
  -12.6400  -11.7114   -2.5231 P   0  0  1  0  0  0  0  0  0  0  0  0
  -11.5818   -9.4361   -7.1143 C   0  0  2  0  0  0  0  0  0  0  0  0
   -9.2540   -9.6549   -9.7242 N   0  0  0  0  0  0  0  0  0  0  0  0
  -13.5685  -10.1772   -8.2096 O   0  0  0  0  0  0  0  0  0  0  0  0
  -12.6106  -10.4973   -7.1940 C   0  0  2  0  0  0  0  0  0  0  0  0
   -6.8905  -12.0082   -8.5651 N   0  0  0  0  0  0  0  0  0  0  0  0
  -14.0347   -9.4035   -5.6376 O   0  0  0  0  0  0  0  0  0  0  0  0
  -13.1717  -10.5334   -5.8490 C   0  0  2  0  0  0  0  0  0  0  0  0
   -8.9950  -10.7909   -9.0586 C   0  0  0  0  0  0  0  0  0  0  0  0
   -9.8786  -11.8987   -7.0201 N   0  0  0  0  0  0  0  0  0  0  0  0
  -12.1908  -12.3334   -3.8906 O   0  0  0  0  0  0  0  0  0  0  0  0
  -11.3024  -11.6267   -4.6937 C   0  0  0  0  0  0  0  0  0  0  0  0
  -11.2802  -11.2913   -1.8560 O   0  0  0  0  0  0  0  0  0  0  0  0
  -10.2591   -9.0258   -9.0859 C   0  0  0  0  0  0  0  0  0  0  0  0
   -8.0550  -12.4141  -10.4794 O   0  0  0  0  0  0  0  0  0  0  0  0
   -7.9715  -11.7882   -9.4229 C   0  0  0  0  0  0  0  0  0  0  0  0
   -9.8397  -10.8693   -7.9883 C   0  0  0  0  0  0  0  0  0  0  0  0
  -13.5840  -10.5820   -2.7708 O   0  5  0  0  0  0  0  0  0  0  0  0
  -13.4949  -12.6522   -1.7770 O   0  0  0  0  0  0  0  0  0  0  0  0
  1 17  1  0  0  0  0
  1 20  1  0  0  0  0
  2 15  1  6  0  0  0
  2  3  1  0  0  0  0
  2 11  1  0  0  0  0
  3  5  1  0  0  0  0
  4 16  1  1  0  0  0
  4 21  1  0  0  0  0
  4 22  2  0  0  0  0
  4 14  1  0  0  0  0
  5  1  1  6  0  0  0
  5  8  1  0  0  0  0
  6 17  2  0  0  0  0
  6 12  1  0  0  0  0
  8  7  1  6  0  0  0
  8 11  1  0  0  0  0
  9 19  1  0  0  0  0
 11 10  1  6  0  0  0
 12 20  2  0  0  0  0
 12 19  1  0  0  0  0
 13 20  1  0  0  0  0
 14 15  1  0  0  0  0
 18 19  2  0  0  0  0
M  CHG  1  21  -1
M  END
>  <CHROM.1>
-128.70141348,177.35431776,-49.38300084,-59.44740567,115.10988696,-11.26238630
-10.90195238,-6.11226335,0.92227335,0.50875539,-1.14751046

>  <Name>
ligand

>  <RI>
0

>  <Rbt.Current_Directory>
/home/itssahil/PROJECTS/Mol_Feturizer/Test_systems_manuscript/rnas/4xwf

>  <Rbt.Executable>
rbdock ($Id: //depot/dev/client3/rdock/2013.1/src/exe/rbdock.cxx#4 $)

>  <Rbt.Library>
libRbt.so (2013.1, Build901 2013/11/27)

>  <Rbt.Parameter_File>
/export/apps/rDock/src/rDock_2013.1_src/data/scripts/dock_solv.prm

>  <Rbt.Receptor>
prm/blind_docking_20.prm

>  <SCORE>
8.23655

>  <SCORE.INTER>
1.06596

>  <SCORE.INTER.CONST>
1

>  <SCORE.INTER.POLAR>
0

>  <SCORE.INTER.ROT>
5

>  <SCORE.INTER.SOLV>
21.9547

>  <SCORE.INTER.VDW>
-13.5409

>  <SCORE.INTER.norm>
0.0484529

>  <SCORE.INTRA>
4.63328

>  <SCORE.INTRA.DIHEDRAL>
-1.77422

>  <SCORE.INTRA.DIHEDRAL.0>
3.49807

>  <SCORE.INTRA.POLAR>
0

>  <SCORE.INTRA.POLAR.0>
0

>  <SCORE.INTRA.REPUL>
0

>  <SCORE.INTRA.REPUL.0>
0

>  <SCORE.INTRA.SOLV>
7.8587

>  <SCORE.INTRA.SOLV.lig_0>
-73.062

>  <SCORE.INTRA.VDW>
1.59104

>  <SCORE.INTRA.VDW.0>
-1.83782

>  <SCORE.INTRA.norm>
0.210604

>  <SCORE.RESTR>
2.53731

>  <SCORE.RESTR.CAVITY>
2.53731

>  <SCORE.RESTR.norm>
0.115332

>  <SCORE.SYSTEM>
0

>  <SCORE.SYSTEM.CONST>
0

>  <SCORE.SYSTEM.DIHEDRAL>
0

>  <SCORE.SYSTEM.SOLV>
0

>  <SCORE.SYSTEM.norm>
0

>  <SCORE.heavy>
22

>  <SCORE.norm>
0.374389

>  <RMSD>
23.928

$$$$
ligand
 OpenBabel02271912143D
libRbt.so/2013.1/901 2013/11/27
 22 23  0  0  0  0  0  0  0  0999 V2000
  -10.2423   -9.8732   -8.1377 N   0  0  0  0  0  0  0  0  0  0  0  0
  -12.6585  -10.9467   -6.0253 C   0  0  1  0  0  0  0  0  0  0  0  0
  -11.6803   -9.9136   -6.3348 O   0  0  0  0  0  0  0  0  0  0  0  0
  -12.1553  -11.3121   -3.0085 P   0  0  1  0  0  0  0  0  0  0  0  0
  -11.5693   -9.8201   -7.7643 C   0  0  2  0  0  0  0  0  0  0  0  0
   -8.2535   -9.2488   -8.7426 N   0  0  0  0  0  0  0  0  0  0  0  0
  -12.6525  -10.8659   -9.6160 O   0  0  0  0  0  0  0  0  0  0  0  0
  -12.1967  -11.0608   -8.2721 C   0  0  2  0  0  0  0  0  0  0  0  0
   -7.1371  -12.7885   -8.3421 N   0  0  0  0  0  0  0  0  0  0  0  0
  -14.3625  -10.4095   -7.5426 O   0  0  0  0  0  0  0  0  0  0  0  0
  -13.2704  -11.3173   -7.3201 C   0  0  2  0  0  0  0  0  0  0  0  0
   -8.2432  -10.5808   -8.5805 C   0  0  0  0  0  0  0  0  0  0  0  0
   -9.8978  -12.3024   -7.9007 N   0  0  0  0  0  0  0  0  0  0  0  0
  -11.2952  -11.5707   -4.2937 O   0  0  0  0  0  0  0  0  0  0  0  0
  -11.9136  -12.0896   -5.4261 C   0  0  0  0  0  0  0  0  0  0  0  0
  -11.0995  -10.7856   -1.9699 O   0  0  0  0  0  0  0  0  0  0  0  0
   -9.4986   -8.8125   -8.4726 C   0  0  0  0  0  0  0  0  0  0  0  0
   -6.0593  -11.0407   -9.3264 O   0  0  0  0  0  0  0  0  0  0  0  0
   -7.0802  -11.4642   -8.7847 C   0  0  0  0  0  0  0  0  0  0  0  0
   -9.4913  -10.9811   -8.1967 C   0  0  0  0  0  0  0  0  0  0  0  0
  -13.2503  -10.3475   -3.3225 O   0  5  0  0  0  0  0  0  0  0  0  0
  -12.9203  -12.5171   -2.6406 O   0  0  0  0  0  0  0  0  0  0  0  0
  1 17  1  0  0  0  0
  1 20  1  0  0  0  0
  2 15  1  6  0  0  0
  2  3  1  0  0  0  0
  2 11  1  0  0  0  0
  3  5  1  0  0  0  0
  4 16  1  1  0  0  0
  4 21  1  0  0  0  0
  4 22  2  0  0  0  0
  4 14  1  0  0  0  0
  5  1  1  1  0  0  0
  5  8  1  0  0  0  0
  6 17  2  0  0  0  0
  6 12  1  0  0  0  0
  8  7  1  6  0  0  0
  8 11  1  0  0  0  0
  9 19  1  0  0  0  0
 11 10  1  6  0  0  0
 12 20  2  0  0  0  0
 12 19  1  0  0  0  0
 13 20  1  0  0  0  0
 14 15  1  0  0  0  0
 18 19  2  0  0  0  0
M  CHG  1  21  -1
M  END
>  <CHROM.1>
-101.10488922,59.50863753,178.17078814,76.35799431,168.01915646,-10.91761868
-10.94546936,-6.51773527,0.87983914,0.12590160,-1.38618613

>  <Name>
ligand

>  <RI>
0

>  <Rbt.Current_Directory>
/home/itssahil/PROJECTS/Mol_Feturizer/Test_systems_manuscript/rnas/4xwf

>  <Rbt.Executable>
rbdock ($Id: //depot/dev/client3/rdock/2013.1/src/exe/rbdock.cxx#4 $)

>  <Rbt.Library>
libRbt.so (2013.1, Build901 2013/11/27)

>  <Rbt.Parameter_File>
/export/apps/rDock/src/rDock_2013.1_src/data/scripts/dock_solv.prm

>  <Rbt.Receptor>
prm/blind_docking_20.prm

>  <SCORE>
9.39749

>  <SCORE.INTER>
0.115149

>  <SCORE.INTER.CONST>
1

>  <SCORE.INTER.POLAR>
0

>  <SCORE.INTER.ROT>
5

>  <SCORE.INTER.SOLV>
22.8457

>  <SCORE.INTER.VDW>
-14.4718

>  <SCORE.INTER.norm>
0.00523406

>  <SCORE.INTRA>
5.81752

>  <SCORE.INTRA.DIHEDRAL>
0.751608

>  <SCORE.INTRA.DIHEDRAL.0>
3.49807

>  <SCORE.INTRA.POLAR>
0

>  <SCORE.INTRA.POLAR.0>
0

>  <SCORE.INTRA.REPUL>
0

>  <SCORE.INTRA.REPUL.0>
0

>  <SCORE.INTRA.SOLV>
7.73956

>  <SCORE.INTRA.SOLV.lig_0>
-73.062

>  <SCORE.INTRA.VDW>
1.57194

>  <SCORE.INTRA.VDW.0>
-1.83782

>  <SCORE.INTRA.norm>
0.264433

>  <SCORE.RESTR>
3.46482

>  <SCORE.RESTR.CAVITY>
3.46482

>  <SCORE.RESTR.norm>
0.157492

>  <SCORE.SYSTEM>
0

>  <SCORE.SYSTEM.CONST>
0

>  <SCORE.SYSTEM.DIHEDRAL>
0

>  <SCORE.SYSTEM.SOLV>
0

>  <SCORE.SYSTEM.norm>
0

>  <SCORE.heavy>
22

>  <SCORE.norm>
0.427159

>  <RMSD>
24.135

$$$$
ligand
 OpenBabel02271912143D
libRbt.so/2013.1/901 2013/11/27
 22 23  0  0  0  0  0  0  0  0999 V2000
  -13.5675  -21.5204   -1.8740 N   0  0  0  0  0  0  0  0  0  0  0  0
  -12.8989  -19.0186   -4.0527 C   0  0  1  0  0  0  0  0  0  0  0  0
  -13.7482  -20.1546   -3.7238 O   0  0  0  0  0  0  0  0  0  0  0  0
  -10.9362  -20.9777   -6.6200 P   0  0  1  0  0  0  0  0  0  0  0  0
  -13.8476  -20.2361   -2.2928 C   0  0  2  0  0  0  0  0  0  0  0  0
  -13.8251  -23.5168   -1.0622 N   0  0  0  0  0  0  0  0  0  0  0  0
  -13.0453  -18.9276   -0.4652 O   0  0  0  0  0  0  0  0  0  0  0  0
  -12.7474  -19.3830   -1.7902 C   0  0  2  0  0  0  0  0  0  0  0  0
  -11.0373  -25.0227   -2.5805 N   0  0  0  0  0  0  0  0  0  0  0  0
  -13.7578  -17.3908   -2.6011 O   0  0  0  0  0  0  0  0  0  0  0  0
  -12.6670  -18.3108   -2.7746 C   0  0  2  0  0  0  0  0  0  0  0  0
  -12.5572  -23.3967   -1.4850 C   0  0  0  0  0  0  0  0  0  0  0  0
  -11.2057  -21.6205   -2.5721 N   0  0  0  0  0  0  0  0  0  0  0  0
  -11.9714  -20.0793   -5.8585 O   0  0  0  0  0  0  0  0  0  0  0  0
  -11.6311  -19.5670   -4.6113 C   0  0  0  0  0  0  0  0  0  0  0  0
   -9.7955  -19.9661   -7.0020 O   0  0  0  0  0  0  0  0  0  0  0  0
  -14.4490  -22.3472   -1.2996 C   0  0  0  0  0  0  0  0  0  0  0  0
  -11.0898  -24.8150   -0.3134 O   0  0  0  0  0  0  0  0  0  0  0  0
  -11.5201  -24.4420   -1.4047 C   0  0  0  0  0  0  0  0  0  0  0  0
  -12.3882  -22.1433   -2.0003 C   0  0  0  0  0  0  0  0  0  0  0  0
  -10.4999  -22.0996   -5.7375 O   0  5  0  0  0  0  0  0  0  0  0  0
  -11.5885  -21.7064   -7.7227 O   0  0  0  0  0  0  0  0  0  0  0  0
  1 17  1  0  0  0  0
  1 20  1  0  0  0  0
  2 15  1  1  0  0  0
  2  3  1  0  0  0  0
  2 11  1  0  0  0  0
  3  5  1  0  0  0  0
  4 16  1  6  0  0  0
  4 21  1  0  0  0  0
  4 22  2  0  0  0  0
  4 14  1  0  0  0  0
  5  1  1  6  0  0  0
  5  8  1  0  0  0  0
  6 17  2  0  0  0  0
  6 12  1  0  0  0  0
  8  7  1  1  0  0  0
  8 11  1  0  0  0  0
  9 19  1  0  0  0  0
 11 10  1  1  0  0  0
 12 20  2  0  0  0  0
 12 19  1  0  0  0  0
 13 20  1  0  0  0  0
 14 15  1  0  0  0  0
 18 19  2  0  0  0  0
M  CHG  1  21  -1
M  END
>  <CHROM.1>
-113.95810278,70.67919250,-68.82648781,-168.57154458,112.21258299,-12.20020794
-21.14963988,-3.44586395,2.09602027,-1.05886716,2.47714623

>  <Name>
ligand

>  <RI>
0

>  <Rbt.Current_Directory>
/home/itssahil/PROJECTS/Mol_Feturizer/Test_systems_manuscript/rnas/4xwf

>  <Rbt.Executable>
rbdock ($Id: //depot/dev/client3/rdock/2013.1/src/exe/rbdock.cxx#4 $)

>  <Rbt.Library>
libRbt.so (2013.1, Build901 2013/11/27)

>  <Rbt.Parameter_File>
/export/apps/rDock/src/rDock_2013.1_src/data/scripts/dock_solv.prm

>  <Rbt.Receptor>
prm/blind_docking_40.prm

>  <SCORE>
-0.439656

>  <SCORE.INTER>
-3.34607

>  <SCORE.INTER.CONST>
1

>  <SCORE.INTER.POLAR>
0

>  <SCORE.INTER.ROT>
5

>  <SCORE.INTER.SOLV>
16.155

>  <SCORE.INTER.VDW>
-14.5491

>  <SCORE.INTER.norm>
-0.152094

>  <SCORE.INTRA>
2.76235

>  <SCORE.INTRA.DIHEDRAL>
-0.73383

>  <SCORE.INTRA.DIHEDRAL.0>
3.49807

>  <SCORE.INTRA.POLAR>
0

>  <SCORE.INTRA.POLAR.0>
0

>  <SCORE.INTRA.REPUL>
0

>  <SCORE.INTRA.REPUL.0>
0

>  <SCORE.INTRA.SOLV>
6.6513

>  <SCORE.INTRA.SOLV.lig_0>
-73.062

>  <SCORE.INTRA.VDW>
-0.196384

>  <SCORE.INTRA.VDW.0>
-1.83782

>  <SCORE.INTRA.norm>
0.125562

>  <SCORE.RESTR>
0.144062

>  <SCORE.RESTR.CAVITY>
0.144062

>  <SCORE.RESTR.norm>
0.00654828

>  <SCORE.SYSTEM>
0

>  <SCORE.SYSTEM.CONST>
0

>  <SCORE.SYSTEM.DIHEDRAL>
0

>  <SCORE.SYSTEM.SOLV>
0

>  <SCORE.SYSTEM.norm>
0

>  <SCORE.heavy>
22

>  <SCORE.norm>
-0.0199844

>  <RMSD>
31.327

$$$$
