@<TRIPOS>MOLECULE
4xwf_rdock.pdb
 1379 1543 0 0 0
SMALL
GASTEIGER

@<TRIPOS>ATOM
      1  P         -7.5230   -8.4880   -5.8740 P.3     1  G1          0.1280
      2  C5'       -5.1930   -7.7170   -6.7870 C.3     1  G1          0.1795
      3  O5'       -6.0580   -8.7830   -6.4270 O.3     1  G1         -0.3259
      4  C4'       -4.0480   -8.1790   -7.6550 C.3     1  G1          0.1772
      5  O4'       -3.2910   -9.2210   -6.9790 O.3     1  G1         -0.3307
      6  C3'       -4.4060   -8.8060   -8.9940 C.3     1  G1          0.1860
      7  O3'       -4.7680   -7.8580   -9.9870 O.3     1  G1         -0.3112
      8  C2'       -3.1410   -9.5890   -9.3140 C.3     1  G1          0.2309
      9  O2'       -2.1030   -8.7090   -9.7160 O.3     1  G1         -0.2156
     10  C1'       -2.7830  -10.1330   -7.9300 C.3     1  G1          0.2408
     11  N1        -2.6350  -15.0350   -9.1650 N.ar    1  G1         -0.1709
     12  C2        -1.8620  -13.9890   -9.5830 C.ar    1  G1          0.2606
     13  N2        -0.8980  -14.2790  -10.4590 N.pl3   1  G1         -0.0859
     14  N3        -2.0080  -12.7510   -9.1670 N.ar    1  G1         -0.1918
     15  C4        -3.0150  -12.6300   -8.2920 C.ar    1  G1          0.1723
     16  C5        -3.8540  -13.6050   -7.8050 C.ar    1  G1          0.1748
     17  C6        -3.6840  -14.9410   -8.2580 C.ar    1  G1          0.3023
     18  O6        -4.3200  -15.9660   -7.9620 O.2     1  G1         -0.2633
     19  N7        -4.7660  -13.0490   -6.9210 N.ar    1  G1         -0.2173
     20  C8        -4.4600  -11.7810   -6.8840 C.ar    1  G1          0.1817
     21  N9        -3.3970  -11.4570   -7.6960 N.ar    1  G1         -0.2693
     22  OP1       -8.2770   -9.7640   -5.9900 O.3     1  G1         -0.1955
     23  OP2       -7.3930   -7.7640   -4.5800 O.co2   1  G1         -0.7863
     24  P         -5.7460   -8.2590  -11.2080 P.3     2  G2          0.2141
     25  C5'       -3.8180   -8.8250  -12.8610 C.3     2  G2          0.1812
     26  O5'       -4.8880   -9.2910  -12.0590 O.3     2  G2         -0.3114
     27  C4'       -3.1550   -9.9420  -13.6150 C.3     2  G2          0.1773
     28  O4'       -2.6110  -10.9090  -12.6840 O.3     2  G2         -0.3307
     29  C3'       -4.0490  -10.7730  -14.5170 C.3     2  G2          0.1860
     30  O3'       -4.3280  -10.1390  -15.7490 O.3     2  G2         -0.3112
     31  C2'       -3.2460  -12.0570  -14.6540 C.3     2  G2          0.2309
     32  O2'       -2.1480  -11.8710  -15.5330 O.3     2  G2         -0.2156
     33  C1'       -2.6990  -12.2030  -13.2350 C.3     2  G2          0.2408
     34  N1        -4.4930  -16.8200  -12.2710 N.ar    2  G2         -0.1709
     35  C2        -3.5270  -16.4180  -13.1630 C.ar    2  G2          0.2606
     36  N2        -2.9580  -17.3540  -13.9280 N.pl3   2  G2         -0.0859
     37  N3        -3.1480  -15.1710  -13.3180 N.ar    2  G2         -0.1918
     38  C4        -3.8080  -14.3450  -12.4920 C.ar    2  G2          0.1723
     39  C5        -4.7730  -14.6360  -11.5640 C.ar    2  G2          0.1748
     40  C6        -5.1780  -15.9760  -11.4040 C.ar    2  G2          0.3023
     41  O6        -6.0280  -16.4110  -10.6190 O.2     2  G2         -0.2633
     42  N7        -5.1980  -13.4900  -10.9070 N.ar    2  G2         -0.2173
     43  C8        -4.4940  -12.5310  -11.4480 C.ar    2  G2          0.1817
     44  N9        -3.6260  -12.9900  -12.4070 N.ar    2  G2         -0.2693
     45  OP1       -5.9110   -7.0340  -12.0270 O.2     2  G2         -0.5172
     46  OP2       -6.9810   -8.9180  -10.7220 O.co2   2  G2         -0.4373
     47  P         -5.7240  -10.3820  -16.5130 P.3     3  G3          0.2141
     48  C5'       -4.6760  -12.3010  -17.9360 C.3     3  G3          0.1812
     49  O5'       -5.6600  -11.8920  -17.0040 O.3     3  G3         -0.3114
     50  C4'       -4.6860  -13.7930  -18.1570 C.3     3  G3          0.1773
     51  O4'       -4.3460  -14.4860  -16.9290 O.3     3  G3         -0.3307
     52  C3'       -6.0080  -14.4220  -18.5680 C.3     3  G3          0.1860
     53  O3'       -6.3340  -14.2090  -19.9330 O.3     3  G3         -0.3112
     54  C2'       -5.7840  -15.8830  -18.2060 C.3     3  G3          0.2309
     55  O2'       -4.9490  -16.5090  -19.1630 O.3     3  G3         -0.2156
     56  C1'       -4.9900  -15.7430  -16.9040 C.3     3  G3          0.2408
     57  N1        -7.6530  -18.7980  -13.9480 N.ar    3  G3         -0.1709
     58  C2        -6.8720  -19.0770  -15.0370 C.ar    3  G3          0.2606
     59  N2        -6.7710  -20.3540  -15.4070 N.pl3   3  G3         -0.0859
     60  N3        -6.2230  -18.1730  -15.7230 N.ar    3  G3         -0.1918
     61  C4        -6.4260  -16.9410  -15.2230 C.ar    3  G3          0.1723
     62  C5        -7.1890  -16.5500  -14.1490 C.ar    3  G3          0.1748
     63  C6        -7.8810  -17.5470  -13.4100 C.ar    3  G3          0.3023
     64  O6        -8.6180  -17.4170  -12.4230 O.2     3  G3         -0.2633
     65  N7        -7.1250  -15.1790  -13.9780 N.ar    3  G3         -0.2173
     66  C8        -6.3330  -14.7730  -14.9390 C.ar    3  G3          0.1817
     67  N9        -5.8740  -15.7970  -15.7270 N.ar    3  G3         -0.2693
     68  OP1       -5.6530   -9.5290  -17.7240 O.2     3  G3         -0.5172
     69  OP2       -6.8580  -10.2460  -15.5770 O.co2   3  G3         -0.4373
     70  P         -7.8660  -13.9770  -20.3770 P.3     4  U4          0.2141
     71  C5'       -7.9030  -16.4170  -21.2960 C.3     4  U4          0.1812
     72  O5'       -8.4710  -15.4450  -20.4380 O.3     4  U4         -0.3114
     73  C4'       -8.3950  -17.7960  -20.9560 C.3     4  U4          0.1773
     74  O4'       -7.9460  -18.1710  -19.6250 O.3     4  U4         -0.3307
     75  C3'       -9.8980  -17.9640  -20.8740 C.3     4  U4          0.1860
     76  O3'      -10.5360  -18.0320  -22.1330 O.3     4  U4         -0.3112
     77  C2'      -10.0210  -19.2290  -20.0440 C.3     4  U4          0.2309
     78  O2'       -9.6860  -20.3690  -20.8190 O.3     4  U4         -0.2156
     79  C1'       -8.9100  -19.0090  -19.0210 C.3     4  U4          0.2420
     80  N1        -9.4400  -18.3560  -17.8060 N.ar    4  U4         -0.2534
     81  C2       -10.1370  -19.1800  -16.9620 C.ar    4  U4          0.3546
     82  O2       -10.2810  -20.3600  -17.1950 O.2     4  U4         -0.2443
     83  N3       -10.6500  -18.5890  -15.8430 N.ar    4  U4         -0.1530
     84  C4       -10.5360  -17.2630  -15.4880 C.ar    4  U4          0.2846
     85  O4       -11.0630  -16.8830  -14.4480 O.2     4  U4         -0.2650
     86  C5        -9.8030  -16.4610  -16.4130 C.ar    4  U4          0.0814
     87  C6        -9.2960  -17.0200  -17.5200 C.ar    4  U4          0.0870
     88  OP1       -7.8460  -13.4680  -21.7770 O.2     4  U4         -0.5172
     89  OP2       -8.6020  -13.2460  -19.3140 O.co2   4  U4         -0.4373
     90  P        -12.0000  -17.3920  -22.3180 P.3     5  C5          0.2141
     91  C5'      -12.8900  -19.8310  -22.1040 C.3     5  C5          0.1812
     92  O5'      -12.9600  -18.4820  -21.6770 O.3     5  C5         -0.3114
     93  C4'      -13.6750  -20.7200  -21.1850 C.3     5  C5          0.1773
     94  O4'      -13.0550  -20.7450  -19.8760 O.3     5  C5         -0.3307
     95  C3'      -15.0980  -20.2750  -20.9110 C.3     5  C5          0.1860
     96  O3'      -15.9820  -20.6290  -21.9630 O.3     5  C5         -0.3112
     97  C2'      -15.4020  -20.9500  -19.5790 C.3     5  C5          0.2309
     98  O2'      -15.7090  -22.3230  -19.7640 O.3     5  C5         -0.2156
     99  C1'      -14.0470  -20.8550  -18.8770 C.3     5  C5          0.2420
    100  N1       -13.9610  -19.6770  -17.9800 N.ar    5  C5         -0.2535
    101  C2       -14.4110  -19.8100  -16.6710 C.ar    5  C5          0.3532
    102  O2       -14.8590  -20.9060  -16.3150 O.2     5  C5         -0.2443
    103  N3       -14.3490  -18.7600  -15.8210 N.ar    5  C5         -0.1739
    104  C4       -13.8500  -17.6000  -16.2470 C.ar    5  C5          0.1759
    105  N4       -13.8020  -16.5850  -15.3820 N.pl3   5  C5         -0.1070
    106  C5       -13.3840  -17.4230  -17.5810 C.ar    5  C5          0.0566
    107  C6       -13.4560  -18.4780  -18.4070 C.ar    5  C5          0.0850
    108  OP1      -12.3100  -17.3520  -23.7700 O.2     5  C5         -0.5172
    109  OP2      -12.0880  -16.1530  -21.5120 O.co2   5  C5         -0.4373
    110  P        -17.4460  -19.9790  -22.0630 P.3     6  G6          0.2141
    111  C5'      -19.2480  -20.0380  -20.1700 C.3     6  G6          0.1812
    112  O5'      -18.2570  -20.7220  -20.9130 O.3     6  G6         -0.3114
    113  C4'      -19.4480  -20.6690  -18.8190 C.3     6  G6          0.1773
    114  O4'      -18.2510  -20.4970  -18.0170 O.3     6  G6         -0.3307
    115  C3'      -20.5520  -20.0580  -17.9760 C.3     6  G6          0.1860
    116  O3'      -21.8270  -20.5690  -18.3020 O.3     6  G6         -0.3112
    117  C2'      -20.1210  -20.3990  -16.5630 C.3     6  G6          0.2309
    118  O2'      -20.4630  -21.7350  -16.2470 O.3     6  G6         -0.2156
    119  C1'      -18.6020  -20.2800  -16.6700 C.3     6  G6          0.2408
    120  N1       -18.2350  -16.8250  -12.9740 N.ar    6  G6         -0.1709
    121  C2       -18.7760  -18.0880  -12.9440 C.ar    6  G6          0.2606
    122  N2       -19.2880  -18.4790  -11.7750 N.pl3   6  G6         -0.0859
    123  N3       -18.8110  -18.8990  -13.9770 N.ar    6  G6         -0.1918
    124  C4       -18.2650  -18.3390  -15.0700 C.ar    6  G6          0.1723
    125  C5       -17.7000  -17.0920  -15.2080 C.ar    6  G6          0.1748
    126  C6       -17.6560  -16.2310  -14.0840 C.ar    6  G6          0.3023
    127  O6       -17.2150  -15.0800  -14.0040 O.2     6  G6         -0.2633
    128  N7       -17.2440  -16.9020  -16.4940 N.ar    6  G6         -0.2173
    129  C8       -17.5340  -18.0160  -17.1050 C.ar    6  G6          0.1817
    130  N9       -18.1470  -18.9280  -16.2950 N.ar    6  G6         -0.2693
    131  OP1      -17.9910  -20.4000  -23.3780 O.2     6  G6         -0.5172
    132  OP2      -17.4140  -18.5380  -21.7210 O.co2   6  G6         -0.4373
    133  P        -23.0780  -19.5950  -18.5110 P.3     7  U7          0.2141
    134  C5'      -23.8290  -20.0310  -16.0390 C.3     7  U7          0.1812
    135  O5'      -23.4670  -19.1020  -17.0480 O.3     7  U7         -0.3114
    136  C4'      -23.6890  -19.4100  -14.6790 C.3     7  U7          0.1773
    137  O4'      -22.3180  -19.0020  -14.4700 O.3     7  U7         -0.3307
    138  C3'      -24.4790  -18.1350  -14.4750 C.3     7  U7          0.1860
    139  O3'      -25.8280  -18.3810  -14.1720 O.3     7  U7         -0.3112
    140  C2'      -23.7200  -17.4500  -13.3440 C.3     7  U7          0.2309
    141  O2'      -24.0440  -18.0360  -12.1000 O.3     7  U7         -0.2156
    142  C1'      -22.2890  -17.8170  -13.6810 C.3     7  U7          0.2420
    143  N1       -21.5800  -16.7480  -14.4190 N.ar    7  U7         -0.2534
    144  C2       -21.1510  -15.6600  -13.6690 C.ar    7  U7          0.3546
    145  O2       -21.4020  -15.5380  -12.4870 O.2     7  U7         -0.2443
    146  N3       -20.4670  -14.7180  -14.3750 N.ar    7  U7         -0.1530
    147  C4       -20.1750  -14.7440  -15.7150 C.ar    7  U7          0.2846
    148  O4       -19.5420  -13.8170  -16.2140 O.2     7  U7         -0.2650
    149  C5       -20.6320  -15.9080  -16.4290 C.ar    7  U7          0.0814
    150  C6       -21.3080  -16.8390  -15.7540 C.ar    7  U7          0.0870
    151  OP1      -24.1790  -20.4670  -18.9840 O.3     7  U7         -0.4373
    152  OP2      -22.6600  -18.4400  -19.3300 O.co2   7  U7         -0.5172
    153  P        -26.9450  -17.3030  -14.5580 P.3     8  G8          0.2141
    154  C5'      -26.5580  -16.0250  -12.2510 C.3     8  G8          0.1812
    155  O5'      -26.5770  -16.0110  -13.6770 O.3     8  G8         -0.3114
    156  C4'      -25.9860  -14.7340  -11.7030 C.3     8  G8          0.1773
    157  O4'      -24.5780  -14.6090  -12.0430 O.3     8  G8         -0.3307
    158  C3'      -26.6110  -13.4630  -12.2550 C.3     8  G8          0.1860
    159  O3'      -27.8010  -13.1480  -11.5640 O.3     8  G8         -0.3112
    160  C2'      -25.5100  -12.4370  -12.0420 C.3     8  G8          0.2309
    161  O2'      -25.4450  -12.0900  -10.6700 O.3     8  G8         -0.2156
    162  C1'      -24.2730  -13.2650  -12.3500 C.3     8  G8          0.2408
    163  N1       -21.2970  -10.9150  -15.7770 N.ar    8  G8         -0.1709
    164  C2       -21.4560  -10.6540  -14.4450 C.ar    8  G8          0.2606
    165  N2       -20.7160   -9.6360  -13.9670 N.pl3   8  G8         -0.0859
    166  N3       -22.2690  -11.3180  -13.6410 N.ar    8  G8         -0.1918
    167  C4       -22.9300  -12.2990  -14.3020 C.ar    8  G8          0.1723
    168  C5       -22.8360  -12.6380  -15.6360 C.ar    8  G8          0.1748
    169  C6       -21.9620  -11.9100  -16.4730 C.ar    8  G8          0.3023
    170  O6       -21.7410  -12.0640  -17.6790 O.2     8  G8         -0.2633
    171  N7       -23.6700  -13.7050  -15.9370 N.ar    8  G8         -0.2173
    172  C8       -24.2440  -13.9880  -14.8000 C.ar    8  G8          0.1817
    173  N9       -23.8370  -13.1780  -13.7620 N.ar    8  G8         -0.2693
    174  OP1      -28.2430  -17.8420  -14.0970 O.3     8  G8         -0.4373
    175  OP2      -26.7070  -16.9230  -15.9690 O.co2   8  G8         -0.5172
    176  P        -29.0070  -12.3880  -12.2980 P.3     9  A9          0.2141
    177  C5'      -29.8920  -11.7350   -9.9200 C.3     9  A9          0.1812
    178  O5'      -29.4870  -11.3170  -11.2130 O.3     9  A9         -0.3114
    179  C4'      -29.2880  -10.8770   -8.8440 C.3     9  A9          0.1773
    180  O4'      -27.8560  -10.7900   -9.0150 O.3     9  A9         -0.3307
    181  C3'      -29.7310   -9.4270   -8.8180 C.3     9  A9          0.1860
    182  O3'      -30.9930   -9.2570   -8.2150 O.3     9  A9         -0.3112
    183  C2'      -28.6040   -8.7590   -8.0530 C.3     9  A9          0.2309
    184  O2'      -28.7100   -9.0610   -6.6670 O.3     9  A9         -0.2156
    185  C1'      -27.4020   -9.5290   -8.5710 C.3     9  A9          0.2408
    186  N1       -24.0970   -5.7860  -10.0760 N.ar    9  A9         -0.2040
    187  C2       -24.6950   -6.0330   -8.9120 C.ar    9  A9          0.2016
    188  N3       -25.5440   -7.0040   -8.5760 N.ar    9  A9         -0.2048
    189  C4       -25.8170   -7.7900   -9.6160 C.ar    9  A9          0.1692
    190  C5       -25.3020   -7.6470  -10.8950 C.ar    9  A9          0.1518
    191  C6       -24.4020   -6.5980  -11.1180 C.ar    9  A9          0.1919
    192  N6       -23.8430   -6.3680  -12.3040 N.pl3   9  A9         -0.1054
    193  N7       -25.8020   -8.6260  -11.7320 N.ar    9  A9         -0.2193
    194  C8       -26.5900   -9.3270  -10.9530 C.ar    9  A9          0.1816
    195  N9       -26.6590   -8.8760   -9.6700 N.ar    9  A9         -0.2693
    196  OP1      -30.1130  -13.3560  -12.4710 O.3     9  A9         -0.4373
    197  OP2      -28.4490  -11.6560  -13.4570 O.co2   9  A9         -0.5172
    198  P        -32.1670   -8.4410   -8.9330 P.3    10  C10         0.2141
    199  C5'      -30.9240   -6.2070   -8.3200 C.3    10  C10         0.1812
    200  O5'      -31.5040   -7.0400   -9.3080 O.3    10  C10        -0.3114
    201  C4'      -29.9480   -5.2470   -8.9480 C.3    10  C10         0.1773
    202  O4'      -28.8210   -5.9470   -9.5280 O.3    10  C10        -0.3307
    203  C3'      -30.4800   -4.4160  -10.1040 C.3    10  C10         0.1860
    204  O3'      -31.2590   -3.3370   -9.6410 O.3    10  C10        -0.3112
    205  C2'      -29.2000   -3.9730  -10.7870 C.3    10  C10         0.2309
    206  O2'      -28.5770   -2.9650  -10.0100 O.3    10  C10        -0.2156
    207  C1'      -28.3550   -5.2340  -10.6630 C.3    10  C10         0.2420
    208  N1       -28.4550   -6.0790  -11.8830 N.ar   10  C10        -0.2535
    209  C2       -27.5890   -5.7890  -12.9530 C.ar   10  C10         0.3532
    210  O2       -26.7790   -4.8680  -12.8410 O.2    10  C10        -0.2443
    211  N3       -27.6120   -6.5200  -14.1050 N.ar   10  C10        -0.1739
    212  C4       -28.4930   -7.5020  -14.2000 C.ar   10  C10         0.1759
    213  N4       -28.5020   -8.1860  -15.3460 N.pl3  10  C10        -0.1070
    214  C5       -29.4000   -7.8130  -13.1400 C.ar   10  C10         0.0566
    215  C6       -29.3710   -7.0840  -12.0050 C.ar   10  C10         0.0850
    216  OP1      -33.1920   -8.2160   -7.9050 O.3    10  C10        -0.4373
    217  OP2      -32.5080   -8.9990  -10.2670 O.co2  10  C10        -0.5172
    218  P        -32.4050   -2.6700  -10.5260 P.3    11  U11         0.2141
    219  C5'      -31.9770   -1.9800  -13.0100 C.3    11  U11         0.1812
    220  O5'      -31.5780   -1.9150  -11.6510 O.3    11  U11        -0.3114
    221  C4'      -30.7820   -1.8900  -13.9170 C.3    11  U11         0.1773
    222  O4'      -30.1200   -3.1770  -14.0160 O.3    11  U11        -0.3307
    223  C3'      -31.0710   -1.5110  -15.3660 C.3    11  U11         0.1860
    224  O3'      -31.2750   -0.1150  -15.4790 O.3    11  U11        -0.3112
    225  C2'      -29.8240   -2.0260  -16.0890 C.3    11  U11         0.2309
    226  O2'      -28.7350   -1.1220  -15.9680 O.3    11  U11        -0.2156
    227  C1'      -29.5000   -3.2900  -15.2890 C.3    11  U11         0.2420
    228  N1       -29.9880   -4.5020  -15.9800 N.ar   11  U11        -0.2534
    229  C2       -29.2710   -4.8520  -17.1210 C.ar   11  U11         0.3546
    230  O2       -28.3100   -4.2230  -17.5470 O.2    11  U11        -0.2443
    231  N3       -29.7270   -5.9680  -17.7630 N.ar   11  U11        -0.1530
    232  C4       -30.7930   -6.7450  -17.4040 C.ar   11  U11         0.2846
    233  O4       -31.0550   -7.7180  -18.1090 O.2    11  U11        -0.2650
    234  C5       -31.4820   -6.3240  -16.2160 C.ar   11  U11         0.0814
    235  C6       -31.0650   -5.2300  -15.5550 C.ar   11  U11         0.0870
    236  OP1      -32.9740   -1.6210   -9.6270 O.3    11  U11        -0.4373
    237  OP2      -33.3330   -3.6330  -11.1310 O.co2  11  U11        -0.5172
    238  P        -31.9530    0.6040  -16.7560 P.3    12  G12         0.2141
    239  C5'      -34.3680    0.6870  -15.6780 C.3    12  G12         0.1812
    240  O5'      -33.2020    1.3650  -16.1120 O.3    12  G12        -0.3114
    241  C4'      -35.1430    1.5250  -14.6890 C.3    12  G12         0.1773
    242  O4'      -34.3770    1.6710  -13.4620 O.3    12  G12        -0.3307
    243  C3'      -35.4290    2.9630  -15.1100 C.3    12  G12         0.1860
    244  O3'      -36.5640    3.0620  -15.9480 O.3    12  G12        -0.3112
    245  C2'      -35.6270    3.6490  -13.7730 C.3    12  G12         0.2309
    246  O2'      -36.8810    3.2710  -13.2350 O.3    12  G12        -0.2156
    247  C1'      -34.5680    2.9610  -12.9290 C.3    12  G12         0.2408
    248  N1       -32.0280    7.1760  -11.4660 N.ar   12  G12        -0.1709
    249  C2       -33.3500    6.8720  -11.3340 C.ar   12  G12         0.2606
    250  N2       -34.0880    7.7950  -10.7060 N.pl3  12  G12        -0.0859
    251  N3       -33.9140    5.7430  -11.7330 N.ar   12  G12        -0.1918
    252  C4       -33.0250    4.9220  -12.3340 C.ar   12  G12         0.1723
    253  C5       -31.6880    5.1430  -12.5390 C.ar   12  G12         0.1748
    254  C6       -31.0930    6.3610  -12.0920 C.ar   12  G12         0.3023
    255  O6       -29.9130    6.7370  -12.1580 O.2    12  G12        -0.2633
    256  N7       -31.1260    4.0710  -13.2100 N.ar   12  G12        -0.2173
    257  C8       -32.0890    3.2250  -13.3930 C.ar   12  G12         0.1817
    258  N9       -33.2900    3.6830  -12.8990 N.ar   12  G12        -0.2693
    259  OP1      -32.4780   -0.3880  -17.7310 O.2    12  G12        -0.5172
    260  OP2      -30.9990    1.6670  -17.1250 O.co2  12  G12        -0.4373
    261  P        -36.7230    4.2780  -16.9930 P.3    13  G13         0.2141
    262  C5'      -38.0580    5.8870  -15.4440 C.3    13  G13         0.1812
    263  O5'      -36.8380    5.5790  -16.0900 O.3    13  G13        -0.3114
    264  C4'      -38.0430    7.2680  -14.8600 C.3    13  G13         0.1773
    265  O4'      -37.0760    7.3480  -13.7830 O.3    13  G13        -0.3307
    266  C3'      -37.6350    8.3900  -15.8010 C.3    13  G13         0.1860
    267  O3'      -38.7080    8.8000  -16.6220 O.3    13  G13        -0.3112
    268  C2'      -37.1900    9.4720  -14.8250 C.3    13  G13         0.2309
    269  O2'      -38.3320   10.0730  -14.2310 O.3    13  G13        -0.2156
    270  C1'      -36.5030    8.6390  -13.7500 C.3    13  G13         0.2408
    271  N1       -31.9130   10.8450  -13.3230 N.ar   13  G13        -0.1709
    272  C2       -33.1470   11.3300  -13.0020 C.ar   13  G13         0.2606
    273  N2       -33.1830   12.5660  -12.4960 N.pl3  13  G13        -0.0859
    274  N3       -34.2790   10.6770  -13.1480 N.ar   13  G13        -0.1918
    275  C4       -34.0750    9.4500  -13.6630 C.ar   13  G13         0.1723
    276  C5       -32.8810    8.8670  -14.0220 C.ar   13  G13         0.1748
    277  C6       -31.6750    9.5840  -13.8510 C.ar   13  G13         0.3023
    278  O6       -30.5060    9.2460  -14.0990 O.2    13  G13        -0.2633
    279  N7       -33.1110    7.5880  -14.5270 N.ar   13  G13        -0.2173
    280  C8       -34.3970    7.4320  -14.4740 C.ar   13  G13         0.1817
    281  N9       -35.0510    8.5220  -13.9580 N.ar   13  G13        -0.2693
    282  OP1      -38.0390    4.0330  -17.6660 O.3    13  G13        -0.4373
    283  OP2      -35.4840    4.4340  -17.7690 O.co2  13  G13        -0.5172
    284  P        -38.4200    9.5820  -17.9980 P.3    14  C14         0.2141
    285  C5'      -38.5460   11.9920  -16.9410 C.3    14  C14         0.1812
    286  O5'      -37.7680   10.9730  -17.5540 O.3    14  C14        -0.3114
    287  C4'      -37.7120   13.1880  -16.5590 C.3    14  C14         0.1773
    288  O4'      -36.7130   12.7990  -15.5830 O.3    14  C14        -0.3307
    289  C3'      -36.8890   13.8440  -17.6570 C.3    14  C14         0.1860
    290  O3'      -37.6410   14.6630  -18.5270 O.3    14  C14        -0.3112
    291  C2'      -35.8460   14.6000  -16.8550 C.3    14  C14         0.2309
    292  O2'      -36.4250   15.7520  -16.2510 O.3    14  C14        -0.2156
    293  C1'      -35.5550   13.5890  -15.7460 C.3    14  C14         0.2420
    294  N1       -34.4290   12.7090  -16.1010 N.ar   14  C14        -0.2535
    295  C2       -33.1340   13.2240  -15.9490 C.ar   14  C14         0.3532
    296  O2       -32.9900   14.3770  -15.5310 O.2    14  C14        -0.2443
    297  N3       -32.0660   12.4570  -16.2780 N.ar   14  C14        -0.1739
    298  C4       -32.2570   11.2100  -16.7380 C.ar   14  C14         0.1759
    299  N4       -31.1730   10.4910  -17.0400 N.pl3  14  C14        -0.1070
    300  C5       -33.5600   10.6610  -16.9060 C.ar   14  C14         0.0566
    301  C6       -34.6130   11.4420  -16.5910 C.ar   14  C14         0.0850
    302  OP1      -39.7710    9.7620  -18.5880 O.3    14  C14        -0.4373
    303  OP2      -37.3510    8.8610  -18.7300 O.co2  14  C14        -0.5172
    304  P        -37.2110   14.7800  -20.0810 P.3    15  G15         0.2141
    305  C5'      -35.9250   16.9610  -19.4410 C.3    15  G15         0.1812
    306  O5'      -35.9010   15.6810  -20.0530 O.3    15  G15        -0.3114
    307  C4'      -34.5380   17.5140  -19.2590 C.3    15  G15         0.1773
    308  O4'      -33.7820   16.7170  -18.3100 O.3    15  G15        -0.3307
    309  C3'      -33.6640   17.5180  -20.4950 C.3    15  G15         0.1860
    310  O3'      -33.9920   18.5560  -21.4070 O.3    15  G15        -0.3112
    311  C2'      -32.2680   17.6290  -19.9020 C.3    15  G15         0.2309
    312  O2'      -31.9870   18.9600  -19.4900 O.3    15  G15        -0.2156
    313  C1'      -32.4060   16.7570  -18.6450 C.3    15  G15         0.2408
    314  N1       -28.2920   13.7650  -18.9450 N.ar   15  G15        -0.1709
    315  C2       -28.3920   15.1040  -18.6180 C.ar   15  G15         0.2606
    316  N2       -27.2220   15.7240  -18.3550 N.pl3  15  G15        -0.0859
    317  N3       -29.5310   15.7740  -18.5780 N.ar   15  G15        -0.1918
    318  C4       -30.5990   14.9930  -18.8830 C.ar   15  G15         0.1723
    319  C5       -30.6080   13.6470  -19.2000 C.ar   15  G15         0.1748
    320  C6       -29.3650   12.9410  -19.2410 C.ar   15  G15         0.3023
    321  O6       -29.1380   11.7540  -19.5270 O.2    15  G15        -0.2633
    322  N7       -31.9120   13.2120  -19.4310 N.ar   15  G15        -0.2173
    323  C8       -32.6510   14.2780  -19.2490 C.ar   15  G15         0.1817
    324  N9       -31.9140   15.3860  -18.9030 N.ar   15  G15        -0.2693
    325  OP1      -38.3470   15.4910  -20.7170 O.2    15  G15        -0.5172
    326  OP2      -36.7650   13.4920  -20.6390 O.co2  15  G15        -0.4373
    327  P        -33.9500   18.2870  -22.9940 P.3    16  A16         0.2141
    328  C5'      -31.4290   19.0160  -23.1040 C.3    16  A16         0.1812
    329  O5'      -32.4180   18.0040  -23.2950 O.3    16  A16        -0.3114
    330  C4'      -30.3630   18.9610  -24.1700 C.3    16  A16         0.1773
    331  O4'      -31.0000   19.0950  -25.4750 O.3    16  A16        -0.3307
    332  C3'      -29.3020   20.0610  -24.0940 C.3    16  A16         0.1860
    333  O3'      -28.0630   19.5690  -24.6140 O.3    16  A16        -0.3112
    334  C2'      -29.8600   21.1150  -25.0460 C.3    16  A16         0.2309
    335  O2'      -28.8970   22.0020  -25.5710 O.3    16  A16        -0.2156
    336  C1'      -30.4960   20.2470  -26.1410 C.3    16  A16         0.2408
    337  N1       -32.4000   23.3370  -29.9070 N.ar   16  A16        -0.2040
    338  C2       -31.1510   22.8860  -29.6890 C.ar   16  A16         0.2016
    339  N3       -30.6850   22.0840  -28.7210 N.ar   16  A16        -0.2048
    340  C4       -31.6780   21.7230  -27.8990 C.ar   16  A16         0.1692
    341  C5       -33.0030   22.1120  -28.0040 C.ar   16  A16         0.1518
    342  C6       -33.3680   22.9530  -29.0580 C.ar   16  A16         0.1919
    343  N6       -34.6270   23.3700  -29.2320 N.pl3  16  A16        -0.1054
    344  N7       -33.7760   21.5690  -26.9990 N.ar   16  A16        -0.2193
    345  C8       -32.9120   20.8770  -26.3020 C.ar   16  A16         0.1816
    346  N9       -31.6270   20.9150  -26.7800 N.ar   16  A16        -0.2693
    347  OP1      -34.2730   19.6180  -23.5970 O.2    16  A16        -0.5172
    348  OP2      -34.7670   17.0980  -23.3020 O.co2  16  A16        -0.4373
    349  P        -26.6310   20.0800  -24.0770 P.3    17  A17         0.2141
    350  C5'      -24.7750   18.7010  -22.7590 C.3    17  A17         0.1812
    351  O5'      -26.1060   18.8210  -23.2410 O.3    17  A17        -0.3114
    352  C4'      -24.5140   17.2590  -22.3940 C.3    17  A17         0.1773
    353  O4'      -25.4400   16.8660  -21.3460 O.3    17  A17        -0.3307
    354  C3'      -24.7970   16.2860  -23.5320 C.3    17  A17         0.1860
    355  O3'      -23.6780   16.1390  -24.3760 O.3    17  A17        -0.3112
    356  C2'      -25.2060   15.0090  -22.8090 C.3    17  A17         0.2309
    357  O2'      -24.0610   14.3170  -22.3190 O.3    17  A17        -0.2156
    358  C1'      -25.9650   15.5770  -21.6140 C.3    17  A17         0.2408
    359  N1       -30.4670   13.2330  -22.7150 N.ar   17  A17        -0.2040
    360  C2       -29.2210   12.7600  -22.5540 C.ar   17  A17         0.2016
    361  N3       -28.0960   13.4100  -22.2730 N.ar   17  A17        -0.2048
    362  C4       -28.3310   14.7200  -22.1530 C.ar   17  A17         0.1692
    363  C5       -29.5530   15.3430  -22.2790 C.ar   17  A17         0.1518
    364  C6       -30.6670   14.5460  -22.5770 C.ar   17  A17         0.1919
    365  N6       -31.8990   15.0220  -22.7350 N.pl3  17  A17        -0.1054
    366  N7       -29.4230   16.7050  -22.0770 N.ar   17  A17        -0.2193
    367  C8       -28.1410   16.8730  -21.8300 C.ar   17  A17         0.1816
    368  N9       -27.4100   15.7140  -21.8700 N.ar   17  A17        -0.2693
    369  OP1      -26.7570   21.1970  -23.0960 O.3    17  A17        -0.4373
    370  OP2      -25.7940   20.2600  -25.2920 O.co2  17  A17        -0.5172
    371  P        -23.8340   15.4820  -25.8350 P.3    18  C18         0.2141
    372  C5'      -24.5110   13.0180  -26.4330 C.3    18  C18         0.1812
    373  O5'      -23.9780   13.9310  -25.4960 O.3    18  C18        -0.3114
    374  C4'      -25.1700   11.8630  -25.7230 C.3    18  C18         0.1773
    375  O4'      -26.3200   12.3610  -25.0020 O.3    18  C18        -0.3307
    376  C3'      -25.7000   10.8000  -26.6590 C.3    18  C18         0.1860
    377  O3'      -25.7700    9.5740  -25.9510 O.3    18  C18        -0.3112
    378  C2'      -27.1090   11.2860  -26.9480 C.3    18  C18         0.2309
    379  O2'      -27.9900   10.2530  -27.3210 O.3    18  C18        -0.2156
    380  C1'      -27.5150   11.8880  -25.6060 C.3    18  C18         0.2420
    381  N1       -28.4480   13.0210  -25.7330 N.ar   18  C18        -0.2535
    382  C2       -29.8290   12.7860  -25.7770 C.ar   18  C18         0.3532
    383  O2       -30.2500   11.6110  -25.7190 O.2    18  C18        -0.2443
    384  N3       -30.6780   13.8470  -25.8990 N.ar   18  C18        -0.1739
    385  C4       -30.1750   15.0900  -25.9730 C.ar   18  C18         0.1759
    386  N4       -31.0210   16.1190  -26.0780 N.pl3  18  C18        -0.1070
    387  C5       -28.7780   15.3510  -25.9430 C.ar   18  C18         0.0566
    388  C6       -27.9580   14.2950  -25.8300 C.ar   18  C18         0.0850
    389  OP1      -22.5450   15.6360  -26.5480 O.2    18  C18        -0.5172
    390  OP2      -25.0900   15.9950  -26.4160 O.co2  18  C18        -0.4373
    391  P        -24.9380    8.3040  -26.4740 P.3    19  A19         0.2141
    392  C5'      -25.5640    6.6160  -24.5760 C.3    19  A19         0.1812
    393  O5'      -25.7680    7.0800  -25.8960 O.3    19  A19        -0.3114
    394  C4'      -26.6270    5.6210  -24.1980 C.3    19  A19         0.1773
    395  O4'      -26.7200    4.6280  -25.2640 O.3    19  A19        -0.3307
    396  C3'      -26.3530    4.8310  -22.9180 C.3    19  A19         0.1860
    397  O3'      -27.5950    4.5400  -22.2770 O.3    19  A19        -0.3112
    398  C2'      -25.7440    3.5370  -23.4560 C.3    19  A19         0.2309
    399  O2'      -25.8680    2.4190  -22.6060 O.3    19  A19        -0.2156
    400  C1'      -26.5760    3.3400  -24.7100 C.3    19  A19         0.2408
    401  N1       -27.5840   -0.4700  -27.8430 N.ar   19  A19        -0.2040
    402  C2       -28.3140    0.1480  -26.9140 C.ar   19  A19         0.2016
    403  N3       -27.9580    1.1470  -26.1090 N.ar   19  A19        -0.2048
    404  C4       -26.6870    1.5000  -26.3440 C.ar   19  A19         0.1692
    405  C5       -25.8140    0.9610  -27.2630 C.ar   19  A19         0.1518
    406  C6       -26.3080   -0.0880  -28.0470 C.ar   19  A19         0.1919
    407  N6       -25.5860   -0.7200  -28.9670 N.pl3  19  A19        -0.1054
    408  N7       -24.5870    1.6000  -27.1980 N.ar   19  A19        -0.2193
    409  C8       -24.7410    2.5110  -26.2660 C.ar   19  A19         0.1816
    410  N9       -25.9830    2.4820  -25.7150 N.ar   19  A19        -0.2693
    411  OP1      -23.6140    8.3750  -25.8230 O.3    19  A19        -0.4373
    412  OP2      -25.0160    8.1740  -27.9380 O.co2  19  A19        -0.5172
    413  P        -28.3550    5.6790  -21.4360 P.3    20  G20         0.2141
    414  C5'      -30.5300    5.9770  -22.8310 C.3    20  G20         0.1812
    415  O5'      -29.2420    6.4510  -22.4970 O.3    20  G20        -0.3114
    416  C4'      -30.5400    5.3790  -24.2100 C.3    20  G20         0.1773
    417  O4'      -29.7660    4.1500  -24.2450 O.3    20  G20        -0.3307
    418  C3'      -31.9090    4.9910  -24.7360 C.3    20  G20         0.1860
    419  O3'      -32.5520    6.1110  -25.3190 O.3    20  G20        -0.3112
    420  C2'      -31.5750    3.8930  -25.7270 C.3    20  G20         0.2309
    421  O2'      -31.0200    4.4640  -26.9040 O.3    20  G20        -0.2156
    422  C1'      -30.4470    3.1730  -24.9890 C.3    20  G20         0.2408
    423  N1       -32.8630   -1.3060  -24.4990 N.ar   20  G20        -0.1709
    424  C2       -32.4850   -0.6230  -25.6270 C.ar   20  G20         0.2606
    425  N2       -32.7770   -1.1890  -26.8230 N.pl3  20  G20        -0.0859
    426  N3       -31.8420    0.5470  -25.6130 N.ar   20  G20        -0.1918
    427  C4       -31.6120    0.9980  -24.3580 C.ar   20  G20         0.1723
    428  C5       -31.9450    0.3950  -23.1690 C.ar   20  G20         0.1748
    429  C6       -32.6040   -0.8690  -23.1900 C.ar   20  G20         0.3023
    430  O6       -32.9740   -1.5460  -22.2220 O.2    20  G20        -0.2633
    431  N7       -31.5260    1.1860  -22.1050 N.ar   20  G20        -0.2173
    432  C8       -30.9600    2.2190  -22.6560 C.ar   20  G20         0.1817
    433  N9       -30.9730    2.1660  -24.0380 N.ar   20  G20        -0.2693
    434  OP1      -27.3910    6.7200  -21.0190 O.2    20  G20        -0.5172
    435  OP2      -29.2750    4.9960  -20.5000 O.co2  20  G20        -0.4373
    436  P        -34.1420    6.1800  -25.4540 P.3    21  G21         0.2141
    437  C5'      -34.1730    5.0190  -27.8090 C.3    21  G21         0.1812
    438  O5'      -34.4670    4.9650  -26.4240 O.3    21  G21        -0.3114
    439  C4'      -34.7940    3.8320  -28.4880 C.3    21  G21         0.1773
    440  O4'      -34.2050    2.5970  -27.9840 O.3    21  G21        -0.3307
    441  C3'      -36.2760    3.6590  -28.2210 C.3    21  G21         0.1860
    442  O3'      -37.0630    4.5140  -29.0290 O.3    21  G21        -0.3112
    443  C2'      -36.4840    2.1800  -28.4980 C.3    21  G21         0.2309
    444  O2'      -36.4660    1.9590  -29.8990 O.3    21  G21        -0.2156
    445  C1'      -35.1990    1.5900  -27.9160 C.3    21  G21         0.2408
    446  N1       -36.8940   -2.0500  -24.7770 N.ar   21  G21        -0.1709
    447  C2       -36.8860   -1.9930  -26.1400 C.ar   21  G21         0.2606
    448  N2       -37.3980   -3.0520  -26.7680 N.pl3  21  G21        -0.0859
    449  N3       -36.4210   -0.9770  -26.8490 N.ar   21  G21        -0.1918
    450  C4       -35.9280   -0.0030  -26.0650 C.ar   21  G21         0.1723
    451  C5       -35.8900    0.0430  -24.6830 C.ar   21  G21         0.1748
    452  C6       -36.4020   -1.0550  -23.9370 C.ar   21  G21         0.3023
    453  O6       -36.4480   -1.2120  -22.7030 O.2    21  G21        -0.2633
    454  N7       -35.3120    1.2340  -24.2660 N.ar   21  G21        -0.2173
    455  C8       -35.0340    1.8720  -25.3770 C.ar   21  G21         0.1817
    456  N9       -35.3670    1.1710  -26.5060 N.ar   21  G21        -0.2693
    457  OP1      -34.4530    7.4740  -26.1270 O.2    21  G21        -0.5172
    458  OP2      -34.8340    5.8820  -24.1920 O.co2  21  G21        -0.4373
    459  P        -38.5260    4.9650  -28.5610 P.3    22  U22         0.2141
    460  C5'      -39.7710    3.0550  -29.8430 C.3    22  U22         0.1812
    461  O5'      -39.3470    3.6020  -28.6060 O.3    22  U22        -0.3114
    462  C4'      -40.5250    1.7660  -29.6370 C.3    22  U22         0.1773
    463  O4'      -39.6720    0.7790  -28.9900 O.3    22  U22        -0.3307
    464  C3'      -41.7370    1.8360  -28.7250 C.3    22  U22         0.1860
    465  O3'      -42.8750    2.4100  -29.3430 O.3    22  U22        -0.3112
    466  C2'      -41.9120    0.3750  -28.3440 C.3    22  U22         0.2309
    467  O2'      -42.4000   -0.3550  -29.4550 O.3    22  U22        -0.2156
    468  C1'      -40.4570   -0.0400  -28.1380 C.3    22  U22         0.2420
    469  N1       -40.0410    0.1410  -26.7220 N.ar   22  U22        -0.2534
    470  C2       -40.4270   -0.8450  -25.8270 C.ar   22  U22         0.3546
    471  O2       -41.0610   -1.8240  -26.1710 O.2    22  U22        -0.2443
    472  N3       -40.0500   -0.6500  -24.5150 N.ar   22  U22        -0.1530
    473  C4       -39.3470    0.4200  -23.9940 C.ar   22  U22         0.2846
    474  O4       -39.0770    0.4460  -22.7840 O.2    22  U22        -0.2650
    475  C5       -38.9870    1.4090  -24.9740 C.ar   22  U22         0.0814
    476  C6       -39.3470    1.2490  -26.2610 C.ar   22  U22         0.0870
    477  OP1      -39.0090    5.9040  -29.6040 O.2    22  U22        -0.5172
    478  OP2      -38.5200    5.5000  -27.1570 O.co2  22  U22        -0.4373
    479  P        -43.9170    3.3070  -28.5060 P.3    23  G23         0.2141
    480  C5'      -45.3630    1.1260  -28.4420 C.3    23  G23         0.1812
    481  O5'      -44.8130    2.2340  -27.7490 O.3    23  G23        -0.3114
    482  C4'      -45.8370    0.0660  -27.4820 C.3    23  G23         0.1773
    483  O4'      -44.7070   -0.6690  -26.9360 O.3    23  G23        -0.3307
    484  C3'      -46.5750    0.5570  -26.2480 C.3    23  G23         0.1860
    485  O3'      -47.9160    0.9110  -26.5100 O.3    23  G23        -0.3112
    486  C2'      -46.4240   -0.6210  -25.3010 C.3    23  G23         0.2309
    487  O2'      -47.3070   -1.6670  -25.6790 O.3    23  G23        -0.2156
    488  C1'      -44.9870   -1.0560  -25.6100 C.3    23  G23         0.2408
    489  N1       -42.8560   -1.1100  -20.9900 N.ar   23  G23        -0.1709
    490  C2       -43.7710   -1.9670  -21.5590 C.ar   23  G23         0.2606
    491  N2       -44.2020   -2.9890  -20.8060 N.pl3  23  G23        -0.0859
    492  N3       -44.2420   -1.8420  -22.7890 N.ar   23  G23        -0.1918
    493  C4       -43.7330   -0.7680  -23.4220 C.ar   23  G23         0.1723
    494  C5       -42.8160    0.1460  -22.9570 C.ar   23  G23         0.1748
    495  C6       -42.3140   -0.0020  -21.6360 C.ar   23  G23         0.3023
    496  O6       -41.4990    0.7050  -21.0520 O.2    23  G23        -0.2633
    497  N7       -42.5480    1.1010  -23.9290 N.ar   23  G23        -0.2173
    498  C8       -43.2890    0.7480  -24.9460 C.ar   23  G23         0.1817
    499  N9       -44.0240   -0.3870  -24.7110 N.ar   23  G23        -0.2693
    500  OP1      -44.7680    3.9780  -29.5180 O.2    23  G23        -0.5172
    501  OP2      -43.2150    4.1510  -27.4880 O.co2  23  G23        -0.4373
    502  P        -48.7490    1.7890  -25.4540 P.3    24  G24         0.2141
    503  C5'      -49.3230    1.1050  -23.0210 C.3    24  G24         0.1812
    504  O5'      -49.1960    0.7230  -24.3730 O.3    24  G24        -0.3114
    505  C4'      -49.0860   -0.0580  -22.1040 C.3    24  G24         0.1773
    506  O4'      -47.6990   -0.4790  -22.1810 O.3    24  G24        -0.3307
    507  C3'      -49.3150    0.2590  -20.6420 C.3    24  G24         0.1860
    508  O3'      -50.6800    0.1150  -20.3040 O.3    24  G24        -0.3112
    509  C2'      -48.3890   -0.7160  -19.9290 C.3    24  G24         0.2309
    510  O2'      -48.9770   -2.0080  -19.8700 O.3    24  G24        -0.2156
    511  C1'      -47.2050   -0.7660  -20.8950 C.3    24  G24         0.2408
    512  N1       -43.7900    0.9870  -17.5260 N.ar   24  G24        -0.1709
    513  C2       -44.6550   -0.0720  -17.4230 C.ar   24  G24         0.2606
    514  N2       -44.6090   -0.7630  -16.2850 N.pl3  24  G24        -0.0859
    515  N3       -45.5050   -0.4400  -18.3620 N.ar   24  G24        -0.1918
    516  C4       -45.4190    0.3590  -19.4420 C.ar   24  G24         0.1723
    517  C5       -44.5910    1.4440  -19.6470 C.ar   24  G24         0.1748
    518  C6       -43.6800    1.8180  -18.6290 C.ar   24  G24         0.3023
    519  O6       -42.8720    2.7520  -18.6120 O.2    24  G24        -0.2633
    520  N7       -44.8000    1.9960  -20.8980 N.ar   24  G24        -0.2173
    521  C8       -45.7390    1.2520  -21.4120 C.ar   24  G24         0.1817
    522  N9       -46.1670    0.2410  -20.5830 N.ar   24  G24        -0.2693
    523  OP1      -49.9700    2.2590  -26.1620 O.2    24  G24        -0.5172
    524  OP2      -47.8800    2.7660  -24.7470 O.co2  24  G24        -0.4373
    525  P        -51.5060    1.3500  -19.7030 P.3    25  G25         0.2141
    526  C5'      -51.1410    1.9750  -17.1920 C.3    25  G25         0.1812
    527  O5'      -51.5220    1.0100  -18.1500 O.3    25  G25        -0.3114
    528  C4'      -49.9870    1.5030  -16.3460 C.3    25  G25         0.1773
    529  O4'      -48.8150    1.3010  -17.1750 O.3    25  G25        -0.3307
    530  C3'      -49.5570    2.5100  -15.2970 C.3    25  G25         0.1860
    531  O3'      -50.3050    2.3570  -14.1090 O.3    25  G25        -0.3112
    532  C2'      -48.0660    2.2490  -15.1240 C.3    25  G25         0.2309
    533  O2'      -47.8440    1.1910  -14.2040 O.3    25  G25        -0.2156
    534  C1'      -47.6610    1.7820  -16.5230 C.3    25  G25         0.2408
    535  N1       -43.9870    5.3490  -17.2080 N.ar   25  G25        -0.1709
    536  C2       -44.1930    4.5360  -16.1240 C.ar   25  G25         0.2606
    537  N2       -43.3250    4.6940  -15.1210 N.pl3  25  G25        -0.0859
    538  N3       -45.1760    3.6490  -16.0290 N.ar   25  G25        -0.1918
    539  C4       -45.9570    3.6390  -17.1340 C.ar   25  G25         0.1723
    540  C5       -45.8200    4.4160  -18.2720 C.ar   25  G25         0.1748
    541  C6       -44.7660    5.3560  -18.3530 C.ar   25  G25         0.3023
    542  O6       -44.4990    6.1340  -19.2760 O.2    25  G25        -0.2633
    543  N7       -46.8010    4.1260  -19.1990 N.ar   25  G25        -0.2173
    544  C8       -47.5060    3.1870  -18.6220 C.ar   25  G25         0.1817
    545  N9       -47.0640    2.8420  -17.3640 N.ar   25  G25        -0.2693
    546  OP1      -52.8970    1.2530  -20.2120 O.2    25  G25        -0.5172
    547  OP2      -50.7670    2.6160  -19.9260 O.co2  25  G25        -0.4373
    548  P        -51.3440    3.4890  -13.6650 P.3    26  A26         0.2141
    549  C5'      -49.7150    3.8840  -11.6730 C.3    26  A26         0.1812
    550  O5'      -50.4530    4.4390  -12.7550 O.3    26  A26        -0.3114
    551  C4'      -48.5380    4.7390  -11.2830 C.3    26  A26         0.1773
    552  O4'      -47.6890    4.9690  -12.4440 O.3    26  A26        -0.3307
    553  C3'      -48.8810    6.1200  -10.7240 C.3    26  A26         0.1860
    554  O3'      -47.9390    6.4560   -9.7090 O.3    26  A26        -0.3112
    555  C2'      -48.6610    7.0310  -11.9260 C.3    26  A26         0.2309
    556  O2'      -48.3820    8.3760  -11.5940 O.3    26  A26        -0.2156
    557  C1'      -47.4700    6.3550  -12.5950 C.3    26  A26         0.2408
    558  N1       -44.5650    8.7550  -16.0440 N.ar   26  A26        -0.2040
    559  C2       -44.4680    8.6290  -14.7100 C.ar   26  A26         0.2016
    560  N3       -45.2760    7.9760  -13.8720 N.ar   26  A26        -0.2048
    561  C4       -46.2930    7.4000  -14.5460 C.ar   26  A26         0.1692
    562  C5       -46.5270    7.4400  -15.9090 C.ar   26  A26         0.1518
    563  C6       -45.6030    8.1590  -16.6840 C.ar   26  A26         0.1919
    564  N6       -45.7040    8.2830  -18.0100 N.pl3  26  A26        -0.1054
    565  N7       -47.6730    6.7300  -16.2400 N.ar   26  A26        -0.2193
    566  C8       -48.1040    6.2850  -15.0820 C.ar   26  A26         0.1816
    567  N9       -47.3160    6.6590  -14.0190 N.ar   26  A26        -0.2693
    568  OP1      -52.3470    2.8310  -12.7880 O.3    26  A26        -0.4373
    569  OP2      -51.7920    4.2270  -14.8760 O.co2  26  A26        -0.5172
    570  P        -48.1450    5.9300   -8.2050 P.3    27  A27         0.2141
    571  C5'      -45.6960    6.1130   -7.2560 C.3    27  A27         0.1812
    572  O5'      -46.9970    6.6750   -7.3850 O.3    27  A27        -0.3114
    573  C4'      -44.9800    6.0580   -8.5840 C.3    27  A27         0.1773
    574  O4'      -45.0320    7.3500   -9.2430 O.3    27  A27        -0.3307
    575  C3'      -43.4960    5.7310   -8.5440 C.3    27  A27         0.1860
    576  O3'      -43.2470    4.3510   -8.3950 O.3    27  A27        -0.3112
    577  C2'      -43.0050    6.2770   -9.8750 C.3    27  A27         0.2309
    578  O2'      -43.3310    5.3780  -10.9270 O.3    27  A27        -0.2156
    579  C1'      -43.8670    7.5320  -10.0250 C.3    27  A27         0.2408
    580  N1       -39.9040   10.7130  -10.9010 N.ar   27  A27        -0.2040
    581  C2       -40.3090    9.5830  -11.5130 C.ar   27  A27         0.2016
    582  N3       -41.3530    8.8030  -11.2260 N.ar   27  A27        -0.2048
    583  C4       -42.0380    9.2890  -10.1670 C.ar   27  A27         0.1692
    584  C5       -41.7410   10.4310   -9.4370 C.ar   27  A27         0.1518
    585  C6       -40.6090   11.1720   -9.8440 C.ar   27  A27         0.1919
    586  N6       -40.1920   12.2910   -9.2460 N.pl3  27  A27        -0.1054
    587  N7       -42.6670   10.6140   -8.4120 N.ar   27  A27        -0.2193
    588  C8       -43.4900    9.5980   -8.5430 C.ar   27  A27         0.1816
    589  N9       -43.1660    8.7550   -9.5810 N.ar   27  A27        -0.2693
    590  OP1      -47.8980    4.4610   -8.1580 O.2    27  A27        -0.5172
    591  OP2      -49.4510    6.4640   -7.7400 O.co2  27  A27        -0.4373
    592  P        -41.9490    3.8520   -7.6020 P.3    28  A28         0.2141
    593  C5'      -40.4300    3.7800   -9.7500 C.3    28  A28         0.1812
    594  O5'      -40.7180    4.3510   -8.4850 O.3    28  A28        -0.3114
    595  C4'      -39.2220    4.4340  -10.3700 C.3    28  A28         0.1773
    596  O4'      -39.4210    5.8680  -10.4140 O.3    28  A28        -0.3307
    597  C3'      -37.9120    4.2600   -9.6230 C.3    28  A28         0.1860
    598  O3'      -37.2720    3.0390   -9.9500 O.3    28  A28        -0.3112
    599  C2'      -37.0970    5.4810  -10.0550 C.3    28  A28         0.2309
    600  O2'      -36.4350    5.2210  -11.2880 O.3    28  A28        -0.2156
    601  C1'      -38.1870    6.5280  -10.2980 C.3    28  A28         0.2408
    602  N1       -36.3800   11.0820   -8.8190 N.ar   28  A28        -0.2040
    603  C2       -36.0710   10.2620   -9.8330 C.ar   28  A28         0.2016
    604  N3       -36.6050    9.0800  -10.1230 N.ar   28  A28        -0.2048
    605  C4       -37.5610    8.7400   -9.2600 C.ar   28  A28         0.1692
    606  C5       -37.9790    9.4760   -8.1640 C.ar   28  A28         0.1518
    607  C6       -37.3420   10.7100   -7.9500 C.ar   28  A28         0.1919
    608  N6       -37.6120   11.5480   -6.9460 N.pl3  28  A28        -0.1054
    609  N7       -38.9820    8.7940   -7.5020 N.ar   28  A28        -0.2193
    610  C8       -39.1370    7.6830   -8.1880 C.ar   28  A28         0.1816
    611  N9       -38.2880    7.5790   -9.2630 N.ar   28  A28        -0.2693
    612  OP1      -42.0250    2.3680   -7.6260 O.2    28  A28        -0.5172
    613  OP2      -41.8210    4.5940   -6.3250 O.co2  28  A28        -0.4373
    614  P        -37.0610    1.8780   -8.8570 P.3    29  C29         0.2141
    615  C5'      -38.3650    0.0800  -10.1700 C.3    29  C29         0.1812
    616  O5'      -38.3190    0.9670   -9.0670 O.3    29  C29        -0.3114
    617  C4'      -39.7720   -0.3110  -10.4980 C.3    29  C29         0.1773
    618  O4'      -40.4820    0.8400  -11.0160 O.3    29  C29        -0.3307
    619  C3'      -39.9490   -1.3610  -11.5800 C.3    29  C29         0.1860
    620  O3'      -39.7480   -2.6790  -11.1070 O.3    29  C29        -0.3112
    621  C2'      -41.3680   -1.0970  -12.0590 C.3    29  C29         0.2309
    622  O2'      -42.3200   -1.6440  -11.1580 O.3    29  C29        -0.2156
    623  C1'      -41.4420    0.4260  -11.9550 C.3    29  C29         0.2420
    624  N1       -41.1540    1.0910  -13.2420 N.ar   29  C29        -0.2535
    625  C2       -42.1240    1.0450  -14.2510 C.ar   29  C29         0.3532
    626  O2       -43.1830    0.4490  -14.0560 O.2    29  C29        -0.2443
    627  N3       -41.8950    1.6540  -15.4290 N.ar   29  C29        -0.1739
    628  C4       -40.7440    2.2940  -15.6110 C.ar   29  C29         0.1759
    629  N4       -40.5590    2.8760  -16.7960 N.pl3  29  C29        -0.1070
    630  C5       -39.7380    2.3700  -14.6050 C.ar   29  C29         0.0566
    631  C6       -39.9800    1.7530  -13.4340 C.ar   29  C29         0.0850
    632  OP1      -37.0420    2.4660   -7.4880 O.3    29  C29        -0.4373
    633  OP2      -35.8750    1.0950   -9.2810 O.co2  29  C29        -0.5172
    634  P        -39.0930   -3.7900  -12.0630 P.3    30  C30         0.2141
    635  C5'      -41.4560   -4.8130  -12.5510 C.3    30  C30         0.1812
    636  O5'      -40.2720   -4.2040  -13.0350 O.3    30  C30        -0.3114
    637  C4'      -42.3590   -5.1750  -13.6980 C.3    30  C30         0.1773
    638  O4'      -42.9790   -3.9790  -14.2430 O.3    30  C30        -0.3307
    639  C3'      -41.6650   -5.7870  -14.8980 C.3    30  C30         0.1860
    640  O3'      -41.3530   -7.1460  -14.7190 O.3    30  C30        -0.3112
    641  C2'      -42.6590   -5.5220  -16.0140 C.3    30  C30         0.2309
    642  O2'      -43.7610   -6.4120  -15.9140 O.3    30  C30        -0.2156
    643  C1'      -43.1430   -4.1230  -15.6410 C.3    30  C30         0.2420
    644  N1       -42.3680   -3.0580  -16.3250 N.ar   30  C30        -0.2535
    645  C2       -42.6910   -2.7070  -17.6350 C.ar   30  C30         0.3532
    646  O2       -43.6030   -3.3060  -18.1960 O.2    30  C30        -0.2443
    647  N3       -42.0110   -1.7270  -18.2730 N.ar   30  C30        -0.1739
    648  C4       -41.0260   -1.0930  -17.6390 C.ar   30  C30         0.1759
    649  N4       -40.3600   -0.1330  -18.2880 N.pl3  30  C30        -0.1070
    650  C5       -40.6710   -1.4250  -16.3040 C.ar   30  C30         0.0566
    651  C6       -41.3640   -2.3940  -15.6870 C.ar   30  C30         0.0850
    652  OP1      -38.8010   -4.9540  -11.1880 O.3    30  C30        -0.4373
    653  OP2      -38.0270   -3.1820  -12.8920 O.co2  30  C30        -0.5172
    654  P        -40.0700   -7.7830  -15.4360 P.3    31  A31         0.2141
    655  C5'      -41.6650   -8.7600  -17.2550 C.3    31  A31         0.1812
    656  O5'      -40.5330   -7.9720  -16.9420 O.3    31  A31        -0.3114
    657  C4'      -42.0250   -8.6430  -18.7070 C.3    31  A31         0.1773
    658  O4'      -42.5520   -7.3160  -18.9770 O.3    31  A31        -0.3307
    659  C3'      -40.8760   -8.7840  -19.6910 C.3    31  A31         0.1860
    660  O3'      -40.5100  -10.1280  -19.9370 O.3    31  A31        -0.3112
    661  C2'      -41.4120   -8.0660  -20.9180 C.3    31  A31         0.2309
    662  O2'      -42.3690   -8.8780  -21.5830 O.3    31  A31        -0.2156
    663  C1'      -42.1600   -6.9030  -20.2730 C.3    31  A31         0.2408
    664  N1       -40.5330   -2.6590  -22.6740 N.ar   31  A31        -0.2040
    665  C2       -41.3250   -3.6600  -23.0650 C.ar   31  A31         0.2016
    666  N3       -41.6960   -4.7380  -22.3780 N.ar   31  A31        -0.2048
    667  C4       -41.1560   -4.7360  -21.1420 C.ar   31  A31         0.1692
    668  C5       -40.3120   -3.7770  -20.6080 C.ar   31  A31         0.1518
    669  C6       -39.9920   -2.6930  -21.4410 C.ar   31  A31         0.1919
    670  N6       -39.2070   -1.6820  -21.0860 N.pl3  31  A31        -0.1054
    671  N7       -39.9480   -4.1090  -19.3050 N.ar   31  A31        -0.2193
    672  C8       -40.5710   -5.2520  -19.0970 C.ar   31  A31         0.1816
    673  N9       -41.3250   -5.6870  -20.1640 N.ar   31  A31        -0.2693
    674  OP1      -39.8880   -9.1080  -14.7920 O.3    31  A31        -0.4373
    675  OP2      -38.9500   -6.8180  -15.4120 O.co2  31  A31        -0.5172
    676  P        -38.9710  -10.5200  -20.1830 P.3    32  C32         0.2141
    677  C5'      -39.4180  -10.7070  -22.7480 C.3    32  C32         0.1812
    678  O5'      -38.7260  -10.0740  -21.6890 O.3    32  C32        -0.3114
    679  C4'      -39.3280   -9.9000  -24.0150 C.3    32  C32         0.1773
    680  O4'      -39.9140   -8.5870  -23.8060 O.3    32  C32        -0.3307
    681  C3'      -37.9260   -9.5910  -24.5100 C.3    32  C32         0.1860
    682  O3'      -37.2960  -10.6710  -25.1800 O.3    32  C32        -0.3112
    683  C2'      -38.1550   -8.3660  -25.3830 C.3    32  C32         0.2309
    684  O2'      -38.7280   -8.7360  -26.6310 O.3    32  C32        -0.2156
    685  C1'      -39.2170   -7.6240  -24.5780 C.3    32  C32         0.2420
    686  N1       -38.6070   -6.6160  -23.6800 N.ar   32  C32        -0.2535
    687  C2       -38.2900   -5.3670  -24.2210 C.ar   32  C32         0.3532
    688  O2       -38.5310   -5.1580  -25.4330 O.2    32  C32        -0.2443
    689  N3       -37.7000   -4.4340  -23.4170 N.ar   32  C32        -0.1739
    690  C4       -37.4520   -4.7030  -22.1320 C.ar   32  C32         0.1759
    691  N4       -36.8910   -3.7450  -21.3900 N.pl3  32  C32        -0.1070
    692  C5       -37.7640   -5.9780  -21.5590 C.ar   32  C32         0.0566
    693  C6       -38.3290   -6.8950  -22.3710 C.ar   32  C32         0.0850
    694  OP1      -38.8770  -12.0010  -20.1050 O.2    32  C32        -0.5172
    695  OP2      -38.0600   -9.7080  -19.3370 O.co2  32  C32        -0.4373
    696  P        -35.6970  -10.8530  -25.0440 P.3    33  C33         0.2141
    697  C5'      -35.4280   -9.6680  -27.3570 C.3    33  C33         0.1812
    698  O5'      -35.0970   -9.7160  -25.9830 O.3    33  C33        -0.3114
    699  C4'      -35.0330   -8.3490  -27.9600 C.3    33  C33         0.1773
    700  O4'      -35.7690   -7.2650  -27.3340 O.3    33  C33        -0.3307
    701  C3'      -33.5900   -7.9360  -27.7770 C.3    33  C33         0.1860
    702  O3'      -32.6980   -8.6420  -28.6180 O.3    33  C33        -0.3112
    703  C2'      -33.6620   -6.4390  -28.0480 C.3    33  C33         0.2309
    704  O2'      -33.8000   -6.1890  -29.4450 O.3    33  C33        -0.2156
    705  C1'      -34.9850   -6.0870  -27.3610 C.3    33  C33         0.2420
    706  N1       -34.7320   -5.6460  -25.9740 N.ar   33  C33        -0.2535
    707  C2       -34.3850   -4.3200  -25.8070 C.ar   33  C33         0.3532
    708  O2       -34.3640   -3.6010  -26.8170 O.2    33  C33        -0.2443
    709  N3       -34.1140   -3.8800  -24.5500 N.ar   33  C33        -0.1739
    710  C4       -34.1710   -4.7320  -23.5320 C.ar   33  C33         0.1759
    711  N4       -33.8780   -4.2860  -22.3050 N.pl3  33  C33        -0.1070
    712  C5       -34.4970   -6.1050  -23.6940 C.ar   33  C33         0.0566
    713  C6       -34.7520   -6.5120  -24.9390 C.ar   33  C33         0.0850
    714  OP1      -35.3210  -12.1690  -25.6040 O.2    33  C33        -0.5172
    715  OP2      -35.2950  -10.4830  -23.6710 O.co2  33  C33        -0.4373
    716  P        -31.1740   -8.8790  -28.1600 P.3    34  G34         0.2141
    717  C5'      -30.4060   -6.6560  -29.2910 C.3    34  G34         0.1812
    718  O5'      -30.5470   -7.4210  -28.1040 O.3    34  G34        -0.3114
    719  C4'      -29.9450   -5.2520  -28.9890 C.3    34  G34         0.1773
    720  O4'      -30.9030   -4.5760  -28.1270 O.3    34  G34        -0.3307
    721  C3'      -28.6420   -5.1410  -28.2290 C.3    34  G34         0.1860
    722  O3'      -27.5090   -5.3580  -29.0610 O.3    34  G34        -0.3112
    723  C2'      -28.7380   -3.7320  -27.6540 C.3    34  G34         0.2309
    724  O2'      -28.5680   -2.7850  -28.6910 O.3    34  G34        -0.2156
    725  C1'      -30.2150   -3.6760  -27.2740 C.3    34  G34         0.2408
    726  N1       -29.7580   -2.2510  -22.3660 N.ar   34  G34        -0.1709
    727  C2       -29.3690   -1.5940  -23.5210 C.ar   34  G34         0.2606
    728  N2       -28.7840   -0.3920  -23.4030 N.pl3  34  G34        -0.0859
    729  N3       -29.5480   -2.0740  -24.7560 N.ar   34  G34        -0.1918
    730  C4       -30.1390   -3.2840  -24.7550 C.ar   34  G34         0.1723
    731  C5       -30.5460   -4.0210  -23.6760 C.ar   34  G34         0.1748
    732  C6       -30.3700   -3.5160  -22.3660 C.ar   34  G34         0.3023
    733  O6       -30.7130   -4.1030  -21.3360 O.2    34  G34        -0.2633
    734  N7       -31.1070   -5.2140  -24.0820 N.ar   34  G34        -0.2173
    735  C8       -31.0320   -5.1970  -25.3840 C.ar   34  G34         0.1817
    736  N9       -30.4460   -4.0580  -25.8690 N.ar   34  G34        -0.2693
    737  OP1      -30.5250   -9.5560  -29.3010 O.2    34  G34        -0.5172
    738  OP2      -31.0960   -9.4840  -26.8080 O.co2  34  G34        -0.4373
    739  P        -26.2280   -6.1700  -28.5250 P.3    35  G35         0.2141
    740  C5'      -25.1540   -3.8980  -27.8320 C.3    35  G35         0.1812
    741  O5'      -25.5660   -5.1980  -27.4600 O.3    35  G35        -0.3114
    742  C4'      -24.9010   -3.0340  -26.6200 C.3    35  G35         0.1773
    743  O4'      -26.1400   -2.8300  -25.8970 O.3    35  G35        -0.3307
    744  C3'      -23.9640   -3.5950  -25.5710 C.3    35  G35         0.1860
    745  O3'      -22.5990   -3.4760  -25.9160 O.3    35  G35        -0.3112
    746  C2'      -24.3660   -2.8050  -24.3300 C.3    35  G35         0.2309
    747  O2'      -23.8580   -1.4810  -24.4050 O.3    35  G35        -0.2156
    748  C1'      -25.8770   -2.7320  -24.5130 C.3    35  G35         0.2408
    749  N1       -27.6350   -4.2590  -20.0500 N.ar   35  G35        -0.1709
    750  C2       -26.9900   -3.1080  -20.4380 C.ar   35  G35         0.2606
    751  N2       -26.7560   -2.1900  -19.4930 N.pl3  35  G35        -0.0859
    752  N3       -26.5800   -2.8360  -21.6670 N.ar   35  G35        -0.1918
    753  C4       -26.8760   -3.8360  -22.5020 C.ar   35  G35         0.1723
    754  C5       -27.5190   -5.0180  -22.2410 C.ar   35  G35         0.1748
    755  C6       -27.9520   -5.2960  -20.9190 C.ar   35  G35         0.3023
    756  O6       -28.5380   -6.3040  -20.5010 O.2    35  G35        -0.2633
    757  N7       -27.6180   -5.7770  -23.3860 N.ar   35  G35        -0.2173
    758  C8       -27.0440   -5.0310  -24.3120 C.ar   35  G35         0.1817
    759  N9       -26.5750   -3.8330  -23.8180 N.ar   35  G35        -0.2693
    760  OP1      -25.1870   -6.2690  -29.5780 O.2    35  G35        -0.5172
    761  OP2      -26.6770   -7.3900  -27.8580 O.co2  35  G35        -0.4373
    762  P        -21.4790   -4.2950  -25.0960 P.3    36  G36         0.2141
    763  C5'      -21.2240   -4.1390  -22.4840 C.3    36  G36         0.1812
    764  O5'      -21.3700   -3.4820  -23.7280 O.3    36  G36        -0.3114
    765  C4'      -21.4990   -3.1960  -21.3420 C.3    36  G36         0.1773
    766  O4'      -22.9350   -3.0570  -21.1760 O.3    36  G36        -0.3307
    767  C3'      -20.9940   -3.6530  -19.9760 C.3    36  G36         0.1860
    768  O3'      -19.6530   -3.2470  -19.7420 O.3    36  G36        -0.3112
    769  C2'      -21.9710   -3.0070  -19.0140 C.3    36  G36         0.2309
    770  O2'      -21.6440   -1.6350  -18.8470 O.3    36  G36        -0.2156
    771  C1'      -23.2700   -3.0790  -19.8030 C.3    36  G36         0.2408
    772  N1       -25.8840   -5.7560  -16.3460 N.ar   36  G36        -0.1709
    773  C2       -25.2360   -4.5580  -16.2000 C.ar   36  G36         0.2606
    774  N2       -25.3240   -4.0180  -14.9730 N.pl3  36  G36        -0.0859
    775  N3       -24.5930   -3.9580  -17.1830 N.ar   36  G36        -0.1918
    776  C4       -24.6230   -4.6700  -18.3300 C.ar   36  G36         0.1723
    777  C5       -25.2270   -5.8840  -18.5710 C.ar   36  G36         0.1748
    778  C6       -25.9310   -6.5050  -17.5050 C.ar   36  G36         0.3023
    779  O6       -26.5610   -7.5680  -17.4650 O.2    36  G36        -0.2633
    780  N7       -25.0400   -6.2740  -19.8980 N.ar   36  G36        -0.2173
    781  C8       -24.3170   -5.3200  -20.4180 C.ar   36  G36         0.1817
    782  N9       -24.0460   -4.3130  -19.5180 N.ar   36  G36        -0.2693
    783  OP1      -20.1830   -4.1260  -25.8110 O.2    36  G36        -0.5172
    784  OP2      -21.9560   -5.6610  -24.7980 O.co2  36  G36        -0.4373
    785  P        -18.6240   -4.2170  -18.9730 P.3    37  G37         0.2141
    786  C5'      -19.4340   -3.4540  -16.5830 C.3    37  G37         0.1812
    787  O5'      -19.3210   -4.4770  -17.5640 O.3    37  G37        -0.3114
    788  C4'      -20.1650   -3.9570  -15.3620 C.3    37  G37         0.1773
    789  O4'      -21.5310   -4.2870  -15.7300 O.3    37  G37        -0.3307
    790  C3'      -19.6150   -5.2480  -14.7740 C.3    37  G37         0.1860
    791  O3'      -18.4940   -5.0720  -13.9080 O.3    37  G37        -0.3112
    792  C2'      -20.8320   -5.8790  -14.1110 C.3    37  G37         0.2309
    793  O2'      -21.1130   -5.2640  -12.8640 O.3    37  G37        -0.2156
    794  C1'      -21.9390   -5.4790  -15.0850 C.3    37  G37         0.2408
    795  N1       -24.6080   -9.6250  -16.4930 N.ar   37  G37        -0.1709
    796  C2       -24.6620   -8.9610  -15.3010 C.ar   37  G37         0.2606
    797  N2       -25.5110   -9.4720  -14.3960 N.pl3  37  G37        -0.0859
    798  N3       -23.9090   -7.9060  -15.0210 N.ar   37  G37        -0.1918
    799  C4       -23.1110   -7.5490  -16.0630 C.ar   37  G37         0.1723
    800  C5       -23.0160   -8.1500  -17.2950 C.ar   37  G37         0.1748
    801  C6       -23.8070   -9.2760  -17.5700 C.ar   37  G37         0.3023
    802  O6       -23.8430   -9.9080  -18.6280 O.2    37  G37        -0.2633
    803  N7       -22.0920   -7.5180  -18.1120 N.ar   37  G37        -0.2173
    804  C8       -21.6380   -6.5300  -17.3850 C.ar   37  G37         0.1817
    805  N9       -22.2120   -6.4990  -16.1210 N.ar   37  G37        -0.2693
    806  OP1      -17.3730   -3.4420  -18.8260 O.3    37  G37        -0.4373
    807  OP2      -18.6270   -5.5080  -19.7160 O.co2  37  G37        -0.5172
    808  P        -17.3310   -6.1870  -13.9620 P.3    38  A38         0.2141
    809  C5'      -16.4880   -5.2020  -11.6800 C.3    38  A38         0.1812
    810  O5'      -16.8500   -6.3340  -12.4470 O.3    38  A38        -0.3114
    811  C4'      -17.2180   -5.1630  -10.3560 C.3    38  A38         0.1773
    812  O4'      -18.6490   -5.0920  -10.5670 O.3    38  A38        -0.3307
    813  C3'      -17.0610   -6.3390   -9.4110 C.3    38  A38         0.1860
    814  O3'      -15.8200   -6.3470   -8.7360 O.3    38  A38        -0.3112
    815  C2'      -18.2510   -6.1420   -8.4820 C.3    38  A38         0.2309
    816  O2'      -18.0150   -5.0830   -7.5560 O.3    38  A38        -0.2156
    817  C1'      -19.3190   -5.6710   -9.4740 C.3    38  A38         0.2408
    818  N1       -23.0980   -9.0580   -8.5600 N.ar   38  A38        -0.2040
    819  C2       -22.6090   -8.0440   -7.8140 C.ar   38  A38         0.2016
    820  N3       -21.6250   -7.1850   -8.0950 N.ar   38  A38        -0.2048
    821  C4       -21.1090   -7.4560   -9.3160 C.ar   38  A38         0.1692
    822  C5       -21.4970   -8.4630  -10.1800 C.ar   38  A38         0.1518
    823  C6       -22.5380   -9.3020   -9.7580 C.ar   38  A38         0.1919
    824  N6       -23.0040  -10.3070  -10.5110 N.pl3  38  A38        -0.1054
    825  N7       -20.7520   -8.4450  -11.3410 N.ar   38  A38        -0.2193
    826  C8       -19.9240   -7.4510  -11.1750 C.ar   38  A38         0.1816
    827  N9       -20.1010   -6.8060   -9.9790 N.ar   38  A38        -0.2693
    828  OP1      -16.2540   -5.6620  -14.8280 O.2    38  A38        -0.5172
    829  OP2      -17.9560   -7.5130  -14.3020 O.co2  38  A38        -0.4373
    830  P        -15.0360   -7.7280   -8.4830 P.3    39  G39         0.2141
    831  C5'      -16.4600   -8.4550   -6.3990 C.3    39  G39         0.1812
    832  O5'      -16.0950   -8.6610   -7.7480 O.3    39  G39        -0.3114
    833  C4'      -17.7170   -9.2200   -6.0500 C.3    39  G39         0.1773
    834  O4'      -18.7410   -8.9970   -7.0620 O.3    39  G39        -0.3307
    835  C3'      -17.5790  -10.7340   -5.9930 C.3    39  G39         0.1860
    836  O3'      -17.0570  -11.1810   -4.7560 O.3    39  G39        -0.3112
    837  C2'      -18.9980  -11.2080   -6.2560 C.3    39  G39         0.2309
    838  O2'      -19.8010  -11.0630   -5.0990 O.3    39  G39        -0.2156
    839  C1'      -19.4630  -10.1840   -7.2900 C.3    39  G39         0.2408
    840  N1       -20.7960  -13.3740  -10.9730 N.ar   39  G39        -0.1709
    841  C2       -21.3090  -13.2270   -9.7260 C.ar   39  G39         0.2606
    842  N2       -22.3270  -14.0440   -9.3840 N.pl3  39  G39        -0.0859
    843  N3       -20.8650  -12.3370   -8.8470 N.ar   39  G39        -0.1918
    844  C4       -19.8580  -11.6080   -9.3490 C.ar   39  G39         0.1723
    845  C5       -19.2740  -11.6740  -10.5890 C.ar   39  G39         0.1748
    846  C6       -19.7640  -12.6280  -11.5160 C.ar   39  G39         0.3023
    847  O6       -19.3870  -12.8330  -12.6550 O.2    39  G39        -0.2633
    848  N7       -18.2560  -10.7540  -10.7000 N.ar   39  G39        -0.2173
    849  C8       -18.2430  -10.1600   -9.5440 C.ar   39  G39         0.1817
    850  N9       -19.1830  -10.6280   -8.6670 N.ar   39  G39        -0.2693
    851  OP1      -13.9160   -7.3400   -7.5780 O.3    39  G39        -0.4373
    852  OP2      -14.7110   -8.4020   -9.7510 O.co2  39  G39        -0.5172
    853  P        -16.0630  -12.4440   -4.7170 P.3    40  C40         0.2141
    854  C5'      -18.1310  -13.9570   -4.2700 C.3    40  C40         0.1812
    855  O5'      -16.9980  -13.6720   -5.0600 O.3    40  C40        -0.3114
    856  C4'      -18.9520  -15.0020   -4.9540 C.3    40  C40         0.1773
    857  O4'      -19.4570  -14.4520   -6.1990 O.3    40  C40        -0.3307
    858  C3'      -18.1770  -16.2280   -5.3990 C.3    40  C40         0.1860
    859  O3'      -17.9330  -17.1460   -4.3480 O.3    40  C40        -0.3112
    860  C2'      -19.0490  -16.7680   -6.5170 C.3    40  C40         0.2309
    861  O2'      -20.2090  -17.3680   -5.9590 O.3    40  C40        -0.2156
    862  C1'      -19.4920  -15.4640   -7.1880 C.3    40  C40         0.2420
    863  N1       -18.6200  -15.0500   -8.3040 N.ar   40  C40        -0.2535
    864  C2       -18.7820  -15.6540   -9.5500 C.ar   40  C40         0.3532
    865  O2       -19.6430  -16.5450   -9.6610 O.2    40  C40        -0.2443
    866  N3       -18.0160  -15.2530  -10.5800 N.ar   40  C40        -0.1739
    867  C4       -17.1170  -14.2870  -10.3940 C.ar   40  C40         0.1759
    868  N4       -16.3740  -13.9060  -11.4310 N.pl3  40  C40        -0.1070
    869  C5       -16.9290  -13.6590   -9.1250 C.ar   40  C40         0.0566
    870  C6       -17.6990  -14.0610   -8.1210 C.ar   40  C40         0.0850
    871  OP1      -15.6310  -12.6060   -3.3110 O.3    40  C40        -0.4373
    872  OP2      -15.0730  -12.4070   -5.8100 O.co2  40  C40        -0.5172
    873  P        -16.5450  -17.9570   -4.2850 P.3    41  G41         0.2141
    874  C5'      -17.8090  -19.9300   -5.3900 C.3    41  G41         0.1812
    875  O5'      -16.7050  -19.0390   -5.4280 O.3    41  G41        -0.3114
    876  C4'      -17.8240  -20.8530   -6.5780 C.3    41  G41         0.1773
    877  O4'      -18.2240  -20.1250   -7.7650 O.3    41  G41        -0.3307
    878  C3'      -16.4950  -21.4740   -6.9640 C.3    41  G41         0.1860
    879  O3'      -16.1470  -22.5780   -6.1420 O.3    41  G41        -0.3112
    880  C2'      -16.7280  -21.8480   -8.4210 C.3    41  G41         0.2309
    881  O2'      -17.5170  -23.0230   -8.4870 O.3    41  G41        -0.2156
    882  C1'      -17.5910  -20.6780   -8.8990 C.3    41  G41         0.2408
    883  N1       -15.3920  -19.1210  -13.2630 N.ar   41  G41        -0.1709
    884  C2       -16.0660  -20.2840  -12.9760 C.ar   41  G41         0.2606
    885  N2       -16.1730  -21.1600  -13.9870 N.pl3  41  G41        -0.0859
    886  N3       -16.5900  -20.5730  -11.7970 N.ar   41  G41        -0.1918
    887  C4       -16.3940  -19.5990  -10.8940 C.ar   41  G41         0.1723
    888  C5       -15.7400  -18.3990  -11.0740 C.ar   41  G41         0.1748
    889  C6       -15.1760  -18.0960  -12.3480 C.ar   41  G41         0.3023
    890  O6       -14.5500  -17.0890  -12.7190 O.2    41  G41        -0.2633
    891  N7       -15.7560  -17.6760   -9.8940 N.ar   41  G41        -0.2173
    892  C8       -16.4090  -18.4210   -9.0450 C.ar   41  G41         0.1817
    893  N9       -16.8210  -19.6170   -9.5830 N.ar   41  G41        -0.2693
    894  OP1      -16.5930  -18.6690   -2.9890 O.3    41  G41        -0.4373
    895  OP2      -15.3730  -17.1250   -4.6280 O.co2  41  G41        -0.5172
    896  P        -14.6080  -23.0180   -5.9650 P.3    42  A42         0.2141
    897  C5'      -14.7880  -24.9300   -7.7560 C.3    42  A42         0.1812
    898  O5'      -14.2420  -23.6810   -7.3640 O.3    42  A42        -0.3114
    899  C4'      -14.3290  -25.3080   -9.1420 C.3    42  A42         0.1773
    900  O4'      -14.8630  -24.3630  -10.1090 O.3    42  A42        -0.3307
    901  C3'      -12.8250  -25.2690   -9.3890 C.3    42  A42         0.1860
    902  O3'      -12.1440  -26.4160   -8.9070 O.3    42  A42        -0.3112
    903  C2'      -12.7520  -25.1070  -10.9000 C.3    42  A42         0.2309
    904  O2'      -13.0370  -26.3440  -11.5390 O.3    42  A42        -0.2156
    905  C1'      -13.9230  -24.1530  -11.1470 C.3    42  A42         0.2408
    906  N1       -11.9280  -20.1370  -13.7850 N.ar   42  A42        -0.2040
    907  C2       -12.1870  -21.4030  -14.1350 C.ar   42  A42         0.2016
    908  N3       -12.7010  -22.3950  -13.4070 N.ar   42  A42        -0.2048
    909  C4       -12.9750  -21.9870  -12.1610 C.ar   42  A42         0.1692
    910  C5       -12.7640  -20.7180  -11.6570 C.ar   42  A42         0.1518
    911  C6       -12.2130  -19.7590  -12.5230 C.ar   42  A42         0.1919
    912  N6       -11.9660  -18.5060  -12.1560 N.pl3  42  A42        -0.1054
    913  N7       -13.1530  -20.6470  -10.3350 N.ar   42  A42        -0.2193
    914  C8       -13.5840  -21.8550  -10.0730 C.ar   42  A42         0.1816
    915  N9       -13.5070  -22.7270  -11.1290 N.ar   42  A42        -0.2693
    916  OP1      -14.5870  -24.0630   -4.9070 O.3    42  A42        -0.4373
    917  OP2      -13.7200  -21.8390   -5.8290 O.co2  42  A42        -0.5172
    918  P        -10.6610  -26.2940   -8.2850 P.3    43  C43         0.2141
    919  C5'       -9.6660  -27.1730  -10.5550 C.3    43  C43         0.1812
    920  O5'       -9.7270  -26.1500   -9.5700 O.3    43  C43        -0.3114
    921  C4'       -8.9720  -26.6880  -11.8020 C.3    43  C43         0.1773
    922  O4'       -9.7780  -25.6470  -12.4230 O.3    43  C43        -0.3307
    923  C3'       -7.6170  -26.0250  -11.5940 C.3    43  C43         0.1860
    924  O3'       -6.5440  -26.9410  -11.4330 O.3    43  C43        -0.3112
    925  C2'       -7.4980  -25.1380  -12.8230 C.3    43  C43         0.2309
    926  O2'       -7.1720  -25.9130  -13.9670 O.3    43  C43        -0.2156
    927  C1'       -8.9390  -24.6510  -12.9710 C.3    43  C43         0.2420
    928  N1        -9.1640  -23.3780  -12.2410 N.ar   43  C43        -0.2535
    929  C2        -8.8170  -22.1820  -12.8800 C.ar   43  C43         0.3532
    930  O2        -8.3560  -22.2500  -14.0270 O.2    43  C43        -0.2443
    931  N3        -8.9970  -20.9990  -12.2380 N.ar   43  C43        -0.1739
    932  C4        -9.5100  -20.9840  -11.0090 C.ar   43  C43         0.1759
    933  N4        -9.6740  -19.7980  -10.4150 N.pl3  43  C43        -0.1070
    934  C5        -9.8660  -22.1860  -10.3250 C.ar   43  C43         0.0566
    935  C6        -9.6820  -23.3460  -10.9740 C.ar   43  C43         0.0850
    936  OP1      -10.3630  -27.5930   -7.6280 O.2    43  C43        -0.5172
    937  OP2      -10.5250  -25.0580   -7.4690 O.co2  43  C43        -0.4373
    938  P         -5.2610  -26.5330  -10.5460 P.3    44  C44         0.2141
    939  C5'       -4.0010  -25.9470  -12.7720 C.3    44  C44         0.1812
    940  O5'       -4.4380  -25.5370  -11.4840 O.3    44  C44        -0.3114
    941  C4'       -3.3760  -24.8160  -13.5550 C.3    44  C44         0.1773
    942  O4'       -4.3920  -23.8520  -13.9510 O.3    44  C44        -0.3307
    943  C3'       -2.3430  -23.9740  -12.8230 C.3    44  C44         0.1860
    944  O3'       -1.0680  -24.5880  -12.7480 O.3    44  C44        -0.3112
    945  C2'       -2.3490  -22.6870  -13.6340 C.3    44  C44         0.2309
    946  O2'       -1.6280  -22.8660  -14.8390 O.3    44  C44        -0.2156
    947  C1'       -3.8370  -22.5520  -13.9680 C.3    44  C44         0.2420
    948  N1        -4.5310  -21.7200  -12.9570 N.ar   44  C44        -0.2535
    949  C2        -4.4600  -20.3340  -13.0940 C.ar   44  C44         0.3532
    950  O2        -3.8500  -19.8790  -14.0660 O.2    44  C44        -0.2443
    951  N3        -5.0640  -19.5380  -12.1790 N.ar   44  C44        -0.1739
    952  C4        -5.7080  -20.0790  -11.1460 C.ar   44  C44         0.1759
    953  N4        -6.2750  -19.2590  -10.2670 N.pl3  44  C44        -0.1070
    954  C5        -5.7910  -21.4870  -10.9670 C.ar   44  C44         0.0566
    955  C6        -5.1880  -22.2610  -11.8810 C.ar   44  C44         0.0850
    956  OP1       -4.4190  -27.7380  -10.3530 O.2    44  C44        -0.5172
    957  OP2       -5.7490  -25.7890   -9.3550 O.co2  44  C44        -0.4373
    958  P         -0.1040  -24.3100  -11.4870 P.3    45  C45         0.2141
    959  C5'        1.1920  -22.5090  -12.8650 C.3    45  C45         0.1812
    960  O5'        0.4240  -22.8290  -11.7190 O.3    45  C45        -0.3114
    961  C4'        1.3730  -21.0240  -12.9980 C.3    45  C45         0.1773
    962  O4'        0.0780  -20.3770  -13.1150 O.3    45  C45        -0.3307
    963  C3'        2.0120  -20.3280  -11.8090 C.3    45  C45         0.1860
    964  O3'        3.4200  -20.4830  -11.7540 O.3    45  C45        -0.3112
    965  C2'        1.5630  -18.8900  -12.0030 C.3    45  C45         0.2309
    966  O2'        2.3390  -18.2740  -13.0210 O.3    45  C45        -0.2156
    967  C1'        0.1370  -19.0890  -12.5300 C.3    45  C45         0.2420
    968  N1        -0.8890  -18.9730  -11.4590 N.ar   45  C45        -0.2535
    969  C2        -1.2250  -17.7000  -10.9840 C.ar   45  C45         0.3532
    970  O2        -0.6480  -16.7200  -11.4760 O.2    45  C45        -0.2443
    971  N3        -2.1560  -17.5560  -10.0050 N.ar   45  C45        -0.1739
    972  C4        -2.7590  -18.6360   -9.4910 C.ar   45  C45         0.1759
    973  N4        -3.6760  -18.4690   -8.5290 N.pl3  45  C45        -0.1070
    974  C5        -2.4390  -19.9360   -9.9630 C.ar   45  C45         0.0566
    975  C6        -1.5170  -20.0570  -10.9250 C.ar   45  C45         0.0850
    976  OP1        1.0720  -25.2040  -11.6370 O.2    45  C45        -0.5172
    977  OP2       -0.8910  -24.3030  -10.2260 O.co2  45  C45        -0.4373
    978  P          4.1690  -20.5670  -10.3330 P.3    46  U46         0.2141
    979  C5'        4.5620  -17.9860  -10.3380 C.3    46  U46         0.1812
    980  O5'        3.9840  -19.1170   -9.7080 O.3    46  U46        -0.3114
    981  C4'        4.0550  -16.7080   -9.7300 C.3    46  U46         0.1773
    982  O4'        2.6220  -16.5980   -9.9450 O.3    46  U46        -0.3307
    983  C3'        4.2050  -16.5990   -8.2260 C.3    46  U46         0.1860
    984  O3'        5.5180  -16.2430   -7.8210 O.3    46  U46        -0.3112
    985  C2'        3.1300  -15.5790   -7.8650 C.3    46  U46         0.2309
    986  O2'        3.5500  -14.2550   -8.1740 O.3    46  U46        -0.2156
    987  C1'        2.0160  -15.9720   -8.8340 C.3    46  U46         0.2420
    988  N1         1.0680  -16.9220   -8.2130 N.ar   46  U46        -0.2534
    989  C2         0.1490  -16.4000   -7.3260 C.ar   46  U46         0.3546
    990  O2         0.0870  -15.2110   -7.0590 O.2    46  U46        -0.2443
    991  N3        -0.6990  -17.3260   -6.7630 N.ar   46  U46        -0.1530
    992  C4        -0.7190  -18.6840   -7.0030 C.ar   46  U46         0.2846
    993  O4        -1.5480  -19.3860   -6.4210 O.2    46  U46        -0.2650
    994  C5         0.2590  -19.1470   -7.9370 C.ar   46  U46         0.0814
    995  C6         1.1000  -18.2710   -8.4940 C.ar   46  U46         0.0870
    996  OP1        5.6150  -20.7510  -10.6250 O.2    46  U46        -0.5172
    997  OP2        3.4510  -21.5040   -9.4280 O.co2  46  U46        -0.4373
    998  P          6.1310  -16.8190   -6.4500 P.3    47  U47         0.2141
    999  C5'        5.2940  -14.7400   -5.1330 C.3    47  U47         0.1812
   1000  O5'        5.2440  -16.1440   -5.3150 O.3    47  U47        -0.3114
   1001  C4'        4.1390  -14.2170   -4.3190 C.3    47  U47         0.1773
   1002  O4'        2.8760  -14.7400   -4.8050 O.3    47  U47        -0.3307
   1003  C3'        4.1220  -14.5920   -2.8580 C.3    47  U47         0.1860
   1004  O3'        5.0790  -13.8830   -2.0930 O.3    47  U47        -0.3112
   1005  C2'        2.6720  -14.3120   -2.4750 C.3    47  U47         0.2309
   1006  O2'        2.4570  -12.9180   -2.3270 O.3    47  U47        -0.2156
   1007  C1'        1.9380  -14.7510   -3.7440 C.3    47  U47         0.2420
   1008  N1         1.3130  -16.0910   -3.6330 N.ar   47  U47        -0.2534
   1009  C2         0.1470  -16.1970   -2.8880 C.ar   47  U47         0.3546
   1010  O2        -0.3690  -15.2530   -2.2970 O.2    47  U47        -0.2443
   1011  N3        -0.3840  -17.4660   -2.8510 N.ar   47  U47        -0.1530
   1012  C4         0.1070  -18.5930   -3.4660 C.ar   47  U47         0.2846
   1013  O4        -0.4950  -19.6530   -3.3360 O.2    47  U47        -0.2650
   1014  C5         1.3010  -18.4040   -4.2330 C.ar   47  U47         0.0814
   1015  C6         1.8410  -17.1820   -4.2830 C.ar   47  U47         0.0870
   1016  OP1        7.4900  -16.2420   -6.3140 O.3    47  U47        -0.4373
   1017  OP2        5.9300  -18.2910   -6.4070 O.co2  47  U47        -0.5172
   1018  P          5.6400  -14.5400   -0.7410 P.3    48  G48         0.2141
   1019  C5'        4.1100  -14.6840    1.3430 C.3    48  G48         0.1812
   1020  O5'        4.7230  -13.8800    0.3650 O.3    48  G48        -0.3114
   1021  C4'        2.7420  -14.1780    1.6970 C.3    48  G48         0.1773
   1022  O4'        1.7990  -14.5360    0.6510 O.3    48  G48        -0.3307
   1023  C3'        2.1790  -14.8040    2.9570 C.3    48  G48         0.1860
   1024  O3'        2.5830  -14.0910    4.1110 O.3    48  G48        -0.3112
   1025  C2'        0.6750  -14.7930    2.7240 C.3    48  G48         0.2309
   1026  O2'        0.1400  -13.5140    3.0330 O.3    48  G48        -0.2156
   1027  C1'        0.5980  -15.0070    1.2130 C.3    48  G48         0.2408
   1028  N1        -2.0670  -19.3780    1.3900 N.ar   48  G48        -0.1709
   1029  C2        -2.3790  -18.1690    1.9710 C.ar   48  G48         0.2606
   1030  N2        -3.5280  -18.0940    2.6570 N.pl3  48  G48        -0.0859
   1031  N3        -1.6310  -17.0820    1.8660 N.ar   48  G48        -0.1918
   1032  C4        -0.5180  -17.3210    1.1360 C.ar   48  G48         0.1723
   1033  C5        -0.1210  -18.4870    0.5250 C.ar   48  G48         0.1748
   1034  C6        -0.9240  -19.6360    0.6360 C.ar   48  G48         0.3023
   1035  O6        -0.7100  -20.7500    0.1330 O.2    48  G48        -0.2633
   1036  N7         1.0850  -18.3350   -0.1430 N.ar   48  G48        -0.2173
   1037  C8         1.3980  -17.0910    0.0840 C.ar   48  G48         0.1817
   1038  N9         0.4810  -16.4230    0.8430 N.ar   48  G48        -0.2693
   1039  OP1        7.0320  -14.1050   -0.4750 O.3    48  G48        -0.4373
   1040  OP2        5.3130  -15.9840   -0.8000 O.co2  48  G48        -0.5172
   1041  P          2.9490  -14.9150    5.4230 P.3    49  C49         0.2141
   1042  C5'        0.5900  -14.4030    6.4800 C.3    49  C49         0.1812
   1043  O5'        1.5200  -15.3480    5.9840 O.3    49  C49        -0.3114
   1044  C4'       -0.6820  -15.1090    6.8700 C.3    49  C49         0.1773
   1045  O4'       -1.2620  -15.7100    5.6880 O.3    49  C49        -0.3307
   1046  C3'       -0.4990  -16.2860    7.8140 C.3    49  C49         0.1860
   1047  O3'       -0.3790  -15.8900    9.1610 O.3    49  C49        -0.3112
   1048  C2'       -1.7340  -17.1160    7.5280 C.3    49  C49         0.2309
   1049  O2'       -2.8600  -16.4950    8.1160 O.3    49  C49        -0.2156
   1050  C1'       -1.8620  -16.9400    6.0200 C.3    49  C49         0.2420
   1051  N1        -1.2070  -18.0150    5.2510 N.ar   49  C49        -0.2535
   1052  C2        -1.8610  -19.2410    5.1720 C.ar   49  C49         0.3532
   1053  O2        -2.9450  -19.3610    5.7730 O.2    49  C49        -0.2443
   1054  N3        -1.3000  -20.2430    4.4640 N.ar   49  C49        -0.1739
   1055  C4        -0.1380  -20.0560    3.8410 C.ar   49  C49         0.1759
   1056  N4         0.3770  -21.0850    3.1680 N.pl3  49  C49        -0.1070
   1057  C5         0.5630  -18.8330    3.9270 C.ar   49  C49         0.0566
   1058  C6        -0.0010  -17.8390    4.6310 C.ar   49  C49         0.0850
   1059  OP1        3.5890  -14.0150    6.4070 O.3    49  C49        -0.4373
   1060  OP2        3.5950  -16.1760    4.9870 O.co2  49  C49        -0.5172
   1061  P          0.4520  -16.7930   10.1960 P.3    50  C50         0.2141
   1062  C5'       -1.6750  -18.0850   11.0630 C.3    50  C50         0.1812
   1063  O5'       -0.4490  -18.1060   10.3510 O.3    50  C50        -0.3114
   1064  C4'       -2.1300  -19.4960   11.3570 C.3    50  C50         0.1773
   1065  O4'       -2.6140  -20.1300   10.1590 O.3    50  C50        -0.3307
   1066  C3'       -1.0440  -20.4340   11.8400 C.3    50  C50         0.1860
   1067  O3'       -0.7540  -20.2350   13.2020 O.3    50  C50        -0.3112
   1068  C2'       -1.6330  -21.8030   11.5220 C.3    50  C50         0.2309
   1069  O2'       -2.6090  -22.1520   12.4990 O.3    50  C50        -0.2156
   1070  C1'       -2.3530  -21.5110   10.1970 C.3    50  C50         0.2420
   1071  N1        -1.5220  -21.8630    9.0260 N.ar   50  C50        -0.2535
   1072  C2        -1.5730  -23.1650    8.5390 C.ar   50  C50         0.3532
   1073  O2        -2.3570  -23.9600    9.0930 O.2    50  C50        -0.2443
   1074  N3        -0.7830  -23.5130    7.4840 N.ar   50  C50        -0.1739
   1075  C4         0.0390  -22.5990    6.9550 C.ar   50  C50         0.1759
   1076  N4         0.8070  -22.9350    5.9240 N.pl3  50  C50        -0.1070
   1077  C5         0.1240  -21.2680    7.4610 C.ar   50  C50         0.0566
   1078  C6        -0.6620  -20.9480    8.4930 C.ar   50  C50         0.0850
   1079  OP1        0.5150  -15.9990   11.4360 O.3    50  C50        -0.4373
   1080  OP2        1.6600  -17.3280    9.5350 O.co2  50  C50        -0.5172
   1081  P          0.6930  -20.6350   13.7710 P.3    51  G51         0.2141
   1082  C5'       -0.6030  -22.1640   15.4080 C.3    51  G51         0.1812
   1083  O5'        0.4000  -22.0630   14.4040 O.3    51  G51        -0.3114
   1084  C4'       -0.7610  -23.5920   15.8060 C.3    51  G51         0.1773
   1085  O4'       -1.2690  -24.3540   14.6660 O.3    51  G51        -0.3307
   1086  C3'        0.5620  -24.2610   16.2160 C.3    51  G51         0.1860
   1087  O3'        0.3220  -25.1430   17.3030 O.3    51  G51        -0.3112
   1088  C2'        0.9160  -25.0820   14.9890 C.3    51  G51         0.2309
   1089  O2'        1.7570  -26.1940   15.2230 O.3    51  G51        -0.2156
   1090  C1'       -0.4860  -25.5080   14.5360 C.3    51  G51         0.2408
   1091  N1         0.9500  -25.1910    9.6870 N.ar   51  G51        -0.1709
   1092  C2         1.1180  -24.2680   10.6790 C.ar   51  G51         0.2606
   1093  N2         1.7460  -23.1420   10.3350 N.pl3  51  G51        -0.0859
   1094  N3         0.6840  -24.4240   11.9200 N.ar   51  G51        -0.1918
   1095  C4         0.0620  -25.6150   12.0630 C.ar   51  G51         0.1723
   1096  C5        -0.1550  -26.6060   11.1510 C.ar   51  G51         0.1748
   1097  C6         0.3140  -26.4160    9.8350 C.ar   51  G51         0.3023
   1098  O6         0.2070  -27.1950    8.9170 O.2    51  G51        -0.2633
   1099  N7        -0.8340  -27.6820   11.6810 N.ar   51  G51        -0.2173
   1100  C8        -1.0060  -27.3320   12.9150 C.ar   51  G51         0.1817
   1101  N9        -0.5210  -26.0870   13.2000 N.ar   51  G51        -0.2693
   1102  OP1        0.9380  -19.6860   14.8560 O.3    51  G51        -0.4373
   1103  OP2        1.6570  -20.8650   12.6790 O.co2  51  G51        -0.5172
   1104  P          0.7760  -24.7250   18.7760 P.3    52  C52         0.2141
   1105  C5'        3.1240  -25.8050   19.1560 C.3    52  C52         0.1812
   1106  O5'        2.3660  -24.7200   18.6710 O.3    52  C52        -0.3114
   1107  C4'        4.5950  -25.5870   18.9010 C.3    52  C52         0.1773
   1108  O4'        4.8740  -25.7960   17.5030 O.3    52  C52        -0.3307
   1109  C3'        5.1360  -24.1960   19.1760 C.3    52  C52         0.1860
   1110  O3'        5.4040  -24.0110   20.5490 O.3    52  C52        -0.3112
   1111  C2'        6.3890  -24.1540   18.3090 C.3    52  C52         0.2309
   1112  O2'        7.4530  -24.8810   18.9370 O.3    52  C52        -0.2156
   1113  C1'        5.9370  -24.9600   17.0950 C.3    52  C52         0.2420
   1114  N1         5.4550  -24.1090   15.9770 N.ar   52  C52        -0.2535
   1115  C2         6.3560  -23.8600   14.9440 C.ar   52  C52         0.3532
   1116  O2         7.4880  -24.3440   15.0130 O.2    52  C52        -0.2443
   1117  N3         5.9510  -23.1230   13.9000 N.ar   52  C52        -0.1739
   1118  C4         4.7100  -22.6220   13.8480 C.ar   52  C52         0.1759
   1119  N4         4.3690  -21.8890   12.7750 N.pl3  52  C52        -0.1070
   1120  C5         3.7650  -22.8580   14.8870 C.ar   52  C52         0.0566
   1121  C6         4.1820  -23.6090   15.9180 C.ar   52  C52         0.0850
   1122  OP1        0.3700  -25.8620   19.6170 O.3    52  C52        -0.4373
   1123  OP2        0.3850  -23.3220   19.0330 O.co2  52  C52        -0.5172
   1124  P          5.2080  -22.5860   21.2440 P.3    53  C53         0.2141
   1125  C5'        6.4240  -20.3150   20.9270 C.3    53  C53         0.1812
   1126  O5'        6.3390  -21.6880   20.5870 O.3    53  C53        -0.3114
   1127  C4'        7.8430  -19.9220   21.2080 C.3    53  C53         0.1773
   1128  O4'        8.3500  -20.6440   22.3670 O.3    53  C53        -0.3307
   1129  C3'        8.8380  -20.2600   20.1140 C.3    53  C53         0.1860
   1130  O3'        8.7950  -19.3390   19.0360 O.3    53  C53        -0.3112
   1131  C2'       10.1540  -20.2510   20.8750 C.3    53  C53         0.2309
   1132  O2'       10.5560  -18.9110   21.1260 O.3    53  C53        -0.2156
   1133  C1'        9.7350  -20.8880   22.2020 C.3    53  C53         0.2420
   1134  N1         9.9800  -22.3540   22.1850 N.ar   53  C53        -0.2535
   1135  C2        11.3140  -22.7820   22.2420 C.ar   53  C53         0.3532
   1136  O2        12.1960  -21.9160   22.3600 O.2    53  C53        -0.2443
   1137  N3        11.6080  -24.0990   22.1880 N.ar   53  C53        -0.1739
   1138  C4        10.6290  -24.9910   22.0900 C.ar   53  C53         0.1759
   1139  N4        10.9420  -26.2860   22.0510 N.pl3  53  C53        -0.1070
   1140  C5         9.2650  -24.5860   21.9940 C.ar   53  C53         0.0566
   1141  C6         8.9820  -23.2760   22.0470 C.ar   53  C53         0.0850
   1142  OP1        5.5020  -22.7410   22.7010 O.3    53  C53        -0.4373
   1143  OP2        3.9200  -21.9920   20.8640 O.co2  53  C53        -0.5172
   1144  P          9.0640  -19.8260   17.5340 P.3    54  C54         0.2141
   1145  C5'       11.6390  -19.3630   17.9070 C.3    54  C54         0.1812
   1146  O5'       10.6000  -20.2650   17.5550 O.3    54  C54        -0.3114
   1147  C4'       12.9640  -20.0840   17.9540 C.3    54  C54         0.1773
   1148  O4'       12.9880  -21.0150   19.0750 O.3    54  C54        -0.3307
   1149  C3'       13.2630  -20.9650   16.7560 C.3    54  C54         0.1860
   1150  O3'       13.7260  -20.2530   15.6280 O.3    54  C54        -0.3112
   1151  C2'       14.2830  -21.9380   17.3120 C.3    54  C54         0.2309
   1152  O2'       15.5470  -21.2860   17.4380 O.3    54  C54        -0.2156
   1153  C1'       13.7080  -22.1780   18.7130 C.3    54  C54         0.2420
   1154  N1        12.7780  -23.3350   18.7350 N.ar   54  C54        -0.2535
   1155  C2        13.3010  -24.6340   18.7660 C.ar   54  C54         0.3532
   1156  O2        14.5280  -24.7860   18.7650 O.2    54  C54        -0.2443
   1157  N3        12.4700  -25.7080   18.7780 N.ar   54  C54        -0.1739
   1158  C4        11.1400  -25.5210   18.7780 C.ar   54  C54         0.1759
   1159  N4        10.3720  -26.6010   18.8070 N.pl3  54  C54        -0.1070
   1160  C5        10.5710  -24.2130   18.7350 C.ar   54  C54         0.0566
   1161  C6        11.4110  -23.1610   18.7120 C.ar   54  C54         0.0850
   1162  OP1        8.9040  -18.6420   16.6480 O.2    54  C54        -0.5172
   1163  OP2        8.3270  -21.0670   17.2200 O.co2  54  C54        -0.4373
   1164  P         13.4400  -20.8340   14.1720 P.3    55  G55         0.2141
   1165  C5'       15.8320  -21.9120   14.0480 C.3    55  G55         0.1812
   1166  O5'       14.4160  -22.0810   13.9930 O.3    55  G55        -0.3114
   1167  C4'       16.5830  -23.2200   13.9470 C.3    55  G55         0.1773
   1168  O4'       16.3540  -24.0380   15.1260 O.3    55  G55        -0.3307
   1169  C3'       16.2190  -24.1340   12.7910 C.3    55  G55         0.1860
   1170  O3'       16.8030  -23.7270   11.5570 O.3    55  G55        -0.3112
   1171  C2'       16.7290  -25.4830   13.2780 C.3    55  G55         0.2309
   1172  O2'       18.1500  -25.5520   13.1450 O.3    55  G55        -0.2156
   1173  C1'       16.3900  -25.4050   14.7650 C.3    55  G55         0.2408
   1174  N1        13.6200  -29.6290   15.6840 N.ar   55  G55        -0.1709
   1175  C2        14.9470  -29.5070   15.3430 C.ar   55  G55         0.2606
   1176  N2        15.6080  -30.6580   15.2050 N.pl3  55  G55        -0.0859
   1177  N3        15.5500  -28.3610   15.1210 N.ar   55  G55        -0.1918
   1178  C4        14.7290  -27.3170   15.2630 C.ar   55  G55         0.1723
   1179  C5        13.3800  -27.3330   15.5980 C.ar   55  G55         0.1748
   1180  C6        12.7400  -28.5730   15.8400 C.ar   55  G55         0.3023
   1181  O6        11.5670  -28.8300   16.1480 O.2    55  G55        -0.2633
   1182  N7        12.8810  -26.0400   15.6580 N.ar   55  G55        -0.2173
   1183  C8        13.9190  -25.2960   15.3690 C.ar   55  G55         0.1817
   1184  N9        15.0690  -25.9990   15.0960 N.ar   55  G55        -0.2693
   1185  OP1       13.8370  -19.7050   13.2860 O.2    55  G55        -0.5172
   1186  OP2       12.0480  -21.3940   14.0590 O.co2  55  G55        -0.4373
   1187  P         16.0410  -23.9410   10.1500 P.3    56  C56         0.2141
   1188  C5'       17.2770  -26.2150    9.7740 C.3    56  C56         0.1812
   1189  O5'       16.0490  -25.5110    9.9100 O.3    56  C56        -0.3114
   1190  C4'       17.0800  -27.7040    9.8960 C.3    56  C56         0.1773
   1191  O4'       16.6440  -28.0420   11.2390 O.3    56  C56        -0.3307
   1192  C3'       16.0090  -28.3180    9.0190 C.3    56  C56         0.1860
   1193  O3'       16.4030  -28.5030    7.6720 O.3    56  C56        -0.3112
   1194  C2'       15.7160  -29.6190    9.7380 C.3    56  C56         0.2309
   1195  O2'       16.7280  -30.5780    9.4820 O.3    56  C56        -0.2156
   1196  C1'       15.8100  -29.1790   11.1920 C.3    56  C56         0.2420
   1197  N1        14.4760  -28.8100   11.7120 N.ar   56  C56        -0.2535
   1198  C2        13.6880  -29.8520   12.1730 C.ar   56  C56         0.3532
   1199  O2        14.1410  -31.0050   12.0960 O.2    56  C56        -0.2443
   1200  N3        12.4350  -29.5700   12.6330 N.ar   56  C56        -0.1739
   1201  C4        11.9960  -28.3110   12.6780 C.ar   56  C56         0.1759
   1202  N4        10.7610  -28.0990   13.1780 N.pl3  56  C56        -0.1070
   1203  C5        12.8070  -27.2100   12.2310 C.ar   56  C56         0.0566
   1204  C6        14.0360  -27.5080   11.7580 C.ar   56  C56         0.0850
   1205  OP1       16.8930  -23.2960    9.1150 O.2    56  C56        -0.5172
   1206  OP2       14.6270  -23.5210   10.2540 O.co2  56  C56        -0.4373
   1207  P         15.2880  -28.4410    6.5190 P.3    57  C57         0.2141
   1208  C5'       15.0630  -31.0440    6.5810 C.3    57  C57         0.1812
   1209  O5'       14.4510  -29.7790    6.7030 O.3    57  C57        -0.3114
   1210  C4'       14.2240  -32.1290    7.2010 C.3    57  C57         0.1773
   1211  O4'       13.8320  -31.7790    8.5650 O.3    57  C57        -0.3307
   1212  C3'       12.8990  -32.4470    6.5280 C.3    57  C57         0.1860
   1213  O3'       13.0310  -33.2110    5.3350 O.3    57  C57        -0.3112
   1214  C2'       12.1670  -33.1930    7.6330 C.3    57  C57         0.2309
   1215  O2'       12.7170  -34.4930    7.7930 O.3    57  C57        -0.2156
   1216  C1'       12.5860  -32.3910    8.8610 C.3    57  C57         0.2420
   1217  N1        11.5790  -31.3730    9.2600 N.ar   57  C57        -0.2535
   1218  C2        10.4180  -31.8200    9.9120 C.ar   57  C57         0.3532
   1219  O2        10.2510  -33.0490   10.0990 O.2    57  C57        -0.2443
   1220  N3         9.5090  -30.8950   10.3100 N.ar   57  C57        -0.1739
   1221  C4         9.7030  -29.5950   10.1060 C.ar   57  C57         0.1759
   1222  N4         8.7830  -28.7110   10.5220 N.pl3  57  C57        -0.1070
   1223  C5        10.8780  -29.1210    9.4500 C.ar   57  C57         0.0566
   1224  C6        11.7730  -30.0370    9.0630 C.ar   57  C57         0.0850
   1225  OP1       16.0110  -28.5140    5.2240 O.2    57  C57        -0.5172
   1226  OP2       14.3740  -27.3080    6.7990 O.co2  57  C57        -0.4373
   1227  P         12.0900  -32.9140    4.0580 P.3    58  U58         0.2141
   1228  C5'       10.6490  -35.0440    4.5170 C.3    58  U58         0.1812
   1229  O5'       10.7160  -33.6410    4.3710 O.3    58  U58        -0.3114
   1230  C4'        9.3740  -35.4590    5.1940 C.3    58  U58         0.1773
   1231  O4'        9.2970  -34.8910    6.5310 O.3    58  U58        -0.3307
   1232  C3'        8.0750  -35.0000    4.5460 C.3    58  U58         0.1860
   1233  O3'        7.7120  -35.7470    3.4010 O.3    58  U58        -0.3112
   1234  C2'        7.0870  -35.1610    5.6810 C.3    58  U58         0.2309
   1235  O2'        6.7740  -36.5360    5.8380 O.3    58  U58        -0.2156
   1236  C1'        7.9390  -34.7030    6.8800 C.3    58  U58         0.2420
   1237  N1         7.7220  -33.2850    7.1930 N.ar   58  U58        -0.2534
   1238  C2         6.5700  -33.0460    7.9160 C.ar   58  U58         0.3546
   1239  O2         5.8180  -33.9450    8.2670 O.2    58  U58        -0.2443
   1240  N3         6.3780  -31.7400    8.1850 N.ar   58  U58        -0.1530
   1241  C4         7.1940  -30.6810    7.8420 C.ar   58  U58         0.2846
   1242  O4         6.8820  -29.5450    8.1550 O.2    58  U58        -0.2650
   1243  C5         8.3680  -31.0100    7.0880 C.ar   58  U58         0.0814
   1244  C6         8.5680  -32.2870    6.8000 C.ar   58  U58         0.0870
   1245  OP1       12.6780  -33.6140    2.8940 O.2    58  U58        -0.5172
   1246  OP2       11.7640  -31.4690    4.0140 O.co2  58  U58        -0.4373
   1247  P          6.8620  -35.0270    2.2470 P.3    59  G59         0.2141
   1248  C5'        4.4600  -35.8160    3.0370 C.3    59  G59         0.1812
   1249  O5'        5.4140  -34.7660    2.8810 O.3    59  G59        -0.3114
   1250  C4'        3.2840  -35.4610    3.9430 C.3    59  G59         0.1773
   1251  O4'        3.7430  -34.9220    5.2230 O.3    59  G59        -0.3307
   1252  C3'        2.2750  -34.4060    3.4870 C.3    59  G59         0.1860
   1253  O3'        1.3910  -34.7720    2.4370 O.3    59  G59        -0.3112
   1254  C2'        1.5640  -34.0950    4.7980 C.3    59  G59         0.2309
   1255  O2'        0.7580  -35.2000    5.1990 O.3    59  G59        -0.2156
   1256  C1'        2.7570  -34.0320    5.7380 C.3    59  G59         0.2408
   1257  N1         1.7380  -29.4200    7.5180 N.ar   59  G59        -0.1709
   1258  C2         1.0490  -30.6050    7.6110 C.ar   59  G59         0.2606
   1259  N2        -0.1050  -30.6140    8.2860 N.pl3  59  G59        -0.0859
   1260  N3         1.4520  -31.7470    7.0890 N.ar   59  G59        -0.1918
   1261  C4         2.6260  -31.6240    6.4260 C.ar   59  G59         0.1723
   1262  C5         3.3990  -30.5080    6.2670 C.ar   59  G59         0.1748
   1263  C6         2.9620  -29.2870    6.8360 C.ar   59  G59         0.3023
   1264  O6         3.5030  -28.1870    6.8170 O.2    59  G59        -0.2633
   1265  N7         4.5270  -30.8140    5.5270 N.ar   59  G59        -0.2173
   1266  C8         4.4130  -32.0940    5.2620 C.ar   59  G59         0.1817
   1267  N9         3.2820  -32.6560    5.7880 N.ar   59  G59        -0.2693
   1268  OP1        6.7380  -36.0100    1.1080 O.2    59  G59        -0.5172
   1269  OP2        7.4860  -33.6950    2.0610 O.co2  59  G59        -0.4373
   1270  P          0.6760  -33.6110    1.5570 P.3    60  G60         0.2141
   1271  C5'       -1.4940  -33.6850    3.0180 C.3    60  G60         0.1812
   1272  O5'       -0.3860  -32.9480    2.5430 O.3    60  G60        -0.3114
   1273  C4'       -2.2660  -32.9290    4.0700 C.3    60  G60         0.1773
   1274  O4'       -1.3860  -32.3180    5.0580 O.3    60  G60        -0.3307
   1275  C3'       -3.1330  -31.7690    3.6180 C.3    60  G60         0.1860
   1276  O3'       -4.3260  -32.1820    2.9730 O.3    60  G60        -0.3112
   1277  C2'       -3.3890  -31.0700    4.9410 C.3    60  G60         0.2309
   1278  O2'       -4.2500  -31.8730    5.7200 O.3    60  G60        -0.2156
   1279  C1'       -2.0030  -31.1600    5.5820 C.3    60  G60         0.2408
   1280  N1        -1.0470  -26.2190    6.4530 N.ar   60  G60        -0.1709
   1281  C2        -1.9960  -27.0390    7.0300 C.ar   60  G60         0.2606
   1282  N2        -2.7730  -26.4730    7.9470 N.pl3  60  G60        -0.0859
   1283  N3        -2.1560  -28.3100    6.7170 N.ar   60  G60        -0.1918
   1284  C4        -1.2770  -28.7180    5.7750 C.ar   60  G60         0.1723
   1285  C5        -0.2880  -27.9850    5.1560 C.ar   60  G60         0.1748
   1286  C6        -0.1280  -26.6140    5.4890 C.ar   60  G60         0.3023
   1287  O6         0.6880  -25.7810    5.0720 O.2    60  G60        -0.2633
   1288  N7         0.4040  -28.7760    4.2680 N.ar   60  G60        -0.2173
   1289  C8        -0.1600  -29.9420    4.3440 C.ar   60  G60         0.1817
   1290  N9        -1.1780  -29.9880    5.2460 N.ar   60  G60        -0.2693
   1291  OP1       -0.0160  -34.3200    0.4620 O.2    60  G60        -0.5172
   1292  OP2        1.5700  -32.4760    1.2360 O.co2  60  G60        -0.4373
   1293  P         -5.0420  -31.2120    1.9150 P.3    61  G61         0.2141
   1294  C5'       -6.5510  -29.9990    3.6690 C.3    61  G61         0.1812
   1295  O5'       -5.4920  -29.9290    2.7440 O.3    61  G61        -0.3114
   1296  C4'       -6.6510  -28.7600    4.5200 C.3    61  G61         0.1773
   1297  O4'       -5.3650  -28.4030    5.0980 O.3    61  G61        -0.3307
   1298  C3'       -7.0930  -27.4740    3.8520 C.3    61  G61         0.1860
   1299  O3'       -8.4750  -27.4530    3.5550 O.3    61  G61        -0.3112
   1300  C2'       -6.6960  -26.4450    4.9040 C.3    61  G61         0.2309
   1301  O2'       -7.6120  -26.4900    5.9850 O.3    61  G61        -0.2156
   1302  C1'       -5.3560  -27.0150    5.3810 C.3    61  G61         0.2408
   1303  N1        -2.6000  -22.8010    4.6230 N.ar   61  G61        -0.1709
   1304  C2        -3.6470  -23.0140    5.4810 C.ar   61  G61         0.2606
   1305  N2        -4.0200  -21.9820    6.2460 N.pl3  61  G61        -0.0859
   1306  N3        -4.2850  -24.1570    5.5870 N.ar   61  G61        -0.1918
   1307  C4        -3.7890  -25.1080    4.7820 C.ar   61  G61         0.1723
   1308  C5        -2.7590  -25.0110    3.8910 C.ar   61  G61         0.1748
   1309  C6        -2.0840  -23.7760    3.7830 C.ar   61  G61         0.3023
   1310  O6        -1.1440  -23.5010    3.0510 O.2    61  G61        -0.2633
   1311  N7        -2.5580  -26.2180    3.2310 N.ar   61  G61        -0.2173
   1312  C8        -3.4650  -27.0180    3.7070 C.ar   61  G61         0.1817
   1313  N9        -4.2380  -26.4000    4.6570 N.ar   61  G61        -0.2693
   1314  OP1       -6.2390  -31.9340    1.4180 O.3    61  G61        -0.4373
   1315  OP2       -4.0070  -30.6600    1.0210 O.co2  61  G61        -0.5172
   1316  P         -9.0340  -26.6790    2.2490 P.3    62  C62         0.2141
   1317  C5'       -9.4980  -24.5510    3.6610 C.3    62  C62         0.1812
   1318  O5'       -8.8250  -25.1460    2.5680 O.3    62  C62        -0.3114
   1319  C4'       -8.9180  -23.2100    4.0040 C.3    62  C62         0.1773
   1320  O4'       -7.4940  -23.3360    4.2580 O.3    62  C62        -0.3307
   1321  C3'       -8.9850  -22.1350    2.9260 C.3    62  C62         0.1860
   1322  O3'      -10.2670  -21.5370    2.7870 O.3    62  C62        -0.3112
   1323  C2'       -7.9220  -21.1650    3.4040 C.3    62  C62         0.2309
   1324  O2'       -8.3970  -20.4410    4.5270 O.3    62  C62        -0.2156
   1325  C1'       -6.8470  -22.1330    3.8960 C.3    62  C62         0.2420
   1326  N1        -5.8400  -22.4310    2.8590 N.ar   62  C62        -0.2535
   1327  C2        -4.8910  -21.4550    2.5950 C.ar   62  C62         0.3532
   1328  O2        -4.9420  -20.3800    3.2010 O.2    62  C62        -0.2443
   1329  N3        -3.9450  -21.7000    1.6830 N.ar   62  C62        -0.1739
   1330  C4        -3.9020  -22.8580    1.0430 C.ar   62  C62         0.1759
   1331  N4        -2.9280  -23.0190    0.1500 N.pl3  62  C62        -0.1070
   1332  C5        -4.8560  -23.8870    1.2840 C.ar   62  C62         0.0566
   1333  C6        -5.7970  -23.6330    2.2160 C.ar   62  C62         0.0850
   1334  OP1      -10.5080  -26.8770    2.2790 O.3    62  C62        -0.4373
   1335  OP2       -8.2290  -27.0470    1.0530 O.co2  62  C62        -0.5172
   1336  P        -10.7320  -20.9630    1.3450 P.3    63  A63         0.2141
   1337  C5'      -10.3990  -18.4650    1.9590 C.3    63  A63         0.1812
   1338  O5'       -9.9730  -19.5760    1.1980 O.3    63  A63        -0.3114
   1339  C4'       -9.4270  -17.3160    1.9140 C.3    63  A63         0.1773
   1340  O4'       -8.0850  -17.7500    2.2560 O.3    63  A63        -0.3307
   1341  C3'       -9.2600  -16.6480    0.5620 C.3    63  A63         0.1860
   1342  O3'      -10.3160  -15.7580    0.2860 O.3    63  A63        -0.3112
   1343  C2'       -7.9060  -15.9680    0.6940 C.3    63  A63         0.2309
   1344  O2'       -8.0110  -14.7890    1.4790 O.3    63  A63        -0.2156
   1345  C1'       -7.1380  -17.0040    1.5070 C.3    63  A63         0.2408
   1346  N1        -3.0070  -17.6670   -1.4670 N.ar   63  A63        -0.2040
   1347  C2        -3.4340  -16.6170   -0.7540 C.ar   63  A63         0.2016
   1348  N3        -4.5270  -16.5030   -0.0020 N.ar   63  A63        -0.2048
   1349  C4        -5.2220  -17.6460   -0.0200 C.ar   63  A63         0.1692
   1350  C5        -4.9100  -18.7970   -0.6990 C.ar   63  A63         0.1518
   1351  C6        -3.7420  -18.7950   -1.4690 C.ar   63  A63         0.1919
   1352  N6        -3.3390  -19.8470   -2.1790 N.pl3  63  A63        -0.1054
   1353  N7        -5.8660  -19.7720   -0.4940 N.ar   63  A63        -0.2193
   1354  C8        -6.7280  -19.2010    0.2970 C.ar   63  A63         0.1816
   1355  N9        -6.3980  -17.9220    0.6350 N.ar   63  A63        -0.2693
   1356  OP1      -12.1600  -20.6130    1.5190 O.3    63  A63        -0.4373
   1357  OP2      -10.2640  -21.8860    0.3040 O.co2  63  A63        -0.5172
   1358  P        -10.6860  -15.4210   -1.2370 P.3    64  A64         0.2141
   1359  C5'       -9.1810  -13.2660   -1.1210 C.3    64  A64         0.1813
   1360  O5'       -9.4590  -14.5280   -1.7100 O.3    64  A64        -0.3114
   1361  C4'       -7.9740  -12.6320   -1.7670 C.3    64  A64         0.1801
   1362  O4'       -6.7910  -13.4230   -1.4850 O.3    64  A64        -0.3306
   1363  C3'       -8.0000  -12.5520   -3.2890 C.3    64  A64         0.2161
   1364  O3'       -8.7760  -11.4740   -3.7770 O.3    64  A64        -0.2175
   1365  C2'       -6.5210  -12.4480   -3.6320 C.3    64  A64         0.2337
   1366  O2'       -6.0460  -11.1360   -3.3720 O.3    64  A64        -0.2155
   1367  C1'       -5.9110  -13.3870   -2.5890 C.3    64  A64         0.2409
   1368  N1        -2.7350  -16.5650   -5.0820 N.ar   64  A64        -0.2040
   1369  C2        -2.6360  -15.2820   -4.7010 C.ar   64  A64         0.2016
   1370  N3        -3.4940  -14.5140   -4.0510 N.ar   64  A64        -0.2048
   1371  C4        -4.6100  -15.2170   -3.7780 C.ar   64  A64         0.1692
   1372  C5        -4.8650  -16.5440   -4.1040 C.ar   64  A64         0.1518
   1373  C6        -3.8580  -17.2490   -4.7840 C.ar   64  A64         0.1919
   1374  N6        -3.9420  -18.5280   -5.1710 N.pl3  64  A64        -0.1054
   1375  N7        -6.1220  -16.9150   -3.6630 N.ar   64  A64        -0.2193
   1376  C8        -6.5900  -15.8260   -3.0910 C.ar   64  A64         0.1816
   1377  N9        -5.7270  -14.7570   -3.1150 N.ar   64  A64        -0.2693
   1378  OP1      -11.9200  -14.5900   -1.1760 O.3    64  A64        -0.4373
   1379  OP2      -10.6180  -16.6580   -2.0510 O.co2  64  A64        -0.5172
@<TRIPOS>BOND
     1   337   338   ar
     2   337   342   ar
     3   444   443    1
     4   460   462    1
     5   460   461    1
     6   338   339   ar
     7   462   463    1
     8   462   464    1
     9   477   459    2
    10   760   739    2
    11   500   479    2
    12   467   466    1
    13   704   703    1
    14   465   464    1
    15   465   479    1
    16   737   716    2
    17   717   719    1
    18   717   718    1
    19   343   342    1
    20   722   739    1
    21   722   721    1
    22   342   341   ar
    23   442   459    1
    24   442   441    1
    25   463   468    1
    26   719   721    1
    27   719   720    1
    28   407   406    1
    29   464   466    1
    30   339   340   ar
    31   724   723    1
    32   702   716    1
    33   702   701    1
    34   461   459    1
    35   459   478    1
    36   739   761    1
    37   739   741    1
    38   479   481    1
    39   479   501    1
    40   443   441    1
    41   443   445    1
    42   439   441    1
    43   439   440    1
    44   439   437    1
    45   480   481    1
    46   480   482    1
    47   466   468    1
    48   721   723    1
    49   716   718    1
    50   716   738    1
    51   468   469    1
    52   720   725    1
    53   703   701    1
    54   703   705    1
    55   406   401   ar
    56   406   405   ar
    57   341   340   ar
    58   341   344   ar
    59   440   445    1
    60   699   701    1
    61   699   697    1
    62   699   700    1
    63   412   391    2
    64   445   456    1
    65   340   346   ar
    66   401   402   ar
    67   740   741    1
    68   740   742    1
    69   437   438    1
    70   723   725    1
    71   482   483    1
    72   482   484    1
    73   705   700    1
    74   705   706    1
    75   697   698    1
    76   379   378    1
    77   725   736    1
    78   405   408   ar
    79   405   404   ar
    80   408   409   ar
    81   344   345   ar
    82   378   376    1
    83   378   380    1
    84   483   488    1
    85   402   403   ar
    86   421   420    1
    87   449   447   ar
    88   449   450   ar
    89   425   424    1
    90   708   707    2
    91   346   345   ar
    92   346   336    1
    93   448   447    1
    94   469   476   ar
    95   469   470   ar
    96   376   377    1
    97   376   374    1
    98   684   683    1
    99   742   743    1
   100   742   744    1
   101   389   371    2
   102   485   484    1
   103   485   502    1
   104   456   450   ar
   105   456   455   ar
   106   391   377    1
   107   391   393    1
   108   391   411    1
   109   372   374    1
   110   372   373    1
   111   438   436    1
   112   390   371    1
   113   404   403   ar
   114   404   410   ar
   115   409   410   ar
   116   476   475   ar
   117   484   486    1
   118   471   470    2
   119   523   502    2
   120   336   331    1
   121   336   334    1
   122   447   446   ar
   123   457   436    2
   124   386   385    1
   125   450   451   ar
   126   698   696    1
   127   706   707   ar
   128   706   713   ar
   129   385   387   ar
   130   385   384   ar
   131   387   388   ar
   132   745   744    1
   133   745   762    1
   134   384   382   ar
   135   743   748    1
   136   393   392    1
   137   736   735   ar
   138   736   730   ar
   139   371   373    1
   140   371   355    1
   141   388   381   ar
   142   470   472   ar
   143   783   762    2
   144   707   709   ar
   145   382   381   ar
   146   382   383    2
   147   381   380    1
   148   420   422    1
   149   420   418    1
   150   374   375    1
   151   410   400    1
   152   487   486    1
   153   424   426   ar
   154   424   423   ar
   155   426   427   ar
   156   488   486    1
   157   488   499    1
   158   380   375    1
   159   714   696    2
   160   335   334    1
   161   744   746    1
   162   331   330    1
   163   436   419    1
   164   436   458    1
   165   502   524    1
   166   502   504    1
   167   688   687    2
   168   735   734   ar
   169   683   685    1
   170   683   681    1
   171   455   454   ar
   172   419   418    1
   173   370   349    2
   174   395   400    1
   175   395   394    1
   176   682   696    1
   177   682   681    1
   178   762   784    1
   179   762   764    1
   180   334   332    1
   181   696   715    1
   182   422   417    1
   183   422   433    1
   184   475   473   ar
   185   498   499   ar
   186   498   497   ar
   187   713   712   ar
   188   446   452   ar
   189   729   730   ar
   190   729   727   ar
   191   730   731   ar
   192   418   416    1
   193   499   493   ar
   194   400   398    1
   195   451   454   ar
   196   451   452   ar
   197   333   332    1
   198   333   349    1
   199   685   680    1
   200   685   686    1
   201   392   394    1
   202   709   710   ar
   203   472   473   ar
   204   748   746    1
   205   748   759    1
   206   681   679    1
   207   423   429   ar
   208   747   746    1
   209   355   354    1
   210   504   503    1
   211   427   433   ar
   212   427   428   ar
   213   758   759   ar
   214   758   757   ar
   215   417   416    1
   216   687   686   ar
   217   687   689   ar
   218   416   414    1
   219   394   396    1
   220   330   332    1
   221   330   328    1
   222   734   731   ar
   223   349   351    1
   224   349   369    1
   225   433   432   ar
   226   679   680    1
   227   679   677    1
   228   473   474    2
   229   452   453    2
   230   497   494   ar
   231   759   753   ar
   232   108    90    2
   233   764   763    1
   234   712   710   ar
   235   686   693   ar
   236   731   732   ar
   237   347   327    2
   238   354   356    1
   239   354   352    1
   240   710   711    1
   241   727   728    1
   242   727   726   ar
   243   398   396    1
   244   398   399    1
   245   493   494   ar
   246   493   492   ar
   247   689   690   ar
   248   757   754   ar
   249   131   110    2
   250   348   327    1
   251   329   328    1
   252   329   327    1
   253   351   350    1
   254   429   428   ar
   255   429   430    2
   256   428   431   ar
   257   665   664   ar
   258   665   666   ar
   259   503   505    1
   260   327   310    1
   261   494   495   ar
   262   396   397    1
   263   414   415    1
   264   356   357    1
   265   356   358    1
   266   492   490   ar
   267   350   352    1
   268   677   678    1
   269   365   364    1
   270   359   364   ar
   271   359   360   ar
   272   664   669   ar
   273   432   431   ar
   274   364   363   ar
   275   360   361   ar
   276   753   754   ar
   277   753   752   ar
   278   415   413    1
   279   763   765    1
   280   352   353    1
   281   666   667   ar
   282   693   692   ar
   283   726   732   ar
   284   732   733    2
   285    90    76    1
   286    90    92    1
   287    90   109    1
   288   363   362   ar
   289   363   366   ar
   290   397   413    1
   291   361   362   ar
   292   754   755   ar
   293   506   505    1
   294   506   511    1
   295   362   368   ar
   296    76    75    1
   297   690   692   ar
   298   690   691    1
   299    91    92    1
   300    91    93    1
   301   505   507    1
   302   366   367   ar
   303   110    96    1
   304   110   132    1
   305   110   112    1
   306    96    95    1
   307   368   367   ar
   308   368   358    1
   309    88    70    2
   310   678   676    1
   311   752   750   ar
   312   495   496    2
   313   495   489   ar
   314   358   353    1
   315   662   661    1
   316   490   489   ar
   317   490   491    1
   318   669   670    1
   319   669   668   ar
   320   413   434    2
   321   413   435    1
   322   521   520   ar
   323   521   522   ar
   324   310   309    1
   325   765   766    1
   326   765   767    1
   327    71    73    1
   328    71    72    1
   329    93    95    1
   330    93    94    1
   331   766   771    1
   332   667   668   ar
   333   667   673   ar
   334    73    75    1
   335    73    74    1
   336   755   756    2
   337   755   749   ar
   338   661   663    1
   339   661   659    1
   340   112   111    1
   341    95    97    1
   342   520   517   ar
   343   511   522    1
   344   511   509    1
   345    75    77    1
   346    78    77    1
   347   325   304    2
   348   507   508    1
   349   507   509    1
   350   326   304    1
   351   668   671   ar
   352   522   516   ar
   353   309   311    1
   354   309   307    1
   355    72    70    1
   356   750   749   ar
   357   750   751    1
   358   781   780   ar
   359   781   782   ar
   360    70    53    1
   361    70    89    1
   362   508   525    1
   363   663   673    1
   364   663   658    1
   365   546   525    2
   366   676   694    2
   367   676   660    1
   368   676   695    1
   369   111   113    1
   370   673   672   ar
   371   304   306    1
   372   304   290    1
   373   306   305    1
   374    77    79    1
   375   767   768    1
   376   767   769    1
   377   660   659    1
   378    53    52    1
   379   509   510    1
   380   547   525    1
   381   311   312    1
   382   311   313    1
   383   780   777   ar
   384    94    99    1
   385   771   782    1
   386   771   769    1
   387    98    97    1
   388   768   785    1
   389   807   785    2
   390   525   527    1
   391   659   657    1
   392   517   516   ar
   393   517   518   ar
   394    74    79    1
   395    97    99    1
   396   321   320    2
   397   782   776   ar
   398   516   515   ar
   399   305   307    1
   400   322   323   ar
   401   322   319   ar
   402   152   133    2
   403   671   672   ar
   404   542   541    2
   405   307   308    1
   406   323   324   ar
   407   320   319   ar
   408   320   314   ar
   409   319   318   ar
   410   543   544   ar
   411   543   540   ar
   412    55    54    1
   413    79    80    1
   414   769   770    1
   415   151   133    1
   416   658   657    1
   417   785   806    1
   418   785   787    1
   419   314   315   ar
   420   324   318   ar
   421   324   313    1
   422   318   317   ar
   423    99   100    1
   424   113   114    1
   425   113   115    1
   426   303   284    2
   427   657   655    1
   428   313   308    1
   429   518   519    2
   430   518   512   ar
   431   802   801    2
   432   544   545   ar
   433   315   317   ar
   434   315   316    1
   435   302   284    1
   436   777   776   ar
   437   777   778   ar
   438    52    54    1
   439    52    50    1
   440   290   289    1
   441   133   116    1
   442   133   135    1
   443   107   100   ar
   444   107   106   ar
   445   515   513   ar
   446   541   540   ar
   447   541   535   ar
   448   776   775   ar
   449   116   115    1
   450   649   648    1
   451   647   648   ar
   452   647   645   ar
   453   540   539   ar
   454    54    56    1
   455   646   645    2
   456    50    48    1
   457    50    51    1
   458   527   526    1
   459   803   804   ar
   460   803   800   ar
   461   233   232    2
   462   114   119    1
   463   564   563    1
   464   284   286    1
   465   284   267    1
   466   100   101   ar
   467   115   117    1
   468    48    49    1
   469    80    87   ar
   470    80    81   ar
   471   283   261    2
   472   231   232   ar
   473   231   229   ar
   474   259   238    2
   475    68    47    2
   476   170   169    2
   477   282   261    1
   478   289   291    1
   479   289   287    1
   480   648   650   ar
   481   645   644   ar
   482   106   104   ar
   483   801   800   ar
   484   801   795   ar
   485   787   786    1
   486   286   285    1
   487   230   229    2
   488   512   513   ar
   489    87    86   ar
   490   778   779    2
   491   778   772   ar
   492   513   514    1
   493   232   234   ar
   494   804   805   ar
   495   545   539   ar
   496   545   534    1
   497   800   799   ar
   498   655   656    1
   499   535   536   ar
   500    82    81    2
   501   526   528    1
   502   775   773   ar
   503   529   534    1
   504   529   528    1
   505   539   538   ar
   506   260   238    1
   507   229   228   ar
   508   129   128   ar
   509   129   130   ar
   510   135   134    1
   511   299   298    1
   512    49    47    1
   513   261   263    1
   514   261   244    1
   515    81    83   ar
   516   656   654    1
   517   285   287    1
   518    51    56    1
   519   300   298   ar
   520   300   301   ar
   521    56    67    1
   522   291   292    1
   523   291   293    1
   524   629   628    1
   525   238   240    1
   526   238   224    1
   527   298   297   ar
   528   563   558   ar
   529   563   562   ar
   530   101   102    2
   531   101   103   ar
   532   119   117    1
   533   119   130    1
   534   267   266    1
   535   301   294   ar
   536   786   788    1
   537   117   118    1
   538   287   288    1
   539   534   532    1
   540    47    30    1
   541    47    69    1
   542   128   125   ar
   543   795   796   ar
   544   169   163   ar
   545   169   168   ar
   546   149   150   ar
   547   149   147   ar
   548    86    84   ar
   549   772   773   ar
   550   528   530    1
   551   644   651   ar
   552   644   643    1
   553   650   651   ar
   554   130   124   ar
   555   297   295   ar
   556   104   103   ar
   557   104   105    1
   558   565   562   ar
   559   565   566   ar
   560   234   235   ar
   561   148   147    2
   562   773   774    1
   563   536   538   ar
   564   536   537    1
   565   805   799   ar
   566   805   794    1
   567   240   239    1
   568   294   295   ar
   569   294   293    1
   570   263   262    1
   571   225   226    1
   572   225   223    1
   573   225   227    1
   574   799   798   ar
   575   558   559   ar
   576   134   136    1
   577   641   642    1
   578   641   643    1
   579   641   639    1
   580   228   235   ar
   581   228   227    1
   582   175   153    2
   583   295   296    2
   584   244   243    1
   585   171   168   ar
   586   171   172   ar
   587   562   561   ar
   588    83    84   ar
   589   266   264    1
   590   266   268    1
   591   163   164   ar
   592   150   143   ar
   593    30    29    1
   594   293   288    1
   595   789   788    1
   596   789   794    1
   597    67    61   ar
   598    67    66   ar
   599    60    61   ar
   600    60    58   ar
   601   147   146   ar
   602   239   241    1
   603   643   638    1
   604   168   167   ar
   605   628   627   ar
   606   628   630   ar
   607    32    31    1
   608    84    85    2
   609   224   223    1
   610   262   264    1
   611   654   675    2
   612   654   674    1
   613   654   640    1
   614   627   625   ar
   615    59    58    1
   616   223   221    1
   617   788   790    1
   618   213   212    1
   619   796   798   ar
   620   796   797    1
   621   530   532    1
   622   530   531    1
   623   227   222    1
   624    61    62   ar
   625   125   124   ar
   626   125   126   ar
   627   532   533    1
   628   243   241    1
   629   243   245    1
   630   794   792    1
   631   566   567   ar
   632   124   123   ar
   633    58    57   ar
   634    66    65   ar
   635   639   640    1
   636   639   637    1
   637   569   548    2
   638   264   265    1
   639   946   945    1
   640   828   808    2
   641   268   269    1
   642   268   270    1
   643   172   173   ar
   644   790   792    1
   645   790   791    1
   646   559   560   ar
   647   241   242    1
   648   136   138    1
   649   136   137    1
   650    31    29    1
   651    31    33    1
   652   630   631   ar
   653   153   139    1
   654   153   174    1
   655   153   155    1
   656   561   567   ar
   657   561   560   ar
   658   279   280   ar
   659   279   276   ar
   660    29    27    1
   661   138   139    1
   662   138   140    1
   663   280   281   ar
   664   137   142    1
   665   164   165    1
   666   164   166   ar
   667   143   142    1
   668   143   144   ar
   669   146   144   ar
   670   829   808    1
   671   167   173   ar
   672   167   166   ar
   673   625   626    2
   674   625   624   ar
   675   638   637    1
   676   212   211   ar
   677   212   214   ar
   678    62    65   ar
   679    62    63   ar
   680   907   906   ar
   681   907   908   ar
   682   792   793    1
   683   531   548    1
   684   211   209   ar
   685   278   277    2
   686   126   127    2
   687   126   120   ar
   688   950   949    2
   689   930   929    2
   690   276   277   ar
   691   276   275   ar
   692   567   557    1
   693   222   221    1
   694   885   884    1
   695   123   121   ar
   696   947   942    1
   697   947   945    1
   698   947   948    1
   699   926   925    1
   700   808   791    1
   701   808   810    1
   702   281   270    1
   703   281   275   ar
   704   942   941    1
   705    57    63   ar
   706    36    35    1
   707   221   219    1
   708   277   271   ar
   709   906   911   ar
   710   265   270    1
   711   245   246    1
   712   245   247    1
   713   173   162    1
   714   637   635    1
   715   142   140    1
   716   155   154    1
   717   144   145    2
   718   548   568    1
   719   548   550    1
   720   275   274   ar
   721   945   943    1
   722    27    25    1
   723    27    28    1
   724   941   943    1
   725   941   939    1
   726   242   247    1
   727   197   176    2
   728   631   624   ar
   729    63    64    2
   730   908   909   ar
   731   257   256   ar
   732   257   258   ar
   733   140   141    1
   734   271   272   ar
   735    37    35   ar
   736    37    38   ar
   737   883   884   ar
   738   883   889   ar
   739   624   623    1
   740    33    28    1
   741    33    44    1
   742   256   253   ar
   743    35    34   ar
   744   274   272   ar
   745   214   215   ar
   746   962   961    1
   747   962   967    1
   748   949   948   ar
   749   949   951   ar
   750   636   635    1
   751   636   634    1
   752   966   965    1
   753   219   220    1
   754   272   273    1
   755   961   959    1
   756   961   963    1
   757   884   886   ar
   758   120   121   ar
   759   927   925    1
   760   927   922    1
   761   927   928    1
   762   948   955   ar
   763   209   210    2
   764   209   208   ar
   765   121   122    1
   766   247   258    1
   767   258   252   ar
   768   653   634    2
   769   929   928   ar
   770   929   931   ar
   771   959   960    1
   772    25    26    1
   773   943   944    1
   774   925   923    1
   775   939   940    1
   776   550   549    1
   777   944   958    1
   778   890   889    2
   779   847   846    2
   780   557   552    1
   781   557   555    1
   782   253   252   ar
   783   253   254   ar
   784   967   965    1
   785   967   968    1
   786   911   912    1
   787   911   910   ar
   788    38    44   ar
   789    38    39   ar
   790   196   176    1
   791   810   809    1
   792   552   551    1
   793   922   921    1
   794    44    43   ar
   795   162   157    1
   796   162   160    1
   797   889   888   ar
   798   252   251   ar
   799   192   191    1
   800   176   159    1
   801   176   178    1
   802    34    40   ar
   803   158   160    1
   804   158   156    1
   805   158   159    1
   806   154   156    1
   807   928   935   ar
   808   931   932   ar
   809   951   952   ar
   810   909   910   ar
   811   909   915   ar
   812   255   254    2
   813   254   248   ar
   814   634   652    1
   815   634   620    1
   816    26    24    1
   817   621   623    1
   818   621   619    1
   819   621   622    1
   820   157   156    1
   821   160   161    1
   822    45    24    2
   823   215   208   ar
   824   965   963    1
   825   623   618    1
   826   555   556    1
   827   555   553    1
   828   208   207    1
   829   955   954   ar
   830   963   964    1
   831   921   923    1
   832   921   919    1
   833   886   887   ar
   834   964   978    1
   835   251   249   ar
   836   193   194   ar
   837   193   190   ar
   838   960   958    1
   839   809   811    1
   840   549   551    1
   841   910   913   ar
   842   220   218    1
   843   976   958    2
   844   923   924    1
   845   619   620    1
   846   619   617    1
   847    39    40   ar
   848    39    42   ar
   849   904   903    1
   850   846   840   ar
   851   846   845   ar
   852   581   582   ar
   853   581   580   ar
   854   958   977    1
   855   940   938    1
   856   970   969    2
   857   248   249   ar
   858   968   969   ar
   859   968   975   ar
   860    43    42   ar
   861   924   938    1
   862   868   867    1
   863    40    41    2
   864   825   826   ar
   865   825   822   ar
   866   249   250    1
   867   600   599    1
   868   551   553    1
   869   582   583   ar
   870   178   177    1
   871    24    46    1
   872    24     7    1
   873   826   827   ar
   874   905   915    1
   875   905   903    1
   876   905   900    1
   877   952   954   ar
   878   952   953    1
   879   237   218    2
   880   915   914   ar
   881   191   190   ar
   882   191   186   ar
   883   888   887   ar
   884   888   891   ar
   885   618   617    1
   886   932   933    1
   887   932   934   ar
   888   969   971   ar
   889   935   934   ar
   890   840   841   ar
   891   194   195   ar
   892   578   577    1
   893   975   974   ar
   894   580   585   ar
   895   903   901    1
   896   190   189   ar
   897   887   893   ar
   898   205   207    1
   899   205   203    1
   900   205   206    1
   901   553   554    1
   902   848   845   ar
   903   848   849   ar
   904   207   202    1
   905   996   978    2
   906   845   844   ar
   907   866   867   ar
   908   866   864   ar
   909   812   811    1
   910   812   817    1
   911   919   920    1
   912   938   956    2
   913   938   957    1
   914   218   204    1
   915   218   236    1
   916   824   823    1
   917   617   615    1
   918    13    12    1
   919   596   595    1
   920   596   601    1
   921   867   869   ar
   922   595   593    1
   923   595   597    1
   924   811   813    1
   925   979   981    1
   926   979   980    1
   927   913   914   ar
   928   978   980    1
   929   978   997    1
   930   601   599    1
   931   601   611    1
   932   217   198    2
   933   822   823   ar
   934   822   821   ar
   935   615   616    1
   936   583   589   ar
   937   583   584   ar
   938   604   603   ar
   939   604   605   ar
   940   900   899    1
   941   203   204    1
   942   203   201    1
   943   186   187   ar
   944   599   597    1
   945   579   577    1
   946   579   589    1
   947   579   574    1
   948   971   972   ar
   949     7     6    1
   950   827   817    1
   951   827   821   ar
   952   974   972   ar
   953   598   597    1
   954   598   614    1
   955   982   981    1
   956   982   987    1
   957   177   179    1
   958   891   892   ar
   959   577   575    1
   960   585   584   ar
   961   585   586    1
   962   603   602   ar
   963   823   818   ar
   964   852   830    2
   965   593   594    1
   966   981   983    1
   967   841   842    1
   968   841   843   ar
   969     9     8    1
   970   554   570    1
   971   195   189   ar
   972   195   185    1
   973   865   864    2
   974   189   188   ar
   975    12    14   ar
   976    12    11   ar
   977   893   892   ar
   978   893   882    1
   979   589   588   ar
   980   920   918    1
   981   864   863   ar
   982   849   850   ar
   983   202   201    1
   984   972   973    1
   985   817   815    1
   986   584   587   ar
   987   813   814    1
   988   813   815    1
   989   901   899    1
   990   901   902    1
   991   844   843   ar
   992   844   850   ar
   993   821   820   ar
   994     8     6    1
   995     8    10    1
   996   200   198    1
   997   200   199    1
   998   633   614    2
   999   611   605   ar
  1000   611   610   ar
  1001   605   606   ar
  1002   574   573    1
  1003    14    15   ar
  1004    11    17   ar
  1005   899   897    1
  1006   869   870   ar
  1007   616   614    1
  1008   180   179    1
  1009   180   185    1
  1010     6     4    1
  1011   201   199    1
  1012   198   182    1
  1013   198   216    1
  1014   187   188   ar
  1015   902   918    1
  1016   882   880    1
  1017   882   877    1
  1018   614   632    1
  1019   179   181    1
  1020   987   988    1
  1021   987   985    1
  1022   602   607   ar
  1023   181   182    1
  1024   181   183    1
  1025   814   830    1
  1026   850   839    1
  1027   573   575    1
  1028   573   571    1
  1029   185   183    1
  1030   818   819   ar
  1031   575   576    1
  1032   588   587   ar
  1033   995   988   ar
  1034   995   994   ar
  1035   881   880    1
  1036   594   592    1
  1037   830   832    1
  1038   830   851    1
  1039   815   816    1
  1040   880   878    1
  1041   576   592    1
  1042   863   870   ar
  1043   863   862    1
  1044    15    16   ar
  1045    15    21   ar
  1046   918   936    2
  1047   918   937    1
  1048    17    18    2
  1049    17    16   ar
  1050   983   985    1
  1051   983   984    1
  1052   988   989   ar
  1053   570   590    2
  1054   570   591    1
  1055   570   572    1
  1056   610   609   ar
  1057   986   985    1
  1058   606   607   ar
  1059   606   609   ar
  1060   820   819   ar
  1061   183   184    1
  1062   607   608    1
  1063   994   992   ar
  1064    10    21    1
  1065    10     5    1
  1066   984   998    1
  1067    16    19   ar
  1068   877   876    1
  1069   897   898    1
  1070   832   831    1
  1071    21    20   ar
  1072     4     5    1
  1073     4     2    1
  1074   612   592    2
  1075   592   613    1
  1076   572   571    1
  1077   898   896    1
  1078   989   990    2
  1079   989   991   ar
  1080   839   834    1
  1081   839   837    1
  1082   862   860    1
  1083   862   857    1
  1084   834   833    1
  1085   992   991   ar
  1086   992   993    2
  1087   878   876    1
  1088   878   879    1
  1089    19    20   ar
  1090     2     3    1
  1091   876   874    1
  1092   860   861    1
  1093   860   858    1
  1094   998  1017    2
  1095   998  1016    1
  1096   998  1000    1
  1097     3     1    1
  1098   831   833    1
  1099   837   835    1
  1100   837   838    1
  1101   857   856    1
  1102   879   896    1
  1103   833   835    1
  1104   835   836    1
  1105    22     1    1
  1106   896   917    2
  1107   896   916    1
  1108     1    23    1
  1109   872   853    2
  1110   875   874    1
  1111   875   873    1
  1112   858   856    1
  1113   858   859    1
  1114  1000   999    1
  1115  1374  1373    1
  1116   999  1001    1
  1117  1368  1373   ar
  1118  1368  1369   ar
  1119   855   853    1
  1120   855   854    1
  1121   856   854    1
  1122  1002  1001    1
  1123  1002  1007    1
  1124  1373  1372   ar
  1125   836   853    1
  1126   853   871    1
  1127  1369  1370   ar
  1128   895   873    2
  1129   859   873    1
  1130  1001  1003    1
  1131   873   894    1
  1132  1015  1014   ar
  1133  1015  1008   ar
  1134  1014  1012   ar
  1135  1372  1371   ar
  1136  1372  1375   ar
  1137  1370  1371   ar
  1138  1371  1377   ar
  1139  1364  1363    1
  1140  1007  1008    1
  1141  1007  1005    1
  1142  1375  1376   ar
  1143  1008  1009   ar
  1144  1365  1366    1
  1145  1365  1363    1
  1146  1365  1367    1
  1147  1012  1013    2
  1148  1012  1011   ar
  1149  1363  1361    1
  1150  1377  1376   ar
  1151  1377  1367    1
  1152  1009  1011   ar
  1153  1009  1010    2
  1154  1003  1005    1
  1155  1003  1004    1
  1156  1367  1362    1
  1157  1005  1006    1
  1158  1352  1351    1
  1159  1004  1018    1
  1160  1379  1358    2
  1161  1361  1362    1
  1162  1361  1359    1
  1163  1360  1358    1
  1164  1360  1359    1
  1165  1351  1346   ar
  1166  1351  1350   ar
  1167  1346  1347   ar
  1168  1358  1378    1
  1169  1358  1342    1
  1170  1040  1018    2
  1171  1347  1348   ar
  1172  1018  1039    1
  1173  1018  1020    1
  1174  1350  1353   ar
  1175  1350  1349   ar
  1176  1353  1354   ar
  1177  1036  1037   ar
  1178  1036  1033   ar
  1179  1349  1348   ar
  1180  1349  1355   ar
  1181  1037  1038   ar
  1182  1035  1034    2
  1183  1331  1330    1
  1184  1342  1341    1
  1185  1354  1355   ar
  1186  1357  1336    2
  1187  1020  1019    1
  1188  1291  1270    2
  1189  1033  1034   ar
  1190  1033  1032   ar
  1191  1341  1343    1
  1192  1341  1339    1
  1193  1355  1345    1
  1194  1034  1028   ar
  1195  1022  1027    1
  1196  1022  1021    1
  1197  1343  1344    1
  1198  1343  1345    1
  1199  1038  1032   ar
  1200  1038  1027    1
  1201  1315  1293    2
  1202  1330  1332   ar
  1203  1330  1329   ar
  1204  1335  1316    2
  1205  1268  1247    2
  1206  1032  1031   ar
  1207  1338  1336    1
  1208  1338  1337    1
  1209  1027  1025    1
  1210  1292  1270    1
  1211  1332  1333   ar
  1212  1019  1021    1
  1213  1336  1356    1
  1214  1336  1322    1
  1215  1028  1029   ar
  1216  1314  1293    1
  1217  1345  1340    1
  1218  1270  1253    1
  1219  1270  1272    1
  1220  1329  1327   ar
  1221  1021  1023    1
  1222  1031  1029   ar
  1223  1339  1337    1
  1224  1339  1340    1
  1225  1293  1295    1
  1226  1293  1276    1
  1227  1029  1030    1
  1228  1269  1247    1
  1229  1333  1326   ar
  1230  1247  1249    1
  1231  1247  1233    1
  1232  1316  1334    1
  1233  1316  1318    1
  1234  1316  1299    1
  1235  1253  1252    1
  1236  1272  1271    1
  1237  1318  1317    1
  1238  1327  1326   ar
  1239  1327  1328    2
  1240  1025  1023    1
  1241  1025  1026    1
  1242  1295  1294    1
  1243  1322  1321    1
  1244  1326  1325    1
  1245  1249  1248    1
  1246  1245  1227    2
  1247  1321  1323    1
  1248  1321  1319    1
  1249  1023  1024    1
  1250  1276  1275    1
  1251  1271  1273    1
  1252  1248  1250    1
  1253  1310  1309    2
  1254  1056  1055    1
  1255  1311  1312   ar
  1256  1311  1308   ar
  1257  1233  1232    1
  1258  1323  1325    1
  1259  1323  1324    1
  1260  1252  1250    1
  1261  1252  1254    1
  1262  1299  1298    1
  1263  1275  1273    1
  1264  1275  1277    1
  1265  1317  1319    1
  1266  1294  1296    1
  1267  1312  1313   ar
  1268  1309  1308   ar
  1269  1309  1303   ar
  1270  1055  1057   ar
  1271  1055  1054   ar
  1272  1298  1296    1
  1273  1298  1300    1
  1274  1308  1307   ar
  1275  1325  1320    1
  1276  1057  1058   ar
  1277  1250  1251    1
  1278  1319  1320    1
  1279  1246  1227    1
  1280  1227  1229    1
  1281  1227  1213    1
  1282  1273  1274    1
  1283  1024  1041    1
  1284  1288  1289   ar
  1285  1288  1285   ar
  1286  1289  1290   ar
  1287  1229  1228    1
  1288  1054  1052   ar
  1289  1228  1230    1
  1290  1296  1297    1
  1291  1232  1230    1
  1292  1232  1234    1
  1293  1303  1304   ar
  1294  1058  1051   ar
  1295  1313  1307   ar
  1296  1313  1302    1
  1297  1307  1306   ar
  1298  1254  1255    1
  1299  1254  1256    1
  1300  1300  1302    1
  1301  1300  1301    1
  1302  1277  1279    1
  1303  1277  1278    1
  1304  1060  1041    2
  1305  1274  1279    1
  1306  1287  1286    2
  1307  1297  1302    1
  1308  1285  1286   ar
  1309  1285  1284   ar
  1310  1052  1051   ar
  1311  1052  1053    2
  1312  1230  1231    1
  1313  1251  1256    1
  1314  1225  1207    2
  1315  1290  1279    1
  1316  1290  1284   ar
  1317  1051  1050    1
  1318  1266  1265   ar
  1319  1266  1267   ar
  1320  1213  1212    1
  1321  1041  1043    1
  1322  1041  1059    1
  1323  1304  1306   ar
  1324  1304  1305    1
  1325  1286  1280   ar
  1326  1265  1262   ar
  1327  1234  1235    1
  1328  1234  1236    1
  1329  1045  1050    1
  1330  1045  1044    1
  1331  1256  1267    1
  1332  1284  1283   ar
  1333  1267  1261   ar
  1334  1076  1075    1
  1335  1043  1042    1
  1336  1050  1048    1
  1337  1262  1261   ar
  1338  1262  1263   ar
  1339  1261  1260   ar
  1340  1280  1281   ar
  1341  1042  1044    1
  1342  1207  1209    1
  1343  1207  1226    1
  1344  1207  1193    1
  1345  1212  1210    1
  1346  1212  1214    1
  1347  1231  1236    1
  1348  1208  1209    1
  1349  1208  1210    1
  1350  1283  1281   ar
  1351  1244  1243   ar
  1352  1244  1237   ar
  1353  1264  1263    2
  1354  1263  1257   ar
  1355  1044  1046    1
  1356  1236  1237    1
  1357  1075  1077   ar
  1358  1075  1074   ar
  1359  1281  1282    1
  1360  1243  1241   ar
  1361  1260  1258   ar
  1362  1237  1238   ar
  1363  1210  1211    1
  1364  1077  1078   ar
  1365  1074  1072   ar
  1366  1257  1258   ar
  1367  1048  1046    1
  1368  1048  1049    1
  1369  1258  1259    1
  1370  1214  1215    1
  1371  1214  1216    1
  1372  1193  1192    1
  1373  1046  1047    1
  1374  1241  1242    2
  1375  1241  1240   ar
  1376  1238  1240   ar
  1377  1238  1239    2
  1378  1078  1071   ar
  1379  1072  1071   ar
  1380  1072  1073    2
  1381  1211  1216    1
  1382  1216  1217    1
  1383  1098  1097    2
  1384  1192  1194    1
  1385  1192  1190    1
  1386  1071  1070    1
  1387  1224  1217   ar
  1388  1224  1223   ar
  1389  1205  1187    2
  1390  1047  1061    1
  1391  1217  1218   ar
  1392  1223  1221   ar
  1393  1195  1194    1
  1394  1080  1061    2
  1395  1091  1097   ar
  1396  1091  1092   ar
  1397  1194  1196    1
  1398  1188  1190    1
  1399  1188  1189    1
  1400  1097  1096   ar
  1401  1190  1191    1
  1402  1189  1187    1
  1403  1218  1219    2
  1404  1218  1220   ar
  1405  1221  1220   ar
  1406  1221  1222    1
  1407  1187  1206    1
  1408  1187  1170    1
  1409  1065  1070    1
  1410  1065  1064    1
  1411  1061  1063    1
  1412  1061  1079    1
  1413  1070  1068    1
  1414  1093  1092    1
  1415  1063  1062    1
  1416  1092  1094   ar
  1417  1062  1064    1
  1418  1096  1099   ar
  1419  1096  1095   ar
  1420  1196  1191    1
  1421  1196  1197    1
  1422  1064  1066    1
  1423  1068  1066    1
  1424  1068  1069    1
  1425  1170  1169    1
  1426  1099  1100   ar
  1427  1197  1204   ar
  1428  1197  1198   ar
  1429  1204  1203   ar
  1430  1066  1067    1
  1431  1094  1095   ar
  1432  1095  1101   ar
  1433  1199  1198    2
  1434  1198  1200   ar
  1435  1203  1201   ar
  1436  1200  1201   ar
  1437  1201  1202    1
  1438  1103  1081    2
  1439  1119  1118    1
  1440  1169  1171    1
  1441  1169  1167    1
  1442  1100  1101   ar
  1443  1172  1171    1
  1444  1101  1090    1
  1445  1067  1081    1
  1446  1171  1173    1
  1447  1185  1164    2
  1448  1081  1083    1
  1449  1081  1102    1
  1450  1118  1117   ar
  1451  1118  1120   ar
  1452  1117  1115   ar
  1453  1167  1165    1
  1454  1167  1168    1
  1455  1166  1165    1
  1456  1166  1164    1
  1457  1186  1164    1
  1458  1164  1150    1
  1459  1083  1082    1
  1460  1090  1085    1
  1461  1090  1088    1
  1462  1085  1084    1
  1463  1173  1184    1
  1464  1173  1168    1
  1465  1120  1121   ar
  1466  1115  1116    2
  1467  1115  1114   ar
  1468  1088  1089    1
  1469  1088  1086    1
  1470  1184  1178   ar
  1471  1184  1183   ar
  1472  1177  1178   ar
  1473  1177  1175   ar
  1474  1176  1175    1
  1475  1178  1179   ar
  1476  1175  1174   ar
  1477  1183  1182   ar
  1478  1082  1084    1
  1479  1179  1182   ar
  1480  1179  1180   ar
  1481  1150  1149    1
  1482  1174  1180   ar
  1483  1084  1086    1
  1484  1180  1181    2
  1485  1121  1114   ar
  1486  1114  1113    1
  1487  1086  1087    1
  1488  1162  1144    2
  1489  1149  1151    1
  1490  1149  1147    1
  1491  1113  1108    1
  1492  1113  1111    1
  1493  1163  1144    1
  1494  1087  1104    1
  1495  1151  1152    1
  1496  1151  1153    1
  1497  1108  1107    1
  1498  1144  1146    1
  1499  1144  1130    1
  1500  1146  1145    1
  1501  1145  1147    1
  1502  1147  1148    1
  1503  1111  1112    1
  1504  1111  1109    1
  1505  1106  1104    1
  1506  1106  1105    1
  1507  1161  1154   ar
  1508  1161  1160   ar
  1509  1153  1154    1
  1510  1153  1148    1
  1511  1154  1155   ar
  1512  1160  1158   ar
  1513  1156  1155    2
  1514  1155  1157   ar
  1515  1104  1123    2
  1516  1104  1122    1
  1517  1157  1158   ar
  1518  1158  1159    1
  1519  1107  1105    1
  1520  1107  1109    1
  1521  1130  1129    1
  1522  1109  1110    1
  1523  1129  1131    1
  1524  1129  1127    1
  1525  1110  1124    1
  1526  1126  1125    1
  1527  1126  1124    1
  1528  1143  1124    2
  1529  1131  1132    1
  1530  1131  1133    1
  1531  1125  1127    1
  1532  1127  1128    1
  1533  1124  1142    1
  1534  1140  1141   ar
  1535  1140  1138   ar
  1536  1141  1134   ar
  1537  1139  1138    1
  1538  1138  1137   ar
  1539  1134  1133    1
  1540  1134  1135   ar
  1541  1137  1135   ar
  1542  1133  1128    1
  1543  1135  1136    2
