ligand
  PyMOL2.2          3D                             0

 16 16  0  0  0  0  0  0  0  0999 V2000
   49.6970   13.2530   11.4760 P   0  0  0  0  0  0  0  0  0  0  0  0
   49.7100   14.5620   12.1750 O   0  0  0  0  0  0  0  0  0  0  0  0
   51.0450   12.4480   11.8290 O   0  5  0  0  0  0  0  0  0  0  0  0
   49.6320   13.5130    9.8880 O   0  0  0  0  0  0  0  0  0  0  0  0
   44.8740   11.4210   14.0400 C   0  0  0  0  0  0  0  0  0  0  0  0
   44.8140   10.1050   13.4610 O   0  0  0  0  0  0  0  0  0  0  0  0
   43.5830   12.2200   13.7270 C   0  0  0  0  0  0  0  0  0  0  0  0
   42.4110   11.4930   14.2290 O   0  0  0  0  0  0  0  0  0  0  0  0
   43.4700   12.3870   12.2000 C   0  0  0  0  0  0  0  0  0  0  0  0
   42.2870   13.1290   11.8800 O   0  0  0  0  0  0  0  0  0  0  0  0
   44.7100   13.1490   11.7070 C   0  0  0  0  0  0  0  0  0  0  0  0
   44.6340   13.3090   10.2740 O   0  0  0  0  0  0  0  0  0  0  0  0
   45.9740   12.3270   12.0820 C   0  0  0  0  0  0  0  0  0  0  0  0
   46.0410   12.1480   13.5300 O   0  0  0  0  0  0  0  0  0  0  0  0
   47.2230   13.1000   11.6210 C   0  0  0  0  0  0  0  0  0  0  0  0
   48.4150   12.3780   11.9540 O   0  0  0  0  0  0  0  0  0  0  0  0
  1  2  1  0  0  0  0
  1  3  1  0  0  0  0
  1  4  2  0  0  0  0
  5  6  1  0  0  0  0
  5  7  1  0  0  0  0
  5 14  1  0  0  0  0
  7  8  1  0  0  0  0
  7  9  1  0  0  0  0
  9 10  1  0  0  0  0
  9 11  1  0  0  0  0
 11 12  1  0  0  0  0
 11 13  1  0  0  0  0
 13 14  1  0  0  0  0
 13 15  1  0  0  0  0
 15 16  1  0  0  0  0
  1 16  1  0  0  0  0
M  END
$$$$
