ligand
 OpenBabel11021811433D
libRbt.so/2013.1/901 2013/11/27
 16 16  0  0  0  0  0  0  0  0999 V2000
   49.5176   12.9890   11.5524 P   0  0  2  0  0  0  0  0  0  0  0  0
   49.7935   14.2774   12.2351 O   0  0  0  0  0  0  0  0  0  0  0  0
   50.7641   11.9945   11.7691 O   0  5  0  0  0  0  0  0  0  0  0  0
   49.3249   13.2665    9.9778 O   0  0  0  0  0  0  0  0  0  0  0  0
   44.6623   12.2056   14.4877 C   0  0  2  0  0  0  0  0  0  0  0  0
   44.4641   10.8003   14.2499 O   0  0  0  0  0  0  0  0  0  0  0  0
   43.4321   13.0229   14.0167 C   0  0  2  0  0  0  0  0  0  0  0  0
   42.2252   12.5523   14.7067 O   0  0  0  0  0  0  0  0  0  0  0  0
   43.2669   12.8256   12.4981 C   0  0  1  0  0  0  0  0  0  0  0  0
   42.1390   13.5760   12.0320 O   0  0  0  0  0  0  0  0  0  0  0  0
   44.5449   13.3258   11.8068 C   0  0  2  0  0  0  0  0  0  0  0  0
   44.4200   13.1410   10.3803 O   0  0  0  0  0  0  0  0  0  0  0  0
   45.7489   12.5038   12.3441 C   0  0  2  0  0  0  0  0  0  0  0  0
   45.8638   12.6747   13.7901 O   0  0  0  0  0  0  0  0  0  0  0  0
   47.0382   13.0215   11.6810 C   0  0  0  0  0  0  0  0  0  0  0  0
   48.1795   12.3060   12.1694 O   0  0  0  0  0  0  0  0  0  0  0  0
  1  2  1  1  0  0  0
  1  3  1  0  0  0  0
  1  4  2  0  0  0  0
  1 16  1  0  0  0  0
  5  6  1  6  0  0  0
  5  7  1  0  0  0  0
  5 14  1  0  0  0  0
  7  8  1  1  0  0  0
  7  9  1  0  0  0  0
  9 10  1  6  0  0  0
  9 11  1  0  0  0  0
 11 12  1  6  0  0  0
 11 13  1  0  0  0  0
 13 14  1  0  0  0  0
 13 15  1  6  0  0  0
 15 16  1  0  0  0  0
M  CHG  1   3  -1
M  END
>  <CHROM.1>
178.87170529,-174.40820698,74.53715884,46.25839457,12.79081216,12.40032217
-0.28200767,-0.07321468,1.97936535

>  <Name>
ligand

>  <RI>
0

>  <Rbt.Current_Directory>
/home/itssahil/PROJECTS/Mol_Feturizer/New_Systems/rnas/2HO7

>  <Rbt.Executable>
rbdock ($Id: //depot/dev/client3/rdock/2013.1/src/exe/rbdock.cxx#4 $)

>  <Rbt.Library>
libRbt.so (2013.1, Build901 2013/11/27)

>  <Rbt.Parameter_File>
/export/apps/rDock/src/rDock_2013.1_src/data/scripts/dock_solv.prm

>  <Rbt.Receptor>
prm/pocket_docking_4.prm

>  <SCORE>
-10.487

>  <SCORE.INTER>
-10.8623

>  <SCORE.INTER.CONST>
1

>  <SCORE.INTER.POLAR>
-1.29904

>  <SCORE.INTER.ROT>
3

>  <SCORE.INTER.SOLV>
13.076

>  <SCORE.INTER.VDW>
-12.8701

>  <SCORE.INTER.norm>
-0.678894

>  <SCORE.INTRA>
0.373922

>  <SCORE.INTRA.DIHEDRAL>
0.479069

>  <SCORE.INTRA.DIHEDRAL.0>
0.00893466

>  <SCORE.INTRA.POLAR>
0

>  <SCORE.INTRA.POLAR.0>
0

>  <SCORE.INTRA.REPUL>
0

>  <SCORE.INTRA.REPUL.0>
0

>  <SCORE.INTRA.SOLV>
0.150345

>  <SCORE.INTRA.SOLV.lig_0>
-48.9722

>  <SCORE.INTRA.VDW>
0.0592156

>  <SCORE.INTRA.VDW.0>
-0.529409

>  <SCORE.INTRA.norm>
0.0233701

>  <SCORE.RESTR>
0.00136846

>  <SCORE.RESTR.CAVITY>
0.00136846

>  <SCORE.RESTR.norm>
8.5529e-05

>  <SCORE.SYSTEM>
0

>  <SCORE.SYSTEM.CONST>
0

>  <SCORE.SYSTEM.DIHEDRAL>
0

>  <SCORE.SYSTEM.SOLV>
0

>  <SCORE.SYSTEM.norm>
0

>  <SCORE.heavy>
16

>  <SCORE.norm>
-0.655438

>  <RMSD>
0.626

$$$$
ligand
 OpenBabel11021811433D
libRbt.so/2013.1/901 2013/11/27
 16 16  0  0  0  0  0  0  0  0999 V2000
   49.4073   12.9399   11.5773 P   0  0  2  0  0  0  0  0  0  0  0  0
   49.7308   14.2892   12.1037 O   0  0  0  0  0  0  0  0  0  0  0  0
   50.6436   11.9488   11.8581 O   0  5  0  0  0  0  0  0  0  0  0  0
   49.1605   13.0475    9.9896 O   0  0  0  0  0  0  0  0  0  0  0  0
   44.4592   12.3949   14.5424 C   0  0  2  0  0  0  0  0  0  0  0  0
   44.3640   10.9606   14.4754 O   0  0  0  0  0  0  0  0  0  0  0  0
   43.2084   13.0600   13.9130 C   0  0  2  0  0  0  0  0  0  0  0  0
   41.9966   12.5950   14.5982 O   0  0  0  0  0  0  0  0  0  0  0  0
   43.1419   12.6660   12.4255 C   0  0  1  0  0  0  0  0  0  0  0  0
   41.9970   13.2727   11.8143 O   0  0  0  0  0  0  0  0  0  0  0  0
   44.4227   13.1651   11.7386 C   0  0  2  0  0  0  0  0  0  0  0  0
   44.3905   12.7977   10.3426 O   0  0  0  0  0  0  0  0  0  0  0  0
   45.6440   12.5017   12.4330 C   0  0  2  0  0  0  0  0  0  0  0  0
   45.6661   12.8571   13.8495 O   0  0  0  0  0  0  0  0  0  0  0  0
   46.9334   13.0224   11.7724 C   0  0  0  0  0  0  0  0  0  0  0  0
   48.0817   12.3573   12.3128 O   0  0  0  0  0  0  0  0  0  0  0  0
  1  2  1  1  0  0  0
  1  3  1  0  0  0  0
  1  4  2  0  0  0  0
  1 16  1  0  0  0  0
  5  6  1  6  0  0  0
  5  7  1  0  0  0  0
  5 14  1  0  0  0  0
  7  8  1  1  0  0  0
  7  9  1  0  0  0  0
  9 10  1  6  0  0  0
  9 11  1  0  0  0  0
 11 12  1  6  0  0  0
 11 13  1  0  0  0  0
 13 14  1  0  0  0  0
 13 15  1  6  0  0  0
 15 16  1  0  0  0  0
M  CHG  1   3  -1
M  END
>  <CHROM.1>
-175.50288814,179.76497811,75.54453750,46.12726499,12.75082177,12.40536605
-0.27709593,-0.03330818,1.85402539

>  <Name>
ligand

>  <RI>
0

>  <Rbt.Current_Directory>
/home/itssahil/PROJECTS/Mol_Feturizer/New_Systems/rnas/2HO7

>  <Rbt.Executable>
rbdock ($Id: //depot/dev/client3/rdock/2013.1/src/exe/rbdock.cxx#4 $)

>  <Rbt.Library>
libRbt.so (2013.1, Build901 2013/11/27)

>  <Rbt.Parameter_File>
/export/apps/rDock/src/rDock_2013.1_src/data/scripts/dock_solv.prm

>  <Rbt.Receptor>
prm/pocket_docking_2.prm

>  <SCORE>
-10.5875

>  <SCORE.INTER>
-10.9637

>  <SCORE.INTER.CONST>
1

>  <SCORE.INTER.POLAR>
-1.29904

>  <SCORE.INTER.ROT>
3

>  <SCORE.INTER.SOLV>
13.804

>  <SCORE.INTER.VDW>
-13.1803

>  <SCORE.INTER.norm>
-0.68523

>  <SCORE.INTRA>
0.37618

>  <SCORE.INTRA.DIHEDRAL>
0.438704

>  <SCORE.INTRA.DIHEDRAL.0>
0.00893466

>  <SCORE.INTRA.POLAR>
0

>  <SCORE.INTRA.POLAR.0>
0

>  <SCORE.INTRA.REPUL>
0

>  <SCORE.INTRA.REPUL.0>
0

>  <SCORE.INTRA.SOLV>
0.133651

>  <SCORE.INTRA.SOLV.lig_0>
-48.9722

>  <SCORE.INTRA.VDW>
0.0900023

>  <SCORE.INTRA.VDW.0>
-0.529409

>  <SCORE.INTRA.norm>
0.0235113

>  <SCORE.RESTR>
0

>  <SCORE.RESTR.CAVITY>
0

>  <SCORE.RESTR.norm>
0

>  <SCORE.SYSTEM>
0

>  <SCORE.SYSTEM.CONST>
0

>  <SCORE.SYSTEM.DIHEDRAL>
0

>  <SCORE.SYSTEM.SOLV>
0

>  <SCORE.SYSTEM.norm>
0

>  <SCORE.heavy>
16

>  <SCORE.norm>
-0.661719

>  <RMSD>
0.749

$$$$
ligand
 OpenBabel11021811433D
libRbt.so/2013.1/901 2013/11/27
 16 16  0  0  0  0  0  0  0  0999 V2000
   49.5869   12.9790   11.6742 P   0  0  2  0  0  0  0  0  0  0  0  0
   49.8819   14.2243   12.4254 O   0  0  0  0  0  0  0  0  0  0  0  0
   50.7665   11.9137   11.9259 O   0  5  0  0  0  0  0  0  0  0  0  0
   49.5088   13.3263   10.1036 O   0  0  0  0  0  0  0  0  0  0  0  0
   44.5901   12.3441   14.4330 C   0  0  2  0  0  0  0  0  0  0  0  0
   44.3117   10.9783   14.0756 O   0  0  0  0  0  0  0  0  0  0  0  0
   43.4334   13.2762   13.9900 C   0  0  2  0  0  0  0  0  0  0  0  0
   42.1736   12.8343   14.5998 O   0  0  0  0  0  0  0  0  0  0  0  0
   43.3135   13.2107   12.4558 C   0  0  1  0  0  0  0  0  0  0  0  0
   42.2544   14.0691   12.0155 O   0  0  0  0  0  0  0  0  0  0  0  0
   44.6461   13.6775   11.8495 C   0  0  2  0  0  0  0  0  0  0  0  0
   44.5638   13.6144   10.4093 O   0  0  0  0  0  0  0  0  0  0  0  0
   45.7739   12.7372   12.3573 C   0  0  2  0  0  0  0  0  0  0  0  0
   45.8447   12.7856   13.8153 O   0  0  0  0  0  0  0  0  0  0  0  0
   47.1178   13.2184   11.7808 C   0  0  0  0  0  0  0  0  0  0  0  0
   48.1802   12.3431   12.1786 O   0  0  0  0  0  0  0  0  0  0  0  0
  1  2  1  1  0  0  0
  1  3  1  0  0  0  0
  1  4  2  0  0  0  0
  1 16  1  0  0  0  0
  5  6  1  6  0  0  0
  5  7  1  0  0  0  0
  5 14  1  0  0  0  0
  7  8  1  1  0  0  0
  7  9  1  0  0  0  0
  9 10  1  6  0  0  0
  9 11  1  0  0  0  0
 11 12  1  6  0  0  0
 11 13  1  0  0  0  0
 13 14  1  0  0  0  0
 13 15  1  6  0  0  0
 15 16  1  0  0  0  0
M  CHG  1   3  -1
M  END
>  <CHROM.1>
-177.51672100,-174.24674113,68.01507057,46.29608090,12.96473531,12.43222361
-0.22563780,-0.12796741,2.06437016

>  <Name>
ligand

>  <RI>
0

>  <Rbt.Current_Directory>
/home/itssahil/PROJECTS/Mol_Feturizer/New_Systems/rnas/2HO7

>  <Rbt.Executable>
rbdock ($Id: //depot/dev/client3/rdock/2013.1/src/exe/rbdock.cxx#4 $)

>  <Rbt.Library>
libRbt.so (2013.1, Build901 2013/11/27)

>  <Rbt.Parameter_File>
/export/apps/rDock/src/rDock_2013.1_src/data/scripts/dock_solv.prm

>  <Rbt.Receptor>
prm/pocket_docking_2.prm

>  <SCORE>
-10.5976

>  <SCORE.INTER>
-10.7521

>  <SCORE.INTER.CONST>
1

>  <SCORE.INTER.POLAR>
-1.29897

>  <SCORE.INTER.ROT>
3

>  <SCORE.INTER.SOLV>
12.826

>  <SCORE.INTER.VDW>
-12.7135

>  <SCORE.INTER.norm>
-0.672006

>  <SCORE.INTRA>
0.1545

>  <SCORE.INTRA.DIHEDRAL>
0.278827

>  <SCORE.INTRA.DIHEDRAL.0>
0.00893466

>  <SCORE.INTRA.POLAR>
0

>  <SCORE.INTRA.POLAR.0>
0

>  <SCORE.INTRA.REPUL>
0

>  <SCORE.INTRA.REPUL.0>
0

>  <SCORE.INTRA.SOLV>
0.073791

>  <SCORE.INTRA.SOLV.lig_0>
-48.9722

>  <SCORE.INTRA.VDW>
-0.0218093

>  <SCORE.INTRA.VDW.0>
-0.529409

>  <SCORE.INTRA.norm>
0.00965624

>  <SCORE.RESTR>
0

>  <SCORE.RESTR.CAVITY>
0

>  <SCORE.RESTR.norm>
0

>  <SCORE.SYSTEM>
0

>  <SCORE.SYSTEM.CONST>
0

>  <SCORE.SYSTEM.DIHEDRAL>
0

>  <SCORE.SYSTEM.SOLV>
0

>  <SCORE.SYSTEM.norm>
0

>  <SCORE.heavy>
16

>  <SCORE.norm>
-0.66235

>  <RMSD>
0.772

$$$$
ligand
 OpenBabel11021811433D
libRbt.so/2013.1/901 2013/11/27
 16 16  0  0  0  0  0  0  0  0999 V2000
   49.5811   13.0209   11.5189 P   0  0  2  0  0  0  0  0  0  0  0  0
   49.8887   14.3114   12.1839 O   0  0  0  0  0  0  0  0  0  0  0  0
   50.7703   11.9761   11.8092 O   0  5  0  0  0  0  0  0  0  0  0  0
   49.4656   13.2691    9.9319 O   0  0  0  0  0  0  0  0  0  0  0  0
   44.6336   12.3933   14.3830 C   0  0  2  0  0  0  0  0  0  0  0  0
   44.3427   11.0316   14.0201 O   0  0  0  0  0  0  0  0  0  0  0  0
   43.4734   13.3340   13.9679 C   0  0  2  0  0  0  0  0  0  0  0  0
   42.2228   12.8929   14.5967 O   0  0  0  0  0  0  0  0  0  0  0  0
   43.3259   13.2809   12.4357 C   0  0  1  0  0  0  0  0  0  0  0  0
   42.2630   14.1474   12.0210 O   0  0  0  0  0  0  0  0  0  0  0  0
   44.6496   13.7465   11.8092 C   0  0  2  0  0  0  0  0  0  0  0  0
   44.5413   13.6950   10.3703 O   0  0  0  0  0  0  0  0  0  0  0  0
   45.7820   12.7973   12.2895 C   0  0  2  0  0  0  0  0  0  0  0  0
   45.8790   12.8341   13.7464 O   0  0  0  0  0  0  0  0  0  0  0  0
   47.1176   13.2771   11.6928 C   0  0  0  0  0  0  0  0  0  0  0  0
   48.1888   12.4145   12.0946 O   0  0  0  0  0  0  0  0  0  0  0  0
  1  2  1  1  0  0  0
  1  3  1  0  0  0  0
  1  4  2  0  0  0  0
  1 16  1  0  0  0  0
  5  6  1  6  0  0  0
  5  7  1  0  0  0  0
  5 14  1  0  0  0  0
  7  8  1  1  0  0  0
  7  9  1  0  0  0  0
  9 10  1  6  0  0  0
  9 11  1  0  0  0  0
 11 12  1  6  0  0  0
 11 13  1  0  0  0  0
 13 14  1  0  0  0  0
 13 15  1  6  0  0  0
 15 16  1  0  0  0  0
M  CHG  1   3  -1
M  END
>  <CHROM.1>
-179.08162297,-176.35406085,66.74413820,46.30568915,13.01917559,12.34936946
-0.24195897,-0.14268537,2.06869933

>  <Name>
ligand

>  <RI>
0

>  <Rbt.Current_Directory>
/home/itssahil/PROJECTS/Mol_Feturizer/New_Systems/rnas/2HO7

>  <Rbt.Executable>
rbdock ($Id: //depot/dev/client3/rdock/2013.1/src/exe/rbdock.cxx#4 $)

>  <Rbt.Library>
libRbt.so (2013.1, Build901 2013/11/27)

>  <Rbt.Parameter_File>
/export/apps/rDock/src/rDock_2013.1_src/data/scripts/dock_solv.prm

>  <Rbt.Receptor>
prm/pocket_docking_2.prm

>  <SCORE>
-10.7002

>  <SCORE.INTER>
-10.7743

>  <SCORE.INTER.CONST>
1

>  <SCORE.INTER.POLAR>
-1.29839

>  <SCORE.INTER.ROT>
3

>  <SCORE.INTER.SOLV>
12.2446

>  <SCORE.INTER.VDW>
-12.5365

>  <SCORE.INTER.norm>
-0.673394

>  <SCORE.INTRA>
0.0741477

>  <SCORE.INTRA.DIHEDRAL>
0.133031

>  <SCORE.INTRA.DIHEDRAL.0>
0.00893466

>  <SCORE.INTRA.POLAR>
0

>  <SCORE.INTRA.POLAR.0>
0

>  <SCORE.INTRA.REPUL>
0

>  <SCORE.INTRA.REPUL.0>
0

>  <SCORE.INTRA.SOLV>
0.0607484

>  <SCORE.INTRA.SOLV.lig_0>
-48.9722

>  <SCORE.INTRA.VDW>
-0.0227419

>  <SCORE.INTRA.VDW.0>
-0.529409

>  <SCORE.INTRA.norm>
0.00463423

>  <SCORE.RESTR>
0

>  <SCORE.RESTR.CAVITY>
0

>  <SCORE.RESTR.norm>
0

>  <SCORE.SYSTEM>
0

>  <SCORE.SYSTEM.CONST>
0

>  <SCORE.SYSTEM.DIHEDRAL>
0

>  <SCORE.SYSTEM.SOLV>
0

>  <SCORE.SYSTEM.norm>
0

>  <SCORE.heavy>
16

>  <SCORE.norm>
-0.66876

>  <RMSD>
0.788

$$$$
ligand
 OpenBabel11021811433D
libRbt.so/2013.1/901 2013/11/27
 16 16  0  0  0  0  0  0  0  0999 V2000
   49.4530   12.9620   11.5780 P   0  0  2  0  0  0  0  0  0  0  0  0
   49.7722   14.2952   12.1463 O   0  0  0  0  0  0  0  0  0  0  0  0
   50.6949   11.9683   11.8227 O   0  5  0  0  0  0  0  0  0  0  0  0
   49.2002   13.1193    9.9953 O   0  0  0  0  0  0  0  0  0  0  0  0
   44.5979   12.5115   14.6334 C   0  0  2  0  0  0  0  0  0  0  0  0
   44.4624   11.0791   14.6099 O   0  0  0  0  0  0  0  0  0  0  0  0
   43.3412   13.1937   14.0347 C   0  0  2  0  0  0  0  0  0  0  0  0
   42.1456   12.7805   14.7790 O   0  0  0  0  0  0  0  0  0  0  0  0
   43.2057   12.7621   12.5624 C   0  0  1  0  0  0  0  0  0  0  0  0
   42.0539   13.3834   11.9794 O   0  0  0  0  0  0  0  0  0  0  0  0
   44.4711   13.2075   11.8128 C   0  0  2  0  0  0  0  0  0  0  0  0
   44.3741   12.8039   10.4299 O   0  0  0  0  0  0  0  0  0  0  0  0
   45.7010   12.5296   12.4776 C   0  0  2  0  0  0  0  0  0  0  0  0
   45.7883   12.9219   13.8817 O   0  0  0  0  0  0  0  0  0  0  0  0
   46.9765   12.9970   11.7533 C   0  0  0  0  0  0  0  0  0  0  0  0
   48.1327   12.3498   12.2987 O   0  0  0  0  0  0  0  0  0  0  0  0
  1  2  1  1  0  0  0
  1  3  1  0  0  0  0
  1  4  2  0  0  0  0
  1 16  1  0  0  0  0
  5  6  1  6  0  0  0
  5  7  1  0  0  0  0
  5 14  1  0  0  0  0
  7  8  1  1  0  0  0
  7  9  1  0  0  0  0
  9 10  1  6  0  0  0
  9 11  1  0  0  0  0
 11 12  1  6  0  0  0
 11 13  1  0  0  0  0
 13 14  1  0  0  0  0
 13 15  1  6  0  0  0
 15 16  1  0  0  0  0
M  CHG  1   3  -1
M  END
>  <CHROM.1>
-177.51780412,-175.73594926,77.33773022,46.19517904,12.80969674,12.46607868
-0.29399112,-0.04666741,1.82800986

>  <Name>
ligand

>  <RI>
0

>  <Rbt.Current_Directory>
/home/itssahil/PROJECTS/Mol_Feturizer/New_Systems/rnas/2HO7

>  <Rbt.Executable>
rbdock ($Id: //depot/dev/client3/rdock/2013.1/src/exe/rbdock.cxx#4 $)

>  <Rbt.Library>
libRbt.so (2013.1, Build901 2013/11/27)

>  <Rbt.Parameter_File>
/export/apps/rDock/src/rDock_2013.1_src/data/scripts/dock_solv.prm

>  <Rbt.Receptor>
prm/blind_docking_100.prm

>  <SCORE>
-10.765

>  <SCORE.INTER>
-11.2314

>  <SCORE.INTER.CONST>
1

>  <SCORE.INTER.POLAR>
-1.29904

>  <SCORE.INTER.ROT>
3

>  <SCORE.INTER.SOLV>
13.8231

>  <SCORE.INTER.VDW>
-13.3652

>  <SCORE.INTER.norm>
-0.701961

>  <SCORE.INTRA>
0.466375

>  <SCORE.INTRA.DIHEDRAL>
0.562675

>  <SCORE.INTRA.DIHEDRAL.0>
0.00893466

>  <SCORE.INTRA.POLAR>
0

>  <SCORE.INTRA.POLAR.0>
0

>  <SCORE.INTRA.REPUL>
0

>  <SCORE.INTRA.REPUL.0>
0

>  <SCORE.INTRA.SOLV>
0.164932

>  <SCORE.INTRA.SOLV.lig_0>
-48.9722

>  <SCORE.INTRA.VDW>
0.102571

>  <SCORE.INTRA.VDW.0>
-0.529409

>  <SCORE.INTRA.norm>
0.0291484

>  <SCORE.RESTR>
0

>  <SCORE.RESTR.CAVITY>
0

>  <SCORE.RESTR.norm>
0

>  <SCORE.SYSTEM>
0

>  <SCORE.SYSTEM.CONST>
0

>  <SCORE.SYSTEM.DIHEDRAL>
0

>  <SCORE.SYSTEM.SOLV>
0

>  <SCORE.SYSTEM.norm>
0

>  <SCORE.heavy>
16

>  <SCORE.norm>
-0.672813

>  <RMSD>
0.803

$$$$
ligand
 OpenBabel11021811433D
libRbt.so/2013.1/901 2013/11/27
 16 16  0  0  0  0  0  0  0  0999 V2000
   49.4561   12.9664   11.5432 P   0  0  2  0  0  0  0  0  0  0  0  0
   49.7534   14.2889   12.1472 O   0  0  0  0  0  0  0  0  0  0  0  0
   50.6776   11.9607   11.8366 O   0  5  0  0  0  0  0  0  0  0  0  0
   49.2864   13.1486    9.9521 O   0  0  0  0  0  0  0  0  0  0  0  0
   44.5772   12.4781   14.5750 C   0  0  2  0  0  0  0  0  0  0  0  0
   44.3578   11.0691   14.3823 O   0  0  0  0  0  0  0  0  0  0  0  0
   43.3650   13.2992   14.0657 C   0  0  2  0  0  0  0  0  0  0  0  0
   42.1445   12.8717   14.7598 O   0  0  0  0  0  0  0  0  0  0  0  0
   43.2097   13.0539   12.5531 C   0  0  1  0  0  0  0  0  0  0  0  0
   42.0986   13.8067   12.0518 O   0  0  0  0  0  0  0  0  0  0  0  0
   44.5018   13.5097   11.8573 C   0  0  2  0  0  0  0  0  0  0  0  0
   44.3862   13.2794   10.4366 O   0  0  0  0  0  0  0  0  0  0  0  0
   45.6872   12.6866   12.4328 C   0  0  2  0  0  0  0  0  0  0  0  0
   45.7925   12.9039   13.8733 O   0  0  0  0  0  0  0  0  0  0  0  0
   46.9907   13.1607   11.7647 C   0  0  0  0  0  0  0  0  0  0  0  0
   48.0965   12.3526   12.1855 O   0  0  0  0  0  0  0  0  0  0  0  0
  1  2  1  1  0  0  0
  1  3  1  0  0  0  0
  1  4  2  0  0  0  0
  1 16  1  0  0  0  0
  5  6  1  6  0  0  0
  5  7  1  0  0  0  0
  5 14  1  0  0  0  0
  7  8  1  1  0  0  0
  7  9  1  0  0  0  0
  9 10  1  6  0  0  0
  9 11  1  0  0  0  0
 11 12  1  6  0  0  0
 11 13  1  0  0  0  0
 13 14  1  0  0  0  0
 13 15  1  6  0  0  0
 15 16  1  0  0  0  0
M  CHG  1   3  -1
M  END
>  <CHROM.1>
-175.24607597,-175.68019068,67.75527457,46.19562767,12.92317006,12.44057190
-0.27864243,-0.10911978,1.94553915

>  <Name>
ligand

>  <RI>
0

>  <Rbt.Current_Directory>
/home/itssahil/PROJECTS/Mol_Feturizer/New_Systems/rnas/2HO7

>  <Rbt.Executable>
rbdock ($Id: //depot/dev/client3/rdock/2013.1/src/exe/rbdock.cxx#4 $)

>  <Rbt.Library>
libRbt.so (2013.1, Build901 2013/11/27)

>  <Rbt.Parameter_File>
/export/apps/rDock/src/rDock_2013.1_src/data/scripts/dock_solv.prm

>  <Rbt.Receptor>
prm/pocket_docking_7.prm

>  <SCORE>
-10.801

>  <SCORE.INTER>
-10.9374

>  <SCORE.INTER.CONST>
1

>  <SCORE.INTER.POLAR>
-1.29904

>  <SCORE.INTER.ROT>
3

>  <SCORE.INTER.SOLV>
13.2985

>  <SCORE.INTER.VDW>
-12.9943

>  <SCORE.INTER.norm>
-0.68359

>  <SCORE.INTRA>
0.136426

>  <SCORE.INTRA.DIHEDRAL>
0.260778

>  <SCORE.INTRA.DIHEDRAL.0>
0.00893466

>  <SCORE.INTRA.POLAR>
0

>  <SCORE.INTRA.POLAR.0>
0

>  <SCORE.INTRA.REPUL>
0

>  <SCORE.INTRA.REPUL.0>
0

>  <SCORE.INTRA.SOLV>
0.061415

>  <SCORE.INTRA.SOLV.lig_0>
-48.9722

>  <SCORE.INTRA.VDW>
-0.0246701

>  <SCORE.INTRA.VDW.0>
-0.529409

>  <SCORE.INTRA.norm>
0.00852665

>  <SCORE.RESTR>
0

>  <SCORE.RESTR.CAVITY>
0

>  <SCORE.RESTR.norm>
0

>  <SCORE.SYSTEM>
0

>  <SCORE.SYSTEM.CONST>
0

>  <SCORE.SYSTEM.DIHEDRAL>
0

>  <SCORE.SYSTEM.SOLV>
0

>  <SCORE.SYSTEM.norm>
0

>  <SCORE.heavy>
16

>  <SCORE.norm>
-0.675064

>  <RMSD>
0.817

$$$$
ligand
 OpenBabel11021811433D
libRbt.so/2013.1/901 2013/11/27
 16 16  0  0  0  0  0  0  0  0999 V2000
   49.1821   12.9312   10.9712 P   0  0  2  0  0  0  0  0  0  0  0  0
   49.3356   14.2905   11.5466 O   0  0  0  0  0  0  0  0  0  0  0  0
   50.1333   11.9059   11.7672 O   0  5  0  0  0  0  0  0  0  0  0  0
   49.6197   12.9708    9.4218 O   0  0  0  0  0  0  0  0  0  0  0  0
   44.1955   11.3244   14.3476 C   0  0  2  0  0  0  0  0  0  0  0  0
   43.8653   10.1202   13.6323 O   0  0  0  0  0  0  0  0  0  0  0  0
   43.2606   12.4879   13.9288 C   0  0  2  0  0  0  0  0  0  0  0  0
   41.8613   12.1166   14.1702 O   0  0  0  0  0  0  0  0  0  0  0  0
   43.4680   12.7651   12.4279 C   0  0  1  0  0  0  0  0  0  0  0  0
   42.6199   13.8425   12.0125 O   0  0  0  0  0  0  0  0  0  0  0  0
   44.9398   13.1490   12.2092 C   0  0  2  0  0  0  0  0  0  0  0  0
   45.1637   13.4034   10.8057 O   0  0  0  0  0  0  0  0  0  0  0  0
   45.8318   11.9683   12.6826 C   0  0  2  0  0  0  0  0  0  0  0  0
   45.5914   11.6976   14.0976 O   0  0  0  0  0  0  0  0  0  0  0  0
   47.3096   12.3582   12.4979 C   0  0  0  0  0  0  0  0  0  0  0  0
   47.6402   12.4392   11.1060 O   0  0  0  0  0  0  0  0  0  0  0  0
  1  2  1  1  0  0  0
  1  3  1  0  0  0  0
  1  4  2  0  0  0  0
  1 16  1  0  0  0  0
  5  6  1  6  0  0  0
  5  7  1  0  0  0  0
  5 14  1  0  0  0  0
  7  8  1  6  0  0  0
  7  9  1  0  0  0  0
  9 10  1  1  0  0  0
  9 11  1  0  0  0  0
 11 12  1  6  0  0  0
 11 13  1  0  0  0  0
 13 14  1  0  0  0  0
 13 15  1  1  0  0  0
 15 16  1  0  0  0  0
M  CHG  1   3  -1
M  END
>  <CHROM.1>
-68.82938329,176.94601311,-62.61143301,46.14997237,12.52152873,12.22405042
-0.36859519,-0.19075398,2.32954405

>  <Name>
ligand

>  <RI>
0

>  <Rbt.Current_Directory>
/home/itssahil/PROJECTS/Mol_Feturizer/New_Systems/rnas/2HO7

>  <Rbt.Executable>
rbdock ($Id: //depot/dev/client3/rdock/2013.1/src/exe/rbdock.cxx#4 $)

>  <Rbt.Library>
libRbt.so (2013.1, Build901 2013/11/27)

>  <Rbt.Parameter_File>
/export/apps/rDock/src/rDock_2013.1_src/data/scripts/dock_solv.prm

>  <Rbt.Receptor>
prm/pocket_docking_2.prm

>  <SCORE>
-9.18604

>  <SCORE.INTER>
-9.63667

>  <SCORE.INTER.CONST>
1

>  <SCORE.INTER.POLAR>
-1.29904

>  <SCORE.INTER.ROT>
3

>  <SCORE.INTER.SOLV>
12.8675

>  <SCORE.INTER.VDW>
-11.9835

>  <SCORE.INTER.norm>
-0.602292

>  <SCORE.INTRA>
0.450634

>  <SCORE.INTRA.DIHEDRAL>
0.326397

>  <SCORE.INTRA.DIHEDRAL.0>
0.00893466

>  <SCORE.INTRA.POLAR>
0

>  <SCORE.INTRA.POLAR.0>
0

>  <SCORE.INTRA.REPUL>
0

>  <SCORE.INTRA.REPUL.0>
0

>  <SCORE.INTRA.SOLV>
0.497518

>  <SCORE.INTRA.SOLV.lig_0>
-48.9722

>  <SCORE.INTRA.VDW>
0.0386763

>  <SCORE.INTRA.VDW.0>
-0.529409

>  <SCORE.INTRA.norm>
0.0281646

>  <SCORE.RESTR>
0

>  <SCORE.RESTR.CAVITY>
0

>  <SCORE.RESTR.norm>
0

>  <SCORE.SYSTEM>
0

>  <SCORE.SYSTEM.CONST>
0

>  <SCORE.SYSTEM.DIHEDRAL>
0

>  <SCORE.SYSTEM.SOLV>
0

>  <SCORE.SYSTEM.norm>
0

>  <SCORE.heavy>
16

>  <SCORE.norm>
-0.574127

>  <RMSD>
0.824

$$$$
ligand
 OpenBabel11021811433D
libRbt.so/2013.1/901 2013/11/27
 16 16  0  0  0  0  0  0  0  0999 V2000
   49.5257   13.1425   11.6081 P   0  0  2  0  0  0  0  0  0  0  0  0
   50.2641   14.3377   12.0862 O   0  0  0  0  0  0  0  0  0  0  0  0
   50.3339   11.8153   12.0266 O   0  5  0  0  0  0  0  0  0  0  0  0
   49.4093   13.2117   10.0034 O   0  0  0  0  0  0  0  0  0  0  0  0
   44.6978   11.8178   14.4846 C   0  0  2  0  0  0  0  0  0  0  0  0
   44.0458   10.5815   14.1424 O   0  0  0  0  0  0  0  0  0  0  0  0
   43.8587   13.0325   14.0118 C   0  0  2  0  0  0  0  0  0  0  0  0
   42.5193   12.9778   14.6094 O   0  0  0  0  0  0  0  0  0  0  0  0
   43.7404   12.9769   12.4771 C   0  0  1  0  0  0  0  0  0  0  0  0
   42.9738   14.0932   12.0096 O   0  0  0  0  0  0  0  0  0  0  0  0
   45.1566   13.0346   11.8837 C   0  0  2  0  0  0  0  0  0  0  0  0
   45.0741   12.9724   10.4435 O   0  0  0  0  0  0  0  0  0  0  0  0
   45.9651   11.8215   12.4210 C   0  0  2  0  0  0  0  0  0  0  0  0
   46.0323   11.8733   13.8791 O   0  0  0  0  0  0  0  0  0  0  0  0
   47.3961   11.8904   11.8573 C   0  0  0  0  0  0  0  0  0  0  0  0
   48.0462   13.0966   12.2764 O   0  0  0  0  0  0  0  0  0  0  0  0
  1  2  1  1  0  0  0
  1  3  1  0  0  0  0
  1  4  2  0  0  0  0
  1 16  1  0  0  0  0
  5  6  1  6  0  0  0
  5  7  1  0  0  0  0
  5 14  1  0  0  0  0
  7  8  1  1  0  0  0
  7  9  1  0  0  0  0
  9 10  1  6  0  0  0
  9 11  1  0  0  0  0
 11 12  1  6  0  0  0
 11 13  1  0  0  0  0
 13 14  1  0  0  0  0
 13 15  1  6  0  0  0
 15 16  1  0  0  0  0
M  CHG  1   3  -1
M  END
>  <CHROM.1>
60.70673133,-177.85242702,-176.49757050,46.46551961,12.70893570,12.43370419
-0.30704009,-0.12061841,2.17321269

>  <Name>
ligand

>  <RI>
0

>  <Rbt.Current_Directory>
/home/itssahil/PROJECTS/Mol_Feturizer/New_Systems/rnas/2HO7

>  <Rbt.Executable>
rbdock ($Id: //depot/dev/client3/rdock/2013.1/src/exe/rbdock.cxx#4 $)

>  <Rbt.Library>
libRbt.so (2013.1, Build901 2013/11/27)

>  <Rbt.Parameter_File>
/export/apps/rDock/src/rDock_2013.1_src/data/scripts/dock_solv.prm

>  <Rbt.Receptor>
prm/pocket_docking_2.prm

>  <SCORE>
-10.7614

>  <SCORE.INTER>
-11.0963

>  <SCORE.INTER.CONST>
1

>  <SCORE.INTER.POLAR>
-1.29904

>  <SCORE.INTER.ROT>
3

>  <SCORE.INTER.SOLV>
12.7905

>  <SCORE.INTER.VDW>
-12.9309

>  <SCORE.INTER.norm>
-0.693516

>  <SCORE.INTRA>
0.325408

>  <SCORE.INTRA.DIHEDRAL>
0.0355068

>  <SCORE.INTRA.DIHEDRAL.0>
0.00893466

>  <SCORE.INTRA.POLAR>
0

>  <SCORE.INTRA.POLAR.0>
0

>  <SCORE.INTRA.REPUL>
0

>  <SCORE.INTRA.REPUL.0>
0

>  <SCORE.INTRA.SOLV>
0.958388

>  <SCORE.INTRA.SOLV.lig_0>
-48.9722

>  <SCORE.INTRA.VDW>
-0.171539

>  <SCORE.INTRA.VDW.0>
-0.529409

>  <SCORE.INTRA.norm>
0.020338

>  <SCORE.RESTR>
0.00939365

>  <SCORE.RESTR.CAVITY>
0.00939365

>  <SCORE.RESTR.norm>
0.000587103

>  <SCORE.SYSTEM>
0

>  <SCORE.SYSTEM.CONST>
0

>  <SCORE.SYSTEM.DIHEDRAL>
0

>  <SCORE.SYSTEM.SOLV>
0

>  <SCORE.SYSTEM.norm>
0

>  <SCORE.heavy>
16

>  <SCORE.norm>
-0.672591

>  <RMSD>
0.857

$$$$
ligand
 OpenBabel11021811433D
libRbt.so/2013.1/901 2013/11/27
 16 16  0  0  0  0  0  0  0  0999 V2000
   49.5362   13.0880   11.6505 P   0  0  2  0  0  0  0  0  0  0  0  0
   50.2767   14.2842   12.1229 O   0  0  0  0  0  0  0  0  0  0  0  0
   50.3236   11.7606   12.1061 O   0  5  0  0  0  0  0  0  0  0  0  0
   49.4507   13.1316   10.0429 O   0  0  0  0  0  0  0  0  0  0  0  0
   44.6783   11.8222   14.4938 C   0  0  2  0  0  0  0  0  0  0  0  0
   44.0220   10.5863   14.1585 O   0  0  0  0  0  0  0  0  0  0  0  0
   43.8477   13.0369   14.0064 C   0  0  2  0  0  0  0  0  0  0  0  0
   42.5049   12.9939   14.5972 O   0  0  0  0  0  0  0  0  0  0  0  0
   43.7373   12.9690   12.4716 C   0  0  1  0  0  0  0  0  0  0  0  0
   42.9787   14.0850   11.9905 O   0  0  0  0  0  0  0  0  0  0  0  0
   45.1570   13.0148   11.8853 C   0  0  2  0  0  0  0  0  0  0  0  0
   45.0818   12.9408   10.4453 O   0  0  0  0  0  0  0  0  0  0  0  0
   45.9565   11.8023   12.4371 C   0  0  2  0  0  0  0  0  0  0  0  0
   46.0162   11.8660   13.8950 O   0  0  0  0  0  0  0  0  0  0  0  0
   47.3908   11.8594   11.8805 C   0  0  0  0  0  0  0  0  0  0  0  0
   48.0439   13.0668   12.2912 O   0  0  0  0  0  0  0  0  0  0  0  0
  1  2  1  1  0  0  0
  1  3  1  0  0  0  0
  1  4  2  0  0  0  0
  1 16  1  0  0  0  0
  5  6  1  6  0  0  0
  5  7  1  0  0  0  0
  5 14  1  0  0  0  0
  7  8  1  1  0  0  0
  7  9  1  0  0  0  0
  9 10  1  6  0  0  0
  9 11  1  0  0  0  0
 11 12  1  6  0  0  0
 11 13  1  0  0  0  0
 13 14  1  0  0  0  0
 13 15  1  6  0  0  0
 15 16  1  0  0  0  0
M  CHG  1   3  -1
M  END
>  <CHROM.1>
60.61419454,-178.77597116,-176.45280660,46.46433349,12.68323506,12.45186524
-0.29577691,-0.12055784,2.16332836

>  <Name>
ligand

>  <RI>
0

>  <Rbt.Current_Directory>
/home/itssahil/PROJECTS/Mol_Feturizer/New_Systems/rnas/2HO7

>  <Rbt.Executable>
rbdock ($Id: //depot/dev/client3/rdock/2013.1/src/exe/rbdock.cxx#4 $)

>  <Rbt.Library>
libRbt.so (2013.1, Build901 2013/11/27)

>  <Rbt.Parameter_File>
/export/apps/rDock/src/rDock_2013.1_src/data/scripts/dock_solv.prm

>  <Rbt.Receptor>
prm/pocket_docking_2.prm

>  <SCORE>
-10.7335

>  <SCORE.INTER>
-11.0427

>  <SCORE.INTER.CONST>
1

>  <SCORE.INTER.POLAR>
-1.29904

>  <SCORE.INTER.ROT>
3

>  <SCORE.INTER.SOLV>
13.0499

>  <SCORE.INTER.VDW>
-12.9816

>  <SCORE.INTER.norm>
-0.690167

>  <SCORE.INTRA>
0.309214

>  <SCORE.INTRA.DIHEDRAL>
0.0202396

>  <SCORE.INTRA.DIHEDRAL.0>
0.00893466

>  <SCORE.INTRA.POLAR>
0

>  <SCORE.INTRA.POLAR.0>
0

>  <SCORE.INTRA.REPUL>
0

>  <SCORE.INTRA.REPUL.0>
0

>  <SCORE.INTRA.SOLV>
0.934097

>  <SCORE.INTRA.SOLV.lig_0>
-48.9722

>  <SCORE.INTRA.VDW>
-0.167955

>  <SCORE.INTRA.VDW.0>
-0.529409

>  <SCORE.INTRA.norm>
0.0193258

>  <SCORE.RESTR>
0

>  <SCORE.RESTR.CAVITY>
0

>  <SCORE.RESTR.norm>
0

>  <SCORE.SYSTEM>
0

>  <SCORE.SYSTEM.CONST>
0

>  <SCORE.SYSTEM.DIHEDRAL>
0

>  <SCORE.SYSTEM.SOLV>
0

>  <SCORE.SYSTEM.norm>
0

>  <SCORE.heavy>
16

>  <SCORE.norm>
-0.670841

>  <RMSD>
0.873

$$$$
ligand
 OpenBabel11021811433D
libRbt.so/2013.1/901 2013/11/27
 16 16  0  0  0  0  0  0  0  0999 V2000
   49.5548   13.1306   11.4790 P   0  0  2  0  0  0  0  0  0  0  0  0
   50.2561   14.3820   11.8590 O   0  0  0  0  0  0  0  0  0  0  0  0
   50.4202   11.8657   11.9698 O   0  5  0  0  0  0  0  0  0  0  0  0
   49.4061   13.0849    9.8761 O   0  0  0  0  0  0  0  0  0  0  0  0
   44.8675   11.9603   14.5990 C   0  0  2  0  0  0  0  0  0  0  0  0
   44.3267   10.6302   14.5033 O   0  0  0  0  0  0  0  0  0  0  0  0
   43.9139   12.9913   13.9427 C   0  0  2  0  0  0  0  0  0  0  0  0
   42.5938   12.9285   14.5810 O   0  0  0  0  0  0  0  0  0  0  0  0
   43.7793   12.6491   12.4470 C   0  0  1  0  0  0  0  0  0  0  0  0
   42.9070   13.5910   11.8111 O   0  0  0  0  0  0  0  0  0  0  0  0
   45.1757   12.7225   11.8098 C   0  0  2  0  0  0  0  0  0  0  0  0
   45.0786   12.3940   10.4071 O   0  0  0  0  0  0  0  0  0  0  0  0
   46.0995   11.7020   12.5302 C   0  0  2  0  0  0  0  0  0  0  0  0
   46.1825   12.0221   13.9528 O   0  0  0  0  0  0  0  0  0  0  0  0
   47.5099   11.7929   11.9198 C   0  0  0  0  0  0  0  0  0  0  0  0
   48.0907   13.0768   12.1798 O   0  0  0  0  0  0  0  0  0  0  0  0
  1  2  1  1  0  0  0
  1  3  1  0  0  0  0
  1  4  2  0  0  0  0
  1 16  1  0  0  0  0
  5  6  1  6  0  0  0
  5  7  1  0  0  0  0
  5 14  1  0  0  0  0
  7  8  1  1  0  0  0
  7  9  1  0  0  0  0
  9 10  1  6  0  0  0
  9 11  1  0  0  0  0
 11 12  1  6  0  0  0
 11 13  1  0  0  0  0
 13 14  1  0  0  0  0
 13 15  1  6  0  0  0
 15 16  1  0  0  0  0
M  CHG  1   3  -1
M  END
>  <CHROM.1>
64.82605842,-178.39947884,-173.32599219,46.53215905,12.60640522,12.40279453
-0.35183677,-0.04813194,1.97962449

>  <Name>
ligand

>  <RI>
0

>  <Rbt.Current_Directory>
/home/itssahil/PROJECTS/Mol_Feturizer/New_Systems/rnas/2HO7

>  <Rbt.Executable>
rbdock ($Id: //depot/dev/client3/rdock/2013.1/src/exe/rbdock.cxx#4 $)

>  <Rbt.Library>
libRbt.so (2013.1, Build901 2013/11/27)

>  <Rbt.Parameter_File>
/export/apps/rDock/src/rDock_2013.1_src/data/scripts/dock_solv.prm

>  <Rbt.Receptor>
prm/pocket_docking_2.prm

>  <SCORE>
-10.8057

>  <SCORE.INTER>
-11.1879

>  <SCORE.INTER.CONST>
1

>  <SCORE.INTER.POLAR>
-1.29904

>  <SCORE.INTER.ROT>
3

>  <SCORE.INTER.SOLV>
13.3461

>  <SCORE.INTER.VDW>
-13.1772

>  <SCORE.INTER.norm>
-0.699243

>  <SCORE.INTRA>
0.382168

>  <SCORE.INTRA.DIHEDRAL>
0.159223

>  <SCORE.INTRA.DIHEDRAL.0>
0.00893466

>  <SCORE.INTRA.POLAR>
0

>  <SCORE.INTRA.POLAR.0>
0

>  <SCORE.INTRA.REPUL>
0

>  <SCORE.INTRA.REPUL.0>
0

>  <SCORE.INTRA.SOLV>
0.921305

>  <SCORE.INTRA.SOLV.lig_0>
-48.9722

>  <SCORE.INTRA.VDW>
-0.158096

>  <SCORE.INTRA.VDW.0>
-0.529409

>  <SCORE.INTRA.norm>
0.0238855

>  <SCORE.RESTR>
0

>  <SCORE.RESTR.CAVITY>
0

>  <SCORE.RESTR.norm>
0

>  <SCORE.SYSTEM>
0

>  <SCORE.SYSTEM.CONST>
0

>  <SCORE.SYSTEM.DIHEDRAL>
0

>  <SCORE.SYSTEM.SOLV>
0

>  <SCORE.SYSTEM.norm>
0

>  <SCORE.heavy>
16

>  <SCORE.norm>
-0.675358

>  <RMSD>
0.875

$$$$
ligand
 OpenBabel11021811433D
libRbt.so/2013.1/901 2013/11/27
 16 16  0  0  0  0  0  0  0  0999 V2000
   49.6003   13.1788   11.5318 P   0  0  2  0  0  0  0  0  0  0  0  0
   50.3326   14.3892   11.9802 O   0  0  0  0  0  0  0  0  0  0  0  0
   50.4237   11.8668   11.9682 O   0  5  0  0  0  0  0  0  0  0  0  0
   49.4689   13.2162    9.9271 O   0  0  0  0  0  0  0  0  0  0  0  0
   44.8617   11.9487   14.5781 C   0  0  2  0  0  0  0  0  0  0  0  0
   44.2755   10.6483   14.3883 O   0  0  0  0  0  0  0  0  0  0  0  0
   43.9536   13.0546   13.9821 C   0  0  2  0  0  0  0  0  0  0  0  0
   42.6240   12.9973   14.6011 O   0  0  0  0  0  0  0  0  0  0  0  0
   43.8260   12.8173   12.4656 C   0  0  1  0  0  0  0  0  0  0  0  0
   42.9957   13.8302   11.8848 O   0  0  0  0  0  0  0  0  0  0  0  0
   45.2321   12.8823   11.8492 C   0  0  2  0  0  0  0  0  0  0  0  0
   45.1414   12.6511   10.4268 O   0  0  0  0  0  0  0  0  0  0  0  0
   46.1101   11.7836   12.5096 C   0  0  2  0  0  0  0  0  0  0  0  0
   46.1861   12.0056   13.9512 O   0  0  0  0  0  0  0  0  0  0  0  0
   47.5305   11.8638   11.9213 C   0  0  0  0  0  0  0  0  0  0  0  0
   48.1273   13.1331   12.2142 O   0  0  0  0  0  0  0  0  0  0  0  0
  1  2  1  1  0  0  0
  1  3  1  0  0  0  0
  1  4  2  0  0  0  0
  1 16  1  0  0  0  0
  5  6  1  6  0  0  0
  5  7  1  0  0  0  0
  5 14  1  0  0  0  0
  7  8  1  1  0  0  0
  7  9  1  0  0  0  0
  9 10  1  6  0  0  0
  9 11  1  0  0  0  0
 11 12  1  6  0  0  0
 11 13  1  0  0  0  0
 13 14  1  0  0  0  0
 13 15  1  6  0  0  0
 15 16  1  0  0  0  0
M  CHG  1   3  -1
M  END
>  <CHROM.1>
61.87235771,-178.22972485,-171.49126814,46.56616225,12.68784938,12.42489988
-0.33866596,-0.07899922,2.05427348

>  <Name>
ligand

>  <RI>
0

>  <Rbt.Current_Directory>
/home/itssahil/PROJECTS/Mol_Feturizer/New_Systems/rnas/2HO7

>  <Rbt.Executable>
rbdock ($Id: //depot/dev/client3/rdock/2013.1/src/exe/rbdock.cxx#4 $)

>  <Rbt.Library>
libRbt.so (2013.1, Build901 2013/11/27)

>  <Rbt.Parameter_File>
/export/apps/rDock/src/rDock_2013.1_src/data/scripts/dock_solv.prm

>  <Rbt.Receptor>
prm/pocket_docking_2.prm

>  <SCORE>
-10.8732

>  <SCORE.INTER>
-11.2851

>  <SCORE.INTER.CONST>
1

>  <SCORE.INTER.POLAR>
-1.29904

>  <SCORE.INTER.ROT>
3

>  <SCORE.INTER.SOLV>
13.0186

>  <SCORE.INTER.VDW>
-13.1328

>  <SCORE.INTER.norm>
-0.705321

>  <SCORE.INTRA>
0.410832

>  <SCORE.INTRA.DIHEDRAL>
0.135574

>  <SCORE.INTRA.DIHEDRAL.0>
0.00893466

>  <SCORE.INTRA.POLAR>
0

>  <SCORE.INTRA.POLAR.0>
0

>  <SCORE.INTRA.REPUL>
0

>  <SCORE.INTRA.REPUL.0>
0

>  <SCORE.INTRA.SOLV>
0.934383

>  <SCORE.INTRA.SOLV.lig_0>
-48.9722

>  <SCORE.INTRA.VDW>
-0.124147

>  <SCORE.INTRA.VDW.0>
-0.529409

>  <SCORE.INTRA.norm>
0.025677

>  <SCORE.RESTR>
0.00106429

>  <SCORE.RESTR.CAVITY>
0.00106429

>  <SCORE.RESTR.norm>
6.65183e-05

>  <SCORE.SYSTEM>
0

>  <SCORE.SYSTEM.CONST>
0

>  <SCORE.SYSTEM.DIHEDRAL>
0

>  <SCORE.SYSTEM.SOLV>
0

>  <SCORE.SYSTEM.norm>
0

>  <SCORE.heavy>
16

>  <SCORE.norm>
-0.679578

>  <RMSD>
0.877

$$$$
ligand
 OpenBabel11021811433D
libRbt.so/2013.1/901 2013/11/27
 16 16  0  0  0  0  0  0  0  0999 V2000
   49.6120   13.2526   11.4576 P   0  0  2  0  0  0  0  0  0  0  0  0
   50.3407   14.4653   11.9056 O   0  0  0  0  0  0  0  0  0  0  0  0
   50.4722   11.9456   11.8337 O   0  5  0  0  0  0  0  0  0  0  0  0
   49.4201   13.3227    9.8602 O   0  0  0  0  0  0  0  0  0  0  0  0
   44.9731   12.0823   14.6067 C   0  0  2  0  0  0  0  0  0  0  0  0
   44.4825   10.7298   14.5792 O   0  0  0  0  0  0  0  0  0  0  0  0
   43.9709   13.0459   13.9211 C   0  0  2  0  0  0  0  0  0  0  0  0
   42.6638   12.9621   14.5833 O   0  0  0  0  0  0  0  0  0  0  0  0
   43.8274   12.6318   12.4445 C   0  0  1  0  0  0  0  0  0  0  0  0
   42.9101   13.5105   11.7818 O   0  0  0  0  0  0  0  0  0  0  0  0
   45.2103   12.7291   11.7816 C   0  0  2  0  0  0  0  0  0  0  0  0
   45.1051   12.3342   10.3967 O   0  0  0  0  0  0  0  0  0  0  0  0
   46.1833   11.7777   12.5314 C   0  0  2  0  0  0  0  0  0  0  0  0
   46.2750   12.1645   13.9368 O   0  0  0  0  0  0  0  0  0  0  0  0
   47.5799   11.8942   11.8943 C   0  0  0  0  0  0  0  0  0  0  0  0
   48.1664   13.1670   12.1929 O   0  0  0  0  0  0  0  0  0  0  0  0
  1  2  1  1  0  0  0
  1  3  1  0  0  0  0
  1  4  2  0  0  0  0
  1 16  1  0  0  0  0
  5  6  1  6  0  0  0
  5  7  1  0  0  0  0
  5 14  1  0  0  0  0
  7  8  1  1  0  0  0
  7  9  1  0  0  0  0
  9 10  1  6  0  0  0
  9 11  1  0  0  0  0
 11 12  1  6  0  0  0
 11 13  1  0  0  0  0
 13 14  1  0  0  0  0
 13 15  1  6  0  0  0
 15 16  1  0  0  0  0
M  CHG  1   3  -1
M  END
>  <CHROM.1>
70.17337941,-178.15928290,-171.47403949,46.59602050,12.67870204,12.39217397
-0.36021144,-0.01486753,1.92565700

>  <Name>
ligand

>  <RI>
0

>  <Rbt.Current_Directory>
/home/itssahil/PROJECTS/Mol_Feturizer/New_Systems/rnas/2HO7

>  <Rbt.Executable>
rbdock ($Id: //depot/dev/client3/rdock/2013.1/src/exe/rbdock.cxx#4 $)

>  <Rbt.Library>
libRbt.so (2013.1, Build901 2013/11/27)

>  <Rbt.Parameter_File>
/export/apps/rDock/src/rDock_2013.1_src/data/scripts/dock_solv.prm

>  <Rbt.Receptor>
prm/pocket_docking_2.prm

>  <SCORE>
-10.588

>  <SCORE.INTER>
-11.1591

>  <SCORE.INTER.CONST>
1

>  <SCORE.INTER.POLAR>
-1.29904

>  <SCORE.INTER.ROT>
3

>  <SCORE.INTER.SOLV>
13.0493

>  <SCORE.INTER.VDW>
-13.059

>  <SCORE.INTER.norm>
-0.697442

>  <SCORE.INTRA>
0.565268

>  <SCORE.INTRA.DIHEDRAL>
0.489726

>  <SCORE.INTRA.DIHEDRAL.0>
0.00893466

>  <SCORE.INTRA.POLAR>
0

>  <SCORE.INTRA.POLAR.0>
0

>  <SCORE.INTRA.REPUL>
0

>  <SCORE.INTRA.REPUL.0>
0

>  <SCORE.INTRA.SOLV>
0.911669

>  <SCORE.INTRA.SOLV.lig_0>
-48.9722

>  <SCORE.INTRA.VDW>
-0.13543

>  <SCORE.INTRA.VDW.0>
-0.529409

>  <SCORE.INTRA.norm>
0.0353292

>  <SCORE.RESTR>
0.00578694

>  <SCORE.RESTR.CAVITY>
0.00578694

>  <SCORE.RESTR.norm>
0.000361684

>  <SCORE.SYSTEM>
0

>  <SCORE.SYSTEM.CONST>
0

>  <SCORE.SYSTEM.DIHEDRAL>
0

>  <SCORE.SYSTEM.SOLV>
0

>  <SCORE.SYSTEM.norm>
0

>  <SCORE.heavy>
16

>  <SCORE.norm>
-0.661751

>  <RMSD>
0.883

$$$$
ligand
 OpenBabel11021811433D
libRbt.so/2013.1/901 2013/11/27
 16 16  0  0  0  0  0  0  0  0999 V2000
   49.2296   13.2075   10.8782 P   0  0  2  0  0  0  0  0  0  0  0  0
   49.4378   14.4493   11.6637 O   0  0  0  0  0  0  0  0  0  0  0  0
   50.2609   12.0798   11.3827 O   0  5  0  0  0  0  0  0  0  0  0  0
   49.5051   13.5243    9.3234 O   0  0  0  0  0  0  0  0  0  0  0  0
   44.5143   11.3781   14.5116 C   0  0  2  0  0  0  0  0  0  0  0  0
   44.0574   10.2368   13.7638 O   0  0  0  0  0  0  0  0  0  0  0  0
   43.6184   12.6126   14.2351 C   0  0  2  0  0  0  0  0  0  0  0  0
   42.2239   12.3042   14.5732 O   0  0  0  0  0  0  0  0  0  0  0  0
   43.7197   12.9643   12.7389 C   0  0  1  0  0  0  0  0  0  0  0  0
   42.9054   14.1081   12.4540 O   0  0  0  0  0  0  0  0  0  0  0  0
   45.1889   13.2801   12.4180 C   0  0  2  0  0  0  0  0  0  0  0  0
   45.3130   13.6025   11.0160 O   0  0  0  0  0  0  0  0  0  0  0  0
   46.0455   12.0275   12.7514 C   0  0  2  0  0  0  0  0  0  0  0  0
   45.9050   11.6891   14.1653 O   0  0  0  0  0  0  0  0  0  0  0  0
   47.5239   12.3470   12.4641 C   0  0  0  0  0  0  0  0  0  0  0  0
   47.7113   12.6676   11.0802 O   0  0  0  0  0  0  0  0  0  0  0  0
  1  2  1  1  0  0  0
  1  3  1  0  0  0  0
  1  4  2  0  0  0  0
  1 16  1  0  0  0  0
  5  6  1  6  0  0  0
  5  7  1  0  0  0  0
  5 14  1  0  0  0  0
  7  8  1  6  0  0  0
  7  9  1  0  0  0  0
  9 10  1  1  0  0  0
  9 11  1  0  0  0  0
 11 12  1  6  0  0  0
 11 13  1  0  0  0  0
 13 14  1  0  0  0  0
 13 15  1  1  0  0  0
 15 16  1  0  0  0  0
M  CHG  1   3  -1
M  END
>  <CHROM.1>
-61.03917695,171.67421211,-62.27378320,46.33264391,12.70176327,12.31941518
0.42239628,0.25795613,-0.74432653

>  <Name>
ligand

>  <RI>
0

>  <Rbt.Current_Directory>
/home/itssahil/PROJECTS/Mol_Feturizer/New_Systems/rnas/2HO7

>  <Rbt.Executable>
rbdock ($Id: //depot/dev/client3/rdock/2013.1/src/exe/rbdock.cxx#4 $)

>  <Rbt.Library>
libRbt.so (2013.1, Build901 2013/11/27)

>  <Rbt.Parameter_File>
/export/apps/rDock/src/rDock_2013.1_src/data/scripts/dock_solv.prm

>  <Rbt.Receptor>
prm/pocket_docking_2.prm

>  <SCORE>
-9.95195

>  <SCORE.INTER>
-10.6602

>  <SCORE.INTER.CONST>
1

>  <SCORE.INTER.POLAR>
-1.29904

>  <SCORE.INTER.ROT>
3

>  <SCORE.INTER.SOLV>
12.3784

>  <SCORE.INTER.VDW>
-12.5028

>  <SCORE.INTER.norm>
-0.666265

>  <SCORE.INTRA>
0.708252

>  <SCORE.INTRA.DIHEDRAL>
0.340605

>  <SCORE.INTRA.DIHEDRAL.0>
0.00893466

>  <SCORE.INTRA.POLAR>
0

>  <SCORE.INTRA.POLAR.0>
0

>  <SCORE.INTRA.REPUL>
0

>  <SCORE.INTRA.REPUL.0>
0

>  <SCORE.INTRA.SOLV>
0.59799

>  <SCORE.INTRA.SOLV.lig_0>
-48.9722

>  <SCORE.INTRA.VDW>
0.238954

>  <SCORE.INTRA.VDW.0>
-0.529409

>  <SCORE.INTRA.norm>
0.0442658

>  <SCORE.RESTR>
3.78861e-05

>  <SCORE.RESTR.CAVITY>
3.78861e-05

>  <SCORE.RESTR.norm>
2.36788e-06

>  <SCORE.SYSTEM>
0

>  <SCORE.SYSTEM.CONST>
0

>  <SCORE.SYSTEM.DIHEDRAL>
0

>  <SCORE.SYSTEM.SOLV>
0

>  <SCORE.SYSTEM.norm>
0

>  <SCORE.heavy>
16

>  <SCORE.norm>
-0.621997

>  <RMSD>
0.886

$$$$
ligand
 OpenBabel11021811433D
libRbt.so/2013.1/901 2013/11/27
 16 16  0  0  0  0  0  0  0  0999 V2000
   49.6046   13.0182   11.6070 P   0  0  2  0  0  0  0  0  0  0  0  0
   49.9435   14.2921   12.2887 O   0  0  0  0  0  0  0  0  0  0  0  0
   50.7790   11.9485   11.8639 O   0  5  0  0  0  0  0  0  0  0  0  0
   49.4721   13.2947   10.0260 O   0  0  0  0  0  0  0  0  0  0  0  0
   44.7367   12.3223   14.4872 C   0  0  2  0  0  0  0  0  0  0  0  0
   44.3362   11.0161   14.0353 O   0  0  0  0  0  0  0  0  0  0  0  0
   43.6238   13.3657   14.2119 C   0  0  2  0  0  0  0  0  0  0  0  0
   42.3790   12.9551   14.8723 O   0  0  0  0  0  0  0  0  0  0  0  0
   43.3966   13.4478   12.6907 C   0  0  1  0  0  0  0  0  0  0  0  0
   42.3756   14.4112   12.4046 O   0  0  0  0  0  0  0  0  0  0  0  0
   44.7159   13.8779   12.0305 C   0  0  2  0  0  0  0  0  0  0  0  0
   44.5326   13.9514   10.6001 O   0  0  0  0  0  0  0  0  0  0  0  0
   45.8038   12.8224   12.3716 C   0  0  2  0  0  0  0  0  0  0  0  0
   45.9758   12.7334   13.8192 O   0  0  0  0  0  0  0  0  0  0  0  0
   47.1374   13.2634   11.7414 C   0  0  0  0  0  0  0  0  0  0  0  0
   48.2097   12.4265   12.1917 O   0  0  0  0  0  0  0  0  0  0  0  0
  1  2  1  1  0  0  0
  1  3  1  0  0  0  0
  1  4  2  0  0  0  0
  1 16  1  0  0  0  0
  5  6  1  6  0  0  0
  5  7  1  0  0  0  0
  5 14  1  0  0  0  0
  7  8  1  1  0  0  0
  7  9  1  0  0  0  0
  9 10  1  1  0  0  0
  9 11  1  0  0  0  0
 11 12  1  6  0  0  0
 11 13  1  0  0  0  0
 13 14  1  0  0  0  0
 13 15  1  6  0  0  0
 15 16  1  0  0  0  0
M  CHG  1   3  -1
M  END
>  <CHROM.1>
171.52771330,-174.86130581,70.66654679,46.35856344,13.06142587,12.49284589
-0.24029709,-0.18800637,2.14576728

>  <Name>
ligand

>  <RI>
0

>  <Rbt.Current_Directory>
/home/itssahil/PROJECTS/Mol_Feturizer/New_Systems/rnas/2HO7

>  <Rbt.Executable>
rbdock ($Id: //depot/dev/client3/rdock/2013.1/src/exe/rbdock.cxx#4 $)

>  <Rbt.Library>
libRbt.so (2013.1, Build901 2013/11/27)

>  <Rbt.Parameter_File>
/export/apps/rDock/src/rDock_2013.1_src/data/scripts/dock_solv.prm

>  <Rbt.Receptor>
prm/pocket_docking_5.prm

>  <SCORE>
-10.9028

>  <SCORE.INTER>
-11.2833

>  <SCORE.INTER.CONST>
1

>  <SCORE.INTER.POLAR>
-1.29904

>  <SCORE.INTER.ROT>
3

>  <SCORE.INTER.SOLV>
12.8512

>  <SCORE.INTER.VDW>
-13.0758

>  <SCORE.INTER.norm>
-0.705209

>  <SCORE.INTRA>
0.380584

>  <SCORE.INTRA.DIHEDRAL>
0.558336

>  <SCORE.INTRA.DIHEDRAL.0>
0.00893466

>  <SCORE.INTRA.POLAR>
0

>  <SCORE.INTRA.POLAR.0>
0

>  <SCORE.INTRA.REPUL>
0

>  <SCORE.INTRA.REPUL.0>
0

>  <SCORE.INTRA.SOLV>
0.131839

>  <SCORE.INTRA.SOLV.lig_0>
-48.9722

>  <SCORE.INTRA.VDW>
0.0354958

>  <SCORE.INTRA.VDW.0>
-0.529409

>  <SCORE.INTRA.norm>
0.0237865

>  <SCORE.RESTR>
0

>  <SCORE.RESTR.CAVITY>
0

>  <SCORE.RESTR.norm>
0

>  <SCORE.SYSTEM>
0

>  <SCORE.SYSTEM.CONST>
0

>  <SCORE.SYSTEM.DIHEDRAL>
0

>  <SCORE.SYSTEM.SOLV>
0

>  <SCORE.SYSTEM.norm>
0

>  <SCORE.heavy>
16

>  <SCORE.norm>
-0.681423

>  <RMSD>
0.886

$$$$
ligand
 OpenBabel11021811433D
libRbt.so/2013.1/901 2013/11/27
 16 16  0  0  0  0  0  0  0  0999 V2000
   49.6003   13.1519   11.5057 P   0  0  2  0  0  0  0  0  0  0  0  0
   50.3227   14.3823   11.9138 O   0  0  0  0  0  0  0  0  0  0  0  0
   50.4366   11.8617   11.9806 O   0  5  0  0  0  0  0  0  0  0  0  0
   49.4643   13.1377    9.9010 O   0  0  0  0  0  0  0  0  0  0  0  0
   44.8577   11.9199   14.5833 C   0  0  2  0  0  0  0  0  0  0  0  0
   44.2552   10.6301   14.3736 O   0  0  0  0  0  0  0  0  0  0  0  0
   43.9693   13.0453   13.9940 C   0  0  2  0  0  0  0  0  0  0  0  0
   42.6345   12.9990   14.6025 O   0  0  0  0  0  0  0  0  0  0  0  0
   43.8498   12.8279   12.4738 C   0  0  1  0  0  0  0  0  0  0  0  0
   43.0379   13.8590   11.8993 O   0  0  0  0  0  0  0  0  0  0  0  0
   45.2613   12.8809   11.8686 C   0  0  2  0  0  0  0  0  0  0  0  0
   45.1781   12.6680   10.4429 O   0  0  0  0  0  0  0  0  0  0  0  0
   46.1192   11.7624   12.5221 C   0  0  2  0  0  0  0  0  0  0  0  0
   46.1874   11.9661   13.9668 O   0  0  0  0  0  0  0  0  0  0  0  0
   47.5449   11.8301   11.9452 C   0  0  0  0  0  0  0  0  0  0  0  0
   48.1295   13.1145   12.1935 O   0  0  0  0  0  0  0  0  0  0  0  0
  1  2  1  1  0  0  0
  1  3  1  0  0  0  0
  1  4  2  0  0  0  0
  1 16  1  0  0  0  0
  5  6  1  6  0  0  0
  5  7  1  0  0  0  0
  5 14  1  0  0  0  0
  7  8  1  1  0  0  0
  7  9  1  0  0  0  0
  9 10  1  6  0  0  0
  9 11  1  0  0  0  0
 11 12  1  6  0  0  0
 11 13  1  0  0  0  0
 13 14  1  0  0  0  0
 13 15  1  6  0  0  0
 15 16  1  0  0  0  0
M  CHG  1   3  -1
M  END
>  <CHROM.1>
58.67360063,-177.40824149,-171.34369948,46.57519103,12.67262244,12.42168936
-0.34213644,-0.09294805,2.07494642

>  <Name>
ligand

>  <RI>
0

>  <Rbt.Current_Directory>
/home/itssahil/PROJECTS/Mol_Feturizer/New_Systems/rnas/2HO7

>  <Rbt.Executable>
rbdock ($Id: //depot/dev/client3/rdock/2013.1/src/exe/rbdock.cxx#4 $)

>  <Rbt.Library>
libRbt.so (2013.1, Build901 2013/11/27)

>  <Rbt.Parameter_File>
/export/apps/rDock/src/rDock_2013.1_src/data/scripts/dock_solv.prm

>  <Rbt.Receptor>
prm/pocket_docking_2.prm

>  <SCORE>
-10.8728

>  <SCORE.INTER>
-11.3318

>  <SCORE.INTER.CONST>
1

>  <SCORE.INTER.POLAR>
-1.29904

>  <SCORE.INTER.ROT>
3

>  <SCORE.INTER.SOLV>
13.0342

>  <SCORE.INTER.VDW>
-13.1692

>  <SCORE.INTER.norm>
-0.708238

>  <SCORE.INTRA>
0.456508

>  <SCORE.INTRA.DIHEDRAL>
0.151182

>  <SCORE.INTRA.DIHEDRAL.0>
0.00893466

>  <SCORE.INTRA.POLAR>
0

>  <SCORE.INTRA.POLAR.0>
0

>  <SCORE.INTRA.REPUL>
0

>  <SCORE.INTRA.REPUL.0>
0

>  <SCORE.INTRA.SOLV>
0.969293

>  <SCORE.INTRA.SOLV.lig_0>
-48.9722

>  <SCORE.INTRA.VDW>
-0.10373

>  <SCORE.INTRA.VDW.0>
-0.529409

>  <SCORE.INTRA.norm>
0.0285318

>  <SCORE.RESTR>
0.00248242

>  <SCORE.RESTR.CAVITY>
0.00248242

>  <SCORE.RESTR.norm>
0.000155151

>  <SCORE.SYSTEM>
0

>  <SCORE.SYSTEM.CONST>
0

>  <SCORE.SYSTEM.DIHEDRAL>
0

>  <SCORE.SYSTEM.SOLV>
0

>  <SCORE.SYSTEM.norm>
0

>  <SCORE.heavy>
16

>  <SCORE.norm>
-0.679551

>  <RMSD>
0.889

$$$$
ligand
 OpenBabel11021811433D
libRbt.so/2013.1/901 2013/11/27
 16 16  0  0  0  0  0  0  0  0999 V2000
   49.6181   13.1248   11.5747 P   0  0  2  0  0  0  0  0  0  0  0  0
   50.3482   14.3404   12.0124 O   0  0  0  0  0  0  0  0  0  0  0  0
   50.4289   11.8179   12.0483 O   0  5  0  0  0  0  0  0  0  0  0  0
   49.5125   13.1330    9.9677 O   0  0  0  0  0  0  0  0  0  0  0  0
   44.8369   11.9070   14.5740 C   0  0  2  0  0  0  0  0  0  0  0  0
   44.2271   10.6235   14.3477 O   0  0  0  0  0  0  0  0  0  0  0  0
   43.9572   13.0447   13.9953 C   0  0  2  0  0  0  0  0  0  0  0  0
   42.6204   12.9996   14.5995 O   0  0  0  0  0  0  0  0  0  0  0  0
   43.8408   12.8456   12.4724 C   0  0  1  0  0  0  0  0  0  0  0  0
   43.0369   13.8883   11.9075 O   0  0  0  0  0  0  0  0  0  0  0  0
   45.2543   12.8968   11.8718 C   0  0  2  0  0  0  0  0  0  0  0  0
   45.1739   12.7009   10.4435 O   0  0  0  0  0  0  0  0  0  0  0  0
   46.1034   11.7655   12.5147 C   0  0  2  0  0  0  0  0  0  0  0  0
   46.1688   11.9521   13.9618 O   0  0  0  0  0  0  0  0  0  0  0  0
   47.5311   11.8309   11.9427 C   0  0  0  0  0  0  0  0  0  0  0  0
   48.1342   13.0975   12.2342 O   0  0  0  0  0  0  0  0  0  0  0  0
  1  2  1  1  0  0  0
  1  3  1  0  0  0  0
  1  4  2  0  0  0  0
  1 16  1  0  0  0  0
  5  6  1  6  0  0  0
  5  7  1  0  0  0  0
  5 14  1  0  0  0  0
  7  8  1  1  0  0  0
  7  9  1  0  0  0  0
  9 10  1  6  0  0  0
  9 11  1  0  0  0  0
 11 12  1  6  0  0  0
 11 13  1  0  0  0  0
 13 14  1  0  0  0  0
 13 15  1  6  0  0  0
 15 16  1  0  0  0  0
M  CHG  1   3  -1
M  END
>  <CHROM.1>
60.00452971,-178.48711548,-172.11838531,46.57360450,12.66644038,12.44491825
-0.32619220,-0.09342736,2.08161484

>  <Name>
ligand

>  <RI>
0

>  <Rbt.Current_Directory>
/home/itssahil/PROJECTS/Mol_Feturizer/New_Systems/rnas/2HO7

>  <Rbt.Executable>
rbdock ($Id: //depot/dev/client3/rdock/2013.1/src/exe/rbdock.cxx#4 $)

>  <Rbt.Library>
libRbt.so (2013.1, Build901 2013/11/27)

>  <Rbt.Parameter_File>
/export/apps/rDock/src/rDock_2013.1_src/data/scripts/dock_solv.prm

>  <Rbt.Receptor>
prm/pocket_docking_2.prm

>  <SCORE>
-10.882

>  <SCORE.INTER>
-11.2807

>  <SCORE.INTER.CONST>
1

>  <SCORE.INTER.POLAR>
-1.29904

>  <SCORE.INTER.ROT>
3

>  <SCORE.INTER.SOLV>
13.1784

>  <SCORE.INTER.VDW>
-13.1831

>  <SCORE.INTER.norm>
-0.705043

>  <SCORE.INTRA>
0.398686

>  <SCORE.INTRA.DIHEDRAL>
0.102546

>  <SCORE.INTRA.DIHEDRAL.0>
0.00893466

>  <SCORE.INTRA.POLAR>
0

>  <SCORE.INTRA.POLAR.0>
0

>  <SCORE.INTRA.REPUL>
0

>  <SCORE.INTRA.REPUL.0>
0

>  <SCORE.INTRA.SOLV>
0.936807

>  <SCORE.INTRA.SOLV.lig_0>
-48.9722

>  <SCORE.INTRA.VDW>
-0.120991

>  <SCORE.INTRA.VDW.0>
-0.529409

>  <SCORE.INTRA.norm>
0.0249179

>  <SCORE.RESTR>
0

>  <SCORE.RESTR.CAVITY>
0

>  <SCORE.RESTR.norm>
0

>  <SCORE.SYSTEM>
0

>  <SCORE.SYSTEM.CONST>
0

>  <SCORE.SYSTEM.DIHEDRAL>
0

>  <SCORE.SYSTEM.SOLV>
0

>  <SCORE.SYSTEM.norm>
0

>  <SCORE.heavy>
16

>  <SCORE.norm>
-0.680125

>  <RMSD>
0.889

$$$$
ligand
 OpenBabel11021811433D
libRbt.so/2013.1/901 2013/11/27
 16 16  0  0  0  0  0  0  0  0999 V2000
   49.2656   13.0843   11.5082 P   0  0  2  0  0  0  0  0  0  0  0  0
   49.8655   14.4030   11.8300 O   0  0  0  0  0  0  0  0  0  0  0  0
   50.3304   11.9221   11.8325 O   0  5  0  0  0  0  0  0  0  0  0  0
   48.8994   13.0492    9.9404 O   0  0  0  0  0  0  0  0  0  0  0  0
   44.4382   11.3425   14.3930 C   0  0  2  0  0  0  0  0  0  0  0  0
   43.7252   10.2364   13.8109 O   0  0  0  0  0  0  0  0  0  0  0  0
   43.7177   12.6818   14.0925 C   0  0  2  0  0  0  0  0  0  0  0  0
   42.3420   12.6347   14.6018 O   0  0  0  0  0  0  0  0  0  0  0  0
   43.6949   12.8926   12.5669 C   0  0  1  0  0  0  0  0  0  0  0  0
   43.0394   14.1286   12.2584 O   0  0  0  0  0  0  0  0  0  0  0  0
   45.1470   12.9359   12.0661 C   0  0  2  0  0  0  0  0  0  0  0  0
   45.1533   13.1216   10.6342 O   0  0  0  0  0  0  0  0  0  0  0  0
   45.8330   11.5899   12.4288 C   0  0  2  0  0  0  0  0  0  0  0  0
   45.8095   11.3921   13.8757 O   0  0  0  0  0  0  0  0  0  0  0  0
   47.2986   11.6380   11.9600 C   0  0  0  0  0  0  0  0  0  0  0  0
   47.9304   12.8459   12.4015 O   0  0  0  0  0  0  0  0  0  0  0  0
  1  2  1  1  0  0  0
  1  3  1  0  0  0  0
  1  4  2  0  0  0  0
  1 16  1  0  0  0  0
  5  6  1  6  0  0  0
  5  7  1  0  0  0  0
  5 14  1  0  0  0  0
  7  8  1  6  0  0  0
  7  9  1  0  0  0  0
  9 10  1  1  0  0  0
  9 11  1  0  0  0  0
 11 12  1  6  0  0  0
 11 13  1  0  0  0  0
 13 14  1  0  0  0  0
 13 15  1  1  0  0  0
 15 16  1  0  0  0  0
M  CHG  1   3  -1
M  END
>  <CHROM.1>
49.34597153,-161.77524254,173.64109274,46.29733457,12.54713452,12.42264042
0.32740190,0.18805391,-0.73432640

>  <Name>
ligand

>  <RI>
0

>  <Rbt.Current_Directory>
/home/itssahil/PROJECTS/Mol_Feturizer/New_Systems/rnas/2HO7

>  <Rbt.Executable>
rbdock ($Id: //depot/dev/client3/rdock/2013.1/src/exe/rbdock.cxx#4 $)

>  <Rbt.Library>
libRbt.so (2013.1, Build901 2013/11/27)

>  <Rbt.Parameter_File>
/export/apps/rDock/src/rDock_2013.1_src/data/scripts/dock_solv.prm

>  <Rbt.Receptor>
prm/pocket_docking_2.prm

>  <SCORE>
-9.42433

>  <SCORE.INTER>
-11.0818

>  <SCORE.INTER.CONST>
1

>  <SCORE.INTER.POLAR>
-1.29904

>  <SCORE.INTER.ROT>
3

>  <SCORE.INTER.SOLV>
12.8527

>  <SCORE.INTER.VDW>
-12.942

>  <SCORE.INTER.norm>
-0.692615

>  <SCORE.INTRA>
1.65573

>  <SCORE.INTRA.DIHEDRAL>
1.97712

>  <SCORE.INTRA.DIHEDRAL.0>
0.00893466

>  <SCORE.INTRA.POLAR>
0

>  <SCORE.INTRA.POLAR.0>
0

>  <SCORE.INTRA.REPUL>
0

>  <SCORE.INTRA.REPUL.0>
0

>  <SCORE.INTRA.SOLV>
1.6503

>  <SCORE.INTRA.SOLV.lig_0>
-48.9722

>  <SCORE.INTRA.VDW>
-0.157976

>  <SCORE.INTRA.VDW.0>
-0.529409

>  <SCORE.INTRA.norm>
0.103483

>  <SCORE.RESTR>
0.00177893

>  <SCORE.RESTR.CAVITY>
0.00177893

>  <SCORE.RESTR.norm>
0.000111183

>  <SCORE.SYSTEM>
0

>  <SCORE.SYSTEM.CONST>
0

>  <SCORE.SYSTEM.DIHEDRAL>
0

>  <SCORE.SYSTEM.SOLV>
0

>  <SCORE.SYSTEM.norm>
0

>  <SCORE.heavy>
16

>  <SCORE.norm>
-0.589021

>  <RMSD>
0.890

$$$$
ligand
 OpenBabel11021811433D
libRbt.so/2013.1/901 2013/11/27
 16 16  0  0  0  0  0  0  0  0999 V2000
   49.6537   13.1470   11.5338 P   0  0  2  0  0  0  0  0  0  0  0  0
   50.3751   14.3768   11.9457 O   0  0  0  0  0  0  0  0  0  0  0  0
   50.4920   11.8560   12.0034 O   0  5  0  0  0  0  0  0  0  0  0  0
   49.5163   13.1385    9.9293 O   0  0  0  0  0  0  0  0  0  0  0  0
   44.9176   11.9649   14.5921 C   0  0  2  0  0  0  0  0  0  0  0  0
   44.3384   10.6575   14.4315 O   0  0  0  0  0  0  0  0  0  0  0  0
   44.0022   13.0527   13.9742 C   0  0  2  0  0  0  0  0  0  0  0  0
   42.6741   13.0014   14.5968 O   0  0  0  0  0  0  0  0  0  0  0  0
   43.8732   12.7821   12.4634 C   0  0  1  0  0  0  0  0  0  0  0  0
   43.0362   13.7775   11.8626 O   0  0  0  0  0  0  0  0  0  0  0  0
   45.2778   12.8416   11.8430 C   0  0  2  0  0  0  0  0  0  0  0  0
   45.1858   12.5793   10.4261 O   0  0  0  0  0  0  0  0  0  0  0  0
   46.1632   11.7623   12.5252 C   0  0  2  0  0  0  0  0  0  0  0  0
   46.2406   12.0157   13.9615 O   0  0  0  0  0  0  0  0  0  0  0  0
   47.5820   11.8377   11.9326 C   0  0  0  0  0  0  0  0  0  0  0  0
   48.1836   13.1054   12.2228 O   0  0  0  0  0  0  0  0  0  0  0  0
  1  2  1  1  0  0  0
  1  3  1  0  0  0  0
  1  4  2  0  0  0  0
  1 16  1  0  0  0  0
  5  6  1  6  0  0  0
  5  7  1  0  0  0  0
  5 14  1  0  0  0  0
  7  8  1  1  0  0  0
  7  9  1  0  0  0  0
  9 10  1  6  0  0  0
  9 11  1  0  0  0  0
 11 12  1  6  0  0  0
 11 13  1  0  0  0  0
 13 14  1  0  0  0  0
 13 15  1  6  0  0  0
 15 16  1  0  0  0  0
M  CHG  1   3  -1
M  END
>  <CHROM.1>
63.17195930,-178.13639237,-173.24981482,46.61774786,12.66381490,12.42884374
-0.33809615,-0.07326168,2.02955921

>  <Name>
ligand

>  <RI>
0

>  <Rbt.Current_Directory>
/home/itssahil/PROJECTS/Mol_Feturizer/New_Systems/rnas/2HO7

>  <Rbt.Executable>
rbdock ($Id: //depot/dev/client3/rdock/2013.1/src/exe/rbdock.cxx#4 $)

>  <Rbt.Library>
libRbt.so (2013.1, Build901 2013/11/27)

>  <Rbt.Parameter_File>
/export/apps/rDock/src/rDock_2013.1_src/data/scripts/dock_solv.prm

>  <Rbt.Receptor>
prm/pocket_docking_2.prm

>  <SCORE>
-10.8591

>  <SCORE.INTER>
-11.2331

>  <SCORE.INTER.CONST>
1

>  <SCORE.INTER.POLAR>
-1.29904

>  <SCORE.INTER.ROT>
3

>  <SCORE.INTER.SOLV>
13.2033

>  <SCORE.INTER.VDW>
-13.1597

>  <SCORE.INTER.norm>
-0.702071

>  <SCORE.INTRA>
0.374079

>  <SCORE.INTRA.DIHEDRAL>
0.117979

>  <SCORE.INTRA.DIHEDRAL.0>
0.00893466

>  <SCORE.INTRA.POLAR>
0

>  <SCORE.INTRA.POLAR.0>
0

>  <SCORE.INTRA.REPUL>
0

>  <SCORE.INTRA.REPUL.0>
0

>  <SCORE.INTRA.SOLV>
0.93584

>  <SCORE.INTRA.SOLV.lig_0>
-48.9722

>  <SCORE.INTRA.VDW>
-0.152831

>  <SCORE.INTRA.VDW.0>
-0.529409

>  <SCORE.INTRA.norm>
0.0233799

>  <SCORE.RESTR>
0

>  <SCORE.RESTR.CAVITY>
0

>  <SCORE.RESTR.norm>
0

>  <SCORE.SYSTEM>
0

>  <SCORE.SYSTEM.CONST>
0

>  <SCORE.SYSTEM.DIHEDRAL>
0

>  <SCORE.SYSTEM.SOLV>
0

>  <SCORE.SYSTEM.norm>
0

>  <SCORE.heavy>
16

>  <SCORE.norm>
-0.678691

>  <RMSD>
0.895

$$$$
ligand
 OpenBabel11021811433D
libRbt.so/2013.1/901 2013/11/27
 16 16  0  0  0  0  0  0  0  0999 V2000
   49.6270   13.1645   11.4740 P   0  0  2  0  0  0  0  0  0  0  0  0
   50.3372   14.4135   11.8456 O   0  0  0  0  0  0  0  0  0  0  0  0
   50.5032   11.8965   11.9367 O   0  5  0  0  0  0  0  0  0  0  0  0
   49.4414   13.1290    9.8746 O   0  0  0  0  0  0  0  0  0  0  0  0
   44.9173   11.9773   14.5903 C   0  0  2  0  0  0  0  0  0  0  0  0
   44.3390   10.6684   14.4386 O   0  0  0  0  0  0  0  0  0  0  0  0
   44.0007   13.0603   13.9657 C   0  0  2  0  0  0  0  0  0  0  0  0
   42.6730   13.0120   14.5895 O   0  0  0  0  0  0  0  0  0  0  0  0
   43.8711   12.7797   12.4568 C   0  0  1  0  0  0  0  0  0  0  0  0
   43.0329   13.7705   11.8500 O   0  0  0  0  0  0  0  0  0  0  0  0
   45.2753   12.8363   11.8353 C   0  0  2  0  0  0  0  0  0  0  0  0
   45.1827   12.5646   10.4202 O   0  0  0  0  0  0  0  0  0  0  0  0
   46.1618   11.7622   12.5240 C   0  0  2  0  0  0  0  0  0  0  0  0
   46.2399   12.0251   13.9586 O   0  0  0  0  0  0  0  0  0  0  0  0
   47.5803   11.8348   11.9301 C   0  0  0  0  0  0  0  0  0  0  0  0
   48.1794   13.1064   12.2080 O   0  0  0  0  0  0  0  0  0  0  0  0
  1  2  1  1  0  0  0
  1  3  1  0  0  0  0
  1  4  2  0  0  0  0
  1 16  1  0  0  0  0
  5  6  1  6  0  0  0
  5  7  1  0  0  0  0
  5 14  1  0  0  0  0
  7  8  1  1  0  0  0
  7  9  1  0  0  0  0
  9 10  1  6  0  0  0
  9 11  1  0  0  0  0
 11 12  1  6  0  0  0
 11 13  1  0  0  0  0
 13 14  1  0  0  0  0
 13 15  1  6  0  0  0
 15 16  1  0  0  0  0
M  CHG  1   3  -1
M  END
>  <CHROM.1>
62.98585397,-176.15856930,-174.52000099,46.60685690,12.67132388,12.40383319
-0.34928074,-0.07530078,2.02804098

>  <Name>
ligand

>  <RI>
0

>  <Rbt.Current_Directory>
/home/itssahil/PROJECTS/Mol_Feturizer/New_Systems/rnas/2HO7

>  <Rbt.Executable>
rbdock ($Id: //depot/dev/client3/rdock/2013.1/src/exe/rbdock.cxx#4 $)

>  <Rbt.Library>
libRbt.so (2013.1, Build901 2013/11/27)

>  <Rbt.Parameter_File>
/export/apps/rDock/src/rDock_2013.1_src/data/scripts/dock_solv.prm

>  <Rbt.Receptor>
prm/pocket_docking_2.prm

>  <SCORE>
-10.8254

>  <SCORE.INTER>
-11.2231

>  <SCORE.INTER.CONST>
1

>  <SCORE.INTER.POLAR>
-1.29766

>  <SCORE.INTER.ROT>
3

>  <SCORE.INTER.SOLV>
13.0252

>  <SCORE.INTER.VDW>
-13.0982

>  <SCORE.INTER.norm>
-0.701442

>  <SCORE.INTRA>
0.397412

>  <SCORE.INTRA.DIHEDRAL>
0.144311

>  <SCORE.INTRA.DIHEDRAL.0>
0.00893466

>  <SCORE.INTRA.POLAR>
0

>  <SCORE.INTRA.POLAR.0>
0

>  <SCORE.INTRA.REPUL>
0

>  <SCORE.INTRA.REPUL.0>
0

>  <SCORE.INTRA.SOLV>
0.994261

>  <SCORE.INTRA.SOLV.lig_0>
-48.9722

>  <SCORE.INTRA.VDW>
-0.171875

>  <SCORE.INTRA.VDW.0>
-0.529409

>  <SCORE.INTRA.norm>
0.0248382

>  <SCORE.RESTR>
0.000228921

>  <SCORE.RESTR.CAVITY>
0.000228921

>  <SCORE.RESTR.norm>
1.43076e-05

>  <SCORE.SYSTEM>
0

>  <SCORE.SYSTEM.CONST>
0

>  <SCORE.SYSTEM.DIHEDRAL>
0

>  <SCORE.SYSTEM.SOLV>
0

>  <SCORE.SYSTEM.norm>
0

>  <SCORE.heavy>
16

>  <SCORE.norm>
-0.676589

>  <RMSD>
0.895

$$$$
ligand
 OpenBabel11021811433D
libRbt.so/2013.1/901 2013/11/27
 16 16  0  0  0  0  0  0  0  0999 V2000
   49.7909   13.1771   11.6081 P   0  0  2  0  0  0  0  0  0  0  0  0
   50.5206   14.3810   12.0778 O   0  0  0  0  0  0  0  0  0  0  0  0
   50.6180   11.8594   12.0197 O   0  5  0  0  0  0  0  0  0  0  0  0
   49.6577   13.2434   10.0045 O   0  0  0  0  0  0  0  0  0  0  0  0
   44.9694   11.8211   14.5202 C   0  0  2  0  0  0  0  0  0  0  0  0
   44.3309   10.5750   14.1882 O   0  0  0  0  0  0  0  0  0  0  0  0
   44.1278   13.0222   14.0182 C   0  0  2  0  0  0  0  0  0  0  0  0
   42.7810   12.9666   14.5988 O   0  0  0  0  0  0  0  0  0  0  0  0
   44.0302   12.9427   12.4831 C   0  0  1  0  0  0  0  0  0  0  0  0
   43.2618   14.0461   11.9886 O   0  0  0  0  0  0  0  0  0  0  0  0
   45.4538   13.0020   11.9075 C   0  0  2  0  0  0  0  0  0  0  0  0
   45.3907   12.9174   10.4674 O   0  0  0  0  0  0  0  0  0  0  0  0
   46.2638   11.8031   12.4736 C   0  0  2  0  0  0  0  0  0  0  0  0
   46.3113   11.8774   13.9315 O   0  0  0  0  0  0  0  0  0  0  0  0
   47.7016   11.8742   11.9278 C   0  0  0  0  0  0  0  0  0  0  0  0
   48.3187   13.1153   12.2911 O   0  0  0  0  0  0  0  0  0  0  0  0
  1  2  1  1  0  0  0
  1  3  1  0  0  0  0
  1  4  2  0  0  0  0
  1 16  1  0  0  0  0
  5  6  1  6  0  0  0
  5  7  1  0  0  0  0
  5 14  1  0  0  0  0
  7  8  1  1  0  0  0
  7  9  1  0  0  0  0
  9 10  1  6  0  0  0
  9 11  1  0  0  0  0
 11 12  1  6  0  0  0
 11 13  1  0  0  0  0
 13 14  1  0  0  0  0
 13 15  1  6  0  0  0
 15 16  1  0  0  0  0
M  CHG  1   3  -1
M  END
>  <CHROM.1>
58.34998115,-176.27566466,-173.95557906,46.74469956,12.70892011,12.44969734
-0.31689317,-0.11299537,2.16829965

>  <Name>
ligand

>  <RI>
0

>  <Rbt.Current_Directory>
/home/itssahil/PROJECTS/Mol_Feturizer/New_Systems/rnas/2HO7

>  <Rbt.Executable>
rbdock ($Id: //depot/dev/client3/rdock/2013.1/src/exe/rbdock.cxx#4 $)

>  <Rbt.Library>
libRbt.so (2013.1, Build901 2013/11/27)

>  <Rbt.Parameter_File>
/export/apps/rDock/src/rDock_2013.1_src/data/scripts/dock_solv.prm

>  <Rbt.Receptor>
prm/pocket_docking_2.prm

>  <SCORE>
-10.7127

>  <SCORE.INTER>
-11.143

>  <SCORE.INTER.CONST>
1

>  <SCORE.INTER.POLAR>
-1.29511

>  <SCORE.INTER.ROT>
3

>  <SCORE.INTER.SOLV>
12.7692

>  <SCORE.INTER.VDW>
-12.9681

>  <SCORE.INTER.norm>
-0.696439

>  <SCORE.INTRA>
0.430274

>  <SCORE.INTRA.DIHEDRAL>
0.128484

>  <SCORE.INTRA.DIHEDRAL.0>
0.00893466

>  <SCORE.INTRA.POLAR>
0

>  <SCORE.INTRA.POLAR.0>
0

>  <SCORE.INTRA.REPUL>
0

>  <SCORE.INTRA.REPUL.0>
0

>  <SCORE.INTRA.SOLV>
1.00674

>  <SCORE.INTRA.SOLV.lig_0>
-48.9722

>  <SCORE.INTRA.VDW>
-0.137339

>  <SCORE.INTRA.VDW.0>
-0.529409

>  <SCORE.INTRA.norm>
0.0268921

>  <SCORE.RESTR>
0

>  <SCORE.RESTR.CAVITY>
0

>  <SCORE.RESTR.norm>
0

>  <SCORE.SYSTEM>
0

>  <SCORE.SYSTEM.CONST>
0

>  <SCORE.SYSTEM.DIHEDRAL>
0

>  <SCORE.SYSTEM.SOLV>
0

>  <SCORE.SYSTEM.norm>
0

>  <SCORE.heavy>
16

>  <SCORE.norm>
-0.669547

>  <RMSD>
0.916

$$$$
ligand
 OpenBabel11021811433D
libRbt.so/2013.1/901 2013/11/27
 16 16  0  0  0  0  0  0  0  0999 V2000
   49.2123   13.3098   10.5424 P   0  0  2  0  0  0  0  0  0  0  0  0
   49.5073   14.5264   11.3394 O   0  0  0  0  0  0  0  0  0  0  0  0
   50.2632   12.1536   10.9277 O   0  5  0  0  0  0  0  0  0  0  0  0
   49.3604   13.6650    8.9786 O   0  0  0  0  0  0  0  0  0  0  0  0
   44.7136   11.5864   14.4979 C   0  0  2  0  0  0  0  0  0  0  0  0
   44.2895   10.3862   13.8268 O   0  0  0  0  0  0  0  0  0  0  0  0
   43.7403   12.7562   14.2023 C   0  0  2  0  0  0  0  0  0  0  0  0
   42.3802   12.3917   14.6164 O   0  0  0  0  0  0  0  0  0  0  0  0
   43.7594   13.0369   12.6880 C   0  0  1  0  0  0  0  0  0  0  0  0
   42.8722   14.1200   12.3847 O   0  0  0  0  0  0  0  0  0  0  0  0
   45.1943   13.4135   12.2873 C   0  0  2  0  0  0  0  0  0  0  0  0
   45.2419   13.6709   10.8673 O   0  0  0  0  0  0  0  0  0  0  0  0
   46.1319   12.2265   12.6423 C   0  0  2  0  0  0  0  0  0  0  0  0
   46.0693   11.9529   14.0756 O   0  0  0  0  0  0  0  0  0  0  0  0
   47.5771   12.6090   12.2745 C   0  0  0  0  0  0  0  0  0  0  0  0
   47.7076   12.7870   10.8588 O   0  0  0  0  0  0  0  0  0  0  0  0
  1  2  1  1  0  0  0
  1  3  1  0  0  0  0
  1  4  2  0  0  0  0
  1 16  1  0  0  0  0
  5  6  1  6  0  0  0
  5  7  1  0  0  0  0
  5 14  1  0  0  0  0
  7  8  1  6  0  0  0
  7  9  1  0  0  0  0
  9 10  1  1  0  0  0
  9 11  1  0  0  0  0
 11 12  1  6  0  0  0
 11 13  1  0  0  0  0
 13 14  1  0  0  0  0
 13 15  1  1  0  0  0
 15 16  1  0  0  0  0
M  CHG  1   3  -1
M  END
>  <CHROM.1>
-64.66072016,175.26157542,-54.32286327,46.38008198,12.82992035,12.15333377
-0.47461979,-0.26920306,2.32183113

>  <Name>
ligand

>  <RI>
0

>  <Rbt.Current_Directory>
/home/itssahil/PROJECTS/Mol_Feturizer/New_Systems/rnas/2HO7

>  <Rbt.Executable>
rbdock ($Id: //depot/dev/client3/rdock/2013.1/src/exe/rbdock.cxx#4 $)

>  <Rbt.Library>
libRbt.so (2013.1, Build901 2013/11/27)

>  <Rbt.Parameter_File>
/export/apps/rDock/src/rDock_2013.1_src/data/scripts/dock_solv.prm

>  <Rbt.Receptor>
prm/pocket_docking_2.prm

>  <SCORE>
-9.91862

>  <SCORE.INTER>
-10.4415

>  <SCORE.INTER.CONST>
1

>  <SCORE.INTER.POLAR>
-1.29904

>  <SCORE.INTER.ROT>
3

>  <SCORE.INTER.SOLV>
11.7313

>  <SCORE.INTER.VDW>
-12.1413

>  <SCORE.INTER.norm>
-0.652591

>  <SCORE.INTRA>
0.522842

>  <SCORE.INTRA.DIHEDRAL>
0.232158

>  <SCORE.INTRA.DIHEDRAL.0>
0.00893466

>  <SCORE.INTRA.POLAR>
0

>  <SCORE.INTRA.POLAR.0>
0

>  <SCORE.INTRA.REPUL>
0

>  <SCORE.INTRA.REPUL.0>
0

>  <SCORE.INTRA.SOLV>
0.463139

>  <SCORE.INTRA.SOLV.lig_0>
-48.9722

>  <SCORE.INTRA.VDW>
0.175193

>  <SCORE.INTRA.VDW.0>
-0.529409

>  <SCORE.INTRA.norm>
0.0326776

>  <SCORE.RESTR>
0

>  <SCORE.RESTR.CAVITY>
0

>  <SCORE.RESTR.norm>
0

>  <SCORE.SYSTEM>
0

>  <SCORE.SYSTEM.CONST>
0

>  <SCORE.SYSTEM.DIHEDRAL>
0

>  <SCORE.SYSTEM.SOLV>
0

>  <SCORE.SYSTEM.norm>
0

>  <SCORE.heavy>
16

>  <SCORE.norm>
-0.619913

>  <RMSD>
0.925

$$$$
ligand
 OpenBabel11021811433D
libRbt.so/2013.1/901 2013/11/27
 16 16  0  0  0  0  0  0  0  0999 V2000
   49.8361   13.2067   11.6622 P   0  0  2  0  0  0  0  0  0  0  0  0
   50.5889   14.3632   12.2081 O   0  0  0  0  0  0  0  0  0  0  0  0
   50.6076   11.8450   12.0367 O   0  5  0  0  0  0  0  0  0  0  0  0
   49.7546   13.3496   10.0602 O   0  0  0  0  0  0  0  0  0  0  0  0
   44.9640   11.8090   14.4494 C   0  0  2  0  0  0  0  0  0  0  0  0
   44.2977   10.6004   14.0420 O   0  0  0  0  0  0  0  0  0  0  0  0
   44.1505   13.0575   14.0224 C   0  0  2  0  0  0  0  0  0  0  0  0
   42.8023   12.9970   14.5993 O   0  0  0  0  0  0  0  0  0  0  0  0
   44.0524   13.0744   12.4853 C   0  0  1  0  0  0  0  0  0  0  0  0
   43.3097   14.2232   12.0598 O   0  0  0  0  0  0  0  0  0  0  0  0
   45.4774   13.1365   11.9137 C   0  0  2  0  0  0  0  0  0  0  0  0
   45.4137   13.1418   10.4712 O   0  0  0  0  0  0  0  0  0  0  0  0
   46.2595   11.8871   12.4049 C   0  0  2  0  0  0  0  0  0  0  0  0
   46.3074   11.8707   13.8646 O   0  0  0  0  0  0  0  0  0  0  0  0
   47.6990   11.9587   11.8637 C   0  0  0  0  0  0  0  0  0  0  0  0
   48.3423   13.1631   12.2981 O   0  0  0  0  0  0  0  0  0  0  0  0
  1  2  1  1  0  0  0
  1  3  1  0  0  0  0
  1  4  2  0  0  0  0
  1 16  1  0  0  0  0
  5  6  1  6  0  0  0
  5  7  1  0  0  0  0
  5 14  1  0  0  0  0
  7  8  1  1  0  0  0
  7  9  1  0  0  0  0
  9 10  1  1  0  0  0
  9 11  1  0  0  0  0
 11 12  1  6  0  0  0
 11 13  1  0  0  0  0
 13 14  1  0  0  0  0
 13 15  1  6  0  0  0
 15 16  1  0  0  0  0
M  CHG  1   3  -1
M  END
>  <CHROM.1>
58.14714839,-178.28148828,-173.76643500,46.76777692,12.77236109,12.45080794
-0.29465330,-0.12852591,2.22637345

>  <Name>
ligand

>  <RI>
0

>  <Rbt.Current_Directory>
/home/itssahil/PROJECTS/Mol_Feturizer/New_Systems/rnas/2HO7

>  <Rbt.Executable>
rbdock ($Id: //depot/dev/client3/rdock/2013.1/src/exe/rbdock.cxx#4 $)

>  <Rbt.Library>
libRbt.so (2013.1, Build901 2013/11/27)

>  <Rbt.Parameter_File>
/export/apps/rDock/src/rDock_2013.1_src/data/scripts/dock_solv.prm

>  <Rbt.Receptor>
prm/pocket_docking_2.prm

>  <SCORE>
-10.651

>  <SCORE.INTER>
-11.0404

>  <SCORE.INTER.CONST>
1

>  <SCORE.INTER.POLAR>
-1.29904

>  <SCORE.INTER.ROT>
3

>  <SCORE.INTER.SOLV>
12.5633

>  <SCORE.INTER.VDW>
-12.8179

>  <SCORE.INTER.norm>
-0.690024

>  <SCORE.INTRA>
0.389371

>  <SCORE.INTRA.DIHEDRAL>
0.0811379

>  <SCORE.INTRA.DIHEDRAL.0>
0.00893466

>  <SCORE.INTRA.POLAR>
0

>  <SCORE.INTRA.POLAR.0>
0

>  <SCORE.INTRA.REPUL>
0

>  <SCORE.INTRA.REPUL.0>
0

>  <SCORE.INTRA.SOLV>
0.951947

>  <SCORE.INTRA.SOLV.lig_0>
-48.9722

>  <SCORE.INTRA.VDW>
-0.127172

>  <SCORE.INTRA.VDW.0>
-0.529409

>  <SCORE.INTRA.norm>
0.0243357

>  <SCORE.RESTR>
0

>  <SCORE.RESTR.CAVITY>
0

>  <SCORE.RESTR.norm>
0

>  <SCORE.SYSTEM>
0

>  <SCORE.SYSTEM.CONST>
0

>  <SCORE.SYSTEM.DIHEDRAL>
0

>  <SCORE.SYSTEM.SOLV>
0

>  <SCORE.SYSTEM.norm>
0

>  <SCORE.heavy>
16

>  <SCORE.norm>
-0.665689

>  <RMSD>
0.929

$$$$
ligand
 OpenBabel11021811433D
libRbt.so/2013.1/901 2013/11/27
 16 16  0  0  0  0  0  0  0  0999 V2000
   49.5501   13.0631   11.5288 P   0  0  2  0  0  0  0  0  0  0  0  0
   49.8872   14.3291   12.2259 O   0  0  0  0  0  0  0  0  0  0  0  0
   50.7197   11.9876   11.7839 O   0  5  0  0  0  0  0  0  0  0  0  0
   49.4305   13.3558    9.9497 O   0  0  0  0  0  0  0  0  0  0  0  0
   44.7024   12.3769   14.4447 C   0  0  2  0  0  0  0  0  0  0  0  0
   44.2791   11.0869   13.9677 O   0  0  0  0  0  0  0  0  0  0  0  0
   43.6018   13.4416   14.2042 C   0  0  2  0  0  0  0  0  0  0  0  0
   42.3579   13.0336   14.8679 O   0  0  0  0  0  0  0  0  0  0  0  0
   43.3608   13.5612   12.6876 C   0  0  1  0  0  0  0  0  0  0  0  0
   42.3507   14.5450   12.4337 O   0  0  0  0  0  0  0  0  0  0  0  0
   44.6794   13.9877   12.0238 C   0  0  2  0  0  0  0  0  0  0  0  0
   44.4831   14.0961   10.5975 O   0  0  0  0  0  0  0  0  0  0  0  0
   45.7556   12.9097   12.3301 C   0  0  2  0  0  0  0  0  0  0  0  0
   45.9406   12.7857   13.7736 O   0  0  0  0  0  0  0  0  0  0  0  0
   47.0890   13.3462   11.6964 C   0  0  0  0  0  0  0  0  0  0  0  0
   48.1492   12.4695   12.0968 O   0  0  0  0  0  0  0  0  0  0  0  0
  1  2  1  1  0  0  0
  1  3  1  0  0  0  0
  1  4  2  0  0  0  0
  1 16  1  0  0  0  0
  5  6  1  6  0  0  0
  5  7  1  0  0  0  0
  5 14  1  0  0  0  0
  7  8  1  1  0  0  0
  7  9  1  0  0  0  0
  9 10  1  1  0  0  0
  9 11  1  0  0  0  0
 11 12  1  6  0  0  0
 11 13  1  0  0  0  0
 13 14  1  0  0  0  0
 13 15  1  6  0  0  0
 15 16  1  0  0  0  0
M  CHG  1   3  -1
M  END
>  <CHROM.1>
172.61697894,-174.18183453,68.15377614,46.31465403,13.13564612,12.45012643
-0.24061316,-0.20622039,2.16775173

>  <Name>
ligand

>  <RI>
0

>  <Rbt.Current_Directory>
/home/itssahil/PROJECTS/Mol_Feturizer/New_Systems/rnas/2HO7

>  <Rbt.Executable>
rbdock ($Id: //depot/dev/client3/rdock/2013.1/src/exe/rbdock.cxx#4 $)

>  <Rbt.Library>
libRbt.so (2013.1, Build901 2013/11/27)

>  <Rbt.Parameter_File>
/export/apps/rDock/src/rDock_2013.1_src/data/scripts/dock_solv.prm

>  <Rbt.Receptor>
prm/pocket_docking_3.prm

>  <SCORE>
-10.9584

>  <SCORE.INTER>
-11.2482

>  <SCORE.INTER.CONST>
1

>  <SCORE.INTER.POLAR>
-1.29904

>  <SCORE.INTER.ROT>
3

>  <SCORE.INTER.SOLV>
12.4891

>  <SCORE.INTER.VDW>
-12.9317

>  <SCORE.INTER.norm>
-0.703013

>  <SCORE.INTRA>
0.289846

>  <SCORE.INTRA.DIHEDRAL>
0.459357

>  <SCORE.INTRA.DIHEDRAL.0>
0.00893466

>  <SCORE.INTRA.POLAR>
0

>  <SCORE.INTRA.POLAR.0>
0

>  <SCORE.INTRA.REPUL>
0

>  <SCORE.INTRA.REPUL.0>
0

>  <SCORE.INTRA.SOLV>
0.10449

>  <SCORE.INTRA.SOLV.lig_0>
-48.9722

>  <SCORE.INTRA.VDW>
0.0079224

>  <SCORE.INTRA.VDW.0>
-0.529409

>  <SCORE.INTRA.norm>
0.0181154

>  <SCORE.RESTR>
0

>  <SCORE.RESTR.CAVITY>
0

>  <SCORE.RESTR.norm>
0

>  <SCORE.SYSTEM>
0

>  <SCORE.SYSTEM.CONST>
0

>  <SCORE.SYSTEM.DIHEDRAL>
0

>  <SCORE.SYSTEM.SOLV>
0

>  <SCORE.SYSTEM.norm>
0

>  <SCORE.heavy>
16

>  <SCORE.norm>
-0.684898

>  <RMSD>
0.944

$$$$
ligand
 OpenBabel11021811433D
libRbt.so/2013.1/901 2013/11/27
 16 16  0  0  0  0  0  0  0  0999 V2000
   49.2303   13.2720   10.4327 P   0  0  2  0  0  0  0  0  0  0  0  0
   49.5154   14.5541   11.1235 O   0  0  0  0  0  0  0  0  0  0  0  0
   50.2884   12.1602   10.9164 O   0  5  0  0  0  0  0  0  0  0  0  0
   49.3790   13.4937    8.8445 O   0  0  0  0  0  0  0  0  0  0  0  0
   44.7629   11.7730   14.5133 C   0  0  2  0  0  0  0  0  0  0  0  0
   44.3463   10.5309   13.9181 O   0  0  0  0  0  0  0  0  0  0  0  0
   43.7770   12.9141   14.1540 C   0  0  2  0  0  0  0  0  0  0  0  0
   42.4227   12.5629   14.5974 O   0  0  0  0  0  0  0  0  0  0  0  0
   43.7853   13.1035   12.6254 C   0  0  1  0  0  0  0  0  0  0  0  0
   42.8863   14.1584   12.2631 O   0  0  0  0  0  0  0  0  0  0  0  0
   45.2144   13.4682   12.1943 C   0  0  2  0  0  0  0  0  0  0  0  0
   45.2518   13.6403   10.7611 O   0  0  0  0  0  0  0  0  0  0  0  0
   46.1650   12.3132   12.6142 C   0  0  2  0  0  0  0  0  0  0  0  0
   46.1127   12.1256   14.0617 O   0  0  0  0  0  0  0  0  0  0  0  0
   47.6045   12.6859   12.2155 C   0  0  0  0  0  0  0  0  0  0  0  0
   47.7286   12.7674   10.7903 O   0  0  0  0  0  0  0  0  0  0  0  0
  1  2  1  1  0  0  0
  1  3  1  0  0  0  0
  1  4  2  0  0  0  0
  1 16  1  0  0  0  0
  5  6  1  6  0  0  0
  5  7  1  0  0  0  0
  5 14  1  0  0  0  0
  7  8  1  6  0  0  0
  7  9  1  0  0  0  0
  9 10  1  1  0  0  0
  9 11  1  0  0  0  0
 11 12  1  6  0  0  0
 11 13  1  0  0  0  0
 13 14  1  0  0  0  0
 13 15  1  1  0  0  0
 15 16  1  0  0  0  0
M  CHG  1   3  -1
M  END
>  <CHROM.1>
-65.20381269,175.74585706,-55.38038219,46.40732056,12.87927595,12.08786179
-0.48261671,-0.26824208,2.25707253

>  <Name>
ligand

>  <RI>
0

>  <Rbt.Current_Directory>
/home/itssahil/PROJECTS/Mol_Feturizer/New_Systems/rnas/2HO7

>  <Rbt.Executable>
rbdock ($Id: //depot/dev/client3/rdock/2013.1/src/exe/rbdock.cxx#4 $)

>  <Rbt.Library>
libRbt.so (2013.1, Build901 2013/11/27)

>  <Rbt.Parameter_File>
/export/apps/rDock/src/rDock_2013.1_src/data/scripts/dock_solv.prm

>  <Rbt.Receptor>
prm/pocket_docking_2.prm

>  <SCORE>
-10.035

>  <SCORE.INTER>
-10.5227

>  <SCORE.INTER.CONST>
1

>  <SCORE.INTER.POLAR>
-1.29904

>  <SCORE.INTER.ROT>
3

>  <SCORE.INTER.SOLV>
11.5147

>  <SCORE.INTER.VDW>
-12.1233

>  <SCORE.INTER.norm>
-0.657669

>  <SCORE.INTRA>
0.487266

>  <SCORE.INTRA.DIHEDRAL>
0.21248

>  <SCORE.INTRA.DIHEDRAL.0>
0.00893466

>  <SCORE.INTRA.POLAR>
0

>  <SCORE.INTRA.POLAR.0>
0

>  <SCORE.INTRA.REPUL>
0

>  <SCORE.INTRA.REPUL.0>
0

>  <SCORE.INTRA.SOLV>
0.465283

>  <SCORE.INTRA.SOLV.lig_0>
-48.9722

>  <SCORE.INTRA.VDW>
0.148384

>  <SCORE.INTRA.VDW.0>
-0.529409

>  <SCORE.INTRA.norm>
0.0304541

>  <SCORE.RESTR>
0.000433922

>  <SCORE.RESTR.CAVITY>
0.000433922

>  <SCORE.RESTR.norm>
2.71201e-05

>  <SCORE.SYSTEM>
0

>  <SCORE.SYSTEM.CONST>
0

>  <SCORE.SYSTEM.DIHEDRAL>
0

>  <SCORE.SYSTEM.SOLV>
0

>  <SCORE.SYSTEM.norm>
0

>  <SCORE.heavy>
16

>  <SCORE.norm>
-0.627188

>  <RMSD>
0.968

$$$$
ligand
 OpenBabel11021811433D
libRbt.so/2013.1/901 2013/11/27
 16 16  0  0  0  0  0  0  0  0999 V2000
   49.5109   12.8969   11.8541 P   0  0  2  0  0  0  0  0  0  0  0  0
   49.3519   14.3106   11.4317 O   0  0  0  0  0  0  0  0  0  0  0  0
   50.7648   12.7788   12.8559 O   0  5  0  0  0  0  0  0  0  0  0  0
   49.7842   11.9929   10.5496 O   0  0  0  0  0  0  0  0  0  0  0  0
   44.5897   12.4660   14.6910 C   0  0  2  0  0  0  0  0  0  0  0  0
   44.3983   11.0399   14.7070 O   0  0  0  0  0  0  0  0  0  0  0  0
   43.3705   13.1784   14.0514 C   0  0  2  0  0  0  0  0  0  0  0  0
   42.1479   12.8343   14.7869 O   0  0  0  0  0  0  0  0  0  0  0  0
   43.2416   12.7087   12.5902 C   0  0  1  0  0  0  0  0  0  0  0  0
   42.1246   13.3567   11.9697 O   0  0  0  0  0  0  0  0  0  0  0  0
   44.5353   13.0821   11.8497 C   0  0  2  0  0  0  0  0  0  0  0  0
   44.4446   12.6416   10.4776 O   0  0  0  0  0  0  0  0  0  0  0  0
   45.7268   12.3769   12.5548 C   0  0  2  0  0  0  0  0  0  0  0  0
   45.8072   12.8072   13.9482 O   0  0  0  0  0  0  0  0  0  0  0  0
   47.0311   12.7726   11.8391 C   0  0  0  0  0  0  0  0  0  0  0  0
   48.1709   12.3887   12.6180 O   0  0  0  0  0  0  0  0  0  0  0  0
  1  2  1  6  0  0  0
  1  3  1  0  0  0  0
  1  4  2  0  0  0  0
  1 16  1  0  0  0  0
  5  6  1  6  0  0  0
  5  7  1  0  0  0  0
  5 14  1  0  0  0  0
  7  8  1  1  0  0  0
  7  9  1  0  0  0  0
  9 10  1  6  0  0  0
  9 11  1  0  0  0  0
 11 12  1  6  0  0  0
 11 13  1  0  0  0  0
 13 14  1  0  0  0  0
 13 15  1  6  0  0  0
 15 16  1  0  0  0  0
M  CHG  1   3  -1
M  END
>  <CHROM.1>
167.44243038,-177.13378048,47.30161416,46.23609240,12.73459836,12.60381371
-0.25246025,-0.02999432,1.78598945

>  <Name>
ligand

>  <RI>
0

>  <Rbt.Current_Directory>
/home/itssahil/PROJECTS/Mol_Feturizer/New_Systems/rnas/2HO7

>  <Rbt.Executable>
rbdock ($Id: //depot/dev/client3/rdock/2013.1/src/exe/rbdock.cxx#4 $)

>  <Rbt.Library>
libRbt.so (2013.1, Build901 2013/11/27)

>  <Rbt.Parameter_File>
/export/apps/rDock/src/rDock_2013.1_src/data/scripts/dock_solv.prm

>  <Rbt.Receptor>
prm/pocket_docking_3.prm

>  <SCORE>
-10.4187

>  <SCORE.INTER>
-11.0312

>  <SCORE.INTER.CONST>
1

>  <SCORE.INTER.POLAR>
-1.29904

>  <SCORE.INTER.ROT>
3

>  <SCORE.INTER.SOLV>
15.4107

>  <SCORE.INTER.VDW>
-13.7609

>  <SCORE.INTER.norm>
-0.68945

>  <SCORE.INTRA>
0.612501

>  <SCORE.INTRA.DIHEDRAL>
0.839705

>  <SCORE.INTRA.DIHEDRAL.0>
0.00893466

>  <SCORE.INTRA.POLAR>
0

>  <SCORE.INTRA.POLAR.0>
0

>  <SCORE.INTRA.REPUL>
0

>  <SCORE.INTRA.REPUL.0>
0

>  <SCORE.INTRA.SOLV>
-0.0906484

>  <SCORE.INTRA.SOLV.lig_0>
-48.9722

>  <SCORE.INTRA.VDW>
0.237973

>  <SCORE.INTRA.VDW.0>
-0.529409

>  <SCORE.INTRA.norm>
0.0382813

>  <SCORE.RESTR>
0

>  <SCORE.RESTR.CAVITY>
0

>  <SCORE.RESTR.norm>
0

>  <SCORE.SYSTEM>
0

>  <SCORE.SYSTEM.CONST>
0

>  <SCORE.SYSTEM.DIHEDRAL>
0

>  <SCORE.SYSTEM.SOLV>
0

>  <SCORE.SYSTEM.norm>
0

>  <SCORE.heavy>
16

>  <SCORE.norm>
-0.651169

>  <RMSD>
0.972

$$$$
ligand
 OpenBabel11021811433D
libRbt.so/2013.1/901 2013/11/27
 16 16  0  0  0  0  0  0  0  0999 V2000
   49.7151   13.1877   11.4103 P   0  0  2  0  0  0  0  0  0  0  0  0
   50.4036   14.4753   11.6749 O   0  0  0  0  0  0  0  0  0  0  0  0
   50.6874   11.9713   11.8160 O   0  5  0  0  0  0  0  0  0  0  0  0
   49.3730   13.0951    9.8393 O   0  0  0  0  0  0  0  0  0  0  0  0
   44.9206   11.7438   14.5496 C   0  0  2  0  0  0  0  0  0  0  0  0
   44.2298   10.5610   14.1085 O   0  0  0  0  0  0  0  0  0  0  0  0
   44.1737   13.0218   14.0894 C   0  0  2  0  0  0  0  0  0  0  0  0
   42.7991   13.0102   14.6037 O   0  0  0  0  0  0  0  0  0  0  0  0
   44.1469   13.0443   12.5495 C   0  0  1  0  0  0  0  0  0  0  0  0
   43.4671   14.2201   12.0939 O   0  0  0  0  0  0  0  0  0  0  0  0
   45.5980   13.0548   12.0440 C   0  0  2  0  0  0  0  0  0  0  0  0
   45.6008   13.0643   10.6001 O   0  0  0  0  0  0  0  0  0  0  0  0
   46.3105   11.7769   12.5667 C   0  0  2  0  0  0  0  0  0  0  0  0
   46.2907   11.7569   14.0270 O   0  0  0  0  0  0  0  0  0  0  0  0
   47.7749   11.7964   12.0923 C   0  0  0  0  0  0  0  0  0  0  0  0
   48.3517   13.0934   12.2876 O   0  0  0  0  0  0  0  0  0  0  0  0
  1  2  1  1  0  0  0
  1  3  1  0  0  0  0
  1  4  2  0  0  0  0
  1 16  1  0  0  0  0
  5  6  1  6  0  0  0
  5  7  1  0  0  0  0
  5 14  1  0  0  0  0
  7  8  1  1  0  0  0
  7  9  1  0  0  0  0
  9 10  1  1  0  0  0
  9 11  1  0  0  0  0
 11 12  1  6  0  0  0
 11 13  1  0  0  0  0
 13 14  1  0  0  0  0
 13 15  1  1  0  0  0
 15 16  1  0  0  0  0
M  CHG  1   3  -1
M  END
>  <CHROM.1>
44.90540660,-164.21371947,-175.24128781,46.75590116,12.72525102,12.42246272
0.34564131,0.18468465,-0.85808977

>  <Name>
ligand

>  <RI>
0

>  <Rbt.Current_Directory>
/home/itssahil/PROJECTS/Mol_Feturizer/New_Systems/rnas/2HO7

>  <Rbt.Executable>
rbdock ($Id: //depot/dev/client3/rdock/2013.1/src/exe/rbdock.cxx#4 $)

>  <Rbt.Library>
libRbt.so (2013.1, Build901 2013/11/27)

>  <Rbt.Parameter_File>
/export/apps/rDock/src/rDock_2013.1_src/data/scripts/dock_solv.prm

>  <Rbt.Receptor>
prm/pocket_docking_2.prm

>  <SCORE>
-9.80578

>  <SCORE.INTER>
-11.6048

>  <SCORE.INTER.CONST>
1

>  <SCORE.INTER.POLAR>
-1.29904

>  <SCORE.INTER.ROT>
3

>  <SCORE.INTER.SOLV>
12.5379

>  <SCORE.INTER.VDW>
-13.1857

>  <SCORE.INTER.norm>
-0.725301

>  <SCORE.INTRA>
1.78636

>  <SCORE.INTRA.DIHEDRAL>
1.97276

>  <SCORE.INTRA.DIHEDRAL.0>
0.00893466

>  <SCORE.INTRA.POLAR>
0

>  <SCORE.INTRA.POLAR.0>
0

>  <SCORE.INTRA.REPUL>
0

>  <SCORE.INTRA.REPUL.0>
0

>  <SCORE.INTRA.SOLV>
1.61314

>  <SCORE.INTRA.SOLV.lig_0>
-48.9722

>  <SCORE.INTRA.VDW>
-0.00659391

>  <SCORE.INTRA.VDW.0>
-0.529409

>  <SCORE.INTRA.norm>
0.111647

>  <SCORE.RESTR>
0.012682

>  <SCORE.RESTR.CAVITY>
0.012682

>  <SCORE.RESTR.norm>
0.000792625

>  <SCORE.SYSTEM>
0

>  <SCORE.SYSTEM.CONST>
0

>  <SCORE.SYSTEM.DIHEDRAL>
0

>  <SCORE.SYSTEM.SOLV>
0

>  <SCORE.SYSTEM.norm>
0

>  <SCORE.heavy>
16

>  <SCORE.norm>
-0.612861

>  <RMSD>
1.001

$$$$
ligand
 OpenBabel11021811433D
libRbt.so/2013.1/901 2013/11/27
 16 16  0  0  0  0  0  0  0  0999 V2000
   49.1837   13.1501   10.5138 P   0  0  2  0  0  0  0  0  0  0  0  0
   49.3471   14.4812   11.1493 O   0  0  0  0  0  0  0  0  0  0  0  0
   50.3165   12.1520   11.0709 O   0  5  0  0  0  0  0  0  0  0  0  0
   49.3524   13.3113    8.9204 O   0  0  0  0  0  0  0  0  0  0  0  0
   44.6573   11.8830   14.5851 C   0  0  2  0  0  0  0  0  0  0  0  0
   44.1657   10.6404   14.0513 O   0  0  0  0  0  0  0  0  0  0  0  0
   43.7555   13.0656   14.1478 C   0  0  2  0  0  0  0  0  0  0  0  0
   42.3749   12.8306   14.5869 O   0  0  0  0  0  0  0  0  0  0  0  0
   43.7965   13.1692   12.6116 C   0  0  1  0  0  0  0  0  0  0  0  0
   42.9755   14.2601   12.1774 O   0  0  0  0  0  0  0  0  0  0  0  0
   45.2525   13.4135   12.1852 C   0  0  2  0  0  0  0  0  0  0  0  0
   45.3202   13.5031   10.7457 O   0  0  0  0  0  0  0  0  0  0  0  0
   46.1174   12.2226   12.6831 C   0  0  2  0  0  0  0  0  0  0  0  0
   46.0337   12.1193   14.1376 O   0  0  0  0  0  0  0  0  0  0  0  0
   47.5839   12.4759   12.2890 C   0  0  0  0  0  0  0  0  0  0  0  0
   47.7197   12.5406   10.8640 O   0  0  0  0  0  0  0  0  0  0  0  0
  1  2  1  1  0  0  0
  1  3  1  0  0  0  0
  1  4  2  0  0  0  0
  1 16  1  0  0  0  0
  5  6  1  6  0  0  0
  5  7  1  0  0  0  0
  5 14  1  0  0  0  0
  7  8  1  6  0  0  0
  7  9  1  0  0  0  0
  9 10  1  1  0  0  0
  9 11  1  0  0  0  0
 11 12  1  6  0  0  0
 11 13  1  0  0  0  0
 13 14  1  0  0  0  0
 13 15  1  1  0  0  0
 15 16  1  0  0  0  0
M  CHG  1   3  -1
M  END
>  <CHROM.1>
-62.14233482,166.75256528,-57.10479674,46.37359275,12.85239470,12.13445387
0.46228127,0.28253770,-0.90840455

>  <Name>
ligand

>  <RI>
0

>  <Rbt.Current_Directory>
/home/itssahil/PROJECTS/Mol_Feturizer/New_Systems/rnas/2HO7

>  <Rbt.Executable>
rbdock ($Id: //depot/dev/client3/rdock/2013.1/src/exe/rbdock.cxx#4 $)

>  <Rbt.Library>
libRbt.so (2013.1, Build901 2013/11/27)

>  <Rbt.Parameter_File>
/export/apps/rDock/src/rDock_2013.1_src/data/scripts/dock_solv.prm

>  <Rbt.Receptor>
prm/pocket_docking_2.prm

>  <SCORE>
-10.3284

>  <SCORE.INTER>
-11.2346

>  <SCORE.INTER.CONST>
1

>  <SCORE.INTER.POLAR>
-1.29776

>  <SCORE.INTER.ROT>
3

>  <SCORE.INTER.SOLV>
11.4888

>  <SCORE.INTER.VDW>
-12.5934

>  <SCORE.INTER.norm>
-0.70216

>  <SCORE.INTRA>
0.905647

>  <SCORE.INTRA.DIHEDRAL>
0.853342

>  <SCORE.INTRA.DIHEDRAL.0>
0.00893466

>  <SCORE.INTRA.POLAR>
0

>  <SCORE.INTRA.POLAR.0>
0

>  <SCORE.INTRA.REPUL>
0

>  <SCORE.INTRA.REPUL.0>
0

>  <SCORE.INTRA.SOLV>
0.582939

>  <SCORE.INTRA.SOLV.lig_0>
-48.9722

>  <SCORE.INTRA.VDW>
0.187507

>  <SCORE.INTRA.VDW.0>
-0.529409

>  <SCORE.INTRA.norm>
0.056603

>  <SCORE.RESTR>
0.000499449

>  <SCORE.RESTR.CAVITY>
0.000499449

>  <SCORE.RESTR.norm>
3.12156e-05

>  <SCORE.SYSTEM>
0

>  <SCORE.SYSTEM.CONST>
0

>  <SCORE.SYSTEM.DIHEDRAL>
0

>  <SCORE.SYSTEM.SOLV>
0

>  <SCORE.SYSTEM.norm>
0

>  <SCORE.heavy>
16

>  <SCORE.norm>
-0.645526

>  <RMSD>
1.018

$$$$
ligand
 OpenBabel11021811433D
libRbt.so/2013.1/901 2013/11/27
 16 16  0  0  0  0  0  0  0  0999 V2000
   49.4515   13.1913   11.4857 P   0  0  2  0  0  0  0  0  0  0  0  0
   50.2473   14.3832   11.8709 O   0  0  0  0  0  0  0  0  0  0  0  0
   50.2448   11.8596   11.9180 O   0  5  0  0  0  0  0  0  0  0  0  0
   49.2493   13.1962    9.8880 O   0  0  0  0  0  0  0  0  0  0  0  0
   44.9031   12.0387   14.8087 C   0  0  2  0  0  0  0  0  0  0  0  0
   44.2170   10.7948   14.5791 O   0  0  0  0  0  0  0  0  0  0  0  0
   44.0205   13.2410   14.3862 C   0  0  2  0  0  0  0  0  0  0  0  0
   42.7515   13.2129   15.1231 O   0  0  0  0  0  0  0  0  0  0  0  0
   43.7408   13.1346   12.8753 C   0  0  1  0  0  0  0  0  0  0  0  0
   42.9307   14.2384   12.4537 O   0  0  0  0  0  0  0  0  0  0  0  0
   45.0867   13.1655   12.1343 C   0  0  2  0  0  0  0  0  0  0  0  0
   44.8526   13.0555   10.7138 O   0  0  0  0  0  0  0  0  0  0  0  0
   45.9457   11.9671   12.6241 C   0  0  2  0  0  0  0  0  0  0  0  0
   46.1664   12.0673   14.0644 O   0  0  0  0  0  0  0  0  0  0  0  0
   47.3093   12.0100   11.9107 C   0  0  0  0  0  0  0  0  0  0  0  0
   48.0100   13.2174   12.2335 O   0  0  0  0  0  0  0  0  0  0  0  0
  1  2  1  1  0  0  0
  1  3  1  0  0  0  0
  1  4  2  0  0  0  0
  1 16  1  0  0  0  0
  5  6  1  6  0  0  0
  5  7  1  0  0  0  0
  5 14  1  0  0  0  0
  7  8  1  1  0  0  0
  7  9  1  0  0  0  0
  9 10  1  6  0  0  0
  9 11  1  0  0  0  0
 11 12  1  6  0  0  0
 11 13  1  0  0  0  0
 13 14  1  0  0  0  0
 13 15  1  6  0  0  0
 15 16  1  0  0  0  0
M  CHG  1   3  -1
M  END
>  <CHROM.1>
61.55149353,178.60481205,-176.08300703,46.46408359,12.83284129,12.58729580
-0.37522307,-0.17468806,2.11568976

>  <Name>
ligand

>  <RI>
0

>  <Rbt.Current_Directory>
/home/itssahil/PROJECTS/Mol_Feturizer/New_Systems/rnas/2HO7

>  <Rbt.Executable>
rbdock ($Id: //depot/dev/client3/rdock/2013.1/src/exe/rbdock.cxx#4 $)

>  <Rbt.Library>
libRbt.so (2013.1, Build901 2013/11/27)

>  <Rbt.Parameter_File>
/export/apps/rDock/src/rDock_2013.1_src/data/scripts/dock_solv.prm

>  <Rbt.Receptor>
prm/pocket_docking_4.prm

>  <SCORE>
-11.8821

>  <SCORE.INTER>
-12.1882

>  <SCORE.INTER.CONST>
1

>  <SCORE.INTER.POLAR>
-1.29893

>  <SCORE.INTER.ROT>
3

>  <SCORE.INTER.SOLV>
13.7253

>  <SCORE.INTER.VDW>
-13.9708

>  <SCORE.INTER.norm>
-0.76176

>  <SCORE.INTRA>
0.306072

>  <SCORE.INTRA.DIHEDRAL>
0.0341927

>  <SCORE.INTRA.DIHEDRAL.0>
0.00893466

>  <SCORE.INTRA.POLAR>
0

>  <SCORE.INTRA.POLAR.0>
0

>  <SCORE.INTRA.REPUL>
0

>  <SCORE.INTRA.REPUL.0>
0

>  <SCORE.INTRA.SOLV>
0.906115

>  <SCORE.INTRA.SOLV.lig_0>
-48.9722

>  <SCORE.INTRA.VDW>
-0.164082

>  <SCORE.INTRA.VDW.0>
-0.529409

>  <SCORE.INTRA.norm>
0.0191295

>  <SCORE.RESTR>
0

>  <SCORE.RESTR.CAVITY>
0

>  <SCORE.RESTR.norm>
0

>  <SCORE.SYSTEM>
0

>  <SCORE.SYSTEM.CONST>
0

>  <SCORE.SYSTEM.DIHEDRAL>
0

>  <SCORE.SYSTEM.SOLV>
0

>  <SCORE.SYSTEM.norm>
0

>  <SCORE.heavy>
16

>  <SCORE.norm>
-0.742631

>  <RMSD>
1.030

$$$$
ligand
 OpenBabel11021811433D
libRbt.so/2013.1/901 2013/11/27
 16 16  0  0  0  0  0  0  0  0999 V2000
   49.5510   13.1400   11.4317 P   0  0  2  0  0  0  0  0  0  0  0  0
   50.3029   14.3899   11.7050 O   0  0  0  0  0  0  0  0  0  0  0  0
   50.4107   11.8794   11.9431 O   0  5  0  0  0  0  0  0  0  0  0  0
   49.3132   13.0139    9.8439 O   0  0  0  0  0  0  0  0  0  0  0  0
   44.9972   12.0100   14.7864 C   0  0  2  0  0  0  0  0  0  0  0  0
   44.2901   10.7803   14.5446 O   0  0  0  0  0  0  0  0  0  0  0  0
   44.1389   13.2308   14.3667 C   0  0  2  0  0  0  0  0  0  0  0  0
   42.8653   13.2210   15.0960 O   0  0  0  0  0  0  0  0  0  0  0  0
   43.8664   13.1393   12.8536 C   0  0  1  0  0  0  0  0  0  0  0  0
   43.0788   14.2603   12.4345 O   0  0  0  0  0  0  0  0  0  0  0  0
   45.2169   13.1506   12.1206 C   0  0  2  0  0  0  0  0  0  0  0  0
   44.9893   13.0540   10.6980 O   0  0  0  0  0  0  0  0  0  0  0  0
   46.0512   11.9337   12.6075 C   0  0  2  0  0  0  0  0  0  0  0  0
   46.2651   12.0206   14.0497 O   0  0  0  0  0  0  0  0  0  0  0  0
   47.4196   11.9566   11.9024 C   0  0  0  0  0  0  0  0  0  0  0  0
   48.1268   13.1637   12.2119 O   0  0  0  0  0  0  0  0  0  0  0  0
  1  2  1  1  0  0  0
  1  3  1  0  0  0  0
  1  4  2  0  0  0  0
  1 16  1  0  0  0  0
  5  6  1  6  0  0  0
  5  7  1  0  0  0  0
  5 14  1  0  0  0  0
  7  8  1  1  0  0  0
  7  9  1  0  0  0  0
  9 10  1  6  0  0  0
  9 11  1  0  0  0  0
 11 12  1  6  0  0  0
 11 13  1  0  0  0  0
 13 14  1  0  0  0  0
 13 15  1  6  0  0  0
 15 16  1  0  0  0  0
M  CHG  1   3  -1
M  END
>  <CHROM.1>
60.18204759,-179.42327438,178.81515297,46.57295340,12.80417921,12.55544420
-0.37470993,-0.19055216,2.13005344

>  <Name>
ligand

>  <RI>
0

>  <Rbt.Current_Directory>
/home/itssahil/PROJECTS/Mol_Feturizer/New_Systems/rnas/2HO7

>  <Rbt.Executable>
rbdock ($Id: //depot/dev/client3/rdock/2013.1/src/exe/rbdock.cxx#4 $)

>  <Rbt.Library>
libRbt.so (2013.1, Build901 2013/11/27)

>  <Rbt.Parameter_File>
/export/apps/rDock/src/rDock_2013.1_src/data/scripts/dock_solv.prm

>  <Rbt.Receptor>
prm/pocket_docking_5.prm

>  <SCORE>
-11.9558

>  <SCORE.INTER>
-12.2328

>  <SCORE.INTER.CONST>
1

>  <SCORE.INTER.POLAR>
-1.29904

>  <SCORE.INTER.ROT>
3

>  <SCORE.INTER.SOLV>
13.6774

>  <SCORE.INTER.VDW>
-13.9842

>  <SCORE.INTER.norm>
-0.764549

>  <SCORE.INTRA>
0.276955

>  <SCORE.INTRA.DIHEDRAL>
-0.00461655

>  <SCORE.INTRA.DIHEDRAL.0>
0.00893466

>  <SCORE.INTRA.POLAR>
0

>  <SCORE.INTRA.POLAR.0>
0

>  <SCORE.INTRA.REPUL>
0

>  <SCORE.INTRA.REPUL.0>
0

>  <SCORE.INTRA.SOLV>
0.919197

>  <SCORE.INTRA.SOLV.lig_0>
-48.9722

>  <SCORE.INTRA.VDW>
-0.180335

>  <SCORE.INTRA.VDW.0>
-0.529409

>  <SCORE.INTRA.norm>
0.0173097

>  <SCORE.RESTR>
0

>  <SCORE.RESTR.CAVITY>
0

>  <SCORE.RESTR.norm>
0

>  <SCORE.SYSTEM>
0

>  <SCORE.SYSTEM.CONST>
0

>  <SCORE.SYSTEM.DIHEDRAL>
0

>  <SCORE.SYSTEM.SOLV>
0

>  <SCORE.SYSTEM.norm>
0

>  <SCORE.heavy>
16

>  <SCORE.norm>
-0.747239

>  <RMSD>
1.042

$$$$
ligand
 OpenBabel11021811433D
libRbt.so/2013.1/901 2013/11/27
 16 16  0  0  0  0  0  0  0  0999 V2000
   49.2322   13.1684   10.4391 P   0  0  2  0  0  0  0  0  0  0  0  0
   49.4171   14.5082   11.0500 O   0  0  0  0  0  0  0  0  0  0  0  0
   50.3537   12.1647   11.0086 O   0  5  0  0  0  0  0  0  0  0  0  0
   49.3952   13.2988    8.8423 O   0  0  0  0  0  0  0  0  0  0  0  0
   44.7442   11.9305   14.5651 C   0  0  2  0  0  0  0  0  0  0  0  0
   44.2457   10.6875   14.0387 O   0  0  0  0  0  0  0  0  0  0  0  0
   43.8377   13.1130   14.1373 C   0  0  2  0  0  0  0  0  0  0  0  0
   42.4624   12.8791   14.5932 O   0  0  0  0  0  0  0  0  0  0  0  0
   43.8604   13.2149   12.6006 C   0  0  1  0  0  0  0  0  0  0  0  0
   43.0347   14.3056   12.1751 O   0  0  0  0  0  0  0  0  0  0  0  0
   45.3112   13.4580   12.1566 C   0  0  2  0  0  0  0  0  0  0  0  0
   45.3617   13.5460   10.7163 O   0  0  0  0  0  0  0  0  0  0  0  0
   46.1815   12.2674   12.6454 C   0  0  2  0  0  0  0  0  0  0  0  0
   46.1152   12.1657   14.1010 O   0  0  0  0  0  0  0  0  0  0  0  0
   47.6433   12.5196   12.2335 C   0  0  0  0  0  0  0  0  0  0  0  0
   47.7615   12.5857   10.8070 O   0  0  0  0  0  0  0  0  0  0  0  0
  1  2  1  1  0  0  0
  1  3  1  0  0  0  0
  1  4  2  0  0  0  0
  1 16  1  0  0  0  0
  5  6  1  6  0  0  0
  5  7  1  0  0  0  0
  5 14  1  0  0  0  0
  7  8  1  6  0  0  0
  7  9  1  0  0  0  0
  9 10  1  1  0  0  0
  9 11  1  0  0  0  0
 11 12  1  6  0  0  0
 11 13  1  0  0  0  0
 13 14  1  0  0  0  0
 13 15  1  1  0  0  0
 15 16  1  0  0  0  0
M  CHG  1   3  -1
M  END
>  <CHROM.1>
-62.00663840,167.78269440,-58.40884568,46.43511648,12.88787638,12.09336834
0.46875350,0.29197604,-0.91376089

>  <Name>
ligand

>  <RI>
0

>  <Rbt.Current_Directory>
/home/itssahil/PROJECTS/Mol_Feturizer/New_Systems/rnas/2HO7

>  <Rbt.Executable>
rbdock ($Id: //depot/dev/client3/rdock/2013.1/src/exe/rbdock.cxx#4 $)

>  <Rbt.Library>
libRbt.so (2013.1, Build901 2013/11/27)

>  <Rbt.Parameter_File>
/export/apps/rDock/src/rDock_2013.1_src/data/scripts/dock_solv.prm

>  <Rbt.Receptor>
prm/pocket_docking_2.prm

>  <SCORE>
-10.2651

>  <SCORE.INTER>
-11.1094

>  <SCORE.INTER.CONST>
1

>  <SCORE.INTER.POLAR>
-1.29904

>  <SCORE.INTER.ROT>
3

>  <SCORE.INTER.SOLV>
11.3899

>  <SCORE.INTER.VDW>
-12.4728

>  <SCORE.INTER.norm>
-0.694339

>  <SCORE.INTRA>
0.844295

>  <SCORE.INTRA.DIHEDRAL>
0.72176

>  <SCORE.INTRA.DIHEDRAL.0>
0.00893466

>  <SCORE.INTRA.POLAR>
0

>  <SCORE.INTRA.POLAR.0>
0

>  <SCORE.INTRA.REPUL>
0

>  <SCORE.INTRA.REPUL.0>
0

>  <SCORE.INTRA.SOLV>
0.586675

>  <SCORE.INTRA.SOLV.lig_0>
-48.9722

>  <SCORE.INTRA.VDW>
0.190077

>  <SCORE.INTRA.VDW.0>
-0.529409

>  <SCORE.INTRA.norm>
0.0527684

>  <SCORE.RESTR>
0

>  <SCORE.RESTR.CAVITY>
0

>  <SCORE.RESTR.norm>
0

>  <SCORE.SYSTEM>
0

>  <SCORE.SYSTEM.CONST>
0

>  <SCORE.SYSTEM.DIHEDRAL>
0

>  <SCORE.SYSTEM.SOLV>
0

>  <SCORE.SYSTEM.norm>
0

>  <SCORE.heavy>
16

>  <SCORE.norm>
-0.64157

>  <RMSD>
1.047

$$$$
ligand
 OpenBabel11021811433D
libRbt.so/2013.1/901 2013/11/27
 16 16  0  0  0  0  0  0  0  0999 V2000
   49.1072   13.1089   10.3246 P   0  0  2  0  0  0  0  0  0  0  0  0
   49.3760   14.5035   10.7547 O   0  0  0  0  0  0  0  0  0  0  0  0
   50.1561   12.1200   11.0399 O   0  5  0  0  0  0  0  0  0  0  0  0
   49.2895   13.0139    8.7273 O   0  0  0  0  0  0  0  0  0  0  0  0
   44.6803   12.0325   14.5796 C   0  0  2  0  0  0  0  0  0  0  0  0
   44.2815   10.7262   14.1263 O   0  0  0  0  0  0  0  0  0  0  0  0
   43.6720   13.1111   14.1074 C   0  0  2  0  0  0  0  0  0  0  0  0
   42.3272   12.7875   14.5984 O   0  0  0  0  0  0  0  0  0  0  0  0
   43.6661   13.1335   12.5673 C   0  0  1  0  0  0  0  0  0  0  0  0
   42.7461   14.1276   12.1007 O   0  0  0  0  0  0  0  0  0  0  0  0
   45.0855   13.4731   12.0864 C   0  0  2  0  0  0  0  0  0  0  0  0
   45.1097   13.4891   10.6427 O   0  0  0  0  0  0  0  0  0  0  0  0
   46.0592   12.3866   12.6205 C   0  0  2  0  0  0  0  0  0  0  0  0
   46.0205   12.3565   14.0803 O   0  0  0  0  0  0  0  0  0  0  0  0
   47.4891   12.7379   12.1709 C   0  0  0  0  0  0  0  0  0  0  0  0
   47.5988   12.6767   10.7436 O   0  0  0  0  0  0  0  0  0  0  0  0
  1  2  1  1  0  0  0
  1  3  1  0  0  0  0
  1  4  2  0  0  0  0
  1 16  1  0  0  0  0
  5  6  1  6  0  0  0
  5  7  1  0  0  0  0
  5 14  1  0  0  0  0
  7  8  1  6  0  0  0
  7  9  1  0  0  0  0
  9 10  1  1  0  0  0
  9 11  1  0  0  0  0
 11 12  1  6  0  0  0
 11 13  1  0  0  0  0
 13 14  1  0  0  0  0
 13 15  1  1  0  0  0
 15 16  1  0  0  0  0
M  CHG  1   3  -1
M  END
>  <CHROM.1>
-64.73994140,177.91292453,-61.58751468,46.29361039,12.87908297,12.03594182
-0.49414008,-0.26247090,2.13984668

>  <Name>
ligand

>  <RI>
0

>  <Rbt.Current_Directory>
/home/itssahil/PROJECTS/Mol_Feturizer/New_Systems/rnas/2HO7

>  <Rbt.Executable>
rbdock ($Id: //depot/dev/client3/rdock/2013.1/src/exe/rbdock.cxx#4 $)

>  <Rbt.Library>
libRbt.so (2013.1, Build901 2013/11/27)

>  <Rbt.Parameter_File>
/export/apps/rDock/src/rDock_2013.1_src/data/scripts/dock_solv.prm

>  <Rbt.Receptor>
prm/pocket_docking_2.prm

>  <SCORE>
-9.90008

>  <SCORE.INTER>
-10.361

>  <SCORE.INTER.CONST>
1

>  <SCORE.INTER.POLAR>
-1.29861

>  <SCORE.INTER.ROT>
3

>  <SCORE.INTER.SOLV>
11.6911

>  <SCORE.INTER.VDW>
-12.0756

>  <SCORE.INTER.norm>
-0.64756

>  <SCORE.INTRA>
0.460887

>  <SCORE.INTRA.DIHEDRAL>
0.09825

>  <SCORE.INTRA.DIHEDRAL.0>
0.00893466

>  <SCORE.INTRA.POLAR>
0

>  <SCORE.INTRA.POLAR.0>
0

>  <SCORE.INTRA.REPUL>
0

>  <SCORE.INTRA.REPUL.0>
0

>  <SCORE.INTRA.SOLV>
0.514632

>  <SCORE.INTRA.SOLV.lig_0>
-48.9722

>  <SCORE.INTRA.VDW>
0.154447

>  <SCORE.INTRA.VDW.0>
-0.529409

>  <SCORE.INTRA.norm>
0.0288055

>  <SCORE.RESTR>
0

>  <SCORE.RESTR.CAVITY>
0

>  <SCORE.RESTR.norm>
0

>  <SCORE.SYSTEM>
0

>  <SCORE.SYSTEM.CONST>
0

>  <SCORE.SYSTEM.DIHEDRAL>
0

>  <SCORE.SYSTEM.SOLV>
0

>  <SCORE.SYSTEM.norm>
0

>  <SCORE.heavy>
16

>  <SCORE.norm>
-0.618755

>  <RMSD>
1.054

$$$$
ligand
 OpenBabel11021811433D
libRbt.so/2013.1/901 2013/11/27
 16 16  0  0  0  0  0  0  0  0999 V2000
   49.4596   13.1739   11.4365 P   0  0  2  0  0  0  0  0  0  0  0  0
   50.2465   14.3904   11.7577 O   0  0  0  0  0  0  0  0  0  0  0  0
   50.2768   11.8711   11.9106 O   0  5  0  0  0  0  0  0  0  0  0  0
   49.2310   13.1090    9.8436 O   0  0  0  0  0  0  0  0  0  0  0  0
   44.9253   12.0341   14.8043 C   0  0  2  0  0  0  0  0  0  0  0  0
   44.1995   10.8193   14.5434 O   0  0  0  0  0  0  0  0  0  0  0  0
   44.0772   13.2750   14.4249 C   0  0  2  0  0  0  0  0  0  0  0  0
   42.8132   13.2637   15.1708 O   0  0  0  0  0  0  0  0  0  0  0  0
   43.7836   13.2225   12.9138 C   0  0  1  0  0  0  0  0  0  0  0  0
   43.0049   14.3627   12.5316 O   0  0  0  0  0  0  0  0  0  0  0  0
   45.1244   13.2343   12.1632 C   0  0  2  0  0  0  0  0  0  0  0  0
   44.8769   13.1741   10.7419 O   0  0  0  0  0  0  0  0  0  0  0  0
   45.9495   11.9960   12.6102 C   0  0  2  0  0  0  0  0  0  0  0  0
   46.1835   12.0463   14.0510 O   0  0  0  0  0  0  0  0  0  0  0  0
   47.3086   12.0185   11.8875 C   0  0  0  0  0  0  0  0  0  0  0  0
   48.0306   13.2142   12.2070 O   0  0  0  0  0  0  0  0  0  0  0  0
  1  2  1  1  0  0  0
  1  3  1  0  0  0  0
  1  4  2  0  0  0  0
  1 16  1  0  0  0  0
  5  6  1  6  0  0  0
  5  7  1  0  0  0  0
  5 14  1  0  0  0  0
  7  8  1  1  0  0  0
  7  9  1  0  0  0  0
  9 10  1  6  0  0  0
  9 11  1  0  0  0  0
 11 12  1  6  0  0  0
 11 13  1  0  0  0  0
 13 14  1  0  0  0  0
 13 15  1  6  0  0  0
 15 16  1  0  0  0  0
M  CHG  1   3  -1
M  END
>  <CHROM.1>
59.71175868,179.20455247,-179.23857702,46.48558302,12.85639914,12.57903782
-0.37477125,-0.20699358,2.15073611

>  <Name>
ligand

>  <RI>
0

>  <Rbt.Current_Directory>
/home/itssahil/PROJECTS/Mol_Feturizer/New_Systems/rnas/2HO7

>  <Rbt.Executable>
rbdock ($Id: //depot/dev/client3/rdock/2013.1/src/exe/rbdock.cxx#4 $)

>  <Rbt.Library>
libRbt.so (2013.1, Build901 2013/11/27)

>  <Rbt.Parameter_File>
/export/apps/rDock/src/rDock_2013.1_src/data/scripts/dock_solv.prm

>  <Rbt.Receptor>
prm/pocket_docking_3.prm

>  <SCORE>
-12.0532

>  <SCORE.INTER>
-12.3348

>  <SCORE.INTER.CONST>
1

>  <SCORE.INTER.POLAR>
-1.29904

>  <SCORE.INTER.ROT>
3

>  <SCORE.INTER.SOLV>
13.7212

>  <SCORE.INTER.VDW>
-14.0668

>  <SCORE.INTER.norm>
-0.770923

>  <SCORE.INTRA>
0.281541

>  <SCORE.INTRA.DIHEDRAL>
-0.00445038

>  <SCORE.INTRA.DIHEDRAL.0>
0.00893466

>  <SCORE.INTRA.POLAR>
0

>  <SCORE.INTRA.POLAR.0>
0

>  <SCORE.INTRA.REPUL>
0

>  <SCORE.INTRA.REPUL.0>
0

>  <SCORE.INTRA.SOLV>
0.908501

>  <SCORE.INTRA.SOLV.lig_0>
-48.9722

>  <SCORE.INTRA.VDW>
-0.170484

>  <SCORE.INTRA.VDW.0>
-0.529409

>  <SCORE.INTRA.norm>
0.0175963

>  <SCORE.RESTR>
0

>  <SCORE.RESTR.CAVITY>
0

>  <SCORE.RESTR.norm>
0

>  <SCORE.SYSTEM>
0

>  <SCORE.SYSTEM.CONST>
0

>  <SCORE.SYSTEM.DIHEDRAL>
0

>  <SCORE.SYSTEM.SOLV>
0

>  <SCORE.SYSTEM.norm>
0

>  <SCORE.heavy>
16

>  <SCORE.norm>
-0.753327

>  <RMSD>
1.065

$$$$
ligand
 OpenBabel11021811433D
libRbt.so/2013.1/901 2013/11/27
 16 16  0  0  0  0  0  0  0  0999 V2000
   49.5123   13.1447   11.4542 P   0  0  2  0  0  0  0  0  0  0  0  0
   50.2922   14.3689   11.7630 O   0  0  0  0  0  0  0  0  0  0  0  0
   50.3270   11.8529   11.9612 O   0  5  0  0  0  0  0  0  0  0  0  0
   49.3029   13.0508    9.8602 O   0  0  0  0  0  0  0  0  0  0  0  0
   44.9400   12.0264   14.7984 C   0  0  2  0  0  0  0  0  0  0  0  0
   44.2101   10.8153   14.5316 O   0  0  0  0  0  0  0  0  0  0  0  0
   44.1065   13.2712   14.4001 C   0  0  2  0  0  0  0  0  0  0  0  0
   42.8309   13.2720   15.1261 O   0  0  0  0  0  0  0  0  0  0  0  0
   43.8363   13.2137   12.8848 C   0  0  1  0  0  0  0  0  0  0  0  0
   43.0715   14.3574   12.4853 O   0  0  0  0  0  0  0  0  0  0  0  0
   45.1888   13.2130   12.1554 C   0  0  2  0  0  0  0  0  0  0  0  0
   44.9633   13.1479   10.7307 O   0  0  0  0  0  0  0  0  0  0  0  0
   45.9983   11.9712   12.6209 C   0  0  2  0  0  0  0  0  0  0  0  0
   46.2099   12.0266   14.0650 O   0  0  0  0  0  0  0  0  0  0  0  0
   47.3687   11.9812   11.9196 C   0  0  0  0  0  0  0  0  0  0  0  0
   48.0740   13.1949   12.2068 O   0  0  0  0  0  0  0  0  0  0  0  0
  1  2  1  1  0  0  0
  1  3  1  0  0  0  0
  1  4  2  0  0  0  0
  1 16  1  0  0  0  0
  5  6  1  6  0  0  0
  5  7  1  0  0  0  0
  5 14  1  0  0  0  0
  7  8  1  1  0  0  0
  7  9  1  0  0  0  0
  9 10  1  6  0  0  0
  9 11  1  0  0  0  0
 11 12  1  6  0  0  0
 11 13  1  0  0  0  0
 13 14  1  0  0  0  0
 13 15  1  6  0  0  0
 15 16  1  0  0  0  0
M  CHG  1   3  -1
M  END
>  <CHROM.1>
57.65448586,179.52470972,-178.21657961,46.53244111,12.83704065,12.57832837
-0.36662992,-0.20721708,2.15457954

>  <Name>
ligand

>  <RI>
0

>  <Rbt.Current_Directory>
/home/itssahil/PROJECTS/Mol_Feturizer/New_Systems/rnas/2HO7

>  <Rbt.Executable>
rbdock ($Id: //depot/dev/client3/rdock/2013.1/src/exe/rbdock.cxx#4 $)

>  <Rbt.Library>
libRbt.so (2013.1, Build901 2013/11/27)

>  <Rbt.Parameter_File>
/export/apps/rDock/src/rDock_2013.1_src/data/scripts/dock_solv.prm

>  <Rbt.Receptor>
prm/pocket_docking_5.prm

>  <SCORE>
-12.0349

>  <SCORE.INTER>
-12.3479

>  <SCORE.INTER.CONST>
1

>  <SCORE.INTER.POLAR>
-1.29904

>  <SCORE.INTER.ROT>
3

>  <SCORE.INTER.SOLV>
13.7806

>  <SCORE.INTER.VDW>
-14.0954

>  <SCORE.INTER.norm>
-0.771746

>  <SCORE.INTRA>
0.313018

>  <SCORE.INTRA.DIHEDRAL>
0.0174729

>  <SCORE.INTRA.DIHEDRAL.0>
0.00893466

>  <SCORE.INTRA.POLAR>
0

>  <SCORE.INTRA.POLAR.0>
0

>  <SCORE.INTRA.REPUL>
0

>  <SCORE.INTRA.REPUL.0>
0

>  <SCORE.INTRA.SOLV>
0.909996

>  <SCORE.INTRA.SOLV.lig_0>
-48.9722

>  <SCORE.INTRA.VDW>
-0.150716

>  <SCORE.INTRA.VDW.0>
-0.529409

>  <SCORE.INTRA.norm>
0.0195636

>  <SCORE.RESTR>
0

>  <SCORE.RESTR.CAVITY>
0

>  <SCORE.RESTR.norm>
0

>  <SCORE.SYSTEM>
0

>  <SCORE.SYSTEM.CONST>
0

>  <SCORE.SYSTEM.DIHEDRAL>
0

>  <SCORE.SYSTEM.SOLV>
0

>  <SCORE.SYSTEM.norm>
0

>  <SCORE.heavy>
16

>  <SCORE.norm>
-0.752182

>  <RMSD>
1.068

$$$$
ligand
 OpenBabel11021811433D
libRbt.so/2013.1/901 2013/11/27
 16 16  0  0  0  0  0  0  0  0999 V2000
   49.4622   13.1606   11.4354 P   0  0  2  0  0  0  0  0  0  0  0  0
   50.2408   14.3886   11.7326 O   0  0  0  0  0  0  0  0  0  0  0  0
   50.2965   11.8720   11.9182 O   0  5  0  0  0  0  0  0  0  0  0  0
   49.2181   13.0726    9.8460 O   0  0  0  0  0  0  0  0  0  0  0  0
   44.9180   12.0368   14.7979 C   0  0  2  0  0  0  0  0  0  0  0  0
   44.1856   10.8268   14.5331 O   0  0  0  0  0  0  0  0  0  0  0  0
   44.0778   13.2834   14.4197 C   0  0  2  0  0  0  0  0  0  0  0  0
   42.8125   13.2779   15.1634 O   0  0  0  0  0  0  0  0  0  0  0  0
   43.7866   13.2359   12.9080 C   0  0  1  0  0  0  0  0  0  0  0  0
   43.0152   14.3815   12.5270 O   0  0  0  0  0  0  0  0  0  0  0  0
   45.1288   13.2417   12.1598 C   0  0  2  0  0  0  0  0  0  0  0  0
   44.8834   13.1860   10.7380 O   0  0  0  0  0  0  0  0  0  0  0  0
   45.9459   11.9976   12.6056 C   0  0  2  0  0  0  0  0  0  0  0  0
   46.1776   12.0434   14.0469 O   0  0  0  0  0  0  0  0  0  0  0  0
   47.3064   12.0138   11.8853 C   0  0  0  0  0  0  0  0  0  0  0  0
   48.0407   13.1978   12.2200 O   0  0  0  0  0  0  0  0  0  0  0  0
  1  2  1  1  0  0  0
  1  3  1  0  0  0  0
  1  4  2  0  0  0  0
  1 16  1  0  0  0  0
  5  6  1  6  0  0  0
  5  7  1  0  0  0  0
  5 14  1  0  0  0  0
  7  8  1  1  0  0  0
  7  9  1  0  0  0  0
  9 10  1  6  0  0  0
  9 11  1  0  0  0  0
 11 12  1  6  0  0  0
 11 13  1  0  0  0  0
 13 14  1  0  0  0  0
 13 15  1  6  0  0  0
 15 16  1  0  0  0  0
M  CHG  1   3  -1
M  END
>  <CHROM.1>
60.32976709,179.96229010,178.69761041,46.48610324,12.85597367,12.57545320
-0.37111190,-0.21099611,2.15387315

>  <Name>
ligand

>  <RI>
0

>  <Rbt.Current_Directory>
/home/itssahil/PROJECTS/Mol_Feturizer/New_Systems/rnas/2HO7

>  <Rbt.Executable>
rbdock ($Id: //depot/dev/client3/rdock/2013.1/src/exe/rbdock.cxx#4 $)

>  <Rbt.Library>
libRbt.so (2013.1, Build901 2013/11/27)

>  <Rbt.Parameter_File>
/export/apps/rDock/src/rDock_2013.1_src/data/scripts/dock_solv.prm

>  <Rbt.Receptor>
prm/pocket_docking_3.prm

>  <SCORE>
-12.0628

>  <SCORE.INTER>
-12.3341

>  <SCORE.INTER.CONST>
1

>  <SCORE.INTER.POLAR>
-1.29753

>  <SCORE.INTER.ROT>
3

>  <SCORE.INTER.SOLV>
13.7018

>  <SCORE.INTER.VDW>
-14.0649

>  <SCORE.INTER.norm>
-0.770884

>  <SCORE.INTRA>
0.271348

>  <SCORE.INTRA.DIHEDRAL>
-0.00549793

>  <SCORE.INTRA.DIHEDRAL.0>
0.00893466

>  <SCORE.INTRA.POLAR>
0

>  <SCORE.INTRA.POLAR.0>
0

>  <SCORE.INTRA.REPUL>
0

>  <SCORE.INTRA.REPUL.0>
0

>  <SCORE.INTRA.SOLV>
0.907629

>  <SCORE.INTRA.SOLV.lig_0>
-48.9722

>  <SCORE.INTRA.VDW>
-0.179718

>  <SCORE.INTRA.VDW.0>
-0.529409

>  <SCORE.INTRA.norm>
0.0169592

>  <SCORE.RESTR>
0

>  <SCORE.RESTR.CAVITY>
0

>  <SCORE.RESTR.norm>
0

>  <SCORE.SYSTEM>
0

>  <SCORE.SYSTEM.CONST>
0

>  <SCORE.SYSTEM.DIHEDRAL>
0

>  <SCORE.SYSTEM.SOLV>
0

>  <SCORE.SYSTEM.norm>
0

>  <SCORE.heavy>
16

>  <SCORE.norm>
-0.753924

>  <RMSD>
1.069

$$$$
ligand
 OpenBabel11021811433D
libRbt.so/2013.1/901 2013/11/27
 16 16  0  0  0  0  0  0  0  0999 V2000
   49.5048   13.1532   11.4742 P   0  0  2  0  0  0  0  0  0  0  0  0
   50.2824   14.3791   11.7818 O   0  0  0  0  0  0  0  0  0  0  0  0
   50.3374   11.8614   11.9514 O   0  5  0  0  0  0  0  0  0  0  0  0
   49.2658   13.0754    9.8835 O   0  0  0  0  0  0  0  0  0  0  0  0
   44.9156   12.0344   14.8000 C   0  0  2  0  0  0  0  0  0  0  0  0
   44.1842   10.8257   14.5266 O   0  0  0  0  0  0  0  0  0  0  0  0
   44.0877   13.2821   14.3989 C   0  0  2  0  0  0  0  0  0  0  0  0
   42.8078   13.2849   15.1173 O   0  0  0  0  0  0  0  0  0  0  0  0
   43.8264   13.2280   12.8820 C   0  0  1  0  0  0  0  0  0  0  0  0
   43.0669   14.3744   12.4800 O   0  0  0  0  0  0  0  0  0  0  0  0
   45.1831   13.2251   12.1606 C   0  0  2  0  0  0  0  0  0  0  0  0
   44.9659   13.1631   10.7345 O   0  0  0  0  0  0  0  0  0  0  0  0
   45.9866   11.9804   12.6287 C   0  0  2  0  0  0  0  0  0  0  0  0
   46.1898   12.0326   14.0741 O   0  0  0  0  0  0  0  0  0  0  0  0
   47.3612   11.9881   11.9355 C   0  0  0  0  0  0  0  0  0  0  0  0
   48.0808   13.1854   12.2545 O   0  0  0  0  0  0  0  0  0  0  0  0
  1  2  1  1  0  0  0
  1  3  1  0  0  0  0
  1  4  2  0  0  0  0
  1 16  1  0  0  0  0
  5  6  1  6  0  0  0
  5  7  1  0  0  0  0
  5 14  1  0  0  0  0
  7  8  1  1  0  0  0
  7  9  1  0  0  0  0
  9 10  1  6  0  0  0
  9 11  1  0  0  0  0
 11 12  1  6  0  0  0
 11 13  1  0  0  0  0
 13 14  1  0  0  0  0
 13 15  1  6  0  0  0
 15 16  1  0  0  0  0
M  CHG  1   3  -1
M  END
>  <CHROM.1>
59.01280744,-178.84127381,-179.90838164,46.52116591,12.84726028,12.58683426
-0.36242819,-0.20686101,2.15886524

>  <Name>
ligand

>  <RI>
0

>  <Rbt.Current_Directory>
/home/itssahil/PROJECTS/Mol_Feturizer/New_Systems/rnas/2HO7

>  <Rbt.Executable>
rbdock ($Id: //depot/dev/client3/rdock/2013.1/src/exe/rbdock.cxx#4 $)

>  <Rbt.Library>
libRbt.so (2013.1, Build901 2013/11/27)

>  <Rbt.Parameter_File>
/export/apps/rDock/src/rDock_2013.1_src/data/scripts/dock_solv.prm

>  <Rbt.Receptor>
prm/pocket_docking_8.prm

>  <SCORE>
-12.0207

>  <SCORE.INTER>
-12.3183

>  <SCORE.INTER.CONST>
1

>  <SCORE.INTER.POLAR>
-1.29904

>  <SCORE.INTER.ROT>
3

>  <SCORE.INTER.SOLV>
13.75

>  <SCORE.INTER.VDW>
-14.0654

>  <SCORE.INTER.norm>
-0.769892

>  <SCORE.INTRA>
0.297551

>  <SCORE.INTRA.DIHEDRAL>
0.0014553

>  <SCORE.INTRA.DIHEDRAL.0>
0.00893466

>  <SCORE.INTRA.POLAR>
0

>  <SCORE.INTRA.POLAR.0>
0

>  <SCORE.INTRA.REPUL>
0

>  <SCORE.INTRA.REPUL.0>
0

>  <SCORE.INTRA.SOLV>
0.937752

>  <SCORE.INTRA.SOLV.lig_0>
-48.9722

>  <SCORE.INTRA.VDW>
-0.172053

>  <SCORE.INTRA.VDW.0>
-0.529409

>  <SCORE.INTRA.norm>
0.0185969

>  <SCORE.RESTR>
0

>  <SCORE.RESTR.CAVITY>
0

>  <SCORE.RESTR.norm>
0

>  <SCORE.SYSTEM>
0

>  <SCORE.SYSTEM.CONST>
0

>  <SCORE.SYSTEM.DIHEDRAL>
0

>  <SCORE.SYSTEM.SOLV>
0

>  <SCORE.SYSTEM.norm>
0

>  <SCORE.heavy>
16

>  <SCORE.norm>
-0.751295

>  <RMSD>
1.070

$$$$
ligand
 OpenBabel11021811433D
libRbt.so/2013.1/901 2013/11/27
 16 16  0  0  0  0  0  0  0  0999 V2000
   49.4686   12.9953   11.4477 P   0  0  2  0  0  0  0  0  0  0  0  0
   49.7705   14.3230   12.0379 O   0  0  0  0  0  0  0  0  0  0  0  0
   50.6424   11.9633   11.8311 O   0  5  0  0  0  0  0  0  0  0  0  0
   49.3924   13.1443    9.8459 O   0  0  0  0  0  0  0  0  0  0  0  0
   44.6977   12.2785   14.4521 C   0  0  2  0  0  0  0  0  0  0  0  0
   44.1587   11.0822   13.8613 O   0  0  0  0  0  0  0  0  0  0  0  0
   43.6704   13.4375   14.3843 C   0  0  2  0  0  0  0  0  0  0  0  0
   42.4294   13.0459   15.0630 O   0  0  0  0  0  0  0  0  0  0  0  0
   43.3737   13.7413   12.9038 C   0  0  1  0  0  0  0  0  0  0  0  0
   42.4301   14.8152   12.8093 O   0  0  0  0  0  0  0  0  0  0  0  0
   44.6906   14.1459   12.2231 C   0  0  2  0  0  0  0  0  0  0  0  0
   44.4414   14.4255   10.8286 O   0  0  0  0  0  0  0  0  0  0  0  0
   45.6953   12.9683   12.3560 C   0  0  2  0  0  0  0  0  0  0  0  0
   45.9328   12.6721   13.7664 O   0  0  0  0  0  0  0  0  0  0  0  0
   47.0290   13.3785   11.7056 C   0  0  0  0  0  0  0  0  0  0  0  0
   48.0585   12.4350   12.0266 O   0  0  0  0  0  0  0  0  0  0  0  0
  1  2  1  1  0  0  0
  1  3  1  0  0  0  0
  1  4  2  0  0  0  0
  1 16  1  0  0  0  0
  5  6  1  6  0  0  0
  5  7  1  0  0  0  0
  5 14  1  0  0  0  0
  7  8  1  1  0  0  0
  7  9  1  0  0  0  0
  9 10  1  1  0  0  0
  9 11  1  0  0  0  0
 11 12  1  6  0  0  0
 11 13  1  0  0  0  0
 13 14  1  0  0  0  0
 13 15  1  1  0  0  0
 15 16  1  0  0  0  0
M  CHG  1   3  -1
M  END
>  <CHROM.1>
168.88854832,-174.19149006,58.70779896,46.28131779,13.15791008,12.49647679
-0.23206785,-0.27804434,2.27422739

>  <Name>
ligand

>  <RI>
0

>  <Rbt.Current_Directory>
/home/itssahil/PROJECTS/Mol_Feturizer/New_Systems/rnas/2HO7

>  <Rbt.Executable>
rbdock ($Id: //depot/dev/client3/rdock/2013.1/src/exe/rbdock.cxx#4 $)

>  <Rbt.Library>
libRbt.so (2013.1, Build901 2013/11/27)

>  <Rbt.Parameter_File>
/export/apps/rDock/src/rDock_2013.1_src/data/scripts/dock_solv.prm

>  <Rbt.Receptor>
prm/pocket_docking_3.prm

>  <SCORE>
-11.1296

>  <SCORE.INTER>
-11.4638

>  <SCORE.INTER.CONST>
1

>  <SCORE.INTER.POLAR>
-1.29748

>  <SCORE.INTER.ROT>
3

>  <SCORE.INTER.SOLV>
13.1662

>  <SCORE.INTER.VDW>
-13.3063

>  <SCORE.INTER.norm>
-0.716488

>  <SCORE.INTRA>
0.334244

>  <SCORE.INTRA.DIHEDRAL>
0.59447

>  <SCORE.INTRA.DIHEDRAL.0>
0.00893466

>  <SCORE.INTRA.POLAR>
0

>  <SCORE.INTRA.POLAR.0>
0

>  <SCORE.INTRA.REPUL>
0

>  <SCORE.INTRA.REPUL.0>
0

>  <SCORE.INTRA.SOLV>
0.0189595

>  <SCORE.INTRA.SOLV.lig_0>
-48.9722

>  <SCORE.INTRA.VDW>
0.027529

>  <SCORE.INTRA.VDW.0>
-0.529409

>  <SCORE.INTRA.norm>
0.0208902

>  <SCORE.RESTR>
0

>  <SCORE.RESTR.CAVITY>
0

>  <SCORE.RESTR.norm>
0

>  <SCORE.SYSTEM>
0

>  <SCORE.SYSTEM.CONST>
0

>  <SCORE.SYSTEM.DIHEDRAL>
0

>  <SCORE.SYSTEM.SOLV>
0

>  <SCORE.SYSTEM.norm>
0

>  <SCORE.heavy>
16

>  <SCORE.norm>
-0.695598

>  <RMSD>
1.072

$$$$
ligand
 OpenBabel11021811433D
libRbt.so/2013.1/901 2013/11/27
 16 16  0  0  0  0  0  0  0  0999 V2000
   49.4776   13.1621   11.4833 P   0  0  2  0  0  0  0  0  0  0  0  0
   50.2609   14.3813   11.8028 O   0  0  0  0  0  0  0  0  0  0  0  0
   50.3081   11.8614   11.9396 O   0  5  0  0  0  0  0  0  0  0  0  0
   49.2305   13.1057    9.8929 O   0  0  0  0  0  0  0  0  0  0  0  0
   44.8966   12.0135   14.8043 C   0  0  2  0  0  0  0  0  0  0  0  0
   44.1556   10.8151   14.5118 O   0  0  0  0  0  0  0  0  0  0  0  0
   44.0740   13.2741   14.4335 C   0  0  2  0  0  0  0  0  0  0  0  0
   42.7989   13.2706   15.1602 O   0  0  0  0  0  0  0  0  0  0  0  0
   43.8026   13.2518   12.9175 C   0  0  1  0  0  0  0  0  0  0  0  0
   43.0479   14.4106   12.5434 O   0  0  0  0  0  0  0  0  0  0  0  0
   45.1546   13.2547   12.1873 C   0  0  2  0  0  0  0  0  0  0  0  0
   44.9277   13.2224   10.7617 O   0  0  0  0  0  0  0  0  0  0  0  0
   45.9531   11.9959   12.6253 C   0  0  2  0  0  0  0  0  0  0  0  0
   46.1660   12.0181   14.0701 O   0  0  0  0  0  0  0  0  0  0  0  0
   47.3232   12.0087   11.9233 C   0  0  0  0  0  0  0  0  0  0  0  0
   48.0575   13.1890   12.2709 O   0  0  0  0  0  0  0  0  0  0  0  0
  1  2  1  1  0  0  0
  1  3  1  0  0  0  0
  1  4  2  0  0  0  0
  1 16  1  0  0  0  0
  5  6  1  6  0  0  0
  5  7  1  0  0  0  0
  5 14  1  0  0  0  0
  7  8  1  1  0  0  0
  7  9  1  0  0  0  0
  9 10  1  6  0  0  0
  9 11  1  0  0  0  0
 11 12  1  6  0  0  0
 11 13  1  0  0  0  0
 13 14  1  0  0  0  0
 13 15  1  6  0  0  0
 15 16  1  0  0  0  0
M  CHG  1   3  -1
M  END
>  <CHROM.1>
59.54104494,-178.97955831,179.18082035,46.49532783,12.85733862,12.60169141
-0.36173337,-0.21471909,2.17662238

>  <Name>
ligand

>  <RI>
0

>  <Rbt.Current_Directory>
/home/itssahil/PROJECTS/Mol_Feturizer/New_Systems/rnas/2HO7

>  <Rbt.Executable>
rbdock ($Id: //depot/dev/client3/rdock/2013.1/src/exe/rbdock.cxx#4 $)

>  <Rbt.Library>
libRbt.so (2013.1, Build901 2013/11/27)

>  <Rbt.Parameter_File>
/export/apps/rDock/src/rDock_2013.1_src/data/scripts/dock_solv.prm

>  <Rbt.Receptor>
prm/pocket_docking_3.prm

>  <SCORE>
-12.0212

>  <SCORE.INTER>
-12.3096

>  <SCORE.INTER.CONST>
1

>  <SCORE.INTER.POLAR>
-1.29904

>  <SCORE.INTER.ROT>
3

>  <SCORE.INTER.SOLV>
13.7974

>  <SCORE.INTER.VDW>
-14.0754

>  <SCORE.INTER.norm>
-0.76935

>  <SCORE.INTRA>
0.288445

>  <SCORE.INTRA.DIHEDRAL>
-0.00166415

>  <SCORE.INTRA.DIHEDRAL.0>
0.00893466

>  <SCORE.INTRA.POLAR>
0

>  <SCORE.INTRA.POLAR.0>
0

>  <SCORE.INTRA.REPUL>
0

>  <SCORE.INTRA.REPUL.0>
0

>  <SCORE.INTRA.SOLV>
0.932342

>  <SCORE.INTRA.SOLV.lig_0>
-48.9722

>  <SCORE.INTRA.VDW>
-0.176894

>  <SCORE.INTRA.VDW.0>
-0.529409

>  <SCORE.INTRA.norm>
0.0180278

>  <SCORE.RESTR>
0

>  <SCORE.RESTR.CAVITY>
0

>  <SCORE.RESTR.norm>
0

>  <SCORE.SYSTEM>
0

>  <SCORE.SYSTEM.CONST>
0

>  <SCORE.SYSTEM.DIHEDRAL>
0

>  <SCORE.SYSTEM.SOLV>
0

>  <SCORE.SYSTEM.norm>
0

>  <SCORE.heavy>
16

>  <SCORE.norm>
-0.751322

>  <RMSD>
1.075

$$$$
ligand
 OpenBabel11021811433D
libRbt.so/2013.1/901 2013/11/27
 16 16  0  0  0  0  0  0  0  0999 V2000
   49.5120   13.1205   11.4609 P   0  0  2  0  0  0  0  0  0  0  0  0
   50.2879   14.3514   11.7526 O   0  0  0  0  0  0  0  0  0  0  0  0
   50.3305   11.8385   11.9867 O   0  5  0  0  0  0  0  0  0  0  0  0
   49.3038   13.0032    9.8682 O   0  0  0  0  0  0  0  0  0  0  0  0
   44.9169   12.0303   14.8071 C   0  0  2  0  0  0  0  0  0  0  0  0
   44.1827   10.8218   14.5404 O   0  0  0  0  0  0  0  0  0  0  0  0
   44.0961   13.2771   14.3891 C   0  0  2  0  0  0  0  0  0  0  0  0
   42.8117   13.2914   15.0991 O   0  0  0  0  0  0  0  0  0  0  0  0
   43.8444   13.2097   12.8710 C   0  0  1  0  0  0  0  0  0  0  0  0
   43.0918   14.3550   12.4534 O   0  0  0  0  0  0  0  0  0  0  0  0
   45.2057   13.1951   12.1585 C   0  0  2  0  0  0  0  0  0  0  0  0
   44.9974   13.1205   10.7316 O   0  0  0  0  0  0  0  0  0  0  0  0
   46.0016   11.9520   12.6434 C   0  0  2  0  0  0  0  0  0  0  0  0
   46.1957   12.0171   14.0895 O   0  0  0  0  0  0  0  0  0  0  0  0
   47.3807   11.9481   11.9591 C   0  0  0  0  0  0  0  0  0  0  0  0
   48.0731   13.1768   12.2119 O   0  0  0  0  0  0  0  0  0  0  0  0
  1  2  1  1  0  0  0
  1  3  1  0  0  0  0
  1  4  2  0  0  0  0
  1 16  1  0  0  0  0
  5  6  1  6  0  0  0
  5  7  1  0  0  0  0
  5 14  1  0  0  0  0
  7  8  1  1  0  0  0
  7  9  1  0  0  0  0
  9 10  1  6  0  0  0
  9 11  1  0  0  0  0
 11 12  1  6  0  0  0
 11 13  1  0  0  0  0
 13 14  1  0  0  0  0
 13 15  1  6  0  0  0
 15 16  1  0  0  0  0
M  CHG  1   3  -1
M  END
>  <CHROM.1>
55.88016647,-179.64436287,-177.31319349,46.53235198,12.82367464,12.58203365
-0.36288441,-0.20968904,2.15535764

>  <Name>
ligand

>  <RI>
0

>  <Rbt.Current_Directory>
/home/itssahil/PROJECTS/Mol_Feturizer/New_Systems/rnas/2HO7

>  <Rbt.Executable>
rbdock ($Id: //depot/dev/client3/rdock/2013.1/src/exe/rbdock.cxx#4 $)

>  <Rbt.Library>
libRbt.so (2013.1, Build901 2013/11/27)

>  <Rbt.Parameter_File>
/export/apps/rDock/src/rDock_2013.1_src/data/scripts/dock_solv.prm

>  <Rbt.Receptor>
prm/pocket_docking_3.prm

>  <SCORE>
-12.0338

>  <SCORE.INTER>
-12.3983

>  <SCORE.INTER.CONST>
1

>  <SCORE.INTER.POLAR>
-1.29904

>  <SCORE.INTER.ROT>
3

>  <SCORE.INTER.SOLV>
13.8391

>  <SCORE.INTER.VDW>
-14.1484

>  <SCORE.INTER.norm>
-0.774894

>  <SCORE.INTRA>
0.364529

>  <SCORE.INTRA.DIHEDRAL>
0.0649687

>  <SCORE.INTRA.DIHEDRAL.0>
0.00893466

>  <SCORE.INTRA.POLAR>
0

>  <SCORE.INTRA.POLAR.0>
0

>  <SCORE.INTRA.REPUL>
0

>  <SCORE.INTRA.REPUL.0>
0

>  <SCORE.INTRA.SOLV>
0.925134

>  <SCORE.INTRA.SOLV.lig_0>
-48.9722

>  <SCORE.INTRA.VDW>
-0.130522

>  <SCORE.INTRA.VDW.0>
-0.529409

>  <SCORE.INTRA.norm>
0.0227831

>  <SCORE.RESTR>
0

>  <SCORE.RESTR.CAVITY>
0

>  <SCORE.RESTR.norm>
0

>  <SCORE.SYSTEM>
0

>  <SCORE.SYSTEM.CONST>
0

>  <SCORE.SYSTEM.DIHEDRAL>
0

>  <SCORE.SYSTEM.SOLV>
0

>  <SCORE.SYSTEM.norm>
0

>  <SCORE.heavy>
16

>  <SCORE.norm>
-0.752111

>  <RMSD>
1.077

$$$$
ligand
 OpenBabel11021811433D
libRbt.so/2013.1/901 2013/11/27
 16 16  0  0  0  0  0  0  0  0999 V2000
   49.4679   13.1497   11.4495 P   0  0  2  0  0  0  0  0  0  0  0  0
   50.2515   14.3731   11.7520 O   0  0  0  0  0  0  0  0  0  0  0  0
   50.2893   11.8565   11.9421 O   0  5  0  0  0  0  0  0  0  0  0  0
   49.2382   13.0606    9.8580 O   0  0  0  0  0  0  0  0  0  0  0  0
   44.9063   12.0355   14.8087 C   0  0  2  0  0  0  0  0  0  0  0  0
   44.1681   10.8305   14.5376 O   0  0  0  0  0  0  0  0  0  0  0  0
   44.0777   13.2877   14.4234 C   0  0  2  0  0  0  0  0  0  0  0  0
   42.8061   13.2907   15.1563 O   0  0  0  0  0  0  0  0  0  0  0  0
   43.7991   13.2421   12.9092 C   0  0  1  0  0  0  0  0  0  0  0  0
   43.0386   14.3928   12.5217 O   0  0  0  0  0  0  0  0  0  0  0  0
   45.1476   13.2388   12.1725 C   0  0  2  0  0  0  0  0  0  0  0  0
   44.9139   13.1847   10.7486 O   0  0  0  0  0  0  0  0  0  0  0  0
   45.9525   11.9893   12.6251 C   0  0  2  0  0  0  0  0  0  0  0  0
   46.1722   12.0336   14.0684 O   0  0  0  0  0  0  0  0  0  0  0  0
   47.3192   11.9964   11.9164 C   0  0  0  0  0  0  0  0  0  0  0  0
   48.0393   13.1972   12.2205 O   0  0  0  0  0  0  0  0  0  0  0  0
  1  2  1  1  0  0  0
  1  3  1  0  0  0  0
  1  4  2  0  0  0  0
  1 16  1  0  0  0  0
  5  6  1  6  0  0  0
  5  7  1  0  0  0  0
  5 14  1  0  0  0  0
  7  8  1  1  0  0  0
  7  9  1  0  0  0  0
  9 10  1  6  0  0  0
  9 11  1  0  0  0  0
 11 12  1  6  0  0  0
 11 13  1  0  0  0  0
 13 14  1  0  0  0  0
 13 15  1  6  0  0  0
 15 16  1  0  0  0  0
M  CHG  1   3  -1
M  END
>  <CHROM.1>
58.32502812,179.97677630,-179.38953898,46.49178415,12.85190983,12.58635858
-0.36759747,-0.21465844,2.16058946

>  <Name>
ligand

>  <RI>
0

>  <Rbt.Current_Directory>
/home/itssahil/PROJECTS/Mol_Feturizer/New_Systems/rnas/2HO7

>  <Rbt.Executable>
rbdock ($Id: //depot/dev/client3/rdock/2013.1/src/exe/rbdock.cxx#4 $)

>  <Rbt.Library>
libRbt.so (2013.1, Build901 2013/11/27)

>  <Rbt.Parameter_File>
/export/apps/rDock/src/rDock_2013.1_src/data/scripts/dock_solv.prm

>  <Rbt.Receptor>
prm/pocket_docking_5.prm

>  <SCORE>
-12.0892

>  <SCORE.INTER>
-12.3838

>  <SCORE.INTER.CONST>
1

>  <SCORE.INTER.POLAR>
-1.29895

>  <SCORE.INTER.ROT>
3

>  <SCORE.INTER.SOLV>
13.7879

>  <SCORE.INTER.VDW>
-14.122

>  <SCORE.INTER.norm>
-0.773987

>  <SCORE.INTRA>
0.294636

>  <SCORE.INTRA.DIHEDRAL>
0.00206181

>  <SCORE.INTRA.DIHEDRAL.0>
0.00893466

>  <SCORE.INTRA.POLAR>
0

>  <SCORE.INTRA.POLAR.0>
0

>  <SCORE.INTRA.REPUL>
0

>  <SCORE.INTRA.REPUL.0>
0

>  <SCORE.INTRA.SOLV>
0.911204

>  <SCORE.INTRA.SOLV.lig_0>
-48.9722

>  <SCORE.INTRA.VDW>
-0.161997

>  <SCORE.INTRA.VDW.0>
-0.529409

>  <SCORE.INTRA.norm>
0.0184147

>  <SCORE.RESTR>
0

>  <SCORE.RESTR.CAVITY>
0

>  <SCORE.RESTR.norm>
0

>  <SCORE.SYSTEM>
0

>  <SCORE.SYSTEM.CONST>
0

>  <SCORE.SYSTEM.DIHEDRAL>
0

>  <SCORE.SYSTEM.SOLV>
0

>  <SCORE.SYSTEM.norm>
0

>  <SCORE.heavy>
16

>  <SCORE.norm>
-0.755573

>  <RMSD>
1.079

$$$$
ligand
 OpenBabel11021811433D
libRbt.so/2013.1/901 2013/11/27
 16 16  0  0  0  0  0  0  0  0999 V2000
   49.4538   13.1791   11.4286 P   0  0  2  0  0  0  0  0  0  0  0  0
   50.2350   14.4040   11.7315 O   0  0  0  0  0  0  0  0  0  0  0  0
   50.2929   11.8855   11.8894 O   0  5  0  0  0  0  0  0  0  0  0  0
   49.1945   13.1082    9.8407 O   0  0  0  0  0  0  0  0  0  0  0  0
   44.9057   12.0362   14.8075 C   0  0  2  0  0  0  0  0  0  0  0  0
   44.1675   10.8323   14.5313 O   0  0  0  0  0  0  0  0  0  0  0  0
   44.0770   13.2900   14.4277 C   0  0  2  0  0  0  0  0  0  0  0  0
   42.8054   13.2898   15.1608 O   0  0  0  0  0  0  0  0  0  0  0  0
   43.7982   13.2510   12.9134 C   0  0  1  0  0  0  0  0  0  0  0  0
   43.0377   14.4033   12.5309 O   0  0  0  0  0  0  0  0  0  0  0  0
   45.1466   13.2509   12.1765 C   0  0  2  0  0  0  0  0  0  0  0  0
   44.9128   13.2029   10.7525 O   0  0  0  0  0  0  0  0  0  0  0  0
   45.9516   11.9995   12.6237 C   0  0  2  0  0  0  0  0  0  0  0  0
   46.1715   12.0375   14.0671 O   0  0  0  0  0  0  0  0  0  0  0  0
   47.3182   12.0097   11.9149 C   0  0  0  0  0  0  0  0  0  0  0  0
   48.0399   13.2074   12.2271 O   0  0  0  0  0  0  0  0  0  0  0  0
  1  2  1  1  0  0  0
  1  3  1  0  0  0  0
  1  4  2  0  0  0  0
  1 16  1  0  0  0  0
  5  6  1  6  0  0  0
  5  7  1  0  0  0  0
  5 14  1  0  0  0  0
  7  8  1  1  0  0  0
  7  9  1  0  0  0  0
  9 10  1  6  0  0  0
  9 11  1  0  0  0  0
 11 12  1  6  0  0  0
 11 13  1  0  0  0  0
 13 14  1  0  0  0  0
 13 15  1  6  0  0  0
 15 16  1  0  0  0  0
M  CHG  1   3  -1
M  END
>  <CHROM.1>
58.48857782,-178.74128011,-179.76256993,46.48601447,12.86749688,12.57960200
-0.37284232,-0.21662822,2.16776898

>  <Name>
ligand

>  <RI>
0

>  <Rbt.Current_Directory>
/home/itssahil/PROJECTS/Mol_Feturizer/New_Systems/rnas/2HO7

>  <Rbt.Executable>
rbdock ($Id: //depot/dev/client3/rdock/2013.1/src/exe/rbdock.cxx#4 $)

>  <Rbt.Library>
libRbt.so (2013.1, Build901 2013/11/27)

>  <Rbt.Parameter_File>
/export/apps/rDock/src/rDock_2013.1_src/data/scripts/dock_solv.prm

>  <Rbt.Receptor>
prm/pocket_docking_5.prm

>  <SCORE>
-12.062

>  <SCORE.INTER>
-12.3688

>  <SCORE.INTER.CONST>
1

>  <SCORE.INTER.POLAR>
-1.29904

>  <SCORE.INTER.ROT>
3

>  <SCORE.INTER.SOLV>
13.6657

>  <SCORE.INTER.VDW>
-14.071

>  <SCORE.INTER.norm>
-0.773051

>  <SCORE.INTRA>
0.306774

>  <SCORE.INTRA.DIHEDRAL>
0.00749202

>  <SCORE.INTRA.DIHEDRAL.0>
0.00893466

>  <SCORE.INTRA.POLAR>
0

>  <SCORE.INTRA.POLAR.0>
0

>  <SCORE.INTRA.REPUL>
0

>  <SCORE.INTRA.REPUL.0>
0

>  <SCORE.INTRA.SOLV>
0.941664

>  <SCORE.INTRA.SOLV.lig_0>
-48.9722

>  <SCORE.INTRA.VDW>
-0.167804

>  <SCORE.INTRA.VDW.0>
-0.529409

>  <SCORE.INTRA.norm>
0.0191734

>  <SCORE.RESTR>
0

>  <SCORE.RESTR.CAVITY>
0

>  <SCORE.RESTR.norm>
0

>  <SCORE.SYSTEM>
0

>  <SCORE.SYSTEM.CONST>
0

>  <SCORE.SYSTEM.DIHEDRAL>
0

>  <SCORE.SYSTEM.SOLV>
0

>  <SCORE.SYSTEM.norm>
0

>  <SCORE.heavy>
16

>  <SCORE.norm>
-0.753877

>  <RMSD>
1.079

$$$$
ligand
 OpenBabel11021811433D
libRbt.so/2013.1/901 2013/11/27
 16 16  0  0  0  0  0  0  0  0999 V2000
   49.4464   13.1558   11.4153 P   0  0  2  0  0  0  0  0  0  0  0  0
   50.2275   14.3824   11.7110 O   0  0  0  0  0  0  0  0  0  0  0  0
   50.2702   11.8670   11.9156 O   0  5  0  0  0  0  0  0  0  0  0  0
   49.2172   13.0570    9.8243 O   0  0  0  0  0  0  0  0  0  0  0  0
   44.9137   12.0303   14.8196 C   0  0  2  0  0  0  0  0  0  0  0  0
   44.1792   10.8210   14.5579 O   0  0  0  0  0  0  0  0  0  0  0  0
   44.0787   13.2772   14.4310 C   0  0  2  0  0  0  0  0  0  0  0  0
   42.8100   13.2792   15.1690 O   0  0  0  0  0  0  0  0  0  0  0  0
   43.7942   13.2225   12.9182 C   0  0  1  0  0  0  0  0  0  0  0  0
   43.0277   14.3681   12.5277 O   0  0  0  0  0  0  0  0  0  0  0  0
   45.1397   13.2205   12.1761 C   0  0  2  0  0  0  0  0  0  0  0  0
   44.9006   13.1579   10.7535 O   0  0  0  0  0  0  0  0  0  0  0  0
   45.9514   11.9766   12.6322 C   0  0  2  0  0  0  0  0  0  0  0  0
   46.1766   12.0294   14.0743 O   0  0  0  0  0  0  0  0  0  0  0  0
   47.3151   11.9852   11.9180 C   0  0  0  0  0  0  0  0  0  0  0  0
   48.0176   13.2050   12.1859 O   0  0  0  0  0  0  0  0  0  0  0  0
  1  2  1  1  0  0  0
  1  3  1  0  0  0  0
  1  4  2  0  0  0  0
  1 16  1  0  0  0  0
  5  6  1  6  0  0  0
  5  7  1  0  0  0  0
  5 14  1  0  0  0  0
  7  8  1  1  0  0  0
  7  9  1  0  0  0  0
  9 10  1  6  0  0  0
  9 11  1  0  0  0  0
 11 12  1  6  0  0  0
 11 13  1  0  0  0  0
 13 14  1  0  0  0  0
 13 15  1  6  0  0  0
 15 16  1  0  0  0  0
M  CHG  1   3  -1
M  END
>  <CHROM.1>
56.88268100,179.75593323,-177.84159856,46.48295041,12.84529417,12.57883694
-0.37757509,-0.21540651,2.15665883

>  <Name>
ligand

>  <RI>
0

>  <Rbt.Current_Directory>
/home/itssahil/PROJECTS/Mol_Feturizer/New_Systems/rnas/2HO7

>  <Rbt.Executable>
rbdock ($Id: //depot/dev/client3/rdock/2013.1/src/exe/rbdock.cxx#4 $)

>  <Rbt.Library>
libRbt.so (2013.1, Build901 2013/11/27)

>  <Rbt.Parameter_File>
/export/apps/rDock/src/rDock_2013.1_src/data/scripts/dock_solv.prm

>  <Rbt.Receptor>
prm/pocket_docking_3.prm

>  <SCORE>
-12.067

>  <SCORE.INTER>
-12.3981

>  <SCORE.INTER.CONST>
1

>  <SCORE.INTER.POLAR>
-1.29893

>  <SCORE.INTER.ROT>
3

>  <SCORE.INTER.SOLV>
13.7725

>  <SCORE.INTER.VDW>
-14.1265

>  <SCORE.INTER.norm>
-0.774879

>  <SCORE.INTRA>
0.331077

>  <SCORE.INTRA.DIHEDRAL>
0.0343115

>  <SCORE.INTRA.DIHEDRAL.0>
0.00893466

>  <SCORE.INTRA.POLAR>
0

>  <SCORE.INTRA.POLAR.0>
0

>  <SCORE.INTRA.REPUL>
0

>  <SCORE.INTRA.REPUL.0>
0

>  <SCORE.INTRA.SOLV>
0.912219

>  <SCORE.INTRA.SOLV.lig_0>
-48.9722

>  <SCORE.INTRA.VDW>
-0.142188

>  <SCORE.INTRA.VDW.0>
-0.529409

>  <SCORE.INTRA.norm>
0.0206923

>  <SCORE.RESTR>
0

>  <SCORE.RESTR.CAVITY>
0

>  <SCORE.RESTR.norm>
0

>  <SCORE.SYSTEM>
0

>  <SCORE.SYSTEM.CONST>
0

>  <SCORE.SYSTEM.DIHEDRAL>
0

>  <SCORE.SYSTEM.SOLV>
0

>  <SCORE.SYSTEM.norm>
0

>  <SCORE.heavy>
16

>  <SCORE.norm>
-0.754186

>  <RMSD>
1.080

$$$$
ligand
 OpenBabel11021811433D
libRbt.so/2013.1/901 2013/11/27
 16 16  0  0  0  0  0  0  0  0999 V2000
   49.4707   13.1405   11.4569 P   0  0  2  0  0  0  0  0  0  0  0  0
   50.2502   14.3683   11.7521 O   0  0  0  0  0  0  0  0  0  0  0  0
   50.2986   11.8527   11.9526 O   0  5  0  0  0  0  0  0  0  0  0  0
   49.2368   13.0439    9.8664 O   0  0  0  0  0  0  0  0  0  0  0  0
   44.8934   12.0149   14.7982 C   0  0  2  0  0  0  0  0  0  0  0  0
   44.1456   10.8201   14.5084 O   0  0  0  0  0  0  0  0  0  0  0  0
   44.0776   13.2793   14.4259 C   0  0  2  0  0  0  0  0  0  0  0  0
   42.8030   13.2842   15.1536 O   0  0  0  0  0  0  0  0  0  0  0  0
   43.8048   13.2559   12.9102 C   0  0  1  0  0  0  0  0  0  0  0  0
   43.0563   14.4183   12.5346 O   0  0  0  0  0  0  0  0  0  0  0  0
   45.1563   13.2501   12.1789 C   0  0  2  0  0  0  0  0  0  0  0  0
   44.9281   13.2166   10.7535 O   0  0  0  0  0  0  0  0  0  0  0  0
   45.9481   11.9877   12.6184 C   0  0  2  0  0  0  0  0  0  0  0  0
   46.1623   12.0112   14.0630 O   0  0  0  0  0  0  0  0  0  0  0  0
   47.3177   11.9917   11.9154 C   0  0  0  0  0  0  0  0  0  0  0  0
   48.0441   13.1856   12.2318 O   0  0  0  0  0  0  0  0  0  0  0  0
  1  2  1  1  0  0  0
  1  3  1  0  0  0  0
  1  4  2  0  0  0  0
  1 16  1  0  0  0  0
  5  6  1  6  0  0  0
  5  7  1  0  0  0  0
  5 14  1  0  0  0  0
  7  8  1  1  0  0  0
  7  9  1  0  0  0  0
  9 10  1  6  0  0  0
  9 11  1  0  0  0  0
 11 12  1  6  0  0  0
 11 13  1  0  0  0  0
 13 14  1  0  0  0  0
 13 15  1  6  0  0  0
 15 16  1  0  0  0  0
M  CHG  1   3  -1
M  END
>  <CHROM.1>
57.98788510,-179.58255918,179.57585391,46.49236067,12.84904978,12.58753073
-0.36220990,-0.22075194,2.17671049

>  <Name>
ligand

>  <RI>
0

>  <Rbt.Current_Directory>
/home/itssahil/PROJECTS/Mol_Feturizer/New_Systems/rnas/2HO7

>  <Rbt.Executable>
rbdock ($Id: //depot/dev/client3/rdock/2013.1/src/exe/rbdock.cxx#4 $)

>  <Rbt.Library>
libRbt.so (2013.1, Build901 2013/11/27)

>  <Rbt.Parameter_File>
/export/apps/rDock/src/rDock_2013.1_src/data/scripts/dock_solv.prm

>  <Rbt.Receptor>
prm/pocket_docking_3.prm

>  <SCORE>
-12.0701

>  <SCORE.INTER>
-12.3719

>  <SCORE.INTER.CONST>
1

>  <SCORE.INTER.POLAR>
-1.29844

>  <SCORE.INTER.ROT>
3

>  <SCORE.INTER.SOLV>
13.7872

>  <SCORE.INTER.VDW>
-14.1156

>  <SCORE.INTER.norm>
-0.773245

>  <SCORE.INTRA>
0.301774

>  <SCORE.INTRA.DIHEDRAL>
0.00721569

>  <SCORE.INTRA.DIHEDRAL.0>
0.00893466

>  <SCORE.INTRA.POLAR>
0

>  <SCORE.INTRA.POLAR.0>
0

>  <SCORE.INTRA.REPUL>
0

>  <SCORE.INTRA.REPUL.0>
0

>  <SCORE.INTRA.SOLV>
0.920965

>  <SCORE.INTRA.SOLV.lig_0>
-48.9722

>  <SCORE.INTRA.VDW>
-0.162317

>  <SCORE.INTRA.VDW.0>
-0.529409

>  <SCORE.INTRA.norm>
0.0188609

>  <SCORE.RESTR>
0

>  <SCORE.RESTR.CAVITY>
0

>  <SCORE.RESTR.norm>
0

>  <SCORE.SYSTEM>
0

>  <SCORE.SYSTEM.CONST>
0

>  <SCORE.SYSTEM.DIHEDRAL>
0

>  <SCORE.SYSTEM.SOLV>
0

>  <SCORE.SYSTEM.norm>
0

>  <SCORE.heavy>
16

>  <SCORE.norm>
-0.754384

>  <RMSD>
1.080

$$$$
ligand
 OpenBabel11021811433D
libRbt.so/2013.1/901 2013/11/27
 16 16  0  0  0  0  0  0  0  0999 V2000
   49.4647   13.1306   11.4555 P   0  0  2  0  0  0  0  0  0  0  0  0
   50.2376   14.3669   11.7321 O   0  0  0  0  0  0  0  0  0  0  0  0
   50.3077   11.8536   11.9537 O   0  5  0  0  0  0  0  0  0  0  0  0
   49.2154   13.0183    9.8684 O   0  0  0  0  0  0  0  0  0  0  0  0
   44.8851   12.0167   14.8009 C   0  0  2  0  0  0  0  0  0  0  0  0
   44.1333   10.8245   14.5107 O   0  0  0  0  0  0  0  0  0  0  0  0
   44.0740   13.2840   14.4278 C   0  0  2  0  0  0  0  0  0  0  0  0
   42.7989   13.2934   15.1545 O   0  0  0  0  0  0  0  0  0  0  0  0
   43.8023   13.2613   12.9119 C   0  0  1  0  0  0  0  0  0  0  0  0
   43.0582   14.4263   12.5356 O   0  0  0  0  0  0  0  0  0  0  0  0
   45.1543   13.2507   12.1816 C   0  0  2  0  0  0  0  0  0  0  0  0
   44.9271   13.2178   10.7561 O   0  0  0  0  0  0  0  0  0  0  0  0
   45.9414   11.9855   12.6220 C   0  0  2  0  0  0  0  0  0  0  0  0
   46.1545   12.0085   14.0667 O   0  0  0  0  0  0  0  0  0  0  0  0
   47.3116   11.9846   11.9201 C   0  0  0  0  0  0  0  0  0  0  0  0
   48.0459   13.1714   12.2447 O   0  0  0  0  0  0  0  0  0  0  0  0
  1  2  1  1  0  0  0
  1  3  1  0  0  0  0
  1  4  2  0  0  0  0
  1 16  1  0  0  0  0
  5  6  1  6  0  0  0
  5  7  1  0  0  0  0
  5 14  1  0  0  0  0
  7  8  1  1  0  0  0
  7  9  1  0  0  0  0
  9 10  1  6  0  0  0
  9 11  1  0  0  0  0
 11 12  1  6  0  0  0
 11 13  1  0  0  0  0
 13 14  1  0  0  0  0
 13 15  1  6  0  0  0
 15 16  1  0  0  0  0
M  CHG  1   3  -1
M  END
>  <CHROM.1>
58.41087096,-178.86412543,178.17063856,46.48720812,12.84670729,12.58867759
-0.36115087,-0.22360322,2.17768390

>  <Name>
ligand

>  <RI>
0

>  <Rbt.Current_Directory>
/home/itssahil/PROJECTS/Mol_Feturizer/New_Systems/rnas/2HO7

>  <Rbt.Executable>
rbdock ($Id: //depot/dev/client3/rdock/2013.1/src/exe/rbdock.cxx#4 $)

>  <Rbt.Library>
libRbt.so (2013.1, Build901 2013/11/27)

>  <Rbt.Parameter_File>
/export/apps/rDock/src/rDock_2013.1_src/data/scripts/dock_solv.prm

>  <Rbt.Receptor>
prm/pocket_docking_4.prm

>  <SCORE>
-12.0586

>  <SCORE.INTER>
-12.3649

>  <SCORE.INTER.CONST>
1

>  <SCORE.INTER.POLAR>
-1.29904

>  <SCORE.INTER.ROT>
3

>  <SCORE.INTER.SOLV>
13.7994

>  <SCORE.INTER.VDW>
-14.113

>  <SCORE.INTER.norm>
-0.772807

>  <SCORE.INTRA>
0.306346

>  <SCORE.INTRA.DIHEDRAL>
0.0125161

>  <SCORE.INTRA.DIHEDRAL.0>
0.00893466

>  <SCORE.INTRA.POLAR>
0

>  <SCORE.INTRA.POLAR.0>
0

>  <SCORE.INTRA.REPUL>
0

>  <SCORE.INTRA.REPUL.0>
0

>  <SCORE.INTRA.SOLV>
0.936815

>  <SCORE.INTRA.SOLV.lig_0>
-48.9722

>  <SCORE.INTRA.VDW>
-0.168319

>  <SCORE.INTRA.VDW.0>
-0.529409

>  <SCORE.INTRA.norm>
0.0191466

>  <SCORE.RESTR>
0

>  <SCORE.RESTR.CAVITY>
0

>  <SCORE.RESTR.norm>
0

>  <SCORE.SYSTEM>
0

>  <SCORE.SYSTEM.CONST>
0

>  <SCORE.SYSTEM.DIHEDRAL>
0

>  <SCORE.SYSTEM.SOLV>
0

>  <SCORE.SYSTEM.norm>
0

>  <SCORE.heavy>
16

>  <SCORE.norm>
-0.753661

>  <RMSD>
1.084

$$$$
ligand
 OpenBabel11021811433D
libRbt.so/2013.1/901 2013/11/27
 16 16  0  0  0  0  0  0  0  0999 V2000
   49.4542   13.0380   11.3984 P   0  0  2  0  0  0  0  0  0  0  0  0
   49.7696   14.3589   11.9967 O   0  0  0  0  0  0  0  0  0  0  0  0
   50.6299   11.9984   11.7545 O   0  5  0  0  0  0  0  0  0  0  0  0
   49.3547   13.2027    9.7995 O   0  0  0  0  0  0  0  0  0  0  0  0
   44.7026   12.3726   14.4513 C   0  0  2  0  0  0  0  0  0  0  0  0
   44.1808   11.1481   13.9047 O   0  0  0  0  0  0  0  0  0  0  0  0
   43.6580   13.5130   14.3443 C   0  0  2  0  0  0  0  0  0  0  0  0
   42.4240   13.1274   15.0389 O   0  0  0  0  0  0  0  0  0  0  0  0
   43.3547   13.7593   12.8544 C   0  0  1  0  0  0  0  0  0  0  0  0
   42.3950   14.8148   12.7234 O   0  0  0  0  0  0  0  0  0  0  0  0
   44.6644   14.1590   12.1572 C   0  0  2  0  0  0  0  0  0  0  0  0
   44.4091   14.3848   10.7541 O   0  0  0  0  0  0  0  0  0  0  0  0
   45.6869   13.0020   12.3301 C   0  0  2  0  0  0  0  0  0  0  0  0
   45.9307   12.7599   13.7496 O   0  0  0  0  0  0  0  0  0  0  0  0
   47.0133   13.4086   11.6628 C   0  0  0  0  0  0  0  0  0  0  0  0
   48.0508   12.4770   11.9929 O   0  0  0  0  0  0  0  0  0  0  0  0
  1  2  1  1  0  0  0
  1  3  1  0  0  0  0
  1  4  2  0  0  0  0
  1 16  1  0  0  0  0
  5  6  1  6  0  0  0
  5  7  1  0  0  0  0
  5 14  1  0  0  0  0
  7  8  1  1  0  0  0
  7  9  1  0  0  0  0
  9 10  1  1  0  0  0
  9 11  1  0  0  0  0
 11 12  1  6  0  0  0
 11 13  1  0  0  0  0
 13 14  1  0  0  0  0
 13 15  1  6  0  0  0
 15 16  1  0  0  0  0
M  CHG  1   3  -1
M  END
>  <CHROM.1>
170.08984148,-173.99606087,60.34199743,46.26854139,13.19980411,12.45638490
-0.24358400,-0.27126505,2.23649521

>  <Name>
ligand

>  <RI>
0

>  <Rbt.Current_Directory>
/home/itssahil/PROJECTS/Mol_Feturizer/New_Systems/rnas/2HO7

>  <Rbt.Executable>
rbdock ($Id: //depot/dev/client3/rdock/2013.1/src/exe/rbdock.cxx#4 $)

>  <Rbt.Library>
libRbt.so (2013.1, Build901 2013/11/27)

>  <Rbt.Parameter_File>
/export/apps/rDock/src/rDock_2013.1_src/data/scripts/dock_solv.prm

>  <Rbt.Receptor>
prm/pocket_docking_5.prm

>  <SCORE>
-11.1474

>  <SCORE.INTER>
-11.4327

>  <SCORE.INTER.CONST>
1

>  <SCORE.INTER.POLAR>
-1.2981

>  <SCORE.INTER.ROT>
3

>  <SCORE.INTER.SOLV>
12.7967

>  <SCORE.INTER.VDW>
-13.1604

>  <SCORE.INTER.norm>
-0.714546

>  <SCORE.INTRA>
0.28537

>  <SCORE.INTRA.DIHEDRAL>
0.51607

>  <SCORE.INTRA.DIHEDRAL.0>
0.00893466

>  <SCORE.INTRA.POLAR>
0

>  <SCORE.INTRA.POLAR.0>
0

>  <SCORE.INTRA.REPUL>
0

>  <SCORE.INTRA.REPUL.0>
0

>  <SCORE.INTRA.SOLV>
0.0324858

>  <SCORE.INTRA.SOLV.lig_0>
-48.9722

>  <SCORE.INTRA.VDW>
0.0110926

>  <SCORE.INTRA.VDW.0>
-0.529409

>  <SCORE.INTRA.norm>
0.0178356

>  <SCORE.RESTR>
0

>  <SCORE.RESTR.CAVITY>
0

>  <SCORE.RESTR.norm>
0

>  <SCORE.SYSTEM>
0

>  <SCORE.SYSTEM.CONST>
0

>  <SCORE.SYSTEM.DIHEDRAL>
0

>  <SCORE.SYSTEM.SOLV>
0

>  <SCORE.SYSTEM.norm>
0

>  <SCORE.heavy>
16

>  <SCORE.norm>
-0.69671

>  <RMSD>
1.084

$$$$
ligand
 OpenBabel11021811433D
libRbt.so/2013.1/901 2013/11/27
 16 16  0  0  0  0  0  0  0  0999 V2000
   49.4566   13.1420   11.4305 P   0  0  2  0  0  0  0  0  0  0  0  0
   50.2355   14.3734   11.7121 O   0  0  0  0  0  0  0  0  0  0  0  0
   50.2877   11.8598   11.9355 O   0  5  0  0  0  0  0  0  0  0  0  0
   49.2179   13.0304    9.8418 O   0  0  0  0  0  0  0  0  0  0  0  0
   44.9123   12.0298   14.8124 C   0  0  2  0  0  0  0  0  0  0  0  0
   44.1673   10.8292   14.5400 O   0  0  0  0  0  0  0  0  0  0  0  0
   44.0862   13.2874   14.4396 C   0  0  2  0  0  0  0  0  0  0  0  0
   42.8197   13.2916   15.1812 O   0  0  0  0  0  0  0  0  0  0  0  0
   43.7969   13.2511   12.9271 C   0  0  1  0  0  0  0  0  0  0  0  0
   43.0386   14.4069   12.5510 O   0  0  0  0  0  0  0  0  0  0  0  0
   45.1403   13.2463   12.1811 C   0  0  2  0  0  0  0  0  0  0  0  0
   44.8967   13.2008   10.7586 O   0  0  0  0  0  0  0  0  0  0  0  0
   45.9432   11.9911   12.6215 C   0  0  2  0  0  0  0  0  0  0  0  0
   46.1731   12.0267   14.0634 O   0  0  0  0  0  0  0  0  0  0  0  0
   47.3050   11.9965   11.9035 C   0  0  0  0  0  0  0  0  0  0  0  0
   48.0324   13.1924   12.2095 O   0  0  0  0  0  0  0  0  0  0  0  0
  1  2  1  1  0  0  0
  1  3  1  0  0  0  0
  1  4  2  0  0  0  0
  1 16  1  0  0  0  0
  5  6  1  6  0  0  0
  5  7  1  0  0  0  0
  5 14  1  0  0  0  0
  7  8  1  1  0  0  0
  7  9  1  0  0  0  0
  9 10  1  6  0  0  0
  9 11  1  0  0  0  0
 11 12  1  6  0  0  0
 11 13  1  0  0  0  0
 13 14  1  0  0  0  0
 13 15  1  6  0  0  0
 15 16  1  0  0  0  0
M  CHG  1   3  -1
M  END
>  <CHROM.1>
58.34955409,179.86984719,179.42441276,46.48635781,12.85103561,12.58478457
-0.37057377,-0.22142995,2.16432083

>  <Name>
ligand

>  <RI>
0

>  <Rbt.Current_Directory>
/home/itssahil/PROJECTS/Mol_Feturizer/New_Systems/rnas/2HO7

>  <Rbt.Executable>
rbdock ($Id: //depot/dev/client3/rdock/2013.1/src/exe/rbdock.cxx#4 $)

>  <Rbt.Library>
libRbt.so (2013.1, Build901 2013/11/27)

>  <Rbt.Parameter_File>
/export/apps/rDock/src/rDock_2013.1_src/data/scripts/dock_solv.prm

>  <Rbt.Receptor>
prm/pocket_docking_3.prm

>  <SCORE>
-12.0753

>  <SCORE.INTER>
-12.3667

>  <SCORE.INTER.CONST>
1

>  <SCORE.INTER.POLAR>
-1.29904

>  <SCORE.INTER.ROT>
3

>  <SCORE.INTER.SOLV>
13.811

>  <SCORE.INTER.VDW>
-14.1181

>  <SCORE.INTER.norm>
-0.772922

>  <SCORE.INTRA>
0.291461

>  <SCORE.INTRA.DIHEDRAL>
0.00188692

>  <SCORE.INTRA.DIHEDRAL.0>
0.00893466

>  <SCORE.INTRA.POLAR>
0

>  <SCORE.INTRA.POLAR.0>
0

>  <SCORE.INTRA.REPUL>
0

>  <SCORE.INTRA.REPUL.0>
0

>  <SCORE.INTRA.SOLV>
0.909394

>  <SCORE.INTRA.SOLV.lig_0>
-48.9722

>  <SCORE.INTRA.VDW>
-0.164179

>  <SCORE.INTRA.VDW.0>
-0.529409

>  <SCORE.INTRA.norm>
0.0182163

>  <SCORE.RESTR>
0

>  <SCORE.RESTR.CAVITY>
0

>  <SCORE.RESTR.norm>
0

>  <SCORE.SYSTEM>
0

>  <SCORE.SYSTEM.CONST>
0

>  <SCORE.SYSTEM.DIHEDRAL>
0

>  <SCORE.SYSTEM.SOLV>
0

>  <SCORE.SYSTEM.norm>
0

>  <SCORE.heavy>
16

>  <SCORE.norm>
-0.754705

>  <RMSD>
1.086

$$$$
ligand
 OpenBabel11021811433D
libRbt.so/2013.1/901 2013/11/27
 16 16  0  0  0  0  0  0  0  0999 V2000
   49.4857   13.1018   11.4910 P   0  0  2  0  0  0  0  0  0  0  0  0
   50.2720   14.3239   11.7918 O   0  0  0  0  0  0  0  0  0  0  0  0
   50.2873   11.8101   12.0189 O   0  5  0  0  0  0  0  0  0  0  0  0
   49.2878   12.9911    9.8966 O   0  0  0  0  0  0  0  0  0  0  0  0
   44.8726   11.9843   14.7774 C   0  0  2  0  0  0  0  0  0  0  0  0
   44.1067   10.8086   14.4587 O   0  0  0  0  0  0  0  0  0  0  0  0
   44.0784   13.2698   14.4315 C   0  0  2  0  0  0  0  0  0  0  0  0
   42.8018   13.2788   15.1556 O   0  0  0  0  0  0  0  0  0  0  0  0
   43.8101   13.2849   12.9148 C   0  0  1  0  0  0  0  0  0  0  0  0
   43.0814   14.4674   12.5635 O   0  0  0  0  0  0  0  0  0  0  0  0
   45.1636   13.2738   12.1874 C   0  0  2  0  0  0  0  0  0  0  0  0
   44.9394   13.2761   10.7610 O   0  0  0  0  0  0  0  0  0  0  0  0
   45.9337   11.9892   12.6006 C   0  0  2  0  0  0  0  0  0  0  0  0
   46.1436   11.9768   14.0459 O   0  0  0  0  0  0  0  0  0  0  0  0
   47.3054   11.9870   11.9017 C   0  0  0  0  0  0  0  0  0  0  0  0
   48.0422   13.1707   12.2320 O   0  0  0  0  0  0  0  0  0  0  0  0
  1  2  1  1  0  0  0
  1  3  1  0  0  0  0
  1  4  2  0  0  0  0
  1 16  1  0  0  0  0
  5  6  1  6  0  0  0
  5  7  1  0  0  0  0
  5 14  1  0  0  0  0
  7  8  1  1  0  0  0
  7  9  1  0  0  0  0
  9 10  1  1  0  0  0
  9 11  1  0  0  0  0
 11 12  1  6  0  0  0
 11 13  1  0  0  0  0
 13 14  1  0  0  0  0
 13 15  1  6  0  0  0
 15 16  1  0  0  0  0
M  CHG  1   3  -1
M  END
>  <CHROM.1>
57.17184730,178.99725333,179.09097965,46.49475522,12.83865144,12.59670303
-0.34689213,-0.23055212,2.19940402

>  <Name>
ligand

>  <RI>
0

>  <Rbt.Current_Directory>
/home/itssahil/PROJECTS/Mol_Feturizer/New_Systems/rnas/2HO7

>  <Rbt.Executable>
rbdock ($Id: //depot/dev/client3/rdock/2013.1/src/exe/rbdock.cxx#4 $)

>  <Rbt.Library>
libRbt.so (2013.1, Build901 2013/11/27)

>  <Rbt.Parameter_File>
/export/apps/rDock/src/rDock_2013.1_src/data/scripts/dock_solv.prm

>  <Rbt.Receptor>
prm/pocket_docking_4.prm

>  <SCORE>
-12.0391

>  <SCORE.INTER>
-12.3562

>  <SCORE.INTER.CONST>
1

>  <SCORE.INTER.POLAR>
-1.29904

>  <SCORE.INTER.ROT>
3

>  <SCORE.INTER.SOLV>
13.9158

>  <SCORE.INTER.VDW>
-14.1459

>  <SCORE.INTER.norm>
-0.772261

>  <SCORE.INTRA>
0.317065

>  <SCORE.INTRA.DIHEDRAL>
0.0267441

>  <SCORE.INTRA.DIHEDRAL.0>
0.00893466

>  <SCORE.INTRA.POLAR>
0

>  <SCORE.INTRA.POLAR.0>
0

>  <SCORE.INTRA.REPUL>
0

>  <SCORE.INTRA.REPUL.0>
0

>  <SCORE.INTRA.SOLV>
0.910564

>  <SCORE.INTRA.SOLV.lig_0>
-48.9722

>  <SCORE.INTRA.VDW>
-0.151589

>  <SCORE.INTRA.VDW.0>
-0.529409

>  <SCORE.INTRA.norm>
0.0198166

>  <SCORE.RESTR>
0

>  <SCORE.RESTR.CAVITY>
0

>  <SCORE.RESTR.norm>
0

>  <SCORE.SYSTEM>
0

>  <SCORE.SYSTEM.CONST>
0

>  <SCORE.SYSTEM.DIHEDRAL>
0

>  <SCORE.SYSTEM.SOLV>
0

>  <SCORE.SYSTEM.norm>
0

>  <SCORE.heavy>
16

>  <SCORE.norm>
-0.752444

>  <RMSD>
1.086

$$$$
ligand
 OpenBabel11021811433D
libRbt.so/2013.1/901 2013/11/27
 16 16  0  0  0  0  0  0  0  0999 V2000
   49.4356   13.1840   11.3915 P   0  0  2  0  0  0  0  0  0  0  0  0
   50.2094   14.4188   11.6721 O   0  0  0  0  0  0  0  0  0  0  0  0
   50.2908   11.9029   11.8574 O   0  5  0  0  0  0  0  0  0  0  0  0
   49.1596   13.0930    9.8074 O   0  0  0  0  0  0  0  0  0  0  0  0
   44.8931   12.0226   14.8007 C   0  0  2  0  0  0  0  0  0  0  0  0
   44.1430   10.8298   14.5087 O   0  0  0  0  0  0  0  0  0  0  0  0
   44.0799   13.2893   14.4304 C   0  0  2  0  0  0  0  0  0  0  0  0
   42.8052   13.2955   15.1579 O   0  0  0  0  0  0  0  0  0  0  0  0
   43.8073   13.2691   12.9146 C   0  0  1  0  0  0  0  0  0  0  0  0
   43.0612   14.4336   12.5409 O   0  0  0  0  0  0  0  0  0  0  0  0
   45.1589   13.2618   12.1835 C   0  0  2  0  0  0  0  0  0  0  0  0
   44.9309   13.2312   10.7581 O   0  0  0  0  0  0  0  0  0  0  0  0
   45.9482   11.9970   12.6211 C   0  0  2  0  0  0  0  0  0  0  0  0
   46.1621   12.0177   14.0657 O   0  0  0  0  0  0  0  0  0  0  0  0
   47.3179   11.9995   11.9183 C   0  0  0  0  0  0  0  0  0  0  0  0
   48.0303   13.2092   12.2051 O   0  0  0  0  0  0  0  0  0  0  0  0
  1  2  1  1  0  0  0
  1  3  1  0  0  0  0
  1  4  2  0  0  0  0
  1 16  1  0  0  0  0
  5  6  1  6  0  0  0
  5  7  1  0  0  0  0
  5 14  1  0  0  0  0
  7  8  1  1  0  0  0
  7  9  1  0  0  0  0
  9 10  1  6  0  0  0
  9 11  1  0  0  0  0
 11 12  1  6  0  0  0
 11 13  1  0  0  0  0
 13 14  1  0  0  0  0
 13 15  1  6  0  0  0
 15 16  1  0  0  0  0
M  CHG  1   3  -1
M  END
>  <CHROM.1>
56.28137640,-177.68495595,-179.53805417,46.48012766,12.87197081,12.56539504
-0.37558900,-0.22835169,2.18674780

>  <Name>
ligand

>  <RI>
0

>  <Rbt.Current_Directory>
/home/itssahil/PROJECTS/Mol_Feturizer/New_Systems/rnas/2HO7

>  <Rbt.Executable>
rbdock ($Id: //depot/dev/client3/rdock/2013.1/src/exe/rbdock.cxx#4 $)

>  <Rbt.Library>
libRbt.so (2013.1, Build901 2013/11/27)

>  <Rbt.Parameter_File>
/export/apps/rDock/src/rDock_2013.1_src/data/scripts/dock_solv.prm

>  <Rbt.Receptor>
prm/pocket_docking_7.prm

>  <SCORE>
-12.0287

>  <SCORE.INTER>
-12.4001

>  <SCORE.INTER.CONST>
1

>  <SCORE.INTER.POLAR>
-1.2987

>  <SCORE.INTER.ROT>
3

>  <SCORE.INTER.SOLV>
13.5685

>  <SCORE.INTER.VDW>
-14.0605

>  <SCORE.INTER.norm>
-0.775003

>  <SCORE.INTRA>
0.371387

>  <SCORE.INTRA.DIHEDRAL>
0.0681271

>  <SCORE.INTRA.DIHEDRAL.0>
0.00893466

>  <SCORE.INTRA.POLAR>
0

>  <SCORE.INTRA.POLAR.0>
0

>  <SCORE.INTRA.REPUL>
0

>  <SCORE.INTRA.REPUL.0>
0

>  <SCORE.INTRA.SOLV>
0.974057

>  <SCORE.INTRA.SOLV.lig_0>
-48.9722

>  <SCORE.INTRA.VDW>
-0.149705

>  <SCORE.INTRA.VDW.0>
-0.529409

>  <SCORE.INTRA.norm>
0.0232117

>  <SCORE.RESTR>
0

>  <SCORE.RESTR.CAVITY>
0

>  <SCORE.RESTR.norm>
0

>  <SCORE.SYSTEM>
0

>  <SCORE.SYSTEM.CONST>
0

>  <SCORE.SYSTEM.DIHEDRAL>
0

>  <SCORE.SYSTEM.SOLV>
0

>  <SCORE.SYSTEM.norm>
0

>  <SCORE.heavy>
16

>  <SCORE.norm>
-0.751792

>  <RMSD>
1.086

$$$$
ligand
 OpenBabel11021811433D
libRbt.so/2013.1/901 2013/11/27
 16 16  0  0  0  0  0  0  0  0999 V2000
   49.4627   13.1008   11.4629 P   0  0  2  0  0  0  0  0  0  0  0  0
   50.2490   14.3240   11.7588 O   0  0  0  0  0  0  0  0  0  0  0  0
   50.2595   11.8120   12.0050 O   0  5  0  0  0  0  0  0  0  0  0  0
   49.2733   12.9783    9.8683 O   0  0  0  0  0  0  0  0  0  0  0  0
   44.8767   11.9623   14.7833 C   0  0  2  0  0  0  0  0  0  0  0  0
   44.1060   10.7904   14.4617 O   0  0  0  0  0  0  0  0  0  0  0  0
   44.0824   13.2518   14.4527 C   0  0  2  0  0  0  0  0  0  0  0  0
   42.8113   13.2580   15.1864 O   0  0  0  0  0  0  0  0  0  0  0  0
   43.8028   13.2786   12.9383 C   0  0  1  0  0  0  0  0  0  0  0  0
   43.0739   14.4650   12.6011 O   0  0  0  0  0  0  0  0  0  0  0  0
   45.1508   13.2701   12.2006 C   0  0  2  0  0  0  0  0  0  0  0  0
   44.9159   13.2833   10.7760 O   0  0  0  0  0  0  0  0  0  0  0  0
   45.9214   11.9811   12.5986 C   0  0  2  0  0  0  0  0  0  0  0  0
   46.1421   11.9576   14.0422 O   0  0  0  0  0  0  0  0  0  0  0  0
   47.2878   11.9813   11.8894 C   0  0  0  0  0  0  0  0  0  0  0  0
   48.0152   13.1773   12.1953 O   0  0  0  0  0  0  0  0  0  0  0  0
  1  2  1  1  0  0  0
  1  3  1  0  0  0  0
  1  4  2  0  0  0  0
  1 16  1  0  0  0  0
  5  6  1  6  0  0  0
  5  7  1  0  0  0  0
  5 14  1  0  0  0  0
  7  8  1  1  0  0  0
  7  9  1  0  0  0  0
  9 10  1  1  0  0  0
  9 11  1  0  0  0  0
 11 12  1  6  0  0  0
 11 13  1  0  0  0  0
 13 14  1  0  0  0  0
 13 15  1  6  0  0  0
 15 16  1  0  0  0  0
M  CHG  1   3  -1
M  END
>  <CHROM.1>
55.67797047,178.15387997,-179.89120251,46.48242242,12.83161478,12.59394346
-0.35367117,-0.23705330,2.20646839

>  <Name>
ligand

>  <RI>
0

>  <Rbt.Current_Directory>
/home/itssahil/PROJECTS/Mol_Feturizer/New_Systems/rnas/2HO7

>  <Rbt.Executable>
rbdock ($Id: //depot/dev/client3/rdock/2013.1/src/exe/rbdock.cxx#4 $)

>  <Rbt.Library>
libRbt.so (2013.1, Build901 2013/11/27)

>  <Rbt.Parameter_File>
/export/apps/rDock/src/rDock_2013.1_src/data/scripts/dock_solv.prm

>  <Rbt.Receptor>
prm/pocket_docking_4.prm

>  <SCORE>
-12.0077

>  <SCORE.INTER>
-12.3691

>  <SCORE.INTER.CONST>
1

>  <SCORE.INTER.POLAR>
-1.29904

>  <SCORE.INTER.ROT>
3

>  <SCORE.INTER.SOLV>
13.9437

>  <SCORE.INTER.VDW>
-14.1638

>  <SCORE.INTER.norm>
-0.773068

>  <SCORE.INTRA>
0.361392

>  <SCORE.INTRA.DIHEDRAL>
0.0756932

>  <SCORE.INTRA.DIHEDRAL.0>
0.00893466

>  <SCORE.INTRA.POLAR>
0

>  <SCORE.INTRA.POLAR.0>
0

>  <SCORE.INTRA.REPUL>
0

>  <SCORE.INTRA.REPUL.0>
0

>  <SCORE.INTRA.SOLV>
0.912581

>  <SCORE.INTRA.SOLV.lig_0>
-48.9722

>  <SCORE.INTRA.VDW>
-0.132745

>  <SCORE.INTRA.VDW.0>
-0.529409

>  <SCORE.INTRA.norm>
0.022587

>  <SCORE.RESTR>
0

>  <SCORE.RESTR.CAVITY>
0

>  <SCORE.RESTR.norm>
0

>  <SCORE.SYSTEM>
0

>  <SCORE.SYSTEM.CONST>
0

>  <SCORE.SYSTEM.DIHEDRAL>
0

>  <SCORE.SYSTEM.SOLV>
0

>  <SCORE.SYSTEM.norm>
0

>  <SCORE.heavy>
16

>  <SCORE.norm>
-0.750481

>  <RMSD>
1.089

$$$$
ligand
 OpenBabel11021811433D
libRbt.so/2013.1/901 2013/11/27
 16 16  0  0  0  0  0  0  0  0999 V2000
   49.4713   13.1234   11.4475 P   0  0  2  0  0  0  0  0  0  0  0  0
   50.2458   14.3606   11.7151 O   0  0  0  0  0  0  0  0  0  0  0  0
   50.3095   11.8494   11.9616 O   0  5  0  0  0  0  0  0  0  0  0  0
   49.2280   12.9961    9.8606 O   0  0  0  0  0  0  0  0  0  0  0  0
   44.9131   12.0319   14.8118 C   0  0  2  0  0  0  0  0  0  0  0  0
   44.1641   10.8342   14.5376 O   0  0  0  0  0  0  0  0  0  0  0  0
   44.0919   13.2927   14.4389 C   0  0  2  0  0  0  0  0  0  0  0  0
   42.8246   13.3009   15.1791 O   0  0  0  0  0  0  0  0  0  0  0  0
   43.8042   13.2586   12.9261 C   0  0  1  0  0  0  0  0  0  0  0  0
   43.0504   14.4173   12.5500 O   0  0  0  0  0  0  0  0  0  0  0  0
   45.1484   13.2495   12.1816 C   0  0  2  0  0  0  0  0  0  0  0  0
   44.9063   13.2059   10.7588 O   0  0  0  0  0  0  0  0  0  0  0  0
   45.9464   11.9912   12.6220 C   0  0  2  0  0  0  0  0  0  0  0  0
   46.1747   12.0249   14.0642 O   0  0  0  0  0  0  0  0  0  0  0  0
   47.3090   11.9922   11.9055 C   0  0  0  0  0  0  0  0  0  0  0  0
   48.0494   13.1750   12.2306 O   0  0  0  0  0  0  0  0  0  0  0  0
  1  2  1  1  0  0  0
  1  3  1  0  0  0  0
  1  4  2  0  0  0  0
  1 16  1  0  0  0  0
  5  6  1  6  0  0  0
  5  7  1  0  0  0  0
  5 14  1  0  0  0  0
  7  8  1  1  0  0  0
  7  9  1  0  0  0  0
  9 10  1  6  0  0  0
  9 11  1  0  0  0  0
 11 12  1  6  0  0  0
 11 13  1  0  0  0  0
 13 14  1  0  0  0  0
 13 15  1  6  0  0  0
 15 16  1  0  0  0  0
M  CHG  1   3  -1
M  END
>  <CHROM.1>
59.29621105,-179.89722804,177.68037621,46.49493737,12.84653264,12.59095896
-0.36511026,-0.22266766,2.16387630

>  <Name>
ligand

>  <RI>
0

>  <Rbt.Current_Directory>
/home/itssahil/PROJECTS/Mol_Feturizer/New_Systems/rnas/2HO7

>  <Rbt.Executable>
rbdock ($Id: //depot/dev/client3/rdock/2013.1/src/exe/rbdock.cxx#4 $)

>  <Rbt.Library>
libRbt.so (2013.1, Build901 2013/11/27)

>  <Rbt.Parameter_File>
/export/apps/rDock/src/rDock_2013.1_src/data/scripts/dock_solv.prm

>  <Rbt.Receptor>
prm/pocket_docking_3.prm

>  <SCORE>
-12.0691

>  <SCORE.INTER>
-12.3524

>  <SCORE.INTER.CONST>
1

>  <SCORE.INTER.POLAR>
-1.29904

>  <SCORE.INTER.ROT>
3

>  <SCORE.INTER.SOLV>
13.8708

>  <SCORE.INTER.VDW>
-14.1284

>  <SCORE.INTER.norm>
-0.772027

>  <SCORE.INTRA>
0.283325

>  <SCORE.INTRA.DIHEDRAL>
0.0021742

>  <SCORE.INTRA.DIHEDRAL.0>
0.00893466

>  <SCORE.INTRA.POLAR>
0

>  <SCORE.INTRA.POLAR.0>
0

>  <SCORE.INTRA.REPUL>
0

>  <SCORE.INTRA.REPUL.0>
0

>  <SCORE.INTRA.SOLV>
0.90859

>  <SCORE.INTRA.SOLV.lig_0>
-48.9722

>  <SCORE.INTRA.VDW>
-0.172057

>  <SCORE.INTRA.VDW.0>
-0.529409

>  <SCORE.INTRA.norm>
0.0177078

>  <SCORE.RESTR>
0

>  <SCORE.RESTR.CAVITY>
0

>  <SCORE.RESTR.norm>
0

>  <SCORE.SYSTEM>
0

>  <SCORE.SYSTEM.CONST>
0

>  <SCORE.SYSTEM.DIHEDRAL>
0

>  <SCORE.SYSTEM.SOLV>
0

>  <SCORE.SYSTEM.norm>
0

>  <SCORE.heavy>
16

>  <SCORE.norm>
-0.754319

>  <RMSD>
1.090

$$$$
ligand
 OpenBabel11021811433D
libRbt.so/2013.1/901 2013/11/27
 16 16  0  0  0  0  0  0  0  0999 V2000
   49.4759   13.1201   11.4528 P   0  0  2  0  0  0  0  0  0  0  0  0
   50.2523   14.3555   11.7233 O   0  0  0  0  0  0  0  0  0  0  0  0
   50.3091   11.8442   11.9702 O   0  5  0  0  0  0  0  0  0  0  0  0
   49.2387   12.9932    9.8649 O   0  0  0  0  0  0  0  0  0  0  0  0
   44.9071   12.0365   14.8072 C   0  0  2  0  0  0  0  0  0  0  0  0
   44.1574   10.8395   14.5320 O   0  0  0  0  0  0  0  0  0  0  0  0
   44.0889   13.2980   14.4300 C   0  0  2  0  0  0  0  0  0  0  0  0
   42.8191   13.3089   15.1659 O   0  0  0  0  0  0  0  0  0  0  0  0
   43.8064   13.2624   12.9163 C   0  0  1  0  0  0  0  0  0  0  0  0
   43.0555   14.4218   12.5363 O   0  0  0  0  0  0  0  0  0  0  0  0
   45.1531   13.2505   12.1764 C   0  0  2  0  0  0  0  0  0  0  0  0
   44.9156   13.2056   10.7528 O   0  0  0  0  0  0  0  0  0  0  0  0
   45.9477   11.9916   12.6210 C   0  0  2  0  0  0  0  0  0  0  0  0
   46.1712   12.0268   14.0639 O   0  0  0  0  0  0  0  0  0  0  0  0
   47.3127   11.9898   11.9091 C   0  0  0  0  0  0  0  0  0  0  0  0
   48.0511   13.1751   12.2301 O   0  0  0  0  0  0  0  0  0  0  0  0
  1  2  1  1  0  0  0
  1  3  1  0  0  0  0
  1  4  2  0  0  0  0
  1 16  1  0  0  0  0
  5  6  1  6  0  0  0
  5  7  1  0  0  0  0
  5 14  1  0  0  0  0
  7  8  1  1  0  0  0
  7  9  1  0  0  0  0
  9 10  1  6  0  0  0
  9 11  1  0  0  0  0
 11 12  1  6  0  0  0
 11 13  1  0  0  0  0
 13 14  1  0  0  0  0
 13 15  1  6  0  0  0
 15 16  1  0  0  0  0
M  CHG  1   3  -1
M  END
>  <CHROM.1>
59.01702317,-179.92333052,178.05021339,46.49675059,12.84715240,12.58915813
-0.36233770,-0.22230423,2.16406883

>  <Name>
ligand

>  <RI>
0

>  <Rbt.Current_Directory>
/home/itssahil/PROJECTS/Mol_Feturizer/New_Systems/rnas/2HO7

>  <Rbt.Executable>
rbdock ($Id: //depot/dev/client3/rdock/2013.1/src/exe/rbdock.cxx#4 $)

>  <Rbt.Library>
libRbt.so (2013.1, Build901 2013/11/27)

>  <Rbt.Parameter_File>
/export/apps/rDock/src/rDock_2013.1_src/data/scripts/dock_solv.prm

>  <Rbt.Receptor>
prm/pocket_docking_3.prm

>  <SCORE>
-12.0832

>  <SCORE.INTER>
-12.3682

>  <SCORE.INTER.CONST>
1

>  <SCORE.INTER.POLAR>
-1.29904

>  <SCORE.INTER.ROT>
3

>  <SCORE.INTER.SOLV>
13.8614

>  <SCORE.INTER.VDW>
-14.1358

>  <SCORE.INTER.norm>
-0.773012

>  <SCORE.INTRA>
0.285021

>  <SCORE.INTRA.DIHEDRAL>
0.00125177

>  <SCORE.INTRA.DIHEDRAL.0>
0.00893466

>  <SCORE.INTRA.POLAR>
0

>  <SCORE.INTRA.POLAR.0>
0

>  <SCORE.INTRA.REPUL>
0

>  <SCORE.INTRA.REPUL.0>
0

>  <SCORE.INTRA.SOLV>
0.909322

>  <SCORE.INTRA.SOLV.lig_0>
-48.9722

>  <SCORE.INTRA.VDW>
-0.170266

>  <SCORE.INTRA.VDW.0>
-0.529409

>  <SCORE.INTRA.norm>
0.0178138

>  <SCORE.RESTR>
0

>  <SCORE.RESTR.CAVITY>
0

>  <SCORE.RESTR.norm>
0

>  <SCORE.SYSTEM>
0

>  <SCORE.SYSTEM.CONST>
0

>  <SCORE.SYSTEM.DIHEDRAL>
0

>  <SCORE.SYSTEM.SOLV>
0

>  <SCORE.SYSTEM.norm>
0

>  <SCORE.heavy>
16

>  <SCORE.norm>
-0.755198

>  <RMSD>
1.090

$$$$
ligand
 OpenBabel11021811433D
libRbt.so/2013.1/901 2013/11/27
 16 16  0  0  0  0  0  0  0  0999 V2000
   49.4495   13.1216   11.4039 P   0  0  2  0  0  0  0  0  0  0  0  0
   50.2253   14.3597   11.6634 O   0  0  0  0  0  0  0  0  0  0  0  0
   50.2769   11.8520   11.9455 O   0  5  0  0  0  0  0  0  0  0  0  0
   49.2245   12.9730    9.8162 O   0  0  0  0  0  0  0  0  0  0  0  0
   44.9105   12.0368   14.8031 C   0  0  2  0  0  0  0  0  0  0  0  0
   44.1607   10.8378   14.5370 O   0  0  0  0  0  0  0  0  0  0  0  0
   44.0880   13.2958   14.4270 C   0  0  2  0  0  0  0  0  0  0  0  0
   42.8231   13.3074   15.1715 O   0  0  0  0  0  0  0  0  0  0  0  0
   43.7952   13.2545   12.9154 C   0  0  1  0  0  0  0  0  0  0  0  0
   43.0401   14.4114   12.5364 O   0  0  0  0  0  0  0  0  0  0  0  0
   45.1369   13.2420   12.1664 C   0  0  2  0  0  0  0  0  0  0  0  0
   44.8899   13.1917   10.7447 O   0  0  0  0  0  0  0  0  0  0  0  0
   45.9364   11.9858   12.6100 C   0  0  2  0  0  0  0  0  0  0  0  0
   46.1696   12.0264   14.0513 O   0  0  0  0  0  0  0  0  0  0  0  0
   47.2966   11.9836   11.8889 C   0  0  0  0  0  0  0  0  0  0  0  0
   48.0186   13.1890   12.1693 O   0  0  0  0  0  0  0  0  0  0  0  0
  1  2  1  1  0  0  0
  1  3  1  0  0  0  0
  1  4  2  0  0  0  0
  1 16  1  0  0  0  0
  5  6  1  6  0  0  0
  5  7  1  0  0  0  0
  5 14  1  0  0  0  0
  7  8  1  1  0  0  0
  7  9  1  0  0  0  0
  9 10  1  6  0  0  0
  9 11  1  0  0  0  0
 11 12  1  6  0  0  0
 11 13  1  0  0  0  0
 13 14  1  0  0  0  0
 13 15  1  6  0  0  0
 15 16  1  0  0  0  0
M  CHG  1   3  -1
M  END
>  <CHROM.1>
57.30959146,179.14452758,179.63563002,46.48188636,12.84436715,12.56773399
-0.37108220,-0.22562110,2.16036794

>  <Name>
ligand

>  <RI>
0

>  <Rbt.Current_Directory>
/home/itssahil/PROJECTS/Mol_Feturizer/New_Systems/rnas/2HO7

>  <Rbt.Executable>
rbdock ($Id: //depot/dev/client3/rdock/2013.1/src/exe/rbdock.cxx#4 $)

>  <Rbt.Library>
libRbt.so (2013.1, Build901 2013/11/27)

>  <Rbt.Parameter_File>
/export/apps/rDock/src/rDock_2013.1_src/data/scripts/dock_solv.prm

>  <Rbt.Receptor>
prm/pocket_docking_4.prm

>  <SCORE>
-12.0743

>  <SCORE.INTER>
-12.3875

>  <SCORE.INTER.CONST>
1

>  <SCORE.INTER.POLAR>
-1.29801

>  <SCORE.INTER.ROT>
3

>  <SCORE.INTER.SOLV>
13.7786

>  <SCORE.INTER.VDW>
-14.1245

>  <SCORE.INTER.norm>
-0.774217

>  <SCORE.INTRA>
0.313203

>  <SCORE.INTRA.DIHEDRAL>
0.0214513

>  <SCORE.INTRA.DIHEDRAL.0>
0.00893466

>  <SCORE.INTRA.POLAR>
0

>  <SCORE.INTRA.POLAR.0>
0

>  <SCORE.INTRA.REPUL>
0

>  <SCORE.INTRA.REPUL.0>
0

>  <SCORE.INTRA.SOLV>
0.910446

>  <SCORE.INTRA.SOLV.lig_0>
-48.9722

>  <SCORE.INTRA.VDW>
-0.152746

>  <SCORE.INTRA.VDW.0>
-0.529409

>  <SCORE.INTRA.norm>
0.0195752

>  <SCORE.RESTR>
0

>  <SCORE.RESTR.CAVITY>
0

>  <SCORE.RESTR.norm>
0

>  <SCORE.SYSTEM>
0

>  <SCORE.SYSTEM.CONST>
0

>  <SCORE.SYSTEM.DIHEDRAL>
0

>  <SCORE.SYSTEM.SOLV>
0

>  <SCORE.SYSTEM.norm>
0

>  <SCORE.heavy>
16

>  <SCORE.norm>
-0.754642

>  <RMSD>
1.090

$$$$
ligand
 OpenBabel11021811433D
libRbt.so/2013.1/901 2013/11/27
 16 16  0  0  0  0  0  0  0  0999 V2000
   49.4541   13.1244   11.4149 P   0  0  2  0  0  0  0  0  0  0  0  0
   50.2269   14.3651   11.6716 O   0  0  0  0  0  0  0  0  0  0  0  0
   50.2936   11.8563   11.9410 O   0  5  0  0  0  0  0  0  0  0  0  0
   49.2117   12.9824    9.8292 O   0  0  0  0  0  0  0  0  0  0  0  0
   44.9036   12.0377   14.8039 C   0  0  2  0  0  0  0  0  0  0  0  0
   44.1522   10.8408   14.5324 O   0  0  0  0  0  0  0  0  0  0  0  0
   44.0856   13.2992   14.4264 C   0  0  2  0  0  0  0  0  0  0  0  0
   42.8175   13.3124   15.1652 O   0  0  0  0  0  0  0  0  0  0  0  0
   43.7996   13.2613   12.9134 C   0  0  1  0  0  0  0  0  0  0  0  0
   43.0488   14.4206   12.5330 O   0  0  0  0  0  0  0  0  0  0  0  0
   45.1446   13.2470   12.1704 C   0  0  2  0  0  0  0  0  0  0  0  0
   44.9039   13.1998   10.7475 O   0  0  0  0  0  0  0  0  0  0  0  0
   45.9392   11.9882   12.6153 C   0  0  2  0  0  0  0  0  0  0  0  0
   46.1660   12.0256   14.0577 O   0  0  0  0  0  0  0  0  0  0  0  0
   47.3026   11.9840   11.9004 C   0  0  0  0  0  0  0  0  0  0  0  0
   48.0317   13.1813   12.1968 O   0  0  0  0  0  0  0  0  0  0  0  0
  1  2  1  1  0  0  0
  1  3  1  0  0  0  0
  1  4  2  0  0  0  0
  1 16  1  0  0  0  0
  5  6  1  6  0  0  0
  5  7  1  0  0  0  0
  5 14  1  0  0  0  0
  7  8  1  1  0  0  0
  7  9  1  0  0  0  0
  9 10  1  6  0  0  0
  9 11  1  0  0  0  0
 11 12  1  6  0  0  0
 11 13  1  0  0  0  0
 13 14  1  0  0  0  0
 13 15  1  6  0  0  0
 15 16  1  0  0  0  0
M  CHG  1   3  -1
M  END
>  <CHROM.1>
57.88566835,-179.81718277,178.65531356,46.48454412,12.84795593,12.57254986
-0.36843994,-0.22599471,2.16453395

>  <Name>
ligand

>  <RI>
0

>  <Rbt.Current_Directory>
/home/itssahil/PROJECTS/Mol_Feturizer/New_Systems/rnas/2HO7

>  <Rbt.Executable>
rbdock ($Id: //depot/dev/client3/rdock/2013.1/src/exe/rbdock.cxx#4 $)

>  <Rbt.Library>
libRbt.so (2013.1, Build901 2013/11/27)

>  <Rbt.Parameter_File>
/export/apps/rDock/src/rDock_2013.1_src/data/scripts/dock_solv.prm

>  <Rbt.Receptor>
prm/pocket_docking_8.prm

>  <SCORE>
-12.0802

>  <SCORE.INTER>
-12.3816

>  <SCORE.INTER.CONST>
1

>  <SCORE.INTER.POLAR>
-1.29904

>  <SCORE.INTER.ROT>
3

>  <SCORE.INTER.SOLV>
13.7737

>  <SCORE.INTER.VDW>
-14.1155

>  <SCORE.INTER.norm>
-0.773847

>  <SCORE.INTRA>
0.301394

>  <SCORE.INTRA.DIHEDRAL>
0.0108141

>  <SCORE.INTRA.DIHEDRAL.0>
0.00893466

>  <SCORE.INTRA.POLAR>
0

>  <SCORE.INTRA.POLAR.0>
0

>  <SCORE.INTRA.REPUL>
0

>  <SCORE.INTRA.REPUL.0>
0

>  <SCORE.INTRA.SOLV>
0.914651

>  <SCORE.INTRA.SOLV.lig_0>
-48.9722

>  <SCORE.INTRA.VDW>
-0.161339

>  <SCORE.INTRA.VDW.0>
-0.529409

>  <SCORE.INTRA.norm>
0.0188371

>  <SCORE.RESTR>
0

>  <SCORE.RESTR.CAVITY>
0

>  <SCORE.RESTR.norm>
0

>  <SCORE.SYSTEM>
0

>  <SCORE.SYSTEM.CONST>
0

>  <SCORE.SYSTEM.DIHEDRAL>
0

>  <SCORE.SYSTEM.SOLV>
0

>  <SCORE.SYSTEM.norm>
0

>  <SCORE.heavy>
16

>  <SCORE.norm>
-0.75501

>  <RMSD>
1.091

$$$$
ligand
 OpenBabel11021811433D
libRbt.so/2013.1/901 2013/11/27
 16 16  0  0  0  0  0  0  0  0999 V2000
   49.4450   13.1817   11.4235 P   0  0  2  0  0  0  0  0  0  0  0  0
   50.2381   14.3941   11.7450 O   0  0  0  0  0  0  0  0  0  0  0  0
   50.2572   11.8745   11.8939 O   0  5  0  0  0  0  0  0  0  0  0  0
   49.2127   13.1204    9.8311 O   0  0  0  0  0  0  0  0  0  0  0  0
   44.8763   12.0167   14.7993 C   0  0  2  0  0  0  0  0  0  0  0  0
   44.1204   10.8316   14.4915 O   0  0  0  0  0  0  0  0  0  0  0  0
   44.0733   13.2921   14.4364 C   0  0  2  0  0  0  0  0  0  0  0  0
   42.7944   13.2994   15.1565 O   0  0  0  0  0  0  0  0  0  0  0  0
   43.8096   13.2881   12.9189 C   0  0  1  0  0  0  0  0  0  0  0  0
   43.0730   14.4608   12.5521 O   0  0  0  0  0  0  0  0  0  0  0  0
   45.1654   13.2792   12.1957 C   0  0  2  0  0  0  0  0  0  0  0  0
   44.9456   13.2636   10.7687 O   0  0  0  0  0  0  0  0  0  0  0  0
   45.9440   12.0053   12.6257 C   0  0  2  0  0  0  0  0  0  0  0  0
   46.1496   12.0107   14.0717 O   0  0  0  0  0  0  0  0  0  0  0  0
   47.3179   12.0057   11.9310 C   0  0  0  0  0  0  0  0  0  0  0  0
   48.0178   13.2274   12.1972 O   0  0  0  0  0  0  0  0  0  0  0  0
  1  2  1  1  0  0  0
  1  3  1  0  0  0  0
  1  4  2  0  0  0  0
  1 16  1  0  0  0  0
  5  6  1  6  0  0  0
  5  7  1  0  0  0  0
  5 14  1  0  0  0  0
  7  8  1  1  0  0  0
  7  9  1  0  0  0  0
  9 10  1  6  0  0  0
  9 11  1  0  0  0  0
 11 12  1  6  0  0  0
 11 13  1  0  0  0  0
 13 14  1  0  0  0  0
 13 15  1  6  0  0  0
 15 16  1  0  0  0  0
M  CHG  1   3  -1
M  END
>  <CHROM.1>
54.35527608,-179.13877678,-176.38912009,46.48134831,12.87735998,12.57977884
-0.36744589,-0.23090809,2.19914630

>  <Name>
ligand

>  <RI>
0

>  <Rbt.Current_Directory>
/home/itssahil/PROJECTS/Mol_Feturizer/New_Systems/rnas/2HO7

>  <Rbt.Executable>
rbdock ($Id: //depot/dev/client3/rdock/2013.1/src/exe/rbdock.cxx#4 $)

>  <Rbt.Library>
libRbt.so (2013.1, Build901 2013/11/27)

>  <Rbt.Parameter_File>
/export/apps/rDock/src/rDock_2013.1_src/data/scripts/dock_solv.prm

>  <Rbt.Receptor>
prm/pocket_docking_4.prm

>  <SCORE>
-11.9974

>  <SCORE.INTER>
-12.4251

>  <SCORE.INTER.CONST>
1

>  <SCORE.INTER.POLAR>
-1.29904

>  <SCORE.INTER.ROT>
3

>  <SCORE.INTER.SOLV>
13.677

>  <SCORE.INTER.VDW>
-14.1123

>  <SCORE.INTER.norm>
-0.77657

>  <SCORE.INTRA>
0.427699

>  <SCORE.INTRA.DIHEDRAL>
0.130851

>  <SCORE.INTRA.DIHEDRAL.0>
0.00893466

>  <SCORE.INTRA.POLAR>
0

>  <SCORE.INTRA.POLAR.0>
0

>  <SCORE.INTRA.REPUL>
0

>  <SCORE.INTRA.REPUL.0>
0

>  <SCORE.INTRA.SOLV>
0.941007

>  <SCORE.INTRA.SOLV.lig_0>
-48.9722

>  <SCORE.INTRA.VDW>
-0.108231

>  <SCORE.INTRA.VDW.0>
-0.529409

>  <SCORE.INTRA.norm>
0.0267312

>  <SCORE.RESTR>
0

>  <SCORE.RESTR.CAVITY>
0

>  <SCORE.RESTR.norm>
0

>  <SCORE.SYSTEM>
0

>  <SCORE.SYSTEM.CONST>
0

>  <SCORE.SYSTEM.DIHEDRAL>
0

>  <SCORE.SYSTEM.SOLV>
0

>  <SCORE.SYSTEM.norm>
0

>  <SCORE.heavy>
16

>  <SCORE.norm>
-0.749839

>  <RMSD>
1.092

$$$$
ligand
 OpenBabel11021811433D
libRbt.so/2013.1/901 2013/11/27
 16 16  0  0  0  0  0  0  0  0999 V2000
   49.4638   13.1266   11.4572 P   0  0  2  0  0  0  0  0  0  0  0  0
   50.2567   14.3426   11.7654 O   0  0  0  0  0  0  0  0  0  0  0  0
   50.2577   11.8276   11.9787 O   0  5  0  0  0  0  0  0  0  0  0  0
   49.2666   13.0258    9.8621 O   0  0  0  0  0  0  0  0  0  0  0  0
   44.8869   12.0252   14.8093 C   0  0  2  0  0  0  0  0  0  0  0  0
   44.1322   10.8344   14.5212 O   0  0  0  0  0  0  0  0  0  0  0  0
   44.0777   13.2939   14.4370 C   0  0  2  0  0  0  0  0  0  0  0  0
   42.8040   13.3064   15.1662 O   0  0  0  0  0  0  0  0  0  0  0  0
   43.8032   13.2710   12.9216 C   0  0  1  0  0  0  0  0  0  0  0  0
   43.0607   14.4373   12.5461 O   0  0  0  0  0  0  0  0  0  0  0  0
   45.1538   13.2572   12.1889 C   0  0  2  0  0  0  0  0  0  0  0  0
   44.9238   13.2240   10.7638 O   0  0  0  0  0  0  0  0  0  0  0  0
   45.9391   11.9907   12.6284 C   0  0  2  0  0  0  0  0  0  0  0  0
   46.1550   12.0140   14.0728 O   0  0  0  0  0  0  0  0  0  0  0  0
   47.3080   11.9867   11.9239 C   0  0  0  0  0  0  0  0  0  0  0  0
   48.0200   13.1996   12.1973 O   0  0  0  0  0  0  0  0  0  0  0  0
  1  2  1  1  0  0  0
  1  3  1  0  0  0  0
  1  4  2  0  0  0  0
  1 16  1  0  0  0  0
  5  6  1  6  0  0  0
  5  7  1  0  0  0  0
  5 14  1  0  0  0  0
  7  8  1  1  0  0  0
  7  9  1  0  0  0  0
  9 10  1  6  0  0  0
  9 11  1  0  0  0  0
 11 12  1  6  0  0  0
 11 13  1  0  0  0  0
 13 14  1  0  0  0  0
 13 15  1  6  0  0  0
 15 16  1  0  0  0  0
M  CHG  1   3  -1
M  END
>  <CHROM.1>
55.77384247,178.82602714,-177.56407898,46.48697101,12.85032207,12.59440997
-0.36096987,-0.22643407,2.17751767

>  <Name>
ligand

>  <RI>
0

>  <Rbt.Current_Directory>
/home/itssahil/PROJECTS/Mol_Feturizer/New_Systems/rnas/2HO7

>  <Rbt.Executable>
rbdock ($Id: //depot/dev/client3/rdock/2013.1/src/exe/rbdock.cxx#4 $)

>  <Rbt.Library>
libRbt.so (2013.1, Build901 2013/11/27)

>  <Rbt.Parameter_File>
/export/apps/rDock/src/rDock_2013.1_src/data/scripts/dock_solv.prm

>  <Rbt.Receptor>
prm/pocket_docking_8.prm

>  <SCORE>
-12.0408

>  <SCORE.INTER>
-12.4059

>  <SCORE.INTER.CONST>
1

>  <SCORE.INTER.POLAR>
-1.29904

>  <SCORE.INTER.ROT>
3

>  <SCORE.INTER.SOLV>
13.9011

>  <SCORE.INTER.VDW>
-14.1742

>  <SCORE.INTER.norm>
-0.775368

>  <SCORE.INTRA>
0.365073

>  <SCORE.INTRA.DIHEDRAL>
0.0722528

>  <SCORE.INTRA.DIHEDRAL.0>
0.00893466

>  <SCORE.INTRA.POLAR>
0

>  <SCORE.INTRA.POLAR.0>
0

>  <SCORE.INTRA.REPUL>
0

>  <SCORE.INTRA.REPUL.0>
0

>  <SCORE.INTRA.SOLV>
0.911528

>  <SCORE.INTRA.SOLV.lig_0>
-48.9722

>  <SCORE.INTRA.VDW>
-0.126818

>  <SCORE.INTRA.VDW.0>
-0.529409

>  <SCORE.INTRA.norm>
0.0228171

>  <SCORE.RESTR>
0

>  <SCORE.RESTR.CAVITY>
0

>  <SCORE.RESTR.norm>
0

>  <SCORE.SYSTEM>
0

>  <SCORE.SYSTEM.CONST>
0

>  <SCORE.SYSTEM.DIHEDRAL>
0

>  <SCORE.SYSTEM.SOLV>
0

>  <SCORE.SYSTEM.norm>
0

>  <SCORE.heavy>
16

>  <SCORE.norm>
-0.752551

>  <RMSD>
1.095

$$$$
ligand
 OpenBabel11021811433D
libRbt.so/2013.1/901 2013/11/27
 16 16  0  0  0  0  0  0  0  0999 V2000
   49.5330   13.0273   11.4319 P   0  0  2  0  0  0  0  0  0  0  0  0
   49.3173   13.1706    9.9706 O   0  0  0  0  0  0  0  0  0  0  0  0
   49.8718   14.4681   12.0635 O   0  5  0  0  0  0  0  0  0  0  0  0
   50.7751   12.0322   11.6782 O   0  0  0  0  0  0  0  0  0  0  0  0
   44.6306   12.4241   14.4345 C   0  0  2  0  0  0  0  0  0  0  0  0
   44.4542   11.0099   14.2353 O   0  0  0  0  0  0  0  0  0  0  0  0
   43.4033   13.2118   13.9089 C   0  0  2  0  0  0  0  0  0  0  0  0
   42.1851   12.7479   14.5834 O   0  0  0  0  0  0  0  0  0  0  0  0
   43.2779   12.9664   12.3934 C   0  0  1  0  0  0  0  0  0  0  0  0
   42.1535   13.6886   11.8771 O   0  0  0  0  0  0  0  0  0  0  0  0
   44.5668   13.4606   11.7185 C   0  0  2  0  0  0  0  0  0  0  0  0
   44.4793   13.2310   10.2956 O   0  0  0  0  0  0  0  0  0  0  0  0
   45.7664   12.6700   12.3099 C   0  0  2  0  0  0  0  0  0  0  0  0
   45.8436   12.8862   13.7523 O   0  0  0  0  0  0  0  0  0  0  0  0
   47.0657   13.1827   11.6628 C   0  0  0  0  0  0  0  0  0  0  0  0
   48.1943   12.4389   12.1384 O   0  0  0  0  0  0  0  0  0  0  0  0
  1  2  1  6  0  0  0
  1  3  1  0  0  0  0
  1  4  2  0  0  0  0
  1 16  1  0  0  0  0
  5  6  1  6  0  0  0
  5  7  1  0  0  0  0
  5 14  1  0  0  0  0
  7  8  1  1  0  0  0
  7  9  1  0  0  0  0
  9 10  1  6  0  0  0
  9 11  1  0  0  0  0
 11 12  1  6  0  0  0
 11 13  1  0  0  0  0
 13 14  1  0  0  0  0
 13 15  1  6  0  0  0
 15 16  1  0  0  0  0
M  CHG  1   3  -1
M  END
>  <CHROM.1>
-177.49568495,-179.64718472,-47.63250951,46.26759422,12.91618810,12.31964590
-0.27611702,-0.08061046,1.95061531

>  <Name>
ligand

>  <RI>
0

>  <Rbt.Current_Directory>
/home/itssahil/PROJECTS/Mol_Feturizer/New_Systems/rnas/2HO7

>  <Rbt.Executable>
rbdock ($Id: //depot/dev/client3/rdock/2013.1/src/exe/rbdock.cxx#4 $)

>  <Rbt.Library>
libRbt.so (2013.1, Build901 2013/11/27)

>  <Rbt.Parameter_File>
/export/apps/rDock/src/rDock_2013.1_src/data/scripts/dock_solv.prm

>  <Rbt.Receptor>
prm/pocket_docking_2.prm

>  <SCORE>
-9.29807

>  <SCORE.INTER>
-9.55706

>  <SCORE.INTER.CONST>
1

>  <SCORE.INTER.POLAR>
-1.29904

>  <SCORE.INTER.ROT>
3

>  <SCORE.INTER.SOLV>
14.9604

>  <SCORE.INTER.VDW>
-12.6281

>  <SCORE.INTER.norm>
-0.597316

>  <SCORE.INTRA>
0.258988

>  <SCORE.INTRA.DIHEDRAL>
0.256164

>  <SCORE.INTRA.DIHEDRAL.0>
0.00893466

>  <SCORE.INTRA.POLAR>
0

>  <SCORE.INTRA.POLAR.0>
0

>  <SCORE.INTRA.REPUL>
0

>  <SCORE.INTRA.REPUL.0>
0

>  <SCORE.INTRA.SOLV>
-0.116004

>  <SCORE.INTRA.SOLV.lig_0>
-48.9722

>  <SCORE.INTRA.VDW>
0.188908

>  <SCORE.INTRA.VDW.0>
-0.529409

>  <SCORE.INTRA.norm>
0.0161867

>  <SCORE.RESTR>
0

>  <SCORE.RESTR.CAVITY>
0

>  <SCORE.RESTR.norm>
0

>  <SCORE.SYSTEM>
0

>  <SCORE.SYSTEM.CONST>
0

>  <SCORE.SYSTEM.DIHEDRAL>
0

>  <SCORE.SYSTEM.SOLV>
0

>  <SCORE.SYSTEM.norm>
0

>  <SCORE.heavy>
16

>  <SCORE.norm>
-0.581129

>  <RMSD>
1.152

$$$$
ligand
 OpenBabel11021811433D
libRbt.so/2013.1/901 2013/11/27
 16 16  0  0  0  0  0  0  0  0999 V2000
   49.4006   13.0887   11.3971 P   0  0  2  0  0  0  0  0  0  0  0  0
   50.0314   14.4263   11.5204 O   0  0  0  0  0  0  0  0  0  0  0  0
   50.4675   11.9572   11.8108 O   0  5  0  0  0  0  0  0  0  0  0  0
   48.9531   12.8648    9.8663 O   0  0  0  0  0  0  0  0  0  0  0  0
   44.7047   11.7583   14.6831 C   0  0  2  0  0  0  0  0  0  0  0  0
   43.8270   10.7515   14.1477 O   0  0  0  0  0  0  0  0  0  0  0  0
   44.0978   13.1728   14.4987 C   0  0  2  0  0  0  0  0  0  0  0  0
   42.7835   13.2416   15.1484 O   0  0  0  0  0  0  0  0  0  0  0  0
   43.9413   13.4445   12.9907 C   0  0  1  0  0  0  0  0  0  0  0  0
   43.3874   14.7502   12.7885 O   0  0  0  0  0  0  0  0  0  0  0  0
   45.3317   13.3642   12.3413 C   0  0  2  0  0  0  0  0  0  0  0  0
   45.2110   13.6043   10.9226 O   0  0  0  0  0  0  0  0  0  0  0  0
   45.9101   11.9439   12.5909 C   0  0  2  0  0  0  0  0  0  0  0  0
   46.0140   11.6929   14.0259 O   0  0  0  0  0  0  0  0  0  0  0  0
   47.3175   11.8658   11.9720 C   0  0  0  0  0  0  0  0  0  0  0  0
   48.1109   12.9874   12.3790 O   0  0  0  0  0  0  0  0  0  0  0  0
  1  2  1  1  0  0  0
  1  3  1  0  0  0  0
  1  4  2  0  0  0  0
  1 16  1  0  0  0  0
  5  6  1  6  0  0  0
  5  7  1  0  0  0  0
  5 14  1  0  0  0  0
  7  8  1  1  0  0  0
  7  9  1  0  0  0  0
  9 10  1  1  0  0  0
  9 11  1  0  0  0  0
 11 12  1  6  0  0  0
 11 13  1  0  0  0  0
 13 14  1  0  0  0  0
 13 15  1  6  0  0  0
 15 16  1  0  0  0  0
M  CHG  1   3  -1
M  END
>  <CHROM.1>
49.33992723,-164.22662718,163.86310652,46.48045437,12.83516856,12.57924031
0.30954969,0.32650043,-0.70653669

>  <Name>
ligand

>  <RI>
0

>  <Rbt.Current_Directory>
/home/itssahil/PROJECTS/Mol_Feturizer/New_Systems/rnas/2HO7

>  <Rbt.Executable>
rbdock ($Id: //depot/dev/client3/rdock/2013.1/src/exe/rbdock.cxx#4 $)

>  <Rbt.Library>
libRbt.so (2013.1, Build901 2013/11/27)

>  <Rbt.Parameter_File>
/export/apps/rDock/src/rDock_2013.1_src/data/scripts/dock_solv.prm

>  <Rbt.Receptor>
prm/pocket_docking_7.prm

>  <SCORE>
-10.5778

>  <SCORE.INTER>
-12.2821

>  <SCORE.INTER.CONST>
1

>  <SCORE.INTER.POLAR>
-1.2983

>  <SCORE.INTER.ROT>
3

>  <SCORE.INTER.SOLV>
13.8279

>  <SCORE.INTER.VDW>
-14.0697

>  <SCORE.INTER.norm>
-0.767633

>  <SCORE.INTRA>
1.70434

>  <SCORE.INTRA.DIHEDRAL>
1.95702

>  <SCORE.INTRA.DIHEDRAL.0>
0.00893466

>  <SCORE.INTRA.POLAR>
0

>  <SCORE.INTRA.POLAR.0>
0

>  <SCORE.INTRA.REPUL>
0

>  <SCORE.INTRA.REPUL.0>
0

>  <SCORE.INTRA.SOLV>
1.46081

>  <SCORE.INTRA.SOLV.lig_0>
-48.9722

>  <SCORE.INTRA.VDW>
-0.00457103

>  <SCORE.INTRA.VDW.0>
-0.529409

>  <SCORE.INTRA.norm>
0.106521

>  <SCORE.RESTR>
0

>  <SCORE.RESTR.CAVITY>
0

>  <SCORE.RESTR.norm>
0

>  <SCORE.SYSTEM>
0

>  <SCORE.SYSTEM.CONST>
0

>  <SCORE.SYSTEM.DIHEDRAL>
0

>  <SCORE.SYSTEM.SOLV>
0

>  <SCORE.SYSTEM.norm>
0

>  <SCORE.heavy>
16

>  <SCORE.norm>
-0.661111

>  <RMSD>
1.168

$$$$
ligand
 OpenBabel11021811433D
libRbt.so/2013.1/901 2013/11/27
 16 16  0  0  0  0  0  0  0  0999 V2000
   49.5017   12.8940   11.8476 P   0  0  2  0  0  0  0  0  0  0  0  0
   50.6625   12.8248   12.7696 O   0  0  0  0  0  0  0  0  0  0  0  0
   49.8049   12.0025   10.5426 O   0  5  0  0  0  0  0  0  0  0  0  0
   49.2801   14.4268   11.4061 O   0  0  0  0  0  0  0  0  0  0  0  0
   44.5764   12.5772   14.6780 C   0  0  2  0  0  0  0  0  0  0  0  0
   44.4156   11.1525   14.8008 O   0  0  0  0  0  0  0  0  0  0  0  0
   43.3454   13.2126   13.9823 C   0  0  2  0  0  0  0  0  0  0  0  0
   42.1268   12.8984   14.7375 O   0  0  0  0  0  0  0  0  0  0  0  0
   43.2339   12.6315   12.5602 C   0  0  1  0  0  0  0  0  0  0  0  0
   42.1064   13.2063   11.8890 O   0  0  0  0  0  0  0  0  0  0  0  0
   44.5230   12.9760   11.7981 C   0  0  2  0  0  0  0  0  0  0  0  0
   44.4486   12.4315   10.4629 O   0  0  0  0  0  0  0  0  0  0  0  0
   45.7258   12.3522   12.5584 C   0  0  2  0  0  0  0  0  0  0  0  0
   45.7900   12.8880   13.9156 O   0  0  0  0  0  0  0  0  0  0  0  0
   47.0249   12.7212   11.8192 C   0  0  0  0  0  0  0  0  0  0  0  0
   48.1704   12.3241   12.5829 O   0  0  0  0  0  0  0  0  0  0  0  0
  1  2  1  1  0  0  0
  1  3  1  0  0  0  0
  1  4  2  0  0  0  0
  1 16  1  0  0  0  0
  5  6  1  6  0  0  0
  5  7  1  0  0  0  0
  5 14  1  0  0  0  0
  7  8  1  1  0  0  0
  7  9  1  0  0  0  0
  9 10  1  6  0  0  0
  9 11  1  0  0  0  0
 11 12  1  6  0  0  0
 11 13  1  0  0  0  0
 13 14  1  0  0  0  0
 13 15  1  6  0  0  0
 15 16  1  0  0  0  0
M  CHG  1   3  -1
M  END
>  <CHROM.1>
172.06021866,-173.25316603,165.03853319,46.21967781,12.72846961,12.57876688
-0.25614558,-0.00875824,1.72131520

>  <Name>
ligand

>  <RI>
0

>  <Rbt.Current_Directory>
/home/itssahil/PROJECTS/Mol_Feturizer/New_Systems/rnas/2HO7

>  <Rbt.Executable>
rbdock ($Id: //depot/dev/client3/rdock/2013.1/src/exe/rbdock.cxx#4 $)

>  <Rbt.Library>
libRbt.so (2013.1, Build901 2013/11/27)

>  <Rbt.Parameter_File>
/export/apps/rDock/src/rDock_2013.1_src/data/scripts/dock_solv.prm

>  <Rbt.Receptor>
prm/pocket_docking_6.prm

>  <SCORE>
-10.0436

>  <SCORE.INTER>
-10.8396

>  <SCORE.INTER.CONST>
1

>  <SCORE.INTER.POLAR>
-1.29755

>  <SCORE.INTER.ROT>
3

>  <SCORE.INTER.SOLV>
15.8612

>  <SCORE.INTER.VDW>
-13.7883

>  <SCORE.INTER.norm>
-0.677476

>  <SCORE.INTRA>
0.796018

>  <SCORE.INTRA.DIHEDRAL>
0.790008

>  <SCORE.INTRA.DIHEDRAL.0>
0.00893466

>  <SCORE.INTRA.POLAR>
0

>  <SCORE.INTRA.POLAR.0>
0

>  <SCORE.INTRA.REPUL>
0

>  <SCORE.INTRA.REPUL.0>
0

>  <SCORE.INTRA.SOLV>
0.703752

>  <SCORE.INTRA.SOLV.lig_0>
-48.9722

>  <SCORE.INTRA.VDW>
0.0491377

>  <SCORE.INTRA.VDW.0>
-0.529409

>  <SCORE.INTRA.norm>
0.0497511

>  <SCORE.RESTR>
0

>  <SCORE.RESTR.CAVITY>
0

>  <SCORE.RESTR.norm>
0

>  <SCORE.SYSTEM>
0

>  <SCORE.SYSTEM.CONST>
0

>  <SCORE.SYSTEM.DIHEDRAL>
0

>  <SCORE.SYSTEM.SOLV>
0

>  <SCORE.SYSTEM.norm>
0

>  <SCORE.heavy>
16

>  <SCORE.norm>
-0.627725

>  <RMSD>
1.185

$$$$
ligand
 OpenBabel11021811433D
libRbt.so/2013.1/901 2013/11/27
 16 16  0  0  0  0  0  0  0  0999 V2000
   49.1608   13.2499   10.9379 P   0  0  2  0  0  0  0  0  0  0  0  0
   49.4593   14.4507   11.7572 O   0  0  0  0  0  0  0  0  0  0  0  0
   50.1039   12.0349   11.4115 O   0  5  0  0  0  0  0  0  0  0  0  0
   49.4625   13.5875    9.3925 O   0  0  0  0  0  0  0  0  0  0  0  0
   44.3990   11.5335   14.5482 C   0  0  2  0  0  0  0  0  0  0  0  0
   43.7165   10.6186   13.6719 O   0  0  0  0  0  0  0  0  0  0  0  0
   43.7186   12.9262   14.5288 C   0  0  2  0  0  0  0  0  0  0  0  0
   42.3092   12.7996   14.9184 O   0  0  0  0  0  0  0  0  0  0  0  0
   43.8087   13.4941   13.0999 C   0  0  1  0  0  0  0  0  0  0  0  0
   43.1924   14.7865   13.0524 O   0  0  0  0  0  0  0  0  0  0  0  0
   45.2936   13.6128   12.7228 C   0  0  2  0  0  0  0  0  0  0  0  0
   45.4056   14.1331   11.3806 O   0  0  0  0  0  0  0  0  0  0  0  0
   45.9350   12.1997   12.7985 C   0  0  2  0  0  0  0  0  0  0  0  0
   45.8046   11.6646   14.1512 O   0  0  0  0  0  0  0  0  0  0  0  0
   47.4311   12.3151   12.4544 C   0  0  0  0  0  0  0  0  0  0  0  0
   47.6059   12.8195   11.1247 O   0  0  0  0  0  0  0  0  0  0  0  0
  1  2  1  1  0  0  0
  1  3  1  0  0  0  0
  1  4  2  0  0  0  0
  1 16  1  0  0  0  0
  5  6  1  6  0  0  0
  5  7  1  0  0  0  0
  5 14  1  0  0  0  0
  7  8  1  6  0  0  0
  7  9  1  0  0  0  0
  9 10  1  1  0  0  0
  9 11  1  0  0  0  0
 11 12  1  6  0  0  0
 11 13  1  0  0  0  0
 13 14  1  0  0  0  0
 13 15  1  1  0  0  0
 15 16  1  0  0  0  0
M  CHG  1   3  -1
M  END
>  <CHROM.1>
-61.08146324,166.83622217,-69.51235219,46.30626260,12.92282959,12.47017015
0.33362625,0.39619764,-0.54890489

>  <Name>
ligand

>  <RI>
0

>  <Rbt.Current_Directory>
/home/itssahil/PROJECTS/Mol_Feturizer/New_Systems/rnas/2HO7

>  <Rbt.Executable>
rbdock ($Id: //depot/dev/client3/rdock/2013.1/src/exe/rbdock.cxx#4 $)

>  <Rbt.Library>
libRbt.so (2013.1, Build901 2013/11/27)

>  <Rbt.Parameter_File>
/export/apps/rDock/src/rDock_2013.1_src/data/scripts/dock_solv.prm

>  <Rbt.Receptor>
prm/pocket_docking_3.prm

>  <SCORE>
-10.6314

>  <SCORE.INTER>
-11.7274

>  <SCORE.INTER.CONST>
1

>  <SCORE.INTER.POLAR>
-1.28983

>  <SCORE.INTER.ROT>
3

>  <SCORE.INTER.SOLV>
13.4353

>  <SCORE.INTER.VDW>
-13.5973

>  <SCORE.INTER.norm>
-0.73296

>  <SCORE.INTRA>
1.09592

>  <SCORE.INTRA.DIHEDRAL>
0.963973

>  <SCORE.INTRA.DIHEDRAL.0>
0.00893466

>  <SCORE.INTRA.POLAR>
0

>  <SCORE.INTRA.POLAR.0>
0

>  <SCORE.INTRA.REPUL>
0

>  <SCORE.INTRA.REPUL.0>
0

>  <SCORE.INTRA.SOLV>
0.719443

>  <SCORE.INTRA.SOLV.lig_0>
-48.9722

>  <SCORE.INTRA.VDW>
0.254217

>  <SCORE.INTRA.VDW.0>
-0.529409

>  <SCORE.INTRA.norm>
0.0684953

>  <SCORE.RESTR>
0

>  <SCORE.RESTR.CAVITY>
0

>  <SCORE.RESTR.norm>
0

>  <SCORE.SYSTEM>
0

>  <SCORE.SYSTEM.CONST>
0

>  <SCORE.SYSTEM.DIHEDRAL>
0

>  <SCORE.SYSTEM.SOLV>
0

>  <SCORE.SYSTEM.norm>
0

>  <SCORE.heavy>
16

>  <SCORE.norm>
-0.664465

>  <RMSD>
1.198

$$$$
ligand
 OpenBabel11021811433D
libRbt.so/2013.1/901 2013/11/27
 16 16  0  0  0  0  0  0  0  0999 V2000
   48.9352   13.2102   10.4613 P   0  0  2  0  0  0  0  0  0  0  0  0
   49.2607   14.4871   11.1438 O   0  0  0  0  0  0  0  0  0  0  0  0
   49.9994   12.0859   10.9007 O   0  5  0  0  0  0  0  0  0  0  0  0
   49.0243   13.4350    8.8691 O   0  0  0  0  0  0  0  0  0  0  0  0
   44.6204   11.8830   14.7473 C   0  0  2  0  0  0  0  0  0  0  0  0
   44.0317   10.7108   14.1556 O   0  0  0  0  0  0  0  0  0  0  0  0
   43.7501   13.1357   14.4712 C   0  0  2  0  0  0  0  0  0  0  0  0
   42.3935   12.9266   14.9908 O   0  0  0  0  0  0  0  0  0  0  0  0
   43.6891   13.3622   12.9489 C   0  0  1  0  0  0  0  0  0  0  0  0
   42.8950   14.5198   12.6628 O   0  0  0  0  0  0  0  0  0  0  0  0
   45.1221   13.5762   12.4371 C   0  0  2  0  0  0  0  0  0  0  0  0
   45.0936   13.7798   11.0079 O   0  0  0  0  0  0  0  0  0  0  0  0
   45.9594   12.3120   12.7756 C   0  0  2  0  0  0  0  0  0  0  0  0
   45.9723   12.0943   14.2198 O   0  0  0  0  0  0  0  0  0  0  0  0
   47.4056   12.5319   12.2958 C   0  0  0  0  0  0  0  0  0  0  0  0
   47.4432   12.7205   10.8759 O   0  0  0  0  0  0  0  0  0  0  0  0
  1  2  1  1  0  0  0
  1  3  1  0  0  0  0
  1  4  2  0  0  0  0
  1 16  1  0  0  0  0
  5  6  1  6  0  0  0
  5  7  1  0  0  0  0
  5 14  1  0  0  0  0
  7  8  1  6  0  0  0
  7  9  1  0  0  0  0
  9 10  1  1  0  0  0
  9 11  1  0  0  0  0
 11 12  1  6  0  0  0
 11 13  1  0  0  0  0
 13 14  1  0  0  0  0
 13 15  1  1  0  0  0
 15 16  1  0  0  0  0
M  CHG  1   3  -1
M  END
>  <CHROM.1>
-61.53168899,169.92832502,-59.99128465,46.21706748,12.94720800,12.25894020
0.47961802,0.36982933,-0.84083664

>  <Name>
ligand

>  <RI>
0

>  <Rbt.Current_Directory>
/home/itssahil/PROJECTS/Mol_Feturizer/New_Systems/rnas/2HO7

>  <Rbt.Executable>
rbdock ($Id: //depot/dev/client3/rdock/2013.1/src/exe/rbdock.cxx#4 $)

>  <Rbt.Library>
libRbt.so (2013.1, Build901 2013/11/27)

>  <Rbt.Parameter_File>
/export/apps/rDock/src/rDock_2013.1_src/data/scripts/dock_solv.prm

>  <Rbt.Receptor>
prm/pocket_docking_3.prm

>  <SCORE>
-11.2134

>  <SCORE.INTER>
-11.9642

>  <SCORE.INTER.CONST>
1

>  <SCORE.INTER.POLAR>
-1.29784

>  <SCORE.INTER.ROT>
3

>  <SCORE.INTER.SOLV>
12.5732

>  <SCORE.INTER.VDW>
-13.4411

>  <SCORE.INTER.norm>
-0.747765

>  <SCORE.INTRA>
0.750862

>  <SCORE.INTRA.DIHEDRAL>
0.488915

>  <SCORE.INTRA.DIHEDRAL.0>
0.00893466

>  <SCORE.INTRA.POLAR>
0

>  <SCORE.INTRA.POLAR.0>
0

>  <SCORE.INTRA.REPUL>
0

>  <SCORE.INTRA.REPUL.0>
0

>  <SCORE.INTRA.SOLV>
0.585671

>  <SCORE.INTRA.SOLV.lig_0>
-48.9722

>  <SCORE.INTRA.VDW>
0.21357

>  <SCORE.INTRA.VDW.0>
-0.529409

>  <SCORE.INTRA.norm>
0.0469289

>  <SCORE.RESTR>
0

>  <SCORE.RESTR.CAVITY>
0

>  <SCORE.RESTR.norm>
0

>  <SCORE.SYSTEM>
0

>  <SCORE.SYSTEM.CONST>
0

>  <SCORE.SYSTEM.DIHEDRAL>
0

>  <SCORE.SYSTEM.SOLV>
0

>  <SCORE.SYSTEM.norm>
0

>  <SCORE.heavy>
16

>  <SCORE.norm>
-0.700836

>  <RMSD>
1.199

$$$$
ligand
 OpenBabel11021811433D
libRbt.so/2013.1/901 2013/11/27
 16 16  0  0  0  0  0  0  0  0999 V2000
   49.4913   13.1072   11.4817 P   0  0  2  0  0  0  0  0  0  0  0  0
   50.2241   14.3812   11.6873 O   0  0  0  0  0  0  0  0  0  0  0  0
   50.4202   11.8782   11.9470 O   0  5  0  0  0  0  0  0  0  0  0  0
   49.1479   12.9526    9.9159 O   0  0  0  0  0  0  0  0  0  0  0  0
   44.7184   11.7383   14.6927 C   0  0  2  0  0  0  0  0  0  0  0  0
   43.8406   10.7621   14.1035 O   0  0  0  0  0  0  0  0  0  0  0  0
   44.1296   13.1652   14.5513 C   0  0  2  0  0  0  0  0  0  0  0  0
   42.8042   13.2237   15.1791 O   0  0  0  0  0  0  0  0  0  0  0  0
   44.0040   13.4955   13.0521 C   0  0  1  0  0  0  0  0  0  0  0  0
   43.4674   14.8139   12.8897 O   0  0  0  0  0  0  0  0  0  0  0  0
   45.4054   13.4247   12.4256 C   0  0  2  0  0  0  0  0  0  0  0  0
   45.3136   13.7197   11.0151 O   0  0  0  0  0  0  0  0  0  0  0  0
   45.9644   11.9897   12.6315 C   0  0  2  0  0  0  0  0  0  0  0  0
   46.0391   11.6834   14.0576 O   0  0  0  0  0  0  0  0  0  0  0  0
   47.3823   11.9197   12.0358 C   0  0  0  0  0  0  0  0  0  0  0  0
   48.1245   13.1020   12.3589 O   0  0  0  0  0  0  0  0  0  0  0  0
  1  2  1  1  0  0  0
  1  3  1  0  0  0  0
  1  4  2  0  0  0  0
  1 16  1  0  0  0  0
  5  6  1  6  0  0  0
  5  7  1  0  0  0  0
  5 14  1  0  0  0  0
  7  8  1  6  0  0  0
  7  9  1  0  0  0  0
  9 10  1  1  0  0  0
  9 11  1  0  0  0  0
 11 12  1  6  0  0  0
 11 13  1  0  0  0  0
 13 14  1  0  0  0  0
 13 15  1  1  0  0  0
 15 16  1  0  0  0  0
M  CHG  1   3  -1
M  END
>  <CHROM.1>
41.91606470,-169.32496004,174.41535035,46.54471609,12.86220666,12.64010488
0.29003171,0.32999902,-0.66303450

>  <Name>
ligand

>  <RI>
0

>  <Rbt.Current_Directory>
/home/itssahil/PROJECTS/Mol_Feturizer/New_Systems/rnas/2HO7

>  <Rbt.Executable>
rbdock ($Id: //depot/dev/client3/rdock/2013.1/src/exe/rbdock.cxx#4 $)

>  <Rbt.Library>
libRbt.so (2013.1, Build901 2013/11/27)

>  <Rbt.Parameter_File>
/export/apps/rDock/src/rDock_2013.1_src/data/scripts/dock_solv.prm

>  <Rbt.Receptor>
prm/pocket_docking_3.prm

>  <SCORE>
-10.737

>  <SCORE.INTER>
-12.31

>  <SCORE.INTER.CONST>
1

>  <SCORE.INTER.POLAR>
-1.29904

>  <SCORE.INTER.ROT>
3

>  <SCORE.INTER.SOLV>
14.4674

>  <SCORE.INTER.VDW>
-14.299

>  <SCORE.INTER.norm>
-0.769377

>  <SCORE.INTRA>
1.57307

>  <SCORE.INTRA.DIHEDRAL>
1.68938

>  <SCORE.INTRA.DIHEDRAL.0>
0.00893466

>  <SCORE.INTRA.POLAR>
0

>  <SCORE.INTRA.POLAR.0>
0

>  <SCORE.INTRA.REPUL>
0

>  <SCORE.INTRA.REPUL.0>
0

>  <SCORE.INTRA.SOLV>
1.35696

>  <SCORE.INTRA.SOLV.lig_0>
-48.9722

>  <SCORE.INTRA.VDW>
0.0498953

>  <SCORE.INTRA.VDW.0>
-0.529409

>  <SCORE.INTRA.norm>
0.0983167

>  <SCORE.RESTR>
0

>  <SCORE.RESTR.CAVITY>
0

>  <SCORE.RESTR.norm>
0

>  <SCORE.SYSTEM>
0

>  <SCORE.SYSTEM.CONST>
0

>  <SCORE.SYSTEM.DIHEDRAL>
0

>  <SCORE.SYSTEM.SOLV>
0

>  <SCORE.SYSTEM.norm>
0

>  <SCORE.heavy>
16

>  <SCORE.norm>
-0.671061

>  <RMSD>
1.203

$$$$
ligand
 OpenBabel11021811433D
libRbt.so/2013.1/901 2013/11/27
 16 16  0  0  0  0  0  0  0  0999 V2000
   48.9218   13.1759   10.4371 P   0  0  2  0  0  0  0  0  0  0  0  0
   49.2151   14.4777   11.0865 O   0  0  0  0  0  0  0  0  0  0  0  0
   50.0122   12.0895   10.9066 O   0  5  0  0  0  0  0  0  0  0  0  0
   49.0080   13.3614    8.8397 O   0  0  0  0  0  0  0  0  0  0  0  0
   44.6172   11.8785   14.7437 C   0  0  2  0  0  0  0  0  0  0  0  0
   44.0263   10.7084   14.1500 O   0  0  0  0  0  0  0  0  0  0  0  0
   43.7477   13.1328   14.4722 C   0  0  2  0  0  0  0  0  0  0  0  0
   42.3917   12.9237   14.9936 O   0  0  0  0  0  0  0  0  0  0  0  0
   43.6842   13.3633   12.9506 C   0  0  1  0  0  0  0  0  0  0  0  0
   42.8908   14.5224   12.6688 O   0  0  0  0  0  0  0  0  0  0  0  0
   45.1166   13.5772   12.4370 C   0  0  2  0  0  0  0  0  0  0  0  0
   45.0860   13.7845   11.0084 O   0  0  0  0  0  0  0  0  0  0  0  0
   45.9533   12.3113   12.7708 C   0  0  2  0  0  0  0  0  0  0  0  0
   45.9684   12.0899   14.2144 O   0  0  0  0  0  0  0  0  0  0  0  0
   47.3989   12.5310   12.2891 C   0  0  0  0  0  0  0  0  0  0  0  0
   47.4415   12.6611   10.8628 O   0  0  0  0  0  0  0  0  0  0  0  0
  1  2  1  1  0  0  0
  1  3  1  0  0  0  0
  1  4  2  0  0  0  0
  1 16  1  0  0  0  0
  5  6  1  6  0  0  0
  5  7  1  0  0  0  0
  5 14  1  0  0  0  0
  7  8  1  6  0  0  0
  7  9  1  0  0  0  0
  9 10  1  1  0  0  0
  9 11  1  0  0  0  0
 11 12  1  6  0  0  0
 11 13  1  0  0  0  0
 13 14  1  0  0  0  0
 13 15  1  1  0  0  0
 15 16  1  0  0  0  0
M  CHG  1   3  -1
M  END
>  <CHROM.1>
-64.22160498,169.05693014,-58.98943376,46.20928962,12.93377905,12.24930129
0.47879318,0.37637453,-0.84227428

>  <Name>
ligand

>  <RI>
0

>  <Rbt.Current_Directory>
/home/itssahil/PROJECTS/Mol_Feturizer/New_Systems/rnas/2HO7

>  <Rbt.Executable>
rbdock ($Id: //depot/dev/client3/rdock/2013.1/src/exe/rbdock.cxx#4 $)

>  <Rbt.Library>
libRbt.so (2013.1, Build901 2013/11/27)

>  <Rbt.Parameter_File>
/export/apps/rDock/src/rDock_2013.1_src/data/scripts/dock_solv.prm

>  <Rbt.Receptor>
prm/pocket_docking_4.prm

>  <SCORE>
-11.1855

>  <SCORE.INTER>
-11.9015

>  <SCORE.INTER.CONST>
1

>  <SCORE.INTER.POLAR>
-1.29855

>  <SCORE.INTER.ROT>
3

>  <SCORE.INTER.SOLV>
12.6127

>  <SCORE.INTER.VDW>
-13.4101

>  <SCORE.INTER.norm>
-0.743844

>  <SCORE.INTRA>
0.716021

>  <SCORE.INTRA.DIHEDRAL>
0.632333

>  <SCORE.INTRA.DIHEDRAL.0>
0.00893466

>  <SCORE.INTRA.POLAR>
0

>  <SCORE.INTRA.POLAR.0>
0

>  <SCORE.INTRA.REPUL>
0

>  <SCORE.INTRA.REPUL.0>
0

>  <SCORE.INTRA.SOLV>
0.565894

>  <SCORE.INTRA.SOLV.lig_0>
-48.9722

>  <SCORE.INTRA.VDW>
0.116907

>  <SCORE.INTRA.VDW.0>
-0.529409

>  <SCORE.INTRA.norm>
0.0447513

>  <SCORE.RESTR>
0

>  <SCORE.RESTR.CAVITY>
0

>  <SCORE.RESTR.norm>
0

>  <SCORE.SYSTEM>
0

>  <SCORE.SYSTEM.CONST>
0

>  <SCORE.SYSTEM.DIHEDRAL>
0

>  <SCORE.SYSTEM.SOLV>
0

>  <SCORE.SYSTEM.norm>
0

>  <SCORE.heavy>
16

>  <SCORE.norm>
-0.699093

>  <RMSD>
1.206

$$$$
ligand
 OpenBabel11021811433D
libRbt.so/2013.1/901 2013/11/27
 16 16  0  0  0  0  0  0  0  0999 V2000
   48.9278   13.2317   10.4601 P   0  0  2  0  0  0  0  0  0  0  0  0
   49.2759   14.4822   11.1795 O   0  0  0  0  0  0  0  0  0  0  0  0
   49.9819   12.0809   10.8529 O   0  5  0  0  0  0  0  0  0  0  0  0
   49.0045   13.5061    8.8751 O   0  0  0  0  0  0  0  0  0  0  0  0
   44.6056   11.9106   14.7415 C   0  0  2  0  0  0  0  0  0  0  0  0
   44.0172   10.7393   14.1477 O   0  0  0  0  0  0  0  0  0  0  0  0
   43.7362   13.1640   14.4658 C   0  0  2  0  0  0  0  0  0  0  0  0
   42.3789   12.9548   14.9836 O   0  0  0  0  0  0  0  0  0  0  0  0
   43.6770   13.3924   12.9437 C   0  0  1  0  0  0  0  0  0  0  0  0
   42.8837   14.5506   12.6580 O   0  0  0  0  0  0  0  0  0  0  0  0
   45.1107   13.6064   12.4339 C   0  0  2  0  0  0  0  0  0  0  0  0
   45.0840   13.8117   11.0049 O   0  0  0  0  0  0  0  0  0  0  0  0
   45.9471   12.3415   12.7719 C   0  0  2  0  0  0  0  0  0  0  0  0
   45.9582   12.1220   14.2158 O   0  0  0  0  0  0  0  0  0  0  0  0
   47.3940   12.5614   12.2940 C   0  0  0  0  0  0  0  0  0  0  0  0
   47.4338   12.7475   10.8739 O   0  0  0  0  0  0  0  0  0  0  0  0
  1  2  1  1  0  0  0
  1  3  1  0  0  0  0
  1  4  2  0  0  0  0
  1 16  1  0  0  0  0
  5  6  1  6  0  0  0
  5  7  1  0  0  0  0
  5 14  1  0  0  0  0
  7  8  1  6  0  0  0
  7  9  1  0  0  0  0
  9 10  1  1  0  0  0
  9 11  1  0  0  0  0
 11 12  1  6  0  0  0
 11 13  1  0  0  0  0
 13 14  1  0  0  0  0
 13 15  1  1  0  0  0
 15 16  1  0  0  0  0
M  CHG  1   3  -1
M  END
>  <CHROM.1>
-61.71337772,170.14662887,-57.90113038,46.20619283,12.97375995,12.25529789
0.47732327,0.37067440,-0.83911976

>  <Name>
ligand

>  <RI>
0

>  <Rbt.Current_Directory>
/home/itssahil/PROJECTS/Mol_Feturizer/New_Systems/rnas/2HO7

>  <Rbt.Executable>
rbdock ($Id: //depot/dev/client3/rdock/2013.1/src/exe/rbdock.cxx#4 $)

>  <Rbt.Library>
libRbt.so (2013.1, Build901 2013/11/27)

>  <Rbt.Parameter_File>
/export/apps/rDock/src/rDock_2013.1_src/data/scripts/dock_solv.prm

>  <Rbt.Receptor>
prm/pocket_docking_4.prm

>  <SCORE>
-11.2056

>  <SCORE.INTER>
-11.9432

>  <SCORE.INTER.CONST>
1

>  <SCORE.INTER.POLAR>
-1.29904

>  <SCORE.INTER.ROT>
3

>  <SCORE.INTER.SOLV>
12.5091

>  <SCORE.INTER.VDW>
-13.4017

>  <SCORE.INTER.norm>
-0.746452

>  <SCORE.INTRA>
0.737606

>  <SCORE.INTRA.DIHEDRAL>
0.477603

>  <SCORE.INTRA.DIHEDRAL.0>
0.00893466

>  <SCORE.INTRA.POLAR>
0

>  <SCORE.INTRA.POLAR.0>
0

>  <SCORE.INTRA.REPUL>
0

>  <SCORE.INTRA.REPUL.0>
0

>  <SCORE.INTRA.SOLV>
0.561198

>  <SCORE.INTRA.SOLV.lig_0>
-48.9722

>  <SCORE.INTRA.VDW>
0.218205

>  <SCORE.INTRA.VDW.0>
-0.529409

>  <SCORE.INTRA.norm>
0.0461004

>  <SCORE.RESTR>
0

>  <SCORE.RESTR.CAVITY>
0

>  <SCORE.RESTR.norm>
0

>  <SCORE.SYSTEM>
0

>  <SCORE.SYSTEM.CONST>
0

>  <SCORE.SYSTEM.DIHEDRAL>
0

>  <SCORE.SYSTEM.SOLV>
0

>  <SCORE.SYSTEM.norm>
0

>  <SCORE.heavy>
16

>  <SCORE.norm>
-0.700351

>  <RMSD>
1.209

$$$$
ligand
 OpenBabel11021811433D
libRbt.so/2013.1/901 2013/11/27
 16 16  0  0  0  0  0  0  0  0999 V2000
   49.3837   13.3049   10.8480 P   0  0  2  0  0  0  0  0  0  0  0  0
   49.7841   14.5004   11.6307 O   0  0  0  0  0  0  0  0  0  0  0  0
   50.5453   12.1949   10.9405 O   0  5  0  0  0  0  0  0  0  0  0  0
   49.1798   13.7358    9.3097 O   0  0  0  0  0  0  0  0  0  0  0  0
   44.8555   12.2957   14.1518 C   0  0  2  0  0  0  0  0  0  0  0  0
   44.2711   11.1669   13.4773 O   0  0  0  0  0  0  0  0  0  0  0  0
   43.8305   13.4514   14.2812 C   0  0  2  0  0  0  0  0  0  0  0  0
   42.6396   12.9852   15.0013 O   0  0  0  0  0  0  0  0  0  0  0  0
   43.4299   13.9097   12.8663 C   0  0  1  0  0  0  0  0  0  0  0  0
   42.4861   14.9839   12.9541 O   0  0  0  0  0  0  0  0  0  0  0  0
   44.6963   14.3894   12.1401 C   0  0  2  0  0  0  0  0  0  0  0  0
   44.3492   14.8146   10.8046 O   0  0  0  0  0  0  0  0  0  0  0  0
   45.7035   13.2081   12.0750 C   0  0  2  0  0  0  0  0  0  0  0  0
   46.0399   12.7646   13.4253 O   0  0  0  0  0  0  0  0  0  0  0  0
   46.9888   13.6902   11.3782 C   0  0  0  0  0  0  0  0  0  0  0  0
   48.0065   12.6836   11.4437 O   0  0  0  0  0  0  0  0  0  0  0  0
  1  2  1  1  0  0  0
  1  3  1  0  0  0  0
  1  4  2  0  0  0  0
  1 16  1  0  0  0  0
  5  6  1  6  0  0  0
  5  7  1  0  0  0  0
  5 14  1  0  0  0  0
  7  8  1  6  0  0  0
  7  9  1  0  0  0  0
  9 10  1  1  0  0  0
  9 11  1  0  0  0  0
 11 12  1  6  0  0  0
 11 13  1  0  0  0  0
 13 14  1  0  0  0  0
 13 15  1  1  0  0  0
 15 16  1  0  0  0  0
M  CHG  1   3  -1
M  END
>  <CHROM.1>
172.83755222,-173.63676457,58.98031721,46.29148940,13.36896086,12.16996384
-0.28879669,-0.33903101,2.36533175

>  <Name>
ligand

>  <RI>
0

>  <Rbt.Current_Directory>
/home/itssahil/PROJECTS/Mol_Feturizer/New_Systems/rnas/2HO7

>  <Rbt.Executable>
rbdock ($Id: //depot/dev/client3/rdock/2013.1/src/exe/rbdock.cxx#4 $)

>  <Rbt.Library>
libRbt.so (2013.1, Build901 2013/11/27)

>  <Rbt.Parameter_File>
/export/apps/rDock/src/rDock_2013.1_src/data/scripts/dock_solv.prm

>  <Rbt.Receptor>
prm/pocket_docking_7.prm

>  <SCORE>
-10.2711

>  <SCORE.INTER>
-10.4701

>  <SCORE.INTER.CONST>
1

>  <SCORE.INTER.POLAR>
-1.29904

>  <SCORE.INTER.ROT>
3

>  <SCORE.INTER.SOLV>
11.0821

>  <SCORE.INTER.VDW>
-11.944

>  <SCORE.INTER.norm>
-0.654381

>  <SCORE.INTRA>
0.19897

>  <SCORE.INTRA.DIHEDRAL>
0.375041

>  <SCORE.INTRA.DIHEDRAL.0>
0.00893466

>  <SCORE.INTRA.POLAR>
0

>  <SCORE.INTRA.POLAR.0>
0

>  <SCORE.INTRA.REPUL>
0

>  <SCORE.INTRA.REPUL.0>
0

>  <SCORE.INTRA.SOLV>
0.0118956

>  <SCORE.INTRA.SOLV.lig_0>
-48.9722

>  <SCORE.INTRA.VDW>
0.00550131

>  <SCORE.INTRA.VDW.0>
-0.529409

>  <SCORE.INTRA.norm>
0.0124356

>  <SCORE.RESTR>
0

>  <SCORE.RESTR.CAVITY>
0

>  <SCORE.RESTR.norm>
0

>  <SCORE.SYSTEM>
0

>  <SCORE.SYSTEM.CONST>
0

>  <SCORE.SYSTEM.DIHEDRAL>
0

>  <SCORE.SYSTEM.SOLV>
0

>  <SCORE.SYSTEM.norm>
0

>  <SCORE.heavy>
16

>  <SCORE.norm>
-0.641946

>  <RMSD>
1.210

$$$$
ligand
 OpenBabel11021811433D
libRbt.so/2013.1/901 2013/11/27
 16 16  0  0  0  0  0  0  0  0999 V2000
   48.9150   13.1592   10.4265 P   0  0  2  0  0  0  0  0  0  0  0  0
   49.1961   14.4725   11.0577 O   0  0  0  0  0  0  0  0  0  0  0  0
   50.0255   12.0939   10.8977 O   0  5  0  0  0  0  0  0  0  0  0  0
   48.9829   13.3270    8.8262 O   0  0  0  0  0  0  0  0  0  0  0  0
   44.6596   11.9616   14.8030 C   0  0  2  0  0  0  0  0  0  0  0  0
   44.0654   10.7667   14.2644 O   0  0  0  0  0  0  0  0  0  0  0  0
   43.7865   13.2024   14.4853 C   0  0  2  0  0  0  0  0  0  0  0  0
   42.4350   13.0145   15.0259 O   0  0  0  0  0  0  0  0  0  0  0  0
   43.7107   13.3678   12.9558 C   0  0  1  0  0  0  0  0  0  0  0  0
   42.9137   14.5132   12.6312 O   0  0  0  0  0  0  0  0  0  0  0  0
   45.1387   13.5609   12.4221 C   0  0  2  0  0  0  0  0  0  0  0  0
   45.0965   13.7071   10.9863 O   0  0  0  0  0  0  0  0  0  0  0  0
   45.9795   12.3110   12.8029 C   0  0  2  0  0  0  0  0  0  0  0  0
   46.0063   12.1513   14.2545 O   0  0  0  0  0  0  0  0  0  0  0  0
   47.4210   12.5113   12.3008 C   0  0  0  0  0  0  0  0  0  0  0  0
   47.4465   12.6285   10.8730 O   0  0  0  0  0  0  0  0  0  0  0  0
  1  2  1  1  0  0  0
  1  3  1  0  0  0  0
  1  4  2  0  0  0  0
  1 16  1  0  0  0  0
  5  6  1  6  0  0  0
  5  7  1  0  0  0  0
  5 14  1  0  0  0  0
  7  8  1  6  0  0  0
  7  9  1  0  0  0  0
  9 10  1  1  0  0  0
  9 11  1  0  0  0  0
 11 12  1  6  0  0  0
 11 13  1  0  0  0  0
 13 14  1  0  0  0  0
 13 15  1  1  0  0  0
 15 16  1  0  0  0  0
M  CHG  1   3  -1
M  END
>  <CHROM.1>
-62.15229062,167.67570728,-59.14237772,46.22572263,12.94138978,12.25892276
0.49344811,0.37254175,-0.88157597

>  <Name>
ligand

>  <RI>
0

>  <Rbt.Current_Directory>
/home/itssahil/PROJECTS/Mol_Feturizer/New_Systems/rnas/2HO7

>  <Rbt.Executable>
rbdock ($Id: //depot/dev/client3/rdock/2013.1/src/exe/rbdock.cxx#4 $)

>  <Rbt.Library>
libRbt.so (2013.1, Build901 2013/11/27)

>  <Rbt.Parameter_File>
/export/apps/rDock/src/rDock_2013.1_src/data/scripts/dock_solv.prm

>  <Rbt.Receptor>
prm/pocket_docking_4.prm

>  <SCORE>
-11.1744

>  <SCORE.INTER>
-12.0184

>  <SCORE.INTER.CONST>
1

>  <SCORE.INTER.POLAR>
-1.29904

>  <SCORE.INTER.ROT>
3

>  <SCORE.INTER.SOLV>
12.7126

>  <SCORE.INTER.VDW>
-13.5196

>  <SCORE.INTER.norm>
-0.751147

>  <SCORE.INTRA>
0.843902

>  <SCORE.INTRA.DIHEDRAL>
0.733158

>  <SCORE.INTRA.DIHEDRAL.0>
0.00893466

>  <SCORE.INTRA.POLAR>
0

>  <SCORE.INTRA.POLAR.0>
0

>  <SCORE.INTRA.REPUL>
0

>  <SCORE.INTRA.REPUL.0>
0

>  <SCORE.INTRA.SOLV>
0.594445

>  <SCORE.INTRA.SOLV.lig_0>
-48.9722

>  <SCORE.INTRA.VDW>
0.1801

>  <SCORE.INTRA.VDW.0>
-0.529409

>  <SCORE.INTRA.norm>
0.0527439

>  <SCORE.RESTR>
0

>  <SCORE.RESTR.CAVITY>
0

>  <SCORE.RESTR.norm>
0

>  <SCORE.SYSTEM>
0

>  <SCORE.SYSTEM.CONST>
0

>  <SCORE.SYSTEM.DIHEDRAL>
0

>  <SCORE.SYSTEM.SOLV>
0

>  <SCORE.SYSTEM.norm>
0

>  <SCORE.heavy>
16

>  <SCORE.norm>
-0.698403

>  <RMSD>
1.230

$$$$
ligand
 OpenBabel11021811433D
libRbt.so/2013.1/901 2013/11/27
 16 16  0  0  0  0  0  0  0  0999 V2000
   48.8811   13.3414   10.6477 P   0  0  2  0  0  0  0  0  0  0  0  0
   49.4075   14.3495   11.6010 O   0  0  0  0  0  0  0  0  0  0  0  0
   49.7055   11.9695   10.8150 O   0  5  0  0  0  0  0  0  0  0  0  0
   49.0698   13.8969    9.1479 O   0  0  0  0  0  0  0  0  0  0  0  0
   44.2424   11.5072   14.3864 C   0  0  2  0  0  0  0  0  0  0  0  0
   43.6129   10.5826   13.4811 O   0  0  0  0  0  0  0  0  0  0  0  0
   43.4667   12.8486   14.4314 C   0  0  2  0  0  0  0  0  0  0  0  0
   42.0751   12.6083   14.8311 O   0  0  0  0  0  0  0  0  0  0  0  0
   43.4973   13.4780   13.0259 C   0  0  1  0  0  0  0  0  0  0  0  0
   42.7921   14.7250   13.0381 O   0  0  0  0  0  0  0  0  0  0  0  0
   44.9650   13.7152   12.6376 C   0  0  2  0  0  0  0  0  0  0  0  0
   45.0219   14.2953   11.3166 O   0  0  0  0  0  0  0  0  0  0  0  0
   45.7039   12.3485   12.6484 C   0  0  2  0  0  0  0  0  0  0  0  0
   45.6298   11.7521   13.9795 O   0  0  0  0  0  0  0  0  0  0  0  0
   47.1835   12.5820   12.2928 C   0  0  0  0  0  0  0  0  0  0  0  0
   47.3103   13.0572   10.9470 O   0  0  0  0  0  0  0  0  0  0  0  0
  1  2  1  1  0  0  0
  1  3  1  0  0  0  0
  1  4  2  0  0  0  0
  1 16  1  0  0  0  0
  5  6  1  6  0  0  0
  5  7  1  0  0  0  0
  5 14  1  0  0  0  0
  7  8  1  6  0  0  0
  7  9  1  0  0  0  0
  9 10  1  1  0  0  0
  9 11  1  0  0  0  0
 11 12  1  6  0  0  0
 11 13  1  0  0  0  0
 13 14  1  0  0  0  0
 13 15  1  1  0  0  0
 15 16  1  0  0  0  0
M  CHG  1   3  -1
M  END
>  <CHROM.1>
-65.34077956,177.77596587,-59.24877146,46.03960167,12.97694194,12.28949378
-0.36224275,-0.41056577,2.59133620

>  <Name>
ligand

>  <RI>
0

>  <Rbt.Current_Directory>
/home/itssahil/PROJECTS/Mol_Feturizer/New_Systems/rnas/2HO7

>  <Rbt.Executable>
rbdock ($Id: //depot/dev/client3/rdock/2013.1/src/exe/rbdock.cxx#4 $)

>  <Rbt.Library>
libRbt.so (2013.1, Build901 2013/11/27)

>  <Rbt.Parameter_File>
/export/apps/rDock/src/rDock_2013.1_src/data/scripts/dock_solv.prm

>  <Rbt.Receptor>
prm/pocket_docking_4.prm

>  <SCORE>
-10.4133

>  <SCORE.INTER>
-10.8583

>  <SCORE.INTER.CONST>
1

>  <SCORE.INTER.POLAR>
-1.2985

>  <SCORE.INTER.ROT>
3

>  <SCORE.INTER.SOLV>
12.3142

>  <SCORE.INTER.VDW>
-12.6153

>  <SCORE.INTER.norm>
-0.678645

>  <SCORE.INTRA>
0.445007

>  <SCORE.INTRA.DIHEDRAL>
0.119439

>  <SCORE.INTRA.DIHEDRAL.0>
0.00893466

>  <SCORE.INTRA.POLAR>
0

>  <SCORE.INTRA.POLAR.0>
0

>  <SCORE.INTRA.REPUL>
0

>  <SCORE.INTRA.REPUL.0>
0

>  <SCORE.INTRA.SOLV>
0.487031

>  <SCORE.INTRA.SOLV.lig_0>
-48.9722

>  <SCORE.INTRA.VDW>
0.141772

>  <SCORE.INTRA.VDW.0>
-0.529409

>  <SCORE.INTRA.norm>
0.027813

>  <SCORE.RESTR>
0

>  <SCORE.RESTR.CAVITY>
0

>  <SCORE.RESTR.norm>
0

>  <SCORE.SYSTEM>
0

>  <SCORE.SYSTEM.CONST>
0

>  <SCORE.SYSTEM.DIHEDRAL>
0

>  <SCORE.SYSTEM.SOLV>
0

>  <SCORE.SYSTEM.norm>
0

>  <SCORE.heavy>
16

>  <SCORE.norm>
-0.650832

>  <RMSD>
1.238

$$$$
ligand
 OpenBabel11021811433D
libRbt.so/2013.1/901 2013/11/27
 16 16  0  0  0  0  0  0  0  0999 V2000
   49.2437   12.9250   11.2765 P   0  0  2  0  0  0  0  0  0  0  0  0
   48.9354   12.8122    9.8292 O   0  0  0  0  0  0  0  0  0  0  0  0
   49.5210   14.4673   11.6427 O   0  5  0  0  0  0  0  0  0  0  0  0
   50.5616   12.0563   11.5958 O   0  0  0  0  0  0  0  0  0  0  0  0
   44.5408   12.4999   14.6479 C   0  0  2  0  0  0  0  0  0  0  0  0
   44.4675   11.0629   14.6657 O   0  0  0  0  0  0  0  0  0  0  0  0
   43.2353   13.1112   14.0777 C   0  0  2  0  0  0  0  0  0  0  0  0
   42.0857   12.6673   14.8748 O   0  0  0  0  0  0  0  0  0  0  0  0
   43.0677   12.6347   12.6226 C   0  0  1  0  0  0  0  0  0  0  0  0
   41.8701   13.1901   12.0659 O   0  0  0  0  0  0  0  0  0  0  0  0
   44.2854   13.1135   11.8170 C   0  0  2  0  0  0  0  0  0  0  0  0
   44.1580   12.6691   10.4491 O   0  0  0  0  0  0  0  0  0  0  0  0
   45.5662   12.5072   12.4540 C   0  0  2  0  0  0  0  0  0  0  0  0
   45.6852   12.9406   13.8437 O   0  0  0  0  0  0  0  0  0  0  0  0
   46.7940   13.0091   11.6726 C   0  0  0  0  0  0  0  0  0  0  0  0
   47.9901   12.3868   12.1576 O   0  0  0  0  0  0  0  0  0  0  0  0
  1  2  1  6  0  0  0
  1  3  1  0  0  0  0
  1  4  2  0  0  0  0
  1 16  1  0  0  0  0
  5  6  1  6  0  0  0
  5  7  1  0  0  0  0
  5 14  1  0  0  0  0
  7  8  1  1  0  0  0
  7  9  1  0  0  0  0
  9 10  1  6  0  0  0
  9 11  1  0  0  0  0
 11 12  1  6  0  0  0
 11 13  1  0  0  0  0
 13 14  1  0  0  0  0
 13 15  1  6  0  0  0
 15 16  1  0  0  0  0
M  CHG  1   3  -1
M  END
>  <CHROM.1>
-175.23129111,178.66112797,-49.43224501,46.04277709,12.76028478,12.37837725
-0.35106966,-0.03645837,1.79793254

>  <Name>
ligand

>  <RI>
0

>  <Rbt.Current_Directory>
/home/itssahil/PROJECTS/Mol_Feturizer/New_Systems/rnas/2HO7

>  <Rbt.Executable>
rbdock ($Id: //depot/dev/client3/rdock/2013.1/src/exe/rbdock.cxx#4 $)

>  <Rbt.Library>
libRbt.so (2013.1, Build901 2013/11/27)

>  <Rbt.Parameter_File>
/export/apps/rDock/src/rDock_2013.1_src/data/scripts/dock_solv.prm

>  <Rbt.Receptor>
prm/pocket_docking_3.prm

>  <SCORE>
-9.73267

>  <SCORE.INTER>
-9.95078

>  <SCORE.INTER.CONST>
1

>  <SCORE.INTER.POLAR>
-1.29904

>  <SCORE.INTER.ROT>
3

>  <SCORE.INTER.SOLV>
15.6466

>  <SCORE.INTER.VDW>
-13.1193

>  <SCORE.INTER.norm>
-0.621924

>  <SCORE.INTRA>
0.21811

>  <SCORE.INTRA.DIHEDRAL>
0.25968

>  <SCORE.INTRA.DIHEDRAL.0>
0.00893466

>  <SCORE.INTRA.POLAR>
0

>  <SCORE.INTRA.POLAR.0>
0

>  <SCORE.INTRA.REPUL>
0

>  <SCORE.INTRA.REPUL.0>
0

>  <SCORE.INTRA.SOLV>
-0.119608

>  <SCORE.INTRA.SOLV.lig_0>
-48.9722

>  <SCORE.INTRA.VDW>
0.148074

>  <SCORE.INTRA.VDW.0>
-0.529409

>  <SCORE.INTRA.norm>
0.0136319

>  <SCORE.RESTR>
0

>  <SCORE.RESTR.CAVITY>
0

>  <SCORE.RESTR.norm>
0

>  <SCORE.SYSTEM>
0

>  <SCORE.SYSTEM.CONST>
0

>  <SCORE.SYSTEM.DIHEDRAL>
0

>  <SCORE.SYSTEM.SOLV>
0

>  <SCORE.SYSTEM.norm>
0

>  <SCORE.heavy>
16

>  <SCORE.norm>
-0.608292

>  <RMSD>
1.258

$$$$
ligand
 OpenBabel11021811433D
libRbt.so/2013.1/901 2013/11/27
 16 16  0  0  0  0  0  0  0  0999 V2000
   49.1525   13.3357   11.0823 P   0  0  2  0  0  0  0  0  0  0  0  0
   49.9023   14.5952   11.3140 O   0  0  0  0  0  0  0  0  0  0  0  0
   50.1478   12.0837   11.2601 O   0  5  0  0  0  0  0  0  0  0  0  0
   48.5720   13.3458    9.5801 O   0  0  0  0  0  0  0  0  0  0  0  0
   44.6966   11.8882   14.6537 C   0  0  2  0  0  0  0  0  0  0  0  0
   43.7802   10.9035   14.1427 O   0  0  0  0  0  0  0  0  0  0  0  0
   44.0857   13.3100   14.5608 C   0  0  2  0  0  0  0  0  0  0  0  0
   42.8181   13.3587   15.2989 O   0  0  0  0  0  0  0  0  0  0  0  0
   43.8304   13.6359   13.0772 C   0  0  1  0  0  0  0  0  0  0  0  0
   43.2707   14.9494   12.9591 O   0  0  0  0  0  0  0  0  0  0  0  0
   45.1740   13.5754   12.3340 C   0  0  2  0  0  0  0  0  0  0  0  0
   44.9601   13.8665   10.9360 O   0  0  0  0  0  0  0  0  0  0  0  0
   45.7607   12.1456   12.4936 C   0  0  2  0  0  0  0  0  0  0  0  0
   45.9589   11.8431   13.9087 O   0  0  0  0  0  0  0  0  0  0  0  0
   47.1233   12.0862   11.7797 C   0  0  0  0  0  0  0  0  0  0  0  0
   47.9376   13.2048   12.1522 O   0  0  0  0  0  0  0  0  0  0  0  0
  1  2  1  1  0  0  0
  1  3  1  0  0  0  0
  1  4  2  0  0  0  0
  1 16  1  0  0  0  0
  5  6  1  6  0  0  0
  5  7  1  0  0  0  0
  5 14  1  0  0  0  0
  7  8  1  1  0  0  0
  7  9  1  0  0  0  0
  9 10  1  1  0  0  0
  9 11  1  0  0  0  0
 11 12  1  6  0  0  0
 11 13  1  0  0  0  0
 13 14  1  0  0  0  0
 13 15  1  6  0  0  0
 15 16  1  0  0  0  0
M  CHG  1   3  -1
M  END
>  <CHROM.1>
48.19560994,-163.90109235,171.71781686,46.32647536,13.04013729,12.46439856
0.35677481,0.38531927,-0.68175665

>  <Name>
ligand

>  <RI>
0

>  <Rbt.Current_Directory>
/home/itssahil/PROJECTS/Mol_Feturizer/New_Systems/rnas/2HO7

>  <Rbt.Executable>
rbdock ($Id: //depot/dev/client3/rdock/2013.1/src/exe/rbdock.cxx#4 $)

>  <Rbt.Library>
libRbt.so (2013.1, Build901 2013/11/27)

>  <Rbt.Parameter_File>
/export/apps/rDock/src/rDock_2013.1_src/data/scripts/dock_solv.prm

>  <Rbt.Receptor>
prm/pocket_docking_3.prm

>  <SCORE>
-10.2967

>  <SCORE.INTER>
-11.8714

>  <SCORE.INTER.CONST>
1

>  <SCORE.INTER.POLAR>
-1.29321

>  <SCORE.INTER.ROT>
3

>  <SCORE.INTER.SOLV>
13.0212

>  <SCORE.INTER.VDW>
-13.544

>  <SCORE.INTER.norm>
-0.741962

>  <SCORE.INTRA>
1.56592

>  <SCORE.INTRA.DIHEDRAL>
1.79734

>  <SCORE.INTRA.DIHEDRAL.0>
0.00893466

>  <SCORE.INTRA.POLAR>
0

>  <SCORE.INTRA.POLAR.0>
0

>  <SCORE.INTRA.REPUL>
0

>  <SCORE.INTRA.REPUL.0>
0

>  <SCORE.INTRA.SOLV>
1.54326

>  <SCORE.INTRA.SOLV.lig_0>
-48.9722

>  <SCORE.INTRA.VDW>
-0.104375

>  <SCORE.INTRA.VDW.0>
-0.529409

>  <SCORE.INTRA.norm>
0.0978703

>  <SCORE.RESTR>
0.00876814

>  <SCORE.RESTR.CAVITY>
0.00876814

>  <SCORE.RESTR.norm>
0.000548009

>  <SCORE.SYSTEM>
0

>  <SCORE.SYSTEM.CONST>
0

>  <SCORE.SYSTEM.DIHEDRAL>
0

>  <SCORE.SYSTEM.SOLV>
0

>  <SCORE.SYSTEM.norm>
0

>  <SCORE.heavy>
16

>  <SCORE.norm>
-0.643544

>  <RMSD>
1.263

$$$$
ligand
 OpenBabel11021811433D
libRbt.so/2013.1/901 2013/11/27
 16 16  0  0  0  0  0  0  0  0999 V2000
   49.6996   13.0823   11.4899 P   0  0  2  0  0  0  0  0  0  0  0  0
   50.4930   11.9042   11.9198 O   0  0  0  0  0  0  0  0  0  0  0  0
   49.5177   13.0465    9.8913 O   0  5  0  0  0  0  0  0  0  0  0  0
   50.4914   14.4215   11.9061 O   0  0  0  0  0  0  0  0  0  0  0  0
   44.9666   11.9776   14.5728 C   0  0  2  0  0  0  0  0  0  0  0  0
   44.3800   10.6708   14.4352 O   0  0  0  0  0  0  0  0  0  0  0  0
   44.0533   13.0606   13.9435 C   0  0  2  0  0  0  0  0  0  0  0  0
   42.7285   13.0254   14.5741 O   0  0  0  0  0  0  0  0  0  0  0  0
   43.9146   12.7679   12.4377 C   0  0  1  0  0  0  0  0  0  0  0  0
   43.0793   13.7584   11.8265 O   0  0  0  0  0  0  0  0  0  0  0  0
   45.3160   12.8109   11.8089 C   0  0  2  0  0  0  0  0  0  0  0  0
   45.2149   12.5277   10.3966 O   0  0  0  0  0  0  0  0  0  0  0  0
   46.1997   11.7375   12.5024 C   0  0  2  0  0  0  0  0  0  0  0  0
   46.2863   12.0121   13.9343 O   0  0  0  0  0  0  0  0  0  0  0  0
   47.6156   11.7967   11.9010 C   0  0  0  0  0  0  0  0  0  0  0  0
   48.2354   13.0553   12.1920 O   0  0  0  0  0  0  0  0  0  0  0  0
  1  2  1  1  0  0  0
  1  3  1  0  0  0  0
  1  4  2  0  0  0  0
  1 16  1  0  0  0  0
  5  6  1  6  0  0  0
  5  7  1  0  0  0  0
  5 14  1  0  0  0  0
  7  8  1  1  0  0  0
  7  9  1  0  0  0  0
  9 10  1  6  0  0  0
  9 11  1  0  0  0  0
 11 12  1  6  0  0  0
 11 13  1  0  0  0  0
 13 14  1  0  0  0  0
 13 15  1  6  0  0  0
 15 16  1  0  0  0  0
M  CHG  1   3  -1
M  END
>  <CHROM.1>
64.34181431,-177.96092180,-54.59779066,46.66047456,12.64572777,12.39581854
-0.34149128,-0.06761072,2.00134656

>  <Name>
ligand

>  <RI>
0

>  <Rbt.Current_Directory>
/home/itssahil/PROJECTS/Mol_Feturizer/New_Systems/rnas/2HO7

>  <Rbt.Executable>
rbdock ($Id: //depot/dev/client3/rdock/2013.1/src/exe/rbdock.cxx#4 $)

>  <Rbt.Library>
libRbt.so (2013.1, Build901 2013/11/27)

>  <Rbt.Parameter_File>
/export/apps/rDock/src/rDock_2013.1_src/data/scripts/dock_solv.prm

>  <Rbt.Receptor>
prm/pocket_docking_2.prm

>  <SCORE>
-9.72221

>  <SCORE.INTER>
-9.86582

>  <SCORE.INTER.CONST>
1

>  <SCORE.INTER.POLAR>
-1.03905

>  <SCORE.INTER.ROT>
3

>  <SCORE.INTER.SOLV>
12.9434

>  <SCORE.INTER.VDW>
-13.0282

>  <SCORE.INTER.norm>
-0.616614

>  <SCORE.INTRA>
0.143611

>  <SCORE.INTRA.DIHEDRAL>
0.126486

>  <SCORE.INTRA.DIHEDRAL.0>
0.00893466

>  <SCORE.INTRA.POLAR>
0

>  <SCORE.INTRA.POLAR.0>
0

>  <SCORE.INTRA.REPUL>
0

>  <SCORE.INTRA.REPUL.0>
0

>  <SCORE.INTRA.SOLV>
0.266746

>  <SCORE.INTRA.SOLV.lig_0>
-48.9722

>  <SCORE.INTRA.VDW>
-0.0530048

>  <SCORE.INTRA.VDW.0>
-0.529409

>  <SCORE.INTRA.norm>
0.00897572

>  <SCORE.RESTR>
0

>  <SCORE.RESTR.CAVITY>
0

>  <SCORE.RESTR.norm>
0

>  <SCORE.SYSTEM>
0

>  <SCORE.SYSTEM.CONST>
0

>  <SCORE.SYSTEM.DIHEDRAL>
0

>  <SCORE.SYSTEM.SOLV>
0

>  <SCORE.SYSTEM.norm>
0

>  <SCORE.heavy>
16

>  <SCORE.norm>
-0.607638

>  <RMSD>
1.265

$$$$
ligand
 OpenBabel11021811433D
libRbt.so/2013.1/901 2013/11/27
 16 16  0  0  0  0  0  0  0  0999 V2000
   49.2790   12.9804   10.6695 P   0  0  2  0  0  0  0  0  0  0  0  0
   48.9238   12.7251    9.2515 O   0  0  0  0  0  0  0  0  0  0  0  0
   49.5049   14.5591   10.8854 O   0  5  0  0  0  0  0  0  0  0  0  0
   50.6425   12.1952   11.0128 O   0  0  0  0  0  0  0  0  0  0  0  0
   44.7974   12.5112   14.3478 C   0  0  2  0  0  0  0  0  0  0  0  0
   44.6763   11.0793   14.2712 O   0  0  0  0  0  0  0  0  0  0  0  0
   43.4807   13.1998   13.9060 C   0  0  2  0  0  0  0  0  0  0  0  0
   42.3681   12.7348   14.7426 O   0  0  0  0  0  0  0  0  0  0  0  0
   43.2072   12.8330   12.4353 C   0  0  1  0  0  0  0  0  0  0  0  0
   41.9972   13.4618   11.9960 O   0  0  0  0  0  0  0  0  0  0  0  0
   44.3884   13.3315   11.5882 C   0  0  2  0  0  0  0  0  0  0  0  0
   44.1616   12.9892   10.2039 O   0  0  0  0  0  0  0  0  0  0  0  0
   45.6848   12.6437   12.0985 C   0  0  2  0  0  0  0  0  0  0  0  0
   45.9042   12.9737   13.5043 O   0  0  0  0  0  0  0  0  0  0  0  0
   46.8783   13.1632   11.2765 C   0  0  0  0  0  0  0  0  0  0  0  0
   48.0812   12.4770   11.6440 O   0  0  0  0  0  0  0  0  0  0  0  0
  1  2  1  6  0  0  0
  1  3  1  0  0  0  0
  1  4  2  0  0  0  0
  1 16  1  0  0  0  0
  5  6  1  6  0  0  0
  5  7  1  0  0  0  0
  5 14  1  0  0  0  0
  7  8  1  1  0  0  0
  7  9  1  0  0  0  0
  9 10  1  6  0  0  0
  9 11  1  0  0  0  0
 11 12  1  6  0  0  0
 11 13  1  0  0  0  0
 13 14  1  0  0  0  0
 13 15  1  6  0  0  0
 15 16  1  0  0  0  0
M  CHG  1   3  -1
M  END
>  <CHROM.1>
-175.48970841,175.64446682,-57.97043633,46.15797114,12.86832924,11.99132957
-0.40987360,-0.09467547,1.86570746

>  <Name>
ligand

>  <RI>
0

>  <Rbt.Current_Directory>
/home/itssahil/PROJECTS/Mol_Feturizer/New_Systems/rnas/2HO7

>  <Rbt.Executable>
rbdock ($Id: //depot/dev/client3/rdock/2013.1/src/exe/rbdock.cxx#4 $)

>  <Rbt.Library>
libRbt.so (2013.1, Build901 2013/11/27)

>  <Rbt.Parameter_File>
/export/apps/rDock/src/rDock_2013.1_src/data/scripts/dock_solv.prm

>  <Rbt.Receptor>
prm/pocket_docking_5.prm

>  <SCORE>
-9.4112

>  <SCORE.INTER>
-9.50095

>  <SCORE.INTER.CONST>
1

>  <SCORE.INTER.POLAR>
-1.29904

>  <SCORE.INTER.ROT>
3

>  <SCORE.INTER.SOLV>
11.6116

>  <SCORE.INTER.VDW>
-11.4744

>  <SCORE.INTER.norm>
-0.59381

>  <SCORE.INTRA>
0.0897539

>  <SCORE.INTRA.DIHEDRAL>
0.163921

>  <SCORE.INTRA.DIHEDRAL.0>
0.00893466

>  <SCORE.INTRA.POLAR>
0

>  <SCORE.INTRA.POLAR.0>
0

>  <SCORE.INTRA.REPUL>
0

>  <SCORE.INTRA.REPUL.0>
0

>  <SCORE.INTRA.SOLV>
-0.0574334

>  <SCORE.INTRA.SOLV.lig_0>
-48.9722

>  <SCORE.INTRA.VDW>
0.0365101

>  <SCORE.INTRA.VDW.0>
-0.529409

>  <SCORE.INTRA.norm>
0.00560962

>  <SCORE.RESTR>
0

>  <SCORE.RESTR.CAVITY>
0

>  <SCORE.RESTR.norm>
0

>  <SCORE.SYSTEM>
0

>  <SCORE.SYSTEM.CONST>
0

>  <SCORE.SYSTEM.DIHEDRAL>
0

>  <SCORE.SYSTEM.SOLV>
0

>  <SCORE.SYSTEM.norm>
0

>  <SCORE.heavy>
16

>  <SCORE.norm>
-0.5882

>  <RMSD>
1.273

$$$$
ligand
 OpenBabel11021811433D
libRbt.so/2013.1/901 2013/11/27
 16 16  0  0  0  0  0  0  0  0999 V2000
   49.8120   13.1012   11.5685 P   0  0  2  0  0  0  0  0  0  0  0  0
   50.5706   11.8898   11.9675 O   0  0  0  0  0  0  0  0  0  0  0  0
   49.6680   13.1349    9.9660 O   0  5  0  0  0  0  0  0  0  0  0  0
   50.6206   14.4050   12.0583 O   0  0  0  0  0  0  0  0  0  0  0  0
   44.9722   11.7982   14.4760 C   0  0  2  0  0  0  0  0  0  0  0  0
   44.2976   10.5799   14.1136 O   0  0  0  0  0  0  0  0  0  0  0  0
   44.1607   13.0356   14.0142 C   0  0  2  0  0  0  0  0  0  0  0  0
   42.8167   13.0003   14.6029 O   0  0  0  0  0  0  0  0  0  0  0  0
   44.0509   13.0024   12.4782 C   0  0  1  0  0  0  0  0  0  0  0  0
   43.3099   14.1399   12.0207 O   0  0  0  0  0  0  0  0  0  0  0  0
   45.4718   13.0392   11.8941 C   0  0  2  0  0  0  0  0  0  0  0  0
   45.3970   12.9974   10.4528 O   0  0  0  0  0  0  0  0  0  0  0  0
   46.2523   11.8031   12.4203 C   0  0  2  0  0  0  0  0  0  0  0  0
   46.3113   11.8346   13.8793 O   0  0  0  0  0  0  0  0  0  0  0  0
   47.6878   11.8504   11.8662 C   0  0  0  0  0  0  0  0  0  0  0  0
   48.3310   13.0767   12.2346 O   0  0  0  0  0  0  0  0  0  0  0  0
  1  2  1  1  0  0  0
  1  3  1  0  0  0  0
  1  4  2  0  0  0  0
  1 16  1  0  0  0  0
  5  6  1  6  0  0  0
  5  7  1  0  0  0  0
  5 14  1  0  0  0  0
  7  8  1  1  0  0  0
  7  9  1  0  0  0  0
  9 10  1  6  0  0  0
  9 11  1  0  0  0  0
 11 12  1  6  0  0  0
 11 13  1  0  0  0  0
 13 14  1  0  0  0  0
 13 15  1  6  0  0  0
 15 16  1  0  0  0  0
M  CHG  1   3  -1
M  END
>  <CHROM.1>
57.05820214,-177.44097680,-55.16286807,46.75804804,12.70767990,12.41822670
-0.31178818,-0.13058218,2.19093621

>  <Name>
ligand

>  <RI>
0

>  <Rbt.Current_Directory>
/home/itssahil/PROJECTS/Mol_Feturizer/New_Systems/rnas/2HO7

>  <Rbt.Executable>
rbdock ($Id: //depot/dev/client3/rdock/2013.1/src/exe/rbdock.cxx#4 $)

>  <Rbt.Library>
libRbt.so (2013.1, Build901 2013/11/27)

>  <Rbt.Parameter_File>
/export/apps/rDock/src/rDock_2013.1_src/data/scripts/dock_solv.prm

>  <Rbt.Receptor>
prm/pocket_docking_2.prm

>  <SCORE>
-9.60272

>  <SCORE.INTER>
-9.79316

>  <SCORE.INTER.CONST>
1

>  <SCORE.INTER.POLAR>
-1.02814

>  <SCORE.INTER.ROT>
3

>  <SCORE.INTER.SOLV>
12.4227

>  <SCORE.INTER.VDW>
-12.8426

>  <SCORE.INTER.norm>
-0.612073

>  <SCORE.INTRA>
0.187293

>  <SCORE.INTRA.DIHEDRAL>
0.0928244

>  <SCORE.INTRA.DIHEDRAL.0>
0.00893466

>  <SCORE.INTRA.POLAR>
0

>  <SCORE.INTRA.POLAR.0>
0

>  <SCORE.INTRA.REPUL>
0

>  <SCORE.INTRA.REPUL.0>
0

>  <SCORE.INTRA.SOLV>
0.314397

>  <SCORE.INTRA.SOLV.lig_0>
-48.9722

>  <SCORE.INTRA.VDW>
-0.0163182

>  <SCORE.INTRA.VDW.0>
-0.529409

>  <SCORE.INTRA.norm>
0.0117058

>  <SCORE.RESTR>
0.00314743

>  <SCORE.RESTR.CAVITY>
0.00314743

>  <SCORE.RESTR.norm>
0.000196715

>  <SCORE.SYSTEM>
0

>  <SCORE.SYSTEM.CONST>
0

>  <SCORE.SYSTEM.DIHEDRAL>
0

>  <SCORE.SYSTEM.SOLV>
0

>  <SCORE.SYSTEM.norm>
0

>  <SCORE.heavy>
16

>  <SCORE.norm>
-0.60017

>  <RMSD>
1.282

$$$$
ligand
 OpenBabel11021811433D
libRbt.so/2013.1/901 2013/11/27
 16 16  0  0  0  0  0  0  0  0999 V2000
   49.6008   13.2138   11.3358 P   0  0  2  0  0  0  0  0  0  0  0  0
   49.3341   13.1408    9.8778 O   0  0  0  0  0  0  0  0  0  0  0  0
   50.3244   14.6107   11.6749 O   0  5  0  0  0  0  0  0  0  0  0  0
   50.5720   11.9970   11.7476 O   0  0  0  0  0  0  0  0  0  0  0  0
   44.9560   11.9906   14.5878 C   0  0  2  0  0  0  0  0  0  0  0  0
   44.3767   10.6816   14.4405 O   0  0  0  0  0  0  0  0  0  0  0  0
   44.0426   13.0717   13.9554 C   0  0  2  0  0  0  0  0  0  0  0  0
   42.7130   13.0278   14.5753 O   0  0  0  0  0  0  0  0  0  0  0  0
   43.9172   12.7841   12.4474 C   0  0  1  0  0  0  0  0  0  0  0  0
   43.0821   13.7730   11.8334 O   0  0  0  0  0  0  0  0  0  0  0  0
   45.3234   12.8361   11.8299 C   0  0  2  0  0  0  0  0  0  0  0  0
   45.2348   12.5579   10.4158 O   0  0  0  0  0  0  0  0  0  0  0  0
   46.2066   11.7642   12.5264 C   0  0  2  0  0  0  0  0  0  0  0  0
   46.2806   12.0338   13.9599 O   0  0  0  0  0  0  0  0  0  0  0  0
   47.6270   11.8325   11.9365 C   0  0  0  0  0  0  0  0  0  0  0  0
   48.2064   13.1232   12.1633 O   0  0  0  0  0  0  0  0  0  0  0  0
  1  2  1  6  0  0  0
  1  3  1  0  0  0  0
  1  4  2  0  0  0  0
  1 16  1  0  0  0  0
  5  6  1  6  0  0  0
  5  7  1  0  0  0  0
  5 14  1  0  0  0  0
  7  8  1  1  0  0  0
  7  9  1  0  0  0  0
  9 10  1  6  0  0  0
  9 11  1  0  0  0  0
 11 12  1  6  0  0  0
 11 13  1  0  0  0  0
 13 14  1  0  0  0  0
 13 15  1  6  0  0  0
 15 16  1  0  0  0  0
M  CHG  1   3  -1
M  END
>  <CHROM.1>
60.66488318,-171.66072547,64.64541250,46.62979938,12.70143346,12.35877472
-0.37213305,-0.08265830,2.05243830

>  <Name>
ligand

>  <RI>
0

>  <Rbt.Current_Directory>
/home/itssahil/PROJECTS/Mol_Feturizer/New_Systems/rnas/2HO7

>  <Rbt.Executable>
rbdock ($Id: //depot/dev/client3/rdock/2013.1/src/exe/rbdock.cxx#4 $)

>  <Rbt.Library>
libRbt.so (2013.1, Build901 2013/11/27)

>  <Rbt.Parameter_File>
/export/apps/rDock/src/rDock_2013.1_src/data/scripts/dock_solv.prm

>  <Rbt.Receptor>
prm/pocket_docking_2.prm

>  <SCORE>
-10.4882

>  <SCORE.INTER>
-10.669

>  <SCORE.INTER.CONST>
1

>  <SCORE.INTER.POLAR>
-1.29904

>  <SCORE.INTER.ROT>
3

>  <SCORE.INTER.SOLV>
13.7749

>  <SCORE.INTER.VDW>
-12.9742

>  <SCORE.INTER.norm>
-0.666813

>  <SCORE.INTRA>
0.180158

>  <SCORE.INTRA.DIHEDRAL>
0.365431

>  <SCORE.INTRA.DIHEDRAL.0>
0.00893466

>  <SCORE.INTRA.POLAR>
0

>  <SCORE.INTRA.POLAR.0>
0

>  <SCORE.INTRA.REPUL>
0

>  <SCORE.INTRA.REPUL.0>
0

>  <SCORE.INTRA.SOLV>
0.271965

>  <SCORE.INTRA.SOLV.lig_0>
-48.9722

>  <SCORE.INTRA.VDW>
-0.13854

>  <SCORE.INTRA.VDW.0>
-0.529409

>  <SCORE.INTRA.norm>
0.0112599

>  <SCORE.RESTR>
0.000615514

>  <SCORE.RESTR.CAVITY>
0.000615514

>  <SCORE.RESTR.norm>
3.84696e-05

>  <SCORE.SYSTEM>
0

>  <SCORE.SYSTEM.CONST>
0

>  <SCORE.SYSTEM.DIHEDRAL>
0

>  <SCORE.SYSTEM.SOLV>
0

>  <SCORE.SYSTEM.norm>
0

>  <SCORE.heavy>
16

>  <SCORE.norm>
-0.655515

>  <RMSD>
1.285

$$$$
ligand
 OpenBabel11021811433D
libRbt.so/2013.1/901 2013/11/27
 16 16  0  0  0  0  0  0  0  0999 V2000
   49.8165   13.0995   11.5742 P   0  0  2  0  0  0  0  0  0  0  0  0
   50.5788   11.8882   11.9664 O   0  0  0  0  0  0  0  0  0  0  0  0
   49.6657   13.1377    9.9725 O   0  5  0  0  0  0  0  0  0  0  0  0
   50.6249   14.4032   12.0645 O   0  0  0  0  0  0  0  0  0  0  0  0
   44.9867   11.8071   14.5166 C   0  0  2  0  0  0  0  0  0  0  0  0
   44.3271   10.5727   14.1821 O   0  0  0  0  0  0  0  0  0  0  0  0
   44.1647   13.0235   14.0190 C   0  0  2  0  0  0  0  0  0  0  0  0
   42.8179   12.9888   14.6013 O   0  0  0  0  0  0  0  0  0  0  0  0
   44.0638   12.9498   12.4838 C   0  0  1  0  0  0  0  0  0  0  0  0
   43.3133   14.0672   11.9934 O   0  0  0  0  0  0  0  0  0  0  0  0
   45.4873   12.9869   11.9064 C   0  0  2  0  0  0  0  0  0  0  0  0
   45.4210   12.9074   10.4663 O   0  0  0  0  0  0  0  0  0  0  0  0
   46.2780   11.7731   12.4682 C   0  0  2  0  0  0  0  0  0  0  0  0
   46.3286   11.8425   13.9262 O   0  0  0  0  0  0  0  0  0  0  0  0
   47.7160   11.8217   11.9206 C   0  0  0  0  0  0  0  0  0  0  0  0
   48.3384   13.0704   12.2465 O   0  0  0  0  0  0  0  0  0  0  0  0
  1  2  1  1  0  0  0
  1  3  1  0  0  0  0
  1  4  2  0  0  0  0
  1 16  1  0  0  0  0
  5  6  1  6  0  0  0
  5  7  1  0  0  0  0
  5 14  1  0  0  0  0
  7  8  1  1  0  0  0
  7  9  1  0  0  0  0
  9 10  1  6  0  0  0
  9 11  1  0  0  0  0
 11 12  1  6  0  0  0
 11 13  1  0  0  0  0
 13 14  1  0  0  0  0
 13 15  1  6  0  0  0
 15 16  1  0  0  0  0
M  CHG  1   3  -1
M  END
>  <CHROM.1>
56.33808531,-176.82061682,-52.92908453,46.76973195,12.68745727,12.43538708
-0.31909709,-0.12074873,2.16790725

>  <Name>
ligand

>  <RI>
0

>  <Rbt.Current_Directory>
/home/itssahil/PROJECTS/Mol_Feturizer/New_Systems/rnas/2HO7

>  <Rbt.Executable>
rbdock ($Id: //depot/dev/client3/rdock/2013.1/src/exe/rbdock.cxx#4 $)

>  <Rbt.Library>
libRbt.so (2013.1, Build901 2013/11/27)

>  <Rbt.Parameter_File>
/export/apps/rDock/src/rDock_2013.1_src/data/scripts/dock_solv.prm

>  <Rbt.Receptor>
prm/pocket_docking_2.prm

>  <SCORE>
-9.68109

>  <SCORE.INTER>
-9.94116

>  <SCORE.INTER.CONST>
1

>  <SCORE.INTER.POLAR>
-1.0356

>  <SCORE.INTER.ROT>
3

>  <SCORE.INTER.SOLV>
12.5863

>  <SCORE.INTER.VDW>
-12.9709

>  <SCORE.INTER.norm>
-0.621322

>  <SCORE.INTRA>
0.258721

>  <SCORE.INTRA.DIHEDRAL>
0.170335

>  <SCORE.INTRA.DIHEDRAL.0>
0.00893466

>  <SCORE.INTRA.POLAR>
0

>  <SCORE.INTRA.POLAR.0>
0

>  <SCORE.INTRA.REPUL>
0

>  <SCORE.INTRA.REPUL.0>
0

>  <SCORE.INTRA.SOLV>
0.312513

>  <SCORE.INTRA.SOLV.lig_0>
-48.9722

>  <SCORE.INTRA.VDW>
0.0172972

>  <SCORE.INTRA.VDW.0>
-0.529409

>  <SCORE.INTRA.norm>
0.0161701

>  <SCORE.RESTR>
0.00134574

>  <SCORE.RESTR.CAVITY>
0.00134574

>  <SCORE.RESTR.norm>
8.41089e-05

>  <SCORE.SYSTEM>
0

>  <SCORE.SYSTEM.CONST>
0

>  <SCORE.SYSTEM.DIHEDRAL>
0

>  <SCORE.SYSTEM.SOLV>
0

>  <SCORE.SYSTEM.norm>
0

>  <SCORE.heavy>
16

>  <SCORE.norm>
-0.605068

>  <RMSD>
1.289

$$$$
ligand
 OpenBabel11021811433D
libRbt.so/2013.1/901 2013/11/27
 16 16  0  0  0  0  0  0  0  0999 V2000
   49.4221   13.1924   11.1597 P   0  0  2  0  0  0  0  0  0  0  0  0
   49.1396   13.0155    9.7136 O   0  0  0  0  0  0  0  0  0  0  0  0
   50.1236   14.6217   11.3937 O   0  5  0  0  0  0  0  0  0  0  0  0
   50.4205   12.0238   11.6404 O   0  0  0  0  0  0  0  0  0  0  0  0
   44.8307   11.9081   14.5739 C   0  0  2  0  0  0  0  0  0  0  0  0
   44.2171   10.6240   14.3610 O   0  0  0  0  0  0  0  0  0  0  0  0
   43.9523   13.0425   13.9868 C   0  0  2  0  0  0  0  0  0  0  0  0
   42.6169   13.0063   14.5947 O   0  0  0  0  0  0  0  0  0  0  0  0
   43.8316   12.8296   12.4661 C   0  0  1  0  0  0  0  0  0  0  0  0
   43.0288   13.8690   11.8936 O   0  0  0  0  0  0  0  0  0  0  0  0
   45.2437   12.8717   11.8616 C   0  0  2  0  0  0  0  0  0  0  0  0
   45.1592   12.6628   10.4354 O   0  0  0  0  0  0  0  0  0  0  0  0
   46.0916   11.7444   12.5128 C   0  0  2  0  0  0  0  0  0  0  0  0
   46.1611   11.9442   13.9580 O   0  0  0  0  0  0  0  0  0  0  0  0
   47.5181   11.8010   11.9367 C   0  0  0  0  0  0  0  0  0  0  0  0
   48.0394   13.1337   12.0096 O   0  0  0  0  0  0  0  0  0  0  0  0
  1  2  1  6  0  0  0
  1  3  1  0  0  0  0
  1  4  2  0  0  0  0
  1 16  1  0  0  0  0
  5  6  1  6  0  0  0
  5  7  1  0  0  0  0
  5 14  1  0  0  0  0
  7  8  1  1  0  0  0
  7  9  1  0  0  0  0
  9 10  1  6  0  0  0
  9 11  1  0  0  0  0
 11 12  1  6  0  0  0
 11 13  1  0  0  0  0
 13 14  1  0  0  0  0
 13 15  1  6  0  0  0
 15 16  1  0  0  0  0
M  CHG  1   3  -1
M  END
>  <CHROM.1>
50.08688309,-170.09688485,67.66542733,46.49991598,12.69169221,12.29675821
0.39859531,0.13180863,-1.01715950

>  <Name>
ligand

>  <RI>
0

>  <Rbt.Current_Directory>
/home/itssahil/PROJECTS/Mol_Feturizer/New_Systems/rnas/2HO7

>  <Rbt.Executable>
rbdock ($Id: //depot/dev/client3/rdock/2013.1/src/exe/rbdock.cxx#4 $)

>  <Rbt.Library>
libRbt.so (2013.1, Build901 2013/11/27)

>  <Rbt.Parameter_File>
/export/apps/rDock/src/rDock_2013.1_src/data/scripts/dock_solv.prm

>  <Rbt.Receptor>
prm/pocket_docking_2.prm

>  <SCORE>
-10.0302

>  <SCORE.INTER>
-10.6674

>  <SCORE.INTER.CONST>
1

>  <SCORE.INTER.POLAR>
-1.29904

>  <SCORE.INTER.ROT>
3

>  <SCORE.INTER.SOLV>
13.0825

>  <SCORE.INTER.VDW>
-12.7423

>  <SCORE.INTER.norm>
-0.666714

>  <SCORE.INTRA>
0.636944

>  <SCORE.INTRA.DIHEDRAL>
0.907581

>  <SCORE.INTRA.DIHEDRAL.0>
0.00893466

>  <SCORE.INTRA.POLAR>
0

>  <SCORE.INTRA.POLAR.0>
0

>  <SCORE.INTRA.REPUL>
0

>  <SCORE.INTRA.REPUL.0>
0

>  <SCORE.INTRA.SOLV>
0.397417

>  <SCORE.INTRA.SOLV.lig_0>
-48.9722

>  <SCORE.INTRA.VDW>
-0.0155552

>  <SCORE.INTRA.VDW.0>
-0.529409

>  <SCORE.INTRA.norm>
0.039809

>  <SCORE.RESTR>
0.000297432

>  <SCORE.RESTR.CAVITY>
0.000297432

>  <SCORE.RESTR.norm>
1.85895e-05

>  <SCORE.SYSTEM>
0

>  <SCORE.SYSTEM.CONST>
0

>  <SCORE.SYSTEM.DIHEDRAL>
0

>  <SCORE.SYSTEM.SOLV>
0

>  <SCORE.SYSTEM.norm>
0

>  <SCORE.heavy>
16

>  <SCORE.norm>
-0.626886

>  <RMSD>
1.289

$$$$
ligand
 OpenBabel11021811433D
libRbt.so/2013.1/901 2013/11/27
 16 16  0  0  0  0  0  0  0  0999 V2000
   49.5123   13.2482   11.2465 P   0  0  2  0  0  0  0  0  0  0  0  0
   49.1703   13.1657    9.8048 O   0  0  0  0  0  0  0  0  0  0  0  0
   50.2270   14.6591   11.5438 O   0  5  0  0  0  0  0  0  0  0  0  0
   50.5261   12.0505   11.6090 O   0  0  0  0  0  0  0  0  0  0  0  0
   44.8988   11.9369   14.5851 C   0  0  2  0  0  0  0  0  0  0  0  0
   44.3041   10.6417   14.3865 O   0  0  0  0  0  0  0  0  0  0  0  0
   44.0131   13.0501   13.9694 C   0  0  2  0  0  0  0  0  0  0  0  0
   42.6712   13.0068   14.5624 O   0  0  0  0  0  0  0  0  0  0  0  0
   43.9128   12.8108   12.4511 C   0  0  1  0  0  0  0  0  0  0  0  0
   43.1037   13.8303   11.8523 O   0  0  0  0  0  0  0  0  0  0  0  0
   45.3312   12.8611   11.8622 C   0  0  2  0  0  0  0  0  0  0  0  0
   45.2661   12.6278   10.4387 O   0  0  0  0  0  0  0  0  0  0  0  0
   46.1857   11.7556   12.5417 C   0  0  2  0  0  0  0  0  0  0  0  0
   46.2357   11.9799   13.9840 O   0  0  0  0  0  0  0  0  0  0  0  0
   47.6179   11.8210   11.9810 C   0  0  0  0  0  0  0  0  0  0  0  0
   48.1654   13.1347   12.1468 O   0  0  0  0  0  0  0  0  0  0  0  0
  1  2  1  6  0  0  0
  1  3  1  0  0  0  0
  1  4  2  0  0  0  0
  1 16  1  0  0  0  0
  5  6  1  6  0  0  0
  5  7  1  0  0  0  0
  5 14  1  0  0  0  0
  7  8  1  1  0  0  0
  7  9  1  0  0  0  0
  9 10  1  6  0  0  0
  9 11  1  0  0  0  0
 11 12  1  6  0  0  0
 11 13  1  0  0  0  0
 13 14  1  0  0  0  0
 13 15  1  6  0  0  0
 15 16  1  0  0  0  0
M  CHG  1   3  -1
M  END
>  <CHROM.1>
55.23653359,-166.97084592,66.14510809,46.58455160,12.71284302,12.33088416
0.39139413,0.10737627,-1.03404526

>  <Name>
ligand

>  <RI>
0

>  <Rbt.Current_Directory>
/home/itssahil/PROJECTS/Mol_Feturizer/New_Systems/rnas/2HO7

>  <Rbt.Executable>
rbdock ($Id: //depot/dev/client3/rdock/2013.1/src/exe/rbdock.cxx#4 $)

>  <Rbt.Library>
libRbt.so (2013.1, Build901 2013/11/27)

>  <Rbt.Parameter_File>
/export/apps/rDock/src/rDock_2013.1_src/data/scripts/dock_solv.prm

>  <Rbt.Receptor>
prm/pocket_docking_2.prm

>  <SCORE>
-10.1346

>  <SCORE.INTER>
-10.6804

>  <SCORE.INTER.CONST>
1

>  <SCORE.INTER.POLAR>
-1.29584

>  <SCORE.INTER.ROT>
3

>  <SCORE.INTER.SOLV>
13.2828

>  <SCORE.INTER.VDW>
-12.8284

>  <SCORE.INTER.norm>
-0.667524

>  <SCORE.INTRA>
0.545773

>  <SCORE.INTRA.DIHEDRAL>
0.940053

>  <SCORE.INTRA.DIHEDRAL.0>
0.00893466

>  <SCORE.INTRA.POLAR>
0

>  <SCORE.INTRA.POLAR.0>
0

>  <SCORE.INTRA.REPUL>
0

>  <SCORE.INTRA.REPUL.0>
0

>  <SCORE.INTRA.SOLV>
0.376079

>  <SCORE.INTRA.SOLV.lig_0>
-48.9722

>  <SCORE.INTRA.VDW>
-0.112293

>  <SCORE.INTRA.VDW.0>
-0.529409

>  <SCORE.INTRA.norm>
0.0341108

>  <SCORE.RESTR>
0

>  <SCORE.RESTR.CAVITY>
0

>  <SCORE.RESTR.norm>
0

>  <SCORE.SYSTEM>
0

>  <SCORE.SYSTEM.CONST>
0

>  <SCORE.SYSTEM.DIHEDRAL>
0

>  <SCORE.SYSTEM.SOLV>
0

>  <SCORE.SYSTEM.norm>
0

>  <SCORE.heavy>
16

>  <SCORE.norm>
-0.633413

>  <RMSD>
1.289

$$$$
ligand
 OpenBabel11021811433D
libRbt.so/2013.1/901 2013/11/27
 16 16  0  0  0  0  0  0  0  0999 V2000
   49.8091   13.0718   11.7118 P   0  0  2  0  0  0  0  0  0  0  0  0
   50.5154   11.8167   12.0698 O   0  0  0  0  0  0  0  0  0  0  0  0
   49.7167   13.1918   10.1097 O   0  5  0  0  0  0  0  0  0  0  0  0
   50.6434   14.3209   12.2925 O   0  0  0  0  0  0  0  0  0  0  0  0
   44.8872   11.7640   14.4508 C   0  0  2  0  0  0  0  0  0  0  0  0
   44.1918   10.5791   14.0229 O   0  0  0  0  0  0  0  0  0  0  0  0
   44.1078   13.0391   14.0388 C   0  0  2  0  0  0  0  0  0  0  0  0
   42.7559   13.0050   14.6092 O   0  0  0  0  0  0  0  0  0  0  0  0
   44.0172   13.0810   12.5018 C   0  0  1  0  0  0  0  0  0  0  0  0
   43.3062   14.2547   12.0902 O   0  0  0  0  0  0  0  0  0  0  0  0
   45.4459   13.1148   11.9371 C   0  0  2  0  0  0  0  0  0  0  0  0
   45.3889   13.1428   10.4945 O   0  0  0  0  0  0  0  0  0  0  0  0
   46.1934   11.8386   12.4130 C   0  0  2  0  0  0  0  0  0  0  0  0
   46.2343   11.7997   13.8725 O   0  0  0  0  0  0  0  0  0  0  0  0
   47.6367   11.8810   11.8789 C   0  0  0  0  0  0  0  0  0  0  0  0
   48.3079   13.0633   12.3314 O   0  0  0  0  0  0  0  0  0  0  0  0
  1  2  1  1  0  0  0
  1  3  1  0  0  0  0
  1  4  2  0  0  0  0
  1 16  1  0  0  0  0
  5  6  1  6  0  0  0
  5  7  1  0  0  0  0
  5 14  1  0  0  0  0
  7  8  1  1  0  0  0
  7  9  1  0  0  0  0
  9 10  1  1  0  0  0
  9 11  1  0  0  0  0
 11 12  1  6  0  0  0
 11 13  1  0  0  0  0
 13 14  1  0  0  0  0
 13 15  1  6  0  0  0
 15 16  1  0  0  0  0
M  CHG  1   3  -1
M  END
>  <CHROM.1>
58.03051003,-178.71360016,-55.26891280,46.72522904,12.72120119,12.47698608
-0.27924643,-0.13669022,2.23558477

>  <Name>
ligand

>  <RI>
0

>  <Rbt.Current_Directory>
/home/itssahil/PROJECTS/Mol_Feturizer/New_Systems/rnas/2HO7

>  <Rbt.Executable>
rbdock ($Id: //depot/dev/client3/rdock/2013.1/src/exe/rbdock.cxx#4 $)

>  <Rbt.Library>
libRbt.so (2013.1, Build901 2013/11/27)

>  <Rbt.Parameter_File>
/export/apps/rDock/src/rDock_2013.1_src/data/scripts/dock_solv.prm

>  <Rbt.Receptor>
prm/pocket_docking_2.prm

>  <SCORE>
-9.64778

>  <SCORE.INTER>
-9.80101

>  <SCORE.INTER.CONST>
1

>  <SCORE.INTER.POLAR>
-1.03923

>  <SCORE.INTER.ROT>
3

>  <SCORE.INTER.SOLV>
12.7577

>  <SCORE.INTER.VDW>
-12.9225

>  <SCORE.INTER.norm>
-0.612563

>  <SCORE.INTRA>
0.1397

>  <SCORE.INTRA.DIHEDRAL>
0.0497682

>  <SCORE.INTRA.DIHEDRAL.0>
0.00893466

>  <SCORE.INTRA.POLAR>
0

>  <SCORE.INTRA.POLAR.0>
0

>  <SCORE.INTRA.REPUL>
0

>  <SCORE.INTRA.REPUL.0>
0

>  <SCORE.INTRA.SOLV>
0.274439

>  <SCORE.INTRA.SOLV.lig_0>
-48.9722

>  <SCORE.INTRA.VDW>
-0.0224034

>  <SCORE.INTRA.VDW.0>
-0.529409

>  <SCORE.INTRA.norm>
0.00873127

>  <SCORE.RESTR>
0.0135373

>  <SCORE.RESTR.CAVITY>
0.0135373

>  <SCORE.RESTR.norm>
0.000846081

>  <SCORE.SYSTEM>
0

>  <SCORE.SYSTEM.CONST>
0

>  <SCORE.SYSTEM.DIHEDRAL>
0

>  <SCORE.SYSTEM.SOLV>
0

>  <SCORE.SYSTEM.norm>
0

>  <SCORE.heavy>
16

>  <SCORE.norm>
-0.602986

>  <RMSD>
1.293

$$$$
ligand
 OpenBabel11021811433D
libRbt.so/2013.1/901 2013/11/27
 16 16  0  0  0  0  0  0  0  0999 V2000
   49.7532   13.1387   11.4210 P   0  0  2  0  0  0  0  0  0  0  0  0
   49.5550   13.0344    9.9540 O   0  0  0  0  0  0  0  0  0  0  0  0
   50.4677   14.5396   11.7630 O   0  5  0  0  0  0  0  0  0  0  0  0
   50.6971   11.9270   11.9049 O   0  0  0  0  0  0  0  0  0  0  0  0
   45.0484   11.9075   14.5530 C   0  0  2  0  0  0  0  0  0  0  0  0
   44.4385   10.6206   14.3468 O   0  0  0  0  0  0  0  0  0  0  0  0
   44.1575   13.0380   13.9773 C   0  0  2  0  0  0  0  0  0  0  0  0
   42.8298   12.9950   14.6013 O   0  0  0  0  0  0  0  0  0  0  0  0
   44.0195   12.8253   12.4581 C   0  0  1  0  0  0  0  0  0  0  0  0
   43.2048   13.8611   11.8959 O   0  0  0  0  0  0  0  0  0  0  0  0
   45.4239   12.8745   11.8365 C   0  0  2  0  0  0  0  0  0  0  0  0
   45.3232   12.6660   10.4113 O   0  0  0  0  0  0  0  0  0  0  0  0
   46.2851   11.7509   12.4768 C   0  0  2  0  0  0  0  0  0  0  0  0
   46.3710   11.9503   13.9211 O   0  0  0  0  0  0  0  0  0  0  0  0
   47.7042   11.8147   11.8835 C   0  0  0  0  0  0  0  0  0  0  0  0
   48.3208   13.0728   12.1836 O   0  0  0  0  0  0  0  0  0  0  0  0
  1  2  1  6  0  0  0
  1  3  1  0  0  0  0
  1  4  2  0  0  0  0
  1 16  1  0  0  0  0
  5  6  1  6  0  0  0
  5  7  1  0  0  0  0
  5 14  1  0  0  0  0
  7  8  1  1  0  0  0
  7  9  1  0  0  0  0
  9 10  1  6  0  0  0
  9 11  1  0  0  0  0
 11 12  1  6  0  0  0
 11 13  1  0  0  0  0
 13 14  1  0  0  0  0
 13 15  1  6  0  0  0
 15 16  1  0  0  0  0
M  CHG  1   3  -1
M  END
>  <CHROM.1>
61.43406429,-174.82043672,60.75941187,46.74590855,12.67114980,12.38241438
-0.34696470,-0.09890991,2.09150261

>  <Name>
ligand

>  <RI>
0

>  <Rbt.Current_Directory>
/home/itssahil/PROJECTS/Mol_Feturizer/New_Systems/rnas/2HO7

>  <Rbt.Executable>
rbdock ($Id: //depot/dev/client3/rdock/2013.1/src/exe/rbdock.cxx#4 $)

>  <Rbt.Library>
libRbt.so (2013.1, Build901 2013/11/27)

>  <Rbt.Parameter_File>
/export/apps/rDock/src/rDock_2013.1_src/data/scripts/dock_solv.prm

>  <Rbt.Receptor>
prm/pocket_docking_2.prm

>  <SCORE>
-10.3619

>  <SCORE.INTER>
-10.418

>  <SCORE.INTER.CONST>
1

>  <SCORE.INTER.POLAR>
-1.29904

>  <SCORE.INTER.ROT>
3

>  <SCORE.INTER.SOLV>
14.0315

>  <SCORE.INTER.VDW>
-12.8924

>  <SCORE.INTER.norm>
-0.651125

>  <SCORE.INTRA>
0.0547995

>  <SCORE.INTRA.DIHEDRAL>
0.131001

>  <SCORE.INTRA.DIHEDRAL.0>
0.00893466

>  <SCORE.INTRA.POLAR>
0

>  <SCORE.INTRA.POLAR.0>
0

>  <SCORE.INTRA.REPUL>
0

>  <SCORE.INTRA.REPUL.0>
0

>  <SCORE.INTRA.SOLV>
0.229633

>  <SCORE.INTRA.SOLV.lig_0>
-48.9722

>  <SCORE.INTRA.VDW>
-0.125518

>  <SCORE.INTRA.VDW.0>
-0.529409

>  <SCORE.INTRA.norm>
0.00342497

>  <SCORE.RESTR>
0.00129298

>  <SCORE.RESTR.CAVITY>
0.00129298

>  <SCORE.RESTR.norm>
8.08114e-05

>  <SCORE.SYSTEM>
0

>  <SCORE.SYSTEM.CONST>
0

>  <SCORE.SYSTEM.DIHEDRAL>
0

>  <SCORE.SYSTEM.SOLV>
0

>  <SCORE.SYSTEM.norm>
0

>  <SCORE.heavy>
16

>  <SCORE.norm>
-0.647619

>  <RMSD>
1.293

$$$$
ligand
 OpenBabel11021811433D
libRbt.so/2013.1/901 2013/11/27
 16 16  0  0  0  0  0  0  0  0999 V2000
   49.8529   13.2328   11.5063 P   0  0  2  0  0  0  0  0  0  0  0  0
   49.6742   13.2872   10.0341 O   0  0  0  0  0  0  0  0  0  0  0  0
   50.6105   14.5640   11.9998 O   0  5  0  0  0  0  0  0  0  0  0  0
   50.7463   11.9441   11.8736 O   0  0  0  0  0  0  0  0  0  0  0  0
   45.0404   11.7864   14.4165 C   0  0  2  0  0  0  0  0  0  0  0  0
   44.3605   10.5877   14.0021 O   0  0  0  0  0  0  0  0  0  0  0  0
   44.2337   13.0460   14.0096 C   0  0  2  0  0  0  0  0  0  0  0  0
   42.8900   12.9906   14.5975 O   0  0  0  0  0  0  0  0  0  0  0  0
   44.1226   13.0800   12.4738 C   0  0  1  0  0  0  0  0  0  0  0  0
   43.3859   14.2394   12.0669 O   0  0  0  0  0  0  0  0  0  0  0  0
   45.5431   13.1364   11.8905 C   0  0  2  0  0  0  0  0  0  0  0  0
   45.4671   13.1576   10.4487 O   0  0  0  0  0  0  0  0  0  0  0  0
   46.3189   11.8754   12.3617 C   0  0  2  0  0  0  0  0  0  0  0  0
   46.3792   11.8432   13.8206 O   0  0  0  0  0  0  0  0  0  0  0  0
   47.7542   11.9409   11.8088 C   0  0  0  0  0  0  0  0  0  0  0  0
   48.4073   13.1408   12.2408 O   0  0  0  0  0  0  0  0  0  0  0  0
  1  2  1  6  0  0  0
  1  3  1  0  0  0  0
  1  4  2  0  0  0  0
  1 16  1  0  0  0  0
  5  6  1  6  0  0  0
  5  7  1  0  0  0  0
  5 14  1  0  0  0  0
  7  8  1  1  0  0  0
  7  9  1  0  0  0  0
  9 10  1  1  0  0  0
  9 11  1  0  0  0  0
 11 12  1  6  0  0  0
 11 13  1  0  0  0  0
 13 14  1  0  0  0  0
 13 15  1  6  0  0  0
 15 16  1  0  0  0  0
M  CHG  1   3  -1
M  END
>  <CHROM.1>
57.64742276,-174.15546165,60.98296741,46.82234430,12.78514631,12.38744086
-0.31181905,-0.14529501,2.26460323

>  <Name>
ligand

>  <RI>
0

>  <Rbt.Current_Directory>
/home/itssahil/PROJECTS/Mol_Feturizer/New_Systems/rnas/2HO7

>  <Rbt.Executable>
rbdock ($Id: //depot/dev/client3/rdock/2013.1/src/exe/rbdock.cxx#4 $)

>  <Rbt.Library>
libRbt.so (2013.1, Build901 2013/11/27)

>  <Rbt.Parameter_File>
/export/apps/rDock/src/rDock_2013.1_src/data/scripts/dock_solv.prm

>  <Rbt.Receptor>
prm/pocket_docking_2.prm

>  <SCORE>
-10.2561

>  <SCORE.INTER>
-10.3633

>  <SCORE.INTER.CONST>
1

>  <SCORE.INTER.POLAR>
-1.29904

>  <SCORE.INTER.ROT>
3

>  <SCORE.INTER.SOLV>
13.5689

>  <SCORE.INTER.VDW>
-12.7017

>  <SCORE.INTER.norm>
-0.647704

>  <SCORE.INTRA>
0.107142

>  <SCORE.INTRA.DIHEDRAL>
0.180168

>  <SCORE.INTRA.DIHEDRAL.0>
0.00893466

>  <SCORE.INTRA.POLAR>
0

>  <SCORE.INTRA.POLAR.0>
0

>  <SCORE.INTRA.REPUL>
0

>  <SCORE.INTRA.REPUL.0>
0

>  <SCORE.INTRA.SOLV>
0.237725

>  <SCORE.INTRA.SOLV.lig_0>
-48.9722

>  <SCORE.INTRA.VDW>
-0.101804

>  <SCORE.INTRA.VDW.0>
-0.529409

>  <SCORE.INTRA.norm>
0.00669637

>  <SCORE.RESTR>
0

>  <SCORE.RESTR.CAVITY>
0

>  <SCORE.RESTR.norm>
0

>  <SCORE.SYSTEM>
0

>  <SCORE.SYSTEM.CONST>
0

>  <SCORE.SYSTEM.DIHEDRAL>
0

>  <SCORE.SYSTEM.SOLV>
0

>  <SCORE.SYSTEM.norm>
0

>  <SCORE.heavy>
16

>  <SCORE.norm>
-0.641008

>  <RMSD>
1.301

$$$$
ligand
 OpenBabel11021811433D
libRbt.so/2013.1/901 2013/11/27
 16 16  0  0  0  0  0  0  0  0999 V2000
   49.5287   13.0007   11.5535 P   0  0  2  0  0  0  0  0  0  0  0  0
   50.4001   12.6091   12.6891 O   0  0  0  0  0  0  0  0  0  0  0  0
   49.6679   11.9123   10.3763 O   0  5  0  0  0  0  0  0  0  0  0  0
   50.0028   14.4397   11.0074 O   0  0  0  0  0  0  0  0  0  0  0  0
   44.9461   12.1502   14.8871 C   0  0  2  0  0  0  0  0  0  0  0  0
   44.3728   10.8305   14.9075 O   0  0  0  0  0  0  0  0  0  0  0  0
   43.9901   13.1556   14.1955 C   0  0  2  0  0  0  0  0  0  0  0  0
   42.6954   13.1708   14.8867 O   0  0  0  0  0  0  0  0  0  0  0  0
   43.7884   12.7120   12.7344 C   0  0  1  0  0  0  0  0  0  0  0  0
   42.9124   13.6279   12.0665 O   0  0  0  0  0  0  0  0  0  0  0  0
   45.1596   12.7055   12.0407 C   0  0  2  0  0  0  0  0  0  0  0  0
   44.9994   12.2811   10.6698 O   0  0  0  0  0  0  0  0  0  0  0  0
   46.0887   11.7158   12.7965 C   0  0  2  0  0  0  0  0  0  0  0  0
   46.2353   12.1335   14.1883 O   0  0  0  0  0  0  0  0  0  0  0  0
   47.4753   11.7284   12.1278 C   0  0  0  0  0  0  0  0  0  0  0  0
   47.9794   13.0665   12.0359 O   0  0  0  0  0  0  0  0  0  0  0  0
  1  2  1  1  0  0  0
  1  3  1  0  0  0  0
  1  4  2  0  0  0  0
  1 16  1  0  0  0  0
  5  6  1  6  0  0  0
  5  7  1  0  0  0  0
  5 14  1  0  0  0  0
  7  8  1  1  0  0  0
  7  9  1  0  0  0  0
  9 10  1  6  0  0  0
  9 11  1  0  0  0  0
 11 12  1  6  0  0  0
 11 13  1  0  0  0  0
 13 14  1  0  0  0  0
 13 15  1  6  0  0  0
 15 16  1  0  0  0  0
M  CHG  1   3  -1
M  END
>  <CHROM.1>
53.32558835,170.83565788,-77.17060312,46.53435187,12.61425840,12.59753214
-0.37890018,-0.07398379,1.90690078

>  <Name>
ligand

>  <RI>
0

>  <Rbt.Current_Directory>
/home/itssahil/PROJECTS/Mol_Feturizer/New_Systems/rnas/2HO7

>  <Rbt.Executable>
rbdock ($Id: //depot/dev/client3/rdock/2013.1/src/exe/rbdock.cxx#4 $)

>  <Rbt.Library>
libRbt.so (2013.1, Build901 2013/11/27)

>  <Rbt.Parameter_File>
/export/apps/rDock/src/rDock_2013.1_src/data/scripts/dock_solv.prm

>  <Rbt.Receptor>
prm/pocket_docking_4.prm

>  <SCORE>
-11.0577

>  <SCORE.INTER>
-11.9664

>  <SCORE.INTER.CONST>
1

>  <SCORE.INTER.POLAR>
-1.29904

>  <SCORE.INTER.ROT>
3

>  <SCORE.INTER.SOLV>
14.1908

>  <SCORE.INTER.VDW>
-13.9778

>  <SCORE.INTER.norm>
-0.747901

>  <SCORE.INTRA>
0.908742

>  <SCORE.INTRA.DIHEDRAL>
1.01243

>  <SCORE.INTRA.DIHEDRAL.0>
0.00893466

>  <SCORE.INTRA.POLAR>
0

>  <SCORE.INTRA.POLAR.0>
0

>  <SCORE.INTRA.REPUL>
0

>  <SCORE.INTRA.REPUL.0>
0

>  <SCORE.INTRA.SOLV>
0.421931

>  <SCORE.INTRA.SOLV.lig_0>
-48.9722

>  <SCORE.INTRA.VDW>
0.191562

>  <SCORE.INTRA.VDW.0>
-0.529409

>  <SCORE.INTRA.norm>
0.0567964

>  <SCORE.RESTR>
0

>  <SCORE.RESTR.CAVITY>
0

>  <SCORE.RESTR.norm>
0

>  <SCORE.SYSTEM>
0

>  <SCORE.SYSTEM.CONST>
0

>  <SCORE.SYSTEM.DIHEDRAL>
0

>  <SCORE.SYSTEM.SOLV>
0

>  <SCORE.SYSTEM.norm>
0

>  <SCORE.heavy>
16

>  <SCORE.norm>
-0.691104

>  <RMSD>
1.302

$$$$
ligand
 OpenBabel11021811433D
libRbt.so/2013.1/901 2013/11/27
 16 16  0  0  0  0  0  0  0  0999 V2000
   49.0155   12.7087   11.6832 P   0  0  2  0  0  0  0  0  0  0  0  0
   49.8239   13.9018   12.0371 O   0  0  0  0  0  0  0  0  0  0  0  0
   48.9487   11.7169   12.9487 O   0  5  0  0  0  0  0  0  0  0  0  0
   49.7205   11.9513   10.4491 O   0  0  0  0  0  0  0  0  0  0  0  0
   44.9801   12.2283   14.4742 C   0  0  2  0  0  0  0  0  0  0  0  0
   44.2646   10.9798   14.4826 O   0  0  0  0  0  0  0  0  0  0  0  0
   44.0235   13.4095   14.1702 C   0  0  2  0  0  0  0  0  0  0  0  0
   42.9427   13.4458   15.1625 O   0  0  0  0  0  0  0  0  0  0  0  0
   43.4258   13.2050   12.7654 C   0  0  1  0  0  0  0  0  0  0  0  0
   42.5404   14.2873   12.4533 O   0  0  0  0  0  0  0  0  0  0  0  0
   44.5806   13.1704   11.7523 C   0  0  2  0  0  0  0  0  0  0  0  0
   44.0469   12.9678   10.4261 O   0  0  0  0  0  0  0  0  0  0  0  0
   45.5287   11.9978   12.1267 C   0  0  2  0  0  0  0  0  0  0  0  0
   46.0536   12.1921   13.4758 O   0  0  0  0  0  0  0  0  0  0  0  0
   46.7068   11.9769   11.1360 C   0  0  0  0  0  0  0  0  0  0  0  0
   47.5076   13.1564   11.2789 O   0  0  0  0  0  0  0  0  0  0  0  0
  1  2  1  1  0  0  0
  1  3  1  0  0  0  0
  1  4  2  0  0  0  0
  1 16  1  0  0  0  0
  5  6  1  6  0  0  0
  5  7  1  0  0  0  0
  5 14  1  0  0  0  0
  7  8  1  1  0  0  0
  7  9  1  0  0  0  0
  9 10  1  6  0  0  0
  9 11  1  0  0  0  0
 11 12  1  6  0  0  0
 11 13  1  0  0  0  0
 13 14  1  0  0  0  0
 13 15  1  6  0  0  0
 15 16  1  0  0  0  0
M  CHG  1   3  -1
M  END
>  <CHROM.1>
65.33367287,119.89544688,-171.62021753,46.14072403,12.70617992,12.48150462
-0.30205220,-0.17438225,1.85343540

>  <Name>
ligand

>  <RI>
0

>  <Rbt.Current_Directory>
/home/itssahil/PROJECTS/Mol_Feturizer/New_Systems/rnas/2HO7

>  <Rbt.Executable>
rbdock ($Id: //depot/dev/client3/rdock/2013.1/src/exe/rbdock.cxx#4 $)

>  <Rbt.Library>
libRbt.so (2013.1, Build901 2013/11/27)

>  <Rbt.Parameter_File>
/export/apps/rDock/src/rDock_2013.1_src/data/scripts/dock_solv.prm

>  <Rbt.Receptor>
prm/pocket_docking_4.prm

>  <SCORE>
-5.6465

>  <SCORE.INTER>
-10.1484

>  <SCORE.INTER.CONST>
1

>  <SCORE.INTER.POLAR>
-1.29904

>  <SCORE.INTER.ROT>
3

>  <SCORE.INTER.SOLV>
16.1071

>  <SCORE.INTER.VDW>
-13.4045

>  <SCORE.INTER.norm>
-0.634276

>  <SCORE.INTRA>
4.50191

>  <SCORE.INTRA.DIHEDRAL>
7.40593

>  <SCORE.INTRA.DIHEDRAL.0>
0.00893466

>  <SCORE.INTRA.POLAR>
0

>  <SCORE.INTRA.POLAR.0>
0

>  <SCORE.INTRA.REPUL>
0

>  <SCORE.INTRA.REPUL.0>
0

>  <SCORE.INTRA.SOLV>
2.61826

>  <SCORE.INTRA.SOLV.lig_0>
-48.9722

>  <SCORE.INTRA.VDW>
-0.510188

>  <SCORE.INTRA.VDW.0>
-0.529409

>  <SCORE.INTRA.norm>
0.281369

>  <SCORE.RESTR>
0

>  <SCORE.RESTR.CAVITY>
0

>  <SCORE.RESTR.norm>
0

>  <SCORE.SYSTEM>
0

>  <SCORE.SYSTEM.CONST>
0

>  <SCORE.SYSTEM.DIHEDRAL>
0

>  <SCORE.SYSTEM.SOLV>
0

>  <SCORE.SYSTEM.norm>
0

>  <SCORE.heavy>
16

>  <SCORE.norm>
-0.352906

>  <RMSD>
1.302

$$$$
ligand
 OpenBabel11021811433D
libRbt.so/2013.1/901 2013/11/27
 16 16  0  0  0  0  0  0  0  0999 V2000
   48.9610   13.3477   10.6478 P   0  0  2  0  0  0  0  0  0  0  0  0
   49.6107   14.0322   11.7931 O   0  0  0  0  0  0  0  0  0  0  0  0
   49.6570   11.9147   10.4202 O   0  5  0  0  0  0  0  0  0  0  0  0
   49.1532   14.2491    9.3272 O   0  0  0  0  0  0  0  0  0  0  0  0
   44.2851   11.4722   14.3184 C   0  0  2  0  0  0  0  0  0  0  0  0
   43.5883   10.6349   13.3782 O   0  0  0  0  0  0  0  0  0  0  0  0
   43.5894   12.8513   14.4490 C   0  0  2  0  0  0  0  0  0  0  0  0
   42.1929   12.6697   14.8626 O   0  0  0  0  0  0  0  0  0  0  0  0
   43.6332   13.5524   13.0783 C   0  0  1  0  0  0  0  0  0  0  0  0
   43.0019   14.8352   13.1698 O   0  0  0  0  0  0  0  0  0  0  0  0
   45.1057   13.7261   12.6744 C   0  0  2  0  0  0  0  0  0  0  0  0
   45.1743   14.3719   11.3848 O   0  0  0  0  0  0  0  0  0  0  0  0
   45.7642   12.3208   12.5989 C   0  0  2  0  0  0  0  0  0  0  0  0
   45.6776   11.6590   13.8980 O   0  0  0  0  0  0  0  0  0  0  0  0
   47.2487   12.4882   12.2272 C   0  0  0  0  0  0  0  0  0  0  0  0
   47.3809   13.1285   10.9522 O   0  0  0  0  0  0  0  0  0  0  0  0
  1  2  1  1  0  0  0
  1  3  1  0  0  0  0
  1  4  2  0  0  0  0
  1 16  1  0  0  0  0
  5  6  1  6  0  0  0
  5  7  1  0  0  0  0
  5 14  1  0  0  0  0
  7  8  1  6  0  0  0
  7  9  1  0  0  0  0
  9 10  1  1  0  0  0
  9 11  1  0  0  0  0
 11 12  1  6  0  0  0
 11 13  1  0  0  0  0
 13 14  1  0  0  0  0
 13 15  1  1  0  0  0
 15 16  1  0  0  0  0
M  CHG  1   3  -1
M  END
>  <CHROM.1>
-60.57372145,177.11308622,-51.94619091,46.12980928,12.99011753,12.28716227
-0.32793778,-0.44263682,2.67360841

>  <Name>
ligand

>  <RI>
0

>  <Rbt.Current_Directory>
/home/itssahil/PROJECTS/Mol_Feturizer/New_Systems/rnas/2HO7

>  <Rbt.Executable>
rbdock ($Id: //depot/dev/client3/rdock/2013.1/src/exe/rbdock.cxx#4 $)

>  <Rbt.Library>
libRbt.so (2013.1, Build901 2013/11/27)

>  <Rbt.Parameter_File>
/export/apps/rDock/src/rDock_2013.1_src/data/scripts/dock_solv.prm

>  <Rbt.Receptor>
prm/pocket_docking_5.prm

>  <SCORE>
-10.6103

>  <SCORE.INTER>
-11.2714

>  <SCORE.INTER.CONST>
1

>  <SCORE.INTER.POLAR>
-1.29904

>  <SCORE.INTER.ROT>
3

>  <SCORE.INTER.SOLV>
12.101

>  <SCORE.INTER.VDW>
-12.8178

>  <SCORE.INTER.norm>
-0.704461

>  <SCORE.INTRA>
0.661095

>  <SCORE.INTRA.DIHEDRAL>
0.137914

>  <SCORE.INTRA.DIHEDRAL.0>
0.00893466

>  <SCORE.INTRA.POLAR>
0

>  <SCORE.INTRA.POLAR.0>
0

>  <SCORE.INTRA.REPUL>
0

>  <SCORE.INTRA.REPUL.0>
0

>  <SCORE.INTRA.SOLV>
0.457415

>  <SCORE.INTRA.SOLV.lig_0>
-48.9722

>  <SCORE.INTRA.VDW>
0.363431

>  <SCORE.INTRA.VDW.0>
-0.529409

>  <SCORE.INTRA.norm>
0.0413184

>  <SCORE.RESTR>
0

>  <SCORE.RESTR.CAVITY>
0

>  <SCORE.RESTR.norm>
0

>  <SCORE.SYSTEM>
0

>  <SCORE.SYSTEM.CONST>
0

>  <SCORE.SYSTEM.DIHEDRAL>
0

>  <SCORE.SYSTEM.SOLV>
0

>  <SCORE.SYSTEM.norm>
0

>  <SCORE.heavy>
16

>  <SCORE.norm>
-0.663143

>  <RMSD>
1.310

$$$$
ligand
 OpenBabel11021811433D
libRbt.so/2013.1/901 2013/11/27
 16 16  0  0  0  0  0  0  0  0999 V2000
   49.9454   13.1653   11.6643 P   0  0  2  0  0  0  0  0  0  0  0  0
   50.6306   11.8859   11.9743 O   0  0  0  0  0  0  0  0  0  0  0  0
   49.8698   13.3550   10.0680 O   0  5  0  0  0  0  0  0  0  0  0  0
   50.7919   14.3762   12.3053 O   0  0  0  0  0  0  0  0  0  0  0  0
   45.0319   11.7590   14.3413 C   0  0  2  0  0  0  0  0  0  0  0  0
   44.3228   10.6059   13.8531 O   0  0  0  0  0  0  0  0  0  0  0  0
   44.2560   13.0611   14.0167 C   0  0  2  0  0  0  0  0  0  0  0  0
   42.9116   13.0013   14.6025 O   0  0  0  0  0  0  0  0  0  0  0  0
   44.1452   13.1952   12.4863 C   0  0  1  0  0  0  0  0  0  0  0  0
   43.4369   14.3957   12.1552 O   0  0  0  0  0  0  0  0  0  0  0  0
   45.5665   13.2539   11.9051 C   0  0  2  0  0  0  0  0  0  0  0  0
   45.4905   13.3684   10.4677 O   0  0  0  0  0  0  0  0  0  0  0  0
   46.3114   11.9471   12.2938 C   0  0  2  0  0  0  0  0  0  0  0  0
   46.3714   11.8209   13.7477 O   0  0  0  0  0  0  0  0  0  0  0  0
   47.7477   12.0126   11.7435 C   0  0  0  0  0  0  0  0  0  0  0  0
   48.4385   13.1522   12.2698 O   0  0  0  0  0  0  0  0  0  0  0  0
  1  2  1  1  0  0  0
  1  3  1  0  0  0  0
  1  4  2  0  0  0  0
  1 16  1  0  0  0  0
  5  6  1  6  0  0  0
  5  7  1  0  0  0  0
  5 14  1  0  0  0  0
  7  8  1  1  0  0  0
  7  9  1  0  0  0  0
  9 10  1  1  0  0  0
  9 11  1  0  0  0  0
 11 12  1  6  0  0  0
 11 13  1  0  0  0  0
 13 14  1  0  0  0  0
 13 15  1  1  0  0  0
 15 16  1  0  0  0  0
M  CHG  1   3  -1
M  END
>  <CHROM.1>
58.76645572,179.66850241,-56.22646798,46.85754273,12.80885731,12.42015475
-0.27526987,-0.14707631,2.28820816

>  <Name>
ligand

>  <RI>
0

>  <Rbt.Current_Directory>
/home/itssahil/PROJECTS/Mol_Feturizer/New_Systems/rnas/2HO7

>  <Rbt.Executable>
rbdock ($Id: //depot/dev/client3/rdock/2013.1/src/exe/rbdock.cxx#4 $)

>  <Rbt.Library>
libRbt.so (2013.1, Build901 2013/11/27)

>  <Rbt.Parameter_File>
/export/apps/rDock/src/rDock_2013.1_src/data/scripts/dock_solv.prm

>  <Rbt.Receptor>
prm/pocket_docking_2.prm

>  <SCORE>
-9.63752

>  <SCORE.INTER>
-9.73507

>  <SCORE.INTER.CONST>
1

>  <SCORE.INTER.POLAR>
-1.03901

>  <SCORE.INTER.ROT>
3

>  <SCORE.INTER.SOLV>
12.2287

>  <SCORE.INTER.VDW>
-12.7029

>  <SCORE.INTER.norm>
-0.608442

>  <SCORE.INTRA>
0.0939599

>  <SCORE.INTRA.DIHEDRAL>
0.0203697

>  <SCORE.INTRA.DIHEDRAL.0>
0.00893466

>  <SCORE.INTRA.POLAR>
0

>  <SCORE.INTRA.POLAR.0>
0

>  <SCORE.INTRA.REPUL>
0

>  <SCORE.INTRA.REPUL.0>
0

>  <SCORE.INTRA.SOLV>
0.234859

>  <SCORE.INTRA.SOLV.lig_0>
-48.9722

>  <SCORE.INTRA.VDW>
-0.0336546

>  <SCORE.INTRA.VDW.0>
-0.529409

>  <SCORE.INTRA.norm>
0.00587249

>  <SCORE.RESTR>
0.0035908

>  <SCORE.RESTR.CAVITY>
0.0035908

>  <SCORE.RESTR.norm>
0.000224425

>  <SCORE.SYSTEM>
0

>  <SCORE.SYSTEM.CONST>
0

>  <SCORE.SYSTEM.DIHEDRAL>
0

>  <SCORE.SYSTEM.SOLV>
0

>  <SCORE.SYSTEM.norm>
0

>  <SCORE.heavy>
16

>  <SCORE.norm>
-0.602345

>  <RMSD>
1.317

$$$$
ligand
 OpenBabel11021811433D
libRbt.so/2013.1/901 2013/11/27
 16 16  0  0  0  0  0  0  0  0999 V2000
   49.5399   13.1105   11.2463 P   0  0  2  0  0  0  0  0  0  0  0  0
   49.2169   12.8594    9.8198 O   0  0  0  0  0  0  0  0  0  0  0  0
   50.1962   14.5724   11.3939 O   0  5  0  0  0  0  0  0  0  0  0  0
   50.5952   12.0000   11.7430 O   0  0  0  0  0  0  0  0  0  0  0  0
   44.8886   11.9481   14.5960 C   0  0  2  0  0  0  0  0  0  0  0  0
   44.2711   10.6606   14.4178 O   0  0  0  0  0  0  0  0  0  0  0  0
   44.0284   13.0656   13.9525 C   0  0  2  0  0  0  0  0  0  0  0  0
   42.6818   13.0588   14.5362 O   0  0  0  0  0  0  0  0  0  0  0  0
   43.9345   12.7990   12.4384 C   0  0  1  0  0  0  0  0  0  0  0  0
   43.1490   13.8216   11.8142 O   0  0  0  0  0  0  0  0  0  0  0  0
   45.3578   12.8114   11.8592 C   0  0  2  0  0  0  0  0  0  0  0  0
   45.2983   12.5520   10.4400 O   0  0  0  0  0  0  0  0  0  0  0  0
   46.1864   11.7034   12.5661 C   0  0  2  0  0  0  0  0  0  0  0  0
   46.2304   11.9545   14.0042 O   0  0  0  0  0  0  0  0  0  0  0  0
   47.6236   11.7313   12.0150 C   0  0  0  0  0  0  0  0  0  0  0  0
   48.1887   13.0416   12.1447 O   0  0  0  0  0  0  0  0  0  0  0  0
  1  2  1  6  0  0  0
  1  3  1  0  0  0  0
  1  4  2  0  0  0  0
  1 16  1  0  0  0  0
  5  6  1  6  0  0  0
  5  7  1  0  0  0  0
  5 14  1  0  0  0  0
  7  8  1  1  0  0  0
  7  9  1  0  0  0  0
  9 10  1  6  0  0  0
  9 11  1  0  0  0  0
 11 12  1  6  0  0  0
 11 13  1  0  0  0  0
 13 14  1  0  0  0  0
 13 15  1  6  0  0  0
 15 16  1  0  0  0  0
M  CHG  1   3  -1
M  END
>  <CHROM.1>
54.52838505,-166.70131633,60.66669373,46.60093656,12.65040351,12.33195546
0.37949703,0.12249565,-1.04857597

>  <Name>
ligand

>  <RI>
0

>  <Rbt.Current_Directory>
/home/itssahil/PROJECTS/Mol_Feturizer/New_Systems/rnas/2HO7

>  <Rbt.Executable>
rbdock ($Id: //depot/dev/client3/rdock/2013.1/src/exe/rbdock.cxx#4 $)

>  <Rbt.Library>
libRbt.so (2013.1, Build901 2013/11/27)

>  <Rbt.Parameter_File>
/export/apps/rDock/src/rDock_2013.1_src/data/scripts/dock_solv.prm

>  <Rbt.Receptor>
prm/pocket_docking_2.prm

>  <SCORE>
-10.1965

>  <SCORE.INTER>
-10.7248

>  <SCORE.INTER.CONST>
1

>  <SCORE.INTER.POLAR>
-1.29904

>  <SCORE.INTER.ROT>
3

>  <SCORE.INTER.SOLV>
13.3886

>  <SCORE.INTER.VDW>
-12.8826

>  <SCORE.INTER.norm>
-0.6703

>  <SCORE.INTRA>
0.528329

>  <SCORE.INTRA.DIHEDRAL>
0.937975

>  <SCORE.INTRA.DIHEDRAL.0>
0.00893466

>  <SCORE.INTRA.POLAR>
0

>  <SCORE.INTRA.POLAR.0>
0

>  <SCORE.INTRA.REPUL>
0

>  <SCORE.INTRA.REPUL.0>
0

>  <SCORE.INTRA.SOLV>
0.32792

>  <SCORE.INTRA.SOLV.lig_0>
-48.9722

>  <SCORE.INTRA.VDW>
-0.104618

>  <SCORE.INTRA.VDW.0>
-0.529409

>  <SCORE.INTRA.norm>
0.0330206

>  <SCORE.RESTR>
0

>  <SCORE.RESTR.CAVITY>
0

>  <SCORE.RESTR.norm>
0

>  <SCORE.SYSTEM>
0

>  <SCORE.SYSTEM.CONST>
0

>  <SCORE.SYSTEM.DIHEDRAL>
0

>  <SCORE.SYSTEM.SOLV>
0

>  <SCORE.SYSTEM.norm>
0

>  <SCORE.heavy>
16

>  <SCORE.norm>
-0.637279

>  <RMSD>
1.318

$$$$
ligand
 OpenBabel11021811433D
libRbt.so/2013.1/901 2013/11/27
 16 16  0  0  0  0  0  0  0  0999 V2000
   49.7617   13.2571   11.4806 P   0  0  2  0  0  0  0  0  0  0  0  0
   49.5134   13.3086   10.0184 O   0  0  0  0  0  0  0  0  0  0  0  0
   50.5307   14.5950   11.9371 O   0  5  0  0  0  0  0  0  0  0  0  0
   50.6819   11.9762   11.8062 O   0  0  0  0  0  0  0  0  0  0  0  0
   44.9808   11.7975   14.5419 C   0  0  2  0  0  0  0  0  0  0  0  0
   44.3178   10.5819   14.1502 O   0  0  0  0  0  0  0  0  0  0  0  0
   44.1810   13.0383   14.0690 C   0  0  2  0  0  0  0  0  0  0  0  0
   42.8213   12.9965   14.6201 O   0  0  0  0  0  0  0  0  0  0  0  0
   44.1136   13.0188   12.5303 C   0  0  1  0  0  0  0  0  0  0  0  0
   43.3842   14.1597   12.0628 O   0  0  0  0  0  0  0  0  0  0  0  0
   45.5500   13.0621   11.9860 C   0  0  2  0  0  0  0  0  0  0  0  0
   45.5150   13.0331   10.5428 O   0  0  0  0  0  0  0  0  0  0  0  0
   46.3170   11.8220   12.5223 C   0  0  2  0  0  0  0  0  0  0  0  0
   46.3358   11.8404   13.9827 O   0  0  0  0  0  0  0  0  0  0  0  0
   47.7673   11.8755   12.0085 C   0  0  0  0  0  0  0  0  0  0  0  0
   48.3530   13.1541   12.2824 O   0  0  0  0  0  0  0  0  0  0  0  0
  1  2  1  6  0  0  0
  1  3  1  0  0  0  0
  1  4  2  0  0  0  0
  1 16  1  0  0  0  0
  5  6  1  6  0  0  0
  5  7  1  0  0  0  0
  5 14  1  0  0  0  0
  7  8  1  1  0  0  0
  7  9  1  0  0  0  0
  9 10  1  6  0  0  0
  9 11  1  0  0  0  0
 11 12  1  6  0  0  0
 11 13  1  0  0  0  0
 13 14  1  0  0  0  0
 13 15  1  6  0  0  0
 15 16  1  0  0  0  0
M  CHG  1   3  -1
M  END
>  <CHROM.1>
50.97279037,-169.35691499,67.93627309,46.77652599,12.76810155,12.44087889
0.33860649,0.14845734,-0.88531552

>  <Name>
ligand

>  <RI>
0

>  <Rbt.Current_Directory>
/home/itssahil/PROJECTS/Mol_Feturizer/New_Systems/rnas/2HO7

>  <Rbt.Executable>
rbdock ($Id: //depot/dev/client3/rdock/2013.1/src/exe/rbdock.cxx#4 $)

>  <Rbt.Library>
libRbt.so (2013.1, Build901 2013/11/27)

>  <Rbt.Parameter_File>
/export/apps/rDock/src/rDock_2013.1_src/data/scripts/dock_solv.prm

>  <Rbt.Receptor>
prm/pocket_docking_2.prm

>  <SCORE>
-10.2004

>  <SCORE.INTER>
-10.8525

>  <SCORE.INTER.CONST>
1

>  <SCORE.INTER.POLAR>
-1.29904

>  <SCORE.INTER.ROT>
3

>  <SCORE.INTER.SOLV>
13.812

>  <SCORE.INTER.VDW>
-13.1089

>  <SCORE.INTER.norm>
-0.678279

>  <SCORE.INTRA>
0.631982

>  <SCORE.INTRA.DIHEDRAL>
0.927455

>  <SCORE.INTRA.DIHEDRAL.0>
0.00893466

>  <SCORE.INTRA.POLAR>
0

>  <SCORE.INTRA.POLAR.0>
0

>  <SCORE.INTRA.REPUL>
0

>  <SCORE.INTRA.REPUL.0>
0

>  <SCORE.INTRA.SOLV>
0.400864

>  <SCORE.INTRA.SOLV.lig_0>
-48.9722

>  <SCORE.INTRA.VDW>
-0.0321777

>  <SCORE.INTRA.VDW.0>
-0.529409

>  <SCORE.INTRA.norm>
0.0394988

>  <SCORE.RESTR>
0.0201056

>  <SCORE.RESTR.CAVITY>
0.0201056

>  <SCORE.RESTR.norm>
0.0012566

>  <SCORE.SYSTEM>
0

>  <SCORE.SYSTEM.CONST>
0

>  <SCORE.SYSTEM.DIHEDRAL>
0

>  <SCORE.SYSTEM.SOLV>
0

>  <SCORE.SYSTEM.norm>
0

>  <SCORE.heavy>
16

>  <SCORE.norm>
-0.637524

>  <RMSD>
1.320

$$$$
ligand
 OpenBabel11021811433D
libRbt.so/2013.1/901 2013/11/27
 16 16  0  0  0  0  0  0  0  0999 V2000
   49.5242   13.1083   11.2200 P   0  0  2  0  0  0  0  0  0  0  0  0
   49.1709   12.8369    9.8044 O   0  0  0  0  0  0  0  0  0  0  0  0
   50.1570   14.5833   11.3371 O   0  5  0  0  0  0  0  0  0  0  0  0
   50.6116   12.0222   11.7011 O   0  0  0  0  0  0  0  0  0  0  0  0
   44.9019   11.9554   14.6022 C   0  0  2  0  0  0  0  0  0  0  0  0
   44.2888   10.6633   14.4429 O   0  0  0  0  0  0  0  0  0  0  0  0
   44.0336   13.0614   13.9497 C   0  0  2  0  0  0  0  0  0  0  0  0
   42.6902   13.0562   14.5406 O   0  0  0  0  0  0  0  0  0  0  0  0
   43.9328   12.7760   12.4395 C   0  0  1  0  0  0  0  0  0  0  0  0
   43.1397   13.7877   11.8071 O   0  0  0  0  0  0  0  0  0  0  0  0
   45.3529   12.7873   11.8526 C   0  0  2  0  0  0  0  0  0  0  0  0
   45.2871   12.5103   10.4370 O   0  0  0  0  0  0  0  0  0  0  0  0
   46.1899   11.6914   12.5685 C   0  0  2  0  0  0  0  0  0  0  0  0
   46.2405   11.9602   14.0032 O   0  0  0  0  0  0  0  0  0  0  0  0
   47.6241   11.7185   12.0095 C   0  0  0  0  0  0  0  0  0  0  0  0
   48.1969   13.0240   12.1522 O   0  0  0  0  0  0  0  0  0  0  0  0
  1  2  1  6  0  0  0
  1  3  1  0  0  0  0
  1  4  2  0  0  0  0
  1 16  1  0  0  0  0
  5  6  1  6  0  0  0
  5  7  1  0  0  0  0
  5 14  1  0  0  0  0
  7  8  1  1  0  0  0
  7  9  1  0  0  0  0
  9 10  1  6  0  0  0
  9 11  1  0  0  0  0
 11 12  1  6  0  0  0
 11 13  1  0  0  0  0
 13 14  1  0  0  0  0
 13 15  1  6  0  0  0
 15 16  1  0  0  0  0
M  CHG  1   3  -1
M  END
>  <CHROM.1>
56.04499600,-165.40226260,58.48300163,46.59701428,12.64171685,12.32289629
0.38683082,0.11971766,-1.06053822

>  <Name>
ligand

>  <RI>
0

>  <Rbt.Current_Directory>
/home/itssahil/PROJECTS/Mol_Feturizer/New_Systems/rnas/2HO7

>  <Rbt.Executable>
rbdock ($Id: //depot/dev/client3/rdock/2013.1/src/exe/rbdock.cxx#4 $)

>  <Rbt.Library>
libRbt.so (2013.1, Build901 2013/11/27)

>  <Rbt.Parameter_File>
/export/apps/rDock/src/rDock_2013.1_src/data/scripts/dock_solv.prm

>  <Rbt.Receptor>
prm/pocket_docking_2.prm

>  <SCORE>
-10.159

>  <SCORE.INTER>
-10.7261

>  <SCORE.INTER.CONST>
1

>  <SCORE.INTER.POLAR>
-1.29206

>  <SCORE.INTER.ROT>
3

>  <SCORE.INTER.SOLV>
13.2976

>  <SCORE.INTER.VDW>
-12.8764

>  <SCORE.INTER.norm>
-0.670382

>  <SCORE.INTRA>
0.564896

>  <SCORE.INTRA.DIHEDRAL>
1.05323

>  <SCORE.INTRA.DIHEDRAL.0>
0.00893466

>  <SCORE.INTRA.POLAR>
0

>  <SCORE.INTRA.POLAR.0>
0

>  <SCORE.INTRA.REPUL>
0

>  <SCORE.INTRA.REPUL.0>
0

>  <SCORE.INTRA.SOLV>
0.30952

>  <SCORE.INTRA.SOLV.lig_0>
-48.9722

>  <SCORE.INTRA.VDW>
-0.11648

>  <SCORE.INTRA.VDW.0>
-0.529409

>  <SCORE.INTRA.norm>
0.035306

>  <SCORE.RESTR>
0.00218147

>  <SCORE.RESTR.CAVITY>
0.00218147

>  <SCORE.RESTR.norm>
0.000136342

>  <SCORE.SYSTEM>
0

>  <SCORE.SYSTEM.CONST>
0

>  <SCORE.SYSTEM.DIHEDRAL>
0

>  <SCORE.SYSTEM.SOLV>
0

>  <SCORE.SYSTEM.norm>
0

>  <SCORE.heavy>
16

>  <SCORE.norm>
-0.63494

>  <RMSD>
1.321

$$$$
ligand
 OpenBabel11021811433D
libRbt.so/2013.1/901 2013/11/27
 16 16  0  0  0  0  0  0  0  0999 V2000
   48.8554   13.2778   10.5406 P   0  0  2  0  0  0  0  0  0  0  0  0
   49.2809   14.4199   11.3873 O   0  0  0  0  0  0  0  0  0  0  0  0
   49.8147   12.0176   10.8261 O   0  5  0  0  0  0  0  0  0  0  0  0
   48.9817   13.7037    8.9927 O   0  0  0  0  0  0  0  0  0  0  0  0
   44.3962   11.7080   14.5929 C   0  0  2  0  0  0  0  0  0  0  0  0
   43.6793   10.7468   13.7973 O   0  0  0  0  0  0  0  0  0  0  0  0
   43.6790   13.0822   14.5755 C   0  0  2  0  0  0  0  0  0  0  0  0
   42.3039   12.9348   15.0670 O   0  0  0  0  0  0  0  0  0  0  0  0
   43.6545   13.6021   13.1258 C   0  0  1  0  0  0  0  0  0  0  0  0
   43.0020   14.8767   13.0792 O   0  0  0  0  0  0  0  0  0  0  0  0
   45.1060   13.7439   12.6418 C   0  0  2  0  0  0  0  0  0  0  0  0
   45.1107   14.2199   11.2786 O   0  0  0  0  0  0  0  0  0  0  0  0
   45.7888   12.3504   12.7187 C   0  0  2  0  0  0  0  0  0  0  0  0
   45.7669   11.8596   14.0941 O   0  0  0  0  0  0  0  0  0  0  0  0
   47.2538   12.4903   12.2668 C   0  0  0  0  0  0  0  0  0  0  0  0
   47.3225   12.8677   10.8863 O   0  0  0  0  0  0  0  0  0  0  0  0
  1  2  1  1  0  0  0
  1  3  1  0  0  0  0
  1  4  2  0  0  0  0
  1 16  1  0  0  0  0
  5  6  1  6  0  0  0
  5  7  1  0  0  0  0
  5 14  1  0  0  0  0
  7  8  1  6  0  0  0
  7  9  1  0  0  0  0
  9 10  1  1  0  0  0
  9 11  1  0  0  0  0
 11 12  1  6  0  0  0
 11 13  1  0  0  0  0
 13 14  1  0  0  0  0
 13 15  1  1  0  0  0
 15 16  1  0  0  0  0
M  CHG  1   3  -1
M  END
>  <CHROM.1>
-64.86379410,169.23110067,-60.24389163,46.11889516,13.02014290,12.31772621
0.38533335,0.45756269,-0.61592934

>  <Name>
ligand

>  <RI>
0

>  <Rbt.Current_Directory>
/home/itssahil/PROJECTS/Mol_Feturizer/New_Systems/rnas/2HO7

>  <Rbt.Executable>
rbdock ($Id: //depot/dev/client3/rdock/2013.1/src/exe/rbdock.cxx#4 $)

>  <Rbt.Library>
libRbt.so (2013.1, Build901 2013/11/27)

>  <Rbt.Parameter_File>
/export/apps/rDock/src/rDock_2013.1_src/data/scripts/dock_solv.prm

>  <Rbt.Receptor>
prm/pocket_docking_3.prm

>  <SCORE>
-10.9829

>  <SCORE.INTER>
-11.6789

>  <SCORE.INTER.CONST>
1

>  <SCORE.INTER.POLAR>
-1.29904

>  <SCORE.INTER.ROT>
3

>  <SCORE.INTER.SOLV>
12.814

>  <SCORE.INTER.VDW>
-13.3271

>  <SCORE.INTER.norm>
-0.729931

>  <SCORE.INTRA>
0.696038

>  <SCORE.INTRA.DIHEDRAL>
0.634158

>  <SCORE.INTRA.DIHEDRAL.0>
0.00893466

>  <SCORE.INTRA.POLAR>
0

>  <SCORE.INTRA.POLAR.0>
0

>  <SCORE.INTRA.REPUL>
0

>  <SCORE.INTRA.REPUL.0>
0

>  <SCORE.INTRA.SOLV>
0.572849

>  <SCORE.INTRA.SOLV.lig_0>
-48.9722

>  <SCORE.INTRA.VDW>
0.0925338

>  <SCORE.INTRA.VDW.0>
-0.529409

>  <SCORE.INTRA.norm>
0.0435024

>  <SCORE.RESTR>
0

>  <SCORE.RESTR.CAVITY>
0

>  <SCORE.RESTR.norm>
0

>  <SCORE.SYSTEM>
0

>  <SCORE.SYSTEM.CONST>
0

>  <SCORE.SYSTEM.DIHEDRAL>
0

>  <SCORE.SYSTEM.SOLV>
0

>  <SCORE.SYSTEM.norm>
0

>  <SCORE.heavy>
16

>  <SCORE.norm>
-0.686428

>  <RMSD>
1.327

$$$$
ligand
 OpenBabel11021811433D
libRbt.so/2013.1/901 2013/11/27
 16 16  0  0  0  0  0  0  0  0999 V2000
   48.8794   13.2908   10.2032 P   0  0  2  0  0  0  0  0  0  0  0  0
   49.4931   14.3303   11.0663 O   0  0  0  0  0  0  0  0  0  0  0  0
   49.7335   11.9317   10.3182 O   0  5  0  0  0  0  0  0  0  0  0  0
   48.8992   13.8050    8.6771 O   0  0  0  0  0  0  0  0  0  0  0  0
   44.6521   11.9302   14.5782 C   0  0  2  0  0  0  0  0  0  0  0  0
   44.0216   10.8135   13.9255 O   0  0  0  0  0  0  0  0  0  0  0  0
   43.7961   13.2134   14.4242 C   0  0  2  0  0  0  0  0  0  0  0  0
   42.4548   12.9889   14.9760 O   0  0  0  0  0  0  0  0  0  0  0  0
   43.6863   13.5504   12.9252 C   0  0  1  0  0  0  0  0  0  0  0  0
   42.9043   14.7382   12.7517 O   0  0  0  0  0  0  0  0  0  0  0  0
   45.1044   13.7780   12.3788 C   0  0  2  0  0  0  0  0  0  0  0  0
   45.0299   14.0849   10.9699 O   0  0  0  0  0  0  0  0  0  0  0  0
   45.9294   12.4794   12.5953 C   0  0  2  0  0  0  0  0  0  0  0  0
   45.9885   12.1576   14.0188 O   0  0  0  0  0  0  0  0  0  0  0  0
   47.3618   12.7104   12.0807 C   0  0  0  0  0  0  0  0  0  0  0  0
   47.3535   13.0012   10.6777 O   0  0  0  0  0  0  0  0  0  0  0  0
  1  2  1  1  0  0  0
  1  3  1  0  0  0  0
  1  4  2  0  0  0  0
  1 16  1  0  0  0  0
  5  6  1  6  0  0  0
  5  7  1  0  0  0  0
  5 14  1  0  0  0  0
  7  8  1  6  0  0  0
  7  9  1  0  0  0  0
  9 10  1  1  0  0  0
  9 11  1  0  0  0  0
 11 12  1  6  0  0  0
 11 13  1  0  0  0  0
 13 14  1  0  0  0  0
 13 15  1  1  0  0  0
 15 16  1  0  0  0  0
M  CHG  1   3  -1
M  END
>  <CHROM.1>
-61.50695978,177.86329688,-52.79762491,46.19442132,13.07057762,12.10008464
-0.47112596,-0.42841965,2.35911065

>  <Name>
ligand

>  <RI>
0

>  <Rbt.Current_Directory>
/home/itssahil/PROJECTS/Mol_Feturizer/New_Systems/rnas/2HO7

>  <Rbt.Executable>
rbdock ($Id: //depot/dev/client3/rdock/2013.1/src/exe/rbdock.cxx#4 $)

>  <Rbt.Library>
libRbt.so (2013.1, Build901 2013/11/27)

>  <Rbt.Parameter_File>
/export/apps/rDock/src/rDock_2013.1_src/data/scripts/dock_solv.prm

>  <Rbt.Receptor>
prm/pocket_docking_5.prm

>  <SCORE>
-10.89

>  <SCORE.INTER>
-11.4862

>  <SCORE.INTER.CONST>
1

>  <SCORE.INTER.POLAR>
-1.29904

>  <SCORE.INTER.ROT>
3

>  <SCORE.INTER.SOLV>
12.3179

>  <SCORE.INTER.VDW>
-13.0333

>  <SCORE.INTER.norm>
-0.717885

>  <SCORE.INTRA>
0.596124

>  <SCORE.INTRA.DIHEDRAL>
0.105739

>  <SCORE.INTRA.DIHEDRAL.0>
0.00893466

>  <SCORE.INTRA.POLAR>
0

>  <SCORE.INTRA.POLAR.0>
0

>  <SCORE.INTRA.REPUL>
0

>  <SCORE.INTRA.REPUL.0>
0

>  <SCORE.INTRA.SOLV>
0.453573

>  <SCORE.INTRA.SOLV.lig_0>
-48.9722

>  <SCORE.INTRA.VDW>
0.316468

>  <SCORE.INTRA.VDW.0>
-0.529409

>  <SCORE.INTRA.norm>
0.0372578

>  <SCORE.RESTR>
0

>  <SCORE.RESTR.CAVITY>
0

>  <SCORE.RESTR.norm>
0

>  <SCORE.SYSTEM>
0

>  <SCORE.SYSTEM.CONST>
0

>  <SCORE.SYSTEM.DIHEDRAL>
0

>  <SCORE.SYSTEM.SOLV>
0

>  <SCORE.SYSTEM.norm>
0

>  <SCORE.heavy>
16

>  <SCORE.norm>
-0.680627

>  <RMSD>
1.328

$$$$
ligand
 OpenBabel11021811433D
libRbt.so/2013.1/901 2013/11/27
 16 16  0  0  0  0  0  0  0  0999 V2000
   48.8679   13.3048   10.5691 P   0  0  2  0  0  0  0  0  0  0  0  0
   49.3142   14.3886   11.4793 O   0  0  0  0  0  0  0  0  0  0  0  0
   49.8091   12.0158   10.7750 O   0  5  0  0  0  0  0  0  0  0  0  0
   48.9940   13.8192    9.0483 O   0  0  0  0  0  0  0  0  0  0  0  0
   44.4046   11.6684   14.5836 C   0  0  2  0  0  0  0  0  0  0  0  0
   43.6663   10.7334   13.7764 O   0  0  0  0  0  0  0  0  0  0  0  0
   43.7117   13.0550   14.5935 C   0  0  2  0  0  0  0  0  0  0  0  0
   42.3371   12.9235   15.0908 O   0  0  0  0  0  0  0  0  0  0  0  0
   43.6880   13.5996   13.1529 C   0  0  1  0  0  0  0  0  0  0  0  0
   43.0578   14.8860   13.1315 O   0  0  0  0  0  0  0  0  0  0  0  0
   45.1390   13.7240   12.6625 C   0  0  2  0  0  0  0  0  0  0  0  0
   45.1442   14.2227   11.3074 O   0  0  0  0  0  0  0  0  0  0  0  0
   45.7974   12.3176   12.7120 C   0  0  2  0  0  0  0  0  0  0  0  0
   45.7748   11.8042   14.0791 O   0  0  0  0  0  0  0  0  0  0  0  0
   47.2621   12.4394   12.2537 C   0  0  0  0  0  0  0  0  0  0  0  0
   47.3303   12.8979   10.8979 O   0  0  0  0  0  0  0  0  0  0  0  0
  1  2  1  1  0  0  0
  1  3  1  0  0  0  0
  1  4  2  0  0  0  0
  1 16  1  0  0  0  0
  5  6  1  6  0  0  0
  5  7  1  0  0  0  0
  5 14  1  0  0  0  0
  7  8  1  6  0  0  0
  7  9  1  0  0  0  0
  9 10  1  1  0  0  0
  9 11  1  0  0  0  0
 11 12  1  6  0  0  0
 11 13  1  0  0  0  0
 13 14  1  0  0  0  0
 13 15  1  1  0  0  0
 15 16  1  0  0  0  0
M  CHG  1   3  -1
M  END
>  <CHROM.1>
-62.20980472,168.27297865,-60.31231248,46.13722896,13.01718709,12.33418977
0.37984706,0.46316998,-0.58795373

>  <Name>
ligand

>  <RI>
0

>  <Rbt.Current_Directory>
/home/itssahil/PROJECTS/Mol_Feturizer/New_Systems/rnas/2HO7

>  <Rbt.Executable>
rbdock ($Id: //depot/dev/client3/rdock/2013.1/src/exe/rbdock.cxx#4 $)

>  <Rbt.Library>
libRbt.so (2013.1, Build901 2013/11/27)

>  <Rbt.Parameter_File>
/export/apps/rDock/src/rDock_2013.1_src/data/scripts/dock_solv.prm

>  <Rbt.Receptor>
prm/pocket_docking_3.prm

>  <SCORE>
-11.0005

>  <SCORE.INTER>
-11.8114

>  <SCORE.INTER.CONST>
1

>  <SCORE.INTER.POLAR>
-1.29904

>  <SCORE.INTER.ROT>
3

>  <SCORE.INTER.SOLV>
12.8584

>  <SCORE.INTER.VDW>
-13.4303

>  <SCORE.INTER.norm>
-0.738211

>  <SCORE.INTRA>
0.810843

>  <SCORE.INTRA.DIHEDRAL>
0.666833

>  <SCORE.INTRA.DIHEDRAL.0>
0.00893466

>  <SCORE.INTRA.POLAR>
0

>  <SCORE.INTRA.POLAR.0>
0

>  <SCORE.INTRA.REPUL>
0

>  <SCORE.INTRA.REPUL.0>
0

>  <SCORE.INTRA.SOLV>
0.600311

>  <SCORE.INTRA.SOLV.lig_0>
-48.9722

>  <SCORE.INTRA.VDW>
0.177271

>  <SCORE.INTRA.VDW.0>
-0.529409

>  <SCORE.INTRA.norm>
0.0506777

>  <SCORE.RESTR>
0

>  <SCORE.RESTR.CAVITY>
0

>  <SCORE.RESTR.norm>
0

>  <SCORE.SYSTEM>
0

>  <SCORE.SYSTEM.CONST>
0

>  <SCORE.SYSTEM.DIHEDRAL>
0

>  <SCORE.SYSTEM.SOLV>
0

>  <SCORE.SYSTEM.norm>
0

>  <SCORE.heavy>
16

>  <SCORE.norm>
-0.687533

>  <RMSD>
1.333

$$$$
ligand
 OpenBabel11021811433D
libRbt.so/2013.1/901 2013/11/27
 16 16  0  0  0  0  0  0  0  0999 V2000
   48.7734   12.9645   10.2726 P   0  0  2  0  0  0  0  0  0  0  0  0
   49.0921   14.3844   10.5636 O   0  0  0  0  0  0  0  0  0  0  0  0
   49.8392   12.0165   11.0176 O   0  5  0  0  0  0  0  0  0  0  0  0
   48.8685   12.7264    8.6826 O   0  0  0  0  0  0  0  0  0  0  0  0
   44.6110   12.1255   14.8332 C   0  0  2  0  0  0  0  0  0  0  0  0
   44.0712   10.8815   14.3516 O   0  0  0  0  0  0  0  0  0  0  0  0
   43.6592   13.3036   14.5031 C   0  0  2  0  0  0  0  0  0  0  0  0
   42.3369   13.0579   15.0907 O   0  0  0  0  0  0  0  0  0  0  0  0
   43.5298   13.4129   12.9722 C   0  0  1  0  0  0  0  0  0  0  0  0
   42.6592   14.4999   12.6359 O   0  0  0  0  0  0  0  0  0  0  0  0
   44.9284   13.6684   12.3889 C   0  0  2  0  0  0  0  0  0  0  0  0
   44.8363   13.7636   10.9511 O   0  0  0  0  0  0  0  0  0  0  0  0
   45.8503   12.4816   12.7833 C   0  0  2  0  0  0  0  0  0  0  0  0
   45.9282   12.3725   14.2377 O   0  0  0  0  0  0  0  0  0  0  0  0
   47.2627   12.7460   12.2309 C   0  0  0  0  0  0  0  0  0  0  0  0
   47.2812   12.6072   10.8049 O   0  0  0  0  0  0  0  0  0  0  0  0
  1  2  1  1  0  0  0
  1  3  1  0  0  0  0
  1  4  2  0  0  0  0
  1 16  1  0  0  0  0
  5  6  1  6  0  0  0
  5  7  1  0  0  0  0
  5 14  1  0  0  0  0
  7  8  1  1  0  0  0
  7  9  1  0  0  0  0
  9 10  1  1  0  0  0
  9 11  1  0  0  0  0
 11 12  1  6  0  0  0
 11 13  1  0  0  0  0
 13 14  1  0  0  0  0
 13 15  1  1  0  0  0
 15 16  1  0  0  0  0
M  CHG  1   3  -1
M  END
>  <CHROM.1>
-71.27481350,177.36923982,-63.75431334,46.08501976,12.93778420,12.20659932
-0.50695205,-0.38610738,2.17473428

>  <Name>
ligand

>  <RI>
0

>  <Rbt.Current_Directory>
/home/itssahil/PROJECTS/Mol_Feturizer/New_Systems/rnas/2HO7

>  <Rbt.Executable>
rbdock ($Id: //depot/dev/client3/rdock/2013.1/src/exe/rbdock.cxx#4 $)

>  <Rbt.Library>
libRbt.so (2013.1, Build901 2013/11/27)

>  <Rbt.Parameter_File>
/export/apps/rDock/src/rDock_2013.1_src/data/scripts/dock_solv.prm

>  <Rbt.Receptor>
prm/pocket_docking_3.prm

>  <SCORE>
-10.8236

>  <SCORE.INTER>
-11.3042

>  <SCORE.INTER.CONST>
1

>  <SCORE.INTER.POLAR>
-1.29904

>  <SCORE.INTER.ROT>
3

>  <SCORE.INTER.SOLV>
12.9688

>  <SCORE.INTER.VDW>
-13.1289

>  <SCORE.INTER.norm>
-0.706513

>  <SCORE.INTRA>
0.48061

>  <SCORE.INTRA.DIHEDRAL>
0.496443

>  <SCORE.INTRA.DIHEDRAL.0>
0.00893466

>  <SCORE.INTRA.POLAR>
0

>  <SCORE.INTRA.POLAR.0>
0

>  <SCORE.INTRA.REPUL>
0

>  <SCORE.INTRA.REPUL.0>
0

>  <SCORE.INTRA.SOLV>
0.483545

>  <SCORE.INTRA.SOLV.lig_0>
-48.9722

>  <SCORE.INTRA.VDW>
-0.00938401

>  <SCORE.INTRA.VDW.0>
-0.529409

>  <SCORE.INTRA.norm>
0.0300381

>  <SCORE.RESTR>
0

>  <SCORE.RESTR.CAVITY>
0

>  <SCORE.RESTR.norm>
0

>  <SCORE.SYSTEM>
0

>  <SCORE.SYSTEM.CONST>
0

>  <SCORE.SYSTEM.DIHEDRAL>
0

>  <SCORE.SYSTEM.SOLV>
0

>  <SCORE.SYSTEM.norm>
0

>  <SCORE.heavy>
16

>  <SCORE.norm>
-0.676474

>  <RMSD>
1.334

$$$$
ligand
 OpenBabel11021811433D
libRbt.so/2013.1/901 2013/11/27
 16 16  0  0  0  0  0  0  0  0999 V2000
   49.8691   12.9794   11.9619 P   0  0  2  0  0  0  0  0  0  0  0  0
   50.6488   12.3689   13.0672 O   0  0  0  0  0  0  0  0  0  0  0  0
   50.0662   12.1049   10.6255 O   0  5  0  0  0  0  0  0  0  0  0  0
   50.4132   14.4734   11.7062 O   0  0  0  0  0  0  0  0  0  0  0  0
   44.8514   12.0021   14.6007 C   0  0  2  0  0  0  0  0  0  0  0  0
   44.2949   10.6794   14.4930 O   0  0  0  0  0  0  0  0  0  0  0  0
   43.9989   13.0249   13.8068 C   0  0  2  0  0  0  0  0  0  0  0  0
   42.6156   13.0102   14.2970 O   0  0  0  0  0  0  0  0  0  0  0  0
   44.0219   12.6291   12.3185 C   0  0  1  0  0  0  0  0  0  0  0  0
   43.2460   13.5621   11.5570 O   0  0  0  0  0  0  0  0  0  0  0  0
   45.4811   12.6529   11.8375 C   0  0  2  0  0  0  0  0  0  0  0  0
   45.5315   12.2736   10.4452 O   0  0  0  0  0  0  0  0  0  0  0  0
   46.2972   11.6435   12.6914 C   0  0  2  0  0  0  0  0  0  0  0  0
   46.2304   12.0155   14.1022 O   0  0  0  0  0  0  0  0  0  0  0  0
   47.7678   11.6857   12.2380 C   0  0  0  0  0  0  0  0  0  0  0  0
   48.2914   13.0151   12.3455 O   0  0  0  0  0  0  0  0  0  0  0  0
  1  2  1  1  0  0  0
  1  3  1  0  0  0  0
  1  4  2  0  0  0  0
  1 16  1  0  0  0  0
  5  6  1  6  0  0  0
  5  7  1  0  0  0  0
  5 14  1  0  0  0  0
  7  8  1  1  0  0  0
  7  9  1  0  0  0  0
  9 10  1  6  0  0  0
  9 11  1  0  0  0  0
 11 12  1  6  0  0  0
 11 13  1  0  0  0  0
 13 14  1  0  0  0  0
 13 15  1  6  0  0  0
 15 16  1  0  0  0  0
M  CHG  1   3  -1
M  END
>  <CHROM.1>
56.95876379,175.83946547,-74.18984469,46.75719553,12.54859786,12.56983208
-0.25032800,-0.01867768,1.94658137

>  <Name>
ligand

>  <RI>
0

>  <Rbt.Current_Directory>
/home/itssahil/PROJECTS/Mol_Feturizer/New_Systems/rnas/2HO7

>  <Rbt.Executable>
rbdock ($Id: //depot/dev/client3/rdock/2013.1/src/exe/rbdock.cxx#4 $)

>  <Rbt.Library>
libRbt.so (2013.1, Build901 2013/11/27)

>  <Rbt.Parameter_File>
/export/apps/rDock/src/rDock_2013.1_src/data/scripts/dock_solv.prm

>  <Rbt.Receptor>
prm/pocket_docking_2.prm

>  <SCORE>
-9.86766

>  <SCORE.INTER>
-10.5466

>  <SCORE.INTER.CONST>
1

>  <SCORE.INTER.POLAR>
-1.29762

>  <SCORE.INTER.ROT>
3

>  <SCORE.INTER.SOLV>
14.1656

>  <SCORE.INTER.VDW>
-13.0276

>  <SCORE.INTER.norm>
-0.659165

>  <SCORE.INTRA>
0.471965

>  <SCORE.INTRA.DIHEDRAL>
0.427389

>  <SCORE.INTRA.DIHEDRAL.0>
0.00893466

>  <SCORE.INTRA.POLAR>
0

>  <SCORE.INTRA.POLAR.0>
0

>  <SCORE.INTRA.REPUL>
0

>  <SCORE.INTRA.REPUL.0>
0

>  <SCORE.INTRA.SOLV>
0.388002

>  <SCORE.INTRA.SOLV.lig_0>
-48.9722

>  <SCORE.INTRA.VDW>
0.0642698

>  <SCORE.INTRA.VDW.0>
-0.529409

>  <SCORE.INTRA.norm>
0.0294978

>  <SCORE.RESTR>
0.207014

>  <SCORE.RESTR.CAVITY>
0.207014

>  <SCORE.RESTR.norm>
0.0129384

>  <SCORE.SYSTEM>
0

>  <SCORE.SYSTEM.CONST>
0

>  <SCORE.SYSTEM.DIHEDRAL>
0

>  <SCORE.SYSTEM.SOLV>
0

>  <SCORE.SYSTEM.norm>
0

>  <SCORE.heavy>
16

>  <SCORE.norm>
-0.616729

>  <RMSD>
1.337

$$$$
ligand
 OpenBabel11021811433D
libRbt.so/2013.1/901 2013/11/27
 16 16  0  0  0  0  0  0  0  0999 V2000
   49.8453   13.3694   11.2021 P   0  0  2  0  0  0  0  0  0  0  0  0
   49.4972   13.4487    9.7617 O   0  0  0  0  0  0  0  0  0  0  0  0
   50.5930   14.7241   11.6441 O   0  5  0  0  0  0  0  0  0  0  0  0
   50.8325   12.1174   11.4295 O   0  0  0  0  0  0  0  0  0  0  0  0
   45.1620   11.7429   14.3239 C   0  0  2  0  0  0  0  0  0  0  0  0
   44.4465   10.5875   13.8509 O   0  0  0  0  0  0  0  0  0  0  0  0
   44.3838   13.0438   13.9996 C   0  0  2  0  0  0  0  0  0  0  0  0
   43.0459   12.9890   14.6005 O   0  0  0  0  0  0  0  0  0  0  0  0
   44.2563   13.1682   12.4697 C   0  0  1  0  0  0  0  0  0  0  0  0
   43.5455   14.3672   12.1387 O   0  0  0  0  0  0  0  0  0  0  0  0
   45.6711   13.2217   11.8725 C   0  0  2  0  0  0  0  0  0  0  0  0
   45.5794   13.3271   10.4353 O   0  0  0  0  0  0  0  0  0  0  0  0
   46.4191   11.9166   12.2614 C   0  0  2  0  0  0  0  0  0  0  0  0
   46.4950   11.7997   13.7153 O   0  0  0  0  0  0  0  0  0  0  0  0
   47.8493   11.9772   11.6949 C   0  0  0  0  0  0  0  0  0  0  0  0
   48.4989   13.1908   12.0925 O   0  0  0  0  0  0  0  0  0  0  0  0
  1  2  1  6  0  0  0
  1  3  1  0  0  0  0
  1  4  2  0  0  0  0
  1 16  1  0  0  0  0
  5  6  1  6  0  0  0
  5  7  1  0  0  0  0
  5 14  1  0  0  0  0
  7  8  1  1  0  0  0
  7  9  1  0  0  0  0
  9 10  1  1  0  0  0
  9 11  1  0  0  0  0
 11 12  1  6  0  0  0
 11 13  1  0  0  0  0
 13 14  1  0  0  0  0
 13 15  1  6  0  0  0
 15 16  1  0  0  0  0
M  CHG  1   3  -1
M  END
>  <CHROM.1>
52.67087066,-166.92229959,60.45340716,46.89772235,12.86262167,12.24340542
0.35410011,0.19772913,-0.79120079

>  <Name>
ligand

>  <RI>
0

>  <Rbt.Current_Directory>
/home/itssahil/PROJECTS/Mol_Feturizer/New_Systems/rnas/2HO7

>  <Rbt.Executable>
rbdock ($Id: //depot/dev/client3/rdock/2013.1/src/exe/rbdock.cxx#4 $)

>  <Rbt.Library>
libRbt.so (2013.1, Build901 2013/11/27)

>  <Rbt.Parameter_File>
/export/apps/rDock/src/rDock_2013.1_src/data/scripts/dock_solv.prm

>  <Rbt.Receptor>
prm/pocket_docking_2.prm

>  <SCORE>
-9.81578

>  <SCORE.INTER>
-10.4043

>  <SCORE.INTER.CONST>
1

>  <SCORE.INTER.POLAR>
-1.29904

>  <SCORE.INTER.ROT>
3

>  <SCORE.INTER.SOLV>
12.1789

>  <SCORE.INTER.VDW>
-12.2657

>  <SCORE.INTER.norm>
-0.650267

>  <SCORE.INTRA>
0.58799

>  <SCORE.INTRA.DIHEDRAL>
0.995621

>  <SCORE.INTRA.DIHEDRAL.0>
0.00893466

>  <SCORE.INTRA.POLAR>
0

>  <SCORE.INTRA.POLAR.0>
0

>  <SCORE.INTRA.REPUL>
0

>  <SCORE.INTRA.REPUL.0>
0

>  <SCORE.INTRA.SOLV>
0.336814

>  <SCORE.INTRA.SOLV.lig_0>
-48.9722

>  <SCORE.INTRA.VDW>
-0.0782274

>  <SCORE.INTRA.VDW.0>
-0.529409

>  <SCORE.INTRA.norm>
0.0367494

>  <SCORE.RESTR>
0.000498134

>  <SCORE.RESTR.CAVITY>
0.000498134

>  <SCORE.RESTR.norm>
3.11334e-05

>  <SCORE.SYSTEM>
0

>  <SCORE.SYSTEM.CONST>
0

>  <SCORE.SYSTEM.DIHEDRAL>
0

>  <SCORE.SYSTEM.SOLV>
0

>  <SCORE.SYSTEM.norm>
0

>  <SCORE.heavy>
16

>  <SCORE.norm>
-0.613486

>  <RMSD>
1.348

$$$$
ligand
 OpenBabel11021811433D
libRbt.so/2013.1/901 2013/11/27
 16 16  0  0  0  0  0  0  0  0999 V2000
   49.6662   13.0375   11.6132 P   0  0  2  0  0  0  0  0  0  0  0  0
   50.5408   12.6055   12.7315 O   0  0  0  0  0  0  0  0  0  0  0  0
   49.7667   11.9676   10.4153 O   0  5  0  0  0  0  0  0  0  0  0  0
   50.1674   14.4748   11.0874 O   0  0  0  0  0  0  0  0  0  0  0  0
   44.9988   12.0382   14.9038 C   0  0  2  0  0  0  0  0  0  0  0  0
   44.3141   10.7874   14.7099 O   0  0  0  0  0  0  0  0  0  0  0  0
   44.1597   13.2174   14.3487 C   0  0  2  0  0  0  0  0  0  0  0  0
   42.8455   13.2469   15.0016 O   0  0  0  0  0  0  0  0  0  0  0  0
   43.9768   13.0159   12.8326 C   0  0  1  0  0  0  0  0  0  0  0  0
   43.2088   14.0963   12.2894 O   0  0  0  0  0  0  0  0  0  0  0  0
   45.3679   12.9884   12.1804 C   0  0  2  0  0  0  0  0  0  0  0  0
   45.2247   12.7886   10.7576 O   0  0  0  0  0  0  0  0  0  0  0  0
   46.1792   11.8175   12.8008 C   0  0  2  0  0  0  0  0  0  0  0  0
   46.3077   12.0089   14.2430 O   0  0  0  0  0  0  0  0  0  0  0  0
   47.5864   11.8037   12.1765 C   0  0  0  0  0  0  0  0  0  0  0  0
   48.1243   13.1303   12.1147 O   0  0  0  0  0  0  0  0  0  0  0  0
  1  2  1  1  0  0  0
  1  3  1  0  0  0  0
  1  4  2  0  0  0  0
  1 16  1  0  0  0  0
  5  6  1  6  0  0  0
  5  7  1  0  0  0  0
  5 14  1  0  0  0  0
  7  8  1  1  0  0  0
  7  9  1  0  0  0  0
  9 10  1  6  0  0  0
  9 11  1  0  0  0  0
 11 12  1  6  0  0  0
 11 13  1  0  0  0  0
 13 14  1  0  0  0  0
 13 15  1  6  0  0  0
 15 16  1  0  0  0  0
M  CHG  1   3  -1
M  END
>  <CHROM.1>
44.45273690,173.47354944,-77.71079435,46.67132271,12.72080060,12.66154575
-0.35885729,-0.16425520,2.09590262

>  <Name>
ligand

>  <RI>
0

>  <Rbt.Current_Directory>
/home/itssahil/PROJECTS/Mol_Feturizer/New_Systems/rnas/2HO7

>  <Rbt.Executable>
rbdock ($Id: //depot/dev/client3/rdock/2013.1/src/exe/rbdock.cxx#4 $)

>  <Rbt.Library>
libRbt.so (2013.1, Build901 2013/11/27)

>  <Rbt.Parameter_File>
/export/apps/rDock/src/rDock_2013.1_src/data/scripts/dock_solv.prm

>  <Rbt.Receptor>
prm/pocket_docking_3.prm

>  <SCORE>
-11.22

>  <SCORE.INTER>
-12.5605

>  <SCORE.INTER.CONST>
1

>  <SCORE.INTER.POLAR>
-1.29862

>  <SCORE.INTER.ROT>
3

>  <SCORE.INTER.SOLV>
13.967

>  <SCORE.INTER.VDW>
-14.3006

>  <SCORE.INTER.norm>
-0.785028

>  <SCORE.INTRA>
1.34044

>  <SCORE.INTRA.DIHEDRAL>
1.5094

>  <SCORE.INTRA.DIHEDRAL.0>
0.00893466

>  <SCORE.INTRA.POLAR>
0

>  <SCORE.INTRA.POLAR.0>
0

>  <SCORE.INTRA.REPUL>
0

>  <SCORE.INTRA.REPUL.0>
0

>  <SCORE.INTRA.SOLV>
0.432261

>  <SCORE.INTRA.SOLV.lig_0>
-48.9722

>  <SCORE.INTRA.VDW>
0.369617

>  <SCORE.INTRA.VDW.0>
-0.529409

>  <SCORE.INTRA.norm>
0.0837778

>  <SCORE.RESTR>
0

>  <SCORE.RESTR.CAVITY>
0

>  <SCORE.RESTR.norm>
0

>  <SCORE.SYSTEM>
0

>  <SCORE.SYSTEM.CONST>
0

>  <SCORE.SYSTEM.DIHEDRAL>
0

>  <SCORE.SYSTEM.SOLV>
0

>  <SCORE.SYSTEM.norm>
0

>  <SCORE.heavy>
16

>  <SCORE.norm>
-0.701251

>  <RMSD>
1.350

$$$$
ligand
 OpenBabel11021811433D
libRbt.so/2013.1/901 2013/11/27
 16 16  0  0  0  0  0  0  0  0999 V2000
   49.1665   13.1640   10.8316 P   0  0  2  0  0  0  0  0  0  0  0  0
   48.8353   12.8610    9.4171 O   0  0  0  0  0  0  0  0  0  0  0  0
   49.8113   14.6356   10.9236 O   0  5  0  0  0  0  0  0  0  0  0  0
   50.2350   12.0802   11.3582 O   0  0  0  0  0  0  0  0  0  0  0  0
   44.8282   12.1552   14.5332 C   0  0  2  0  0  0  0  0  0  0  0  0
   44.3351   10.8060   14.6176 O   0  0  0  0  0  0  0  0  0  0  0  0
   43.7983   13.0751   13.8288 C   0  0  2  0  0  0  0  0  0  0  0  0
   42.5213   13.0412   14.5514 O   0  0  0  0  0  0  0  0  0  0  0  0
   43.5899   12.5640   12.3909 C   0  0  1  0  0  0  0  0  0  0  0  0
   42.6457   13.4003   11.7115 O   0  0  0  0  0  0  0  0  0  0  0  0
   44.9426   12.6109   11.6635 C   0  0  2  0  0  0  0  0  0  0  0  0
   44.7766   12.1250   10.3140 O   0  0  0  0  0  0  0  0  0  0  0  0
   45.9462   11.7076   12.4322 C   0  0  2  0  0  0  0  0  0  0  0  0
   46.0997   12.1870   13.8032 O   0  0  0  0  0  0  0  0  0  0  0  0
   47.3139   11.7755   11.7286 C   0  0  0  0  0  0  0  0  0  0  0  0
   47.8226   13.1149   11.7421 O   0  0  0  0  0  0  0  0  0  0  0  0
  1  2  1  6  0  0  0
  1  3  1  0  0  0  0
  1  4  2  0  0  0  0
  1 16  1  0  0  0  0
  5  6  1  6  0  0  0
  5  7  1  0  0  0  0
  5 14  1  0  0  0  0
  7  8  1  1  0  0  0
  7  9  1  0  0  0  0
  9 10  1  6  0  0  0
  9 11  1  0  0  0  0
 11 12  1  6  0  0  0
 11 13  1  0  0  0  0
 13 14  1  0  0  0  0
 13 15  1  6  0  0  0
 15 16  1  0  0  0  0
M  CHG  1   3  -1
M  END
>  <CHROM.1>
61.48410547,-173.00518146,64.18786463,46.29936831,12.63137675,12.11863079
-0.45685803,-0.04684522,1.89720493

>  <Name>
ligand

>  <RI>
0

>  <Rbt.Current_Directory>
/home/itssahil/PROJECTS/Mol_Feturizer/New_Systems/rnas/2HO7

>  <Rbt.Executable>
rbdock ($Id: //depot/dev/client3/rdock/2013.1/src/exe/rbdock.cxx#4 $)

>  <Rbt.Library>
libRbt.so (2013.1, Build901 2013/11/27)

>  <Rbt.Parameter_File>
/export/apps/rDock/src/rDock_2013.1_src/data/scripts/dock_solv.prm

>  <Rbt.Receptor>
prm/pocket_docking_2.prm

>  <SCORE>
-10.2922

>  <SCORE.INTER>
-10.4183

>  <SCORE.INTER.CONST>
1

>  <SCORE.INTER.POLAR>
-1.29904

>  <SCORE.INTER.ROT>
3

>  <SCORE.INTER.SOLV>
12.1141

>  <SCORE.INTER.VDW>
-12.2535

>  <SCORE.INTER.norm>
-0.651145

>  <SCORE.INTRA>
0.126098

>  <SCORE.INTRA.DIHEDRAL>
0.266178

>  <SCORE.INTRA.DIHEDRAL.0>
0.00893466

>  <SCORE.INTRA.POLAR>
0

>  <SCORE.INTRA.POLAR.0>
0

>  <SCORE.INTRA.REPUL>
0

>  <SCORE.INTRA.REPUL.0>
0

>  <SCORE.INTRA.SOLV>
0.262042

>  <SCORE.INTRA.SOLV.lig_0>
-48.9722

>  <SCORE.INTRA.VDW>
-0.138012

>  <SCORE.INTRA.VDW.0>
-0.529409

>  <SCORE.INTRA.norm>
0.00788114

>  <SCORE.RESTR>
0

>  <SCORE.RESTR.CAVITY>
0

>  <SCORE.RESTR.norm>
0

>  <SCORE.SYSTEM>
0

>  <SCORE.SYSTEM.CONST>
0

>  <SCORE.SYSTEM.DIHEDRAL>
0

>  <SCORE.SYSTEM.SOLV>
0

>  <SCORE.SYSTEM.norm>
0

>  <SCORE.heavy>
16

>  <SCORE.norm>
-0.643264

>  <RMSD>
1.352

$$$$
ligand
 OpenBabel11021811433D
libRbt.so/2013.1/901 2013/11/27
 16 16  0  0  0  0  0  0  0  0999 V2000
   49.5710   13.0790   11.4712 P   0  0  2  0  0  0  0  0  0  0  0  0
   50.3486   11.8912   11.9029 O   0  0  0  0  0  0  0  0  0  0  0  0
   49.3181   13.0012    9.8838 O   0  5  0  0  0  0  0  0  0  0  0  0
   50.4180   14.4058   11.8114 O   0  0  0  0  0  0  0  0  0  0  0  0
   45.0154   12.0398   14.8221 C   0  0  2  0  0  0  0  0  0  0  0  0
   44.3353   10.7848   14.6397 O   0  0  0  0  0  0  0  0  0  0  0  0
   44.1291   13.2205   14.3491 C   0  0  2  0  0  0  0  0  0  0  0  0
   42.8576   13.2161   15.0821 O   0  0  0  0  0  0  0  0  0  0  0  0
   43.8554   13.0530   12.8427 C   0  0  1  0  0  0  0  0  0  0  0  0
   43.0422   14.1355   12.3747 O   0  0  0  0  0  0  0  0  0  0  0  0
   45.2038   13.0603   12.1057 C   0  0  2  0  0  0  0  0  0  0  0  0
   44.9754   12.8929   10.6898 O   0  0  0  0  0  0  0  0  0  0  0  0
   46.0661   11.8861   12.6457 C   0  0  2  0  0  0  0  0  0  0  0  0
   46.2811   12.0444   14.0816 O   0  0  0  0  0  0  0  0  0  0  0  0
   47.4321   11.9067   11.9359 C   0  0  0  0  0  0  0  0  0  0  0  0
   48.1388   13.1165   12.2361 O   0  0  0  0  0  0  0  0  0  0  0  0
  1  2  1  1  0  0  0
  1  3  1  0  0  0  0
  1  4  2  0  0  0  0
  1 16  1  0  0  0  0
  5  6  1  6  0  0  0
  5  7  1  0  0  0  0
  5 14  1  0  0  0  0
  7  8  1  1  0  0  0
  7  9  1  0  0  0  0
  9 10  1  6  0  0  0
  9 11  1  0  0  0  0
 11 12  1  6  0  0  0
 11 13  1  0  0  0  0
 13 14  1  0  0  0  0
 13 15  1  6  0  0  0
 15 16  1  0  0  0  0
M  CHG  1   3  -1
M  END
>  <CHROM.1>
62.79451863,179.64378526,-58.51190202,46.58063536,12.76493168,12.57471246
-0.37995004,-0.15910729,2.06868922

>  <Name>
ligand

>  <RI>
0

>  <Rbt.Current_Directory>
/home/itssahil/PROJECTS/Mol_Feturizer/New_Systems/rnas/2HO7

>  <Rbt.Executable>
rbdock ($Id: //depot/dev/client3/rdock/2013.1/src/exe/rbdock.cxx#4 $)

>  <Rbt.Library>
libRbt.so (2013.1, Build901 2013/11/27)

>  <Rbt.Parameter_File>
/export/apps/rDock/src/rDock_2013.1_src/data/scripts/dock_solv.prm

>  <Rbt.Receptor>
prm/pocket_docking_6.prm

>  <SCORE>
-10.9906

>  <SCORE.INTER>
-11.0493

>  <SCORE.INTER.CONST>
1

>  <SCORE.INTER.POLAR>
-1.03785

>  <SCORE.INTER.ROT>
3

>  <SCORE.INTER.SOLV>
13.5524

>  <SCORE.INTER.VDW>
-14.0242

>  <SCORE.INTER.norm>
-0.690584

>  <SCORE.INTRA>
0.0587254

>  <SCORE.INTRA.DIHEDRAL>
0.0233314

>  <SCORE.INTRA.DIHEDRAL.0>
0.00893466

>  <SCORE.INTRA.POLAR>
0

>  <SCORE.INTRA.POLAR.0>
0

>  <SCORE.INTRA.REPUL>
0

>  <SCORE.INTRA.REPUL.0>
0

>  <SCORE.INTRA.SOLV>
0.24485

>  <SCORE.INTRA.SOLV.lig_0>
-48.9722

>  <SCORE.INTRA.VDW>
-0.0753653

>  <SCORE.INTRA.VDW.0>
-0.529409

>  <SCORE.INTRA.norm>
0.00367034

>  <SCORE.RESTR>
0

>  <SCORE.RESTR.CAVITY>
0

>  <SCORE.RESTR.norm>
0

>  <SCORE.SYSTEM>
0

>  <SCORE.SYSTEM.CONST>
0

>  <SCORE.SYSTEM.DIHEDRAL>
0

>  <SCORE.SYSTEM.SOLV>
0

>  <SCORE.SYSTEM.norm>
0

>  <SCORE.heavy>
16

>  <SCORE.norm>
-0.686914

>  <RMSD>
1.354

$$$$
ligand
 OpenBabel11021811433D
libRbt.so/2013.1/901 2013/11/27
 16 16  0  0  0  0  0  0  0  0999 V2000
   49.1464   13.1730   10.7790 P   0  0  2  0  0  0  0  0  0  0  0  0
   48.7917   12.8668    9.3709 O   0  0  0  0  0  0  0  0  0  0  0  0
   49.7826   14.6490   10.8585 O   0  5  0  0  0  0  0  0  0  0  0  0
   50.2317   12.0969   11.2868 O   0  0  0  0  0  0  0  0  0  0  0  0
   44.8600   12.1210   14.5412 C   0  0  2  0  0  0  0  0  0  0  0  0
   44.3641   10.7720   14.6119 O   0  0  0  0  0  0  0  0  0  0  0  0
   43.8262   13.0528   13.8586 C   0  0  2  0  0  0  0  0  0  0  0  0
   42.5556   13.0125   14.5922 O   0  0  0  0  0  0  0  0  0  0  0  0
   43.6034   12.5616   12.4159 C   0  0  1  0  0  0  0  0  0  0  0  0
   42.6554   13.4093   11.7563 O   0  0  0  0  0  0  0  0  0  0  0  0
   44.9497   12.6149   11.6770 C   0  0  2  0  0  0  0  0  0  0  0  0
   44.7702   12.1475   10.3226 O   0  0  0  0  0  0  0  0  0  0  0  0
   45.9578   11.6988   12.4243 C   0  0  2  0  0  0  0  0  0  0  0  0
   46.1249   12.1594   13.8003 O   0  0  0  0  0  0  0  0  0  0  0  0
   47.3192   11.7726   11.7094 C   0  0  0  0  0  0  0  0  0  0  0  0
   47.8196   13.1153   11.7138 O   0  0  0  0  0  0  0  0  0  0  0  0
  1  2  1  6  0  0  0
  1  3  1  0  0  0  0
  1  4  2  0  0  0  0
  1 16  1  0  0  0  0
  5  6  1  6  0  0  0
  5  7  1  0  0  0  0
  5 14  1  0  0  0  0
  7  8  1  1  0  0  0
  7  9  1  0  0  0  0
  9 10  1  6  0  0  0
  9 11  1  0  0  0  0
 11 12  1  6  0  0  0
 11 13  1  0  0  0  0
 13 14  1  0  0  0  0
 13 15  1  6  0  0  0
 15 16  1  0  0  0  0
M  CHG  1   3  -1
M  END
>  <CHROM.1>
60.37461124,-172.39285049,64.14336865,46.30275762,12.62761611,12.10677432
-0.47202893,-0.05581010,1.91410992

>  <Name>
ligand

>  <RI>
0

>  <Rbt.Current_Directory>
/home/itssahil/PROJECTS/Mol_Feturizer/New_Systems/rnas/2HO7

>  <Rbt.Executable>
rbdock ($Id: //depot/dev/client3/rdock/2013.1/src/exe/rbdock.cxx#4 $)

>  <Rbt.Library>
libRbt.so (2013.1, Build901 2013/11/27)

>  <Rbt.Parameter_File>
/export/apps/rDock/src/rDock_2013.1_src/data/scripts/dock_solv.prm

>  <Rbt.Receptor>
prm/pocket_docking_2.prm

>  <SCORE>
-10.2188

>  <SCORE.INTER>
-10.3699

>  <SCORE.INTER.CONST>
1

>  <SCORE.INTER.POLAR>
-1.2989

>  <SCORE.INTER.ROT>
3

>  <SCORE.INTER.SOLV>
11.9509

>  <SCORE.INTER.VDW>
-12.1672

>  <SCORE.INTER.norm>
-0.648118

>  <SCORE.INTRA>
0.147793

>  <SCORE.INTRA.DIHEDRAL>
0.301263

>  <SCORE.INTRA.DIHEDRAL.0>
0.00893466

>  <SCORE.INTRA.POLAR>
0

>  <SCORE.INTRA.POLAR.0>
0

>  <SCORE.INTRA.REPUL>
0

>  <SCORE.INTRA.REPUL.0>
0

>  <SCORE.INTRA.SOLV>
0.262836

>  <SCORE.INTRA.SOLV.lig_0>
-48.9722

>  <SCORE.INTRA.VDW>
-0.134257

>  <SCORE.INTRA.VDW.0>
-0.529409

>  <SCORE.INTRA.norm>
0.00923703

>  <SCORE.RESTR>
0.00328363

>  <SCORE.RESTR.CAVITY>
0.00328363

>  <SCORE.RESTR.norm>
0.000205227

>  <SCORE.SYSTEM>
0

>  <SCORE.SYSTEM.CONST>
0

>  <SCORE.SYSTEM.DIHEDRAL>
0

>  <SCORE.SYSTEM.SOLV>
0

>  <SCORE.SYSTEM.norm>
0

>  <SCORE.heavy>
16

>  <SCORE.norm>
-0.638676

>  <RMSD>
1.357

$$$$
ligand
 OpenBabel11021811433D
libRbt.so/2013.1/901 2013/11/27
 16 16  0  0  0  0  0  0  0  0999 V2000
   49.6048   13.0776   11.4976 P   0  0  2  0  0  0  0  0  0  0  0  0
   50.3508   11.8724   11.9373 O   0  0  0  0  0  0  0  0  0  0  0  0
   49.4008   13.0243    9.9022 O   0  5  0  0  0  0  0  0  0  0  0  0
   50.4605   14.3867   11.8819 O   0  0  0  0  0  0  0  0  0  0  0  0
   44.9897   11.9591   14.7871 C   0  0  2  0  0  0  0  0  0  0  0  0
   44.2772   10.7362   14.5269 O   0  0  0  0  0  0  0  0  0  0  0  0
   44.1507   13.1885   14.3538 C   0  0  2  0  0  0  0  0  0  0  0  0
   42.8622   13.1873   15.0567 O   0  0  0  0  0  0  0  0  0  0  0  0
   43.9086   13.1039   12.8351 C   0  0  1  0  0  0  0  0  0  0  0  0
   43.1394   14.2328   12.4035 O   0  0  0  0  0  0  0  0  0  0  0  0
   45.2740   13.1059   12.1301 C   0  0  2  0  0  0  0  0  0  0  0  0
   45.0749   13.0156   10.7029 O   0  0  0  0  0  0  0  0  0  0  0  0
   46.0877   11.8804   12.6301 C   0  0  2  0  0  0  0  0  0  0  0  0
   46.2726   11.9611   14.0767 O   0  0  0  0  0  0  0  0  0  0  0  0
   47.4704   11.8937   11.9534 C   0  0  0  0  0  0  0  0  0  0  0  0
   48.1501   13.1270   12.2180 O   0  0  0  0  0  0  0  0  0  0  0  0
  1  2  1  1  0  0  0
  1  3  1  0  0  0  0
  1  4  2  0  0  0  0
  1 16  1  0  0  0  0
  5  6  1  6  0  0  0
  5  7  1  0  0  0  0
  5 14  1  0  0  0  0
  7  8  1  1  0  0  0
  7  9  1  0  0  0  0
  9 10  1  6  0  0  0
  9 11  1  0  0  0  0
 11 12  1  6  0  0  0
 11 13  1  0  0  0  0
 13 14  1  0  0  0  0
 13 15  1  6  0  0  0
 15 16  1  0  0  0  0
M  CHG  1   3  -1
M  END
>  <CHROM.1>
56.84383367,179.31346015,-54.70047002,46.61129679,12.76638506,12.57766620
-0.36492639,-0.18102893,2.13767452

>  <Name>
ligand

>  <RI>
0

>  <Rbt.Current_Directory>
/home/itssahil/PROJECTS/Mol_Feturizer/New_Systems/rnas/2HO7

>  <Rbt.Executable>
rbdock ($Id: //depot/dev/client3/rdock/2013.1/src/exe/rbdock.cxx#4 $)

>  <Rbt.Library>
libRbt.so (2013.1, Build901 2013/11/27)

>  <Rbt.Parameter_File>
/export/apps/rDock/src/rDock_2013.1_src/data/scripts/dock_solv.prm

>  <Rbt.Receptor>
prm/pocket_docking_4.prm

>  <SCORE>
-11.0272

>  <SCORE.INTER>
-11.1726

>  <SCORE.INTER.CONST>
1

>  <SCORE.INTER.POLAR>
-1.03823

>  <SCORE.INTER.ROT>
3

>  <SCORE.INTER.SOLV>
13.5154

>  <SCORE.INTER.VDW>
-14.0928

>  <SCORE.INTER.norm>
-0.69829

>  <SCORE.INTRA>
0.145429

>  <SCORE.INTRA.DIHEDRAL>
0.0751886

>  <SCORE.INTRA.DIHEDRAL.0>
0.00893466

>  <SCORE.INTRA.POLAR>
0

>  <SCORE.INTRA.POLAR.0>
0

>  <SCORE.INTRA.REPUL>
0

>  <SCORE.INTRA.REPUL.0>
0

>  <SCORE.INTRA.SOLV>
0.214524

>  <SCORE.INTRA.SOLV.lig_0>
-48.9722

>  <SCORE.INTRA.VDW>
0.000572454

>  <SCORE.INTRA.VDW.0>
-0.529409

>  <SCORE.INTRA.norm>
0.00908931

>  <SCORE.RESTR>
0

>  <SCORE.RESTR.CAVITY>
0

>  <SCORE.RESTR.norm>
0

>  <SCORE.SYSTEM>
0

>  <SCORE.SYSTEM.CONST>
0

>  <SCORE.SYSTEM.DIHEDRAL>
0

>  <SCORE.SYSTEM.SOLV>
0

>  <SCORE.SYSTEM.norm>
0

>  <SCORE.heavy>
16

>  <SCORE.norm>
-0.689201

>  <RMSD>
1.359

$$$$
ligand
 OpenBabel11021811433D
libRbt.so/2013.1/901 2013/11/27
 16 16  0  0  0  0  0  0  0  0999 V2000
   49.5975   13.0848   11.4941 P   0  0  2  0  0  0  0  0  0  0  0  0
   50.3490   11.8793   11.9234 O   0  0  0  0  0  0  0  0  0  0  0  0
   49.3714   13.0318    9.9017 O   0  5  0  0  0  0  0  0  0  0  0  0
   50.4588   14.3936   11.8667 O   0  0  0  0  0  0  0  0  0  0  0  0
   44.9992   12.0055   14.7866 C   0  0  2  0  0  0  0  0  0  0  0  0
   44.2877   10.7786   14.5434 O   0  0  0  0  0  0  0  0  0  0  0  0
   44.1492   13.2293   14.3590 C   0  0  2  0  0  0  0  0  0  0  0  0
   42.8712   13.2272   15.0806 O   0  0  0  0  0  0  0  0  0  0  0  0
   43.8853   13.1355   12.8444 C   0  0  1  0  0  0  0  0  0  0  0  0
   43.1056   14.2592   12.4180 O   0  0  0  0  0  0  0  0  0  0  0  0
   45.2402   13.1388   12.1195 C   0  0  2  0  0  0  0  0  0  0  0  0
   45.0207   13.0399   10.6958 O   0  0  0  0  0  0  0  0  0  0  0  0
   46.0658   11.9191   12.6142 C   0  0  2  0  0  0  0  0  0  0  0  0
   46.2715   12.0083   14.0574 O   0  0  0  0  0  0  0  0  0  0  0  0
   47.4385   11.9338   11.9172 C   0  0  0  0  0  0  0  0  0  0  0  0
   48.1529   13.1346   12.2346 O   0  0  0  0  0  0  0  0  0  0  0  0
  1  2  1  1  0  0  0
  1  3  1  0  0  0  0
  1  4  2  0  0  0  0
  1 16  1  0  0  0  0
  5  6  1  6  0  0  0
  5  7  1  0  0  0  0
  5 14  1  0  0  0  0
  7  8  1  1  0  0  0
  7  9  1  0  0  0  0
  9 10  1  6  0  0  0
  9 11  1  0  0  0  0
 11 12  1  6  0  0  0
 11 13  1  0  0  0  0
 13 14  1  0  0  0  0
 13 15  1  6  0  0  0
 15 16  1  0  0  0  0
M  CHG  1   3  -1
M  END
>  <CHROM.1>
60.52446962,179.10433789,-57.92025800,46.59873648,12.79239300,12.57558476
-0.36476557,-0.18016186,2.12053109

>  <Name>
ligand

>  <RI>
0

>  <Rbt.Current_Directory>
/home/itssahil/PROJECTS/Mol_Feturizer/New_Systems/rnas/2HO7

>  <Rbt.Executable>
rbdock ($Id: //depot/dev/client3/rdock/2013.1/src/exe/rbdock.cxx#4 $)

>  <Rbt.Library>
libRbt.so (2013.1, Build901 2013/11/27)

>  <Rbt.Parameter_File>
/export/apps/rDock/src/rDock_2013.1_src/data/scripts/dock_solv.prm

>  <Rbt.Receptor>
prm/pocket_docking_3.prm

>  <SCORE>
-11.0884

>  <SCORE.INTER>
-11.1477

>  <SCORE.INTER.CONST>
1

>  <SCORE.INTER.POLAR>
-1.03923

>  <SCORE.INTER.ROT>
3

>  <SCORE.INTER.SOLV>
13.4573

>  <SCORE.INTER.VDW>
-14.0535

>  <SCORE.INTER.norm>
-0.696731

>  <SCORE.INTRA>
0.0593004

>  <SCORE.INTRA.DIHEDRAL>
0.00304743

>  <SCORE.INTRA.DIHEDRAL.0>
0.00893466

>  <SCORE.INTRA.POLAR>
0

>  <SCORE.INTRA.POLAR.0>
0

>  <SCORE.INTRA.REPUL>
0

>  <SCORE.INTRA.REPUL.0>
0

>  <SCORE.INTRA.SOLV>
0.2322

>  <SCORE.INTRA.SOLV.lig_0>
-48.9722

>  <SCORE.INTRA.VDW>
-0.0583231

>  <SCORE.INTRA.VDW.0>
-0.529409

>  <SCORE.INTRA.norm>
0.00370627

>  <SCORE.RESTR>
0

>  <SCORE.RESTR.CAVITY>
0

>  <SCORE.RESTR.norm>
0

>  <SCORE.SYSTEM>
0

>  <SCORE.SYSTEM.CONST>
0

>  <SCORE.SYSTEM.DIHEDRAL>
0

>  <SCORE.SYSTEM.SOLV>
0

>  <SCORE.SYSTEM.norm>
0

>  <SCORE.heavy>
16

>  <SCORE.norm>
-0.693025

>  <RMSD>
1.360

$$$$
ligand
 OpenBabel11021811433D
libRbt.so/2013.1/901 2013/11/27
 16 16  0  0  0  0  0  0  0  0999 V2000
   48.8047   13.2234   10.0943 P   0  0  2  0  0  0  0  0  0  0  0  0
   49.3831   14.3212   10.9083 O   0  0  0  0  0  0  0  0  0  0  0  0
   49.7228   11.9101   10.2431 O   0  5  0  0  0  0  0  0  0  0  0  0
   48.7758   13.6812    8.5506 O   0  0  0  0  0  0  0  0  0  0  0  0
   44.6945   11.9570   14.6062 C   0  0  2  0  0  0  0  0  0  0  0  0
   44.0532   10.8203   14.0000 O   0  0  0  0  0  0  0  0  0  0  0  0
   43.8296   13.2324   14.4373 C   0  0  2  0  0  0  0  0  0  0  0  0
   42.5028   13.0185   15.0271 O   0  0  0  0  0  0  0  0  0  0  0  0
   43.6826   13.5272   12.9327 C   0  0  1  0  0  0  0  0  0  0  0  0
   42.8917   14.7070   12.7451 O   0  0  0  0  0  0  0  0  0  0  0  0
   45.0863   13.7446   12.3463 C   0  0  2  0  0  0  0  0  0  0  0  0
   44.9769   14.0120   10.9316 O   0  0  0  0  0  0  0  0  0  0  0  0
   45.9217   12.4554   12.5788 C   0  0  2  0  0  0  0  0  0  0  0  0
   46.0161   12.1735   14.0088 O   0  0  0  0  0  0  0  0  0  0  0  0
   47.3405   12.6771   12.0238 C   0  0  0  0  0  0  0  0  0  0  0  0
   47.3017   12.8816   10.6061 O   0  0  0  0  0  0  0  0  0  0  0  0
  1  2  1  1  0  0  0
  1  3  1  0  0  0  0
  1  4  2  0  0  0  0
  1 16  1  0  0  0  0
  5  6  1  6  0  0  0
  5  7  1  0  0  0  0
  5 14  1  0  0  0  0
  7  8  1  6  0  0  0
  7  9  1  0  0  0  0
  9 10  1  1  0  0  0
  9 11  1  0  0  0  0
 11 12  1  6  0  0  0
 11 13  1  0  0  0  0
 13 14  1  0  0  0  0
 13 15  1  1  0  0  0
 15 16  1  0  0  0  0
M  CHG  1   3  -1
M  END
>  <CHROM.1>
-63.55969542,175.66997615,-51.34034581,46.17049883,13.03821520,12.06094991
-0.49523728,-0.44112225,2.32198460

>  <Name>
ligand

>  <RI>
0

>  <Rbt.Current_Directory>
/home/itssahil/PROJECTS/Mol_Feturizer/New_Systems/rnas/2HO7

>  <Rbt.Executable>
rbdock ($Id: //depot/dev/client3/rdock/2013.1/src/exe/rbdock.cxx#4 $)

>  <Rbt.Library>
libRbt.so (2013.1, Build901 2013/11/27)

>  <Rbt.Parameter_File>
/export/apps/rDock/src/rDock_2013.1_src/data/scripts/dock_solv.prm

>  <Rbt.Receptor>
prm/pocket_docking_3.prm

>  <SCORE>
-10.9792

>  <SCORE.INTER>
-11.5805

>  <SCORE.INTER.CONST>
1

>  <SCORE.INTER.POLAR>
-1.29904

>  <SCORE.INTER.ROT>
3

>  <SCORE.INTER.SOLV>
12.597

>  <SCORE.INTER.VDW>
-13.1892

>  <SCORE.INTER.norm>
-0.723783

>  <SCORE.INTRA>
0.60128

>  <SCORE.INTRA.DIHEDRAL>
0.249843

>  <SCORE.INTRA.DIHEDRAL.0>
0.00893466

>  <SCORE.INTRA.POLAR>
0

>  <SCORE.INTRA.POLAR.0>
0

>  <SCORE.INTRA.REPUL>
0

>  <SCORE.INTRA.REPUL.0>
0

>  <SCORE.INTRA.SOLV>
0.439254

>  <SCORE.INTRA.SOLV.lig_0>
-48.9722

>  <SCORE.INTRA.VDW>
0.256732

>  <SCORE.INTRA.VDW.0>
-0.529409

>  <SCORE.INTRA.norm>
0.03758

>  <SCORE.RESTR>
0

>  <SCORE.RESTR.CAVITY>
0

>  <SCORE.RESTR.norm>
0

>  <SCORE.SYSTEM>
0

>  <SCORE.SYSTEM.CONST>
0

>  <SCORE.SYSTEM.DIHEDRAL>
0

>  <SCORE.SYSTEM.SOLV>
0

>  <SCORE.SYSTEM.norm>
0

>  <SCORE.heavy>
16

>  <SCORE.norm>
-0.686203

>  <RMSD>
1.364

$$$$
ligand
 OpenBabel11021811433D
libRbt.so/2013.1/901 2013/11/27
 16 16  0  0  0  0  0  0  0  0999 V2000
   48.7434   13.2311   10.2760 P   0  0  2  0  0  0  0  0  0  0  0  0
   49.3184   14.3363   11.0823 O   0  0  0  0  0  0  0  0  0  0  0  0
   49.6602   11.9190   10.4416 O   0  5  0  0  0  0  0  0  0  0  0  0
   48.7223   13.6745    8.7279 O   0  0  0  0  0  0  0  0  0  0  0  0
   44.6132   12.0115   14.7821 C   0  0  2  0  0  0  0  0  0  0  0  0
   43.9838   10.8573   14.1970 O   0  0  0  0  0  0  0  0  0  0  0  0
   43.7409   13.2768   14.5795 C   0  0  2  0  0  0  0  0  0  0  0  0
   42.4116   13.0667   15.1652 O   0  0  0  0  0  0  0  0  0  0  0  0
   43.6019   13.5374   13.0678 C   0  0  1  0  0  0  0  0  0  0  0  0
   42.8043   14.7072   12.8491 O   0  0  0  0  0  0  0  0  0  0  0  0
   45.0079   13.7516   12.4860 C   0  0  2  0  0  0  0  0  0  0  0  0
   44.9062   13.9870   11.0650 O   0  0  0  0  0  0  0  0  0  0  0  0
   45.8506   12.4737   12.7523 C   0  0  2  0  0  0  0  0  0  0  0  0
   45.9374   12.2240   14.1887 O   0  0  0  0  0  0  0  0  0  0  0  0
   47.2715   12.6930   12.2018 C   0  0  0  0  0  0  0  0  0  0  0  0
   47.2378   12.8949   10.7837 O   0  0  0  0  0  0  0  0  0  0  0  0
  1  2  1  1  0  0  0
  1  3  1  0  0  0  0
  1  4  2  0  0  0  0
  1 16  1  0  0  0  0
  5  6  1  6  0  0  0
  5  7  1  0  0  0  0
  5 14  1  0  0  0  0
  7  8  1  6  0  0  0
  7  9  1  0  0  0  0
  9 10  1  1  0  0  0
  9 11  1  0  0  0  0
 11 12  1  6  0  0  0
 11 13  1  0  0  0  0
 13 14  1  0  0  0  0
 13 15  1  1  0  0  0
 15 16  1  0  0  0  0
M  CHG  1   3  -1
M  END
>  <CHROM.1>
-62.30465464,175.78897939,-51.80715213,46.09828852,13.05582349,12.22536490
-0.49697956,-0.42912803,2.30201943

>  <Name>
ligand

>  <RI>
0

>  <Rbt.Current_Directory>
/home/itssahil/PROJECTS/Mol_Feturizer/New_Systems/rnas/2HO7

>  <Rbt.Executable>
rbdock ($Id: //depot/dev/client3/rdock/2013.1/src/exe/rbdock.cxx#4 $)

>  <Rbt.Library>
libRbt.so (2013.1, Build901 2013/11/27)

>  <Rbt.Parameter_File>
/export/apps/rDock/src/rDock_2013.1_src/data/scripts/dock_solv.prm

>  <Rbt.Receptor>
prm/pocket_docking_4.prm

>  <SCORE>
-11.0116

>  <SCORE.INTER>
-11.6344

>  <SCORE.INTER.CONST>
1

>  <SCORE.INTER.POLAR>
-1.29904

>  <SCORE.INTER.ROT>
3

>  <SCORE.INTER.SOLV>
12.98

>  <SCORE.INTER.VDW>
-13.3528

>  <SCORE.INTER.norm>
-0.727148

>  <SCORE.INTRA>
0.622796

>  <SCORE.INTRA.DIHEDRAL>
0.205758

>  <SCORE.INTRA.DIHEDRAL.0>
0.00893466

>  <SCORE.INTRA.POLAR>
0

>  <SCORE.INTRA.POLAR.0>
0

>  <SCORE.INTRA.REPUL>
0

>  <SCORE.INTRA.REPUL.0>
0

>  <SCORE.INTRA.SOLV>
0.452505

>  <SCORE.INTRA.SOLV.lig_0>
-48.9722

>  <SCORE.INTRA.VDW>
0.293665

>  <SCORE.INTRA.VDW.0>
-0.529409

>  <SCORE.INTRA.norm>
0.0389248

>  <SCORE.RESTR>
0

>  <SCORE.RESTR.CAVITY>
0

>  <SCORE.RESTR.norm>
0

>  <SCORE.SYSTEM>
0

>  <SCORE.SYSTEM.CONST>
0

>  <SCORE.SYSTEM.DIHEDRAL>
0

>  <SCORE.SYSTEM.SOLV>
0

>  <SCORE.SYSTEM.norm>
0

>  <SCORE.heavy>
16

>  <SCORE.norm>
-0.688223

>  <RMSD>
1.381

$$$$
ligand
 OpenBabel11021811433D
libRbt.so/2013.1/901 2013/11/27
 16 16  0  0  0  0  0  0  0  0999 V2000
   49.5393   13.0725   11.4749 P   0  0  2  0  0  0  0  0  0  0  0  0
   50.2777   11.8654   11.9220 O   0  0  0  0  0  0  0  0  0  0  0  0
   49.3174   13.0008    9.8826 O   0  5  0  0  0  0  0  0  0  0  0  0
   50.4124   14.3775   11.8330 O   0  0  0  0  0  0  0  0  0  0  0  0
   44.9452   12.0228   14.8030 C   0  0  2  0  0  0  0  0  0  0  0  0
   44.2080   10.8140   14.5458 O   0  0  0  0  0  0  0  0  0  0  0  0
   44.1204   13.2692   14.3917 C   0  0  2  0  0  0  0  0  0  0  0  0
   42.8435   13.2848   15.1151 O   0  0  0  0  0  0  0  0  0  0  0  0
   43.8528   13.1996   12.8765 C   0  0  1  0  0  0  0  0  0  0  0  0
   43.0961   14.3445   12.4651 O   0  0  0  0  0  0  0  0  0  0  0  0
   45.2067   13.1837   12.1498 C   0  0  2  0  0  0  0  0  0  0  0  0
   44.9834   13.1070   10.7253 O   0  0  0  0  0  0  0  0  0  0  0  0
   46.0073   11.9410   12.6282 C   0  0  2  0  0  0  0  0  0  0  0  0
   46.2165   12.0082   14.0721 O   0  0  0  0  0  0  0  0  0  0  0  0
   47.3791   11.9359   11.9295 C   0  0  0  0  0  0  0  0  0  0  0  0
   48.0931   13.1460   12.2101 O   0  0  0  0  0  0  0  0  0  0  0  0
  1  2  1  1  0  0  0
  1  3  1  0  0  0  0
  1  4  2  0  0  0  0
  1 16  1  0  0  0  0
  5  6  1  6  0  0  0
  5  7  1  0  0  0  0
  5 14  1  0  0  0  0
  7  8  1  1  0  0  0
  7  9  1  0  0  0  0
  9 10  1  6  0  0  0
  9 11  1  0  0  0  0
 11 12  1  6  0  0  0
 11 13  1  0  0  0  0
 13 14  1  0  0  0  0
 13 15  1  6  0  0  0
 15 16  1  0  0  0  0
M  CHG  1   3  -1
M  END
>  <CHROM.1>
57.81673845,178.87616769,-56.71506272,46.54999696,12.81296231,12.58344719
-0.36372263,-0.20189896,2.14083843

>  <Name>
ligand

>  <RI>
0

>  <Rbt.Current_Directory>
/home/itssahil/PROJECTS/Mol_Feturizer/New_Systems/rnas/2HO7

>  <Rbt.Executable>
rbdock ($Id: //depot/dev/client3/rdock/2013.1/src/exe/rbdock.cxx#4 $)

>  <Rbt.Library>
libRbt.so (2013.1, Build901 2013/11/27)

>  <Rbt.Parameter_File>
/export/apps/rDock/src/rDock_2013.1_src/data/scripts/dock_solv.prm

>  <Rbt.Receptor>
prm/pocket_docking_3.prm

>  <SCORE>
-11.1657

>  <SCORE.INTER>
-11.264

>  <SCORE.INTER.CONST>
1

>  <SCORE.INTER.POLAR>
-1.03863

>  <SCORE.INTER.ROT>
3

>  <SCORE.INTER.SOLV>
13.4868

>  <SCORE.INTER.VDW>
-14.1428

>  <SCORE.INTER.norm>
-0.704

>  <SCORE.INTRA>
0.0982875

>  <SCORE.INTRA.DIHEDRAL>
0.0322648

>  <SCORE.INTRA.DIHEDRAL.0>
0.00893466

>  <SCORE.INTRA.POLAR>
0

>  <SCORE.INTRA.POLAR.0>
0

>  <SCORE.INTRA.REPUL>
0

>  <SCORE.INTRA.REPUL.0>
0

>  <SCORE.INTRA.SOLV>
0.220095

>  <SCORE.INTRA.SOLV.lig_0>
-48.9722

>  <SCORE.INTRA.VDW>
-0.0278924

>  <SCORE.INTRA.VDW.0>
-0.529409

>  <SCORE.INTRA.norm>
0.00614297

>  <SCORE.RESTR>
0

>  <SCORE.RESTR.CAVITY>
0

>  <SCORE.RESTR.norm>
0

>  <SCORE.SYSTEM>
0

>  <SCORE.SYSTEM.CONST>
0

>  <SCORE.SYSTEM.DIHEDRAL>
0

>  <SCORE.SYSTEM.SOLV>
0

>  <SCORE.SYSTEM.norm>
0

>  <SCORE.heavy>
16

>  <SCORE.norm>
-0.697857

>  <RMSD>
1.382

$$$$
ligand
 OpenBabel11021811433D
libRbt.so/2013.1/901 2013/11/27
 16 16  0  0  0  0  0  0  0  0999 V2000
   49.2424   13.0757   10.3477 P   0  0  2  0  0  0  0  0  0  0  0  0
   49.4360   12.9821    8.8794 O   0  0  0  0  0  0  0  0  0  0  0  0
   49.4323   14.6046   10.8129 O   0  5  0  0  0  0  0  0  0  0  0  0
   50.3454   12.1561   11.0766 O   0  0  0  0  0  0  0  0  0  0  0  0
   44.7786   11.9415   14.5440 C   0  0  2  0  0  0  0  0  0  0  0  0
   44.2936   10.6895   14.0263 O   0  0  0  0  0  0  0  0  0  0  0  0
   43.8478   13.1083   14.1254 C   0  0  2  0  0  0  0  0  0  0  0  0
   42.4823   12.8532   14.5991 O   0  0  0  0  0  0  0  0  0  0  0  0
   43.8494   13.2072   12.5883 C   0  0  1  0  0  0  0  0  0  0  0  0
   43.0010   14.2835   12.1711 O   0  0  0  0  0  0  0  0  0  0  0  0
   45.2905   13.4727   12.1255 C   0  0  2  0  0  0  0  0  0  0  0  0
   45.3213   13.5584   10.6845 O   0  0  0  0  0  0  0  0  0  0  0  0
   46.1860   12.2973   12.6056 C   0  0  2  0  0  0  0  0  0  0  0  0
   46.1397   12.1978   14.0620 O   0  0  0  0  0  0  0  0  0  0  0  0
   47.6382   12.5722   12.1747 C   0  0  0  0  0  0  0  0  0  0  0  0
   47.7477   12.5809   10.7461 O   0  0  0  0  0  0  0  0  0  0  0  0
  1  2  1  6  0  0  0
  1  3  1  0  0  0  0
  1  4  2  0  0  0  0
  1 16  1  0  0  0  0
  5  6  1  6  0  0  0
  5  7  1  0  0  0  0
  5 14  1  0  0  0  0
  7  8  1  6  0  0  0
  7  9  1  0  0  0  0
  9 10  1  1  0  0  0
  9 11  1  0  0  0  0
 11 12  1  6  0  0  0
 11 13  1  0  0  0  0
 13 14  1  0  0  0  0
 13 15  1  1  0  0  0
 15 16  1  0  0  0  0
M  CHG  1   3  -1
M  END
>  <CHROM.1>
-64.45091554,172.25013239,174.93357107,46.44025313,12.86688282,12.05575068
0.46383973,0.30365197,-0.91653219

>  <Name>
ligand

>  <RI>
0

>  <Rbt.Current_Directory>
/home/itssahil/PROJECTS/Mol_Feturizer/New_Systems/rnas/2HO7

>  <Rbt.Executable>
rbdock ($Id: //depot/dev/client3/rdock/2013.1/src/exe/rbdock.cxx#4 $)

>  <Rbt.Library>
libRbt.so (2013.1, Build901 2013/11/27)

>  <Rbt.Parameter_File>
/export/apps/rDock/src/rDock_2013.1_src/data/scripts/dock_solv.prm

>  <Rbt.Receptor>
prm/pocket_docking_2.prm

>  <SCORE>
-10.1774

>  <SCORE.INTER>
-11.105

>  <SCORE.INTER.CONST>
1

>  <SCORE.INTER.POLAR>
-1.29904

>  <SCORE.INTER.ROT>
3

>  <SCORE.INTER.SOLV>
11.0147

>  <SCORE.INTER.VDW>
-12.3448

>  <SCORE.INTER.norm>
-0.694059

>  <SCORE.INTRA>
0.927535

>  <SCORE.INTRA.DIHEDRAL>
0.397722

>  <SCORE.INTRA.DIHEDRAL.0>
0.00893466

>  <SCORE.INTRA.POLAR>
0

>  <SCORE.INTRA.POLAR.0>
0

>  <SCORE.INTRA.REPUL>
0

>  <SCORE.INTRA.REPUL.0>
0

>  <SCORE.INTRA.SOLV>
1.41802

>  <SCORE.INTRA.SOLV.lig_0>
-48.9722

>  <SCORE.INTRA.VDW>
0.0196649

>  <SCORE.INTRA.VDW.0>
-0.529409

>  <SCORE.INTRA.norm>
0.0579709

>  <SCORE.RESTR>
0

>  <SCORE.RESTR.CAVITY>
0

>  <SCORE.RESTR.norm>
0

>  <SCORE.SYSTEM>
0

>  <SCORE.SYSTEM.CONST>
0

>  <SCORE.SYSTEM.DIHEDRAL>
0

>  <SCORE.SYSTEM.SOLV>
0

>  <SCORE.SYSTEM.norm>
0

>  <SCORE.heavy>
16

>  <SCORE.norm>
-0.636088

>  <RMSD>
1.387

$$$$
ligand
 OpenBabel11021811433D
libRbt.so/2013.1/901 2013/11/27
 16 16  0  0  0  0  0  0  0  0999 V2000
   49.4341   13.1498   11.2713 P   0  0  2  0  0  0  0  0  0  0  0  0
   49.1560   12.9525    9.8270 O   0  0  0  0  0  0  0  0  0  0  0  0
   50.1835   14.5584   11.4811 O   0  5  0  0  0  0  0  0  0  0  0  0
   50.3874   11.9574   11.7842 O   0  0  0  0  0  0  0  0  0  0  0  0
   45.0102   12.0458   14.8471 C   0  0  2  0  0  0  0  0  0  0  0  0
   44.3448   10.7790   14.6953 O   0  0  0  0  0  0  0  0  0  0  0  0
   44.1056   13.2055   14.3573 C   0  0  2  0  0  0  0  0  0  0  0  0
   42.8398   13.2001   15.1001 O   0  0  0  0  0  0  0  0  0  0  0  0
   43.8229   13.0041   12.8567 C   0  0  1  0  0  0  0  0  0  0  0  0
   42.9924   14.0667   12.3733 O   0  0  0  0  0  0  0  0  0  0  0  0
   45.1655   13.0135   12.1094 C   0  0  2  0  0  0  0  0  0  0  0  0
   44.9286   12.8146   10.6990 O   0  0  0  0  0  0  0  0  0  0  0  0
   46.0466   11.8613   12.6662 C   0  0  2  0  0  0  0  0  0  0  0  0
   46.2703   12.0513   14.0970 O   0  0  0  0  0  0  0  0  0  0  0  0
   47.4069   11.8846   11.9457 C   0  0  0  0  0  0  0  0  0  0  0  0
   48.0441   13.1572   12.1112 O   0  0  0  0  0  0  0  0  0  0  0  0
  1  2  1  6  0  0  0
  1  3  1  0  0  0  0
  1  4  2  0  0  0  0
  1 16  1  0  0  0  0
  5  6  1  6  0  0  0
  5  7  1  0  0  0  0
  5 14  1  0  0  0  0
  7  8  1  1  0  0  0
  7  9  1  0  0  0  0
  9 10  1  6  0  0  0
  9 11  1  0  0  0  0
 11 12  1  6  0  0  0
 11 13  1  0  0  0  0
 13 14  1  0  0  0  0
 13 15  1  6  0  0  0
 15 16  1  0  0  0  0
M  CHG  1   3  -1
M  END
>  <CHROM.1>
57.30706558,-177.18080802,61.66985774,46.52068250,12.76877372,12.52092728
-0.41664341,-0.17439350,2.08897002

>  <Name>
ligand

>  <RI>
0

>  <Rbt.Current_Directory>
/home/itssahil/PROJECTS/Mol_Feturizer/New_Systems/rnas/2HO7

>  <Rbt.Executable>
rbdock ($Id: //depot/dev/client3/rdock/2013.1/src/exe/rbdock.cxx#4 $)

>  <Rbt.Library>
libRbt.so (2013.1, Build901 2013/11/27)

>  <Rbt.Parameter_File>
/export/apps/rDock/src/rDock_2013.1_src/data/scripts/dock_solv.prm

>  <Rbt.Receptor>
prm/pocket_docking_5.prm

>  <SCORE>
-11.6198

>  <SCORE.INTER>
-11.683

>  <SCORE.INTER.CONST>
1

>  <SCORE.INTER.POLAR>
-1.29904

>  <SCORE.INTER.ROT>
3

>  <SCORE.INTER.SOLV>
14.5705

>  <SCORE.INTER.VDW>
-13.9154

>  <SCORE.INTER.norm>
-0.730186

>  <SCORE.INTRA>
0.0631756

>  <SCORE.INTRA.DIHEDRAL>
0.0612183

>  <SCORE.INTRA.DIHEDRAL.0>
0.00893466

>  <SCORE.INTRA.POLAR>
0

>  <SCORE.INTRA.POLAR.0>
0

>  <SCORE.INTRA.REPUL>
0

>  <SCORE.INTRA.REPUL.0>
0

>  <SCORE.INTRA.SOLV>
0.245266

>  <SCORE.INTRA.SOLV.lig_0>
-48.9722

>  <SCORE.INTRA.VDW>
-0.0900667

>  <SCORE.INTRA.VDW.0>
-0.529409

>  <SCORE.INTRA.norm>
0.00394847

>  <SCORE.RESTR>
0

>  <SCORE.RESTR.CAVITY>
0

>  <SCORE.RESTR.norm>
0

>  <SCORE.SYSTEM>
0

>  <SCORE.SYSTEM.CONST>
0

>  <SCORE.SYSTEM.DIHEDRAL>
0

>  <SCORE.SYSTEM.SOLV>
0

>  <SCORE.SYSTEM.norm>
0

>  <SCORE.heavy>
16

>  <SCORE.norm>
-0.726238

>  <RMSD>
1.387

$$$$
ligand
 OpenBabel11021811433D
libRbt.so/2013.1/901 2013/11/27
 16 16  0  0  0  0  0  0  0  0999 V2000
   49.5283   13.0627   11.4723 P   0  0  2  0  0  0  0  0  0  0  0  0
   50.2792   11.8648   11.9233 O   0  0  0  0  0  0  0  0  0  0  0  0
   49.2867   12.9722    9.8839 O   0  5  0  0  0  0  0  0  0  0  0  0
   50.3981   14.3765   11.8051 O   0  0  0  0  0  0  0  0  0  0  0  0
   44.9325   12.0301   14.8031 C   0  0  2  0  0  0  0  0  0  0  0  0
   44.1851   10.8289   14.5400 O   0  0  0  0  0  0  0  0  0  0  0  0
   44.1167   13.2856   14.4015 C   0  0  2  0  0  0  0  0  0  0  0  0
   42.8416   13.3068   15.1280 O   0  0  0  0  0  0  0  0  0  0  0  0
   43.8451   13.2278   12.8865 C   0  0  1  0  0  0  0  0  0  0  0  0
   43.0967   14.3812   12.4841 O   0  0  0  0  0  0  0  0  0  0  0  0
   45.1971   13.2055   12.1565 C   0  0  2  0  0  0  0  0  0  0  0  0
   44.9700   13.1396   10.7321 O   0  0  0  0  0  0  0  0  0  0  0  0
   45.9889   11.9536   12.6253 C   0  0  2  0  0  0  0  0  0  0  0  0
   46.2019   12.0100   14.0691 O   0  0  0  0  0  0  0  0  0  0  0  0
   47.3590   11.9419   11.9234 C   0  0  0  0  0  0  0  0  0  0  0  0
   48.0910   13.1361   12.2250 O   0  0  0  0  0  0  0  0  0  0  0  0
  1  2  1  1  0  0  0
  1  3  1  0  0  0  0
  1  4  2  0  0  0  0
  1 16  1  0  0  0  0
  5  6  1  6  0  0  0
  5  7  1  0  0  0  0
  5 14  1  0  0  0  0
  7  8  1  1  0  0  0
  7  9  1  0  0  0  0
  9 10  1  6  0  0  0
  9 11  1  0  0  0  0
 11 12  1  6  0  0  0
 11 13  1  0  0  0  0
 13 14  1  0  0  0  0
 13 15  1  6  0  0  0
 15 16  1  0  0  0  0
M  CHG  1   3  -1
M  END
>  <CHROM.1>
58.62530320,179.46336115,-58.97313692,46.53872267,12.82079880,12.58524767
-0.36089463,-0.21000278,2.14776389

>  <Name>
ligand

>  <RI>
0

>  <Rbt.Current_Directory>
/home/itssahil/PROJECTS/Mol_Feturizer/New_Systems/rnas/2HO7

>  <Rbt.Executable>
rbdock ($Id: //depot/dev/client3/rdock/2013.1/src/exe/rbdock.cxx#4 $)

>  <Rbt.Library>
libRbt.so (2013.1, Build901 2013/11/27)

>  <Rbt.Parameter_File>
/export/apps/rDock/src/rDock_2013.1_src/data/scripts/dock_solv.prm

>  <Rbt.Receptor>
prm/pocket_docking_3.prm

>  <SCORE>
-11.1878

>  <SCORE.INTER>
-11.2656

>  <SCORE.INTER.CONST>
1

>  <SCORE.INTER.POLAR>
-1.0392

>  <SCORE.INTER.ROT>
3

>  <SCORE.INTER.SOLV>
13.4967

>  <SCORE.INTER.VDW>
-14.1453

>  <SCORE.INTER.norm>
-0.704097

>  <SCORE.INTRA>
0.0777688

>  <SCORE.INTRA.DIHEDRAL>
0.00122844

>  <SCORE.INTRA.DIHEDRAL.0>
0.00893466

>  <SCORE.INTRA.POLAR>
0

>  <SCORE.INTRA.POLAR.0>
0

>  <SCORE.INTRA.REPUL>
0

>  <SCORE.INTRA.REPUL.0>
0

>  <SCORE.INTRA.SOLV>
0.257124

>  <SCORE.INTRA.SOLV.lig_0>
-48.9722

>  <SCORE.INTRA.VDW>
-0.0514073

>  <SCORE.INTRA.VDW.0>
-0.529409

>  <SCORE.INTRA.norm>
0.00486055

>  <SCORE.RESTR>
0

>  <SCORE.RESTR.CAVITY>
0

>  <SCORE.RESTR.norm>
0

>  <SCORE.SYSTEM>
0

>  <SCORE.SYSTEM.CONST>
0

>  <SCORE.SYSTEM.DIHEDRAL>
0

>  <SCORE.SYSTEM.SOLV>
0

>  <SCORE.SYSTEM.norm>
0

>  <SCORE.heavy>
16

>  <SCORE.norm>
-0.699237

>  <RMSD>
1.388

$$$$
ligand
 OpenBabel11021811433D
libRbt.so/2013.1/901 2013/11/27
 16 16  0  0  0  0  0  0  0  0999 V2000
   49.4282   13.1049   11.2313 P   0  0  2  0  0  0  0  0  0  0  0  0
   49.1652   12.8387    9.7953 O   0  0  0  0  0  0  0  0  0  0  0  0
   50.1611   14.5295   11.3828 O   0  5  0  0  0  0  0  0  0  0  0  0
   50.3890   11.9475   11.8065 O   0  0  0  0  0  0  0  0  0  0  0  0
   45.0052   12.0947   14.8195 C   0  0  2  0  0  0  0  0  0  0  0  0
   44.3456   10.8208   14.7069 O   0  0  0  0  0  0  0  0  0  0  0  0
   44.0922   13.2355   14.3017 C   0  0  2  0  0  0  0  0  0  0  0  0
   42.8301   13.2448   15.0507 O   0  0  0  0  0  0  0  0  0  0  0  0
   43.8030   12.9904   12.8088 C   0  0  1  0  0  0  0  0  0  0  0  0
   42.9648   14.0347   12.2998 O   0  0  0  0  0  0  0  0  0  0  0  0
   45.1419   12.9853   12.0547 C   0  0  2  0  0  0  0  0  0  0  0  0
   44.8990   12.7454   10.6517 O   0  0  0  0  0  0  0  0  0  0  0  0
   46.0317   11.8537   12.6394 C   0  0  2  0  0  0  0  0  0  0  0  0
   46.2615   12.0853   14.0630 O   0  0  0  0  0  0  0  0  0  0  0  0
   47.3882   11.8635   11.9115 C   0  0  0  0  0  0  0  0  0  0  0  0
   48.0306   13.1359   12.0580 O   0  0  0  0  0  0  0  0  0  0  0  0
  1  2  1  6  0  0  0
  1  3  1  0  0  0  0
  1  4  2  0  0  0  0
  1 16  1  0  0  0  0
  5  6  1  6  0  0  0
  5  7  1  0  0  0  0
  5 14  1  0  0  0  0
  7  8  1  1  0  0  0
  7  9  1  0  0  0  0
  9 10  1  6  0  0  0
  9 11  1  0  0  0  0
 11 12  1  6  0  0  0
 11 13  1  0  0  0  0
 13 14  1  0  0  0  0
 13 15  1  6  0  0  0
 15 16  1  0  0  0  0
M  CHG  1   3  -1
M  END
>  <CHROM.1>
58.34322841,-178.11123838,59.91621981,46.50868614,12.75389788,12.48102418
-0.41546620,-0.16858278,2.05522920

>  <Name>
ligand

>  <RI>
0

>  <Rbt.Current_Directory>
/home/itssahil/PROJECTS/Mol_Feturizer/New_Systems/rnas/2HO7

>  <Rbt.Executable>
rbdock ($Id: //depot/dev/client3/rdock/2013.1/src/exe/rbdock.cxx#4 $)

>  <Rbt.Library>
libRbt.so (2013.1, Build901 2013/11/27)

>  <Rbt.Parameter_File>
/export/apps/rDock/src/rDock_2013.1_src/data/scripts/dock_solv.prm

>  <Rbt.Receptor>
prm/pocket_docking_3.prm

>  <SCORE>
-11.6607

>  <SCORE.INTER>
-11.6958

>  <SCORE.INTER.CONST>
1

>  <SCORE.INTER.POLAR>
-1.29824

>  <SCORE.INTER.ROT>
3

>  <SCORE.INTER.SOLV>
14.3474

>  <SCORE.INTER.VDW>
-13.8522

>  <SCORE.INTER.norm>
-0.730986

>  <SCORE.INTRA>
0.0350533

>  <SCORE.INTRA.DIHEDRAL>
0.0188911

>  <SCORE.INTRA.DIHEDRAL.0>
0.00893466

>  <SCORE.INTRA.POLAR>
0

>  <SCORE.INTRA.POLAR.0>
0

>  <SCORE.INTRA.REPUL>
0

>  <SCORE.INTRA.REPUL.0>
0

>  <SCORE.INTRA.SOLV>
0.2297

>  <SCORE.INTRA.SOLV.lig_0>
-48.9722

>  <SCORE.INTRA.VDW>
-0.089242

>  <SCORE.INTRA.VDW.0>
-0.529409

>  <SCORE.INTRA.norm>
0.00219083

>  <SCORE.RESTR>
0

>  <SCORE.RESTR.CAVITY>
0

>  <SCORE.RESTR.norm>
0

>  <SCORE.SYSTEM>
0

>  <SCORE.SYSTEM.CONST>
0

>  <SCORE.SYSTEM.DIHEDRAL>
0

>  <SCORE.SYSTEM.SOLV>
0

>  <SCORE.SYSTEM.norm>
0

>  <SCORE.heavy>
16

>  <SCORE.norm>
-0.728796

>  <RMSD>
1.388

$$$$
ligand
 OpenBabel11021811433D
libRbt.so/2013.1/901 2013/11/27
 16 16  0  0  0  0  0  0  0  0999 V2000
   49.5399   13.0713   11.4845 P   0  0  2  0  0  0  0  0  0  0  0  0
   50.2609   11.8542   11.9329 O   0  0  0  0  0  0  0  0  0  0  0  0
   49.3355   13.0112    9.8894 O   0  5  0  0  0  0  0  0  0  0  0  0
   50.4219   14.3653   11.8603 O   0  0  0  0  0  0  0  0  0  0  0  0
   44.9423   12.0275   14.8070 C   0  0  2  0  0  0  0  0  0  0  0  0
   44.2013   10.8217   14.5464 O   0  0  0  0  0  0  0  0  0  0  0  0
   44.1211   13.2776   14.3999 C   0  0  2  0  0  0  0  0  0  0  0  0
   42.8446   13.2949   15.1240 O   0  0  0  0  0  0  0  0  0  0  0  0
   43.8525   13.2135   12.8846 C   0  0  1  0  0  0  0  0  0  0  0  0
   43.0991   14.3619   12.4770 O   0  0  0  0  0  0  0  0  0  0  0  0
   45.2059   13.1956   12.1571 C   0  0  2  0  0  0  0  0  0  0  0  0
   44.9817   13.1239   10.7325 O   0  0  0  0  0  0  0  0  0  0  0  0
   46.0030   11.9491   12.6313 C   0  0  2  0  0  0  0  0  0  0  0  0
   46.2131   12.0112   14.0753 O   0  0  0  0  0  0  0  0  0  0  0  0
   47.3744   11.9418   11.9319 C   0  0  0  0  0  0  0  0  0  0  0  0
   48.0861   13.1554   12.2037 O   0  0  0  0  0  0  0  0  0  0  0  0
  1  2  1  1  0  0  0
  1  3  1  0  0  0  0
  1  4  2  0  0  0  0
  1 16  1  0  0  0  0
  5  6  1  6  0  0  0
  5  7  1  0  0  0  0
  5 14  1  0  0  0  0
  7  8  1  1  0  0  0
  7  9  1  0  0  0  0
  9 10  1  6  0  0  0
  9 11  1  0  0  0  0
 11 12  1  6  0  0  0
 11 13  1  0  0  0  0
 13 14  1  0  0  0  0
 13 15  1  6  0  0  0
 15 16  1  0  0  0  0
M  CHG  1   3  -1
M  END
>  <CHROM.1>
57.17519217,178.13361442,-55.47845073,46.54918292,12.81880680,12.59077430
-0.36155539,-0.20422884,2.14344924

>  <Name>
ligand

>  <RI>
0

>  <Rbt.Current_Directory>
/home/itssahil/PROJECTS/Mol_Feturizer/New_Systems/rnas/2HO7

>  <Rbt.Executable>
rbdock ($Id: //depot/dev/client3/rdock/2013.1/src/exe/rbdock.cxx#4 $)

>  <Rbt.Library>
libRbt.so (2013.1, Build901 2013/11/27)

>  <Rbt.Parameter_File>
/export/apps/rDock/src/rDock_2013.1_src/data/scripts/dock_solv.prm

>  <Rbt.Receptor>
prm/pocket_docking_4.prm

>  <SCORE>
-11.1611

>  <SCORE.INTER>
-11.2896

>  <SCORE.INTER.CONST>
1

>  <SCORE.INTER.POLAR>
-1.03923

>  <SCORE.INTER.ROT>
3

>  <SCORE.INTER.SOLV>
13.5432

>  <SCORE.INTER.VDW>
-14.1767

>  <SCORE.INTER.norm>
-0.7056

>  <SCORE.INTRA>
0.128467

>  <SCORE.INTRA.DIHEDRAL>
0.0705099

>  <SCORE.INTRA.DIHEDRAL.0>
0.00893466

>  <SCORE.INTRA.POLAR>
0

>  <SCORE.INTRA.POLAR.0>
0

>  <SCORE.INTRA.REPUL>
0

>  <SCORE.INTRA.REPUL.0>
0

>  <SCORE.INTRA.SOLV>
0.203228

>  <SCORE.INTRA.SOLV.lig_0>
-48.9722

>  <SCORE.INTRA.VDW>
-0.00840214

>  <SCORE.INTRA.VDW.0>
-0.529409

>  <SCORE.INTRA.norm>
0.00802918

>  <SCORE.RESTR>
0

>  <SCORE.RESTR.CAVITY>
0

>  <SCORE.RESTR.norm>
0

>  <SCORE.SYSTEM>
0

>  <SCORE.SYSTEM.CONST>
0

>  <SCORE.SYSTEM.DIHEDRAL>
0

>  <SCORE.SYSTEM.SOLV>
0

>  <SCORE.SYSTEM.norm>
0

>  <SCORE.heavy>
16

>  <SCORE.norm>
-0.697571

>  <RMSD>
1.389

$$$$
ligand
 OpenBabel11021811433D
libRbt.so/2013.1/901 2013/11/27
 16 16  0  0  0  0  0  0  0  0999 V2000
   49.2239   13.0823   10.3069 P   0  0  2  0  0  0  0  0  0  0  0  0
   49.4001   13.0196    8.8348 O   0  0  0  0  0  0  0  0  0  0  0  0
   49.4007   14.6041   10.7996 O   0  5  0  0  0  0  0  0  0  0  0  0
   50.3473   12.1627   11.0039 O   0  0  0  0  0  0  0  0  0  0  0  0
   44.7831   11.9197   14.5196 C   0  0  2  0  0  0  0  0  0  0  0  0
   44.2960   10.6726   13.9920 O   0  0  0  0  0  0  0  0  0  0  0  0
   43.8500   13.0902   14.1170 C   0  0  2  0  0  0  0  0  0  0  0  0
   42.4869   12.8301   14.5948 O   0  0  0  0  0  0  0  0  0  0  0  0
   43.8440   13.2042   12.5809 C   0  0  1  0  0  0  0  0  0  0  0  0
   42.9933   14.2843   12.1785 O   0  0  0  0  0  0  0  0  0  0  0  0
   45.2827   13.4747   12.1137 C   0  0  2  0  0  0  0  0  0  0  0  0
   45.3065   13.5745   10.6735 O   0  0  0  0  0  0  0  0  0  0  0  0
   46.1809   12.2950   12.5779 C   0  0  2  0  0  0  0  0  0  0  0  0
   46.1418   12.1811   14.0335 O   0  0  0  0  0  0  0  0  0  0  0  0
   47.6309   12.5745   12.1426 C   0  0  0  0  0  0  0  0  0  0  0  0
   47.7406   12.5610   10.7140 O   0  0  0  0  0  0  0  0  0  0  0  0
  1  2  1  6  0  0  0
  1  3  1  0  0  0  0
  1  4  2  0  0  0  0
  1 16  1  0  0  0  0
  5  6  1  6  0  0  0
  5  7  1  0  0  0  0
  5 14  1  0  0  0  0
  7  8  1  6  0  0  0
  7  9  1  0  0  0  0
  9 10  1  1  0  0  0
  9 11  1  0  0  0  0
 11 12  1  6  0  0  0
 11 13  1  0  0  0  0
 13 14  1  0  0  0  0
 13 15  1  1  0  0  0
 15 16  1  0  0  0  0
M  CHG  1   3  -1
M  END
>  <CHROM.1>
-66.02981326,171.42285812,177.23192064,46.43155255,12.86459447,12.03023941
0.46753570,0.30851188,-0.90907661

>  <Name>
ligand

>  <RI>
0

>  <Rbt.Current_Directory>
/home/itssahil/PROJECTS/Mol_Feturizer/New_Systems/rnas/2HO7

>  <Rbt.Executable>
rbdock ($Id: //depot/dev/client3/rdock/2013.1/src/exe/rbdock.cxx#4 $)

>  <Rbt.Library>
libRbt.so (2013.1, Build901 2013/11/27)

>  <Rbt.Parameter_File>
/export/apps/rDock/src/rDock_2013.1_src/data/scripts/dock_solv.prm

>  <Rbt.Receptor>
prm/pocket_docking_2.prm

>  <SCORE>
-10.2161

>  <SCORE.INTER>
-11.1444

>  <SCORE.INTER.CONST>
1

>  <SCORE.INTER.POLAR>
-1.29904

>  <SCORE.INTER.ROT>
3

>  <SCORE.INTER.SOLV>
10.832

>  <SCORE.INTER.VDW>
-12.3101

>  <SCORE.INTER.norm>
-0.696523

>  <SCORE.INTRA>
0.924337

>  <SCORE.INTRA.DIHEDRAL>
0.491999

>  <SCORE.INTRA.DIHEDRAL.0>
0.00893466

>  <SCORE.INTRA.POLAR>
0

>  <SCORE.INTRA.POLAR.0>
0

>  <SCORE.INTRA.REPUL>
0

>  <SCORE.INTRA.REPUL.0>
0

>  <SCORE.INTRA.SOLV>
1.43881

>  <SCORE.INTRA.SOLV.lig_0>
-48.9722

>  <SCORE.INTRA.VDW>
-0.0410679

>  <SCORE.INTRA.VDW.0>
-0.529409

>  <SCORE.INTRA.norm>
0.057771

>  <SCORE.RESTR>
0.00396616

>  <SCORE.RESTR.CAVITY>
0.00396616

>  <SCORE.RESTR.norm>
0.000247885

>  <SCORE.SYSTEM>
0

>  <SCORE.SYSTEM.CONST>
0

>  <SCORE.SYSTEM.DIHEDRAL>
0

>  <SCORE.SYSTEM.SOLV>
0

>  <SCORE.SYSTEM.norm>
0

>  <SCORE.heavy>
16

>  <SCORE.norm>
-0.638504

>  <RMSD>
1.390

$$$$
ligand
 OpenBabel11021811433D
libRbt.so/2013.1/901 2013/11/27
 16 16  0  0  0  0  0  0  0  0999 V2000
   49.4920   13.0468   11.5024 P   0  0  2  0  0  0  0  0  0  0  0  0
   50.2169   11.8325   11.9519 O   0  0  0  0  0  0  0  0  0  0  0  0
   49.2712   12.9757    9.9099 O   0  5  0  0  0  0  0  0  0  0  0  0
   50.3786   14.3429   11.8600 O   0  0  0  0  0  0  0  0  0  0  0  0
   44.8803   12.0128   14.7964 C   0  0  2  0  0  0  0  0  0  0  0  0
   44.1159   10.8283   14.5073 O   0  0  0  0  0  0  0  0  0  0  0  0
   44.0802   13.2884   14.4279 C   0  0  2  0  0  0  0  0  0  0  0  0
   42.8079   13.3093   15.1592 O   0  0  0  0  0  0  0  0  0  0  0  0
   43.8029   13.2704   12.9129 C   0  0  1  0  0  0  0  0  0  0  0  0
   43.0688   14.4430   12.5408 O   0  0  0  0  0  0  0  0  0  0  0  0
   45.1521   13.2476   12.1778 C   0  0  2  0  0  0  0  0  0  0  0  0
   44.9195   13.2188   10.7530 O   0  0  0  0  0  0  0  0  0  0  0  0
   45.9284   11.9742   12.6136 C   0  0  2  0  0  0  0  0  0  0  0  0
   46.1469   11.9932   14.0576 O   0  0  0  0  0  0  0  0  0  0  0  0
   47.2960   11.9610   11.9068 C   0  0  0  0  0  0  0  0  0  0  0  0
   48.0458   13.1368   12.2358 O   0  0  0  0  0  0  0  0  0  0  0  0
  1  2  1  1  0  0  0
  1  3  1  0  0  0  0
  1  4  2  0  0  0  0
  1 16  1  0  0  0  0
  5  6  1  6  0  0  0
  5  7  1  0  0  0  0
  5 14  1  0  0  0  0
  7  8  1  1  0  0  0
  7  9  1  0  0  0  0
  9 10  1  6  0  0  0
  9 11  1  0  0  0  0
 11 12  1  6  0  0  0
 11 13  1  0  0  0  0
 13 14  1  0  0  0  0
 13 15  1  6  0  0  0
 15 16  1  0  0  0  0
M  CHG  1   3  -1
M  END
>  <CHROM.1>
58.71239803,178.24747268,-59.26865632,46.49484463,12.82862927,12.60249703
-0.35042758,-0.22100162,2.16927509

>  <Name>
ligand

>  <RI>
0

>  <Rbt.Current_Directory>
/home/itssahil/PROJECTS/Mol_Feturizer/New_Systems/rnas/2HO7

>  <Rbt.Executable>
rbdock ($Id: //depot/dev/client3/rdock/2013.1/src/exe/rbdock.cxx#4 $)

>  <Rbt.Library>
libRbt.so (2013.1, Build901 2013/11/27)

>  <Rbt.Parameter_File>
/export/apps/rDock/src/rDock_2013.1_src/data/scripts/dock_solv.prm

>  <Rbt.Receptor>
prm/pocket_docking_3.prm

>  <SCORE>
-11.209

>  <SCORE.INTER>
-11.2852

>  <SCORE.INTER.CONST>
1

>  <SCORE.INTER.POLAR>
-1.03923

>  <SCORE.INTER.ROT>
3

>  <SCORE.INTER.SOLV>
13.6063

>  <SCORE.INTER.VDW>
-14.1948

>  <SCORE.INTER.norm>
-0.705322

>  <SCORE.INTRA>
0.0761578

>  <SCORE.INTRA.DIHEDRAL>
0.0132805

>  <SCORE.INTRA.DIHEDRAL.0>
0.00893466

>  <SCORE.INTRA.POLAR>
0

>  <SCORE.INTRA.POLAR.0>
0

>  <SCORE.INTRA.REPUL>
0

>  <SCORE.INTRA.REPUL.0>
0

>  <SCORE.INTRA.SOLV>
0.240036

>  <SCORE.INTRA.SOLV.lig_0>
-48.9722

>  <SCORE.INTRA.VDW>
-0.0505005

>  <SCORE.INTRA.VDW.0>
-0.529409

>  <SCORE.INTRA.norm>
0.00475986

>  <SCORE.RESTR>
0

>  <SCORE.RESTR.CAVITY>
0

>  <SCORE.RESTR.norm>
0

>  <SCORE.SYSTEM>
0

>  <SCORE.SYSTEM.CONST>
0

>  <SCORE.SYSTEM.DIHEDRAL>
0

>  <SCORE.SYSTEM.SOLV>
0

>  <SCORE.SYSTEM.norm>
0

>  <SCORE.heavy>
16

>  <SCORE.norm>
-0.700563

>  <RMSD>
1.396

$$$$
ligand
 OpenBabel11021811433D
libRbt.so/2013.1/901 2013/11/27
 16 16  0  0  0  0  0  0  0  0999 V2000
   49.4781   13.0494   11.4751 P   0  0  2  0  0  0  0  0  0  0  0  0
   50.2149   11.8442   11.9302 O   0  0  0  0  0  0  0  0  0  0  0  0
   49.2469   12.9627    9.8849 O   0  5  0  0  0  0  0  0  0  0  0  0
   50.3576   14.3549   11.8153 O   0  0  0  0  0  0  0  0  0  0  0  0
   44.8779   12.0099   14.8004 C   0  0  2  0  0  0  0  0  0  0  0  0
   44.1136   10.8246   14.5151 O   0  0  0  0  0  0  0  0  0  0  0  0
   44.0788   13.2842   14.4254 C   0  0  2  0  0  0  0  0  0  0  0  0
   42.8054   13.3085   15.1548 O   0  0  0  0  0  0  0  0  0  0  0  0
   43.8037   13.2601   12.9101 C   0  0  1  0  0  0  0  0  0  0  0  0
   43.0705   14.4314   12.5321 O   0  0  0  0  0  0  0  0  0  0  0  0
   45.1540   13.2338   12.1771 C   0  0  2  0  0  0  0  0  0  0  0  0
   44.9235   13.1993   10.7521 O   0  0  0  0  0  0  0  0  0  0  0  0
   45.9293   11.9621   12.6193 C   0  0  2  0  0  0  0  0  0  0  0  0
   46.1456   11.9869   14.0636 O   0  0  0  0  0  0  0  0  0  0  0  0
   47.2979   11.9455   11.9145 C   0  0  0  0  0  0  0  0  0  0  0  0
   48.0363   13.1354   12.2177 O   0  0  0  0  0  0  0  0  0  0  0  0
  1  2  1  1  0  0  0
  1  3  1  0  0  0  0
  1  4  2  0  0  0  0
  1 16  1  0  0  0  0
  5  6  1  6  0  0  0
  5  7  1  0  0  0  0
  5 14  1  0  0  0  0
  7  8  1  1  0  0  0
  7  9  1  0  0  0  0
  9 10  1  6  0  0  0
  9 11  1  0  0  0  0
 11 12  1  6  0  0  0
 11 13  1  0  0  0  0
 13 14  1  0  0  0  0
 13 15  1  6  0  0  0
 15 16  1  0  0  0  0
M  CHG  1   3  -1
M  END
>  <CHROM.1>
57.51711513,178.84777413,-58.72341938,46.48964783,12.82382349,12.59288381
-0.35602510,-0.22315619,2.17007907

>  <Name>
ligand

>  <RI>
0

>  <Rbt.Current_Directory>
/home/itssahil/PROJECTS/Mol_Feturizer/New_Systems/rnas/2HO7

>  <Rbt.Executable>
rbdock ($Id: //depot/dev/client3/rdock/2013.1/src/exe/rbdock.cxx#4 $)

>  <Rbt.Library>
libRbt.so (2013.1, Build901 2013/11/27)

>  <Rbt.Parameter_File>
/export/apps/rDock/src/rDock_2013.1_src/data/scripts/dock_solv.prm

>  <Rbt.Receptor>
prm/pocket_docking_4.prm

>  <SCORE>
-11.2242

>  <SCORE.INTER>
-11.3168

>  <SCORE.INTER.CONST>
1

>  <SCORE.INTER.POLAR>
-1.03923

>  <SCORE.INTER.ROT>
3

>  <SCORE.INTER.SOLV>
13.527

>  <SCORE.INTER.VDW>
-14.1894

>  <SCORE.INTER.norm>
-0.707301

>  <SCORE.INTRA>
0.0925642

>  <SCORE.INTRA.DIHEDRAL>
0.0228108

>  <SCORE.INTRA.DIHEDRAL.0>
0.00893466

>  <SCORE.INTRA.POLAR>
0

>  <SCORE.INTRA.POLAR.0>
0

>  <SCORE.INTRA.REPUL>
0

>  <SCORE.INTRA.REPUL.0>
0

>  <SCORE.INTRA.SOLV>
0.240096

>  <SCORE.INTRA.SOLV.lig_0>
-48.9722

>  <SCORE.INTRA.VDW>
-0.038889

>  <SCORE.INTRA.VDW.0>
-0.529409

>  <SCORE.INTRA.norm>
0.00578526

>  <SCORE.RESTR>
0

>  <SCORE.RESTR.CAVITY>
0

>  <SCORE.RESTR.norm>
0

>  <SCORE.SYSTEM>
0

>  <SCORE.SYSTEM.CONST>
0

>  <SCORE.SYSTEM.DIHEDRAL>
0

>  <SCORE.SYSTEM.SOLV>
0

>  <SCORE.SYSTEM.norm>
0

>  <SCORE.heavy>
16

>  <SCORE.norm>
-0.701515

>  <RMSD>
1.396

$$$$
ligand
 OpenBabel11021811433D
libRbt.so/2013.1/901 2013/11/27
 16 16  0  0  0  0  0  0  0  0999 V2000
   49.2246   13.1544   10.2631 P   0  0  2  0  0  0  0  0  0  0  0  0
   49.3893   13.0844    8.7899 O   0  0  0  0  0  0  0  0  0  0  0  0
   49.5076   14.6589   10.7591 O   0  5  0  0  0  0  0  0  0  0  0  0
   50.2856   12.1577   10.9521 O   0  0  0  0  0  0  0  0  0  0  0  0
   44.8110   11.9930   14.5092 C   0  0  2  0  0  0  0  0  0  0  0  0
   44.3541   10.7266   14.0009 O   0  0  0  0  0  0  0  0  0  0  0  0
   43.8444   13.1329   14.0977 C   0  0  2  0  0  0  0  0  0  0  0  0
   42.4917   12.8428   14.5878 O   0  0  0  0  0  0  0  0  0  0  0  0
   43.8260   13.2267   12.5604 C   0  0  1  0  0  0  0  0  0  0  0  0
   42.9442   14.2784   12.1497 O   0  0  0  0  0  0  0  0  0  0  0  0
   45.2540   13.5294   12.0804 C   0  0  2  0  0  0  0  0  0  0  0  0
   45.2662   13.6111   10.6389 O   0  0  0  0  0  0  0  0  0  0  0  0
   46.1862   12.3801   12.5538 C   0  0  2  0  0  0  0  0  0  0  0  0
   46.1592   12.2842   14.0110 O   0  0  0  0  0  0  0  0  0  0  0  0
   47.6255   12.6925   12.1055 C   0  0  0  0  0  0  0  0  0  0  0  0
   47.7110   12.7346   10.6759 O   0  0  0  0  0  0  0  0  0  0  0  0
  1  2  1  6  0  0  0
  1  3  1  0  0  0  0
  1  4  2  0  0  0  0
  1 16  1  0  0  0  0
  5  6  1  6  0  0  0
  5  7  1  0  0  0  0
  5 14  1  0  0  0  0
  7  8  1  6  0  0  0
  7  9  1  0  0  0  0
  9 10  1  1  0  0  0
  9 11  1  0  0  0  0
 11 12  1  6  0  0  0
 11 13  1  0  0  0  0
 13 14  1  0  0  0  0
 13 15  1  1  0  0  0
 15 16  1  0  0  0  0
M  CHG  1   3  -1
M  END
>  <CHROM.1>
-62.91084366,176.64482901,174.66471284,46.43011100,12.92490832,12.00101388
0.47954271,0.29585838,-0.93146557

>  <Name>
ligand

>  <RI>
0

>  <Rbt.Current_Directory>
/home/itssahil/PROJECTS/Mol_Feturizer/New_Systems/rnas/2HO7

>  <Rbt.Executable>
rbdock ($Id: //depot/dev/client3/rdock/2013.1/src/exe/rbdock.cxx#4 $)

>  <Rbt.Library>
libRbt.so (2013.1, Build901 2013/11/27)

>  <Rbt.Parameter_File>
/export/apps/rDock/src/rDock_2013.1_src/data/scripts/dock_solv.prm

>  <Rbt.Receptor>
prm/pocket_docking_2.prm

>  <SCORE>
-10.2495

>  <SCORE.INTER>
-11.0412

>  <SCORE.INTER.CONST>
1

>  <SCORE.INTER.POLAR>
-1.29821

>  <SCORE.INTER.ROT>
3

>  <SCORE.INTER.SOLV>
10.4737

>  <SCORE.INTER.VDW>
-12.1247

>  <SCORE.INTER.norm>
-0.690075

>  <SCORE.INTRA>
0.786517

>  <SCORE.INTRA.DIHEDRAL>
0.124471

>  <SCORE.INTRA.DIHEDRAL.0>
0.00893466

>  <SCORE.INTRA.POLAR>
0

>  <SCORE.INTRA.POLAR.0>
0

>  <SCORE.INTRA.REPUL>
0

>  <SCORE.INTRA.REPUL.0>
0

>  <SCORE.INTRA.SOLV>
1.26108

>  <SCORE.INTRA.SOLV.lig_0>
-48.9722

>  <SCORE.INTRA.VDW>
0.0937404

>  <SCORE.INTRA.VDW.0>
-0.529409

>  <SCORE.INTRA.norm>
0.0491573

>  <SCORE.RESTR>
0.00516408

>  <SCORE.RESTR.CAVITY>
0.00516408

>  <SCORE.RESTR.norm>
0.000322755

>  <SCORE.SYSTEM>
0

>  <SCORE.SYSTEM.CONST>
0

>  <SCORE.SYSTEM.DIHEDRAL>
0

>  <SCORE.SYSTEM.SOLV>
0

>  <SCORE.SYSTEM.norm>
0

>  <SCORE.heavy>
16

>  <SCORE.norm>
-0.640595

>  <RMSD>
1.399

$$$$
ligand
 OpenBabel11021811433D
libRbt.so/2013.1/901 2013/11/27
 16 16  0  0  0  0  0  0  0  0999 V2000
   49.4141   13.1114   11.1824 P   0  0  2  0  0  0  0  0  0  0  0  0
   49.0613   12.8141    9.7719 O   0  0  0  0  0  0  0  0  0  0  0  0
   50.0873   14.5706   11.2662 O   0  5  0  0  0  0  0  0  0  0  0  0
   50.4680   12.0080   11.6976 O   0  0  0  0  0  0  0  0  0  0  0  0
   45.0634   12.1495   14.8747 C   0  0  2  0  0  0  0  0  0  0  0  0
   44.4897   10.8299   14.8878 O   0  0  0  0  0  0  0  0  0  0  0  0
   44.0821   13.1707   14.2442 C   0  0  2  0  0  0  0  0  0  0  0  0
   42.8156   13.1706   14.9860 O   0  0  0  0  0  0  0  0  0  0  0  0
   43.8226   12.7604   12.7825 C   0  0  1  0  0  0  0  0  0  0  0  0
   42.9222   13.6916   12.1705 O   0  0  0  0  0  0  0  0  0  0  0  0
   45.1655   12.7692   12.0354 C   0  0  2  0  0  0  0  0  0  0  0  0
   44.9511   12.3762   10.6627 O   0  0  0  0  0  0  0  0  0  0  0  0
   46.1224   11.7623   12.7315 C   0  0  2  0  0  0  0  0  0  0  0  0
   46.3241   12.1483   14.1256 O   0  0  0  0  0  0  0  0  0  0  0  0
   47.4816   11.7896   12.0092 C   0  0  0  0  0  0  0  0  0  0  0  0
   48.0799   13.0878   12.1081 O   0  0  0  0  0  0  0  0  0  0  0  0
  1  2  1  6  0  0  0
  1  3  1  0  0  0  0
  1  4  2  0  0  0  0
  1 16  1  0  0  0  0
  5  6  1  6  0  0  0
  5  7  1  0  0  0  0
  5 14  1  0  0  0  0
  7  8  1  1  0  0  0
  7  9  1  0  0  0  0
  9 10  1  6  0  0  0
  9 11  1  0  0  0  0
 11 12  1  6  0  0  0
 11 13  1  0  0  0  0
 13 14  1  0  0  0  0
 13 15  1  6  0  0  0
 15 16  1  0  0  0  0
M  CHG  1   3  -1
M  END
>  <CHROM.1>
62.24395275,-173.19202322,59.27322126,46.53104590,12.67939741,12.47399827
-0.44656999,-0.10789427,1.95662301

>  <Name>
ligand

>  <RI>
0

>  <Rbt.Current_Directory>
/home/itssahil/PROJECTS/Mol_Feturizer/New_Systems/rnas/2HO7

>  <Rbt.Executable>
rbdock ($Id: //depot/dev/client3/rdock/2013.1/src/exe/rbdock.cxx#4 $)

>  <Rbt.Library>
libRbt.so (2013.1, Build901 2013/11/27)

>  <Rbt.Parameter_File>
/export/apps/rDock/src/rDock_2013.1_src/data/scripts/dock_solv.prm

>  <Rbt.Receptor>
prm/pocket_docking_4.prm

>  <SCORE>
-11.2364

>  <SCORE.INTER>
-11.3327

>  <SCORE.INTER.CONST>
1

>  <SCORE.INTER.POLAR>
-1.29904

>  <SCORE.INTER.ROT>
3

>  <SCORE.INTER.SOLV>
14.4717

>  <SCORE.INTER.VDW>
-13.6489

>  <SCORE.INTER.norm>
-0.708291

>  <SCORE.INTRA>
0.0962414

>  <SCORE.INTRA.DIHEDRAL>
0.236482

>  <SCORE.INTRA.DIHEDRAL.0>
0.00893466

>  <SCORE.INTRA.POLAR>
0

>  <SCORE.INTRA.POLAR.0>
0

>  <SCORE.INTRA.REPUL>
0

>  <SCORE.INTRA.REPUL.0>
0

>  <SCORE.INTRA.SOLV>
0.212162

>  <SCORE.INTRA.SOLV.lig_0>
-48.9722

>  <SCORE.INTRA.VDW>
-0.12808

>  <SCORE.INTRA.VDW.0>
-0.529409

>  <SCORE.INTRA.norm>
0.00601509

>  <SCORE.RESTR>
0

>  <SCORE.RESTR.CAVITY>
0

>  <SCORE.RESTR.norm>
0

>  <SCORE.SYSTEM>
0

>  <SCORE.SYSTEM.CONST>
0

>  <SCORE.SYSTEM.DIHEDRAL>
0

>  <SCORE.SYSTEM.SOLV>
0

>  <SCORE.SYSTEM.norm>
0

>  <SCORE.heavy>
16

>  <SCORE.norm>
-0.702276

>  <RMSD>
1.400

$$$$
ligand
 OpenBabel11021811433D
libRbt.so/2013.1/901 2013/11/27
 16 16  0  0  0  0  0  0  0  0999 V2000
   49.4749   13.1530   11.3596 P   0  0  2  0  0  0  0  0  0  0  0  0
   49.1916   12.9953    9.9114 O   0  0  0  0  0  0  0  0  0  0  0  0
   50.2459   14.5444   11.6024 O   0  5  0  0  0  0  0  0  0  0  0  0
   50.4107   11.9341   11.8413 O   0  0  0  0  0  0  0  0  0  0  0  0
   44.9423   12.0291   14.8085 C   0  0  2  0  0  0  0  0  0  0  0  0
   44.2201   10.8090   14.5628 O   0  0  0  0  0  0  0  0  0  0  0  0
   44.1072   13.2607   14.3740 C   0  0  2  0  0  0  0  0  0  0  0  0
   42.8249   13.2724   15.0880 O   0  0  0  0  0  0  0  0  0  0  0  0
   43.8514   13.1674   12.8580 C   0  0  1  0  0  0  0  0  0  0  0  0
   43.0855   14.2981   12.4253 O   0  0  0  0  0  0  0  0  0  0  0  0
   45.2106   13.1560   12.1413 C   0  0  2  0  0  0  0  0  0  0  0  0
   44.9986   13.0573   10.7164 O   0  0  0  0  0  0  0  0  0  0  0  0
   46.0210   11.9289   12.6426 C   0  0  2  0  0  0  0  0  0  0  0  0
   46.2190   12.0183   14.0869 O   0  0  0  0  0  0  0  0  0  0  0  0
   47.3979   11.9290   11.9539 C   0  0  0  0  0  0  0  0  0  0  0  0
   48.0864   13.1609   12.2020 O   0  0  0  0  0  0  0  0  0  0  0  0
  1  2  1  6  0  0  0
  1  3  1  0  0  0  0
  1  4  2  0  0  0  0
  1 16  1  0  0  0  0
  5  6  1  6  0  0  0
  5  7  1  0  0  0  0
  5 14  1  0  0  0  0
  7  8  1  1  0  0  0
  7  9  1  0  0  0  0
  9 10  1  6  0  0  0
  9 11  1  0  0  0  0
 11 12  1  6  0  0  0
 11 13  1  0  0  0  0
 13 14  1  0  0  0  0
 13 15  1  6  0  0  0
 15 16  1  0  0  0  0
M  CHG  1   3  -1
M  END
>  <CHROM.1>
56.73256831,-175.59456102,58.84528826,46.53275710,12.82751132,12.54841140
-0.37985686,-0.20856393,2.16612111

>  <Name>
ligand

>  <RI>
0

>  <Rbt.Current_Directory>
/home/itssahil/PROJECTS/Mol_Feturizer/New_Systems/rnas/2HO7

>  <Rbt.Executable>
rbdock ($Id: //depot/dev/client3/rdock/2013.1/src/exe/rbdock.cxx#4 $)

>  <Rbt.Library>
libRbt.so (2013.1, Build901 2013/11/27)

>  <Rbt.Parameter_File>
/export/apps/rDock/src/rDock_2013.1_src/data/scripts/dock_solv.prm

>  <Rbt.Receptor>
prm/pocket_docking_7.prm

>  <SCORE>
-11.7215

>  <SCORE.INTER>
-11.8161

>  <SCORE.INTER.CONST>
1

>  <SCORE.INTER.POLAR>
-1.29785

>  <SCORE.INTER.ROT>
3

>  <SCORE.INTER.SOLV>
14.658

>  <SCORE.INTER.VDW>
-14.0372

>  <SCORE.INTER.norm>
-0.738507

>  <SCORE.INTRA>
0.0945951

>  <SCORE.INTRA.DIHEDRAL>
0.127673

>  <SCORE.INTRA.DIHEDRAL.0>
0.00893466

>  <SCORE.INTRA.POLAR>
0

>  <SCORE.INTRA.POLAR.0>
0

>  <SCORE.INTRA.REPUL>
0

>  <SCORE.INTRA.REPUL.0>
0

>  <SCORE.INTRA.SOLV>
0.213757

>  <SCORE.INTRA.SOLV.lig_0>
-48.9722

>  <SCORE.INTRA.VDW>
-0.0761203

>  <SCORE.INTRA.VDW.0>
-0.529409

>  <SCORE.INTRA.norm>
0.00591219

>  <SCORE.RESTR>
0

>  <SCORE.RESTR.CAVITY>
0

>  <SCORE.RESTR.norm>
0

>  <SCORE.SYSTEM>
0

>  <SCORE.SYSTEM.CONST>
0

>  <SCORE.SYSTEM.DIHEDRAL>
0

>  <SCORE.SYSTEM.SOLV>
0

>  <SCORE.SYSTEM.norm>
0

>  <SCORE.heavy>
16

>  <SCORE.norm>
-0.732595

>  <RMSD>
1.400

$$$$
ligand
 OpenBabel11021811433D
libRbt.so/2013.1/901 2013/11/27
 16 16  0  0  0  0  0  0  0  0999 V2000
   49.4590   13.0944   11.4245 P   0  0  2  0  0  0  0  0  0  0  0  0
   50.1806   11.8735   11.8614 O   0  0  0  0  0  0  0  0  0  0  0  0
   49.2356   13.0390    9.8317 O   0  5  0  0  0  0  0  0  0  0  0  0
   50.3502   14.3842   11.7930 O   0  0  0  0  0  0  0  0  0  0  0  0
   44.9022   12.0336   14.8144 C   0  0  2  0  0  0  0  0  0  0  0  0
   44.1450   10.8402   14.5442 O   0  0  0  0  0  0  0  0  0  0  0  0
   44.0912   13.2987   14.4339 C   0  0  2  0  0  0  0  0  0  0  0  0
   42.8224   13.3197   15.1714 O   0  0  0  0  0  0  0  0  0  0  0  0
   43.8064   13.2596   12.9207 C   0  0  1  0  0  0  0  0  0  0  0  0
   43.0620   14.4221   12.5376 O   0  0  0  0  0  0  0  0  0  0  0  0
   45.1521   13.2371   12.1790 C   0  0  2  0  0  0  0  0  0  0  0  0
   44.9125   13.1887   10.7560 O   0  0  0  0  0  0  0  0  0  0  0  0
   45.9397   11.9750   12.6270 C   0  0  2  0  0  0  0  0  0  0  0  0
   46.1653   12.0137   14.0695 O   0  0  0  0  0  0  0  0  0  0  0  0
   47.3038   11.9625   11.9134 C   0  0  0  0  0  0  0  0  0  0  0  0
   48.0141   13.1820   12.1609 O   0  0  0  0  0  0  0  0  0  0  0  0
  1  2  1  1  0  0  0
  1  3  1  0  0  0  0
  1  4  2  0  0  0  0
  1 16  1  0  0  0  0
  5  6  1  6  0  0  0
  5  7  1  0  0  0  0
  5 14  1  0  0  0  0
  7  8  1  1  0  0  0
  7  9  1  0  0  0  0
  9 10  1  6  0  0  0
  9 11  1  0  0  0  0
 11 12  1  6  0  0  0
 11 13  1  0  0  0  0
 13 14  1  0  0  0  0
 13 15  1  6  0  0  0
 15 16  1  0  0  0  0
M  CHG  1   3  -1
M  END
>  <CHROM.1>
55.35103854,178.28066737,-54.51450954,46.48842469,12.84655598,12.57999029
-0.37134922,-0.22237483,2.16219189

>  <Name>
ligand

>  <RI>
0

>  <Rbt.Current_Directory>
/home/itssahil/PROJECTS/Mol_Feturizer/New_Systems/rnas/2HO7

>  <Rbt.Executable>
rbdock ($Id: //depot/dev/client3/rdock/2013.1/src/exe/rbdock.cxx#4 $)

>  <Rbt.Library>
libRbt.so (2013.1, Build901 2013/11/27)

>  <Rbt.Parameter_File>
/export/apps/rDock/src/rDock_2013.1_src/data/scripts/dock_solv.prm

>  <Rbt.Receptor>
prm/pocket_docking_5.prm

>  <SCORE>
-11.1269

>  <SCORE.INTER>
-11.3123

>  <SCORE.INTER.CONST>
1

>  <SCORE.INTER.POLAR>
-1.03918

>  <SCORE.INTER.ROT>
3

>  <SCORE.INTER.SOLV>
13.4627

>  <SCORE.INTER.VDW>
-14.1651

>  <SCORE.INTER.norm>
-0.707018

>  <SCORE.INTRA>
0.185434

>  <SCORE.INTRA.DIHEDRAL>
0.132658

>  <SCORE.INTRA.DIHEDRAL.0>
0.00893466

>  <SCORE.INTRA.POLAR>
0

>  <SCORE.INTRA.POLAR.0>
0

>  <SCORE.INTRA.REPUL>
0

>  <SCORE.INTRA.REPUL.0>
0

>  <SCORE.INTRA.SOLV>
0.195582

>  <SCORE.INTRA.SOLV.lig_0>
-48.9722

>  <SCORE.INTRA.VDW>
0.0213137

>  <SCORE.INTRA.VDW.0>
-0.529409

>  <SCORE.INTRA.norm>
0.0115896

>  <SCORE.RESTR>
0

>  <SCORE.RESTR.CAVITY>
0

>  <SCORE.RESTR.norm>
0

>  <SCORE.SYSTEM>
0

>  <SCORE.SYSTEM.CONST>
0

>  <SCORE.SYSTEM.DIHEDRAL>
0

>  <SCORE.SYSTEM.SOLV>
0

>  <SCORE.SYSTEM.norm>
0

>  <SCORE.heavy>
16

>  <SCORE.norm>
-0.695429

>  <RMSD>
1.401

$$$$
ligand
 OpenBabel11021811433D
libRbt.so/2013.1/901 2013/11/27
 16 16  0  0  0  0  0  0  0  0999 V2000
   49.2638   12.9488   10.2620 P   0  0  2  0  0  0  0  0  0  0  0  0
   49.4981   12.6043    8.8377 O   0  0  0  0  0  0  0  0  0  0  0  0
   49.4897   14.5284   10.4714 O   0  5  0  0  0  0  0  0  0  0  0  0
   50.3137   12.1351   11.1725 O   0  0  0  0  0  0  0  0  0  0  0  0
   44.8148   11.9965   14.5178 C   0  0  2  0  0  0  0  0  0  0  0  0
   44.3705   10.7235   14.0149 O   0  0  0  0  0  0  0  0  0  0  0  0
   43.8347   13.1244   14.1053 C   0  0  2  0  0  0  0  0  0  0  0  0
   42.4866   12.8210   14.5999 O   0  0  0  0  0  0  0  0  0  0  0  0
   43.8111   13.2128   12.5677 C   0  0  1  0  0  0  0  0  0  0  0  0
   42.9166   14.2535   12.1560 O   0  0  0  0  0  0  0  0  0  0  0  0
   45.2344   13.5296   12.0828 C   0  0  2  0  0  0  0  0  0  0  0  0
   45.2418   13.6066   10.6410 O   0  0  0  0  0  0  0  0  0  0  0  0
   46.1804   12.3922   12.5575 C   0  0  2  0  0  0  0  0  0  0  0  0
   46.1583   12.3008   14.0150 O   0  0  0  0  0  0  0  0  0  0  0  0
   47.6150   12.7189   12.1042 C   0  0  0  0  0  0  0  0  0  0  0  0
   47.7424   12.5691   10.6849 O   0  0  0  0  0  0  0  0  0  0  0  0
  1  2  1  6  0  0  0
  1  3  1  0  0  0  0
  1  4  2  0  0  0  0
  1 16  1  0  0  0  0
  5  6  1  6  0  0  0
  5  7  1  0  0  0  0
  5 14  1  0  0  0  0
  7  8  1  6  0  0  0
  7  9  1  0  0  0  0
  9 10  1  1  0  0  0
  9 11  1  0  0  0  0
 11 12  1  6  0  0  0
 11 13  1  0  0  0  0
 13 14  1  0  0  0  0
 13 15  1  1  0  0  0
 15 16  1  0  0  0  0
M  CHG  1   3  -1
M  END
>  <CHROM.1>
-71.21138809,179.08036476,171.15928836,46.43879078,12.84831183,12.00410070
-0.46073053,-0.31083305,2.19102312

>  <Name>
ligand

>  <RI>
0

>  <Rbt.Current_Directory>
/home/itssahil/PROJECTS/Mol_Feturizer/New_Systems/rnas/2HO7

>  <Rbt.Executable>
rbdock ($Id: //depot/dev/client3/rdock/2013.1/src/exe/rbdock.cxx#4 $)

>  <Rbt.Library>
libRbt.so (2013.1, Build901 2013/11/27)

>  <Rbt.Parameter_File>
/export/apps/rDock/src/rDock_2013.1_src/data/scripts/dock_solv.prm

>  <Rbt.Receptor>
prm/pocket_docking_2.prm

>  <SCORE>
-9.9198

>  <SCORE.INTER>
-10.7065

>  <SCORE.INTER.CONST>
1

>  <SCORE.INTER.POLAR>
-1.29904

>  <SCORE.INTER.ROT>
3

>  <SCORE.INTER.SOLV>
10.7835

>  <SCORE.INTER.VDW>
-12.002

>  <SCORE.INTER.norm>
-0.669155

>  <SCORE.INTRA>
0.778526

>  <SCORE.INTRA.DIHEDRAL>
0.56526

>  <SCORE.INTRA.DIHEDRAL.0>
0.00893466

>  <SCORE.INTRA.POLAR>
0

>  <SCORE.INTRA.POLAR.0>
0

>  <SCORE.INTRA.REPUL>
0

>  <SCORE.INTRA.REPUL.0>
0

>  <SCORE.INTRA.SOLV>
1.13931

>  <SCORE.INTRA.SOLV.lig_0>
-48.9722

>  <SCORE.INTRA.VDW>
-0.0737578

>  <SCORE.INTRA.VDW.0>
-0.529409

>  <SCORE.INTRA.norm>
0.0486579

>  <SCORE.RESTR>
0.00815567

>  <SCORE.RESTR.CAVITY>
0.00815567

>  <SCORE.RESTR.norm>
0.000509729

>  <SCORE.SYSTEM>
0

>  <SCORE.SYSTEM.CONST>
0

>  <SCORE.SYSTEM.DIHEDRAL>
0

>  <SCORE.SYSTEM.SOLV>
0

>  <SCORE.SYSTEM.norm>
0

>  <SCORE.heavy>
16

>  <SCORE.norm>
-0.619987

>  <RMSD>
1.402

$$$$
ligand
 OpenBabel11021811433D
libRbt.so/2013.1/901 2013/11/27
 16 16  0  0  0  0  0  0  0  0999 V2000
   49.3992   13.1713   11.2754 P   0  0  2  0  0  0  0  0  0  0  0  0
   49.1103   12.9989    9.8301 O   0  0  0  0  0  0  0  0  0  0  0  0
   50.1735   14.5640   11.5008 O   0  5  0  0  0  0  0  0  0  0  0  0
   50.3349   11.9560   11.7664 O   0  0  0  0  0  0  0  0  0  0  0  0
   44.9328   12.0510   14.7824 C   0  0  2  0  0  0  0  0  0  0  0  0
   44.2015   10.8345   14.5461 O   0  0  0  0  0  0  0  0  0  0  0  0
   44.0868   13.2882   14.3864 C   0  0  2  0  0  0  0  0  0  0  0  0
   42.8269   13.2941   15.1392 O   0  0  0  0  0  0  0  0  0  0  0  0
   43.7849   13.2110   12.8780 C   0  0  1  0  0  0  0  0  0  0  0  0
   43.0080   14.3473   12.4807 O   0  0  0  0  0  0  0  0  0  0  0  0
   45.1216   13.2055   12.1201 C   0  0  2  0  0  0  0  0  0  0  0  0
   44.8662   13.1219   10.7015 O   0  0  0  0  0  0  0  0  0  0  0  0
   45.9450   11.9721   12.5837 C   0  0  2  0  0  0  0  0  0  0  0  0
   46.1869   12.0461   14.0222 O   0  0  0  0  0  0  0  0  0  0  0  0
   47.3002   11.9776   11.8534 C   0  0  0  0  0  0  0  0  0  0  0  0
   48.0140   13.1904   12.1229 O   0  0  0  0  0  0  0  0  0  0  0  0
  1  2  1  6  0  0  0
  1  3  1  0  0  0  0
  1  4  2  0  0  0  0
  1 16  1  0  0  0  0
  5  6  1  6  0  0  0
  5  7  1  0  0  0  0
  5 14  1  0  0  0  0
  7  8  1  1  0  0  0
  7  9  1  0  0  0  0
  9 10  1  6  0  0  0
  9 11  1  0  0  0  0
 11 12  1  6  0  0  0
 11 13  1  0  0  0  0
 13 14  1  0  0  0  0
 13 15  1  6  0  0  0
 15 16  1  0  0  0  0
M  CHG  1   3  -1
M  END
>  <CHROM.1>
58.31819435,-177.40958970,56.83089799,46.46945850,12.85853493,12.50826754
-0.39101630,-0.22029846,2.16345546

>  <Name>
ligand

>  <RI>
0

>  <Rbt.Current_Directory>
/home/itssahil/PROJECTS/Mol_Feturizer/New_Systems/rnas/2HO7

>  <Rbt.Executable>
rbdock ($Id: //depot/dev/client3/rdock/2013.1/src/exe/rbdock.cxx#4 $)

>  <Rbt.Library>
libRbt.so (2013.1, Build901 2013/11/27)

>  <Rbt.Parameter_File>
/export/apps/rDock/src/rDock_2013.1_src/data/scripts/dock_solv.prm

>  <Rbt.Receptor>
prm/pocket_docking_4.prm

>  <SCORE>
-11.7362

>  <SCORE.INTER>
-11.7932

>  <SCORE.INTER.CONST>
1

>  <SCORE.INTER.POLAR>
-1.29904

>  <SCORE.INTER.ROT>
3

>  <SCORE.INTER.SOLV>
14.3001

>  <SCORE.INTER.VDW>
-13.8987

>  <SCORE.INTER.norm>
-0.737073

>  <SCORE.INTRA>
0.0569494

>  <SCORE.INTRA.DIHEDRAL>
0.051421

>  <SCORE.INTRA.DIHEDRAL.0>
0.00893466

>  <SCORE.INTRA.POLAR>
0

>  <SCORE.INTRA.POLAR.0>
0

>  <SCORE.INTRA.REPUL>
0

>  <SCORE.INTRA.REPUL.0>
0

>  <SCORE.INTRA.SOLV>
0.197208

>  <SCORE.INTRA.SOLV.lig_0>
-48.9722

>  <SCORE.INTRA.VDW>
-0.0673652

>  <SCORE.INTRA.VDW.0>
-0.529409

>  <SCORE.INTRA.norm>
0.00355934

>  <SCORE.RESTR>
0

>  <SCORE.RESTR.CAVITY>
0

>  <SCORE.RESTR.norm>
0

>  <SCORE.SYSTEM>
0

>  <SCORE.SYSTEM.CONST>
0

>  <SCORE.SYSTEM.DIHEDRAL>
0

>  <SCORE.SYSTEM.SOLV>
0

>  <SCORE.SYSTEM.norm>
0

>  <SCORE.heavy>
16

>  <SCORE.norm>
-0.733514

>  <RMSD>
1.402

$$$$
ligand
 OpenBabel11021811433D
libRbt.so/2013.1/901 2013/11/27
 16 16  0  0  0  0  0  0  0  0999 V2000
   49.4317   13.0438   11.4086 P   0  0  2  0  0  0  0  0  0  0  0  0
   50.2077   11.8699   11.8798 O   0  0  0  0  0  0  0  0  0  0  0  0
   49.1554   12.9000    9.8298 O   0  5  0  0  0  0  0  0  0  0  0  0
   50.2923   14.3778   11.6796 O   0  0  0  0  0  0  0  0  0  0  0  0
   44.8734   12.0065   14.8024 C   0  0  2  0  0  0  0  0  0  0  0  0
   44.0943   10.8310   14.5162 O   0  0  0  0  0  0  0  0  0  0  0  0
   44.0821   13.2916   14.4483 C   0  0  2  0  0  0  0  0  0  0  0  0
   42.8180   13.3216   15.1934 O   0  0  0  0  0  0  0  0  0  0  0  0
   43.7884   13.2835   12.9364 C   0  0  1  0  0  0  0  0  0  0  0  0
   43.0620   14.4650   12.5776 O   0  0  0  0  0  0  0  0  0  0  0  0
   45.1294   13.2508   12.1867 C   0  0  2  0  0  0  0  0  0  0  0  0
   44.8813   13.2310   10.7644 O   0  0  0  0  0  0  0  0  0  0  0  0
   45.8977   11.9678   12.6083 C   0  0  2  0  0  0  0  0  0  0  0  0
   46.1318   11.9779   14.0500 O   0  0  0  0  0  0  0  0  0  0  0  0
   47.2574   11.9444   11.8867 C   0  0  0  0  0  0  0  0  0  0  0  0
   48.0111   13.1242   12.1915 O   0  0  0  0  0  0  0  0  0  0  0  0
  1  2  1  1  0  0  0
  1  3  1  0  0  0  0
  1  4  2  0  0  0  0
  1 16  1  0  0  0  0
  5  6  1  6  0  0  0
  5  7  1  0  0  0  0
  5 14  1  0  0  0  0
  7  8  1  1  0  0  0
  7  9  1  0  0  0  0
  9 10  1  6  0  0  0
  9 11  1  0  0  0  0
 11 12  1  6  0  0  0
 11 13  1  0  0  0  0
 13 14  1  0  0  0  0
 13 15  1  6  0  0  0
 15 16  1  0  0  0  0
M  CHG  1   3  -1
M  END
>  <CHROM.1>
57.53434766,179.88053712,-62.04062111,46.46163959,12.82882388,12.57423396
-0.36506467,-0.24041656,2.18158162

>  <Name>
ligand

>  <RI>
0

>  <Rbt.Current_Directory>
/home/itssahil/PROJECTS/Mol_Feturizer/New_Systems/rnas/2HO7

>  <Rbt.Executable>
rbdock ($Id: //depot/dev/client3/rdock/2013.1/src/exe/rbdock.cxx#4 $)

>  <Rbt.Library>
libRbt.so (2013.1, Build901 2013/11/27)

>  <Rbt.Parameter_File>
/export/apps/rDock/src/rDock_2013.1_src/data/scripts/dock_solv.prm

>  <Rbt.Receptor>
prm/pocket_docking_4.prm

>  <SCORE>
-11.1856

>  <SCORE.INTER>
-11.2958

>  <SCORE.INTER.CONST>
1

>  <SCORE.INTER.POLAR>
-1.03923

>  <SCORE.INTER.ROT>
3

>  <SCORE.INTER.SOLV>
13.368

>  <SCORE.INTER.VDW>
-14.1225

>  <SCORE.INTER.norm>
-0.70599

>  <SCORE.INTRA>
0.110274

>  <SCORE.INTRA.DIHEDRAL>
0.0204904

>  <SCORE.INTRA.DIHEDRAL.0>
0.00893466

>  <SCORE.INTRA.POLAR>
0

>  <SCORE.INTRA.POLAR.0>
0

>  <SCORE.INTRA.REPUL>
0

>  <SCORE.INTRA.REPUL.0>
0

>  <SCORE.INTRA.SOLV>
0.300458

>  <SCORE.INTRA.SOLV.lig_0>
-48.9722

>  <SCORE.INTRA.VDW>
-0.0502005

>  <SCORE.INTRA.VDW.0>
-0.529409

>  <SCORE.INTRA.norm>
0.00689211

>  <SCORE.RESTR>
0

>  <SCORE.RESTR.CAVITY>
0

>  <SCORE.RESTR.norm>
0

>  <SCORE.SYSTEM>
0

>  <SCORE.SYSTEM.CONST>
0

>  <SCORE.SYSTEM.DIHEDRAL>
0

>  <SCORE.SYSTEM.SOLV>
0

>  <SCORE.SYSTEM.norm>
0

>  <SCORE.heavy>
16

>  <SCORE.norm>
-0.699098

>  <RMSD>
1.403

$$$$
ligand
 OpenBabel11021811433D
libRbt.so/2013.1/901 2013/11/27
 16 16  0  0  0  0  0  0  0  0999 V2000
   49.4505   13.1363   11.2727 P   0  0  2  0  0  0  0  0  0  0  0  0
   49.1864   12.9188    9.8287 O   0  0  0  0  0  0  0  0  0  0  0  0
   50.2134   14.5397   11.4685 O   0  5  0  0  0  0  0  0  0  0  0  0
   50.3845   11.9419   11.8154 O   0  0  0  0  0  0  0  0  0  0  0  0
   44.9635   12.0358   14.7967 C   0  0  2  0  0  0  0  0  0  0  0  0
   44.2363   10.8159   14.5654 O   0  0  0  0  0  0  0  0  0  0  0  0
   44.1252   13.2669   14.3670 C   0  0  2  0  0  0  0  0  0  0  0  0
   42.8518   13.2840   15.0967 O   0  0  0  0  0  0  0  0  0  0  0  0
   43.8505   13.1671   12.8547 C   0  0  1  0  0  0  0  0  0  0  0  0
   43.0812   14.2973   12.4264 O   0  0  0  0  0  0  0  0  0  0  0  0
   45.2007   13.1502   12.1213 C   0  0  2  0  0  0  0  0  0  0  0  0
   44.9709   13.0454   10.6996 O   0  0  0  0  0  0  0  0  0  0  0  0
   46.0152   11.9239   12.6181 C   0  0  2  0  0  0  0  0  0  0  0  0
   46.2311   12.0195   14.0595 O   0  0  0  0  0  0  0  0  0  0  0  0
   47.3835   11.9185   11.9125 C   0  0  0  0  0  0  0  0  0  0  0  0
   48.0514   13.1727   12.0965 O   0  0  0  0  0  0  0  0  0  0  0  0
  1  2  1  6  0  0  0
  1  3  1  0  0  0  0
  1  4  2  0  0  0  0
  1 16  1  0  0  0  0
  5  6  1  6  0  0  0
  5  7  1  0  0  0  0
  5 14  1  0  0  0  0
  7  8  1  1  0  0  0
  7  9  1  0  0  0  0
  9 10  1  6  0  0  0
  9 11  1  0  0  0  0
 11 12  1  6  0  0  0
 11 13  1  0  0  0  0
 13 14  1  0  0  0  0
 13 15  1  6  0  0  0
 15 16  1  0  0  0  0
M  CHG  1   3  -1
M  END
>  <CHROM.1>
54.15000631,-177.23429760,60.01994999,46.52540076,12.82157239,12.50819693
-0.39147179,-0.21865413,2.16061531

>  <Name>
ligand

>  <RI>
0

>  <Rbt.Current_Directory>
/home/itssahil/PROJECTS/Mol_Feturizer/New_Systems/rnas/2HO7

>  <Rbt.Executable>
rbdock ($Id: //depot/dev/client3/rdock/2013.1/src/exe/rbdock.cxx#4 $)

>  <Rbt.Library>
libRbt.so (2013.1, Build901 2013/11/27)

>  <Rbt.Parameter_File>
/export/apps/rDock/src/rDock_2013.1_src/data/scripts/dock_solv.prm

>  <Rbt.Receptor>
prm/pocket_docking_4.prm

>  <SCORE>
-11.7667

>  <SCORE.INTER>
-11.9104

>  <SCORE.INTER.CONST>
1

>  <SCORE.INTER.POLAR>
-1.29904

>  <SCORE.INTER.ROT>
3

>  <SCORE.INTER.SOLV>
14.2945

>  <SCORE.INTER.VDW>
-13.975

>  <SCORE.INTER.norm>
-0.744399

>  <SCORE.INTRA>
0.14364

>  <SCORE.INTRA.DIHEDRAL>
0.152244

>  <SCORE.INTRA.DIHEDRAL.0>
0.00893466

>  <SCORE.INTRA.POLAR>
0

>  <SCORE.INTRA.POLAR.0>
0

>  <SCORE.INTRA.REPUL>
0

>  <SCORE.INTRA.REPUL.0>
0

>  <SCORE.INTRA.SOLV>
0.232052

>  <SCORE.INTRA.SOLV.lig_0>
-48.9722

>  <SCORE.INTRA.VDW>
-0.0485077

>  <SCORE.INTRA.VDW.0>
-0.529409

>  <SCORE.INTRA.norm>
0.00897752

>  <SCORE.RESTR>
0

>  <SCORE.RESTR.CAVITY>
0

>  <SCORE.RESTR.norm>
0

>  <SCORE.SYSTEM>
0

>  <SCORE.SYSTEM.CONST>
0

>  <SCORE.SYSTEM.DIHEDRAL>
0

>  <SCORE.SYSTEM.SOLV>
0

>  <SCORE.SYSTEM.norm>
0

>  <SCORE.heavy>
16

>  <SCORE.norm>
-0.735422

>  <RMSD>
1.405

$$$$
ligand
 OpenBabel11021811433D
libRbt.so/2013.1/901 2013/11/27
 16 16  0  0  0  0  0  0  0  0999 V2000
   49.3511   13.1060   11.1843 P   0  0  2  0  0  0  0  0  0  0  0  0
   49.0645   12.8208    9.7565 O   0  0  0  0  0  0  0  0  0  0  0  0
   50.0848   14.5332   11.3048 O   0  5  0  0  0  0  0  0  0  0  0  0
   50.3229   11.9572   11.7584 O   0  0  0  0  0  0  0  0  0  0  0  0
   44.9535   12.1067   14.8149 C   0  0  2  0  0  0  0  0  0  0  0  0
   44.2650   10.8501   14.6818 O   0  0  0  0  0  0  0  0  0  0  0  0
   44.0608   13.2780   14.3310 C   0  0  2  0  0  0  0  0  0  0  0  0
   42.8064   13.2984   15.0928 O   0  0  0  0  0  0  0  0  0  0  0  0
   43.7519   13.0715   12.8362 C   0  0  1  0  0  0  0  0  0  0  0  0
   42.9318   14.1446   12.3582 O   0  0  0  0  0  0  0  0  0  0  0  0
   45.0829   13.0536   12.0686 C   0  0  2  0  0  0  0  0  0  0  0  0
   44.8214   12.8495   10.6633 O   0  0  0  0  0  0  0  0  0  0  0  0
   45.9533   11.8907   12.6199 C   0  0  2  0  0  0  0  0  0  0  0  0
   46.2019   12.0863   14.0458 O   0  0  0  0  0  0  0  0  0  0  0  0
   47.3027   11.8867   11.8787 C   0  0  0  0  0  0  0  0  0  0  0  0
   47.9675   13.1464   12.0338 O   0  0  0  0  0  0  0  0  0  0  0  0
  1  2  1  6  0  0  0
  1  3  1  0  0  0  0
  1  4  2  0  0  0  0
  1 16  1  0  0  0  0
  5  6  1  6  0  0  0
  5  7  1  0  0  0  0
  5 14  1  0  0  0  0
  7  8  1  1  0  0  0
  7  9  1  0  0  0  0
  9 10  1  6  0  0  0
  9 11  1  0  0  0  0
 11 12  1  6  0  0  0
 11 13  1  0  0  0  0
 13 14  1  0  0  0  0
 13 15  1  6  0  0  0
 15 16  1  0  0  0  0
M  CHG  1   3  -1
M  END
>  <CHROM.1>
57.71592711,-177.71352489,58.03272040,46.44410058,12.78680782,12.46834071
-0.41797825,-0.19442747,2.07967888

>  <Name>
ligand

>  <RI>
0

>  <Rbt.Current_Directory>
/home/itssahil/PROJECTS/Mol_Feturizer/New_Systems/rnas/2HO7

>  <Rbt.Executable>
rbdock ($Id: //depot/dev/client3/rdock/2013.1/src/exe/rbdock.cxx#4 $)

>  <Rbt.Library>
libRbt.so (2013.1, Build901 2013/11/27)

>  <Rbt.Parameter_File>
/export/apps/rDock/src/rDock_2013.1_src/data/scripts/dock_solv.prm

>  <Rbt.Receptor>
prm/pocket_docking_6.prm

>  <SCORE>
-11.695

>  <SCORE.INTER>
-11.7493

>  <SCORE.INTER.CONST>
1

>  <SCORE.INTER.POLAR>
-1.29904

>  <SCORE.INTER.ROT>
3

>  <SCORE.INTER.SOLV>
14.0922

>  <SCORE.INTER.VDW>
-13.8001

>  <SCORE.INTER.norm>
-0.734329

>  <SCORE.INTRA>
0.0542585

>  <SCORE.INTRA.DIHEDRAL>
0.0425712

>  <SCORE.INTRA.DIHEDRAL.0>
0.00893466

>  <SCORE.INTRA.POLAR>
0

>  <SCORE.INTRA.POLAR.0>
0

>  <SCORE.INTRA.REPUL>
0

>  <SCORE.INTRA.REPUL.0>
0

>  <SCORE.INTRA.SOLV>
0.210241

>  <SCORE.INTRA.SOLV.lig_0>
-48.9722

>  <SCORE.INTRA.VDW>
-0.0721475

>  <SCORE.INTRA.VDW.0>
-0.529409

>  <SCORE.INTRA.norm>
0.00339116

>  <SCORE.RESTR>
0

>  <SCORE.RESTR.CAVITY>
0

>  <SCORE.RESTR.norm>
0

>  <SCORE.SYSTEM>
0

>  <SCORE.SYSTEM.CONST>
0

>  <SCORE.SYSTEM.DIHEDRAL>
0

>  <SCORE.SYSTEM.SOLV>
0

>  <SCORE.SYSTEM.norm>
0

>  <SCORE.heavy>
16

>  <SCORE.norm>
-0.730938

>  <RMSD>
1.405

$$$$
ligand
 OpenBabel11021811433D
libRbt.so/2013.1/901 2013/11/27
 16 16  0  0  0  0  0  0  0  0999 V2000
   49.4768   13.1567   11.3027 P   0  0  2  0  0  0  0  0  0  0  0  0
   49.2180   12.9752    9.8528 O   0  0  0  0  0  0  0  0  0  0  0  0
   50.2529   14.5472   11.5346 O   0  5  0  0  0  0  0  0  0  0  0  0
   50.3957   11.9405   11.8223 O   0  0  0  0  0  0  0  0  0  0  0  0
   44.9751   12.0372   14.8005 C   0  0  2  0  0  0  0  0  0  0  0  0
   44.2495   10.8180   14.5603 O   0  0  0  0  0  0  0  0  0  0  0  0
   44.1377   13.2700   14.3738 C   0  0  2  0  0  0  0  0  0  0  0  0
   42.8616   13.2828   15.0986 O   0  0  0  0  0  0  0  0  0  0  0  0
   43.8690   13.1777   12.8599 C   0  0  1  0  0  0  0  0  0  0  0  0
   43.1007   14.3095   12.4344 O   0  0  0  0  0  0  0  0  0  0  0  0
   45.2221   13.1652   12.1317 C   0  0  2  0  0  0  0  0  0  0  0  0
   44.9979   13.0674   10.7087 O   0  0  0  0  0  0  0  0  0  0  0  0
   46.0353   11.9369   12.6255 C   0  0  2  0  0  0  0  0  0  0  0  0
   46.2456   12.0253   14.0682 O   0  0  0  0  0  0  0  0  0  0  0  0
   47.4063   11.9358   11.9252 C   0  0  0  0  0  0  0  0  0  0  0  0
   48.0738   13.1886   12.1201 O   0  0  0  0  0  0  0  0  0  0  0  0
  1  2  1  6  0  0  0
  1  3  1  0  0  0  0
  1  4  2  0  0  0  0
  1 16  1  0  0  0  0
  5  6  1  6  0  0  0
  5  7  1  0  0  0  0
  5 14  1  0  0  0  0
  7  8  1  1  0  0  0
  7  9  1  0  0  0  0
  9 10  1  6  0  0  0
  9 11  1  0  0  0  0
 11 12  1  6  0  0  0
 11 13  1  0  0  0  0
 13 14  1  0  0  0  0
 13 15  1  6  0  0  0
 15 16  1  0  0  0  0
M  CHG  1   3  -1
M  END
>  <CHROM.1>
54.25177369,-177.28760776,61.14206108,46.54605017,12.83471619,12.52330559
-0.38784015,-0.21572284,2.16586165

>  <Name>
ligand

>  <RI>
0

>  <Rbt.Current_Directory>
/home/itssahil/PROJECTS/Mol_Feturizer/New_Systems/rnas/2HO7

>  <Rbt.Executable>
rbdock ($Id: //depot/dev/client3/rdock/2013.1/src/exe/rbdock.cxx#4 $)

>  <Rbt.Library>
libRbt.so (2013.1, Build901 2013/11/27)

>  <Rbt.Parameter_File>
/export/apps/rDock/src/rDock_2013.1_src/data/scripts/dock_solv.prm

>  <Rbt.Receptor>
prm/pocket_docking_8.prm

>  <SCORE>
-11.7504

>  <SCORE.INTER>
-11.8912

>  <SCORE.INTER.CONST>
1

>  <SCORE.INTER.POLAR>
-1.29904

>  <SCORE.INTER.ROT>
3

>  <SCORE.INTER.SOLV>
14.4219

>  <SCORE.INTER.VDW>
-14.0046

>  <SCORE.INTER.norm>
-0.743199

>  <SCORE.INTRA>
0.140812

>  <SCORE.INTRA.DIHEDRAL>
0.148635

>  <SCORE.INTRA.DIHEDRAL.0>
0.00893466

>  <SCORE.INTRA.POLAR>
0

>  <SCORE.INTRA.POLAR.0>
0

>  <SCORE.INTRA.REPUL>
0

>  <SCORE.INTRA.REPUL.0>
0

>  <SCORE.INTRA.SOLV>
0.242149

>  <SCORE.INTRA.SOLV.lig_0>
-48.9722

>  <SCORE.INTRA.VDW>
-0.0545799

>  <SCORE.INTRA.VDW.0>
-0.529409

>  <SCORE.INTRA.norm>
0.00880075

>  <SCORE.RESTR>
0

>  <SCORE.RESTR.CAVITY>
0

>  <SCORE.RESTR.norm>
0

>  <SCORE.SYSTEM>
0

>  <SCORE.SYSTEM.CONST>
0

>  <SCORE.SYSTEM.DIHEDRAL>
0

>  <SCORE.SYSTEM.SOLV>
0

>  <SCORE.SYSTEM.norm>
0

>  <SCORE.heavy>
16

>  <SCORE.norm>
-0.734399

>  <RMSD>
1.405

$$$$
ligand
 OpenBabel11021811433D
libRbt.so/2013.1/901 2013/11/27
 16 16  0  0  0  0  0  0  0  0999 V2000
   49.4641   13.1339   11.3467 P   0  0  2  0  0  0  0  0  0  0  0  0
   49.1941   12.9491    9.8992 O   0  0  0  0  0  0  0  0  0  0  0  0
   50.2375   14.5274   11.5699 O   0  5  0  0  0  0  0  0  0  0  0  0
   50.3912   11.9216   11.8608 O   0  0  0  0  0  0  0  0  0  0  0  0
   44.9428   12.0162   14.8075 C   0  0  2  0  0  0  0  0  0  0  0  0
   44.1996   10.8124   14.5446 O   0  0  0  0  0  0  0  0  0  0  0  0
   44.1217   13.2689   14.4079 C   0  0  2  0  0  0  0  0  0  0  0  0
   42.8475   13.2848   15.1361 O   0  0  0  0  0  0  0  0  0  0  0  0
   43.8482   13.2110   12.8932 C   0  0  1  0  0  0  0  0  0  0  0  0
   43.0949   14.3618   12.4925 O   0  0  0  0  0  0  0  0  0  0  0  0
   45.1993   13.1944   12.1614 C   0  0  2  0  0  0  0  0  0  0  0  0
   44.9705   13.1285   10.7372 O   0  0  0  0  0  0  0  0  0  0  0  0
   45.9964   11.9451   12.6282 C   0  0  2  0  0  0  0  0  0  0  0  0
   46.2112   12.0014   14.0718 O   0  0  0  0  0  0  0  0  0  0  0  0
   47.3656   11.9391   11.9244 C   0  0  0  0  0  0  0  0  0  0  0  0
   48.0677   13.1626   12.1755 O   0  0  0  0  0  0  0  0  0  0  0  0
  1  2  1  6  0  0  0
  1  3  1  0  0  0  0
  1  4  2  0  0  0  0
  1 16  1  0  0  0  0
  5  6  1  6  0  0  0
  5  7  1  0  0  0  0
  5 14  1  0  0  0  0
  7  8  1  1  0  0  0
  7  9  1  0  0  0  0
  9 10  1  6  0  0  0
  9 11  1  0  0  0  0
 11 12  1  6  0  0  0
 11 13  1  0  0  0  0
 13 14  1  0  0  0  0
 13 15  1  6  0  0  0
 15 16  1  0  0  0  0
M  CHG  1   3  -1
M  END
>  <CHROM.1>
55.95204025,-176.97789626,57.75658122,46.52412519,12.83431061,12.55221792
-0.37707835,-0.22586002,2.18501394

>  <Name>
ligand

>  <RI>
0

>  <Rbt.Current_Directory>
/home/itssahil/PROJECTS/Mol_Feturizer/New_Systems/rnas/2HO7

>  <Rbt.Executable>
rbdock ($Id: //depot/dev/client3/rdock/2013.1/src/exe/rbdock.cxx#4 $)

>  <Rbt.Library>
libRbt.so (2013.1, Build901 2013/11/27)

>  <Rbt.Parameter_File>
/export/apps/rDock/src/rDock_2013.1_src/data/scripts/dock_solv.prm

>  <Rbt.Receptor>
prm/pocket_docking_4.prm

>  <SCORE>
-11.7495

>  <SCORE.INTER>
-11.8501

>  <SCORE.INTER.CONST>
1

>  <SCORE.INTER.POLAR>
-1.29555

>  <SCORE.INTER.ROT>
3

>  <SCORE.INTER.SOLV>
14.681

>  <SCORE.INTER.VDW>
-14.0752

>  <SCORE.INTER.norm>
-0.740631

>  <SCORE.INTRA>
0.100544

>  <SCORE.INTRA.DIHEDRAL>
0.104073

>  <SCORE.INTRA.DIHEDRAL.0>
0.00893466

>  <SCORE.INTRA.POLAR>
0

>  <SCORE.INTRA.POLAR.0>
0

>  <SCORE.INTRA.REPUL>
0

>  <SCORE.INTRA.REPUL.0>
0

>  <SCORE.INTRA.SOLV>
0.206367

>  <SCORE.INTRA.SOLV.lig_0>
-48.9722

>  <SCORE.INTRA.VDW>
-0.0546761

>  <SCORE.INTRA.VDW.0>
-0.529409

>  <SCORE.INTRA.norm>
0.00628398

>  <SCORE.RESTR>
0

>  <SCORE.RESTR.CAVITY>
0

>  <SCORE.RESTR.norm>
0

>  <SCORE.SYSTEM>
0

>  <SCORE.SYSTEM.CONST>
0

>  <SCORE.SYSTEM.DIHEDRAL>
0

>  <SCORE.SYSTEM.SOLV>
0

>  <SCORE.SYSTEM.norm>
0

>  <SCORE.heavy>
16

>  <SCORE.norm>
-0.734347

>  <RMSD>
1.412

$$$$
ligand
 OpenBabel11021811433D
libRbt.so/2013.1/901 2013/11/27
 16 16  0  0  0  0  0  0  0  0999 V2000
   49.4728   13.1110   11.3053 P   0  0  2  0  0  0  0  0  0  0  0  0
   49.2146   12.8799    9.8623 O   0  0  0  0  0  0  0  0  0  0  0  0
   50.2366   14.5153   11.4909 O   0  5  0  0  0  0  0  0  0  0  0  0
   50.4029   11.9207   11.8635 O   0  0  0  0  0  0  0  0  0  0  0  0
   44.9595   12.0304   14.7994 C   0  0  2  0  0  0  0  0  0  0  0  0
   44.2179   10.8221   14.5530 O   0  0  0  0  0  0  0  0  0  0  0  0
   44.1376   13.2763   14.3807 C   0  0  2  0  0  0  0  0  0  0  0  0
   42.8624   13.3013   15.1070 O   0  0  0  0  0  0  0  0  0  0  0  0
   43.8661   13.1962   12.8667 C   0  0  1  0  0  0  0  0  0  0  0  0
   43.1120   14.3403   12.4485 O   0  0  0  0  0  0  0  0  0  0  0  0
   45.2181   13.1705   12.1369 C   0  0  2  0  0  0  0  0  0  0  0  0
   44.9912   13.0839   10.7135 O   0  0  0  0  0  0  0  0  0  0  0  0
   46.0160   11.9290   12.6227 C   0  0  2  0  0  0  0  0  0  0  0  0
   46.2289   12.0064   14.0656 O   0  0  0  0  0  0  0  0  0  0  0  0
   47.3861   11.9143   11.9208 C   0  0  0  0  0  0  0  0  0  0  0  0
   48.0701   13.1571   12.1226 O   0  0  0  0  0  0  0  0  0  0  0  0
  1  2  1  6  0  0  0
  1  3  1  0  0  0  0
  1  4  2  0  0  0  0
  1 16  1  0  0  0  0
  5  6  1  6  0  0  0
  5  7  1  0  0  0  0
  5 14  1  0  0  0  0
  7  8  1  1  0  0  0
  7  9  1  0  0  0  0
  9 10  1  6  0  0  0
  9 11  1  0  0  0  0
 11 12  1  6  0  0  0
 11 13  1  0  0  0  0
 13 14  1  0  0  0  0
 13 15  1  6  0  0  0
 15 16  1  0  0  0  0
M  CHG  1   3  -1
M  END
>  <CHROM.1>
54.26805160,-177.37545564,58.61941998,46.53856658,12.82074379,12.52582954
-0.38097539,-0.22668832,2.17302446

>  <Name>
ligand

>  <RI>
0

>  <Rbt.Current_Directory>
/home/itssahil/PROJECTS/Mol_Feturizer/New_Systems/rnas/2HO7

>  <Rbt.Executable>
rbdock ($Id: //depot/dev/client3/rdock/2013.1/src/exe/rbdock.cxx#4 $)

>  <Rbt.Library>
libRbt.so (2013.1, Build901 2013/11/27)

>  <Rbt.Parameter_File>
/export/apps/rDock/src/rDock_2013.1_src/data/scripts/dock_solv.prm

>  <Rbt.Receptor>
prm/pocket_docking_6.prm

>  <SCORE>
-11.7712

>  <SCORE.INTER>
-11.9123

>  <SCORE.INTER.CONST>
1

>  <SCORE.INTER.POLAR>
-1.29904

>  <SCORE.INTER.ROT>
3

>  <SCORE.INTER.SOLV>
14.4538

>  <SCORE.INTER.VDW>
-14.0294

>  <SCORE.INTER.norm>
-0.744522

>  <SCORE.INTRA>
0.141106

>  <SCORE.INTRA.DIHEDRAL>
0.146882

>  <SCORE.INTRA.DIHEDRAL.0>
0.00893466

>  <SCORE.INTRA.POLAR>
0

>  <SCORE.INTRA.POLAR.0>
0

>  <SCORE.INTRA.REPUL>
0

>  <SCORE.INTRA.REPUL.0>
0

>  <SCORE.INTRA.SOLV>
0.21666

>  <SCORE.INTRA.SOLV.lig_0>
-48.9722

>  <SCORE.INTRA.VDW>
-0.040665

>  <SCORE.INTRA.VDW.0>
-0.529409

>  <SCORE.INTRA.norm>
0.00881912

>  <SCORE.RESTR>
0

>  <SCORE.RESTR.CAVITY>
0

>  <SCORE.RESTR.norm>
0

>  <SCORE.SYSTEM>
0

>  <SCORE.SYSTEM.CONST>
0

>  <SCORE.SYSTEM.DIHEDRAL>
0

>  <SCORE.SYSTEM.SOLV>
0

>  <SCORE.SYSTEM.norm>
0

>  <SCORE.heavy>
16

>  <SCORE.norm>
-0.735703

>  <RMSD>
1.414

$$$$
ligand
 OpenBabel11021811433D
libRbt.so/2013.1/901 2013/11/27
 16 16  0  0  0  0  0  0  0  0999 V2000
   49.3971   13.0266   11.4579 P   0  0  2  0  0  0  0  0  0  0  0  0
   50.0939   11.8065   11.9355 O   0  0  0  0  0  0  0  0  0  0  0  0
   49.2025   12.9383    9.8629 O   0  5  0  0  0  0  0  0  0  0  0  0
   50.2987   14.3125   11.8143 O   0  0  0  0  0  0  0  0  0  0  0  0
   44.7994   12.0223   14.7918 C   0  0  2  0  0  0  0  0  0  0  0  0
   44.0136   10.8535   14.4965 O   0  0  0  0  0  0  0  0  0  0  0  0
   44.0192   13.3144   14.4383 C   0  0  2  0  0  0  0  0  0  0  0  0
   42.7511   13.3505   15.1763 O   0  0  0  0  0  0  0  0  0  0  0  0
   43.7341   13.3142   12.9246 C   0  0  1  0  0  0  0  0  0  0  0  0
   43.0181   14.5023   12.5664 O   0  0  0  0  0  0  0  0  0  0  0  0
   45.0790   13.2749   12.1824 C   0  0  2  0  0  0  0  0  0  0  0  0
   44.8389   13.2624   10.7587 O   0  0  0  0  0  0  0  0  0  0  0  0
   45.8358   11.9849   12.6034 C   0  0  2  0  0  0  0  0  0  0  0  0
   46.0618   11.9877   14.0464 O   0  0  0  0  0  0  0  0  0  0  0  0
   47.1994   11.9546   11.8894 C   0  0  0  0  0  0  0  0  0  0  0  0
   47.9402   13.1498   12.1649 O   0  0  0  0  0  0  0  0  0  0  0  0
  1  2  1  1  0  0  0
  1  3  1  0  0  0  0
  1  4  2  0  0  0  0
  1 16  1  0  0  0  0
  5  6  1  6  0  0  0
  5  7  1  0  0  0  0
  5 14  1  0  0  0  0
  7  8  1  1  0  0  0
  7  9  1  0  0  0  0
  9 10  1  6  0  0  0
  9 11  1  0  0  0  0
 11 12  1  6  0  0  0
 11 13  1  0  0  0  0
 13 14  1  0  0  0  0
 13 15  1  6  0  0  0
 15 16  1  0  0  0  0
M  CHG  1   3  -1
M  END
>  <CHROM.1>
55.47677539,176.85498092,-56.62712638,46.41125996,12.83704847,12.58705108
-0.35045520,-0.23969818,2.18328217

>  <Name>
ligand

>  <RI>
0

>  <Rbt.Current_Directory>
/home/itssahil/PROJECTS/Mol_Feturizer/New_Systems/rnas/2HO7

>  <Rbt.Executable>
rbdock ($Id: //depot/dev/client3/rdock/2013.1/src/exe/rbdock.cxx#4 $)

>  <Rbt.Library>
libRbt.so (2013.1, Build901 2013/11/27)

>  <Rbt.Parameter_File>
/export/apps/rDock/src/rDock_2013.1_src/data/scripts/dock_solv.prm

>  <Rbt.Receptor>
prm/pocket_docking_4.prm

>  <SCORE>
-11.1203

>  <SCORE.INTER>
-11.2744

>  <SCORE.INTER.CONST>
1

>  <SCORE.INTER.POLAR>
-1.03866

>  <SCORE.INTER.ROT>
3

>  <SCORE.INTER.SOLV>
13.4813

>  <SCORE.INTER.VDW>
-14.1479

>  <SCORE.INTER.norm>
-0.704653

>  <SCORE.INTRA>
0.154113

>  <SCORE.INTRA.DIHEDRAL>
0.132334

>  <SCORE.INTRA.DIHEDRAL.0>
0.00893466

>  <SCORE.INTRA.POLAR>
0

>  <SCORE.INTRA.POLAR.0>
0

>  <SCORE.INTRA.REPUL>
0

>  <SCORE.INTRA.REPUL.0>
0

>  <SCORE.INTRA.SOLV>
0.212526

>  <SCORE.INTRA.SOLV.lig_0>
-48.9722

>  <SCORE.INTRA.VDW>
-0.0183173

>  <SCORE.INTRA.VDW.0>
-0.529409

>  <SCORE.INTRA.norm>
0.00963204

>  <SCORE.RESTR>
0

>  <SCORE.RESTR.CAVITY>
0

>  <SCORE.RESTR.norm>
0

>  <SCORE.SYSTEM>
0

>  <SCORE.SYSTEM.CONST>
0

>  <SCORE.SYSTEM.DIHEDRAL>
0

>  <SCORE.SYSTEM.SOLV>
0

>  <SCORE.SYSTEM.norm>
0

>  <SCORE.heavy>
16

>  <SCORE.norm>
-0.695021

>  <RMSD>
1.415

$$$$
ligand
 OpenBabel11021811433D
libRbt.so/2013.1/901 2013/11/27
 16 16  0  0  0  0  0  0  0  0999 V2000
   49.4807   13.1156   11.3382 P   0  0  2  0  0  0  0  0  0  0  0  0
   49.2372   12.9092    9.8890 O   0  0  0  0  0  0  0  0  0  0  0  0
   50.2612   14.5063   11.5537 O   0  5  0  0  0  0  0  0  0  0  0  0
   50.3876   11.9046   11.8900 O   0  0  0  0  0  0  0  0  0  0  0  0
   44.9530   12.0292   14.7993 C   0  0  2  0  0  0  0  0  0  0  0  0
   44.2029   10.8294   14.5377 O   0  0  0  0  0  0  0  0  0  0  0  0
   44.1384   13.2863   14.4003 C   0  0  2  0  0  0  0  0  0  0  0  0
   42.8653   13.3095   15.1301 O   0  0  0  0  0  0  0  0  0  0  0  0
   43.8627   13.2294   12.8860 C   0  0  1  0  0  0  0  0  0  0  0  0
   43.1153   14.3843   12.4859 O   0  0  0  0  0  0  0  0  0  0  0  0
   45.2128   13.2051   12.1525 C   0  0  2  0  0  0  0  0  0  0  0  0
   44.9818   13.1400   10.7286 O   0  0  0  0  0  0  0  0  0  0  0  0
   46.0036   11.9516   12.6187 C   0  0  2  0  0  0  0  0  0  0  0  0
   46.2205   12.0071   14.0620 O   0  0  0  0  0  0  0  0  0  0  0  0
   47.3719   11.9377   11.9132 C   0  0  0  0  0  0  0  0  0  0  0  0
   48.0688   13.1691   12.1391 O   0  0  0  0  0  0  0  0  0  0  0  0
  1  2  1  6  0  0  0
  1  3  1  0  0  0  0
  1  4  2  0  0  0  0
  1 16  1  0  0  0  0
  5  6  1  6  0  0  0
  5  7  1  0  0  0  0
  5 14  1  0  0  0  0
  7  8  1  1  0  0  0
  7  9  1  0  0  0  0
  9 10  1  6  0  0  0
  9 11  1  0  0  0  0
 11 12  1  6  0  0  0
 11 13  1  0  0  0  0
 13 14  1  0  0  0  0
 13 15  1  6  0  0  0
 15 16  1  0  0  0  0
M  CHG  1   3  -1
M  END
>  <CHROM.1>
54.70224522,-178.33902175,58.74637213,46.53762209,12.83600177,12.54392950
-0.37338814,-0.23061235,2.18428298

>  <Name>
ligand

>  <RI>
0

>  <Rbt.Current_Directory>
/home/itssahil/PROJECTS/Mol_Feturizer/New_Systems/rnas/2HO7

>  <Rbt.Executable>
rbdock ($Id: //depot/dev/client3/rdock/2013.1/src/exe/rbdock.cxx#4 $)

>  <Rbt.Library>
libRbt.so (2013.1, Build901 2013/11/27)

>  <Rbt.Parameter_File>
/export/apps/rDock/src/rDock_2013.1_src/data/scripts/dock_solv.prm

>  <Rbt.Receptor>
prm/pocket_docking_5.prm

>  <SCORE>
-11.7732

>  <SCORE.INTER>
-11.8941

>  <SCORE.INTER.CONST>
1

>  <SCORE.INTER.POLAR>
-1.29904

>  <SCORE.INTER.ROT>
3

>  <SCORE.INTER.SOLV>
14.6317

>  <SCORE.INTER.VDW>
-14.0765

>  <SCORE.INTER.norm>
-0.743381

>  <SCORE.INTRA>
0.120879

>  <SCORE.INTRA.DIHEDRAL>
0.108865

>  <SCORE.INTRA.DIHEDRAL.0>
0.00893466

>  <SCORE.INTRA.POLAR>
0

>  <SCORE.INTRA.POLAR.0>
0

>  <SCORE.INTRA.REPUL>
0

>  <SCORE.INTRA.REPUL.0>
0

>  <SCORE.INTRA.SOLV>
0.220728

>  <SCORE.INTRA.SOLV.lig_0>
-48.9722

>  <SCORE.INTRA.VDW>
-0.0439166

>  <SCORE.INTRA.VDW.0>
-0.529409

>  <SCORE.INTRA.norm>
0.00755497

>  <SCORE.RESTR>
0

>  <SCORE.RESTR.CAVITY>
0

>  <SCORE.RESTR.norm>
0

>  <SCORE.SYSTEM>
0

>  <SCORE.SYSTEM.CONST>
0

>  <SCORE.SYSTEM.DIHEDRAL>
0

>  <SCORE.SYSTEM.SOLV>
0

>  <SCORE.SYSTEM.norm>
0

>  <SCORE.heavy>
16

>  <SCORE.norm>
-0.735826

>  <RMSD>
1.418

$$$$
ligand
 OpenBabel11021811433D
libRbt.so/2013.1/901 2013/11/27
 16 16  0  0  0  0  0  0  0  0999 V2000
   49.1011   13.2757   10.5105 P   0  0  2  0  0  0  0  0  0  0  0  0
   49.6194   14.5054   11.1596 O   0  0  0  0  0  0  0  0  0  0  0  0
   50.2423   12.1413   10.5319 O   0  5  0  0  0  0  0  0  0  0  0  0
   48.7173   13.6166    8.9841 O   0  0  0  0  0  0  0  0  0  0  0  0
   44.7693   12.4379   14.1995 C   0  0  2  0  0  0  0  0  0  0  0  0
   44.1584   11.2980   13.5683 O   0  0  0  0  0  0  0  0  0  0  0  0
   43.7527   13.5996   14.3415 C   0  0  2  0  0  0  0  0  0  0  0  0
   42.5864   13.1520   15.1119 O   0  0  0  0  0  0  0  0  0  0  0  0
   43.3043   14.0312   12.9326 C   0  0  1  0  0  0  0  0  0  0  0  0
   42.3672   15.1103   13.0318 O   0  0  0  0  0  0  0  0  0  0  0  0
   44.5459   14.4919   12.1533 C   0  0  2  0  0  0  0  0  0  0  0  0
   44.1536   14.8918   10.8225 O   0  0  0  0  0  0  0  0  0  0  0  0
   45.5468   13.3059   12.0766 C   0  0  2  0  0  0  0  0  0  0  0  0
   45.9289   12.8881   13.4229 O   0  0  0  0  0  0  0  0  0  0  0  0
   46.8084   13.7695   11.3259 C   0  0  0  0  0  0  0  0  0  0  0  0
   47.7957   12.7313   11.3088 O   0  0  0  0  0  0  0  0  0  0  0  0
  1  2  1  1  0  0  0
  1  3  1  0  0  0  0
  1  4  2  0  0  0  0
  1 16  1  0  0  0  0
  5  6  1  6  0  0  0
  5  7  1  0  0  0  0
  5 14  1  0  0  0  0
  7  8  1  1  0  0  0
  7  9  1  0  0  0  0
  9 10  1  1  0  0  0
  9 11  1  0  0  0  0
 11 12  1  6  0  0  0
 11 13  1  0  0  0  0
 13 14  1  0  0  0  0
 13 15  1  6  0  0  0
 15 16  1  0  0  0  0
M  CHG  1   3  -1
M  END
>  <CHROM.1>
176.20625000,-179.84885917,57.86580013,46.10740882,13.43293634,12.06978721
-0.32906474,-0.40166820,2.33304909

>  <Name>
ligand

>  <RI>
0

>  <Rbt.Current_Directory>
/home/itssahil/PROJECTS/Mol_Feturizer/New_Systems/rnas/2HO7

>  <Rbt.Executable>
rbdock ($Id: //depot/dev/client3/rdock/2013.1/src/exe/rbdock.cxx#4 $)

>  <Rbt.Library>
libRbt.so (2013.1, Build901 2013/11/27)

>  <Rbt.Parameter_File>
/export/apps/rDock/src/rDock_2013.1_src/data/scripts/dock_solv.prm

>  <Rbt.Receptor>
prm/pocket_docking_5.prm

>  <SCORE>
-10.0998

>  <SCORE.INTER>
-10.1455

>  <SCORE.INTER.CONST>
1

>  <SCORE.INTER.POLAR>
-1.29904

>  <SCORE.INTER.ROT>
3

>  <SCORE.INTER.SOLV>
11.2373

>  <SCORE.INTER.VDW>
-11.7793

>  <SCORE.INTER.norm>
-0.634095

>  <SCORE.INTRA>
0.0456905

>  <SCORE.INTRA.DIHEDRAL>
0.0512313

>  <SCORE.INTRA.DIHEDRAL.0>
0.00893466

>  <SCORE.INTRA.POLAR>
0

>  <SCORE.INTRA.POLAR.0>
0

>  <SCORE.INTRA.REPUL>
0

>  <SCORE.INTRA.REPUL.0>
0

>  <SCORE.INTRA.SOLV>
-0.0165119

>  <SCORE.INTRA.SOLV.lig_0>
-48.9722

>  <SCORE.INTRA.VDW>
0.0283308

>  <SCORE.INTRA.VDW.0>
-0.529409

>  <SCORE.INTRA.norm>
0.00285566

>  <SCORE.RESTR>
0

>  <SCORE.RESTR.CAVITY>
0

>  <SCORE.RESTR.norm>
0

>  <SCORE.SYSTEM>
0

>  <SCORE.SYSTEM.CONST>
0

>  <SCORE.SYSTEM.DIHEDRAL>
0

>  <SCORE.SYSTEM.SOLV>
0

>  <SCORE.SYSTEM.norm>
0

>  <SCORE.heavy>
16

>  <SCORE.norm>
-0.63124

>  <RMSD>
1.418

$$$$
ligand
 OpenBabel11021811433D
libRbt.so/2013.1/901 2013/11/27
 16 16  0  0  0  0  0  0  0  0999 V2000
   49.3847   13.1723   11.2831 P   0  0  2  0  0  0  0  0  0  0  0  0
   49.1150   13.0101    9.8329 O   0  0  0  0  0  0  0  0  0  0  0  0
   50.1782   14.5512   11.5257 O   0  5  0  0  0  0  0  0  0  0  0  0
   50.2928   11.9399   11.7833 O   0  0  0  0  0  0  0  0  0  0  0  0
   44.9019   12.0362   14.8042 C   0  0  2  0  0  0  0  0  0  0  0  0
   44.1519   10.8372   14.5386 O   0  0  0  0  0  0  0  0  0  0  0  0
   44.0830   13.2949   14.4194 C   0  0  2  0  0  0  0  0  0  0  0  0
   42.8144   13.3109   15.1572 O   0  0  0  0  0  0  0  0  0  0  0  0
   43.7980   13.2486   12.9064 C   0  0  1  0  0  0  0  0  0  0  0  0
   43.0464   14.4051   12.5193 O   0  0  0  0  0  0  0  0  0  0  0  0
   45.1436   13.2316   12.1644 C   0  0  2  0  0  0  0  0  0  0  0  0
   44.9039   13.1764   10.7416 O   0  0  0  0  0  0  0  0  0  0  0  0
   45.9391   11.9759   12.6167 C   0  0  2  0  0  0  0  0  0  0  0  0
   46.1648   12.0214   14.0590 O   0  0  0  0  0  0  0  0  0  0  0  0
   47.3030   11.9692   11.9027 C   0  0  0  0  0  0  0  0  0  0  0  0
   47.9872   13.2110   12.1096 O   0  0  0  0  0  0  0  0  0  0  0  0
  1  2  1  6  0  0  0
  1  3  1  0  0  0  0
  1  4  2  0  0  0  0
  1 16  1  0  0  0  0
  5  6  1  6  0  0  0
  5  7  1  0  0  0  0
  5 14  1  0  0  0  0
  7  8  1  1  0  0  0
  7  9  1  0  0  0  0
  9 10  1  6  0  0  0
  9 11  1  0  0  0  0
 11 12  1  6  0  0  0
 11 13  1  0  0  0  0
 13 14  1  0  0  0  0
 13 15  1  6  0  0  0
 15 16  1  0  0  0  0
M  CHG  1   3  -1
M  END
>  <CHROM.1>
53.47432420,-177.53859413,61.02816601,46.46331787,12.86817011,12.53002707
-0.38728300,-0.23722312,2.19435217

>  <Name>
ligand

>  <RI>
0

>  <Rbt.Current_Directory>
/home/itssahil/PROJECTS/Mol_Feturizer/New_Systems/rnas/2HO7

>  <Rbt.Executable>
rbdock ($Id: //depot/dev/client3/rdock/2013.1/src/exe/rbdock.cxx#4 $)

>  <Rbt.Library>
libRbt.so (2013.1, Build901 2013/11/27)

>  <Rbt.Parameter_File>
/export/apps/rDock/src/rDock_2013.1_src/data/scripts/dock_solv.prm

>  <Rbt.Receptor>
prm/pocket_docking_3.prm

>  <SCORE>
-11.7798

>  <SCORE.INTER>
-11.9471

>  <SCORE.INTER.CONST>
1

>  <SCORE.INTER.POLAR>
-1.29901

>  <SCORE.INTER.ROT>
3

>  <SCORE.INTER.SOLV>
14.4565

>  <SCORE.INTER.VDW>
-14.0535

>  <SCORE.INTER.norm>
-0.746693

>  <SCORE.INTRA>
0.167331

>  <SCORE.INTRA.DIHEDRAL>
0.175848

>  <SCORE.INTRA.DIHEDRAL.0>
0.00893466

>  <SCORE.INTRA.POLAR>
0

>  <SCORE.INTRA.POLAR.0>
0

>  <SCORE.INTRA.REPUL>
0

>  <SCORE.INTRA.REPUL.0>
0

>  <SCORE.INTRA.SOLV>
0.245386

>  <SCORE.INTRA.SOLV.lig_0>
-48.9722

>  <SCORE.INTRA.VDW>
-0.0432859

>  <SCORE.INTRA.VDW.0>
-0.529409

>  <SCORE.INTRA.norm>
0.0104582

>  <SCORE.RESTR>
0

>  <SCORE.RESTR.CAVITY>
0

>  <SCORE.RESTR.norm>
0

>  <SCORE.SYSTEM>
0

>  <SCORE.SYSTEM.CONST>
0

>  <SCORE.SYSTEM.DIHEDRAL>
0

>  <SCORE.SYSTEM.SOLV>
0

>  <SCORE.SYSTEM.norm>
0

>  <SCORE.heavy>
16

>  <SCORE.norm>
-0.736235

>  <RMSD>
1.421

$$$$
ligand
 OpenBabel11021811433D
libRbt.so/2013.1/901 2013/11/27
 16 16  0  0  0  0  0  0  0  0999 V2000
   49.3893   13.1751   11.2862 P   0  0  2  0  0  0  0  0  0  0  0  0
   49.0990   13.0120    9.8401 O   0  0  0  0  0  0  0  0  0  0  0  0
   50.1748   14.5604   11.5182 O   0  5  0  0  0  0  0  0  0  0  0  0
   50.3151   11.9499   11.7714 O   0  0  0  0  0  0  0  0  0  0  0  0
   44.9195   12.0359   14.8130 C   0  0  2  0  0  0  0  0  0  0  0  0
   44.1713   10.8346   14.5524 O   0  0  0  0  0  0  0  0  0  0  0  0
   44.0951   13.2921   14.4319 C   0  0  2  0  0  0  0  0  0  0  0  0
   42.8305   13.3051   15.1768 O   0  0  0  0  0  0  0  0  0  0  0  0
   43.8017   13.2439   12.9206 C   0  0  1  0  0  0  0  0  0  0  0  0
   43.0448   14.3981   12.5369 O   0  0  0  0  0  0  0  0  0  0  0  0
   45.1431   13.2300   12.1711 C   0  0  2  0  0  0  0  0  0  0  0  0
   44.8956   13.1733   10.7497 O   0  0  0  0  0  0  0  0  0  0  0  0
   45.9446   11.9769   12.6197 C   0  0  2  0  0  0  0  0  0  0  0  0
   46.1783   12.0239   14.0607 O   0  0  0  0  0  0  0  0  0  0  0  0
   47.3044   11.9734   11.8980 C   0  0  0  0  0  0  0  0  0  0  0  0
   48.0042   13.2013   12.1338 O   0  0  0  0  0  0  0  0  0  0  0  0
  1  2  1  6  0  0  0
  1  3  1  0  0  0  0
  1  4  2  0  0  0  0
  1 16  1  0  0  0  0
  5  6  1  6  0  0  0
  5  7  1  0  0  0  0
  5 14  1  0  0  0  0
  7  8  1  1  0  0  0
  7  9  1  0  0  0  0
  9 10  1  6  0  0  0
  9 11  1  0  0  0  0
 11 12  1  6  0  0  0
 11 13  1  0  0  0  0
 13 14  1  0  0  0  0
 13 15  1  6  0  0  0
 15 16  1  0  0  0  0
M  CHG  1   3  -1
M  END
>  <CHROM.1>
55.23060398,-176.94586211,58.99103483,46.46962732,12.86800933,12.53704936
-0.38995324,-0.23600526,2.19031747

>  <Name>
ligand

>  <RI>
0

>  <Rbt.Current_Directory>
/home/itssahil/PROJECTS/Mol_Feturizer/New_Systems/rnas/2HO7

>  <Rbt.Executable>
rbdock ($Id: //depot/dev/client3/rdock/2013.1/src/exe/rbdock.cxx#4 $)

>  <Rbt.Library>
libRbt.so (2013.1, Build901 2013/11/27)

>  <Rbt.Parameter_File>
/export/apps/rDock/src/rDock_2013.1_src/data/scripts/dock_solv.prm

>  <Rbt.Receptor>
prm/pocket_docking_3.prm

>  <SCORE>
-11.7947

>  <SCORE.INTER>
-11.9084

>  <SCORE.INTER.CONST>
1

>  <SCORE.INTER.POLAR>
-1.29904

>  <SCORE.INTER.ROT>
3

>  <SCORE.INTER.SOLV>
14.4864

>  <SCORE.INTER.VDW>
-14.0376

>  <SCORE.INTER.norm>
-0.744274

>  <SCORE.INTRA>
0.113705

>  <SCORE.INTRA.DIHEDRAL>
0.121192

>  <SCORE.INTRA.DIHEDRAL.0>
0.00893466

>  <SCORE.INTRA.POLAR>
0

>  <SCORE.INTRA.POLAR.0>
0

>  <SCORE.INTRA.REPUL>
0

>  <SCORE.INTRA.REPUL.0>
0

>  <SCORE.INTRA.SOLV>
0.218815

>  <SCORE.INTRA.SOLV.lig_0>
-48.9722

>  <SCORE.INTRA.VDW>
-0.0562985

>  <SCORE.INTRA.VDW.0>
-0.529409

>  <SCORE.INTRA.norm>
0.00710655

>  <SCORE.RESTR>
0

>  <SCORE.RESTR.CAVITY>
0

>  <SCORE.RESTR.norm>
0

>  <SCORE.SYSTEM>
0

>  <SCORE.SYSTEM.CONST>
0

>  <SCORE.SYSTEM.DIHEDRAL>
0

>  <SCORE.SYSTEM.SOLV>
0

>  <SCORE.SYSTEM.norm>
0

>  <SCORE.heavy>
16

>  <SCORE.norm>
-0.737168

>  <RMSD>
1.422

$$$$
ligand
 OpenBabel11021811433D
libRbt.so/2013.1/901 2013/11/27
 16 16  0  0  0  0  0  0  0  0999 V2000
   49.2511   13.2122   10.9711 P   0  0  2  0  0  0  0  0  0  0  0  0
   48.8352   12.9531    9.5703 O   0  0  0  0  0  0  0  0  0  0  0  0
   49.9538   14.6573   11.0587 O   0  5  0  0  0  0  0  0  0  0  0  0
   50.3050   12.0794   11.4177 O   0  0  0  0  0  0  0  0  0  0  0  0
   45.0136   12.1071   14.8082 C   0  0  2  0  0  0  0  0  0  0  0  0
   44.3407   10.8408   14.6887 O   0  0  0  0  0  0  0  0  0  0  0  0
   44.0981   13.2644   14.3332 C   0  0  2  0  0  0  0  0  0  0  0  0
   42.8544   13.2702   15.1126 O   0  0  0  0  0  0  0  0  0  0  0  0
   43.7711   13.0487   12.8436 C   0  0  1  0  0  0  0  0  0  0  0  0
   42.9297   14.1088   12.3738 O   0  0  0  0  0  0  0  0  0  0  0  0
   45.0914   13.0466   12.0574 C   0  0  2  0  0  0  0  0  0  0  0  0
   44.8129   12.8342   10.6566 O   0  0  0  0  0  0  0  0  0  0  0  0
   45.9854   11.8975   12.6000 C   0  0  2  0  0  0  0  0  0  0  0  0
   46.2512   12.1013   14.0216 O   0  0  0  0  0  0  0  0  0  0  0  0
   47.3241   11.9096   11.8399 C   0  0  0  0  0  0  0  0  0  0  0  0
   47.9560   13.1908   11.9507 O   0  0  0  0  0  0  0  0  0  0  0  0
  1  2  1  6  0  0  0
  1  3  1  0  0  0  0
  1  4  2  0  0  0  0
  1 16  1  0  0  0  0
  5  6  1  6  0  0  0
  5  7  1  0  0  0  0
  5 14  1  0  0  0  0
  7  8  1  1  0  0  0
  7  9  1  0  0  0  0
  9 10  1  6  0  0  0
  9 11  1  0  0  0  0
 11 12  1  6  0  0  0
 11 13  1  0  0  0  0
 13 14  1  0  0  0  0
 13 15  1  6  0  0  0
 15 16  1  0  0  0  0
M  CHG  1   3  -1
M  END
>  <CHROM.1>
56.10864708,-172.35312350,58.79287476,46.42683094,12.82116834,12.38556811
-0.46749116,-0.20402638,2.08845364

>  <Name>
ligand

>  <RI>
0

>  <Rbt.Current_Directory>
/home/itssahil/PROJECTS/Mol_Feturizer/New_Systems/rnas/2HO7

>  <Rbt.Executable>
rbdock ($Id: //depot/dev/client3/rdock/2013.1/src/exe/rbdock.cxx#4 $)

>  <Rbt.Library>
libRbt.so (2013.1, Build901 2013/11/27)

>  <Rbt.Parameter_File>
/export/apps/rDock/src/rDock_2013.1_src/data/scripts/dock_solv.prm

>  <Rbt.Receptor>
prm/pocket_docking_4.prm

>  <SCORE>
-11.5932

>  <SCORE.INTER>
-11.7989

>  <SCORE.INTER.CONST>
1

>  <SCORE.INTER.POLAR>
-1.29904

>  <SCORE.INTER.ROT>
3

>  <SCORE.INTER.SOLV>
13.008

>  <SCORE.INTER.VDW>
-13.4718

>  <SCORE.INTER.norm>
-0.73743

>  <SCORE.INTRA>
0.205674

>  <SCORE.INTRA.DIHEDRAL>
0.333376

>  <SCORE.INTRA.DIHEDRAL.0>
0.00893466

>  <SCORE.INTRA.POLAR>
0

>  <SCORE.INTRA.POLAR.0>
0

>  <SCORE.INTRA.REPUL>
0

>  <SCORE.INTRA.REPUL.0>
0

>  <SCORE.INTRA.SOLV>
0.242633

>  <SCORE.INTRA.SOLV.lig_0>
-48.9722

>  <SCORE.INTRA.VDW>
-0.0823306

>  <SCORE.INTRA.VDW.0>
-0.529409

>  <SCORE.INTRA.norm>
0.0128546

>  <SCORE.RESTR>
0

>  <SCORE.RESTR.CAVITY>
0

>  <SCORE.RESTR.norm>
0

>  <SCORE.SYSTEM>
0

>  <SCORE.SYSTEM.CONST>
0

>  <SCORE.SYSTEM.DIHEDRAL>
0

>  <SCORE.SYSTEM.SOLV>
0

>  <SCORE.SYSTEM.norm>
0

>  <SCORE.heavy>
16

>  <SCORE.norm>
-0.724576

>  <RMSD>
1.423

$$$$
ligand
 OpenBabel11021811433D
libRbt.so/2013.1/901 2013/11/27
 16 16  0  0  0  0  0  0  0  0999 V2000
   49.3600   13.1175   11.2450 P   0  0  2  0  0  0  0  0  0  0  0  0
   49.0644   12.8693    9.8121 O   0  0  0  0  0  0  0  0  0  0  0  0
   50.1130   14.5317   11.3956 O   0  5  0  0  0  0  0  0  0  0  0  0
   50.3185   11.9430   11.7884 O   0  0  0  0  0  0  0  0  0  0  0  0
   44.9068   12.0376   14.8067 C   0  0  2  0  0  0  0  0  0  0  0  0
   44.1563   10.8331   14.5687 O   0  0  0  0  0  0  0  0  0  0  0  0
   44.0806   13.2885   14.4122 C   0  0  2  0  0  0  0  0  0  0  0  0
   42.8208   13.3134   15.1648 O   0  0  0  0  0  0  0  0  0  0  0  0
   43.7777   13.2181   12.9037 C   0  0  1  0  0  0  0  0  0  0  0  0
   43.0190   14.3670   12.5077 O   0  0  0  0  0  0  0  0  0  0  0  0
   45.1143   13.1922   12.1460 C   0  0  2  0  0  0  0  0  0  0  0  0
   44.8578   13.1146   10.7272 O   0  0  0  0  0  0  0  0  0  0  0  0
   45.9179   11.9454   12.6081 C   0  0  2  0  0  0  0  0  0  0  0  0
   46.1608   12.0137   14.0467 O   0  0  0  0  0  0  0  0  0  0  0  0
   47.2732   11.9303   11.8780 C   0  0  0  0  0  0  0  0  0  0  0  0
   47.9802   13.1565   12.1007 O   0  0  0  0  0  0  0  0  0  0  0  0
  1  2  1  6  0  0  0
  1  3  1  0  0  0  0
  1  4  2  0  0  0  0
  1 16  1  0  0  0  0
  5  6  1  6  0  0  0
  5  7  1  0  0  0  0
  5 14  1  0  0  0  0
  7  8  1  1  0  0  0
  7  9  1  0  0  0  0
  9 10  1  6  0  0  0
  9 11  1  0  0  0  0
 11 12  1  6  0  0  0
 11 13  1  0  0  0  0
 13 14  1  0  0  0  0
 13 15  1  6  0  0  0
 15 16  1  0  0  0  0
M  CHG  1   3  -1
M  END
>  <CHROM.1>
55.73603031,-176.95881512,55.82701298,46.44484348,12.83371953,12.51248300
-0.39316916,-0.23902143,2.17347657

>  <Name>
ligand

>  <RI>
0

>  <Rbt.Current_Directory>
/home/itssahil/PROJECTS/Mol_Feturizer/New_Systems/rnas/2HO7

>  <Rbt.Executable>
rbdock ($Id: //depot/dev/client3/rdock/2013.1/src/exe/rbdock.cxx#4 $)

>  <Rbt.Library>
libRbt.so (2013.1, Build901 2013/11/27)

>  <Rbt.Parameter_File>
/export/apps/rDock/src/rDock_2013.1_src/data/scripts/dock_solv.prm

>  <Rbt.Receptor>
prm/pocket_docking_4.prm

>  <SCORE>
-11.7794

>  <SCORE.INTER>
-11.906

>  <SCORE.INTER.CONST>
1

>  <SCORE.INTER.POLAR>
-1.29867

>  <SCORE.INTER.ROT>
3

>  <SCORE.INTER.SOLV>
14.2981

>  <SCORE.INTER.VDW>
-13.9745

>  <SCORE.INTER.norm>
-0.744128

>  <SCORE.INTRA>
0.126661

>  <SCORE.INTRA.DIHEDRAL>
0.131541

>  <SCORE.INTRA.DIHEDRAL.0>
0.00893466

>  <SCORE.INTRA.POLAR>
0

>  <SCORE.INTRA.POLAR.0>
0

>  <SCORE.INTRA.REPUL>
0

>  <SCORE.INTRA.REPUL.0>
0

>  <SCORE.INTRA.SOLV>
0.187388

>  <SCORE.INTRA.SOLV.lig_0>
-48.9722

>  <SCORE.INTRA.VDW>
-0.0328028

>  <SCORE.INTRA.VDW.0>
-0.529409

>  <SCORE.INTRA.norm>
0.00791634

>  <SCORE.RESTR>
0

>  <SCORE.RESTR.CAVITY>
0

>  <SCORE.RESTR.norm>
0

>  <SCORE.SYSTEM>
0

>  <SCORE.SYSTEM.CONST>
0

>  <SCORE.SYSTEM.DIHEDRAL>
0

>  <SCORE.SYSTEM.SOLV>
0

>  <SCORE.SYSTEM.norm>
0

>  <SCORE.heavy>
16

>  <SCORE.norm>
-0.736211

>  <RMSD>
1.423

$$$$
ligand
 OpenBabel11021811433D
libRbt.so/2013.1/901 2013/11/27
 16 16  0  0  0  0  0  0  0  0999 V2000
   49.3977   13.1333   11.3089 P   0  0  2  0  0  0  0  0  0  0  0  0
   49.1227   12.9361    9.8640 O   0  0  0  0  0  0  0  0  0  0  0  0
   50.1789   14.5248   11.5167 O   0  5  0  0  0  0  0  0  0  0  0  0
   50.3200   11.9212   11.8320 O   0  0  0  0  0  0  0  0  0  0  0  0
   44.9049   12.0386   14.8089 C   0  0  2  0  0  0  0  0  0  0  0  0
   44.1473   10.8435   14.5474 O   0  0  0  0  0  0  0  0  0  0  0  0
   44.0901   13.3016   14.4291 C   0  0  2  0  0  0  0  0  0  0  0  0
   42.8259   13.3237   15.1743 O   0  0  0  0  0  0  0  0  0  0  0  0
   43.7962   13.2571   12.9178 C   0  0  1  0  0  0  0  0  0  0  0  0
   43.0482   14.4175   12.5354 O   0  0  0  0  0  0  0  0  0  0  0  0
   45.1374   13.2335   12.1681 C   0  0  2  0  0  0  0  0  0  0  0  0
   44.8892   13.1800   10.7467 O   0  0  0  0  0  0  0  0  0  0  0  0
   45.9291   11.9737   12.6154 C   0  0  2  0  0  0  0  0  0  0  0  0
   46.1634   12.0176   14.0564 O   0  0  0  0  0  0  0  0  0  0  0  0
   47.2888   11.9604   11.8936 C   0  0  0  0  0  0  0  0  0  0  0  0
   48.0038   13.1771   12.1412 O   0  0  0  0  0  0  0  0  0  0  0  0
  1  2  1  6  0  0  0
  1  3  1  0  0  0  0
  1  4  2  0  0  0  0
  1 16  1  0  0  0  0
  5  6  1  6  0  0  0
  5  7  1  0  0  0  0
  5 14  1  0  0  0  0
  7  8  1  1  0  0  0
  7  9  1  0  0  0  0
  9 10  1  6  0  0  0
  9 11  1  0  0  0  0
 11 12  1  6  0  0  0
 11 13  1  0  0  0  0
 13 14  1  0  0  0  0
 13 15  1  6  0  0  0
 15 16  1  0  0  0  0
M  CHG  1   3  -1
M  END
>  <CHROM.1>
55.80213538,-177.69465924,57.20973459,46.46652959,12.85613954,12.54337220
-0.38016567,-0.23970095,2.18941762

>  <Name>
ligand

>  <RI>
0

>  <Rbt.Current_Directory>
/home/itssahil/PROJECTS/Mol_Feturizer/New_Systems/rnas/2HO7

>  <Rbt.Executable>
rbdock ($Id: //depot/dev/client3/rdock/2013.1/src/exe/rbdock.cxx#4 $)

>  <Rbt.Library>
libRbt.so (2013.1, Build901 2013/11/27)

>  <Rbt.Parameter_File>
/export/apps/rDock/src/rDock_2013.1_src/data/scripts/dock_solv.prm

>  <Rbt.Receptor>
prm/pocket_docking_3.prm

>  <SCORE>
-11.7907

>  <SCORE.INTER>
-11.8936

>  <SCORE.INTER.CONST>
1

>  <SCORE.INTER.POLAR>
-1.29904

>  <SCORE.INTER.ROT>
3

>  <SCORE.INTER.SOLV>
14.5965

>  <SCORE.INTER.VDW>
-14.0644

>  <SCORE.INTER.norm>
-0.74335

>  <SCORE.INTRA>
0.102906

>  <SCORE.INTRA.DIHEDRAL>
0.094306

>  <SCORE.INTRA.DIHEDRAL.0>
0.00893466

>  <SCORE.INTRA.POLAR>
0

>  <SCORE.INTRA.POLAR.0>
0

>  <SCORE.INTRA.REPUL>
0

>  <SCORE.INTRA.REPUL.0>
0

>  <SCORE.INTRA.SOLV>
0.203028

>  <SCORE.INTRA.SOLV.lig_0>
-48.9722

>  <SCORE.INTRA.VDW>
-0.045761

>  <SCORE.INTRA.VDW.0>
-0.529409

>  <SCORE.INTRA.norm>
0.00643162

>  <SCORE.RESTR>
0

>  <SCORE.RESTR.CAVITY>
0

>  <SCORE.RESTR.norm>
0

>  <SCORE.SYSTEM>
0

>  <SCORE.SYSTEM.CONST>
0

>  <SCORE.SYSTEM.DIHEDRAL>
0

>  <SCORE.SYSTEM.SOLV>
0

>  <SCORE.SYSTEM.norm>
0

>  <SCORE.heavy>
16

>  <SCORE.norm>
-0.736919

>  <RMSD>
1.426

$$$$
ligand
 OpenBabel11021811433D
libRbt.so/2013.1/901 2013/11/27
 16 16  0  0  0  0  0  0  0  0999 V2000
   48.8802   12.9209   10.1647 P   0  0  2  0  0  0  0  0  0  0  0  0
   49.0414   12.6513    8.7143 O   0  0  0  0  0  0  0  0  0  0  0  0
   49.1040   14.4902   10.4422 O   0  5  0  0  0  0  0  0  0  0  0  0
   49.9836   12.0737   10.9760 O   0  0  0  0  0  0  0  0  0  0  0  0
   44.5712   12.0759   14.5872 C   0  0  2  0  0  0  0  0  0  0  0  0
   44.2336   10.7177   14.2523 O   0  0  0  0  0  0  0  0  0  0  0  0
   43.4971   13.0582   14.0538 C   0  0  2  0  0  0  0  0  0  0  0  0
   42.1820   12.7074   14.6031 O   0  0  0  0  0  0  0  0  0  0  0  0
   43.4582   12.9525   12.5177 C   0  0  1  0  0  0  0  0  0  0  0  0
   42.4769   13.8557   11.9946 O   0  0  0  0  0  0  0  0  0  0  0  0
   44.8472   13.3239   11.9753 C   0  0  2  0  0  0  0  0  0  0  0  0
   44.8407   13.2214   10.5350 O   0  0  0  0  0  0  0  0  0  0  0  0
   45.8884   12.3371   12.5719 C   0  0  2  0  0  0  0  0  0  0  0  0
   45.8816   12.4261   14.0298 O   0  0  0  0  0  0  0  0  0  0  0  0
   47.2879   12.7232   12.0595 C   0  0  0  0  0  0  0  0  0  0  0  0
   47.3866   12.5037   10.6470 O   0  0  0  0  0  0  0  0  0  0  0  0
  1  2  1  6  0  0  0
  1  3  1  0  0  0  0
  1  4  2  0  0  0  0
  1 16  1  0  0  0  0
  5  6  1  6  0  0  0
  5  7  1  0  0  0  0
  5 14  1  0  0  0  0
  7  8  1  1  0  0  0
  7  9  1  0  0  0  0
  9 10  1  6  0  0  0
  9 11  1  0  0  0  0
 11 12  1  6  0  0  0
 11 13  1  0  0  0  0
 13 14  1  0  0  0  0
 13 15  1  6  0  0  0
 15 16  1  0  0  0  0
M  CHG  1   3  -1
M  END
>  <CHROM.1>
-66.83543348,-179.77621942,177.53114133,46.09690829,12.76275404,11.95821978
0.52300511,0.23974290,-1.08612260

>  <Name>
ligand

>  <RI>
0

>  <Rbt.Current_Directory>
/home/itssahil/PROJECTS/Mol_Feturizer/New_Systems/rnas/2HO7

>  <Rbt.Executable>
rbdock ($Id: //depot/dev/client3/rdock/2013.1/src/exe/rbdock.cxx#4 $)

>  <Rbt.Library>
libRbt.so (2013.1, Build901 2013/11/27)

>  <Rbt.Parameter_File>
/export/apps/rDock/src/rDock_2013.1_src/data/scripts/dock_solv.prm

>  <Rbt.Receptor>
prm/pocket_docking_2.prm

>  <SCORE>
-9.98354

>  <SCORE.INTER>
-10.6306

>  <SCORE.INTER.CONST>
1

>  <SCORE.INTER.POLAR>
-1.29904

>  <SCORE.INTER.ROT>
3

>  <SCORE.INTER.SOLV>
10.6751

>  <SCORE.INTER.VDW>
-11.9153

>  <SCORE.INTER.norm>
-0.664413

>  <SCORE.INTRA>
0.643967

>  <SCORE.INTRA.DIHEDRAL>
0.16953

>  <SCORE.INTRA.DIHEDRAL.0>
0.00893466

>  <SCORE.INTRA.POLAR>
0

>  <SCORE.INTRA.POLAR.0>
0

>  <SCORE.INTRA.REPUL>
0

>  <SCORE.INTRA.REPUL.0>
0

>  <SCORE.INTRA.SOLV>
1.13063

>  <SCORE.INTRA.SOLV.lig_0>
-48.9722

>  <SCORE.INTRA.VDW>
-0.00611115

>  <SCORE.INTRA.VDW.0>
-0.529409

>  <SCORE.INTRA.norm>
0.0402479

>  <SCORE.RESTR>
0.00310999

>  <SCORE.RESTR.CAVITY>
0.00310999

>  <SCORE.RESTR.norm>
0.000194374

>  <SCORE.SYSTEM>
0

>  <SCORE.SYSTEM.CONST>
0

>  <SCORE.SYSTEM.DIHEDRAL>
0

>  <SCORE.SYSTEM.SOLV>
0

>  <SCORE.SYSTEM.norm>
0

>  <SCORE.heavy>
16

>  <SCORE.norm>
-0.623971

>  <RMSD>
1.428

$$$$
ligand
 OpenBabel11021811433D
libRbt.so/2013.1/901 2013/11/27
 16 16  0  0  0  0  0  0  0  0999 V2000
   49.3992   13.1133   11.2975 P   0  0  2  0  0  0  0  0  0  0  0  0
   49.1277   12.8873    9.8562 O   0  0  0  0  0  0  0  0  0  0  0  0
   50.1718   14.5131   11.4802 O   0  5  0  0  0  0  0  0  0  0  0  0
   50.3279   11.9168   11.8447 O   0  0  0  0  0  0  0  0  0  0  0  0
   44.9140   12.0297   14.8100 C   0  0  2  0  0  0  0  0  0  0  0  0
   44.1531   10.8361   14.5510 O   0  0  0  0  0  0  0  0  0  0  0  0
   44.1006   13.2943   14.4327 C   0  0  2  0  0  0  0  0  0  0  0  0
   42.8388   13.3191   15.1819 O   0  0  0  0  0  0  0  0  0  0  0  0
   43.8017   13.2503   12.9224 C   0  0  1  0  0  0  0  0  0  0  0  0
   43.0549   14.4122   12.5422 O   0  0  0  0  0  0  0  0  0  0  0  0
   45.1404   13.2239   12.1683 C   0  0  2  0  0  0  0  0  0  0  0  0
   44.8876   13.1708   10.7477 O   0  0  0  0  0  0  0  0  0  0  0  0
   45.9310   11.9625   12.6132 C   0  0  2  0  0  0  0  0  0  0  0  0
   46.1700   12.0061   14.0534 O   0  0  0  0  0  0  0  0  0  0  0  0
   47.2884   11.9463   11.8870 C   0  0  0  0  0  0  0  0  0  0  0  0
   48.0038   13.1644   12.1268 O   0  0  0  0  0  0  0  0  0  0  0  0
  1  2  1  6  0  0  0
  1  3  1  0  0  0  0
  1  4  2  0  0  0  0
  1 16  1  0  0  0  0
  5  6  1  6  0  0  0
  5  7  1  0  0  0  0
  5 14  1  0  0  0  0
  7  8  1  1  0  0  0
  7  9  1  0  0  0  0
  9 10  1  6  0  0  0
  9 11  1  0  0  0  0
 11 12  1  6  0  0  0
 11 13  1  0  0  0  0
 13 14  1  0  0  0  0
 13 15  1  6  0  0  0
 15 16  1  0  0  0  0
M  CHG  1   3  -1
M  END
>  <CHROM.1>
55.51735823,-178.04192588,56.45326393,46.47050424,12.84338986,12.54010976
-0.38119414,-0.24301077,2.18873254

>  <Name>
ligand

>  <RI>
0

>  <Rbt.Current_Directory>
/home/itssahil/PROJECTS/Mol_Feturizer/New_Systems/rnas/2HO7

>  <Rbt.Executable>
rbdock ($Id: //depot/dev/client3/rdock/2013.1/src/exe/rbdock.cxx#4 $)

>  <Rbt.Library>
libRbt.so (2013.1, Build901 2013/11/27)

>  <Rbt.Parameter_File>
/export/apps/rDock/src/rDock_2013.1_src/data/scripts/dock_solv.prm

>  <Rbt.Receptor>
prm/pocket_docking_4.prm

>  <SCORE>
-11.7934

>  <SCORE.INTER>
-11.9098

>  <SCORE.INTER.CONST>
1

>  <SCORE.INTER.POLAR>
-1.29904

>  <SCORE.INTER.ROT>
3

>  <SCORE.INTER.SOLV>
14.5685

>  <SCORE.INTER.VDW>
-14.0659

>  <SCORE.INTER.norm>
-0.744362

>  <SCORE.INTRA>
0.116411

>  <SCORE.INTRA.DIHEDRAL>
0.103824

>  <SCORE.INTRA.DIHEDRAL.0>
0.00893466

>  <SCORE.INTRA.POLAR>
0

>  <SCORE.INTRA.POLAR.0>
0

>  <SCORE.INTRA.REPUL>
0

>  <SCORE.INTRA.REPUL.0>
0

>  <SCORE.INTRA.SOLV>
0.196778

>  <SCORE.INTRA.SOLV.lig_0>
-48.9722

>  <SCORE.INTRA.VDW>
-0.0338901

>  <SCORE.INTRA.VDW.0>
-0.529409

>  <SCORE.INTRA.norm>
0.00727566

>  <SCORE.RESTR>
0

>  <SCORE.RESTR.CAVITY>
0

>  <SCORE.RESTR.norm>
0

>  <SCORE.SYSTEM>
0

>  <SCORE.SYSTEM.CONST>
0

>  <SCORE.SYSTEM.DIHEDRAL>
0

>  <SCORE.SYSTEM.SOLV>
0

>  <SCORE.SYSTEM.norm>
0

>  <SCORE.heavy>
16

>  <SCORE.norm>
-0.737087

>  <RMSD>
1.428

$$$$
ligand
 OpenBabel11021811433D
libRbt.so/2013.1/901 2013/11/27
 16 16  0  0  0  0  0  0  0  0999 V2000
   49.3907   13.1295   11.2764 P   0  0  2  0  0  0  0  0  0  0  0  0
   49.1250   12.9124    9.8326 O   0  0  0  0  0  0  0  0  0  0  0  0
   50.1710   14.5235   11.4701 O   0  5  0  0  0  0  0  0  0  0  0  0
   50.3090   11.9244   11.8223 O   0  0  0  0  0  0  0  0  0  0  0  0
   44.9115   12.0308   14.8033 C   0  0  2  0  0  0  0  0  0  0  0  0
   44.1468   10.8413   14.5369 O   0  0  0  0  0  0  0  0  0  0  0  0
   44.1027   13.3002   14.4325 C   0  0  2  0  0  0  0  0  0  0  0  0
   42.8403   13.3251   15.1808 O   0  0  0  0  0  0  0  0  0  0  0  0
   43.8049   13.2658   12.9217 C   0  0  1  0  0  0  0  0  0  0  0  0
   43.0623   14.4324   12.5475 O   0  0  0  0  0  0  0  0  0  0  0  0
   45.1441   13.2392   12.1686 C   0  0  2  0  0  0  0  0  0  0  0  0
   44.8922   13.1950   10.7475 O   0  0  0  0  0  0  0  0  0  0  0  0
   45.9301   11.9726   12.6070 C   0  0  2  0  0  0  0  0  0  0  0  0
   46.1680   12.0072   14.0476 O   0  0  0  0  0  0  0  0  0  0  0  0
   47.2879   11.9560   11.8818 C   0  0  0  0  0  0  0  0  0  0  0  0
   47.9914   13.1852   12.0989 O   0  0  0  0  0  0  0  0  0  0  0  0
  1  2  1  6  0  0  0
  1  3  1  0  0  0  0
  1  4  2  0  0  0  0
  1 16  1  0  0  0  0
  5  6  1  6  0  0  0
  5  7  1  0  0  0  0
  5 14  1  0  0  0  0
  7  8  1  1  0  0  0
  7  9  1  0  0  0  0
  9 10  1  6  0  0  0
  9 11  1  0  0  0  0
 11 12  1  6  0  0  0
 11 13  1  0  0  0  0
 13 14  1  0  0  0  0
 13 15  1  6  0  0  0
 15 16  1  0  0  0  0
M  CHG  1   3  -1
M  END
>  <CHROM.1>
53.92590673,-178.28179927,58.18157590,46.46786574,12.85594855,12.53026427
-0.38310883,-0.24783220,2.19759485

>  <Name>
ligand

>  <RI>
0

>  <Rbt.Current_Directory>
/home/itssahil/PROJECTS/Mol_Feturizer/New_Systems/rnas/2HO7

>  <Rbt.Executable>
rbdock ($Id: //depot/dev/client3/rdock/2013.1/src/exe/rbdock.cxx#4 $)

>  <Rbt.Library>
libRbt.so (2013.1, Build901 2013/11/27)

>  <Rbt.Parameter_File>
/export/apps/rDock/src/rDock_2013.1_src/data/scripts/dock_solv.prm

>  <Rbt.Receptor>
prm/pocket_docking_6.prm

>  <SCORE>
-11.7929

>  <SCORE.INTER>
-11.9426

>  <SCORE.INTER.CONST>
1

>  <SCORE.INTER.POLAR>
-1.29904

>  <SCORE.INTER.ROT>
3

>  <SCORE.INTER.SOLV>
14.4598

>  <SCORE.INTER.VDW>
-14.0516

>  <SCORE.INTER.norm>
-0.746415

>  <SCORE.INTRA>
0.149687

>  <SCORE.INTRA.DIHEDRAL>
0.144256

>  <SCORE.INTRA.DIHEDRAL.0>
0.00893466

>  <SCORE.INTRA.POLAR>
0

>  <SCORE.INTRA.POLAR.0>
0

>  <SCORE.INTRA.REPUL>
0

>  <SCORE.INTRA.REPUL.0>
0

>  <SCORE.INTRA.SOLV>
0.215279

>  <SCORE.INTRA.SOLV.lig_0>
-48.9722

>  <SCORE.INTRA.VDW>
-0.0300797

>  <SCORE.INTRA.VDW.0>
-0.529409

>  <SCORE.INTRA.norm>
0.00935547

>  <SCORE.RESTR>
0

>  <SCORE.RESTR.CAVITY>
0

>  <SCORE.RESTR.norm>
0

>  <SCORE.SYSTEM>
0

>  <SCORE.SYSTEM.CONST>
0

>  <SCORE.SYSTEM.DIHEDRAL>
0

>  <SCORE.SYSTEM.SOLV>
0

>  <SCORE.SYSTEM.norm>
0

>  <SCORE.heavy>
16

>  <SCORE.norm>
-0.737059

>  <RMSD>
1.431

$$$$
ligand
 OpenBabel11021811433D
libRbt.so/2013.1/901 2013/11/27
 16 16  0  0  0  0  0  0  0  0999 V2000
   49.4063   13.1043   11.3038 P   0  0  2  0  0  0  0  0  0  0  0  0
   49.1768   12.8812    9.8547 O   0  0  0  0  0  0  0  0  0  0  0  0
   50.1973   14.4904   11.5100 O   0  5  0  0  0  0  0  0  0  0  0  0
   50.2956   11.8922   11.8813 O   0  0  0  0  0  0  0  0  0  0  0  0
   44.9169   12.0312   14.8117 C   0  0  2  0  0  0  0  0  0  0  0  0
   44.1536   10.8392   14.5523 O   0  0  0  0  0  0  0  0  0  0  0  0
   44.1056   13.2976   14.4360 C   0  0  2  0  0  0  0  0  0  0  0  0
   42.8444   13.3242   15.1862 O   0  0  0  0  0  0  0  0  0  0  0  0
   43.8056   13.2554   12.9259 C   0  0  1  0  0  0  0  0  0  0  0  0
   43.0607   14.4191   12.5472 O   0  0  0  0  0  0  0  0  0  0  0  0
   45.1437   13.2271   12.1708 C   0  0  2  0  0  0  0  0  0  0  0  0
   44.8897   13.1756   10.7504 O   0  0  0  0  0  0  0  0  0  0  0  0
   45.9322   11.9639   12.6142 C   0  0  2  0  0  0  0  0  0  0  0  0
   46.1723   12.0058   14.0542 O   0  0  0  0  0  0  0  0  0  0  0  0
   47.2890   11.9457   11.8869 C   0  0  0  0  0  0  0  0  0  0  0  0
   47.9862   13.1812   12.0881 O   0  0  0  0  0  0  0  0  0  0  0  0
  1  2  1  6  0  0  0
  1  3  1  0  0  0  0
  1  4  2  0  0  0  0
  1 16  1  0  0  0  0
  5  6  1  6  0  0  0
  5  7  1  0  0  0  0
  5 14  1  0  0  0  0
  7  8  1  1  0  0  0
  7  9  1  0  0  0  0
  9 10  1  6  0  0  0
  9 11  1  0  0  0  0
 11 12  1  6  0  0  0
 11 13  1  0  0  0  0
 13 14  1  0  0  0  0
 13 15  1  6  0  0  0
 15 16  1  0  0  0  0
M  CHG  1   3  -1
M  END
>  <CHROM.1>
53.45959229,179.89334495,59.59648886,46.47482500,12.84195040,12.54401932
-0.37904667,-0.24427803,2.18860272

>  <Name>
ligand

>  <RI>
0

>  <Rbt.Current_Directory>
/home/itssahil/PROJECTS/Mol_Feturizer/New_Systems/rnas/2HO7

>  <Rbt.Executable>
rbdock ($Id: //depot/dev/client3/rdock/2013.1/src/exe/rbdock.cxx#4 $)

>  <Rbt.Library>
libRbt.so (2013.1, Build901 2013/11/27)

>  <Rbt.Parameter_File>
/export/apps/rDock/src/rDock_2013.1_src/data/scripts/dock_solv.prm

>  <Rbt.Receptor>
prm/pocket_docking_6.prm

>  <SCORE>
-11.7427

>  <SCORE.INTER>
-11.905

>  <SCORE.INTER.CONST>
1

>  <SCORE.INTER.POLAR>
-1.29616

>  <SCORE.INTER.ROT>
3

>  <SCORE.INTER.SOLV>
14.6662

>  <SCORE.INTER.VDW>
-14.1048

>  <SCORE.INTER.norm>
-0.74406

>  <SCORE.INTRA>
0.162263

>  <SCORE.INTRA.DIHEDRAL>
0.145393

>  <SCORE.INTRA.DIHEDRAL.0>
0.00893466

>  <SCORE.INTRA.POLAR>
0

>  <SCORE.INTRA.POLAR.0>
0

>  <SCORE.INTRA.REPUL>
0

>  <SCORE.INTRA.REPUL.0>
0

>  <SCORE.INTRA.SOLV>
0.236338

>  <SCORE.INTRA.SOLV.lig_0>
-48.9722

>  <SCORE.INTRA.VDW>
-0.0286023

>  <SCORE.INTRA.VDW.0>
-0.529409

>  <SCORE.INTRA.norm>
0.0101414

>  <SCORE.RESTR>
0

>  <SCORE.RESTR.CAVITY>
0

>  <SCORE.RESTR.norm>
0

>  <SCORE.SYSTEM>
0

>  <SCORE.SYSTEM.CONST>
0

>  <SCORE.SYSTEM.DIHEDRAL>
0

>  <SCORE.SYSTEM.SOLV>
0

>  <SCORE.SYSTEM.norm>
0

>  <SCORE.heavy>
16

>  <SCORE.norm>
-0.733918

>  <RMSD>
1.431

$$$$
ligand
 OpenBabel11021811433D
libRbt.so/2013.1/901 2013/11/27
 16 16  0  0  0  0  0  0  0  0999 V2000
   49.3403   13.2322   11.0879 P   0  0  2  0  0  0  0  0  0  0  0  0
   48.9091   13.0235    9.6834 O   0  0  0  0  0  0  0  0  0  0  0  0
   50.0633   14.6643   11.2152 O   0  5  0  0  0  0  0  0  0  0  0  0
   50.3823   12.0717   11.4890 O   0  0  0  0  0  0  0  0  0  0  0  0
   44.9646   12.0242   14.8043 C   0  0  2  0  0  0  0  0  0  0  0  0
   44.2269   10.8155   14.5484 O   0  0  0  0  0  0  0  0  0  0  0  0
   44.1431   13.2702   14.3851 C   0  0  2  0  0  0  0  0  0  0  0  0
   42.8632   13.2900   15.1031 O   0  0  0  0  0  0  0  0  0  0  0  0
   43.8817   13.1955   12.8690 C   0  0  1  0  0  0  0  0  0  0  0  0
   43.1282   14.3398   12.4503 O   0  0  0  0  0  0  0  0  0  0  0  0
   45.2385   13.1752   12.1480 C   0  0  2  0  0  0  0  0  0  0  0  0
   45.0211   13.0936   10.7229 O   0  0  0  0  0  0  0  0  0  0  0  0
   46.0355   11.9332   12.6342 C   0  0  2  0  0  0  0  0  0  0  0  0
   46.2388   12.0054   14.0787 O   0  0  0  0  0  0  0  0  0  0  0  0
   47.4102   11.9238   11.9412 C   0  0  0  0  0  0  0  0  0  0  0  0
   48.0532   13.1970   12.0777 O   0  0  0  0  0  0  0  0  0  0  0  0
  1  2  1  6  0  0  0
  1  3  1  0  0  0  0
  1  4  2  0  0  0  0
  1 16  1  0  0  0  0
  5  6  1  6  0  0  0
  5  7  1  0  0  0  0
  5 14  1  0  0  0  0
  7  8  1  1  0  0  0
  7  9  1  0  0  0  0
  9 10  1  6  0  0  0
  9 11  1  0  0  0  0
 11 12  1  6  0  0  0
 11 13  1  0  0  0  0
 13 14  1  0  0  0  0
 13 15  1  6  0  0  0
 15 16  1  0  0  0  0
M  CHG  1   3  -1
M  END
>  <CHROM.1>
50.48382242,-168.63107939,59.33080613,46.49877199,12.86564227,12.44817884
0.42794424,0.25060914,-0.93792683

>  <Name>
ligand

>  <RI>
0

>  <Rbt.Current_Directory>
/home/itssahil/PROJECTS/Mol_Feturizer/New_Systems/rnas/2HO7

>  <Rbt.Executable>
rbdock ($Id: //depot/dev/client3/rdock/2013.1/src/exe/rbdock.cxx#4 $)

>  <Rbt.Library>
libRbt.so (2013.1, Build901 2013/11/27)

>  <Rbt.Parameter_File>
/export/apps/rDock/src/rDock_2013.1_src/data/scripts/dock_solv.prm

>  <Rbt.Receptor>
prm/pocket_docking_5.prm

>  <SCORE>
-11.4184

>  <SCORE.INTER>
-12.0176

>  <SCORE.INTER.CONST>
1

>  <SCORE.INTER.POLAR>
-1.29904

>  <SCORE.INTER.ROT>
3

>  <SCORE.INTER.SOLV>
13.3287

>  <SCORE.INTER.VDW>
-13.7245

>  <SCORE.INTER.norm>
-0.751103

>  <SCORE.INTRA>
0.599262

>  <SCORE.INTRA.DIHEDRAL>
0.932957

>  <SCORE.INTRA.DIHEDRAL.0>
0.00893466

>  <SCORE.INTRA.POLAR>
0

>  <SCORE.INTRA.POLAR.0>
0

>  <SCORE.INTRA.REPUL>
0

>  <SCORE.INTRA.REPUL.0>
0

>  <SCORE.INTRA.SOLV>
0.323337

>  <SCORE.INTRA.SOLV.lig_0>
-48.9722

>  <SCORE.INTRA.VDW>
-0.0288846

>  <SCORE.INTRA.VDW.0>
-0.529409

>  <SCORE.INTRA.norm>
0.0374539

>  <SCORE.RESTR>
0

>  <SCORE.RESTR.CAVITY>
0

>  <SCORE.RESTR.norm>
0

>  <SCORE.SYSTEM>
0

>  <SCORE.SYSTEM.CONST>
0

>  <SCORE.SYSTEM.DIHEDRAL>
0

>  <SCORE.SYSTEM.SOLV>
0

>  <SCORE.SYSTEM.norm>
0

>  <SCORE.heavy>
16

>  <SCORE.norm>
-0.713649

>  <RMSD>
1.433

$$$$
ligand
 OpenBabel11021811433D
libRbt.so/2013.1/901 2013/11/27
 16 16  0  0  0  0  0  0  0  0999 V2000
   49.3793   13.1249   11.2523 P   0  0  2  0  0  0  0  0  0  0  0  0
   49.1120   12.8905    9.8115 O   0  0  0  0  0  0  0  0  0  0  0  0
   50.1566   14.5230   11.4285 O   0  5  0  0  0  0  0  0  0  0  0  0
   50.3015   11.9285   11.8106 O   0  0  0  0  0  0  0  0  0  0  0  0
   44.9194   12.0306   14.7950 C   0  0  2  0  0  0  0  0  0  0  0  0
   44.1475   10.8458   14.5285 O   0  0  0  0  0  0  0  0  0  0  0  0
   44.1118   13.3055   14.4408 C   0  0  2  0  0  0  0  0  0  0  0  0
   42.8572   13.3302   15.2019 O   0  0  0  0  0  0  0  0  0  0  0  0
   43.7988   13.2823   12.9328 C   0  0  1  0  0  0  0  0  0  0  0  0
   43.0570   14.4542   12.5739 O   0  0  0  0  0  0  0  0  0  0  0  0
   45.1302   13.2555   12.1661 C   0  0  2  0  0  0  0  0  0  0  0  0
   44.8640   13.2217   10.7474 O   0  0  0  0  0  0  0  0  0  0  0  0
   45.9156   11.9831   12.5882 C   0  0  2  0  0  0  0  0  0  0  0  0
   46.1682   12.0072   14.0266 O   0  0  0  0  0  0  0  0  0  0  0  0
   47.2661   11.9661   11.8493 C   0  0  0  0  0  0  0  0  0  0  0  0
   47.9812   13.1868   12.0763 O   0  0  0  0  0  0  0  0  0  0  0  0
  1  2  1  6  0  0  0
  1  3  1  0  0  0  0
  1  4  2  0  0  0  0
  1 16  1  0  0  0  0
  5  6  1  6  0  0  0
  5  7  1  0  0  0  0
  5 14  1  0  0  0  0
  7  8  1  1  0  0  0
  7  9  1  0  0  0  0
  9 10  1  6  0  0  0
  9 11  1  0  0  0  0
 11 12  1  6  0  0  0
 11 13  1  0  0  0  0
 13 14  1  0  0  0  0
 13 15  1  6  0  0  0
 15 16  1  0  0  0  0
M  CHG  1   3  -1
M  END
>  <CHROM.1>
54.39041594,-178.90046612,56.84981759,46.46054491,12.86105174,12.52002558
-0.38490015,-0.25452765,2.20028886

>  <Name>
ligand

>  <RI>
0

>  <Rbt.Current_Directory>
/home/itssahil/PROJECTS/Mol_Feturizer/New_Systems/rnas/2HO7

>  <Rbt.Executable>
rbdock ($Id: //depot/dev/client3/rdock/2013.1/src/exe/rbdock.cxx#4 $)

>  <Rbt.Library>
libRbt.so (2013.1, Build901 2013/11/27)

>  <Rbt.Parameter_File>
/export/apps/rDock/src/rDock_2013.1_src/data/scripts/dock_solv.prm

>  <Rbt.Receptor>
prm/pocket_docking_6.prm

>  <SCORE>
-11.7781

>  <SCORE.INTER>
-11.9217

>  <SCORE.INTER.CONST>
1

>  <SCORE.INTER.POLAR>
-1.29904

>  <SCORE.INTER.ROT>
3

>  <SCORE.INTER.SOLV>
14.3519

>  <SCORE.INTER.VDW>
-14.0016

>  <SCORE.INTER.norm>
-0.745104

>  <SCORE.INTRA>
0.143611

>  <SCORE.INTRA.DIHEDRAL>
0.127264

>  <SCORE.INTRA.DIHEDRAL.0>
0.00893466

>  <SCORE.INTRA.POLAR>
0

>  <SCORE.INTRA.POLAR.0>
0

>  <SCORE.INTRA.REPUL>
0

>  <SCORE.INTRA.REPUL.0>
0

>  <SCORE.INTRA.SOLV>
0.204106

>  <SCORE.INTRA.SOLV.lig_0>
-48.9722

>  <SCORE.INTRA.VDW>
-0.0220742

>  <SCORE.INTRA.VDW.0>
-0.529409

>  <SCORE.INTRA.norm>
0.00897568

>  <SCORE.RESTR>
0

>  <SCORE.RESTR.CAVITY>
0

>  <SCORE.RESTR.norm>
0

>  <SCORE.SYSTEM>
0

>  <SCORE.SYSTEM.CONST>
0

>  <SCORE.SYSTEM.DIHEDRAL>
0

>  <SCORE.SYSTEM.SOLV>
0

>  <SCORE.SYSTEM.norm>
0

>  <SCORE.heavy>
16

>  <SCORE.norm>
-0.736128

>  <RMSD>
1.435

$$$$
ligand
 OpenBabel11021811433D
libRbt.so/2013.1/901 2013/11/27
 16 16  0  0  0  0  0  0  0  0999 V2000
   49.3119   13.1627   11.1980 P   0  0  2  0  0  0  0  0  0  0  0  0
   49.0023   12.9478    9.7626 O   0  0  0  0  0  0  0  0  0  0  0  0
   50.0826   14.5646   11.3719 O   0  5  0  0  0  0  0  0  0  0  0  0
   50.2607   11.9660   11.7093 O   0  0  0  0  0  0  0  0  0  0  0  0
   44.9048   12.0350   14.7938 C   0  0  2  0  0  0  0  0  0  0  0  0
   44.1367   10.8459   14.5353 O   0  0  0  0  0  0  0  0  0  0  0  0
   44.0850   13.3056   14.4525 C   0  0  2  0  0  0  0  0  0  0  0  0
   42.8403   13.3213   15.2302 O   0  0  0  0  0  0  0  0  0  0  0  0
   43.7522   13.2830   12.9488 C   0  0  1  0  0  0  0  0  0  0  0  0
   42.9986   14.4510   12.6018 O   0  0  0  0  0  0  0  0  0  0  0  0
   45.0735   13.2657   12.1646 C   0  0  2  0  0  0  0  0  0  0  0  0
   44.7888   13.2327   10.7494 O   0  0  0  0  0  0  0  0  0  0  0  0
   45.8722   11.9974   12.5740 C   0  0  2  0  0  0  0  0  0  0  0  0
   46.1435   12.0205   14.0090 O   0  0  0  0  0  0  0  0  0  0  0  0
   47.2128   11.9899   11.8173 C   0  0  0  0  0  0  0  0  0  0  0  0
   47.9393   13.1998   12.0652 O   0  0  0  0  0  0  0  0  0  0  0  0
  1  2  1  6  0  0  0
  1  3  1  0  0  0  0
  1  4  2  0  0  0  0
  1 16  1  0  0  0  0
  5  6  1  6  0  0  0
  5  7  1  0  0  0  0
  5 14  1  0  0  0  0
  7  8  1  1  0  0  0
  7  9  1  0  0  0  0
  9 10  1  6  0  0  0
  9 11  1  0  0  0  0
 11 12  1  6  0  0  0
 11 13  1  0  0  0  0
 13 14  1  0  0  0  0
 13 15  1  6  0  0  0
 15 16  1  0  0  0  0
M  CHG  1   3  -1
M  END
>  <CHROM.1>
55.90984749,-177.75247808,55.52700005,46.41126152,12.87865988,12.50146544
-0.39916193,-0.25697594,2.19818285

>  <Name>
ligand

>  <RI>
0

>  <Rbt.Current_Directory>
/home/itssahil/PROJECTS/Mol_Feturizer/New_Systems/rnas/2HO7

>  <Rbt.Executable>
rbdock ($Id: //depot/dev/client3/rdock/2013.1/src/exe/rbdock.cxx#4 $)

>  <Rbt.Library>
libRbt.so (2013.1, Build901 2013/11/27)

>  <Rbt.Parameter_File>
/export/apps/rDock/src/rDock_2013.1_src/data/scripts/dock_solv.prm

>  <Rbt.Receptor>
prm/pocket_docking_3.prm

>  <SCORE>
-11.7391

>  <SCORE.INTER>
-11.8588

>  <SCORE.INTER.CONST>
1

>  <SCORE.INTER.POLAR>
-1.29904

>  <SCORE.INTER.ROT>
3

>  <SCORE.INTER.SOLV>
14.1122

>  <SCORE.INTER.VDW>
-13.8798

>  <SCORE.INTER.norm>
-0.741172

>  <SCORE.INTRA>
0.11966

>  <SCORE.INTRA.DIHEDRAL>
0.109925

>  <SCORE.INTRA.DIHEDRAL.0>
0.00893466

>  <SCORE.INTRA.POLAR>
0

>  <SCORE.INTRA.POLAR.0>
0

>  <SCORE.INTRA.REPUL>
0

>  <SCORE.INTRA.REPUL.0>
0

>  <SCORE.INTRA.SOLV>
0.186623

>  <SCORE.INTRA.SOLV.lig_0>
-48.9722

>  <SCORE.INTRA.VDW>
-0.0286147

>  <SCORE.INTRA.VDW.0>
-0.529409

>  <SCORE.INTRA.norm>
0.00747873

>  <SCORE.RESTR>
0

>  <SCORE.RESTR.CAVITY>
0

>  <SCORE.RESTR.norm>
0

>  <SCORE.SYSTEM>
0

>  <SCORE.SYSTEM.CONST>
0

>  <SCORE.SYSTEM.DIHEDRAL>
0

>  <SCORE.SYSTEM.SOLV>
0

>  <SCORE.SYSTEM.norm>
0

>  <SCORE.heavy>
16

>  <SCORE.norm>
-0.733694

>  <RMSD>
1.437

$$$$
ligand
 OpenBabel11021811433D
libRbt.so/2013.1/901 2013/11/27
 16 16  0  0  0  0  0  0  0  0999 V2000
   48.9976   12.8976   10.3150 P   0  0  2  0  0  0  0  0  0  0  0  0
   50.0091   12.0781   11.0275 O   0  0  0  0  0  0  0  0  0  0  0  0
   49.1485   12.6685    8.7293 O   0  5  0  0  0  0  0  0  0  0  0  0
   49.2540   14.4506   10.6558 O   0  0  0  0  0  0  0  0  0  0  0  0
   44.5670   12.1764   14.6401 C   0  0  2  0  0  0  0  0  0  0  0  0
   44.1553   10.8438   14.2862 O   0  0  0  0  0  0  0  0  0  0  0  0
   43.5694   13.2263   14.0872 C   0  0  2  0  0  0  0  0  0  0  0  0
   42.2215   12.9539   14.6001 O   0  0  0  0  0  0  0  0  0  0  0  0
   43.5638   13.1326   12.5498 C   0  0  1  0  0  0  0  0  0  0  0  0
   42.6537   14.0978   12.0089 O   0  0  0  0  0  0  0  0  0  0  0  0
   44.9865   13.4211   12.0457 C   0  0  2  0  0  0  0  0  0  0  0  0
   45.0110   13.3281   10.6050 O   0  0  0  0  0  0  0  0  0  0  0  0
   45.9494   12.3684   12.6610 C   0  0  2  0  0  0  0  0  0  0  0  0
   45.9104   12.4487   14.1188 O   0  0  0  0  0  0  0  0  0  0  0  0
   47.3827   12.6707   12.1873 C   0  0  0  0  0  0  0  0  0  0  0  0
   47.5022   12.4619   10.7748 O   0  0  0  0  0  0  0  0  0  0  0  0
  1  2  1  1  0  0  0
  1  3  1  0  0  0  0
  1  4  2  0  0  0  0
  1 16  1  0  0  0  0
  5  6  1  6  0  0  0
  5  7  1  0  0  0  0
  5 14  1  0  0  0  0
  7  8  1  1  0  0  0
  7  9  1  0  0  0  0
  9 10  1  6  0  0  0
  9 11  1  0  0  0  0
 11 12  1  6  0  0  0
 11 13  1  0  0  0  0
 13 14  1  0  0  0  0
 13 15  1  6  0  0  0
 15 16  1  0  0  0  0
M  CHG  1   3  -1
M  END
>  <CHROM.1>
-66.48609657,175.94166045,60.03946317,46.18191160,12.82967626,12.03638003
-0.49532498,-0.26799894,2.07052216

>  <Name>
ligand

>  <RI>
0

>  <Rbt.Current_Directory>
/home/itssahil/PROJECTS/Mol_Feturizer/New_Systems/rnas/2HO7

>  <Rbt.Executable>
rbdock ($Id: //depot/dev/client3/rdock/2013.1/src/exe/rbdock.cxx#4 $)

>  <Rbt.Library>
libRbt.so (2013.1, Build901 2013/11/27)

>  <Rbt.Parameter_File>
/export/apps/rDock/src/rDock_2013.1_src/data/scripts/dock_solv.prm

>  <Rbt.Receptor>
prm/pocket_docking_2.prm

>  <SCORE>
-8.8889

>  <SCORE.INTER>
-9.35728

>  <SCORE.INTER.CONST>
1

>  <SCORE.INTER.POLAR>
-1.03923

>  <SCORE.INTER.ROT>
3

>  <SCORE.INTER.SOLV>
11.5706

>  <SCORE.INTER.VDW>
-12.231

>  <SCORE.INTER.norm>
-0.58483

>  <SCORE.INTRA>
0.468278

>  <SCORE.INTRA.DIHEDRAL>
0.223487

>  <SCORE.INTRA.DIHEDRAL.0>
0.00893466

>  <SCORE.INTRA.POLAR>
0

>  <SCORE.INTRA.POLAR.0>
0

>  <SCORE.INTRA.REPUL>
0

>  <SCORE.INTRA.REPUL.0>
0

>  <SCORE.INTRA.SOLV>
0.570828

>  <SCORE.INTRA.SOLV.lig_0>
-48.9722

>  <SCORE.INTRA.VDW>
0.0711202

>  <SCORE.INTRA.VDW.0>
-0.529409

>  <SCORE.INTRA.norm>
0.0292674

>  <SCORE.RESTR>
0.000110682

>  <SCORE.RESTR.CAVITY>
0.000110682

>  <SCORE.RESTR.norm>
6.9176e-06

>  <SCORE.SYSTEM>
0

>  <SCORE.SYSTEM.CONST>
0

>  <SCORE.SYSTEM.DIHEDRAL>
0

>  <SCORE.SYSTEM.SOLV>
0

>  <SCORE.SYSTEM.norm>
0

>  <SCORE.heavy>
16

>  <SCORE.norm>
-0.555556

>  <RMSD>
1.440

$$$$
ligand
 OpenBabel11021811433D
libRbt.so/2013.1/901 2013/11/27
 16 16  0  0  0  0  0  0  0  0999 V2000
   49.6341   13.0328   11.5217 P   0  0  2  0  0  0  0  0  0  0  0  0
   49.8608   12.0156   10.4653 O   0  0  0  0  0  0  0  0  0  0  0  0
   49.9237   14.4974   10.9209 O   0  5  0  0  0  0  0  0  0  0  0  0
   50.6454   12.7481   12.7423 O   0  0  0  0  0  0  0  0  0  0  0  0
   44.9253   12.1318   14.7320 C   0  0  2  0  0  0  0  0  0  0  0  0
   44.5606   10.7653   14.9975 O   0  0  0  0  0  0  0  0  0  0  0  0
   43.9078   12.7966   13.7698 C   0  0  2  0  0  0  0  0  0  0  0  0
   42.5589   12.7293   14.3443 O   0  0  0  0  0  0  0  0  0  0  0  0
   43.9350   12.0378   12.4297 C   0  0  1  0  0  0  0  0  0  0  0  0
   43.0072   12.6349   11.5159 O   0  0  0  0  0  0  0  0  0  0  0  0
   45.3580   12.1260   11.8565 C   0  0  2  0  0  0  0  0  0  0  0  0
   45.4134   11.4112   10.6032 O   0  0  0  0  0  0  0  0  0  0  0  0
   46.3398   11.4848   12.8759 C   0  0  2  0  0  0  0  0  0  0  0  0
   46.2699   12.1951   14.1501 O   0  0  0  0  0  0  0  0  0  0  0  0
   47.7723   11.5991   12.3239 C   0  0  0  0  0  0  0  0  0  0  0  0
   48.0964   12.9657   12.0400 O   0  0  0  0  0  0  0  0  0  0  0  0
  1  2  1  6  0  0  0
  1  3  1  0  0  0  0
  1  4  2  0  0  0  0
  1 16  1  0  0  0  0
  5  6  1  6  0  0  0
  5  7  1  0  0  0  0
  5 14  1  0  0  0  0
  7  8  1  1  0  0  0
  7  9  1  0  0  0  0
  9 10  1  6  0  0  0
  9 11  1  0  0  0  0
 11 12  1  6  0  0  0
 11 13  1  0  0  0  0
 13 14  1  0  0  0  0
 13 15  1  6  0  0  0
 15 16  1  0  0  0  0
M  CHG  1   3  -1
M  END
>  <CHROM.1>
56.09915144,177.66163390,48.77978336,46.65626822,12.38285375,12.48776945
-0.34320083,0.09550501,1.71387780

>  <Name>
ligand

>  <RI>
0

>  <Rbt.Current_Directory>
/home/itssahil/PROJECTS/Mol_Feturizer/New_Systems/rnas/2HO7

>  <Rbt.Executable>
rbdock ($Id: //depot/dev/client3/rdock/2013.1/src/exe/rbdock.cxx#4 $)

>  <Rbt.Library>
libRbt.so (2013.1, Build901 2013/11/27)

>  <Rbt.Parameter_File>
/export/apps/rDock/src/rDock_2013.1_src/data/scripts/dock_solv.prm

>  <Rbt.Receptor>
prm/pocket_docking_5.prm

>  <SCORE>
-8.9478

>  <SCORE.INTER>
-9.2524

>  <SCORE.INTER.CONST>
1

>  <SCORE.INTER.POLAR>
-1.03923

>  <SCORE.INTER.ROT>
3

>  <SCORE.INTER.SOLV>
15.3855

>  <SCORE.INTER.VDW>
-13.4327

>  <SCORE.INTER.norm>
-0.578275

>  <SCORE.INTRA>
0.304594

>  <SCORE.INTRA.DIHEDRAL>
0.275529

>  <SCORE.INTRA.DIHEDRAL.0>
0.00893466

>  <SCORE.INTRA.POLAR>
0

>  <SCORE.INTRA.POLAR.0>
0

>  <SCORE.INTRA.REPUL>
0

>  <SCORE.INTRA.REPUL.0>
0

>  <SCORE.INTRA.SOLV>
0.140696

>  <SCORE.INTRA.SOLV.lig_0>
-48.9722

>  <SCORE.INTRA.VDW>
0.0964818

>  <SCORE.INTRA.VDW.0>
-0.529409

>  <SCORE.INTRA.norm>
0.0190371

>  <SCORE.RESTR>
0

>  <SCORE.RESTR.CAVITY>
0

>  <SCORE.RESTR.norm>
0

>  <SCORE.SYSTEM>
0

>  <SCORE.SYSTEM.CONST>
0

>  <SCORE.SYSTEM.DIHEDRAL>
0

>  <SCORE.SYSTEM.SOLV>
0

>  <SCORE.SYSTEM.norm>
0

>  <SCORE.heavy>
16

>  <SCORE.norm>
-0.559238

>  <RMSD>
1.441

$$$$
ligand
 OpenBabel11021811433D
libRbt.so/2013.1/901 2013/11/27
 16 16  0  0  0  0  0  0  0  0999 V2000
   49.2607   13.1491   11.0791 P   0  0  2  0  0  0  0  0  0  0  0  0
   48.9320   12.8706    9.6590 O   0  0  0  0  0  0  0  0  0  0  0  0
   50.0050   14.5720   11.1837 O   0  5  0  0  0  0  0  0  0  0  0  0
   50.2422   11.9931   11.6212 O   0  0  0  0  0  0  0  0  0  0  0  0
   44.9482   12.1073   14.8234 C   0  0  2  0  0  0  0  0  0  0  0  0
   44.2226   10.8757   14.6582 O   0  0  0  0  0  0  0  0  0  0  0  0
   44.0783   13.3198   14.4038 C   0  0  2  0  0  0  0  0  0  0  0  0
   42.8414   13.3447   15.1935 O   0  0  0  0  0  0  0  0  0  0  0  0
   43.7323   13.1791   12.9096 C   0  0  1  0  0  0  0  0  0  0  0  0
   42.9323   14.2913   12.4906 O   0  0  0  0  0  0  0  0  0  0  0  0
   45.0458   13.1549   12.1125 C   0  0  2  0  0  0  0  0  0  0  0  0
   44.7490   13.0118   10.7067 O   0  0  0  0  0  0  0  0  0  0  0  0
   45.8951   11.9487   12.6001 C   0  0  2  0  0  0  0  0  0  0  0  0
   46.1791   12.0829   14.0265 O   0  0  0  0  0  0  0  0  0  0  0  0
   47.2279   11.9369   11.8296 C   0  0  0  0  0  0  0  0  0  0  0  0
   47.9020   13.1936   11.9677 O   0  0  0  0  0  0  0  0  0  0  0  0
  1  2  1  6  0  0  0
  1  3  1  0  0  0  0
  1  4  2  0  0  0  0
  1 16  1  0  0  0  0
  5  6  1  6  0  0  0
  5  7  1  0  0  0  0
  5 14  1  0  0  0  0
  7  8  1  1  0  0  0
  7  9  1  0  0  0  0
  9 10  1  6  0  0  0
  9 11  1  0  0  0  0
 11 12  1  6  0  0  0
 11 13  1  0  0  0  0
 13 14  1  0  0  0  0
 13 15  1  6  0  0  0
 15 16  1  0  0  0  0
M  CHG  1   3  -1
M  END
>  <CHROM.1>
55.09646173,-177.28201869,58.16193481,46.39467940,12.84525016,12.45010971
-0.43454808,-0.23495210,2.12295982

>  <Name>
ligand

>  <RI>
0

>  <Rbt.Current_Directory>
/home/itssahil/PROJECTS/Mol_Feturizer/New_Systems/rnas/2HO7

>  <Rbt.Executable>
rbdock ($Id: //depot/dev/client3/rdock/2013.1/src/exe/rbdock.cxx#4 $)

>  <Rbt.Library>
libRbt.so (2013.1, Build901 2013/11/27)

>  <Rbt.Parameter_File>
/export/apps/rDock/src/rDock_2013.1_src/data/scripts/dock_solv.prm

>  <Rbt.Receptor>
prm/pocket_docking_3.prm

>  <SCORE>
-11.6649

>  <SCORE.INTER>
-11.7833

>  <SCORE.INTER.CONST>
1

>  <SCORE.INTER.POLAR>
-1.29904

>  <SCORE.INTER.ROT>
3

>  <SCORE.INTER.SOLV>
13.6362

>  <SCORE.INTER.VDW>
-13.6708

>  <SCORE.INTER.norm>
-0.736457

>  <SCORE.INTRA>
0.118446

>  <SCORE.INTRA.DIHEDRAL>
0.120264

>  <SCORE.INTRA.DIHEDRAL.0>
0.00893466

>  <SCORE.INTRA.POLAR>
0

>  <SCORE.INTRA.POLAR.0>
0

>  <SCORE.INTRA.REPUL>
0

>  <SCORE.INTRA.REPUL.0>
0

>  <SCORE.INTRA.SOLV>
0.211548

>  <SCORE.INTRA.SOLV.lig_0>
-48.9722

>  <SCORE.INTRA.VDW>
-0.0474602

>  <SCORE.INTRA.VDW.0>
-0.529409

>  <SCORE.INTRA.norm>
0.00740288

>  <SCORE.RESTR>
0

>  <SCORE.RESTR.CAVITY>
0

>  <SCORE.RESTR.norm>
0

>  <SCORE.SYSTEM>
0

>  <SCORE.SYSTEM.CONST>
0

>  <SCORE.SYSTEM.DIHEDRAL>
0

>  <SCORE.SYSTEM.SOLV>
0

>  <SCORE.SYSTEM.norm>
0

>  <SCORE.heavy>
16

>  <SCORE.norm>
-0.729054

>  <RMSD>
1.443

$$$$
ligand
 OpenBabel11021811433D
libRbt.so/2013.1/901 2013/11/27
 16 16  0  0  0  0  0  0  0  0999 V2000
   49.3305   13.2263   11.0737 P   0  0  2  0  0  0  0  0  0  0  0  0
   48.9138   13.0022    9.6672 O   0  0  0  0  0  0  0  0  0  0  0  0
   50.0591   14.6564   11.1912 O   0  5  0  0  0  0  0  0  0  0  0  0
   50.3623   12.0659   11.5007 O   0  0  0  0  0  0  0  0  0  0  0  0
   44.9586   12.0266   14.8057 C   0  0  2  0  0  0  0  0  0  0  0  0
   44.2103   10.8262   14.5415 O   0  0  0  0  0  0  0  0  0  0  0  0
   44.1458   13.2829   14.4004 C   0  0  2  0  0  0  0  0  0  0  0  0
   42.8685   13.3066   15.1231 O   0  0  0  0  0  0  0  0  0  0  0  0
   43.8787   13.2239   12.8847 C   0  0  1  0  0  0  0  0  0  0  0  0
   43.1331   14.3780   12.4788 O   0  0  0  0  0  0  0  0  0  0  0  0
   45.2328   13.1991   12.1588 C   0  0  2  0  0  0  0  0  0  0  0  0
   45.0099   13.1321   10.7338 O   0  0  0  0  0  0  0  0  0  0  0  0
   46.0214   11.9465   12.6311 C   0  0  2  0  0  0  0  0  0  0  0  0
   46.2302   12.0040   14.0756 O   0  0  0  0  0  0  0  0  0  0  0  0
   47.3937   11.9322   11.9334 C   0  0  0  0  0  0  0  0  0  0  0  0
   48.0324   13.2095   12.0496 O   0  0  0  0  0  0  0  0  0  0  0  0
  1  2  1  6  0  0  0
  1  3  1  0  0  0  0
  1  4  2  0  0  0  0
  1 16  1  0  0  0  0
  5  6  1  6  0  0  0
  5  7  1  0  0  0  0
  5 14  1  0  0  0  0
  7  8  1  1  0  0  0
  7  9  1  0  0  0  0
  9 10  1  6  0  0  0
  9 11  1  0  0  0  0
 11 12  1  6  0  0  0
 11 13  1  0  0  0  0
 13 14  1  0  0  0  0
 13 15  1  6  0  0  0
 15 16  1  0  0  0  0
M  CHG  1   3  -1
M  END
>  <CHROM.1>
48.99923941,-169.58743414,59.99235451,46.49114728,12.87456189,12.44761329
0.42666995,0.26099583,-0.92875441

>  <Name>
ligand

>  <RI>
0

>  <Rbt.Current_Directory>
/home/itssahil/PROJECTS/Mol_Feturizer/New_Systems/rnas/2HO7

>  <Rbt.Executable>
rbdock ($Id: //depot/dev/client3/rdock/2013.1/src/exe/rbdock.cxx#4 $)

>  <Rbt.Library>
libRbt.so (2013.1, Build901 2013/11/27)

>  <Rbt.Parameter_File>
/export/apps/rDock/src/rDock_2013.1_src/data/scripts/dock_solv.prm

>  <Rbt.Receptor>
prm/pocket_docking_6.prm

>  <SCORE>
-11.4219

>  <SCORE.INTER>
-12.0556

>  <SCORE.INTER.CONST>
1

>  <SCORE.INTER.POLAR>
-1.29544

>  <SCORE.INTER.ROT>
3

>  <SCORE.INTER.SOLV>
13.2803

>  <SCORE.INTER.VDW>
-13.7457

>  <SCORE.INTER.norm>
-0.753473

>  <SCORE.INTRA>
0.633642

>  <SCORE.INTRA.DIHEDRAL>
0.93993

>  <SCORE.INTRA.DIHEDRAL.0>
0.00893466

>  <SCORE.INTRA.POLAR>
0

>  <SCORE.INTRA.POLAR.0>
0

>  <SCORE.INTRA.REPUL>
0

>  <SCORE.INTRA.REPUL.0>
0

>  <SCORE.INTRA.SOLV>
0.331367

>  <SCORE.INTRA.SOLV.lig_0>
-48.9722

>  <SCORE.INTRA.VDW>
-0.00200592

>  <SCORE.INTRA.VDW.0>
-0.529409

>  <SCORE.INTRA.norm>
0.0396027

>  <SCORE.RESTR>
0

>  <SCORE.RESTR.CAVITY>
0

>  <SCORE.RESTR.norm>
0

>  <SCORE.SYSTEM>
0

>  <SCORE.SYSTEM.CONST>
0

>  <SCORE.SYSTEM.DIHEDRAL>
0

>  <SCORE.SYSTEM.SOLV>
0

>  <SCORE.SYSTEM.norm>
0

>  <SCORE.heavy>
16

>  <SCORE.norm>
-0.713871

>  <RMSD>
1.443

$$$$
ligand
 OpenBabel11021811433D
libRbt.so/2013.1/901 2013/11/27
 16 16  0  0  0  0  0  0  0  0999 V2000
   49.2200   13.2282   10.9985 P   0  0  2  0  0  0  0  0  0  0  0  0
   48.8186   13.0061    9.5872 O   0  0  0  0  0  0  0  0  0  0  0  0
   49.9611   14.6512   11.1232 O   0  5  0  0  0  0  0  0  0  0  0  0
   50.2349   12.0583   11.4399 O   0  0  0  0  0  0  0  0  0  0  0  0
   44.9740   12.1155   14.8071 C   0  0  2  0  0  0  0  0  0  0  0  0
   44.2573   10.8785   14.6434 O   0  0  0  0  0  0  0  0  0  0  0  0
   44.0902   13.3224   14.4003 C   0  0  2  0  0  0  0  0  0  0  0  0
   42.8603   13.3337   15.2012 O   0  0  0  0  0  0  0  0  0  0  0  0
   43.7320   13.1848   12.9087 C   0  0  1  0  0  0  0  0  0  0  0  0
   42.9190   14.2919   12.5015 O   0  0  0  0  0  0  0  0  0  0  0  0
   45.0384   13.1749   12.0998 C   0  0  2  0  0  0  0  0  0  0  0  0
   44.7302   13.0350   10.6961 O   0  0  0  0  0  0  0  0  0  0  0  0
   45.9022   11.9739   12.5748 C   0  0  2  0  0  0  0  0  0  0  0  0
   46.1978   12.1047   13.9991 O   0  0  0  0  0  0  0  0  0  0  0  0
   47.2280   11.9764   11.7923 C   0  0  0  0  0  0  0  0  0  0  0  0
   47.9097   13.2257   11.9582 O   0  0  0  0  0  0  0  0  0  0  0  0
  1  2  1  6  0  0  0
  1  3  1  0  0  0  0
  1  4  2  0  0  0  0
  1 16  1  0  0  0  0
  5  6  1  6  0  0  0
  5  7  1  0  0  0  0
  5 14  1  0  0  0  0
  7  8  1  1  0  0  0
  7  9  1  0  0  0  0
  9 10  1  6  0  0  0
  9 11  1  0  0  0  0
 11 12  1  6  0  0  0
 11 13  1  0  0  0  0
 13 14  1  0  0  0  0
 13 15  1  6  0  0  0
 15 16  1  0  0  0  0
M  CHG  1   3  -1
M  END
>  <CHROM.1>
56.61497865,-174.43273182,57.53675842,46.38427263,12.88223717,12.41271961
-0.45400955,-0.23556225,2.12812984

>  <Name>
ligand

>  <RI>
0

>  <Rbt.Current_Directory>
/home/itssahil/PROJECTS/Mol_Feturizer/New_Systems/rnas/2HO7

>  <Rbt.Executable>
rbdock ($Id: //depot/dev/client3/rdock/2013.1/src/exe/rbdock.cxx#4 $)

>  <Rbt.Library>
libRbt.so (2013.1, Build901 2013/11/27)

>  <Rbt.Parameter_File>
/export/apps/rDock/src/rDock_2013.1_src/data/scripts/dock_solv.prm

>  <Rbt.Receptor>
prm/pocket_docking_3.prm

>  <SCORE>
-11.7021

>  <SCORE.INTER>
-11.8351

>  <SCORE.INTER.CONST>
1

>  <SCORE.INTER.POLAR>
-1.29806

>  <SCORE.INTER.ROT>
3

>  <SCORE.INTER.SOLV>
13.1997

>  <SCORE.INTER.VDW>
-13.5631

>  <SCORE.INTER.norm>
-0.739695

>  <SCORE.INTRA>
0.133006

>  <SCORE.INTRA.DIHEDRAL>
0.194915

>  <SCORE.INTRA.DIHEDRAL.0>
0.00893466

>  <SCORE.INTRA.POLAR>
0

>  <SCORE.INTRA.POLAR.0>
0

>  <SCORE.INTRA.REPUL>
0

>  <SCORE.INTRA.REPUL.0>
0

>  <SCORE.INTRA.SOLV>
0.208662

>  <SCORE.INTRA.SOLV.lig_0>
-48.9722

>  <SCORE.INTRA.VDW>
-0.0687824

>  <SCORE.INTRA.VDW.0>
-0.529409

>  <SCORE.INTRA.norm>
0.00831287

>  <SCORE.RESTR>
0

>  <SCORE.RESTR.CAVITY>
0

>  <SCORE.RESTR.norm>
0

>  <SCORE.SYSTEM>
0

>  <SCORE.SYSTEM.CONST>
0

>  <SCORE.SYSTEM.DIHEDRAL>
0

>  <SCORE.SYSTEM.SOLV>
0

>  <SCORE.SYSTEM.norm>
0

>  <SCORE.heavy>
16

>  <SCORE.norm>
-0.731382

>  <RMSD>
1.445

$$$$
ligand
 OpenBabel11021811433D
libRbt.so/2013.1/901 2013/11/27
 16 16  0  0  0  0  0  0  0  0999 V2000
   49.1502   13.0518   10.1650 P   0  0  2  0  0  0  0  0  0  0  0  0
   49.3096   12.8890    8.6985 O   0  0  0  0  0  0  0  0  0  0  0  0
   49.3748   14.5965   10.5562 O   0  5  0  0  0  0  0  0  0  0  0  0
   50.2543   12.1472   10.9108 O   0  0  0  0  0  0  0  0  0  0  0  0
   44.7914   12.0571   14.5076 C   0  0  2  0  0  0  0  0  0  0  0  0
   44.3062   10.7876   14.0348 O   0  0  0  0  0  0  0  0  0  0  0  0
   43.8374   13.2036   14.0852 C   0  0  2  0  0  0  0  0  0  0  0  0
   42.4878   12.9469   14.6018 O   0  0  0  0  0  0  0  0  0  0  0  0
   43.7969   13.2635   12.5466 C   0  0  1  0  0  0  0  0  0  0  0  0
   42.9262   14.3204   12.1257 O   0  0  0  0  0  0  0  0  0  0  0  0
   45.2221   13.5316   12.0386 C   0  0  2  0  0  0  0  0  0  0  0  0
   45.2136   13.5811   10.5956 O   0  0  0  0  0  0  0  0  0  0  0  0
   46.1426   12.3777   12.5237 C   0  0  2  0  0  0  0  0  0  0  0  0
   46.1363   12.3146   13.9829 O   0  0  0  0  0  0  0  0  0  0  0  0
   47.5798   12.6561   12.0470 C   0  0  0  0  0  0  0  0  0  0  0  0
   47.6570   12.6008   10.6173 O   0  0  0  0  0  0  0  0  0  0  0  0
  1  2  1  6  0  0  0
  1  3  1  0  0  0  0
  1  4  2  0  0  0  0
  1 16  1  0  0  0  0
  5  6  1  6  0  0  0
  5  7  1  0  0  0  0
  5 14  1  0  0  0  0
  7  8  1  6  0  0  0
  7  9  1  0  0  0  0
  9 10  1  1  0  0  0
  9 11  1  0  0  0  0
 11 12  1  6  0  0  0
 11 13  1  0  0  0  0
 13 14  1  0  0  0  0
 13 15  1  1  0  0  0
 15 16  1  0  0  0  0
M  CHG  1   3  -1
M  END
>  <CHROM.1>
-65.71155565,174.18740444,174.84174458,46.38388305,12.90691744,11.95289760
0.48404919,0.31851317,-0.95501133

>  <Name>
ligand

>  <RI>
0

>  <Rbt.Current_Directory>
/home/itssahil/PROJECTS/Mol_Feturizer/New_Systems/rnas/2HO7

>  <Rbt.Executable>
rbdock ($Id: //depot/dev/client3/rdock/2013.1/src/exe/rbdock.cxx#4 $)

>  <Rbt.Library>
libRbt.so (2013.1, Build901 2013/11/27)

>  <Rbt.Parameter_File>
/export/apps/rDock/src/rDock_2013.1_src/data/scripts/dock_solv.prm

>  <Rbt.Receptor>
prm/pocket_docking_2.prm

>  <SCORE>
-10.2208

>  <SCORE.INTER>
-11.0785

>  <SCORE.INTER.CONST>
1

>  <SCORE.INTER.POLAR>
-1.29904

>  <SCORE.INTER.ROT>
3

>  <SCORE.INTER.SOLV>
10.1918

>  <SCORE.INTER.VDW>
-12.0528

>  <SCORE.INTER.norm>
-0.692408

>  <SCORE.INTRA>
0.840005

>  <SCORE.INTRA.DIHEDRAL>
0.318266

>  <SCORE.INTRA.DIHEDRAL.0>
0.00893466

>  <SCORE.INTRA.POLAR>
0

>  <SCORE.INTRA.POLAR.0>
0

>  <SCORE.INTRA.REPUL>
0

>  <SCORE.INTRA.REPUL.0>
0

>  <SCORE.INTRA.SOLV>
1.34055

>  <SCORE.INTRA.SOLV.lig_0>
-48.9722

>  <SCORE.INTRA.VDW>
0.0105964

>  <SCORE.INTRA.VDW.0>
-0.529409

>  <SCORE.INTRA.norm>
0.0525003

>  <SCORE.RESTR>
0.0177328

>  <SCORE.RESTR.CAVITY>
0.0177328

>  <SCORE.RESTR.norm>
0.0011083

>  <SCORE.SYSTEM>
0

>  <SCORE.SYSTEM.CONST>
0

>  <SCORE.SYSTEM.DIHEDRAL>
0

>  <SCORE.SYSTEM.SOLV>
0

>  <SCORE.SYSTEM.norm>
0

>  <SCORE.heavy>
16

>  <SCORE.norm>
-0.638799

>  <RMSD>
1.447

$$$$
ligand
 OpenBabel11021811433D
libRbt.so/2013.1/901 2013/11/27
 16 16  0  0  0  0  0  0  0  0999 V2000
   49.1232   13.1291   10.8696 P   0  0  2  0  0  0  0  0  0  0  0  0
   48.7491   12.7633    9.4809 O   0  0  0  0  0  0  0  0  0  0  0  0
   49.8023   14.5881   10.8709 O   0  5  0  0  0  0  0  0  0  0  0  0
   50.1809   12.0486   11.4241 O   0  0  0  0  0  0  0  0  0  0  0  0
   44.9950   12.1730   14.8189 C   0  0  2  0  0  0  0  0  0  0  0  0
   44.3600   10.8818   14.8049 O   0  0  0  0  0  0  0  0  0  0  0  0
   44.0228   13.2706   14.3157 C   0  0  2  0  0  0  0  0  0  0  0  0
   42.8131   13.2861   15.1466 O   0  0  0  0  0  0  0  0  0  0  0  0
   43.6415   12.9541   12.8573 C   0  0  1  0  0  0  0  0  0  0  0  0
   42.7467   13.9573   12.3619 O   0  0  0  0  0  0  0  0  0  0  0  0
   44.9273   12.9441   12.0159 C   0  0  2  0  0  0  0  0  0  0  0  0
   44.5980   12.6378   10.6438 O   0  0  0  0  0  0  0  0  0  0  0  0
   45.8806   11.8582   12.5870 C   0  0  2  0  0  0  0  0  0  0  0  0
   46.1984   12.1568   13.9809 O   0  0  0  0  0  0  0  0  0  0  0  0
   47.1854   11.8645   11.7700 C   0  0  0  0  0  0  0  0  0  0  0  0
   47.8025   13.1570   11.8142 O   0  0  0  0  0  0  0  0  0  0  0  0
  1  2  1  6  0  0  0
  1  3  1  0  0  0  0
  1  4  2  0  0  0  0
  1 16  1  0  0  0  0
  5  6  1  6  0  0  0
  5  7  1  0  0  0  0
  5 14  1  0  0  0  0
  7  8  1  1  0  0  0
  7  9  1  0  0  0  0
  9 10  1  6  0  0  0
  9 11  1  0  0  0  0
 11 12  1  6  0  0  0
 11 13  1  0  0  0  0
 13 14  1  0  0  0  0
 13 15  1  6  0  0  0
 15 16  1  0  0  0  0
M  CHG  1   3  -1
M  END
>  <CHROM.1>
58.09142016,-176.77705759,58.26078771,46.31615360,12.76491905,12.34659126
-0.49340909,-0.18121786,2.00371784

>  <Name>
ligand

>  <RI>
0

>  <Rbt.Current_Directory>
/home/itssahil/PROJECTS/Mol_Feturizer/New_Systems/rnas/2HO7

>  <Rbt.Executable>
rbdock ($Id: //depot/dev/client3/rdock/2013.1/src/exe/rbdock.cxx#4 $)

>  <Rbt.Library>
libRbt.so (2013.1, Build901 2013/11/27)

>  <Rbt.Parameter_File>
/export/apps/rDock/src/rDock_2013.1_src/data/scripts/dock_solv.prm

>  <Rbt.Receptor>
prm/pocket_docking_7.prm

>  <SCORE>
-11.5611

>  <SCORE.INTER>
-11.6161

>  <SCORE.INTER.CONST>
1

>  <SCORE.INTER.POLAR>
-1.29904

>  <SCORE.INTER.ROT>
3

>  <SCORE.INTER.SOLV>
12.9218

>  <SCORE.INTER.VDW>
-13.3212

>  <SCORE.INTER.norm>
-0.726008

>  <SCORE.INTRA>
0.0550332

>  <SCORE.INTRA.DIHEDRAL>
0.060816

>  <SCORE.INTRA.DIHEDRAL.0>
0.00893466

>  <SCORE.INTRA.POLAR>
0

>  <SCORE.INTRA.POLAR.0>
0

>  <SCORE.INTRA.REPUL>
0

>  <SCORE.INTRA.REPUL.0>
0

>  <SCORE.INTRA.SOLV>
0.209877

>  <SCORE.INTRA.SOLV.lig_0>
-48.9722

>  <SCORE.INTRA.VDW>
-0.0803135

>  <SCORE.INTRA.VDW.0>
-0.529409

>  <SCORE.INTRA.norm>
0.00343958

>  <SCORE.RESTR>
0

>  <SCORE.RESTR.CAVITY>
0

>  <SCORE.RESTR.norm>
0

>  <SCORE.SYSTEM>
0

>  <SCORE.SYSTEM.CONST>
0

>  <SCORE.SYSTEM.DIHEDRAL>
0

>  <SCORE.SYSTEM.SOLV>
0

>  <SCORE.SYSTEM.norm>
0

>  <SCORE.heavy>
16

>  <SCORE.norm>
-0.722568

>  <RMSD>
1.452

$$$$
ligand
 OpenBabel11021811433D
libRbt.so/2013.1/901 2013/11/27
 16 16  0  0  0  0  0  0  0  0999 V2000
   49.2063   13.2139   11.0079 P   0  0  2  0  0  0  0  0  0  0  0  0
   48.8673   12.9925    9.5802 O   0  0  0  0  0  0  0  0  0  0  0  0
   49.9773   14.6183   11.1601 O   0  5  0  0  0  0  0  0  0  0  0  0
   50.1683   12.0215   11.5042 O   0  0  0  0  0  0  0  0  0  0  0  0
   44.8849   12.0275   14.7131 C   0  0  2  0  0  0  0  0  0  0  0  0
   44.0922   10.8588   14.4365 O   0  0  0  0  0  0  0  0  0  0  0  0
   44.0797   13.3203   14.4244 C   0  0  2  0  0  0  0  0  0  0  0  0
   42.8510   13.3337   15.2271 O   0  0  0  0  0  0  0  0  0  0  0  0
   43.7171   13.3461   12.9277 C   0  0  1  0  0  0  0  0  0  0  0  0
   42.9764   14.5354   12.6290 O   0  0  0  0  0  0  0  0  0  0  0  0
   45.0224   13.3301   12.1169 C   0  0  2  0  0  0  0  0  0  0  0  0
   44.7094   13.3422   10.7074 O   0  0  0  0  0  0  0  0  0  0  0  0
   45.8077   12.0379   12.4741 C   0  0  2  0  0  0  0  0  0  0  0  0
   46.1076   12.0157   13.9034 O   0  0  0  0  0  0  0  0  0  0  0  0
   47.1330   12.0306   11.6907 C   0  0  0  0  0  0  0  0  0  0  0  0
   47.8520   13.2515   11.9036 O   0  0  0  0  0  0  0  0  0  0  0  0
  1  2  1  6  0  0  0
  1  3  1  0  0  0  0
  1  4  2  0  0  0  0
  1 16  1  0  0  0  0
  5  6  1  6  0  0  0
  5  7  1  0  0  0  0
  5 14  1  0  0  0  0
  7  8  1  1  0  0  0
  7  9  1  0  0  0  0
  9 10  1  1  0  0  0
  9 11  1  0  0  0  0
 11 12  1  6  0  0  0
 11 13  1  0  0  0  0
 13 14  1  0  0  0  0
 13 15  1  6  0  0  0
 15 16  1  0  0  0  0
M  CHG  1   3  -1
M  END
>  <CHROM.1>
52.90985675,-177.67784296,56.35657597,46.34774126,12.92256725,12.39518397
-0.41648282,-0.28807582,2.23084573

>  <Name>
ligand

>  <RI>
0

>  <Rbt.Current_Directory>
/home/itssahil/PROJECTS/Mol_Feturizer/New_Systems/rnas/2HO7

>  <Rbt.Executable>
rbdock ($Id: //depot/dev/client3/rdock/2013.1/src/exe/rbdock.cxx#4 $)

>  <Rbt.Library>
libRbt.so (2013.1, Build901 2013/11/27)

>  <Rbt.Parameter_File>
/export/apps/rDock/src/rDock_2013.1_src/data/scripts/dock_solv.prm

>  <Rbt.Receptor>
prm/pocket_docking_6.prm

>  <SCORE>
-11.5987

>  <SCORE.INTER>
-11.8091

>  <SCORE.INTER.CONST>
1

>  <SCORE.INTER.POLAR>
-1.29904

>  <SCORE.INTER.ROT>
3

>  <SCORE.INTER.SOLV>
13.0129

>  <SCORE.INTER.VDW>
-13.4802

>  <SCORE.INTER.norm>
-0.738067

>  <SCORE.INTRA>
0.210335

>  <SCORE.INTRA.DIHEDRAL>
0.220296

>  <SCORE.INTRA.DIHEDRAL.0>
0.00893466

>  <SCORE.INTRA.POLAR>
0

>  <SCORE.INTRA.POLAR.0>
0

>  <SCORE.INTRA.REPUL>
0

>  <SCORE.INTRA.REPUL.0>
0

>  <SCORE.INTRA.SOLV>
0.202522

>  <SCORE.INTRA.SOLV.lig_0>
-48.9722

>  <SCORE.INTRA.VDW>
-0.00107427

>  <SCORE.INTRA.VDW.0>
-0.529409

>  <SCORE.INTRA.norm>
0.0131459

>  <SCORE.RESTR>
0

>  <SCORE.RESTR.CAVITY>
0

>  <SCORE.RESTR.norm>
0

>  <SCORE.SYSTEM>
0

>  <SCORE.SYSTEM.CONST>
0

>  <SCORE.SYSTEM.DIHEDRAL>
0

>  <SCORE.SYSTEM.SOLV>
0

>  <SCORE.SYSTEM.norm>
0

>  <SCORE.heavy>
16

>  <SCORE.norm>
-0.724921

>  <RMSD>
1.455

$$$$
ligand
 OpenBabel11021811433D
libRbt.so/2013.1/901 2013/11/27
 16 16  0  0  0  0  0  0  0  0999 V2000
   48.9567   12.8743   10.1238 P   0  0  2  0  0  0  0  0  0  0  0  0
   49.1273   12.5356    8.6890 O   0  0  0  0  0  0  0  0  0  0  0  0
   49.1275   14.4624   10.3194 O   0  5  0  0  0  0  0  0  0  0  0  0
   50.0877   12.1077   10.9763 O   0  0  0  0  0  0  0  0  0  0  0  0
   44.6363   12.1747   14.5604 C   0  0  2  0  0  0  0  0  0  0  0  0
   44.2171   10.8464   14.1990 O   0  0  0  0  0  0  0  0  0  0  0  0
   43.6196   13.2300   14.0546 C   0  0  2  0  0  0  0  0  0  0  0  0
   42.2888   12.9459   14.6044 O   0  0  0  0  0  0  0  0  0  0  0  0
   43.5670   13.1597   12.5168 C   0  0  1  0  0  0  0  0  0  0  0  0
   42.6384   14.1304   12.0190 O   0  0  0  0  0  0  0  0  0  0  0  0
   44.9728   13.4599   11.9738 C   0  0  2  0  0  0  0  0  0  0  0  0
   44.9532   13.3889   10.5318 O   0  0  0  0  0  0  0  0  0  0  0  0
   45.9567   12.4007   12.5430 C   0  0  2  0  0  0  0  0  0  0  0  0
   45.9623   12.4587   14.0024 O   0  0  0  0  0  0  0  0  0  0  0  0
   47.3740   12.7143   12.0302 C   0  0  0  0  0  0  0  0  0  0  0  0
   47.4778   12.4327   10.6292 O   0  0  0  0  0  0  0  0  0  0  0  0
  1  2  1  6  0  0  0
  1  3  1  0  0  0  0
  1  4  2  0  0  0  0
  1 16  1  0  0  0  0
  5  6  1  6  0  0  0
  5  7  1  0  0  0  0
  5 14  1  0  0  0  0
  7  8  1  1  0  0  0
  7  9  1  0  0  0  0
  9 10  1  6  0  0  0
  9 11  1  0  0  0  0
 11 12  1  6  0  0  0
 11 13  1  0  0  0  0
 13 14  1  0  0  0  0
 13 15  1  6  0  0  0
 15 16  1  0  0  0  0
M  CHG  1   3  -1
M  END
>  <CHROM.1>
-70.76207511,176.24589851,177.19082362,46.18331456,12.83293526,11.93457892
0.50210590,0.29292189,-1.05803776

>  <Name>
ligand

>  <RI>
0

>  <Rbt.Current_Directory>
/home/itssahil/PROJECTS/Mol_Feturizer/New_Systems/rnas/2HO7

>  <Rbt.Executable>
rbdock ($Id: //depot/dev/client3/rdock/2013.1/src/exe/rbdock.cxx#4 $)

>  <Rbt.Library>
libRbt.so (2013.1, Build901 2013/11/27)

>  <Rbt.Parameter_File>
/export/apps/rDock/src/rDock_2013.1_src/data/scripts/dock_solv.prm

>  <Rbt.Receptor>
prm/pocket_docking_2.prm

>  <SCORE>
-10.1609

>  <SCORE.INTER>
-10.9108

>  <SCORE.INTER.CONST>
1

>  <SCORE.INTER.POLAR>
-1.29864

>  <SCORE.INTER.ROT>
3

>  <SCORE.INTER.SOLV>
10.3494

>  <SCORE.INTER.VDW>
-11.9949

>  <SCORE.INTER.norm>
-0.681924

>  <SCORE.INTRA>
0.745478

>  <SCORE.INTRA.DIHEDRAL>
0.482738

>  <SCORE.INTRA.DIHEDRAL.0>
0.00893466

>  <SCORE.INTRA.POLAR>
0

>  <SCORE.INTRA.POLAR.0>
0

>  <SCORE.INTRA.REPUL>
0

>  <SCORE.INTRA.REPUL.0>
0

>  <SCORE.INTRA.SOLV>
1.23423

>  <SCORE.INTRA.SOLV.lig_0>
-48.9722

>  <SCORE.INTRA.VDW>
-0.113008

>  <SCORE.INTRA.VDW.0>
-0.529409

>  <SCORE.INTRA.norm>
0.0465924

>  <SCORE.RESTR>
0.00441247

>  <SCORE.RESTR.CAVITY>
0.00441247

>  <SCORE.RESTR.norm>
0.00027578

>  <SCORE.SYSTEM>
0

>  <SCORE.SYSTEM.CONST>
0

>  <SCORE.SYSTEM.DIHEDRAL>
0

>  <SCORE.SYSTEM.SOLV>
0

>  <SCORE.SYSTEM.norm>
0

>  <SCORE.heavy>
16

>  <SCORE.norm>
-0.635056

>  <RMSD>
1.474

$$$$
ligand
 OpenBabel11021811433D
libRbt.so/2013.1/901 2013/11/27
 16 16  0  0  0  0  0  0  0  0999 V2000
   49.1041   13.2319   10.9670 P   0  0  2  0  0  0  0  0  0  0  0  0
   48.7322   13.0484    9.5421 O   0  0  0  0  0  0  0  0  0  0  0  0
   49.8998   14.6206   11.1346 O   0  5  0  0  0  0  0  0  0  0  0  0
   50.0574   12.0140   11.4158 O   0  0  0  0  0  0  0  0  0  0  0  0
   44.8525   12.1453   14.7587 C   0  0  2  0  0  0  0  0  0  0  0  0
   44.0951   10.9372   14.5647 O   0  0  0  0  0  0  0  0  0  0  0  0
   43.9999   13.3921   14.4096 C   0  0  2  0  0  0  0  0  0  0  0  0
   42.7843   13.4126   15.2317 O   0  0  0  0  0  0  0  0  0  0  0  0
   43.6132   13.3181   12.9206 C   0  0  1  0  0  0  0  0  0  0  0  0
   42.8284   14.4631   12.5664 O   0  0  0  0  0  0  0  0  0  0  0  0
   44.9053   13.2970   12.0891 C   0  0  2  0  0  0  0  0  0  0  0  0
   44.5700   13.2161   10.6870 O   0  0  0  0  0  0  0  0  0  0  0  0
   45.7391   12.0543   12.5070 C   0  0  2  0  0  0  0  0  0  0  0  0
   46.0619   12.1258   13.9296 O   0  0  0  0  0  0  0  0  0  0  0  0
   47.0513   12.0440   11.7021 C   0  0  0  0  0  0  0  0  0  0  0  0
   47.7694   13.2694   11.8915 O   0  0  0  0  0  0  0  0  0  0  0  0
  1  2  1  6  0  0  0
  1  3  1  0  0  0  0
  1  4  2  0  0  0  0
  1 16  1  0  0  0  0
  5  6  1  6  0  0  0
  5  7  1  0  0  0  0
  5 14  1  0  0  0  0
  7  8  1  1  0  0  0
  7  9  1  0  0  0  0
  9 10  1  6  0  0  0
  9 11  1  0  0  0  0
 11 12  1  6  0  0  0
 11 13  1  0  0  0  0
 13 14  1  0  0  0  0
 13 15  1  6  0  0  0
 15 16  1  0  0  0  0
M  CHG  1   3  -1
M  END
>  <CHROM.1>
56.18678200,-177.32297636,58.37481288,46.25962943,12.94160633,12.38675743
-0.44038639,-0.26521542,2.15753289

>  <Name>
ligand

>  <RI>
0

>  <Rbt.Current_Directory>
/home/itssahil/PROJECTS/Mol_Feturizer/New_Systems/rnas/2HO7

>  <Rbt.Executable>
rbdock ($Id: //depot/dev/client3/rdock/2013.1/src/exe/rbdock.cxx#4 $)

>  <Rbt.Library>
libRbt.so (2013.1, Build901 2013/11/27)

>  <Rbt.Parameter_File>
/export/apps/rDock/src/rDock_2013.1_src/data/scripts/dock_solv.prm

>  <Rbt.Receptor>
prm/pocket_docking_3.prm

>  <SCORE>
-11.6234

>  <SCORE.INTER>
-11.7108

>  <SCORE.INTER.CONST>
1

>  <SCORE.INTER.POLAR>
-1.29904

>  <SCORE.INTER.ROT>
3

>  <SCORE.INTER.SOLV>
13.0889

>  <SCORE.INTER.VDW>
-13.4401

>  <SCORE.INTER.norm>
-0.731927

>  <SCORE.INTRA>
0.0874063

>  <SCORE.INTRA.DIHEDRAL>
0.0837706

>  <SCORE.INTRA.DIHEDRAL.0>
0.00893466

>  <SCORE.INTRA.POLAR>
0

>  <SCORE.INTRA.POLAR.0>
0

>  <SCORE.INTRA.REPUL>
0

>  <SCORE.INTRA.REPUL.0>
0

>  <SCORE.INTRA.SOLV>
0.213313

>  <SCORE.INTRA.SOLV.lig_0>
-48.9722

>  <SCORE.INTRA.VDW>
-0.0611354

>  <SCORE.INTRA.VDW.0>
-0.529409

>  <SCORE.INTRA.norm>
0.00546289

>  <SCORE.RESTR>
0

>  <SCORE.RESTR.CAVITY>
0

>  <SCORE.RESTR.norm>
0

>  <SCORE.SYSTEM>
0

>  <SCORE.SYSTEM.CONST>
0

>  <SCORE.SYSTEM.DIHEDRAL>
0

>  <SCORE.SYSTEM.SOLV>
0

>  <SCORE.SYSTEM.norm>
0

>  <SCORE.heavy>
16

>  <SCORE.norm>
-0.726465

>  <RMSD>
1.477

$$$$
ligand
 OpenBabel11021811433D
libRbt.so/2013.1/901 2013/11/27
 16 16  0  0  0  0  0  0  0  0999 V2000
   49.1215   13.2341   10.9282 P   0  0  2  0  0  0  0  0  0  0  0  0
   48.6985   13.0147    9.5228 O   0  0  0  0  0  0  0  0  0  0  0  0
   49.8777   14.6501   11.0413 O   0  5  0  0  0  0  0  0  0  0  0  0
   50.1314   12.0550   11.3565 O   0  0  0  0  0  0  0  0  0  0  0  0
   44.8613   12.1064   14.7394 C   0  0  2  0  0  0  0  0  0  0  0  0
   44.0768   10.9230   14.5053 O   0  0  0  0  0  0  0  0  0  0  0  0
   44.0450   13.3825   14.4103 C   0  0  2  0  0  0  0  0  0  0  0  0
   42.8190   13.4136   15.2166 O   0  0  0  0  0  0  0  0  0  0  0  0
   43.6771   13.3551   12.9149 C   0  0  1  0  0  0  0  0  0  0  0  0
   42.9261   14.5279   12.5791 O   0  0  0  0  0  0  0  0  0  0  0  0
   44.9797   13.3217   12.1003 C   0  0  2  0  0  0  0  0  0  0  0  0
   44.6618   13.2839   10.6923 O   0  0  0  0  0  0  0  0  0  0  0  0
   45.7763   12.0484   12.4979 C   0  0  2  0  0  0  0  0  0  0  0  0
   46.0812   12.0766   13.9260 O   0  0  0  0  0  0  0  0  0  0  0  0
   47.0988   12.0248   11.7103 C   0  0  0  0  0  0  0  0  0  0  0  0
   47.8248   13.2446   11.9059 O   0  0  0  0  0  0  0  0  0  0  0  0
  1  2  1  6  0  0  0
  1  3  1  0  0  0  0
  1  4  2  0  0  0  0
  1 16  1  0  0  0  0
  5  6  1  6  0  0  0
  5  7  1  0  0  0  0
  5 14  1  0  0  0  0
  7  8  1  1  0  0  0
  7  9  1  0  0  0  0
  9 10  1  6  0  0  0
  9 11  1  0  0  0  0
 11 12  1  6  0  0  0
 11 13  1  0  0  0  0
 13 14  1  0  0  0  0
 13 15  1  6  0  0  0
 15 16  1  0  0  0  0
M  CHG  1   3  -1
M  END
>  <CHROM.1>
54.34621486,-173.76106848,55.20074360,46.29492702,12.94635287,12.36763827
-0.43591450,-0.28995063,2.20167069

>  <Name>
ligand

>  <RI>
0

>  <Rbt.Current_Directory>
/home/itssahil/PROJECTS/Mol_Feturizer/New_Systems/rnas/2HO7

>  <Rbt.Executable>
rbdock ($Id: //depot/dev/client3/rdock/2013.1/src/exe/rbdock.cxx#4 $)

>  <Rbt.Library>
libRbt.so (2013.1, Build901 2013/11/27)

>  <Rbt.Parameter_File>
/export/apps/rDock/src/rDock_2013.1_src/data/scripts/dock_solv.prm

>  <Rbt.Receptor>
prm/pocket_docking_3.prm

>  <SCORE>
-11.5888

>  <SCORE.INTER>
-11.8399

>  <SCORE.INTER.CONST>
1

>  <SCORE.INTER.POLAR>
-1.29904

>  <SCORE.INTER.ROT>
3

>  <SCORE.INTER.SOLV>
12.6669

>  <SCORE.INTER.VDW>
-13.3855

>  <SCORE.INTER.norm>
-0.739995

>  <SCORE.INTRA>
0.251164

>  <SCORE.INTRA.DIHEDRAL>
0.33501

>  <SCORE.INTRA.DIHEDRAL.0>
0.00893466

>  <SCORE.INTRA.POLAR>
0

>  <SCORE.INTRA.POLAR.0>
0

>  <SCORE.INTRA.REPUL>
0

>  <SCORE.INTRA.REPUL.0>
0

>  <SCORE.INTRA.SOLV>
0.208675

>  <SCORE.INTRA.SOLV.lig_0>
-48.9722

>  <SCORE.INTRA.VDW>
-0.0206786

>  <SCORE.INTRA.VDW.0>
-0.529409

>  <SCORE.INTRA.norm>
0.0156977

>  <SCORE.RESTR>
0

>  <SCORE.RESTR.CAVITY>
0

>  <SCORE.RESTR.norm>
0

>  <SCORE.SYSTEM>
0

>  <SCORE.SYSTEM.CONST>
0

>  <SCORE.SYSTEM.DIHEDRAL>
0

>  <SCORE.SYSTEM.SOLV>
0

>  <SCORE.SYSTEM.norm>
0

>  <SCORE.heavy>
16

>  <SCORE.norm>
-0.724297

>  <RMSD>
1.485

$$$$
ligand
 OpenBabel11021811433D
libRbt.so/2013.1/901 2013/11/27
 16 16  0  0  0  0  0  0  0  0999 V2000
   49.1571   13.1994   10.9350 P   0  0  2  0  0  0  0  0  0  0  0  0
   48.6865   12.9130    9.5571 O   0  0  0  0  0  0  0  0  0  0  0  0
   49.8541   14.6495   10.9686 O   0  5  0  0  0  0  0  0  0  0  0  0
   50.2349   12.0803   11.3587 O   0  0  0  0  0  0  0  0  0  0  0  0
   44.8781   12.0338   14.7880 C   0  0  2  0  0  0  0  0  0  0  0  0
   44.0873   10.8616   14.5208 O   0  0  0  0  0  0  0  0  0  0  0  0
   44.0910   13.3217   14.4345 C   0  0  2  0  0  0  0  0  0  0  0  0
   42.8369   13.3660   15.1957 O   0  0  0  0  0  0  0  0  0  0  0  0
   43.7776   13.3043   12.9266 C   0  0  1  0  0  0  0  0  0  0  0  0
   43.0546   14.4881   12.5683 O   0  0  0  0  0  0  0  0  0  0  0  0
   45.1084   13.2567   12.1598 C   0  0  2  0  0  0  0  0  0  0  0  0
   44.8416   13.2279   10.7411 O   0  0  0  0  0  0  0  0  0  0  0  0
   45.8734   11.9716   12.5812 C   0  0  2  0  0  0  0  0  0  0  0  0
   46.1263   11.9909   14.0195 O   0  0  0  0  0  0  0  0  0  0  0  0
   47.2234   11.9334   11.8422 C   0  0  0  0  0  0  0  0  0  0  0  0
   47.9026   13.1889   11.9665 O   0  0  0  0  0  0  0  0  0  0  0  0
  1  2  1  6  0  0  0
  1  3  1  0  0  0  0
  1  4  2  0  0  0  0
  1 16  1  0  0  0  0
  5  6  1  6  0  0  0
  5  7  1  0  0  0  0
  5 14  1  0  0  0  0
  7  8  1  1  0  0  0
  7  9  1  0  0  0  0
  9 10  1  6  0  0  0
  9 11  1  0  0  0  0
 11 12  1  6  0  0  0
 11 13  1  0  0  0  0
 13 14  1  0  0  0  0
 13 15  1  6  0  0  0
 15 16  1  0  0  0  0
M  CHG  1   3  -1
M  END
>  <CHROM.1>
49.00226141,-168.68228071,55.16796334,46.35930266,12.89373169,12.39686924
0.43708517,0.30426775,-0.90689895

>  <Name>
ligand

>  <RI>
0

>  <Rbt.Current_Directory>
/home/itssahil/PROJECTS/Mol_Feturizer/New_Systems/rnas/2HO7

>  <Rbt.Executable>
rbdock ($Id: //depot/dev/client3/rdock/2013.1/src/exe/rbdock.cxx#4 $)

>  <Rbt.Library>
libRbt.so (2013.1, Build901 2013/11/27)

>  <Rbt.Parameter_File>
/export/apps/rDock/src/rDock_2013.1_src/data/scripts/dock_solv.prm

>  <Rbt.Receptor>
prm/pocket_docking_3.prm

>  <SCORE>
-11.3816

>  <SCORE.INTER>
-12.0996

>  <SCORE.INTER.CONST>
1

>  <SCORE.INTER.POLAR>
-1.29904

>  <SCORE.INTER.ROT>
3

>  <SCORE.INTER.SOLV>
12.6959

>  <SCORE.INTER.VDW>
-13.5682

>  <SCORE.INTER.norm>
-0.756225

>  <SCORE.INTRA>
0.717978

>  <SCORE.INTRA.DIHEDRAL>
1.07025

>  <SCORE.INTRA.DIHEDRAL.0>
0.00893466

>  <SCORE.INTRA.POLAR>
0

>  <SCORE.INTRA.POLAR.0>
0

>  <SCORE.INTRA.REPUL>
0

>  <SCORE.INTRA.REPUL.0>
0

>  <SCORE.INTRA.SOLV>
0.291793

>  <SCORE.INTRA.SOLV.lig_0>
-48.9722

>  <SCORE.INTRA.VDW>
0.036958

>  <SCORE.INTRA.VDW.0>
-0.529409

>  <SCORE.INTRA.norm>
0.0448736

>  <SCORE.RESTR>
0

>  <SCORE.RESTR.CAVITY>
0

>  <SCORE.RESTR.norm>
0

>  <SCORE.SYSTEM>
0

>  <SCORE.SYSTEM.CONST>
0

>  <SCORE.SYSTEM.DIHEDRAL>
0

>  <SCORE.SYSTEM.SOLV>
0

>  <SCORE.SYSTEM.norm>
0

>  <SCORE.heavy>
16

>  <SCORE.norm>
-0.711351

>  <RMSD>
1.486

$$$$
ligand
 OpenBabel11021811433D
libRbt.so/2013.1/901 2013/11/27
 16 16  0  0  0  0  0  0  0  0999 V2000
   48.7776   13.0627   10.3202 P   0  0  2  0  0  0  0  0  0  0  0  0
   49.5964   13.6805   11.3926 O   0  0  0  0  0  0  0  0  0  0  0  0
   49.3200   11.5764   10.0262 O   0  5  0  0  0  0  0  0  0  0  0  0
   48.9133   13.9532    8.9852 O   0  0  0  0  0  0  0  0  0  0  0  0
   44.3547   11.6694   14.4860 C   0  0  2  0  0  0  0  0  0  0  0  0
   43.5546   10.7915   13.6736 O   0  0  0  0  0  0  0  0  0  0  0  0
   43.7199   13.0816   14.5610 C   0  0  2  0  0  0  0  0  0  0  0  0
   42.3567   12.9893   15.0969 O   0  0  0  0  0  0  0  0  0  0  0  0
   43.6753   13.6732   13.1396 C   0  0  1  0  0  0  0  0  0  0  0  0
   43.0982   14.9839   13.1782 O   0  0  0  0  0  0  0  0  0  0  0  0
   45.1148   13.7552   12.6080 C   0  0  2  0  0  0  0  0  0  0  0  0
   45.0997   14.2971   11.2697 O   0  0  0  0  0  0  0  0  0  0  0  0
   45.7160   12.3227   12.5928 C   0  0  2  0  0  0  0  0  0  0  0  0
   45.7135   11.7664   13.9433 O   0  0  0  0  0  0  0  0  0  0  0  0
   47.1700   12.4004   12.0927 C   0  0  0  0  0  0  0  0  0  0  0  0
   47.2232   12.9792   10.7830 O   0  0  0  0  0  0  0  0  0  0  0  0
  1  2  1  1  0  0  0
  1  3  1  0  0  0  0
  1  4  2  0  0  0  0
  1 16  1  0  0  0  0
  5  6  1  6  0  0  0
  5  7  1  0  0  0  0
  5 14  1  0  0  0  0
  7  8  1  6  0  0  0
  7  9  1  0  0  0  0
  9 10  1  1  0  0  0
  9 11  1  0  0  0  0
 11 12  1  6  0  0  0
 11 13  1  0  0  0  0
 13 14  1  0  0  0  0
 13 15  1  1  0  0  0
 15 16  1  0  0  0  0
M  CHG  1   3  -1
M  END
>  <CHROM.1>
-58.52403372,178.90279103,-49.30779634,46.07817349,12.95014488,12.20080296
-0.33361448,-0.53228935,2.59435443

>  <Name>
ligand

>  <RI>
0

>  <Rbt.Current_Directory>
/home/itssahil/PROJECTS/Mol_Feturizer/New_Systems/rnas/2HO7

>  <Rbt.Executable>
rbdock ($Id: //depot/dev/client3/rdock/2013.1/src/exe/rbdock.cxx#4 $)

>  <Rbt.Library>
libRbt.so (2013.1, Build901 2013/11/27)

>  <Rbt.Parameter_File>
/export/apps/rDock/src/rDock_2013.1_src/data/scripts/dock_solv.prm

>  <Rbt.Receptor>
prm/pocket_docking_3.prm

>  <SCORE>
-10.5402

>  <SCORE.INTER>
-11.3572

>  <SCORE.INTER.CONST>
1

>  <SCORE.INTER.POLAR>
-1.29904

>  <SCORE.INTER.ROT>
3

>  <SCORE.INTER.SOLV>
12.548

>  <SCORE.INTER.VDW>
-13.024

>  <SCORE.INTER.norm>
-0.709827

>  <SCORE.INTRA>
0.817026

>  <SCORE.INTRA.DIHEDRAL>
0.187179

>  <SCORE.INTRA.DIHEDRAL.0>
0.00893466

>  <SCORE.INTRA.POLAR>
0

>  <SCORE.INTRA.POLAR.0>
0

>  <SCORE.INTRA.REPUL>
0

>  <SCORE.INTRA.REPUL.0>
0

>  <SCORE.INTRA.SOLV>
0.436482

>  <SCORE.INTRA.SOLV.lig_0>
-48.9722

>  <SCORE.INTRA.VDW>
0.505196

>  <SCORE.INTRA.VDW.0>
-0.529409

>  <SCORE.INTRA.norm>
0.0510641

>  <SCORE.RESTR>
0

>  <SCORE.RESTR.CAVITY>
0

>  <SCORE.RESTR.norm>
0

>  <SCORE.SYSTEM>
0

>  <SCORE.SYSTEM.CONST>
0

>  <SCORE.SYSTEM.DIHEDRAL>
0

>  <SCORE.SYSTEM.SOLV>
0

>  <SCORE.SYSTEM.norm>
0

>  <SCORE.heavy>
16

>  <SCORE.norm>
-0.658763

>  <RMSD>
1.494

$$$$
ligand
 OpenBabel11021811433D
libRbt.so/2013.1/901 2013/11/27
 16 16  0  0  0  0  0  0  0  0999 V2000
   49.0519   13.2890   10.8729 P   0  0  2  0  0  0  0  0  0  0  0  0
   48.6447   13.1706    9.4508 O   0  0  0  0  0  0  0  0  0  0  0  0
   49.8782   14.6546   11.0779 O   0  5  0  0  0  0  0  0  0  0  0  0
   49.9911   12.0362   11.2500 O   0  0  0  0  0  0  0  0  0  0  0  0
   44.8529   12.1545   14.7053 C   0  0  2  0  0  0  0  0  0  0  0  0
   44.0750   10.9630   14.4914 O   0  0  0  0  0  0  0  0  0  0  0  0
   44.0117   13.4223   14.4086 C   0  0  2  0  0  0  0  0  0  0  0  0
   42.8122   13.4357   15.2541 O   0  0  0  0  0  0  0  0  0  0  0  0
   43.5960   13.3967   12.9257 C   0  0  1  0  0  0  0  0  0  0  0  0
   42.8210   14.5621   12.6196 O   0  0  0  0  0  0  0  0  0  0  0  0
   44.8718   13.3820   12.0693 C   0  0  2  0  0  0  0  0  0  0  0  0
   44.5090   13.3462   10.6722 O   0  0  0  0  0  0  0  0  0  0  0  0
   45.6955   12.1165   12.4353 C   0  0  2  0  0  0  0  0  0  0  0  0
   46.0461   12.1424   13.8529 O   0  0  0  0  0  0  0  0  0  0  0  0
   46.9921   12.1116   11.6053 C   0  0  0  0  0  0  0  0  0  0  0  0
   47.7392   13.3136   11.8289 O   0  0  0  0  0  0  0  0  0  0  0  0
  1  2  1  6  0  0  0
  1  3  1  0  0  0  0
  1  4  2  0  0  0  0
  1 16  1  0  0  0  0
  5  6  1  6  0  0  0
  5  7  1  0  0  0  0
  5 14  1  0  0  0  0
  7  8  1  1  0  0  0
  7  9  1  0  0  0  0
  9 10  1  6  0  0  0
  9 11  1  0  0  0  0
 11 12  1  6  0  0  0
 11 13  1  0  0  0  0
 13 14  1  0  0  0  0
 13 15  1  6  0  0  0
 15 16  1  0  0  0  0
M  CHG  1   3  -1
M  END
>  <CHROM.1>
56.92242627,-177.06677357,58.27730791,46.22801201,12.99845766,12.33341331
-0.44706183,-0.28653408,2.18322399

>  <Name>
ligand

>  <RI>
0

>  <Rbt.Current_Directory>
/home/itssahil/PROJECTS/Mol_Feturizer/New_Systems/rnas/2HO7

>  <Rbt.Executable>
rbdock ($Id: //depot/dev/client3/rdock/2013.1/src/exe/rbdock.cxx#4 $)

>  <Rbt.Library>
libRbt.so (2013.1, Build901 2013/11/27)

>  <Rbt.Parameter_File>
/export/apps/rDock/src/rDock_2013.1_src/data/scripts/dock_solv.prm

>  <Rbt.Receptor>
prm/blind_docking_60.prm

>  <SCORE>
-11.4604

>  <SCORE.INTER>
-11.5339

>  <SCORE.INTER.CONST>
1

>  <SCORE.INTER.POLAR>
-1.29904

>  <SCORE.INTER.ROT>
3

>  <SCORE.INTER.SOLV>
12.5557

>  <SCORE.INTER.VDW>
-13.1444

>  <SCORE.INTER.norm>
-0.72087

>  <SCORE.INTRA>
0.0735036

>  <SCORE.INTRA.DIHEDRAL>
0.0730812

>  <SCORE.INTRA.DIHEDRAL.0>
0.00893466

>  <SCORE.INTRA.POLAR>
0

>  <SCORE.INTRA.POLAR.0>
0

>  <SCORE.INTRA.REPUL>
0

>  <SCORE.INTRA.REPUL.0>
0

>  <SCORE.INTRA.SOLV>
0.211327

>  <SCORE.INTRA.SOLV.lig_0>
-48.9722

>  <SCORE.INTRA.VDW>
-0.0687006

>  <SCORE.INTRA.VDW.0>
-0.529409

>  <SCORE.INTRA.norm>
0.00459397

>  <SCORE.RESTR>
0

>  <SCORE.RESTR.CAVITY>
0

>  <SCORE.RESTR.norm>
0

>  <SCORE.SYSTEM>
0

>  <SCORE.SYSTEM.CONST>
0

>  <SCORE.SYSTEM.DIHEDRAL>
0

>  <SCORE.SYSTEM.SOLV>
0

>  <SCORE.SYSTEM.norm>
0

>  <SCORE.heavy>
16

>  <SCORE.norm>
-0.716276

>  <RMSD>
1.502

$$$$
ligand
 OpenBabel11021811433D
libRbt.so/2013.1/901 2013/11/27
 16 16  0  0  0  0  0  0  0  0999 V2000
   48.9998   13.3538   10.6530 P   0  0  2  0  0  0  0  0  0  0  0  0
   48.4588   13.3535    9.2711 O   0  0  0  0  0  0  0  0  0  0  0  0
   49.8506   14.6989   10.8908 O   0  5  0  0  0  0  0  0  0  0  0  0
   49.9623   12.0755   10.8341 O   0  0  0  0  0  0  0  0  0  0  0  0
   44.9497   12.0470   14.6418 C   0  0  2  0  0  0  0  0  0  0  0  0
   44.1484   10.8779   14.3934 O   0  0  0  0  0  0  0  0  0  0  0  0
   44.1257   13.3393   14.4096 C   0  0  2  0  0  0  0  0  0  0  0  0
   42.9400   13.3384   15.2747 O   0  0  0  0  0  0  0  0  0  0  0  0
   43.6862   13.3800   12.9340 C   0  0  1  0  0  0  0  0  0  0  0  0
   42.9264   14.5693   12.6874 O   0  0  0  0  0  0  0  0  0  0  0  0
   44.9479   13.3787   12.0568 C   0  0  2  0  0  0  0  0  0  0  0  0
   44.5625   13.4050   10.6655 O   0  0  0  0  0  0  0  0  0  0  0  0
   45.7556   12.0863   12.3584 C   0  0  2  0  0  0  0  0  0  0  0  0
   46.1290   12.0495   13.7700 O   0  0  0  0  0  0  0  0  0  0  0  0
   47.0387   12.0934   11.5076 C   0  0  0  0  0  0  0  0  0  0  0  0
   47.7839   13.2972   11.7282 O   0  0  0  0  0  0  0  0  0  0  0  0
  1  2  1  6  0  0  0
  1  3  1  0  0  0  0
  1  4  2  0  0  0  0
  1 16  1  0  0  0  0
  5  6  1  6  0  0  0
  5  7  1  0  0  0  0
  5 14  1  0  0  0  0
  7  8  1  1  0  0  0
  7  9  1  0  0  0  0
  9 10  1  1  0  0  0
  9 11  1  0  0  0  0
 11 12  1  6  0  0  0
 11 13  1  0  0  0  0
 13 14  1  0  0  0  0
 13 15  1  6  0  0  0
 15 16  1  0  0  0  0
M  CHG  1   3  -1
M  END
>  <CHROM.1>
54.69232890,-171.69028025,60.25325640,46.26209727,12.99558081,12.23196601
-0.48078649,-0.32656775,2.23879821

>  <Name>
ligand

>  <RI>
0

>  <Rbt.Current_Directory>
/home/itssahil/PROJECTS/Mol_Feturizer/New_Systems/rnas/2HO7

>  <Rbt.Executable>
rbdock ($Id: //depot/dev/client3/rdock/2013.1/src/exe/rbdock.cxx#4 $)

>  <Rbt.Library>
libRbt.so (2013.1, Build901 2013/11/27)

>  <Rbt.Parameter_File>
/export/apps/rDock/src/rDock_2013.1_src/data/scripts/dock_solv.prm

>  <Rbt.Receptor>
prm/blind_docking_60.prm

>  <SCORE>
-11.3073

>  <SCORE.INTER>
-11.5801

>  <SCORE.INTER.CONST>
1

>  <SCORE.INTER.POLAR>
-1.29904

>  <SCORE.INTER.ROT>
3

>  <SCORE.INTER.SOLV>
11.5005

>  <SCORE.INTER.VDW>
-12.8234

>  <SCORE.INTER.norm>
-0.723755

>  <SCORE.INTRA>
0.272809

>  <SCORE.INTRA.DIHEDRAL>
0.428431

>  <SCORE.INTRA.DIHEDRAL.0>
0.00893466

>  <SCORE.INTRA.POLAR>
0

>  <SCORE.INTRA.POLAR.0>
0

>  <SCORE.INTRA.REPUL>
0

>  <SCORE.INTRA.REPUL.0>
0

>  <SCORE.INTRA.SOLV>
0.273631

>  <SCORE.INTRA.SOLV.lig_0>
-48.9722

>  <SCORE.INTRA.VDW>
-0.0782229

>  <SCORE.INTRA.VDW.0>
-0.529409

>  <SCORE.INTRA.norm>
0.0170505

>  <SCORE.RESTR>
0

>  <SCORE.RESTR.CAVITY>
0

>  <SCORE.RESTR.norm>
0

>  <SCORE.SYSTEM>
0

>  <SCORE.SYSTEM.CONST>
0

>  <SCORE.SYSTEM.DIHEDRAL>
0

>  <SCORE.SYSTEM.SOLV>
0

>  <SCORE.SYSTEM.norm>
0

>  <SCORE.heavy>
16

>  <SCORE.norm>
-0.706704

>  <RMSD>
1.524

$$$$
ligand
 OpenBabel11021811433D
libRbt.so/2013.1/901 2013/11/27
 16 16  0  0  0  0  0  0  0  0999 V2000
   48.9619   13.3290   10.6487 P   0  0  2  0  0  0  0  0  0  0  0  0
   48.4605   13.2830    9.2528 O   0  0  0  0  0  0  0  0  0  0  0  0
   49.8068   14.6813   10.8663 O   0  5  0  0  0  0  0  0  0  0  0  0
   49.9179   12.0574   10.8992 O   0  0  0  0  0  0  0  0  0  0  0  0
   44.9537   12.1120   14.6634 C   0  0  2  0  0  0  0  0  0  0  0  0
   44.1887   10.9070   14.4810 O   0  0  0  0  0  0  0  0  0  0  0  0
   44.0800   13.3647   14.3983 C   0  0  2  0  0  0  0  0  0  0  0  0
   42.9140   13.3589   15.2896 O   0  0  0  0  0  0  0  0  0  0  0  0
   43.6076   13.3296   12.9326 C   0  0  1  0  0  0  0  0  0  0  0  0
   42.8014   14.4810   12.6557 O   0  0  0  0  0  0  0  0  0  0  0  0
   44.8494   13.3354   12.0275 C   0  0  2  0  0  0  0  0  0  0  0  0
   44.4334   13.2911   10.6455 O   0  0  0  0  0  0  0  0  0  0  0  0
   45.7084   12.0848   12.3625 C   0  0  2  0  0  0  0  0  0  0  0  0
   46.1131   12.1190   13.7654 O   0  0  0  0  0  0  0  0  0  0  0  0
   46.9717   12.1008   11.4829 C   0  0  0  0  0  0  0  0  0  0  0  0
   47.7159   13.3076   11.6901 O   0  0  0  0  0  0  0  0  0  0  0  0
  1  2  1  6  0  0  0
  1  3  1  0  0  0  0
  1  4  2  0  0  0  0
  1 16  1  0  0  0  0
  5  6  1  6  0  0  0
  5  7  1  0  0  0  0
  5 14  1  0  0  0  0
  7  8  1  1  0  0  0
  7  9  1  0  0  0  0
  9 10  1  6  0  0  0
  9 11  1  0  0  0  0
 11 12  1  6  0  0  0
 11 13  1  0  0  0  0
 13 14  1  0  0  0  0
 13 15  1  6  0  0  0
 15 16  1  0  0  0  0
M  CHG  1   3  -1
M  END
>  <CHROM.1>
57.72711852,-175.16532532,59.91987491,46.21432010,12.98144792,12.23116323
-0.49583052,-0.29687376,2.17219347

>  <Name>
ligand

>  <RI>
0

>  <Rbt.Current_Directory>
/home/itssahil/PROJECTS/Mol_Feturizer/New_Systems/rnas/2HO7

>  <Rbt.Executable>
rbdock ($Id: //depot/dev/client3/rdock/2013.1/src/exe/rbdock.cxx#4 $)

>  <Rbt.Library>
libRbt.so (2013.1, Build901 2013/11/27)

>  <Rbt.Parameter_File>
/export/apps/rDock/src/rDock_2013.1_src/data/scripts/dock_solv.prm

>  <Rbt.Receptor>
prm/pocket_docking_4.prm

>  <SCORE>
-11.4607

>  <SCORE.INTER>
-11.541

>  <SCORE.INTER.CONST>
1

>  <SCORE.INTER.POLAR>
-1.29789

>  <SCORE.INTER.ROT>
3

>  <SCORE.INTER.SOLV>
11.5921

>  <SCORE.INTER.VDW>
-12.8318

>  <SCORE.INTER.norm>
-0.721315

>  <SCORE.INTRA>
0.0803239

>  <SCORE.INTRA.DIHEDRAL>
0.124827

>  <SCORE.INTRA.DIHEDRAL.0>
0.00893466

>  <SCORE.INTRA.POLAR>
0

>  <SCORE.INTRA.POLAR.0>
0

>  <SCORE.INTRA.REPUL>
0

>  <SCORE.INTRA.REPUL.0>
0

>  <SCORE.INTRA.SOLV>
0.223382

>  <SCORE.INTRA.SOLV.lig_0>
-48.9722

>  <SCORE.INTRA.VDW>
-0.0937804

>  <SCORE.INTRA.VDW.0>
-0.529409

>  <SCORE.INTRA.norm>
0.00502024

>  <SCORE.RESTR>
0

>  <SCORE.RESTR.CAVITY>
0

>  <SCORE.RESTR.norm>
0

>  <SCORE.SYSTEM>
0

>  <SCORE.SYSTEM.CONST>
0

>  <SCORE.SYSTEM.DIHEDRAL>
0

>  <SCORE.SYSTEM.SOLV>
0

>  <SCORE.SYSTEM.norm>
0

>  <SCORE.heavy>
16

>  <SCORE.norm>
-0.716295

>  <RMSD>
1.526

$$$$
ligand
 OpenBabel11021811433D
libRbt.so/2013.1/901 2013/11/27
 16 16  0  0  0  0  0  0  0  0999 V2000
   48.9410   13.1573   10.5662 P   0  0  2  0  0  0  0  0  0  0  0  0
   48.5460   12.7936    9.1828 O   0  0  0  0  0  0  0  0  0  0  0  0
   49.6495   14.6022   10.5547 O   0  5  0  0  0  0  0  0  0  0  0  0
   49.9818   12.0578   11.1151 O   0  0  0  0  0  0  0  0  0  0  0  0
   45.0549   12.2212   14.7220 C   0  0  2  0  0  0  0  0  0  0  0  0
   44.4150   10.9325   14.7474 O   0  0  0  0  0  0  0  0  0  0  0  0
   44.0514   13.3265   14.3044 C   0  0  2  0  0  0  0  0  0  0  0  0
   42.9100   13.3400   15.2271 O   0  0  0  0  0  0  0  0  0  0  0  0
   43.5565   13.0233   12.8777 C   0  0  1  0  0  0  0  0  0  0  0  0
   42.6303   14.0338   12.4612 O   0  0  0  0  0  0  0  0  0  0  0  0
   44.7729   13.0151   11.9388 C   0  0  2  0  0  0  0  0  0  0  0  0
   44.3366   12.7212   10.5942 O   0  0  0  0  0  0  0  0  0  0  0  0
   45.7629   11.9211   12.4256 C   0  0  2  0  0  0  0  0  0  0  0  0
   46.1894   12.2072   13.7929 O   0  0  0  0  0  0  0  0  0  0  0  0
   47.0003   11.9290   11.5097 C   0  0  0  0  0  0  0  0  0  0  0  0
   47.6303   13.2158   11.5235 O   0  0  0  0  0  0  0  0  0  0  0  0
  1  2  1  6  0  0  0
  1  3  1  0  0  0  0
  1  4  2  0  0  0  0
  1 16  1  0  0  0  0
  5  6  1  6  0  0  0
  5  7  1  0  0  0  0
  5 14  1  0  0  0  0
  7  8  1  1  0  0  0
  7  9  1  0  0  0  0
  9 10  1  6  0  0  0
  9 11  1  0  0  0  0
 11 12  1  6  0  0  0
 11 13  1  0  0  0  0
 13 14  1  0  0  0  0
 13 15  1  6  0  0  0
 15 16  1  0  0  0  0
M  CHG  1   3  -1
M  END
>  <CHROM.1>
58.51663546,178.91498380,59.28715525,46.20936191,12.81454908,12.19483387
-0.54265369,-0.20658558,1.98709271

>  <Name>
ligand

>  <RI>
0

>  <Rbt.Current_Directory>
/home/itssahil/PROJECTS/Mol_Feturizer/New_Systems/rnas/2HO7

>  <Rbt.Executable>
rbdock ($Id: //depot/dev/client3/rdock/2013.1/src/exe/rbdock.cxx#4 $)

>  <Rbt.Library>
libRbt.so (2013.1, Build901 2013/11/27)

>  <Rbt.Parameter_File>
/export/apps/rDock/src/rDock_2013.1_src/data/scripts/dock_solv.prm

>  <Rbt.Receptor>
prm/pocket_docking_4.prm

>  <SCORE>
-11.2979

>  <SCORE.INTER>
-11.3389

>  <SCORE.INTER.CONST>
1

>  <SCORE.INTER.POLAR>
-1.29904

>  <SCORE.INTER.ROT>
3

>  <SCORE.INTER.SOLV>
11.8269

>  <SCORE.INTER.VDW>
-12.7715

>  <SCORE.INTER.norm>
-0.708682

>  <SCORE.INTRA>
0.0410187

>  <SCORE.INTRA.DIHEDRAL>
0.00600855

>  <SCORE.INTRA.DIHEDRAL.0>
0.00893466

>  <SCORE.INTRA.POLAR>
0

>  <SCORE.INTRA.POLAR.0>
0

>  <SCORE.INTRA.REPUL>
0

>  <SCORE.INTRA.REPUL.0>
0

>  <SCORE.INTRA.SOLV>
0.234006

>  <SCORE.INTRA.SOLV.lig_0>
-48.9722

>  <SCORE.INTRA.VDW>
-0.0789886

>  <SCORE.INTRA.VDW.0>
-0.529409

>  <SCORE.INTRA.norm>
0.00256367

>  <SCORE.RESTR>
0

>  <SCORE.RESTR.CAVITY>
0

>  <SCORE.RESTR.norm>
0

>  <SCORE.SYSTEM>
0

>  <SCORE.SYSTEM.CONST>
0

>  <SCORE.SYSTEM.DIHEDRAL>
0

>  <SCORE.SYSTEM.SOLV>
0

>  <SCORE.SYSTEM.norm>
0

>  <SCORE.heavy>
16

>  <SCORE.norm>
-0.706118

>  <RMSD>
1.528

$$$$
ligand
 OpenBabel11021811433D
libRbt.so/2013.1/901 2013/11/27
 16 16  0  0  0  0  0  0  0  0999 V2000
   48.9935   13.0556   10.6106 P   0  0  2  0  0  0  0  0  0  0  0  0
   49.7856   13.5604   11.7595 O   0  0  0  0  0  0  0  0  0  0  0  0
   49.7726   11.8244    9.9273 O   0  5  0  0  0  0  0  0  0  0  0  0
   48.8248   14.2422    9.5349 O   0  0  0  0  0  0  0  0  0  0  0  0
   44.5204   12.2063   14.1178 C   0  0  2  0  0  0  0  0  0  0  0  0
   43.8190   11.2256   13.3324 O   0  0  0  0  0  0  0  0  0  0  0  0
   43.6179   13.4348   14.3993 C   0  0  2  0  0  0  0  0  0  0  0  0
   42.3935   13.0086   15.0873 O   0  0  0  0  0  0  0  0  0  0  0  0
   43.2511   14.0899   13.0544 C   0  0  1  0  0  0  0  0  0  0  0  0
   42.4207   15.2346   13.2835 O   0  0  0  0  0  0  0  0  0  0  0  0
   44.5519   14.5227   12.3602 C   0  0  2  0  0  0  0  0  0  0  0  0
   44.2358   15.1307   11.0893 O   0  0  0  0  0  0  0  0  0  0  0  0
   45.4347   13.2633   12.1401 C   0  0  2  0  0  0  0  0  0  0  0  0
   45.7386   12.6366   13.4239 O   0  0  0  0  0  0  0  0  0  0  0  0
   46.7549   13.6932   11.4750 C   0  0  0  0  0  0  0  0  0  0  0  0
   47.5369   12.5470   11.1177 O   0  0  0  0  0  0  0  0  0  0  0  0
  1  2  1  1  0  0  0
  1  3  1  0  0  0  0
  1  4  2  0  0  0  0
  1 16  1  0  0  0  0
  5  6  1  6  0  0  0
  5  7  1  0  0  0  0
  5 14  1  0  0  0  0
  7  8  1  6  0  0  0
  7  9  1  0  0  0  0
  9 10  1  1  0  0  0
  9 11  1  0  0  0  0
 11 12  1  6  0  0  0
 11 13  1  0  0  0  0
 13 14  1  0  0  0  0
 13 15  1  1  0  0  0
 15 16  1  0  0  0  0
M  CHG  1   3  -1
M  END
>  <CHROM.1>
-173.56126174,-172.39226041,71.49611276,45.99794189,13.32576278,12.14775768
-0.22782911,-0.46037303,2.51723966

>  <Name>
ligand

>  <RI>
0

>  <Rbt.Current_Directory>
/home/itssahil/PROJECTS/Mol_Feturizer/New_Systems/rnas/2HO7

>  <Rbt.Executable>
rbdock ($Id: //depot/dev/client3/rdock/2013.1/src/exe/rbdock.cxx#4 $)

>  <Rbt.Library>
libRbt.so (2013.1, Build901 2013/11/27)

>  <Rbt.Parameter_File>
/export/apps/rDock/src/rDock_2013.1_src/data/scripts/dock_solv.prm

>  <Rbt.Receptor>
prm/pocket_docking_5.prm

>  <SCORE>
-9.86485

>  <SCORE.INTER>
-10.2336

>  <SCORE.INTER.CONST>
1

>  <SCORE.INTER.POLAR>
-1.29904

>  <SCORE.INTER.ROT>
3

>  <SCORE.INTER.SOLV>
10.7665

>  <SCORE.INTER.VDW>
-11.6811

>  <SCORE.INTER.norm>
-0.639598

>  <SCORE.INTRA>
0.368711

>  <SCORE.INTRA.DIHEDRAL>
0.631082

>  <SCORE.INTRA.DIHEDRAL.0>
0.00893466

>  <SCORE.INTRA.POLAR>
0

>  <SCORE.INTRA.POLAR.0>
0

>  <SCORE.INTRA.REPUL>
0

>  <SCORE.INTRA.REPUL.0>
0

>  <SCORE.INTRA.SOLV>
0.103848

>  <SCORE.INTRA.SOLV.lig_0>
-48.9722

>  <SCORE.INTRA.VDW>
0.00124563

>  <SCORE.INTRA.VDW.0>
-0.529409

>  <SCORE.INTRA.norm>
0.0230444

>  <SCORE.RESTR>
0

>  <SCORE.RESTR.CAVITY>
0

>  <SCORE.RESTR.norm>
0

>  <SCORE.SYSTEM>
0

>  <SCORE.SYSTEM.CONST>
0

>  <SCORE.SYSTEM.DIHEDRAL>
0

>  <SCORE.SYSTEM.SOLV>
0

>  <SCORE.SYSTEM.norm>
0

>  <SCORE.heavy>
16

>  <SCORE.norm>
-0.616553

>  <RMSD>
1.532

$$$$
ligand
 OpenBabel11021811433D
libRbt.so/2013.1/901 2013/11/27
 16 16  0  0  0  0  0  0  0  0999 V2000
   48.9975   13.2865   10.8386 P   0  0  2  0  0  0  0  0  0  0  0  0
   48.5779   13.1805    9.4191 O   0  0  0  0  0  0  0  0  0  0  0  0
   49.8411   14.6415   11.0441 O   0  5  0  0  0  0  0  0  0  0  0  0
   49.9251   12.0211   11.2017 O   0  0  0  0  0  0  0  0  0  0  0  0
   44.8300   12.1247   14.7196 C   0  0  2  0  0  0  0  0  0  0  0  0
   44.0214   10.9590   14.4789 O   0  0  0  0  0  0  0  0  0  0  0  0
   44.0185   13.4205   14.4638 C   0  0  2  0  0  0  0  0  0  0  0  0
   42.8253   13.4401   15.3183 O   0  0  0  0  0  0  0  0  0  0  0  0
   43.5923   13.4460   12.9839 C   0  0  1  0  0  0  0  0  0  0  0  0
   42.8444   14.6380   12.7156 O   0  0  0  0  0  0  0  0  0  0  0  0
   44.8616   13.4235   12.1180 C   0  0  2  0  0  0  0  0  0  0  0  0
   44.4886   13.4351   10.7232 O   0  0  0  0  0  0  0  0  0  0  0  0
   45.6562   12.1285   12.4432 C   0  0  2  0  0  0  0  0  0  0  0  0
   46.0168   12.1068   13.8583 O   0  0  0  0  0  0  0  0  0  0  0  0
   46.9466   12.1146   11.6038 C   0  0  0  0  0  0  0  0  0  0  0  0
   47.6927   13.3213   11.8049 O   0  0  0  0  0  0  0  0  0  0  0  0
  1  2  1  6  0  0  0
  1  3  1  0  0  0  0
  1  4  2  0  0  0  0
  1 16  1  0  0  0  0
  5  6  1  6  0  0  0
  5  7  1  0  0  0  0
  5 14  1  0  0  0  0
  7  8  1  1  0  0  0
  7  9  1  0  0  0  0
  9 10  1  1  0  0  0
  9 11  1  0  0  0  0
 11 12  1  6  0  0  0
 11 13  1  0  0  0  0
 13 14  1  0  0  0  0
 13 15  1  6  0  0  0
 15 16  1  0  0  0  0
M  CHG  1   3  -1
M  END
>  <CHROM.1>
54.08676005,-177.00679564,59.61757746,46.19750559,13.00945000,12.34275604
-0.44795840,-0.31666123,2.21898197

>  <Name>
ligand

>  <RI>
0

>  <Rbt.Current_Directory>
/home/itssahil/PROJECTS/Mol_Feturizer/New_Systems/rnas/2HO7

>  <Rbt.Executable>
rbdock ($Id: //depot/dev/client3/rdock/2013.1/src/exe/rbdock.cxx#4 $)

>  <Rbt.Library>
libRbt.so (2013.1, Build901 2013/11/27)

>  <Rbt.Parameter_File>
/export/apps/rDock/src/rDock_2013.1_src/data/scripts/dock_solv.prm

>  <Rbt.Receptor>
prm/pocket_docking_4.prm

>  <SCORE>
-11.3613

>  <SCORE.INTER>
-11.5108

>  <SCORE.INTER.CONST>
1

>  <SCORE.INTER.POLAR>
-1.29904

>  <SCORE.INTER.ROT>
3

>  <SCORE.INTER.SOLV>
12.5462

>  <SCORE.INTER.VDW>
-13.1258

>  <SCORE.INTER.norm>
-0.719427

>  <SCORE.INTRA>
0.149578

>  <SCORE.INTRA.DIHEDRAL>
0.161616

>  <SCORE.INTRA.DIHEDRAL.0>
0.00893466

>  <SCORE.INTRA.POLAR>
0

>  <SCORE.INTRA.POLAR.0>
0

>  <SCORE.INTRA.REPUL>
0

>  <SCORE.INTRA.REPUL.0>
0

>  <SCORE.INTRA.SOLV>
0.22997

>  <SCORE.INTRA.SOLV.lig_0>
-48.9722

>  <SCORE.INTRA.VDW>
-0.0462152

>  <SCORE.INTRA.VDW.0>
-0.529409

>  <SCORE.INTRA.norm>
0.00934863

>  <SCORE.RESTR>
0

>  <SCORE.RESTR.CAVITY>
0

>  <SCORE.RESTR.norm>
0

>  <SCORE.SYSTEM>
0

>  <SCORE.SYSTEM.CONST>
0

>  <SCORE.SYSTEM.DIHEDRAL>
0

>  <SCORE.SYSTEM.SOLV>
0

>  <SCORE.SYSTEM.norm>
0

>  <SCORE.heavy>
16

>  <SCORE.norm>
-0.710078

>  <RMSD>
1.536

$$$$
ligand
 OpenBabel11021811433D
libRbt.so/2013.1/901 2013/11/27
 16 16  0  0  0  0  0  0  0  0999 V2000
   48.8637   13.2822   10.5675 P   0  0  2  0  0  0  0  0  0  0  0  0
   48.3239   13.1989    9.1877 O   0  0  0  0  0  0  0  0  0  0  0  0
   49.6889   14.6537   10.7339 O   0  5  0  0  0  0  0  0  0  0  0  0
   49.8500   12.0335   10.8154 O   0  0  0  0  0  0  0  0  0  0  0  0
   44.9708   12.1800   14.7190 C   0  0  2  0  0  0  0  0  0  0  0  0
   44.2844   10.9168   14.6568 O   0  0  0  0  0  0  0  0  0  0  0  0
   44.0151   13.3449   14.3545 C   0  0  2  0  0  0  0  0  0  0  0  0
   42.8595   13.3453   15.2594 O   0  0  0  0  0  0  0  0  0  0  0  0
   43.5338   13.1465   12.9049 C   0  0  1  0  0  0  0  0  0  0  0  0
   42.6520   14.2140   12.5369 O   0  0  0  0  0  0  0  0  0  0  0  0
   44.7649   13.1497   11.9853 C   0  0  2  0  0  0  0  0  0  0  0  0
   44.3411   12.9535   10.6190 O   0  0  0  0  0  0  0  0  0  0  0  0
   45.7062   11.9923   12.4193 C   0  0  2  0  0  0  0  0  0  0  0  0
   46.1196   12.1797   13.8076 O   0  0  0  0  0  0  0  0  0  0  0  0
   46.9584   12.0093   11.5239 C   0  0  0  0  0  0  0  0  0  0  0  0
   47.6483   13.2594   11.6445 O   0  0  0  0  0  0  0  0  0  0  0  0
  1  2  1  6  0  0  0
  1  3  1  0  0  0  0
  1  4  2  0  0  0  0
  1 16  1  0  0  0  0
  5  6  1  6  0  0  0
  5  7  1  0  0  0  0
  5 14  1  0  0  0  0
  7  8  1  1  0  0  0
  7  9  1  0  0  0  0
  9 10  1  6  0  0  0
  9 11  1  0  0  0  0
 11 12  1  6  0  0  0
 11 13  1  0  0  0  0
 13 14  1  0  0  0  0
 13 15  1  6  0  0  0
 15 16  1  0  0  0  0
M  CHG  1   3  -1
M  END
>  <CHROM.1>
59.61553668,-174.08402466,62.51020126,46.15416646,12.90346995,12.20556075
-0.53892369,-0.24546744,2.06774225

>  <Name>
ligand

>  <RI>
0

>  <Rbt.Current_Directory>
/home/itssahil/PROJECTS/Mol_Feturizer/New_Systems/rnas/2HO7

>  <Rbt.Executable>
rbdock ($Id: //depot/dev/client3/rdock/2013.1/src/exe/rbdock.cxx#4 $)

>  <Rbt.Library>
libRbt.so (2013.1, Build901 2013/11/27)

>  <Rbt.Parameter_File>
/export/apps/rDock/src/rDock_2013.1_src/data/scripts/dock_solv.prm

>  <Rbt.Receptor>
prm/pocket_docking_8.prm

>  <SCORE>
-11.4607

>  <SCORE.INTER>
-11.5491

>  <SCORE.INTER.CONST>
1

>  <SCORE.INTER.POLAR>
-1.29904

>  <SCORE.INTER.ROT>
3

>  <SCORE.INTER.SOLV>
11.6484

>  <SCORE.INTER.VDW>
-12.8521

>  <SCORE.INTER.norm>
-0.721819

>  <SCORE.INTRA>
0.0884345

>  <SCORE.INTRA.DIHEDRAL>
0.173242

>  <SCORE.INTRA.DIHEDRAL.0>
0.00893466

>  <SCORE.INTRA.POLAR>
0

>  <SCORE.INTRA.POLAR.0>
0

>  <SCORE.INTRA.REPUL>
0

>  <SCORE.INTRA.REPUL.0>
0

>  <SCORE.INTRA.SOLV>
0.24741

>  <SCORE.INTRA.SOLV.lig_0>
-48.9722

>  <SCORE.INTRA.VDW>
-0.121891

>  <SCORE.INTRA.VDW.0>
-0.529409

>  <SCORE.INTRA.norm>
0.00552716

>  <SCORE.RESTR>
0

>  <SCORE.RESTR.CAVITY>
0

>  <SCORE.RESTR.norm>
0

>  <SCORE.SYSTEM>
0

>  <SCORE.SYSTEM.CONST>
0

>  <SCORE.SYSTEM.DIHEDRAL>
0

>  <SCORE.SYSTEM.SOLV>
0

>  <SCORE.SYSTEM.norm>
0

>  <SCORE.heavy>
16

>  <SCORE.norm>
-0.716291

>  <RMSD>
1.540

$$$$
ligand
 OpenBabel11021811433D
libRbt.so/2013.1/901 2013/11/27
 16 16  0  0  0  0  0  0  0  0999 V2000
   48.8947   13.2966   10.5562 P   0  0  2  0  0  0  0  0  0  0  0  0
   48.3877   13.2094    9.1642 O   0  0  0  0  0  0  0  0  0  0  0  0
   49.7351   14.6578   10.7320 O   0  5  0  0  0  0  0  0  0  0  0  0
   49.8568   12.0363   10.8382 O   0  0  0  0  0  0  0  0  0  0  0  0
   44.9604   12.2508   14.6737 C   0  0  2  0  0  0  0  0  0  0  0  0
   44.2697   10.9897   14.6173 O   0  0  0  0  0  0  0  0  0  0  0  0
   44.0101   13.4167   14.2986 C   0  0  2  0  0  0  0  0  0  0  0  0
   42.8516   13.4270   15.1997 O   0  0  0  0  0  0  0  0  0  0  0  0
   43.5327   13.2108   12.8488 C   0  0  1  0  0  0  0  0  0  0  0  0
   42.6559   14.2789   12.4711 O   0  0  0  0  0  0  0  0  0  0  0  0
   44.7667   13.2036   11.9331 C   0  0  2  0  0  0  0  0  0  0  0  0
   44.3466   13.0002   10.5668 O   0  0  0  0  0  0  0  0  0  0  0  0
   45.7025   12.0457   12.3776 C   0  0  2  0  0  0  0  0  0  0  0  0
   46.1121   12.2406   13.7660 O   0  0  0  0  0  0  0  0  0  0  0  0
   46.9577   12.0525   11.4862 C   0  0  0  0  0  0  0  0  0  0  0  0
   47.6531   13.2998   11.6030 O   0  0  0  0  0  0  0  0  0  0  0  0
  1  2  1  6  0  0  0
  1  3  1  0  0  0  0
  1  4  2  0  0  0  0
  1 16  1  0  0  0  0
  5  6  1  6  0  0  0
  5  7  1  0  0  0  0
  5 14  1  0  0  0  0
  7  8  1  1  0  0  0
  7  9  1  0  0  0  0
  9 10  1  6  0  0  0
  9 11  1  0  0  0  0
 11 12  1  6  0  0  0
 11 13  1  0  0  0  0
 13 14  1  0  0  0  0
 13 15  1  6  0  0  0
 15 16  1  0  0  0  0
M  CHG  1   3  -1
M  END
>  <CHROM.1>
59.73444672,-175.49342634,63.15269230,46.16332118,12.94795728,12.17014889
-0.52753664,-0.24385726,2.05876812

>  <Name>
ligand

>  <RI>
0

>  <Rbt.Current_Directory>
/home/itssahil/PROJECTS/Mol_Feturizer/New_Systems/rnas/2HO7

>  <Rbt.Executable>
rbdock ($Id: //depot/dev/client3/rdock/2013.1/src/exe/rbdock.cxx#4 $)

>  <Rbt.Library>
libRbt.so (2013.1, Build901 2013/11/27)

>  <Rbt.Parameter_File>
/export/apps/rDock/src/rDock_2013.1_src/data/scripts/dock_solv.prm

>  <Rbt.Receptor>
prm/pocket_docking_3.prm

>  <SCORE>
-11.4228

>  <SCORE.INTER>
-11.4861

>  <SCORE.INTER.CONST>
1

>  <SCORE.INTER.POLAR>
-1.29753

>  <SCORE.INTER.ROT>
3

>  <SCORE.INTER.SOLV>
11.3477

>  <SCORE.INTER.VDW>
-12.7149

>  <SCORE.INTER.norm>
-0.717884

>  <SCORE.INTRA>
0.0633289

>  <SCORE.INTRA.DIHEDRAL>
0.107279

>  <SCORE.INTRA.DIHEDRAL.0>
0.00893466

>  <SCORE.INTRA.POLAR>
0

>  <SCORE.INTRA.POLAR.0>
0

>  <SCORE.INTRA.REPUL>
0

>  <SCORE.INTRA.REPUL.0>
0

>  <SCORE.INTRA.SOLV>
0.255566

>  <SCORE.INTRA.SOLV.lig_0>
-48.9722

>  <SCORE.INTRA.VDW>
-0.118093

>  <SCORE.INTRA.VDW.0>
-0.529409

>  <SCORE.INTRA.norm>
0.00395806

>  <SCORE.RESTR>
0

>  <SCORE.RESTR.CAVITY>
0

>  <SCORE.RESTR.norm>
0

>  <SCORE.SYSTEM>
0

>  <SCORE.SYSTEM.CONST>
0

>  <SCORE.SYSTEM.DIHEDRAL>
0

>  <SCORE.SYSTEM.SOLV>
0

>  <SCORE.SYSTEM.norm>
0

>  <SCORE.heavy>
16

>  <SCORE.norm>
-0.713926

>  <RMSD>
1.543

$$$$
ligand
 OpenBabel11021811433D
libRbt.so/2013.1/901 2013/11/27
 16 16  0  0  0  0  0  0  0  0999 V2000
   48.8977   13.0772   10.3395 P   0  0  2  0  0  0  0  0  0  0  0  0
   49.8074   12.0145   10.8349 O   0  0  0  0  0  0  0  0  0  0  0  0
   48.9693   13.1324    8.7328 O   0  5  0  0  0  0  0  0  0  0  0  0
   49.3749   14.4920   10.9430 O   0  0  0  0  0  0  0  0  0  0  0  0
   44.5986   11.8414   14.6812 C   0  0  2  0  0  0  0  0  0  0  0  0
   43.9738   10.7151   14.0396 O   0  0  0  0  0  0  0  0  0  0  0  0
   43.7502   13.1247   14.4902 C   0  0  2  0  0  0  0  0  0  0  0  0
   42.3997   12.9154   15.0253 O   0  0  0  0  0  0  0  0  0  0  0  0
   43.6649   13.4343   12.9838 C   0  0  1  0  0  0  0  0  0  0  0  0
   42.8905   14.6215   12.7763 O   0  0  0  0  0  0  0  0  0  0  0  0
   45.0922   13.6464   12.4554 C   0  0  2  0  0  0  0  0  0  0  0  0
   45.0407   13.9274   11.0400 O   0  0  0  0  0  0  0  0  0  0  0  0
   45.9086   12.3490   12.7086 C   0  0  2  0  0  0  0  0  0  0  0  0
   45.9444   12.0534   14.1385 O   0  0  0  0  0  0  0  0  0  0  0  0
   47.3497   12.5650   12.2121 C   0  0  0  0  0  0  0  0  0  0  0  0
   47.3707   12.7605   10.7928 O   0  0  0  0  0  0  0  0  0  0  0  0
  1  2  1  1  0  0  0
  1  3  1  0  0  0  0
  1  4  2  0  0  0  0
  1 16  1  0  0  0  0
  5  6  1  6  0  0  0
  5  7  1  0  0  0  0
  5 14  1  0  0  0  0
  7  8  1  6  0  0  0
  7  9  1  0  0  0  0
  9 10  1  1  0  0  0
  9 11  1  0  0  0  0
 11 12  1  6  0  0  0
 11 13  1  0  0  0  0
 13 14  1  0  0  0  0
 13 15  1  1  0  0  0
 15 16  1  0  0  0  0
M  CHG  1   3  -1
M  END
>  <CHROM.1>
-64.52339813,176.41453113,53.63254307,46.18136104,12.93127942,12.20465549
-0.45834861,-0.42033798,2.34611263

>  <Name>
ligand

>  <RI>
0

>  <Rbt.Current_Directory>
/home/itssahil/PROJECTS/Mol_Feturizer/New_Systems/rnas/2HO7

>  <Rbt.Executable>
rbdock ($Id: //depot/dev/client3/rdock/2013.1/src/exe/rbdock.cxx#4 $)

>  <Rbt.Library>
libRbt.so (2013.1, Build901 2013/11/27)

>  <Rbt.Parameter_File>
/export/apps/rDock/src/rDock_2013.1_src/data/scripts/dock_solv.prm

>  <Rbt.Receptor>
prm/pocket_docking_8.prm

>  <SCORE>
-9.81963

>  <SCORE.INTER>
-10.3716

>  <SCORE.INTER.CONST>
1

>  <SCORE.INTER.POLAR>
-1.03923

>  <SCORE.INTER.ROT>
3

>  <SCORE.INTER.SOLV>
12.7788

>  <SCORE.INTER.VDW>
-13.3099

>  <SCORE.INTER.norm>
-0.648225

>  <SCORE.INTRA>
0.551962

>  <SCORE.INTRA.DIHEDRAL>
0.195188

>  <SCORE.INTRA.DIHEDRAL.0>
0.00893466

>  <SCORE.INTRA.POLAR>
0

>  <SCORE.INTRA.POLAR.0>
0

>  <SCORE.INTRA.REPUL>
0

>  <SCORE.INTRA.REPUL.0>
0

>  <SCORE.INTRA.SOLV>
0.519515

>  <SCORE.INTRA.SOLV.lig_0>
-48.9722

>  <SCORE.INTRA.VDW>
0.194611

>  <SCORE.INTRA.VDW.0>
-0.529409

>  <SCORE.INTRA.norm>
0.0344976

>  <SCORE.RESTR>
0

>  <SCORE.RESTR.CAVITY>
0

>  <SCORE.RESTR.norm>
0

>  <SCORE.SYSTEM>
0

>  <SCORE.SYSTEM.CONST>
0

>  <SCORE.SYSTEM.DIHEDRAL>
0

>  <SCORE.SYSTEM.SOLV>
0

>  <SCORE.SYSTEM.norm>
0

>  <SCORE.heavy>
16

>  <SCORE.norm>
-0.613727

>  <RMSD>
1.555

$$$$
ligand
 OpenBabel11021811433D
libRbt.so/2013.1/901 2013/11/27
 16 16  0  0  0  0  0  0  0  0999 V2000
   48.8885   13.3085   10.5608 P   0  0  2  0  0  0  0  0  0  0  0  0
   48.3798   13.2649    9.1674 O   0  0  0  0  0  0  0  0  0  0  0  0
   49.7525   14.6499   10.7700 O   0  5  0  0  0  0  0  0  0  0  0  0
   49.8284   12.0248   10.8107 O   0  0  0  0  0  0  0  0  0  0  0  0
   44.9188   12.1538   14.6289 C   0  0  2  0  0  0  0  0  0  0  0  0
   44.1522   10.9461   14.4722 O   0  0  0  0  0  0  0  0  0  0  0  0
   44.0418   13.4025   14.3556 C   0  0  2  0  0  0  0  0  0  0  0  0
   42.8858   13.4092   15.2599 O   0  0  0  0  0  0  0  0  0  0  0  0
   43.5532   13.3463   12.8960 C   0  0  1  0  0  0  0  0  0  0  0  0
   42.7436   14.4935   12.6116 O   0  0  0  0  0  0  0  0  0  0  0  0
   44.7848   13.3393   11.9771 C   0  0  2  0  0  0  0  0  0  0  0  0
   44.3535   13.2753   10.6006 O   0  0  0  0  0  0  0  0  0  0  0  0
   45.6478   12.0938   12.3204 C   0  0  2  0  0  0  0  0  0  0  0  0
   46.0681   12.1481   13.7181 O   0  0  0  0  0  0  0  0  0  0  0  0
   46.9013   12.0974   11.4266 C   0  0  0  0  0  0  0  0  0  0  0  0
   47.6473   13.3072   11.6082 O   0  0  0  0  0  0  0  0  0  0  0  0
  1  2  1  6  0  0  0
  1  3  1  0  0  0  0
  1  4  2  0  0  0  0
  1 16  1  0  0  0  0
  5  6  1  6  0  0  0
  5  7  1  0  0  0  0
  5 14  1  0  0  0  0
  7  8  1  1  0  0  0
  7  9  1  0  0  0  0
  9 10  1  6  0  0  0
  9 11  1  0  0  0  0
 11 12  1  6  0  0  0
 11 13  1  0  0  0  0
 13 14  1  0  0  0  0
 13 15  1  6  0  0  0
 15 16  1  0  0  0  0
M  CHG  1   3  -1
M  END
>  <CHROM.1>
57.71710254,-175.60450702,61.06032778,46.15450391,12.98642701,12.17359356
-0.50374767,-0.30195338,2.15382170

>  <Name>
ligand

>  <RI>
0

>  <Rbt.Current_Directory>
/home/itssahil/PROJECTS/Mol_Feturizer/New_Systems/rnas/2HO7

>  <Rbt.Executable>
rbdock ($Id: //depot/dev/client3/rdock/2013.1/src/exe/rbdock.cxx#4 $)

>  <Rbt.Library>
libRbt.so (2013.1, Build901 2013/11/27)

>  <Rbt.Parameter_File>
/export/apps/rDock/src/rDock_2013.1_src/data/scripts/dock_solv.prm

>  <Rbt.Receptor>
prm/pocket_docking_6.prm

>  <SCORE>
-11.4498

>  <SCORE.INTER>
-11.5237

>  <SCORE.INTER.CONST>
1

>  <SCORE.INTER.POLAR>
-1.29887

>  <SCORE.INTER.ROT>
3

>  <SCORE.INTER.SOLV>
11.1673

>  <SCORE.INTER.VDW>
-12.6754

>  <SCORE.INTER.norm>
-0.720234

>  <SCORE.INTRA>
0.0739823

>  <SCORE.INTRA.DIHEDRAL>
0.106916

>  <SCORE.INTRA.DIHEDRAL.0>
0.00893466

>  <SCORE.INTRA.POLAR>
0

>  <SCORE.INTRA.POLAR.0>
0

>  <SCORE.INTRA.REPUL>
0

>  <SCORE.INTRA.REPUL.0>
0

>  <SCORE.INTRA.SOLV>
0.235576

>  <SCORE.INTRA.SOLV.lig_0>
-48.9722

>  <SCORE.INTRA.VDW>
-0.0972638

>  <SCORE.INTRA.VDW.0>
-0.529409

>  <SCORE.INTRA.norm>
0.0046239

>  <SCORE.RESTR>
0

>  <SCORE.RESTR.CAVITY>
0

>  <SCORE.RESTR.norm>
0

>  <SCORE.SYSTEM>
0

>  <SCORE.SYSTEM.CONST>
0

>  <SCORE.SYSTEM.DIHEDRAL>
0

>  <SCORE.SYSTEM.SOLV>
0

>  <SCORE.SYSTEM.norm>
0

>  <SCORE.heavy>
16

>  <SCORE.norm>
-0.71561

>  <RMSD>
1.556

$$$$
ligand
 OpenBabel11021811433D
libRbt.so/2013.1/901 2013/11/27
 16 16  0  0  0  0  0  0  0  0999 V2000
   48.8739   13.2994   10.5585 P   0  0  2  0  0  0  0  0  0  0  0  0
   48.3186   13.2490    9.1833 O   0  0  0  0  0  0  0  0  0  0  0  0
   49.7263   14.6524   10.7388 O   0  5  0  0  0  0  0  0  0  0  0  0
   49.8392   12.0286   10.7755 O   0  0  0  0  0  0  0  0  0  0  0  0
   44.9249   12.2189   14.6798 C   0  0  2  0  0  0  0  0  0  0  0  0
   44.1935   10.9838   14.5782 O   0  0  0  0  0  0  0  0  0  0  0  0
   44.0178   13.4266   14.3309 C   0  0  2  0  0  0  0  0  0  0  0  0
   42.8504   13.4485   15.2201 O   0  0  0  0  0  0  0  0  0  0  0  0
   43.5500   13.2804   12.8707 C   0  0  1  0  0  0  0  0  0  0  0  0
   42.7133   14.3882   12.5168 O   0  0  0  0  0  0  0  0  0  0  0  0
   44.7933   13.2596   11.9678 C   0  0  2  0  0  0  0  0  0  0  0  0
   44.3819   13.1116   10.5917 O   0  0  0  0  0  0  0  0  0  0  0  0
   45.6853   12.0583   12.3863 C   0  0  2  0  0  0  0  0  0  0  0  0
   46.0856   12.1975   13.7840 O   0  0  0  0  0  0  0  0  0  0  0  0
   46.9498   12.0500   11.5082 C   0  0  0  0  0  0  0  0  0  0  0  0
   47.6693   13.2812   11.6477 O   0  0  0  0  0  0  0  0  0  0  0  0
  1  2  1  6  0  0  0
  1  3  1  0  0  0  0
  1  4  2  0  0  0  0
  1 16  1  0  0  0  0
  5  6  1  6  0  0  0
  5  7  1  0  0  0  0
  5 14  1  0  0  0  0
  7  8  1  1  0  0  0
  7  9  1  0  0  0  0
  9 10  1  6  0  0  0
  9 11  1  0  0  0  0
 11 12  1  6  0  0  0
 11 13  1  0  0  0  0
 13 14  1  0  0  0  0
 13 15  1  6  0  0  0
 15 16  1  0  0  0  0
M  CHG  1   3  -1
M  END
>  <CHROM.1>
58.47112355,-172.48453034,62.14826767,46.15459393,12.96678180,12.18184576
-0.51898176,-0.27689675,2.10560757

>  <Name>
ligand

>  <RI>
0

>  <Rbt.Current_Directory>
/home/itssahil/PROJECTS/Mol_Feturizer/New_Systems/rnas/2HO7

>  <Rbt.Executable>
rbdock ($Id: //depot/dev/client3/rdock/2013.1/src/exe/rbdock.cxx#4 $)

>  <Rbt.Library>
libRbt.so (2013.1, Build901 2013/11/27)

>  <Rbt.Parameter_File>
/export/apps/rDock/src/rDock_2013.1_src/data/scripts/dock_solv.prm

>  <Rbt.Receptor>
prm/pocket_docking_3.prm

>  <SCORE>
-11.4933

>  <SCORE.INTER>
-11.6437

>  <SCORE.INTER.CONST>
1

>  <SCORE.INTER.POLAR>
-1.29904

>  <SCORE.INTER.ROT>
3

>  <SCORE.INTER.SOLV>
11.3173

>  <SCORE.INTER.VDW>
-12.8048

>  <SCORE.INTER.norm>
-0.727733

>  <SCORE.INTRA>
0.150456

>  <SCORE.INTRA.DIHEDRAL>
0.282336

>  <SCORE.INTRA.DIHEDRAL.0>
0.00893466

>  <SCORE.INTRA.POLAR>
0

>  <SCORE.INTRA.POLAR.0>
0

>  <SCORE.INTRA.REPUL>
0

>  <SCORE.INTRA.REPUL.0>
0

>  <SCORE.INTRA.SOLV>
0.256879

>  <SCORE.INTRA.SOLV.lig_0>
-48.9722

>  <SCORE.INTRA.VDW>
-0.119152

>  <SCORE.INTRA.VDW.0>
-0.529409

>  <SCORE.INTRA.norm>
0.00940348

>  <SCORE.RESTR>
0

>  <SCORE.RESTR.CAVITY>
0

>  <SCORE.RESTR.norm>
0

>  <SCORE.SYSTEM>
0

>  <SCORE.SYSTEM.CONST>
0

>  <SCORE.SYSTEM.DIHEDRAL>
0

>  <SCORE.SYSTEM.SOLV>
0

>  <SCORE.SYSTEM.norm>
0

>  <SCORE.heavy>
16

>  <SCORE.norm>
-0.71833

>  <RMSD>
1.558

$$$$
ligand
 OpenBabel11021811433D
libRbt.so/2013.1/901 2013/11/27
 16 16  0  0  0  0  0  0  0  0999 V2000
   48.8869   13.2830   10.5572 P   0  0  2  0  0  0  0  0  0  0  0  0
   48.3351   13.1687    9.1844 O   0  0  0  0  0  0  0  0  0  0  0  0
   49.7002   14.6652   10.6903 O   0  5  0  0  0  0  0  0  0  0  0  0
   49.8877   12.0486   10.8189 O   0  0  0  0  0  0  0  0  0  0  0  0
   44.8641   12.0034   14.6500 C   0  0  2  0  0  0  0  0  0  0  0  0
   44.0303   10.8621   14.3800 O   0  0  0  0  0  0  0  0  0  0  0  0
   44.0827   13.3228   14.4226 C   0  0  2  0  0  0  0  0  0  0  0  0
   42.8876   13.3492   15.2742 O   0  0  0  0  0  0  0  0  0  0  0  0
   43.6618   13.3924   12.9426 C   0  0  1  0  0  0  0  0  0  0  0  0
   42.9417   14.6070   12.7003 O   0  0  0  0  0  0  0  0  0  0  0  0
   44.9329   13.3616   12.0797 C   0  0  2  0  0  0  0  0  0  0  0  0
   44.5647   13.4142   10.6846 O   0  0  0  0  0  0  0  0  0  0  0  0
   45.6972   12.0418   12.3765 C   0  0  2  0  0  0  0  0  0  0  0  0
   46.0529   11.9789   13.7917 O   0  0  0  0  0  0  0  0  0  0  0  0
   46.9897   12.0185   11.5403 C   0  0  0  0  0  0  0  0  0  0  0  0
   47.6819   13.2685   11.6459 O   0  0  0  0  0  0  0  0  0  0  0  0
  1  2  1  6  0  0  0
  1  3  1  0  0  0  0
  1  4  2  0  0  0  0
  1 16  1  0  0  0  0
  5  6  1  6  0  0  0
  5  7  1  0  0  0  0
  5 14  1  0  0  0  0
  7  8  1  1  0  0  0
  7  9  1  0  0  0  0
  9 10  1  1  0  0  0
  9 11  1  0  0  0  0
 11 12  1  6  0  0  0
 11 13  1  0  0  0  0
 13 14  1  0  0  0  0
 13 15  1  6  0  0  0
 15 16  1  0  0  0  0
M  CHG  1   3  -1
M  END
>  <CHROM.1>
47.12388202,-170.40127660,61.58619263,46.19122529,12.95814879,12.20401109
0.48144935,0.36692983,-0.87019859

>  <Name>
ligand

>  <RI>
0

>  <Rbt.Current_Directory>
/home/itssahil/PROJECTS/Mol_Feturizer/New_Systems/rnas/2HO7

>  <Rbt.Executable>
rbdock ($Id: //depot/dev/client3/rdock/2013.1/src/exe/rbdock.cxx#4 $)

>  <Rbt.Library>
libRbt.so (2013.1, Build901 2013/11/27)

>  <Rbt.Parameter_File>
/export/apps/rDock/src/rDock_2013.1_src/data/scripts/dock_solv.prm

>  <Rbt.Receptor>
prm/pocket_docking_8.prm

>  <SCORE>
-11.1346

>  <SCORE.INTER>
-11.8521

>  <SCORE.INTER.CONST>
1

>  <SCORE.INTER.POLAR>
-1.29841

>  <SCORE.INTER.ROT>
3

>  <SCORE.INTER.SOLV>
11.1707

>  <SCORE.INTER.VDW>
-12.8969

>  <SCORE.INTER.norm>
-0.740756

>  <SCORE.INTRA>
0.717475

>  <SCORE.INTRA.DIHEDRAL>
1.01893

>  <SCORE.INTRA.DIHEDRAL.0>
0.00893466

>  <SCORE.INTRA.POLAR>
0

>  <SCORE.INTRA.POLAR.0>
0

>  <SCORE.INTRA.REPUL>
0

>  <SCORE.INTRA.REPUL.0>
0

>  <SCORE.INTRA.SOLV>
0.353282

>  <SCORE.INTRA.SOLV.lig_0>
-48.9722

>  <SCORE.INTRA.VDW>
0.0313671

>  <SCORE.INTRA.VDW.0>
-0.529409

>  <SCORE.INTRA.norm>
0.0448422

>  <SCORE.RESTR>
0

>  <SCORE.RESTR.CAVITY>
0

>  <SCORE.RESTR.norm>
0

>  <SCORE.SYSTEM>
0

>  <SCORE.SYSTEM.CONST>
0

>  <SCORE.SYSTEM.DIHEDRAL>
0

>  <SCORE.SYSTEM.SOLV>
0

>  <SCORE.SYSTEM.norm>
0

>  <SCORE.heavy>
16

>  <SCORE.norm>
-0.695914

>  <RMSD>
1.569

$$$$
ligand
 OpenBabel11021811433D
libRbt.so/2013.1/901 2013/11/27
 16 16  0  0  0  0  0  0  0  0999 V2000
   48.9025   13.3305   10.6501 P   0  0  2  0  0  0  0  0  0  0  0  0
   48.3534   13.3511    9.2717 O   0  0  0  0  0  0  0  0  0  0  0  0
   49.7899   14.6516   10.8891 O   0  5  0  0  0  0  0  0  0  0  0  0
   49.8322   12.0264   10.8192 O   0  0  0  0  0  0  0  0  0  0  0  0
   44.8296   12.1311   14.6505 C   0  0  2  0  0  0  0  0  0  0  0  0
   44.0032   10.9781   14.4091 O   0  0  0  0  0  0  0  0  0  0  0  0
   44.0337   13.4395   14.4102 C   0  0  2  0  0  0  0  0  0  0  0  0
   42.8481   13.4695   15.2749 O   0  0  0  0  0  0  0  0  0  0  0  0
   43.5954   13.4806   12.9342 C   0  0  1  0  0  0  0  0  0  0  0  0
   42.8615   14.6844   12.6801 O   0  0  0  0  0  0  0  0  0  0  0  0
   44.8569   13.4467   12.0574 C   0  0  2  0  0  0  0  0  0  0  0  0
   44.4724   13.4727   10.6659 O   0  0  0  0  0  0  0  0  0  0  0  0
   45.6365   12.1390   12.3673 C   0  0  2  0  0  0  0  0  0  0  0  0
   46.0087   12.1029   13.7791 O   0  0  0  0  0  0  0  0  0  0  0  0
   46.9196   12.1132   11.5168 C   0  0  0  0  0  0  0  0  0  0  0  0
   47.6921   13.3005   11.7325 O   0  0  0  0  0  0  0  0  0  0  0  0
  1  2  1  6  0  0  0
  1  3  1  0  0  0  0
  1  4  2  0  0  0  0
  1 16  1  0  0  0  0
  5  6  1  6  0  0  0
  5  7  1  0  0  0  0
  5 14  1  0  0  0  0
  7  8  1  1  0  0  0
  7  9  1  0  0  0  0
  9 10  1  1  0  0  0
  9 11  1  0  0  0  0
 11 12  1  6  0  0  0
 11 13  1  0  0  0  0
 13 14  1  0  0  0  0
 13 15  1  6  0  0  0
 15 16  1  0  0  0  0
M  CHG  1   3  -1
M  END
>  <CHROM.1>
54.82537732,-171.26578388,60.64602417,46.16069495,13.03804432,12.23351487
-0.46776132,-0.34397536,2.23807530

>  <Name>
ligand

>  <RI>
0

>  <Rbt.Current_Directory>
/home/itssahil/PROJECTS/Mol_Feturizer/New_Systems/rnas/2HO7

>  <Rbt.Executable>
rbdock ($Id: //depot/dev/client3/rdock/2013.1/src/exe/rbdock.cxx#4 $)

>  <Rbt.Library>
libRbt.so (2013.1, Build901 2013/11/27)

>  <Rbt.Parameter_File>
/export/apps/rDock/src/rDock_2013.1_src/data/scripts/dock_solv.prm

>  <Rbt.Receptor>
prm/pocket_docking_3.prm

>  <SCORE>
-11.2415

>  <SCORE.INTER>
-11.5272

>  <SCORE.INTER.CONST>
1

>  <SCORE.INTER.POLAR>
-1.29848

>  <SCORE.INTER.ROT>
3

>  <SCORE.INTER.SOLV>
11.4323

>  <SCORE.INTER.VDW>
-12.7673

>  <SCORE.INTER.norm>
-0.720451

>  <SCORE.INTRA>
0.285751

>  <SCORE.INTRA.DIHEDRAL>
0.458512

>  <SCORE.INTRA.DIHEDRAL.0>
0.00893466

>  <SCORE.INTRA.POLAR>
0

>  <SCORE.INTRA.POLAR.0>
0

>  <SCORE.INTRA.REPUL>
0

>  <SCORE.INTRA.REPUL.0>
0

>  <SCORE.INTRA.SOLV>
0.280219

>  <SCORE.INTRA.SOLV.lig_0>
-48.9722

>  <SCORE.INTRA.VDW>
-0.0836144

>  <SCORE.INTRA.VDW.0>
-0.529409

>  <SCORE.INTRA.norm>
0.0178594

>  <SCORE.RESTR>
0

>  <SCORE.RESTR.CAVITY>
0

>  <SCORE.RESTR.norm>
0

>  <SCORE.SYSTEM>
0

>  <SCORE.SYSTEM.CONST>
0

>  <SCORE.SYSTEM.DIHEDRAL>
0

>  <SCORE.SYSTEM.SOLV>
0

>  <SCORE.SYSTEM.norm>
0

>  <SCORE.heavy>
16

>  <SCORE.norm>
-0.702591

>  <RMSD>
1.574

$$$$
ligand
 OpenBabel11021811433D
libRbt.so/2013.1/901 2013/11/27
 16 16  0  0  0  0  0  0  0  0999 V2000
   48.8209   13.2597   10.5806 P   0  0  2  0  0  0  0  0  0  0  0  0
   48.3015   13.1520    9.1947 O   0  0  0  0  0  0  0  0  0  0  0  0
   49.6557   14.6272   10.7311 O   0  5  0  0  0  0  0  0  0  0  0  0
   49.7921   12.0080   10.8699 O   0  0  0  0  0  0  0  0  0  0  0  0
   44.8873   12.2092   14.6944 C   0  0  2  0  0  0  0  0  0  0  0  0
   44.1497   10.9772   14.5993 O   0  0  0  0  0  0  0  0  0  0  0  0
   43.9770   13.4224   14.3742 C   0  0  2  0  0  0  0  0  0  0  0  0
   42.8292   13.4414   15.2886 O   0  0  0  0  0  0  0  0  0  0  0  0
   43.4773   13.2887   12.9234 C   0  0  1  0  0  0  0  0  0  0  0  0
   42.6368   14.4018   12.5960 O   0  0  0  0  0  0  0  0  0  0  0  0
   44.7006   13.2707   11.9936 C   0  0  2  0  0  0  0  0  0  0  0  0
   44.2590   13.1343   10.6257 O   0  0  0  0  0  0  0  0  0  0  0  0
   45.5974   12.0634   12.3837 C   0  0  2  0  0  0  0  0  0  0  0  0
   46.0283   12.1907   13.7734 O   0  0  0  0  0  0  0  0  0  0  0  0
   46.8425   12.0576   11.4784 C   0  0  0  0  0  0  0  0  0  0  0  0
   47.5891   13.2700   11.6389 O   0  0  0  0  0  0  0  0  0  0  0  0
  1  2  1  6  0  0  0
  1  3  1  0  0  0  0
  1  4  2  0  0  0  0
  1 16  1  0  0  0  0
  5  6  1  6  0  0  0
  5  7  1  0  0  0  0
  5 14  1  0  0  0  0
  7  8  1  1  0  0  0
  7  9  1  0  0  0  0
  9 10  1  6  0  0  0
  9 11  1  0  0  0  0
 11 12  1  6  0  0  0
 11 13  1  0  0  0  0
 13 14  1  0  0  0  0
 13 15  1  6  0  0  0
 15 16  1  0  0  0  0
M  CHG  1   3  -1
M  END
>  <CHROM.1>
60.06390444,-175.63272493,59.11337048,46.09142834,12.95418505,12.20748381
-0.51715650,-0.28076768,2.09824441

>  <Name>
ligand

>  <RI>
0

>  <Rbt.Current_Directory>
/home/itssahil/PROJECTS/Mol_Feturizer/New_Systems/rnas/2HO7

>  <Rbt.Executable>
rbdock ($Id: //depot/dev/client3/rdock/2013.1/src/exe/rbdock.cxx#4 $)

>  <Rbt.Library>
libRbt.so (2013.1, Build901 2013/11/27)

>  <Rbt.Parameter_File>
/export/apps/rDock/src/rDock_2013.1_src/data/scripts/dock_solv.prm

>  <Rbt.Receptor>
prm/pocket_docking_6.prm

>  <SCORE>
-11.4676

>  <SCORE.INTER>
-11.5127

>  <SCORE.INTER.CONST>
1

>  <SCORE.INTER.POLAR>
-1.29799

>  <SCORE.INTER.ROT>
3

>  <SCORE.INTER.SOLV>
11.5102

>  <SCORE.INTER.VDW>
-12.7853

>  <SCORE.INTER.norm>
-0.719547

>  <SCORE.INTRA>
0.0451403

>  <SCORE.INTRA.DIHEDRAL>
0.0863162

>  <SCORE.INTRA.DIHEDRAL.0>
0.00893466

>  <SCORE.INTRA.POLAR>
0

>  <SCORE.INTRA.POLAR.0>
0

>  <SCORE.INTRA.REPUL>
0

>  <SCORE.INTRA.REPUL.0>
0

>  <SCORE.INTRA.SOLV>
0.215029

>  <SCORE.INTRA.SOLV.lig_0>
-48.9722

>  <SCORE.INTRA.VDW>
-0.105532

>  <SCORE.INTRA.VDW.0>
-0.529409

>  <SCORE.INTRA.norm>
0.00282127

>  <SCORE.RESTR>
0

>  <SCORE.RESTR.CAVITY>
0

>  <SCORE.RESTR.norm>
0

>  <SCORE.SYSTEM>
0

>  <SCORE.SYSTEM.CONST>
0

>  <SCORE.SYSTEM.DIHEDRAL>
0

>  <SCORE.SYSTEM.SOLV>
0

>  <SCORE.SYSTEM.norm>
0

>  <SCORE.heavy>
16

>  <SCORE.norm>
-0.716725

>  <RMSD>
1.575

$$$$
ligand
 OpenBabel11021811433D
libRbt.so/2013.1/901 2013/11/27
 16 16  0  0  0  0  0  0  0  0999 V2000
   48.8925   12.9322   10.3375 P   0  0  2  0  0  0  0  0  0  0  0  0
   49.8431   12.0178   11.0177 O   0  0  0  0  0  0  0  0  0  0  0  0
   48.9866   12.7100    8.7465 O   0  5  0  0  0  0  0  0  0  0  0  0
   49.2933   14.4521   10.6879 O   0  0  0  0  0  0  0  0  0  0  0  0
   44.6392   12.0108   14.8007 C   0  0  2  0  0  0  0  0  0  0  0  0
   44.0413   10.8156   14.2673 O   0  0  0  0  0  0  0  0  0  0  0  0
   43.7573   13.2496   14.4996 C   0  0  2  0  0  0  0  0  0  0  0  0
   42.4145   13.0554   15.0594 O   0  0  0  0  0  0  0  0  0  0  0  0
   43.6586   13.4193   12.9719 C   0  0  1  0  0  0  0  0  0  0  0  0
   42.8530   14.5629   12.6625 O   0  0  0  0  0  0  0  0  0  0  0  0
   45.0780   13.6189   12.4180 C   0  0  2  0  0  0  0  0  0  0  0  0
   45.0142   13.7692   10.9834 O   0  0  0  0  0  0  0  0  0  0  0  0
   45.9285   12.3708   12.7826 C   0  0  2  0  0  0  0  0  0  0  0  0
   45.9771   12.2069   14.2331 O   0  0  0  0  0  0  0  0  0  0  0  0
   47.3617   12.5775   12.2601 C   0  0  0  0  0  0  0  0  0  0  0  0
   47.3751   12.6250   10.8281 O   0  0  0  0  0  0  0  0  0  0  0  0
  1  2  1  1  0  0  0
  1  3  1  0  0  0  0
  1  4  2  0  0  0  0
  1 16  1  0  0  0  0
  5  6  1  6  0  0  0
  5  7  1  0  0  0  0
  5 14  1  0  0  0  0
  7  8  1  6  0  0  0
  7  9  1  0  0  0  0
  9 10  1  1  0  0  0
  9 11  1  0  0  0  0
 11 12  1  6  0  0  0
 11 13  1  0  0  0  0
 13 14  1  0  0  0  0
 13 15  1  1  0  0  0
 15 16  1  0  0  0  0
M  CHG  1   3  -1
M  END
>  <CHROM.1>
-65.34820763,176.66728593,49.26313221,46.18548735,12.90202862,12.22518243
-0.47743909,-0.40804891,2.24692249

>  <Name>
ligand

>  <RI>
0

>  <Rbt.Current_Directory>
/home/itssahil/PROJECTS/Mol_Feturizer/New_Systems/rnas/2HO7

>  <Rbt.Executable>
rbdock ($Id: //depot/dev/client3/rdock/2013.1/src/exe/rbdock.cxx#4 $)

>  <Rbt.Library>
libRbt.so (2013.1, Build901 2013/11/27)

>  <Rbt.Parameter_File>
/export/apps/rDock/src/rDock_2013.1_src/data/scripts/dock_solv.prm

>  <Rbt.Receptor>
prm/pocket_docking_3.prm

>  <SCORE>
-10.1064

>  <SCORE.INTER>
-10.76

>  <SCORE.INTER.CONST>
1

>  <SCORE.INTER.POLAR>
-1.03923

>  <SCORE.INTER.ROT>
3

>  <SCORE.INTER.SOLV>
12.5274

>  <SCORE.INTER.VDW>
-13.485

>  <SCORE.INTER.norm>
-0.672497

>  <SCORE.INTRA>
0.653563

>  <SCORE.INTRA.DIHEDRAL>
0.334775

>  <SCORE.INTRA.DIHEDRAL.0>
0.00893466

>  <SCORE.INTRA.POLAR>
0

>  <SCORE.INTRA.POLAR.0>
0

>  <SCORE.INTRA.REPUL>
0

>  <SCORE.INTRA.REPUL.0>
0

>  <SCORE.INTRA.SOLV>
0.476707

>  <SCORE.INTRA.SOLV.lig_0>
-48.9722

>  <SCORE.INTRA.VDW>
0.247822

>  <SCORE.INTRA.VDW.0>
-0.529409

>  <SCORE.INTRA.norm>
0.0408477

>  <SCORE.RESTR>
0

>  <SCORE.RESTR.CAVITY>
0

>  <SCORE.RESTR.norm>
0

>  <SCORE.SYSTEM>
0

>  <SCORE.SYSTEM.CONST>
0

>  <SCORE.SYSTEM.DIHEDRAL>
0

>  <SCORE.SYSTEM.SOLV>
0

>  <SCORE.SYSTEM.norm>
0

>  <SCORE.heavy>
16

>  <SCORE.norm>
-0.63165

>  <RMSD>
1.576

$$$$
ligand
 OpenBabel11021811433D
libRbt.so/2013.1/901 2013/11/27
 16 16  0  0  0  0  0  0  0  0999 V2000
   48.8084   13.2617   10.5861 P   0  0  2  0  0  0  0  0  0  0  0  0
   48.2506   13.1674    9.2142 O   0  0  0  0  0  0  0  0  0  0  0  0
   49.6568   14.6223   10.7231 O   0  5  0  0  0  0  0  0  0  0  0  0
   49.7780   12.0012   10.8402 O   0  0  0  0  0  0  0  0  0  0  0  0
   44.8773   12.1938   14.8006 C   0  0  2  0  0  0  0  0  0  0  0  0
   44.1524   10.9549   14.6987 O   0  0  0  0  0  0  0  0  0  0  0  0
   43.9775   13.3927   14.4055 C   0  0  2  0  0  0  0  0  0  0  0  0
   42.7849   13.4258   15.2603 O   0  0  0  0  0  0  0  0  0  0  0  0
   43.5523   13.2207   12.9351 C   0  0  1  0  0  0  0  0  0  0  0  0
   42.7231   14.3197   12.5388 O   0  0  0  0  0  0  0  0  0  0  0  0
   44.8210   13.1886   12.0687 C   0  0  2  0  0  0  0  0  0  0  0  0
   44.4497   13.0162   10.6841 O   0  0  0  0  0  0  0  0  0  0  0  0
   45.7037   11.9972   12.5328 C   0  0  2  0  0  0  0  0  0  0  0  0
   46.0634   12.1610   13.9388 O   0  0  0  0  0  0  0  0  0  0  0  0
   46.9930   11.9782   11.6916 C   0  0  0  0  0  0  0  0  0  0  0  0
   47.6059   13.2733   11.6777 O   0  0  0  0  0  0  0  0  0  0  0  0
  1  2  1  6  0  0  0
  1  3  1  0  0  0  0
  1  4  2  0  0  0  0
  1 16  1  0  0  0  0
  5  6  1  6  0  0  0
  5  7  1  0  0  0  0
  5 14  1  0  0  0  0
  7  8  1  1  0  0  0
  7  9  1  0  0  0  0
  9 10  1  6  0  0  0
  9 11  1  0  0  0  0
 11 12  1  6  0  0  0
 11 13  1  0  0  0  0
 13 14  1  0  0  0  0
 13 15  1  6  0  0  0
 15 16  1  0  0  0  0
M  CHG  1   3  -1
M  END
>  <CHROM.1>
50.26191269,-170.60239296,69.07786354,46.12723518,12.92024200,12.25532732
0.53180321,0.28587214,-1.03130352

>  <Name>
ligand

>  <RI>
0

>  <Rbt.Current_Directory>
/home/itssahil/PROJECTS/Mol_Feturizer/New_Systems/rnas/2HO7

>  <Rbt.Executable>
rbdock ($Id: //depot/dev/client3/rdock/2013.1/src/exe/rbdock.cxx#4 $)

>  <Rbt.Library>
libRbt.so (2013.1, Build901 2013/11/27)

>  <Rbt.Parameter_File>
/export/apps/rDock/src/rDock_2013.1_src/data/scripts/dock_solv.prm

>  <Rbt.Receptor>
prm/pocket_docking_6.prm

>  <SCORE>
-11.1291

>  <SCORE.INTER>
-11.7698

>  <SCORE.INTER.CONST>
1

>  <SCORE.INTER.POLAR>
-1.29904

>  <SCORE.INTER.ROT>
3

>  <SCORE.INTER.SOLV>
11.8006

>  <SCORE.INTER.VDW>
-13.0499

>  <SCORE.INTER.norm>
-0.735614

>  <SCORE.INTRA>
0.640749

>  <SCORE.INTRA.DIHEDRAL>
0.887082

>  <SCORE.INTRA.DIHEDRAL.0>
0.00893466

>  <SCORE.INTRA.POLAR>
0

>  <SCORE.INTRA.POLAR.0>
0

>  <SCORE.INTRA.REPUL>
0

>  <SCORE.INTRA.REPUL.0>
0

>  <SCORE.INTRA.SOLV>
0.406143

>  <SCORE.INTRA.SOLV.lig_0>
-48.9722

>  <SCORE.INTRA.VDW>
-0.00586332

>  <SCORE.INTRA.VDW.0>
-0.529409

>  <SCORE.INTRA.norm>
0.0400468

>  <SCORE.RESTR>
0

>  <SCORE.RESTR.CAVITY>
0

>  <SCORE.RESTR.norm>
0

>  <SCORE.SYSTEM>
0

>  <SCORE.SYSTEM.CONST>
0

>  <SCORE.SYSTEM.DIHEDRAL>
0

>  <SCORE.SYSTEM.SOLV>
0

>  <SCORE.SYSTEM.norm>
0

>  <SCORE.heavy>
16

>  <SCORE.norm>
-0.695568

>  <RMSD>
1.581

$$$$
ligand
 OpenBabel11021811433D
libRbt.so/2013.1/901 2013/11/27
 16 16  0  0  0  0  0  0  0  0999 V2000
   48.8273   13.2956   10.5742 P   0  0  2  0  0  0  0  0  0  0  0  0
   48.2875   13.2999    9.1919 O   0  0  0  0  0  0  0  0  0  0  0  0
   49.7138   14.6189   10.8033 O   0  5  0  0  0  0  0  0  0  0  0  0
   49.7550   11.9931   10.7652 O   0  0  0  0  0  0  0  0  0  0  0  0
   44.8573   12.1119   14.6409 C   0  0  2  0  0  0  0  0  0  0  0  0
   44.0566   10.9315   14.4503 O   0  0  0  0  0  0  0  0  0  0  0  0
   44.0148   13.3924   14.4094 C   0  0  2  0  0  0  0  0  0  0  0  0
   42.8623   13.4036   15.3181 O   0  0  0  0  0  0  0  0  0  0  0  0
   43.5204   13.3948   12.9507 C   0  0  1  0  0  0  0  0  0  0  0  0
   42.7424   14.5724   12.7048 O   0  0  0  0  0  0  0  0  0  0  0  0
   44.7484   13.3816   12.0271 C   0  0  2  0  0  0  0  0  0  0  0  0
   44.3112   13.3720   10.6510 O   0  0  0  0  0  0  0  0  0  0  0  0
   45.5772   12.1025   12.3287 C   0  0  2  0  0  0  0  0  0  0  0  0
   46.0032   12.1021   13.7257 O   0  0  0  0  0  0  0  0  0  0  0  0
   46.8275   12.0986   11.4305 C   0  0  0  0  0  0  0  0  0  0  0  0
   47.6096   13.2792   11.6487 O   0  0  0  0  0  0  0  0  0  0  0  0
  1  2  1  6  0  0  0
  1  3  1  0  0  0  0
  1  4  2  0  0  0  0
  1 16  1  0  0  0  0
  5  6  1  6  0  0  0
  5  7  1  0  0  0  0
  5 14  1  0  0  0  0
  7  8  1  1  0  0  0
  7  9  1  0  0  0  0
  9 10  1  6  0  0  0
  9 11  1  0  0  0  0
 11 12  1  6  0  0  0
 11 13  1  0  0  0  0
 13 14  1  0  0  0  0
 13 15  1  6  0  0  0
 15 16  1  0  0  0  0
M  CHG  1   3  -1
M  END
>  <CHROM.1>
57.87396436,-174.31388690,59.89697978,46.10170398,12.99071317,12.19974145
-0.49509323,-0.32949590,2.19170954

>  <Name>
ligand

>  <RI>
0

>  <Rbt.Current_Directory>
/home/itssahil/PROJECTS/Mol_Feturizer/New_Systems/rnas/2HO7

>  <Rbt.Executable>
rbdock ($Id: //depot/dev/client3/rdock/2013.1/src/exe/rbdock.cxx#4 $)

>  <Rbt.Library>
libRbt.so (2013.1, Build901 2013/11/27)

>  <Rbt.Parameter_File>
/export/apps/rDock/src/rDock_2013.1_src/data/scripts/dock_solv.prm

>  <Rbt.Receptor>
prm/pocket_docking_6.prm

>  <SCORE>
-11.4652

>  <SCORE.INTER>
-11.5619

>  <SCORE.INTER.CONST>
1

>  <SCORE.INTER.POLAR>
-1.29846

>  <SCORE.INTER.ROT>
3

>  <SCORE.INTER.SOLV>
11.2863

>  <SCORE.INTER.VDW>
-12.7418

>  <SCORE.INTER.norm>
-0.722618

>  <SCORE.INTRA>
0.0966739

>  <SCORE.INTRA.DIHEDRAL>
0.166136

>  <SCORE.INTRA.DIHEDRAL.0>
0.00893466

>  <SCORE.INTRA.POLAR>
0

>  <SCORE.INTRA.POLAR.0>
0

>  <SCORE.INTRA.REPUL>
0

>  <SCORE.INTRA.REPUL.0>
0

>  <SCORE.INTRA.SOLV>
0.223586

>  <SCORE.INTRA.SOLV.lig_0>
-48.9722

>  <SCORE.INTRA.VDW>
-0.0981873

>  <SCORE.INTRA.VDW.0>
-0.529409

>  <SCORE.INTRA.norm>
0.00604212

>  <SCORE.RESTR>
0

>  <SCORE.RESTR.CAVITY>
0

>  <SCORE.RESTR.norm>
0

>  <SCORE.SYSTEM>
0

>  <SCORE.SYSTEM.CONST>
0

>  <SCORE.SYSTEM.DIHEDRAL>
0

>  <SCORE.SYSTEM.SOLV>
0

>  <SCORE.SYSTEM.norm>
0

>  <SCORE.heavy>
16

>  <SCORE.norm>
-0.716576

>  <RMSD>
1.581

$$$$
ligand
 OpenBabel11021811433D
libRbt.so/2013.1/901 2013/11/27
 16 16  0  0  0  0  0  0  0  0999 V2000
   48.8340   13.3068   10.5754 P   0  0  2  0  0  0  0  0  0  0  0  0
   48.3157   13.3416    9.1853 O   0  0  0  0  0  0  0  0  0  0  0  0
   49.7504   14.6041   10.8341 O   0  5  0  0  0  0  0  0  0  0  0  0
   49.7251   11.9787   10.7642 O   0  0  0  0  0  0  0  0  0  0  0  0
   44.8591   12.1429   14.6406 C   0  0  2  0  0  0  0  0  0  0  0  0
   44.0607   10.9601   14.4557 O   0  0  0  0  0  0  0  0  0  0  0  0
   44.0139   13.4206   14.4037 C   0  0  2  0  0  0  0  0  0  0  0  0
   42.8618   13.4336   15.3129 O   0  0  0  0  0  0  0  0  0  0  0  0
   43.5187   13.4154   12.9452 C   0  0  1  0  0  0  0  0  0  0  0  0
   42.7382   14.5903   12.6943 O   0  0  0  0  0  0  0  0  0  0  0  0
   44.7464   13.4005   12.0211 C   0  0  2  0  0  0  0  0  0  0  0  0
   44.3085   13.3838   10.6453 O   0  0  0  0  0  0  0  0  0  0  0  0
   45.5779   12.1245   12.3281 C   0  0  2  0  0  0  0  0  0  0  0  0
   46.0045   12.1313   13.7249 O   0  0  0  0  0  0  0  0  0  0  0  0
   46.8278   12.1190   11.4293 C   0  0  0  0  0  0  0  0  0  0  0  0
   47.5999   13.3090   11.6311 O   0  0  0  0  0  0  0  0  0  0  0  0
  1  2  1  6  0  0  0
  1  3  1  0  0  0  0
  1  4  2  0  0  0  0
  1 16  1  0  0  0  0
  5  6  1  6  0  0  0
  5  7  1  0  0  0  0
  5 14  1  0  0  0  0
  7  8  1  1  0  0  0
  7  9  1  0  0  0  0
  9 10  1  6  0  0  0
  9 11  1  0  0  0  0
 11 12  1  6  0  0  0
 11 13  1  0  0  0  0
 13 14  1  0  0  0  0
 13 15  1  6  0  0  0
 15 16  1  0  0  0  0
M  CHG  1   3  -1
M  END
>  <CHROM.1>
57.24193608,-175.41592311,62.63288095,46.10389401,13.00946725,12.19819304
-0.49428334,-0.32707488,2.18473386

>  <Name>
ligand

>  <RI>
0

>  <Rbt.Current_Directory>
/home/itssahil/PROJECTS/Mol_Feturizer/New_Systems/rnas/2HO7

>  <Rbt.Executable>
rbdock ($Id: //depot/dev/client3/rdock/2013.1/src/exe/rbdock.cxx#4 $)

>  <Rbt.Library>
libRbt.so (2013.1, Build901 2013/11/27)

>  <Rbt.Parameter_File>
/export/apps/rDock/src/rDock_2013.1_src/data/scripts/dock_solv.prm

>  <Rbt.Receptor>
prm/pocket_docking_4.prm

>  <SCORE>
-11.4532

>  <SCORE.INTER>
-11.548

>  <SCORE.INTER.CONST>
1

>  <SCORE.INTER.POLAR>
-1.29904

>  <SCORE.INTER.ROT>
3

>  <SCORE.INTER.SOLV>
11.2766

>  <SCORE.INTER.VDW>
-12.7274

>  <SCORE.INTER.norm>
-0.721751

>  <SCORE.INTRA>
0.0947724

>  <SCORE.INTRA.DIHEDRAL>
0.133269

>  <SCORE.INTRA.DIHEDRAL.0>
0.00893466

>  <SCORE.INTRA.POLAR>
0

>  <SCORE.INTRA.POLAR.0>
0

>  <SCORE.INTRA.REPUL>
0

>  <SCORE.INTRA.REPUL.0>
0

>  <SCORE.INTRA.SOLV>
0.251274

>  <SCORE.INTRA.SOLV.lig_0>
-48.9722

>  <SCORE.INTRA.VDW>
-0.0974988

>  <SCORE.INTRA.VDW.0>
-0.529409

>  <SCORE.INTRA.norm>
0.00592328

>  <SCORE.RESTR>
0

>  <SCORE.RESTR.CAVITY>
0

>  <SCORE.RESTR.norm>
0

>  <SCORE.SYSTEM>
0

>  <SCORE.SYSTEM.CONST>
0

>  <SCORE.SYSTEM.DIHEDRAL>
0

>  <SCORE.SYSTEM.SOLV>
0

>  <SCORE.SYSTEM.norm>
0

>  <SCORE.heavy>
16

>  <SCORE.norm>
-0.715827

>  <RMSD>
1.586

$$$$
ligand
 OpenBabel11021811433D
libRbt.so/2013.1/901 2013/11/27
 16 16  0  0  0  0  0  0  0  0999 V2000
   48.8480   12.9247   10.2948 P   0  0  2  0  0  0  0  0  0  0  0  0
   49.8324   12.0206   10.9397 O   0  0  0  0  0  0  0  0  0  0  0  0
   48.9204   12.7377    8.6981 O   0  5  0  0  0  0  0  0  0  0  0  0
   49.2170   14.4466   10.6703 O   0  0  0  0  0  0  0  0  0  0  0  0
   44.6488   12.0096   14.8094 C   0  0  2  0  0  0  0  0  0  0  0  0
   44.0489   10.8071   14.2947 O   0  0  0  0  0  0  0  0  0  0  0  0
   43.7608   13.2428   14.5033 C   0  0  2  0  0  0  0  0  0  0  0  0
   42.4239   13.0513   15.0781 O   0  0  0  0  0  0  0  0  0  0  0  0
   43.6470   13.3956   12.9749 C   0  0  1  0  0  0  0  0  0  0  0  0
   42.8355   14.5338   12.6609 O   0  0  0  0  0  0  0  0  0  0  0  0
   45.0604   13.5928   12.4053 C   0  0  2  0  0  0  0  0  0  0  0  0
   44.9825   13.7274   10.9698 O   0  0  0  0  0  0  0  0  0  0  0  0
   45.9177   12.3509   12.7752 C   0  0  2  0  0  0  0  0  0  0  0  0
   45.9806   12.2028   14.2268 O   0  0  0  0  0  0  0  0  0  0  0  0
   47.3453   12.5556   12.2366 C   0  0  0  0  0  0  0  0  0  0  0  0
   47.3473   12.5694   10.8039 O   0  0  0  0  0  0  0  0  0  0  0  0
  1  2  1  1  0  0  0
  1  3  1  0  0  0  0
  1  4  2  0  0  0  0
  1 16  1  0  0  0  0
  5  6  1  6  0  0  0
  5  7  1  0  0  0  0
  5 14  1  0  0  0  0
  7  8  1  1  0  0  0
  7  9  1  0  0  0  0
  9 10  1  1  0  0  0
  9 11  1  0  0  0  0
 11 12  1  6  0  0  0
 11 13  1  0  0  0  0
 13 14  1  0  0  0  0
 13 15  1  1  0  0  0
 15 16  1  0  0  0  0
M  CHG  1   3  -1
M  END
>  <CHROM.1>
-66.12887816,174.81274150,52.00374082,46.16458808,12.88849110,12.20938791
-0.49153587,-0.40932050,2.23354738

>  <Name>
ligand

>  <RI>
0

>  <Rbt.Current_Directory>
/home/itssahil/PROJECTS/Mol_Feturizer/New_Systems/rnas/2HO7

>  <Rbt.Executable>
rbdock ($Id: //depot/dev/client3/rdock/2013.1/src/exe/rbdock.cxx#4 $)

>  <Rbt.Library>
libRbt.so (2013.1, Build901 2013/11/27)

>  <Rbt.Parameter_File>
/export/apps/rDock/src/rDock_2013.1_src/data/scripts/dock_solv.prm

>  <Rbt.Receptor>
prm/pocket_docking_5.prm

>  <SCORE>
-10.0794

>  <SCORE.INTER>
-10.7084

>  <SCORE.INTER.CONST>
1

>  <SCORE.INTER.POLAR>
-1.03923

>  <SCORE.INTER.ROT>
3

>  <SCORE.INTER.SOLV>
12.5636

>  <SCORE.INTER.VDW>
-13.4627

>  <SCORE.INTER.norm>
-0.669278

>  <SCORE.INTRA>
0.629096

>  <SCORE.INTRA.DIHEDRAL>
0.36281

>  <SCORE.INTRA.DIHEDRAL.0>
0.00893466

>  <SCORE.INTRA.POLAR>
0

>  <SCORE.INTRA.POLAR.0>
0

>  <SCORE.INTRA.REPUL>
0

>  <SCORE.INTRA.REPUL.0>
0

>  <SCORE.INTRA.SOLV>
0.565957

>  <SCORE.INTRA.SOLV.lig_0>
-48.9722

>  <SCORE.INTRA.VDW>
0.164712

>  <SCORE.INTRA.VDW.0>
-0.529409

>  <SCORE.INTRA.norm>
0.0393185

>  <SCORE.RESTR>
0

>  <SCORE.RESTR.CAVITY>
0

>  <SCORE.RESTR.norm>
0

>  <SCORE.SYSTEM>
0

>  <SCORE.SYSTEM.CONST>
0

>  <SCORE.SYSTEM.DIHEDRAL>
0

>  <SCORE.SYSTEM.SOLV>
0

>  <SCORE.SYSTEM.norm>
0

>  <SCORE.heavy>
16

>  <SCORE.norm>
-0.62996

>  <RMSD>
1.586

$$$$
ligand
 OpenBabel11021811433D
libRbt.so/2013.1/901 2013/11/27
 16 16  0  0  0  0  0  0  0  0999 V2000
   49.2208   13.2202   10.2659 P   0  0  2  0  0  0  0  0  0  0  0  0
   48.7509   13.4839    8.8832 O   0  0  0  0  0  0  0  0  0  0  0  0
   49.8039   14.5803   10.8982 O   0  5  0  0  0  0  0  0  0  0  0  0
   50.3890   12.1127   10.2149 O   0  0  0  0  0  0  0  0  0  0  0  0
   44.9712   12.3200   14.0906 C   0  0  2  0  0  0  0  0  0  0  0  0
   44.3909   11.1703   13.4487 O   0  0  0  0  0  0  0  0  0  0  0  0
   43.9262   13.4559   14.2358 C   0  0  2  0  0  0  0  0  0  0  0  0
   42.7675   12.9749   14.9975 O   0  0  0  0  0  0  0  0  0  0  0  0
   43.4740   13.8865   12.8278 C   0  0  1  0  0  0  0  0  0  0  0  0
   42.5107   14.9420   12.9300 O   0  0  0  0  0  0  0  0  0  0  0  0
   44.7078   14.3824   12.0577 C   0  0  2  0  0  0  0  0  0  0  0  0
   44.3120   14.7821   10.7278 O   0  0  0  0  0  0  0  0  0  0  0  0
   45.7373   13.2215   11.9776 C   0  0  2  0  0  0  0  0  0  0  0  0
   46.1232   12.8035   13.3228 O   0  0  0  0  0  0  0  0  0  0  0  0
   46.9908   13.7206   11.2362 C   0  0  0  0  0  0  0  0  0  0  0  0
   47.9884   12.6935   11.1831 O   0  0  0  0  0  0  0  0  0  0  0  0
  1  2  1  6  0  0  0
  1  3  1  0  0  0  0
  1  4  2  0  0  0  0
  1 16  1  0  0  0  0
  5  6  1  6  0  0  0
  5  7  1  0  0  0  0
  5 14  1  0  0  0  0
  7  8  1  1  0  0  0
  7  9  1  0  0  0  0
  9 10  1  1  0  0  0
  9 11  1  0  0  0  0
 11 12  1  6  0  0  0
 11 13  1  0  0  0  0
 13 14  1  0  0  0  0
 13 15  1  6  0  0  0
 15 16  1  0  0  0  0
M  CHG  1   3  -1
M  END
>  <CHROM.1>
177.86688782,174.37280559,-61.70897313,46.27044034,13.34287612,11.92456636
-0.34837610,-0.40890034,2.34740918

>  <Name>
ligand

>  <RI>
0

>  <Rbt.Current_Directory>
/home/itssahil/PROJECTS/Mol_Feturizer/New_Systems/rnas/2HO7

>  <Rbt.Executable>
rbdock ($Id: //depot/dev/client3/rdock/2013.1/src/exe/rbdock.cxx#4 $)

>  <Rbt.Library>
libRbt.so (2013.1, Build901 2013/11/27)

>  <Rbt.Parameter_File>
/export/apps/rDock/src/rDock_2013.1_src/data/scripts/dock_solv.prm

>  <Rbt.Receptor>
prm/pocket_docking_7.prm

>  <SCORE>
-10.1666

>  <SCORE.INTER>
-10.2854

>  <SCORE.INTER.CONST>
1

>  <SCORE.INTER.POLAR>
-1.29904

>  <SCORE.INTER.ROT>
3

>  <SCORE.INTER.SOLV>
10.1062

>  <SCORE.INTER.VDW>
-11.4955

>  <SCORE.INTER.norm>
-0.642836

>  <SCORE.INTRA>
0.118754

>  <SCORE.INTRA.DIHEDRAL>
0.167935

>  <SCORE.INTRA.DIHEDRAL.0>
0.00893466

>  <SCORE.INTRA.POLAR>
0

>  <SCORE.INTRA.POLAR.0>
0

>  <SCORE.INTRA.REPUL>
0

>  <SCORE.INTRA.REPUL.0>
0

>  <SCORE.INTRA.SOLV>
-0.00614079

>  <SCORE.INTRA.SOLV.lig_0>
-48.9722

>  <SCORE.INTRA.VDW>
0.0378567

>  <SCORE.INTRA.VDW.0>
-0.529409

>  <SCORE.INTRA.norm>
0.00742211

>  <SCORE.RESTR>
0

>  <SCORE.RESTR.CAVITY>
0

>  <SCORE.RESTR.norm>
0

>  <SCORE.SYSTEM>
0

>  <SCORE.SYSTEM.CONST>
0

>  <SCORE.SYSTEM.DIHEDRAL>
0

>  <SCORE.SYSTEM.SOLV>
0

>  <SCORE.SYSTEM.norm>
0

>  <SCORE.heavy>
16

>  <SCORE.norm>
-0.635414

>  <RMSD>
1.619

$$$$
ligand
 OpenBabel11021811433D
libRbt.so/2013.1/901 2013/11/27
 16 16  0  0  0  0  0  0  0  0999 V2000
   48.8371   13.2995   10.5650 P   0  0  2  0  0  0  0  0  0  0  0  0
   48.2288   13.3251    9.2117 O   0  0  0  0  0  0  0  0  0  0  0  0
   49.7211   14.6276   10.7761 O   0  5  0  0  0  0  0  0  0  0  0  0
   49.7858   12.0036   10.6834 O   0  0  0  0  0  0  0  0  0  0  0  0
   44.8206   11.9368   14.6350 C   0  0  2  0  0  0  0  0  0  0  0  0
   43.9086   10.8775   14.2928 O   0  0  0  0  0  0  0  0  0  0  0  0
   44.1240   13.3179   14.5331 C   0  0  2  0  0  0  0  0  0  0  0  0
   42.9485   13.3510   15.4112 O   0  0  0  0  0  0  0  0  0  0  0  0
   43.6826   13.5358   13.0736 C   0  0  1  0  0  0  0  0  0  0  0  0
   43.0399   14.8100   12.9469 O   0  0  0  0  0  0  0  0  0  0  0  0
   44.9335   13.4944   12.1821 C   0  0  2  0  0  0  0  0  0  0  0  0
   44.5449   13.6851   10.8046 O   0  0  0  0  0  0  0  0  0  0  0  0
   45.6142   12.1083   12.3535 C   0  0  2  0  0  0  0  0  0  0  0  0
   45.9898   11.9065   13.7504 O   0  0  0  0  0  0  0  0  0  0  0  0
   46.8873   12.0707   11.4887 C   0  0  0  0  0  0  0  0  0  0  0  0
   47.6749   13.2492   11.6983 O   0  0  0  0  0  0  0  0  0  0  0  0
  1  2  1  6  0  0  0
  1  3  1  0  0  0  0
  1  4  2  0  0  0  0
  1 16  1  0  0  0  0
  5  6  1  6  0  0  0
  5  7  1  0  0  0  0
  5 14  1  0  0  0  0
  7  8  1  1  0  0  0
  7  9  1  0  0  0  0
  9 10  1  1  0  0  0
  9 11  1  0  0  0  0
 11 12  1  6  0  0  0
 11 13  1  0  0  0  0
 13 14  1  0  0  0  0
 13 15  1  6  0  0  0
 15 16  1  0  0  0  0
M  CHG  1   3  -1
M  END
>  <CHROM.1>
48.22188569,-169.01118701,59.40615072,46.16112895,13.00673518,12.24328475
0.45165325,0.42899178,-0.77443145

>  <Name>
ligand

>  <RI>
0

>  <Rbt.Current_Directory>
/home/itssahil/PROJECTS/Mol_Feturizer/New_Systems/rnas/2HO7

>  <Rbt.Executable>
rbdock ($Id: //depot/dev/client3/rdock/2013.1/src/exe/rbdock.cxx#4 $)

>  <Rbt.Library>
libRbt.so (2013.1, Build901 2013/11/27)

>  <Rbt.Parameter_File>
/export/apps/rDock/src/rDock_2013.1_src/data/scripts/dock_solv.prm

>  <Rbt.Receptor>
prm/pocket_docking_3.prm

>  <SCORE>
-10.7887

>  <SCORE.INTER>
-11.4989

>  <SCORE.INTER.CONST>
1

>  <SCORE.INTER.POLAR>
-1.29904

>  <SCORE.INTER.ROT>
3

>  <SCORE.INTER.SOLV>
11.4239

>  <SCORE.INTER.VDW>
-12.7438

>  <SCORE.INTER.norm>
-0.718681

>  <SCORE.INTRA>
0.710208

>  <SCORE.INTRA.DIHEDRAL>
1.05868

>  <SCORE.INTRA.DIHEDRAL.0>
0.00893466

>  <SCORE.INTRA.POLAR>
0

>  <SCORE.INTRA.POLAR.0>
0

>  <SCORE.INTRA.REPUL>
0

>  <SCORE.INTRA.REPUL.0>
0

>  <SCORE.INTRA.SOLV>
0.33629

>  <SCORE.INTRA.SOLV.lig_0>
-48.9722

>  <SCORE.INTRA.VDW>
0.0127234

>  <SCORE.INTRA.VDW.0>
-0.529409

>  <SCORE.INTRA.norm>
0.044388

>  <SCORE.RESTR>
0

>  <SCORE.RESTR.CAVITY>
0

>  <SCORE.RESTR.norm>
0

>  <SCORE.SYSTEM>
0

>  <SCORE.SYSTEM.CONST>
0

>  <SCORE.SYSTEM.DIHEDRAL>
0

>  <SCORE.SYSTEM.SOLV>
0

>  <SCORE.SYSTEM.norm>
0

>  <SCORE.heavy>
16

>  <SCORE.norm>
-0.674293

>  <RMSD>
1.629

$$$$
ligand
 OpenBabel11021811433D
libRbt.so/2013.1/901 2013/11/27
 16 16  0  0  0  0  0  0  0  0999 V2000
   49.1977   13.2138   10.2598 P   0  0  2  0  0  0  0  0  0  0  0  0
   48.7164   13.4730    8.8801 O   0  0  0  0  0  0  0  0  0  0  0  0
   49.7857   14.5761   10.8828 O   0  5  0  0  0  0  0  0  0  0  0  0
   50.3656   12.1064   10.2027 O   0  0  0  0  0  0  0  0  0  0  0  0
   45.0098   12.3923   14.1693 C   0  0  2  0  0  0  0  0  0  0  0  0
   44.4385   11.2104   13.5800 O   0  0  0  0  0  0  0  0  0  0  0  0
   43.9497   13.5175   14.2855 C   0  0  2  0  0  0  0  0  0  0  0  0
   42.8088   13.0492   15.0812 O   0  0  0  0  0  0  0  0  0  0  0  0
   43.4721   13.8869   12.8686 C   0  0  1  0  0  0  0  0  0  0  0  0
   42.4944   14.9313   12.9438 O   0  0  0  0  0  0  0  0  0  0  0  0
   44.6878   14.3709   12.0628 C   0  0  2  0  0  0  0  0  0  0  0  0
   44.2682   14.7134   10.7243 O   0  0  0  0  0  0  0  0  0  0  0  0
   45.7337   13.2230   12.0128 C   0  0  2  0  0  0  0  0  0  0  0  0
   46.1439   12.8628   13.3675 O   0  0  0  0  0  0  0  0  0  0  0  0
   46.9694   13.7116   11.2354 C   0  0  0  0  0  0  0  0  0  0  0  0
   47.9729   12.6899   11.1888 O   0  0  0  0  0  0  0  0  0  0  0  0
  1  2  1  6  0  0  0
  1  3  1  0  0  0  0
  1  4  2  0  0  0  0
  1 16  1  0  0  0  0
  5  6  1  6  0  0  0
  5  7  1  0  0  0  0
  5 14  1  0  0  0  0
  7  8  1  1  0  0  0
  7  9  1  0  0  0  0
  9 10  1  1  0  0  0
  9 11  1  0  0  0  0
 11 12  1  6  0  0  0
 11 13  1  0  0  0  0
 13 14  1  0  0  0  0
 13 15  1  6  0  0  0
 15 16  1  0  0  0  0
M  CHG  1   3  -1
M  END
>  <CHROM.1>
178.81840190,175.50835797,-61.11417623,46.26567415,13.35234180,11.94995485
-0.37028974,-0.40583796,2.30032239

>  <Name>
ligand

>  <RI>
0

>  <Rbt.Current_Directory>
/home/itssahil/PROJECTS/Mol_Feturizer/New_Systems/rnas/2HO7

>  <Rbt.Executable>
rbdock ($Id: //depot/dev/client3/rdock/2013.1/src/exe/rbdock.cxx#4 $)

>  <Rbt.Library>
libRbt.so (2013.1, Build901 2013/11/27)

>  <Rbt.Parameter_File>
/export/apps/rDock/src/rDock_2013.1_src/data/scripts/dock_solv.prm

>  <Rbt.Receptor>
prm/pocket_docking_4.prm

>  <SCORE>
-10.1286

>  <SCORE.INTER>
-10.2087

>  <SCORE.INTER.CONST>
1

>  <SCORE.INTER.POLAR>
-1.29904

>  <SCORE.INTER.ROT>
3

>  <SCORE.INTER.SOLV>
10.3286

>  <SCORE.INTER.VDW>
-11.5186

>  <SCORE.INTER.norm>
-0.638045

>  <SCORE.INTRA>
0.0801531

>  <SCORE.INTRA.DIHEDRAL>
0.0976116

>  <SCORE.INTRA.DIHEDRAL.0>
0.00893466

>  <SCORE.INTRA.POLAR>
0

>  <SCORE.INTRA.POLAR.0>
0

>  <SCORE.INTRA.REPUL>
0

>  <SCORE.INTRA.REPUL.0>
0

>  <SCORE.INTRA.SOLV>
-0.00841736

>  <SCORE.INTRA.SOLV.lig_0>
-48.9722

>  <SCORE.INTRA.VDW>
0.0355559

>  <SCORE.INTRA.VDW.0>
-0.529409

>  <SCORE.INTRA.norm>
0.00500957

>  <SCORE.RESTR>
0

>  <SCORE.RESTR.CAVITY>
0

>  <SCORE.RESTR.norm>
0

>  <SCORE.SYSTEM>
0

>  <SCORE.SYSTEM.CONST>
0

>  <SCORE.SYSTEM.DIHEDRAL>
0

>  <SCORE.SYSTEM.SOLV>
0

>  <SCORE.SYSTEM.norm>
0

>  <SCORE.heavy>
16

>  <SCORE.norm>
-0.633035

>  <RMSD>
1.638

$$$$
ligand
 OpenBabel11021811433D
libRbt.so/2013.1/901 2013/11/27
 16 16  0  0  0  0  0  0  0  0999 V2000
   48.6762   13.2261   10.5282 P   0  0  2  0  0  0  0  0  0  0  0  0
   48.1407   13.2687    9.1448 O   0  0  0  0  0  0  0  0  0  0  0  0
   49.6150   14.5096   10.7750 O   0  5  0  0  0  0  0  0  0  0  0  0
   49.5499   11.8849   10.7057 O   0  0  0  0  0  0  0  0  0  0  0  0
   44.6811   12.0510   14.5609 C   0  0  2  0  0  0  0  0  0  0  0  0
   43.7831   10.9584   14.2952 O   0  0  0  0  0  0  0  0  0  0  0  0
   43.9412   13.4094   14.4592 C   0  0  2  0  0  0  0  0  0  0  0  0
   42.8123   13.4352   15.3968 O   0  0  0  0  0  0  0  0  0  0  0  0
   43.4187   13.5745   13.0197 C   0  0  1  0  0  0  0  0  0  0  0  0
   42.7344   14.8268   12.8933 O   0  0  0  0  0  0  0  0  0  0  0  0
   44.6224   13.5420   12.0650 C   0  0  2  0  0  0  0  0  0  0  0  0
   44.1577   13.6837   10.7053 O   0  0  0  0  0  0  0  0  0  0  0  0
   45.3502   12.1801   12.2370 C   0  0  2  0  0  0  0  0  0  0  0  0
   45.8033   12.0276   13.6171 O   0  0  0  0  0  0  0  0  0  0  0  0
   46.5773   12.1529   11.3078 C   0  0  0  0  0  0  0  0  0  0  0  0
   47.4559   13.2464   11.5997 O   0  0  0  0  0  0  0  0  0  0  0  0
  1  2  1  6  0  0  0
  1  3  1  0  0  0  0
  1  4  2  0  0  0  0
  1 16  1  0  0  0  0
  5  6  1  6  0  0  0
  5  7  1  0  0  0  0
  5 14  1  0  0  0  0
  7  8  1  1  0  0  0
  7  9  1  0  0  0  0
  9 10  1  1  0  0  0
  9 11  1  0  0  0  0
 11 12  1  6  0  0  0
 11 13  1  0  0  0  0
 13 14  1  0  0  0  0
 13 15  1  6  0  0  0
 15 16  1  0  0  0  0
M  CHG  1   3  -1
M  END
>  <CHROM.1>
57.75903013,-176.22491204,56.00194425,45.95219205,13.02131712,12.17863662
-0.45439196,-0.40394887,2.28353775

>  <Name>
ligand

>  <RI>
0

>  <Rbt.Current_Directory>
/home/itssahil/PROJECTS/Mol_Feturizer/New_Systems/rnas/2HO7

>  <Rbt.Executable>
rbdock ($Id: //depot/dev/client3/rdock/2013.1/src/exe/rbdock.cxx#4 $)

>  <Rbt.Library>
libRbt.so (2013.1, Build901 2013/11/27)

>  <Rbt.Parameter_File>
/export/apps/rDock/src/rDock_2013.1_src/data/scripts/dock_solv.prm

>  <Rbt.Receptor>
prm/pocket_docking_7.prm

>  <SCORE>
-11.0183

>  <SCORE.INTER>
-11.1071

>  <SCORE.INTER.CONST>
1

>  <SCORE.INTER.POLAR>
-1.29904

>  <SCORE.INTER.ROT>
3

>  <SCORE.INTER.SOLV>
11.0134

>  <SCORE.INTER.VDW>
-12.3457

>  <SCORE.INTER.norm>
-0.694194

>  <SCORE.INTRA>
0.0888194

>  <SCORE.INTRA.DIHEDRAL>
0.106215

>  <SCORE.INTRA.DIHEDRAL.0>
0.00893466

>  <SCORE.INTRA.POLAR>
0

>  <SCORE.INTRA.POLAR.0>
0

>  <SCORE.INTRA.REPUL>
0

>  <SCORE.INTRA.REPUL.0>
0

>  <SCORE.INTRA.SOLV>
0.186468

>  <SCORE.INTRA.SOLV.lig_0>
-48.9722

>  <SCORE.INTRA.VDW>
-0.0575219

>  <SCORE.INTRA.VDW.0>
-0.529409

>  <SCORE.INTRA.norm>
0.00555121

>  <SCORE.RESTR>
0

>  <SCORE.RESTR.CAVITY>
0

>  <SCORE.RESTR.norm>
0

>  <SCORE.SYSTEM>
0

>  <SCORE.SYSTEM.CONST>
0

>  <SCORE.SYSTEM.DIHEDRAL>
0

>  <SCORE.SYSTEM.SOLV>
0

>  <SCORE.SYSTEM.norm>
0

>  <SCORE.heavy>
16

>  <SCORE.norm>
-0.688642

>  <RMSD>
1.675

$$$$
ligand
 OpenBabel11021811433D
libRbt.so/2013.1/901 2013/11/27
 16 16  0  0  0  0  0  0  0  0999 V2000
   48.6612   12.8190    9.9351 P   0  0  2  0  0  0  0  0  0  0  0  0
   48.6962   12.4391    8.5010 O   0  0  0  0  0  0  0  0  0  0  0  0
   48.9156   14.4021   10.0726 O   0  5  0  0  0  0  0  0  0  0  0  0
   49.8258   12.0227   10.7118 O   0  0  0  0  0  0  0  0  0  0  0  0
   44.7793   12.1822   14.7696 C   0  0  2  0  0  0  0  0  0  0  0  0
   44.2060   10.9191   14.3869 O   0  0  0  0  0  0  0  0  0  0  0  0
   43.8170   13.3493   14.4308 C   0  0  2  0  0  0  0  0  0  0  0  0
   42.5288   13.1468   15.1044 O   0  0  0  0  0  0  0  0  0  0  0  0
   43.6016   13.3778   12.9059 C   0  0  1  0  0  0  0  0  0  0  0  0
   42.7195   14.4528   12.5612 O   0  0  0  0  0  0  0  0  0  0  0  0
   44.9662   13.5896   12.2319 C   0  0  2  0  0  0  0  0  0  0  0  0
   44.7932   13.6086   10.7985 O   0  0  0  0  0  0  0  0  0  0  0  0
   45.9022   12.4175   12.6370 C   0  0  2  0  0  0  0  0  0  0  0  0
   46.0619   12.3856   14.0884 O   0  0  0  0  0  0  0  0  0  0  0  0
   47.2825   12.6397   11.9924 C   0  0  0  0  0  0  0  0  0  0  0  0
   47.2123   12.4563   10.5731 O   0  0  0  0  0  0  0  0  0  0  0  0
  1  2  1  6  0  0  0
  1  3  1  0  0  0  0
  1  4  2  0  0  0  0
  1 16  1  0  0  0  0
  5  6  1  6  0  0  0
  5  7  1  0  0  0  0
  5 14  1  0  0  0  0
  7  8  1  1  0  0  0
  7  9  1  0  0  0  0
  9 10  1  1  0  0  0
  9 11  1  0  0  0  0
 11 12  1  6  0  0  0
 11 13  1  0  0  0  0
 13 14  1  0  0  0  0
 13 15  1  6  0  0  0
 15 16  1  0  0  0  0
M  CHG  1   3  -1
M  END
>  <CHROM.1>
-69.88324592,175.48877126,171.10326395,46.10032822,12.88029614,12.02956462
0.55573095,0.41861600,-1.01666423

>  <Name>
ligand

>  <RI>
0

>  <Rbt.Current_Directory>
/home/itssahil/PROJECTS/Mol_Feturizer/New_Systems/rnas/2HO7

>  <Rbt.Executable>
rbdock ($Id: //depot/dev/client3/rdock/2013.1/src/exe/rbdock.cxx#4 $)

>  <Rbt.Library>
libRbt.so (2013.1, Build901 2013/11/27)

>  <Rbt.Parameter_File>
/export/apps/rDock/src/rDock_2013.1_src/data/scripts/dock_solv.prm

>  <Rbt.Receptor>
prm/pocket_docking_5.prm

>  <SCORE>
-11.3159

>  <SCORE.INTER>
-12.1782

>  <SCORE.INTER.CONST>
1

>  <SCORE.INTER.POLAR>
-1.29904

>  <SCORE.INTER.ROT>
3

>  <SCORE.INTER.SOLV>
10.986

>  <SCORE.INTER.VDW>
-13.0507

>  <SCORE.INTER.norm>
-0.761139

>  <SCORE.INTRA>
0.862332

>  <SCORE.INTRA.DIHEDRAL>
0.566252

>  <SCORE.INTRA.DIHEDRAL.0>
0.00893466

>  <SCORE.INTRA.POLAR>
0

>  <SCORE.INTRA.POLAR.0>
0

>  <SCORE.INTRA.REPUL>
0

>  <SCORE.INTRA.REPUL.0>
0

>  <SCORE.INTRA.SOLV>
1.28041

>  <SCORE.INTRA.SOLV.lig_0>
-48.9722

>  <SCORE.INTRA.VDW>
-0.0609991

>  <SCORE.INTRA.VDW.0>
-0.529409

>  <SCORE.INTRA.norm>
0.0538957

>  <SCORE.RESTR>
0

>  <SCORE.RESTR.CAVITY>
0

>  <SCORE.RESTR.norm>
0

>  <SCORE.SYSTEM>
0

>  <SCORE.SYSTEM.CONST>
0

>  <SCORE.SYSTEM.DIHEDRAL>
0

>  <SCORE.SYSTEM.SOLV>
0

>  <SCORE.SYSTEM.norm>
0

>  <SCORE.heavy>
16

>  <SCORE.norm>
-0.707243

>  <RMSD>
1.692

$$$$
ligand
 OpenBabel11021811433D
libRbt.so/2013.1/901 2013/11/27
 16 16  0  0  0  0  0  0  0  0999 V2000
   48.6004   13.0859   10.0378 P   0  0  2  0  0  0  0  0  0  0  0  0
   48.5514   13.1934    8.5585 O   0  0  0  0  0  0  0  0  0  0  0  0
   49.1646   14.4618   10.6528 O   0  5  0  0  0  0  0  0  0  0  0  0
   49.5883   11.8786   10.4382 O   0  0  0  0  0  0  0  0  0  0  0  0
   44.6582   12.0769   14.7604 C   0  0  2  0  0  0  0  0  0  0  0  0
   44.0007   10.9137   14.2262 O   0  0  0  0  0  0  0  0  0  0  0  0
   43.7810   13.3409   14.5718 C   0  0  2  0  0  0  0  0  0  0  0  0
   42.4784   13.1467   15.2196 O   0  0  0  0  0  0  0  0  0  0  0  0
   43.5760   13.5727   13.0630 C   0  0  1  0  0  0  0  0  0  0  0  0
   42.7725   14.7408   12.8570 O   0  0  0  0  0  0  0  0  0  0  0  0
   44.9555   13.7708   12.4156 C   0  0  2  0  0  0  0  0  0  0  0  0
   44.7918   13.9791   10.9962 O   0  0  0  0  0  0  0  0  0  0  0  0
   45.8059   12.4955   12.6694 C   0  0  2  0  0  0  0  0  0  0  0  0
   45.9554   12.2733   14.1051 O   0  0  0  0  0  0  0  0  0  0  0  0
   47.2016   12.6992   12.0525 C   0  0  0  0  0  0  0  0  0  0  0  0
   47.1120   12.8115   10.6269 O   0  0  0  0  0  0  0  0  0  0  0  0
  1  2  1  6  0  0  0
  1  3  1  0  0  0  0
  1  4  2  0  0  0  0
  1 16  1  0  0  0  0
  5  6  1  6  0  0  0
  5  7  1  0  0  0  0
  5 14  1  0  0  0  0
  7  8  1  1  0  0  0
  7  9  1  0  0  0  0
  9 10  1  1  0  0  0
  9 11  1  0  0  0  0
 11 12  1  6  0  0  0
 11 13  1  0  0  0  0
 13 14  1  0  0  0  0
 13 15  1  6  0  0  0
 15 16  1  0  0  0  0
M  CHG  1   3  -1
M  END
>  <CHROM.1>
-64.99474896,177.67966675,179.37052187,46.03935890,13.03214076,12.12685671
0.51246695,0.47027403,-0.86841166

>  <Name>
ligand

>  <RI>
0

>  <Rbt.Current_Directory>
/home/itssahil/PROJECTS/Mol_Feturizer/New_Systems/rnas/2HO7

>  <Rbt.Executable>
rbdock ($Id: //depot/dev/client3/rdock/2013.1/src/exe/rbdock.cxx#4 $)

>  <Rbt.Library>
libRbt.so (2013.1, Build901 2013/11/27)

>  <Rbt.Parameter_File>
/export/apps/rDock/src/rDock_2013.1_src/data/scripts/dock_solv.prm

>  <Rbt.Receptor>
prm/pocket_docking_4.prm

>  <SCORE>
-11.4432

>  <SCORE.INTER>
-12.1177

>  <SCORE.INTER.CONST>
1

>  <SCORE.INTER.POLAR>
-1.29904

>  <SCORE.INTER.ROT>
3

>  <SCORE.INTER.SOLV>
11.7984

>  <SCORE.INTER.VDW>
-13.2811

>  <SCORE.INTER.norm>
-0.757355

>  <SCORE.INTRA>
0.674505

>  <SCORE.INTRA.DIHEDRAL>
0.108632

>  <SCORE.INTRA.DIHEDRAL.0>
0.00893466

>  <SCORE.INTRA.POLAR>
0

>  <SCORE.INTRA.POLAR.0>
0

>  <SCORE.INTRA.REPUL>
0

>  <SCORE.INTRA.REPUL.0>
0

>  <SCORE.INTRA.SOLV>
1.20341

>  <SCORE.INTRA.SOLV.lig_0>
-48.9722

>  <SCORE.INTRA.VDW>
0.0184846

>  <SCORE.INTRA.VDW.0>
-0.529409

>  <SCORE.INTRA.norm>
0.0421566

>  <SCORE.RESTR>
0

>  <SCORE.RESTR.CAVITY>
0

>  <SCORE.RESTR.norm>
0

>  <SCORE.SYSTEM>
0

>  <SCORE.SYSTEM.CONST>
0

>  <SCORE.SYSTEM.DIHEDRAL>
0

>  <SCORE.SYSTEM.SOLV>
0

>  <SCORE.SYSTEM.norm>
0

>  <SCORE.heavy>
16

>  <SCORE.norm>
-0.715199

>  <RMSD>
1.726

$$$$
ligand
 OpenBabel11021811433D
libRbt.so/2013.1/901 2013/11/27
 16 16  0  0  0  0  0  0  0  0999 V2000
   48.5650   13.0789   10.0359 P   0  0  2  0  0  0  0  0  0  0  0  0
   47.9419   12.8909    8.7022 O   0  0  0  0  0  0  0  0  0  0  0  0
   49.4172   14.4441   10.0372 O   0  5  0  0  0  0  0  0  0  0  0  0
   49.5475   11.8372   10.3297 O   0  0  0  0  0  0  0  0  0  0  0  0
   44.9439   12.3555   14.5151 C   0  0  2  0  0  0  0  0  0  0  0  0
   44.2269   11.1097   14.5827 O   0  0  0  0  0  0  0  0  0  0  0  0
   43.9929   13.5184   14.1325 C   0  0  2  0  0  0  0  0  0  0  0  0
   42.8984   13.6101   15.1060 O   0  0  0  0  0  0  0  0  0  0  0  0
   43.4148   13.2364   12.7330 C   0  0  1  0  0  0  0  0  0  0  0  0
   42.5352   14.2999   12.3488 O   0  0  0  0  0  0  0  0  0  0  0  0
   44.5838   13.1452   11.7398 C   0  0  2  0  0  0  0  0  0  0  0  0
   44.0686   12.8694   10.4194 O   0  0  0  0  0  0  0  0  0  0  0  0
   45.5252   11.9948   12.1921 C   0  0  2  0  0  0  0  0  0  0  0  0
   46.0313   12.2636   13.5355 O   0  0  0  0  0  0  0  0  0  0  0  0
   46.7171   11.9185   11.2207 C   0  0  0  0  0  0  0  0  0  0  0  0
   47.4165   13.1685   11.1806 O   0  0  0  0  0  0  0  0  0  0  0  0
  1  2  1  6  0  0  0
  1  3  1  0  0  0  0
  1  4  2  0  0  0  0
  1 16  1  0  0  0  0
  5  6  1  6  0  0  0
  5  7  1  0  0  0  0
  5 14  1  0  0  0  0
  7  8  1  1  0  0  0
  7  9  1  0  0  0  0
  9 10  1  6  0  0  0
  9 11  1  0  0  0  0
 11 12  1  6  0  0  0
 11 13  1  0  0  0  0
 13 14  1  0  0  0  0
 13 15  1  6  0  0  0
 15 16  1  0  0  0  0
M  CHG  1   3  -1
M  END
>  <CHROM.1>
57.82391409,-174.36786995,63.37676071,45.97121280,12.87959690,11.87905649
-0.59223510,-0.29924063,1.98948870

>  <Name>
ligand

>  <RI>
0

>  <Rbt.Current_Directory>
/home/itssahil/PROJECTS/Mol_Feturizer/New_Systems/rnas/2HO7

>  <Rbt.Executable>
rbdock ($Id: //depot/dev/client3/rdock/2013.1/src/exe/rbdock.cxx#4 $)

>  <Rbt.Library>
libRbt.so (2013.1, Build901 2013/11/27)

>  <Rbt.Parameter_File>
/export/apps/rDock/src/rDock_2013.1_src/data/scripts/dock_solv.prm

>  <Rbt.Receptor>
prm/pocket_docking_5.prm

>  <SCORE>
-10.7991

>  <SCORE.INTER>
-10.9123

>  <SCORE.INTER.CONST>
1

>  <SCORE.INTER.POLAR>
-1.29517

>  <SCORE.INTER.ROT>
3

>  <SCORE.INTER.SOLV>
10.1766

>  <SCORE.INTER.VDW>
-11.9498

>  <SCORE.INTER.norm>
-0.682018

>  <SCORE.INTRA>
0.113171

>  <SCORE.INTRA.DIHEDRAL>
0.182318

>  <SCORE.INTRA.DIHEDRAL.0>
0.00893466

>  <SCORE.INTRA.POLAR>
0

>  <SCORE.INTRA.POLAR.0>
0

>  <SCORE.INTRA.REPUL>
0

>  <SCORE.INTRA.REPUL.0>
0

>  <SCORE.INTRA.SOLV>
0.258643

>  <SCORE.INTRA.SOLV.lig_0>
-48.9722

>  <SCORE.INTRA.VDW>
-0.10731

>  <SCORE.INTRA.VDW.0>
-0.529409

>  <SCORE.INTRA.norm>
0.00707319

>  <SCORE.RESTR>
0

>  <SCORE.RESTR.CAVITY>
0

>  <SCORE.RESTR.norm>
0

>  <SCORE.SYSTEM>
0

>  <SCORE.SYSTEM.CONST>
0

>  <SCORE.SYSTEM.DIHEDRAL>
0

>  <SCORE.SYSTEM.SOLV>
0

>  <SCORE.SYSTEM.norm>
0

>  <SCORE.heavy>
16

>  <SCORE.norm>
-0.674945

>  <RMSD>
1.758

$$$$
ligand
 OpenBabel11021811433D
libRbt.so/2013.1/901 2013/11/27
 16 16  0  0  0  0  0  0  0  0999 V2000
   48.5989   12.8053    9.9387 P   0  0  2  0  0  0  0  0  0  0  0  0
   48.6315   12.3579    8.5241 O   0  0  0  0  0  0  0  0  0  0  0  0
   48.9729   14.3688   10.0110 O   0  5  0  0  0  0  0  0  0  0  0  0
   49.6833   11.9588   10.7761 O   0  0  0  0  0  0  0  0  0  0  0  0
   44.6894   12.1969   14.7482 C   0  0  2  0  0  0  0  0  0  0  0  0
   44.0577   10.9882   14.2893 O   0  0  0  0  0  0  0  0  0  0  0  0
   43.7780   13.4251   14.4952 C   0  0  2  0  0  0  0  0  0  0  0  0
   42.4865   13.2361   15.1663 O   0  0  0  0  0  0  0  0  0  0  0  0
   43.5543   13.5631   12.9776 C   0  0  1  0  0  0  0  0  0  0  0  0
   42.7190   14.6963   12.7120 O   0  0  0  0  0  0  0  0  0  0  0  0
   44.9226   13.7580   12.3060 C   0  0  2  0  0  0  0  0  0  0  0  0
   44.7414   13.8786   10.8786 O   0  0  0  0  0  0  0  0  0  0  0  0
   45.8079   12.5216   12.6250 C   0  0  2  0  0  0  0  0  0  0  0  0
   45.9754   12.3876   14.0697 O   0  0  0  0  0  0  0  0  0  0  0  0
   47.1925   12.7244   11.9833 C   0  0  0  0  0  0  0  0  0  0  0  0
   47.1144   12.5848   10.5595 O   0  0  0  0  0  0  0  0  0  0  0  0
  1  2  1  6  0  0  0
  1  3  1  0  0  0  0
  1  4  2  0  0  0  0
  1 16  1  0  0  0  0
  5  6  1  6  0  0  0
  5  7  1  0  0  0  0
  5 14  1  0  0  0  0
  7  8  1  1  0  0  0
  7  9  1  0  0  0  0
  9 10  1  1  0  0  0
  9 11  1  0  0  0  0
 11 12  1  6  0  0  0
 11 13  1  0  0  0  0
 13 14  1  0  0  0  0
 13 15  1  6  0  0  0
 15 16  1  0  0  0  0
M  CHG  1   3  -1
M  END
>  <CHROM.1>
-72.18705465,-179.90012343,166.62639590,46.03533851,12.95067102,12.05042610
-0.51570076,-0.47352351,2.18942299

>  <Name>
ligand

>  <RI>
0

>  <Rbt.Current_Directory>
/home/itssahil/PROJECTS/Mol_Feturizer/New_Systems/rnas/2HO7

>  <Rbt.Executable>
rbdock ($Id: //depot/dev/client3/rdock/2013.1/src/exe/rbdock.cxx#4 $)

>  <Rbt.Library>
libRbt.so (2013.1, Build901 2013/11/27)

>  <Rbt.Parameter_File>
/export/apps/rDock/src/rDock_2013.1_src/data/scripts/dock_solv.prm

>  <Rbt.Receptor>
prm/pocket_docking_4.prm

>  <SCORE>
-11.2829

>  <SCORE.INTER>
-12.2008

>  <SCORE.INTER.CONST>
1

>  <SCORE.INTER.POLAR>
-1.2988

>  <SCORE.INTER.ROT>
3

>  <SCORE.INTER.SOLV>
11.0237

>  <SCORE.INTER.VDW>
-13.0791

>  <SCORE.INTER.norm>
-0.762547

>  <SCORE.INTRA>
0.917888

>  <SCORE.INTRA.DIHEDRAL>
0.79517

>  <SCORE.INTRA.DIHEDRAL.0>
0.00893466

>  <SCORE.INTRA.POLAR>
0

>  <SCORE.INTRA.POLAR.0>
0

>  <SCORE.INTRA.REPUL>
0

>  <SCORE.INTRA.REPUL.0>
0

>  <SCORE.INTRA.SOLV>
1.09616

>  <SCORE.INTRA.SOLV.lig_0>
-48.9722

>  <SCORE.INTRA.VDW>
-0.0277791

>  <SCORE.INTRA.VDW.0>
-0.529409

>  <SCORE.INTRA.norm>
0.057368

>  <SCORE.RESTR>
0

>  <SCORE.RESTR.CAVITY>
0

>  <SCORE.RESTR.norm>
0

>  <SCORE.SYSTEM>
0

>  <SCORE.SYSTEM.CONST>
0

>  <SCORE.SYSTEM.DIHEDRAL>
0

>  <SCORE.SYSTEM.SOLV>
0

>  <SCORE.SYSTEM.norm>
0

>  <SCORE.heavy>
16

>  <SCORE.norm>
-0.705179

>  <RMSD>
1.762

$$$$
ligand
 OpenBabel11021811433D
libRbt.so/2013.1/901 2013/11/27
 16 16  0  0  0  0  0  0  0  0999 V2000
   48.6693   12.9814   10.1075 P   0  0  2  0  0  0  0  0  0  0  0  0
   49.3592   11.6697   10.1827 O   0  0  0  0  0  0  0  0  0  0  0  0
   48.6241   13.4717    8.5754 O   0  5  0  0  0  0  0  0  0  0  0  0
   49.4920   14.0519   10.9855 O   0  0  0  0  0  0  0  0  0  0  0  0
   44.5764   11.9938   14.7049 C   0  0  2  0  0  0  0  0  0  0  0  0
   43.8151   10.9402   14.0875 O   0  0  0  0  0  0  0  0  0  0  0  0
   43.8309   13.3486   14.5964 C   0  0  2  0  0  0  0  0  0  0  0  0
   42.5062   13.2417   15.2192 O   0  0  0  0  0  0  0  0  0  0  0  0
   43.6717   13.7005   13.1053 C   0  0  1  0  0  0  0  0  0  0  0  0
   42.9904   14.9538   12.9733 O   0  0  0  0  0  0  0  0  0  0  0  0
   45.0733   13.8035   12.4838 C   0  0  2  0  0  0  0  0  0  0  0  0
   44.9515   14.1219   11.0807 O   0  0  0  0  0  0  0  0  0  0  0  0
   45.7899   12.4358   12.6564 C   0  0  2  0  0  0  0  0  0  0  0  0
   45.8960   12.1039   14.0748 O   0  0  0  0  0  0  0  0  0  0  0  0
   47.2078   12.5408   12.0658 C   0  0  0  0  0  0  0  0  0  0  0  0
   47.1506   12.8459   10.6670 O   0  0  0  0  0  0  0  0  0  0  0  0
  1  2  1  1  0  0  0
  1  3  1  0  0  0  0
  1  4  2  0  0  0  0
  1 16  1  0  0  0  0
  5  6  1  6  0  0  0
  5  7  1  0  0  0  0
  5 14  1  0  0  0  0
  7  8  1  6  0  0  0
  7  9  1  0  0  0  0
  9 10  1  1  0  0  0
  9 11  1  0  0  0  0
 11 12  1  6  0  0  0
 11 13  1  0  0  0  0
 13 14  1  0  0  0  0
 13 15  1  1  0  0  0
 15 16  1  0  0  0  0
M  CHG  1   3  -1
M  END
>  <CHROM.1>
-61.13195878,178.58426212,65.81082751,46.07987597,13.01206550,12.14992862
-0.44772274,-0.52299957,2.36916519

>  <Name>
ligand

>  <RI>
0

>  <Rbt.Current_Directory>
/home/itssahil/PROJECTS/Mol_Feturizer/New_Systems/rnas/2HO7

>  <Rbt.Executable>
rbdock ($Id: //depot/dev/client3/rdock/2013.1/src/exe/rbdock.cxx#4 $)

>  <Rbt.Library>
libRbt.so (2013.1, Build901 2013/11/27)

>  <Rbt.Parameter_File>
/export/apps/rDock/src/rDock_2013.1_src/data/scripts/dock_solv.prm

>  <Rbt.Receptor>
prm/pocket_docking_6.prm

>  <SCORE>
-9.78813

>  <SCORE.INTER>
-10.348

>  <SCORE.INTER.CONST>
1

>  <SCORE.INTER.POLAR>
-1.03923

>  <SCORE.INTER.ROT>
3

>  <SCORE.INTER.SOLV>
13.0375

>  <SCORE.INTER.VDW>
-13.3804

>  <SCORE.INTER.norm>
-0.646747

>  <SCORE.INTRA>
0.559823

>  <SCORE.INTRA.DIHEDRAL>
0.0604234

>  <SCORE.INTRA.DIHEDRAL.0>
0.00893466

>  <SCORE.INTRA.POLAR>
0

>  <SCORE.INTRA.POLAR.0>
0

>  <SCORE.INTRA.REPUL>
0

>  <SCORE.INTRA.REPUL.0>
0

>  <SCORE.INTRA.SOLV>
0.586811

>  <SCORE.INTRA.SOLV.lig_0>
-48.9722

>  <SCORE.INTRA.VDW>
0.236206

>  <SCORE.INTRA.VDW.0>
-0.529409

>  <SCORE.INTRA.norm>
0.034989

>  <SCORE.RESTR>
0

>  <SCORE.RESTR.CAVITY>
0

>  <SCORE.RESTR.norm>
0

>  <SCORE.SYSTEM>
0

>  <SCORE.SYSTEM.CONST>
0

>  <SCORE.SYSTEM.DIHEDRAL>
0

>  <SCORE.SYSTEM.SOLV>
0

>  <SCORE.SYSTEM.norm>
0

>  <SCORE.heavy>
16

>  <SCORE.norm>
-0.611758

>  <RMSD>
1.767

$$$$
ligand
 OpenBabel11021811433D
libRbt.so/2013.1/901 2013/11/27
 16 16  0  0  0  0  0  0  0  0999 V2000
   49.2410   13.0219    9.7212 P   0  0  2  0  0  0  0  0  0  0  0  0
   48.5916   13.5339    8.4889 O   0  0  0  0  0  0  0  0  0  0  0  0
   50.4170   14.0288   10.1605 O   0  5  0  0  0  0  0  0  0  0  0  0
   49.8690   11.5714    9.4129 O   0  0  0  0  0  0  0  0  0  0  0  0
   45.5065   11.4876   13.8818 C   0  0  2  0  0  0  0  0  0  0  0  0
   44.4638   10.5642   13.5199 O   0  0  0  0  0  0  0  0  0  0  0  0
   44.9295   12.9081   14.1102 C   0  0  2  0  0  0  0  0  0  0  0  0
   43.8977   12.8670   15.1531 O   0  0  0  0  0  0  0  0  0  0  0  0
   44.3077   13.4009   12.7900 C   0  0  1  0  0  0  0  0  0  0  0  0
   43.7708   14.7170   12.9689 O   0  0  0  0  0  0  0  0  0  0  0  0
   45.4112   13.4313   11.7211 C   0  0  2  0  0  0  0  0  0  0  0  0
   44.8507   13.8798   10.4683 O   0  0  0  0  0  0  0  0  0  0  0  0
   45.9819   11.9949   11.5621 C   0  0  2  0  0  0  0  0  0  0  0  0
   46.5315   11.5330   12.8340 O   0  0  0  0  0  0  0  0  0  0  0  0
   47.1114   12.0231   10.5164 C   0  0  0  0  0  0  0  0  0  0  0  0
   48.1536   12.9184   10.9231 O   0  0  0  0  0  0  0  0  0  0  0  0
  1  2  1  6  0  0  0
  1  3  1  0  0  0  0
  1  4  2  0  0  0  0
  1 16  1  0  0  0  0
  5  6  1  6  0  0  0
  5  7  1  0  0  0  0
  5 14  1  0  0  0  0
  7  8  1  1  0  0  0
  7  9  1  0  0  0  0
  9 10  1  1  0  0  0
  9 11  1  0  0  0  0
 11 12  1  6  0  0  0
 11 13  1  0  0  0  0
 13 14  1  0  0  0  0
 13 15  1  6  0  0  0
 15 16  1  0  0  0  0
M  CHG  1   3  -1
M  END
>  <CHROM.1>
59.24845397,-174.40225438,59.86492451,46.67066360,12.77037632,11.59229481
-0.44129691,-0.55287181,2.48180258

>  <Name>
ligand

>  <RI>
0

>  <Rbt.Current_Directory>
/home/itssahil/PROJECTS/Mol_Feturizer/New_Systems/rnas/2HO7

>  <Rbt.Executable>
rbdock ($Id: //depot/dev/client3/rdock/2013.1/src/exe/rbdock.cxx#4 $)

>  <Rbt.Library>
libRbt.so (2013.1, Build901 2013/11/27)

>  <Rbt.Parameter_File>
/export/apps/rDock/src/rDock_2013.1_src/data/scripts/dock_solv.prm

>  <Rbt.Receptor>
prm/pocket_docking_7.prm

>  <SCORE>
-9.59832

>  <SCORE.INTER>
-9.67353

>  <SCORE.INTER.CONST>
1

>  <SCORE.INTER.POLAR>
-1.29879

>  <SCORE.INTER.ROT>
3

>  <SCORE.INTER.SOLV>
9.94489

>  <SCORE.INTER.VDW>
-11.0347

>  <SCORE.INTER.norm>
-0.604596

>  <SCORE.INTRA>
0.0752133

>  <SCORE.INTRA.DIHEDRAL>
0.146894

>  <SCORE.INTRA.DIHEDRAL.0>
0.00893466

>  <SCORE.INTRA.POLAR>
0

>  <SCORE.INTRA.POLAR.0>
0

>  <SCORE.INTRA.REPUL>
0

>  <SCORE.INTRA.REPUL.0>
0

>  <SCORE.INTRA.SOLV>
0.221184

>  <SCORE.INTRA.SOLV.lig_0>
-48.9722

>  <SCORE.INTRA.VDW>
-0.108826

>  <SCORE.INTRA.VDW.0>
-0.529409

>  <SCORE.INTRA.norm>
0.00470083

>  <SCORE.RESTR>
0

>  <SCORE.RESTR.CAVITY>
0

>  <SCORE.RESTR.norm>
0

>  <SCORE.SYSTEM>
0

>  <SCORE.SYSTEM.CONST>
0

>  <SCORE.SYSTEM.DIHEDRAL>
0

>  <SCORE.SYSTEM.SOLV>
0

>  <SCORE.SYSTEM.norm>
0

>  <SCORE.heavy>
16

>  <SCORE.norm>
-0.599895

>  <RMSD>
1.792

$$$$
ligand
 OpenBabel11021811433D
libRbt.so/2013.1/901 2013/11/27
 16 16  0  0  0  0  0  0  0  0999 V2000
   48.6831   12.7063   10.1940 P   0  0  2  0  0  0  0  0  0  0  0  0
   49.3921   11.4864    9.7342 O   0  0  0  0  0  0  0  0  0  0  0  0
   48.2017   13.5558    8.9148 O   0  5  0  0  0  0  0  0  0  0  0  0
   49.6974   13.5959   11.0734 O   0  0  0  0  0  0  0  0  0  0  0  0
   44.4843   12.2057   14.1993 C   0  0  2  0  0  0  0  0  0  0  0  0
   43.7003   11.2369   13.4800 O   0  0  0  0  0  0  0  0  0  0  0  0
   43.6571   13.4868   14.4776 C   0  0  2  0  0  0  0  0  0  0  0  0
   42.4460   13.1457   15.2333 O   0  0  0  0  0  0  0  0  0  0  0  0
   43.2618   14.1158   13.1283 C   0  0  1  0  0  0  0  0  0  0  0  0
   42.5001   15.3080   13.3541 O   0  0  0  0  0  0  0  0  0  0  0  0
   44.5493   14.4594   12.3630 C   0  0  2  0  0  0  0  0  0  0  0  0
   44.2056   15.0412   11.0869 O   0  0  0  0  0  0  0  0  0  0  0  0
   45.3581   13.1504   12.1478 C   0  0  2  0  0  0  0  0  0  0  0  0
   45.6891   12.5510   13.4379 O   0  0  0  0  0  0  0  0  0  0  0  0
   46.6660   13.4911   11.4107 C   0  0  0  0  0  0  0  0  0  0  0  0
   47.3845   12.2966   11.0791 O   0  0  0  0  0  0  0  0  0  0  0  0
  1  2  1  6  0  0  0
  1  3  1  0  0  0  0
  1  4  2  0  0  0  0
  1 16  1  0  0  0  0
  5  6  1  6  0  0  0
  5  7  1  0  0  0  0
  5 14  1  0  0  0  0
  7  8  1  6  0  0  0
  7  9  1  0  0  0  0
  9 10  1  1  0  0  0
  9 11  1  0  0  0  0
 11 12  1  6  0  0  0
 11 13  1  0  0  0  0
 13 14  1  0  0  0  0
 13 15  1  1  0  0  0
 15 16  1  0  0  0  0
M  CHG  1   3  -1
M  END
>  <CHROM.1>
-174.53427097,175.12743545,-175.27857521,45.86930755,13.19187366,12.03274475
-0.25150326,-0.56041817,2.47736730

>  <Name>
ligand

>  <RI>
0

>  <Rbt.Current_Directory>
/home/itssahil/PROJECTS/Mol_Feturizer/New_Systems/rnas/2HO7

>  <Rbt.Executable>
rbdock ($Id: //depot/dev/client3/rdock/2013.1/src/exe/rbdock.cxx#4 $)

>  <Rbt.Library>
libRbt.so (2013.1, Build901 2013/11/27)

>  <Rbt.Parameter_File>
/export/apps/rDock/src/rDock_2013.1_src/data/scripts/dock_solv.prm

>  <Rbt.Receptor>
prm/pocket_docking_4.prm

>  <SCORE>
-8.71404

>  <SCORE.INTER>
-9.09385

>  <SCORE.INTER.CONST>
1

>  <SCORE.INTER.POLAR>
-1.03902

>  <SCORE.INTER.ROT>
3

>  <SCORE.INTER.SOLV>
11.4001

>  <SCORE.INTER.VDW>
-11.9992

>  <SCORE.INTER.norm>
-0.568365

>  <SCORE.INTRA>
0.379807

>  <SCORE.INTRA.DIHEDRAL>
0.250728

>  <SCORE.INTRA.DIHEDRAL.0>
0.00893466

>  <SCORE.INTRA.POLAR>
0

>  <SCORE.INTRA.POLAR.0>
0

>  <SCORE.INTRA.REPUL>
0

>  <SCORE.INTRA.REPUL.0>
0

>  <SCORE.INTRA.SOLV>
0.630353

>  <SCORE.INTRA.SOLV.lig_0>
-48.9722

>  <SCORE.INTRA.VDW>
-0.0607328

>  <SCORE.INTRA.VDW.0>
-0.529409

>  <SCORE.INTRA.norm>
0.023738

>  <SCORE.RESTR>
0

>  <SCORE.RESTR.CAVITY>
0

>  <SCORE.RESTR.norm>
0

>  <SCORE.SYSTEM>
0

>  <SCORE.SYSTEM.CONST>
0

>  <SCORE.SYSTEM.DIHEDRAL>
0

>  <SCORE.SYSTEM.SOLV>
0

>  <SCORE.SYSTEM.norm>
0

>  <SCORE.heavy>
16

>  <SCORE.norm>
-0.544627

>  <RMSD>
1.873

$$$$
ligand
 OpenBabel11021811433D
libRbt.so/2013.1/901 2013/11/27
 16 16  0  0  0  0  0  0  0  0999 V2000
   48.7476   12.8704    9.9353 P   0  0  2  0  0  0  0  0  0  0  0  0
   48.2414   13.4461    8.6647 O   0  0  0  0  0  0  0  0  0  0  0  0
   49.6375   13.9712   10.7009 O   0  5  0  0  0  0  0  0  0  0  0  0
   49.6614   11.5882    9.5967 O   0  0  0  0  0  0  0  0  0  0  0  0
   44.7004   12.3270   14.0741 C   0  0  2  0  0  0  0  0  0  0  0  0
   43.9446   11.2886   13.4252 O   0  0  0  0  0  0  0  0  0  0  0  0
   43.8163   13.5746   14.3291 C   0  0  2  0  0  0  0  0  0  0  0  0
   42.6521   13.2045   15.1426 O   0  0  0  0  0  0  0  0  0  0  0  0
   43.3414   14.1229   12.9703 C   0  0  1  0  0  0  0  0  0  0  0  0
   42.5256   15.2827   13.1743 O   0  0  0  0  0  0  0  0  0  0  0  0
   44.5814   14.4990   12.1442 C   0  0  2  0  0  0  0  0  0  0  0  0
   44.1631   15.0061   10.8586 O   0  0  0  0  0  0  0  0  0  0  0  0
   45.4508   13.2255   11.9541 C   0  0  2  0  0  0  0  0  0  0  0  0
   45.8579   12.7007   13.2549 O   0  0  0  0  0  0  0  0  0  0  0  0
   46.7123   13.6010   11.1556 C   0  0  0  0  0  0  0  0  0  0  0  0
   47.5042   12.4376   10.8862 O   0  0  0  0  0  0  0  0  0  0  0  0
  1  2  1  6  0  0  0
  1  3  1  0  0  0  0
  1  4  2  0  0  0  0
  1 16  1  0  0  0  0
  5  6  1  6  0  0  0
  5  7  1  0  0  0  0
  5 14  1  0  0  0  0
  7  8  1  1  0  0  0
  7  9  1  0  0  0  0
  9 10  1  1  0  0  0
  9 11  1  0  0  0  0
 11 12  1  6  0  0  0
 11 13  1  0  0  0  0
 13 14  1  0  0  0  0
 13 15  1  6  0  0  0
 15 16  1  0  0  0  0
M  CHG  1   3  -1
M  END
>  <CHROM.1>
-176.45997742,175.11545941,-59.55214857,45.97055826,13.27948238,11.83748588
-0.30487195,-0.55303810,2.41315102

>  <Name>
ligand

>  <RI>
0

>  <Rbt.Current_Directory>
/home/itssahil/PROJECTS/Mol_Feturizer/New_Systems/rnas/2HO7

>  <Rbt.Executable>
rbdock ($Id: //depot/dev/client3/rdock/2013.1/src/exe/rbdock.cxx#4 $)

>  <Rbt.Library>
libRbt.so (2013.1, Build901 2013/11/27)

>  <Rbt.Parameter_File>
/export/apps/rDock/src/rDock_2013.1_src/data/scripts/dock_solv.prm

>  <Rbt.Receptor>
prm/pocket_docking_5.prm

>  <SCORE>
-10.4508

>  <SCORE.INTER>
-10.5365

>  <SCORE.INTER.CONST>
1

>  <SCORE.INTER.POLAR>
-1.29904

>  <SCORE.INTER.ROT>
3

>  <SCORE.INTER.SOLV>
9.99841

>  <SCORE.INTER.VDW>
-11.627

>  <SCORE.INTER.norm>
-0.658529

>  <SCORE.INTRA>
0.0856562

>  <SCORE.INTRA.DIHEDRAL>
0.153537

>  <SCORE.INTRA.DIHEDRAL.0>
0.00893466

>  <SCORE.INTRA.POLAR>
0

>  <SCORE.INTRA.POLAR.0>
0

>  <SCORE.INTRA.REPUL>
0

>  <SCORE.INTRA.REPUL.0>
0

>  <SCORE.INTRA.SOLV>
-0.0420002

>  <SCORE.INTRA.SOLV.lig_0>
-48.9722

>  <SCORE.INTRA.VDW>
0.0298878

>  <SCORE.INTRA.VDW.0>
-0.529409

>  <SCORE.INTRA.norm>
0.00535351

>  <SCORE.RESTR>
0

>  <SCORE.RESTR.CAVITY>
0

>  <SCORE.RESTR.norm>
0

>  <SCORE.SYSTEM>
0

>  <SCORE.SYSTEM.CONST>
0

>  <SCORE.SYSTEM.DIHEDRAL>
0

>  <SCORE.SYSTEM.SOLV>
0

>  <SCORE.SYSTEM.norm>
0

>  <SCORE.heavy>
16

>  <SCORE.norm>
-0.653176

>  <RMSD>
1.892

$$$$
ligand
 OpenBabel11021811433D
libRbt.so/2013.1/901 2013/11/27
 16 16  0  0  0  0  0  0  0  0999 V2000
   48.7031   12.8444    9.9440 P   0  0  2  0  0  0  0  0  0  0  0  0
   48.2034   13.4305    8.6755 O   0  0  0  0  0  0  0  0  0  0  0  0
   49.6022   13.9335   10.7155 O   0  5  0  0  0  0  0  0  0  0  0  0
   49.6055   11.5555    9.6004 O   0  0  0  0  0  0  0  0  0  0  0  0
   44.6557   12.3246   14.0800 C   0  0  2  0  0  0  0  0  0  0  0  0
   43.8916   11.2904   13.4341 O   0  0  0  0  0  0  0  0  0  0  0  0
   43.7798   13.5775   14.3373 C   0  0  2  0  0  0  0  0  0  0  0  0
   42.6161   13.2147   15.1548 O   0  0  0  0  0  0  0  0  0  0  0  0
   43.3039   14.1281   12.9799 C   0  0  1  0  0  0  0  0  0  0  0  0
   42.4957   15.2929   13.1859 O   0  0  0  0  0  0  0  0  0  0  0  0
   44.5434   14.4965   12.1496 C   0  0  2  0  0  0  0  0  0  0  0  0
   44.1240   15.0055   10.8651 O   0  0  0  0  0  0  0  0  0  0  0  0
   45.4046   13.2177   11.9572 C   0  0  2  0  0  0  0  0  0  0  0  0
   45.8128   12.6911   13.2570 O   0  0  0  0  0  0  0  0  0  0  0  0
   46.6657   13.5853   11.1545 C   0  0  0  0  0  0  0  0  0  0  0  0
   47.4548   12.4186   10.8917 O   0  0  0  0  0  0  0  0  0  0  0  0
  1  2  1  6  0  0  0
  1  3  1  0  0  0  0
  1  4  2  0  0  0  0
  1 16  1  0  0  0  0
  5  6  1  6  0  0  0
  5  7  1  0  0  0  0
  5 14  1  0  0  0  0
  7  8  1  1  0  0  0
  7  9  1  0  0  0  0
  9 10  1  1  0  0  0
  9 11  1  0  0  0  0
 11 12  1  6  0  0  0
 11 13  1  0  0  0  0
 13 14  1  0  0  0  0
 13 15  1  6  0  0  0
 15 16  1  0  0  0  0
M  CHG  1   3  -1
M  END
>  <CHROM.1>
-176.89078248,175.47420864,-58.97608247,45.92813827,13.26935661,11.84491603
-0.30044743,-0.55672482,2.41432309

>  <Name>
ligand

>  <RI>
0

>  <Rbt.Current_Directory>
/home/itssahil/PROJECTS/Mol_Feturizer/New_Systems/rnas/2HO7

>  <Rbt.Executable>
rbdock ($Id: //depot/dev/client3/rdock/2013.1/src/exe/rbdock.cxx#4 $)

>  <Rbt.Library>
libRbt.so (2013.1, Build901 2013/11/27)

>  <Rbt.Parameter_File>
/export/apps/rDock/src/rDock_2013.1_src/data/scripts/dock_solv.prm

>  <Rbt.Receptor>
prm/pocket_docking_6.prm

>  <SCORE>
-10.4417

>  <SCORE.INTER>
-10.5167

>  <SCORE.INTER.CONST>
1

>  <SCORE.INTER.POLAR>
-1.29901

>  <SCORE.INTER.ROT>
3

>  <SCORE.INTER.SOLV>
10.0321

>  <SCORE.INTER.VDW>
-11.6252

>  <SCORE.INTER.norm>
-0.657297

>  <SCORE.INTRA>
0.0750711

>  <SCORE.INTRA.DIHEDRAL>
0.128108

>  <SCORE.INTRA.DIHEDRAL.0>
0.00893466

>  <SCORE.INTRA.POLAR>
0

>  <SCORE.INTRA.POLAR.0>
0

>  <SCORE.INTRA.REPUL>
0

>  <SCORE.INTRA.REPUL.0>
0

>  <SCORE.INTRA.SOLV>
-0.0440828

>  <SCORE.INTRA.SOLV.lig_0>
-48.9722

>  <SCORE.INTRA.VDW>
0.0330583

>  <SCORE.INTRA.VDW.0>
-0.529409

>  <SCORE.INTRA.norm>
0.00469194

>  <SCORE.RESTR>
0

>  <SCORE.RESTR.CAVITY>
0

>  <SCORE.RESTR.norm>
0

>  <SCORE.SYSTEM>
0

>  <SCORE.SYSTEM.CONST>
0

>  <SCORE.SYSTEM.DIHEDRAL>
0

>  <SCORE.SYSTEM.SOLV>
0

>  <SCORE.SYSTEM.norm>
0

>  <SCORE.heavy>
16

>  <SCORE.norm>
-0.652605

>  <RMSD>
1.904

$$$$
ligand
 OpenBabel11021811433D
libRbt.so/2013.1/901 2013/11/27
 16 16  0  0  0  0  0  0  0  0999 V2000
   48.7114   12.8421    9.8784 P   0  0  2  0  0  0  0  0  0  0  0  0
   48.1744   13.3540    8.5932 O   0  0  0  0  0  0  0  0  0  0  0  0
   49.5856   13.9932   10.5859 O   0  5  0  0  0  0  0  0  0  0  0  0
   49.6504   11.5686    9.5784 O   0  0  0  0  0  0  0  0  0  0  0  0
   44.7180   12.3269   14.0657 C   0  0  2  0  0  0  0  0  0  0  0  0
   43.9598   11.2754   13.4409 O   0  0  0  0  0  0  0  0  0  0  0  0
   43.8295   13.5719   14.3175 C   0  0  2  0  0  0  0  0  0  0  0  0
   42.6795   13.2049   15.1523 O   0  0  0  0  0  0  0  0  0  0  0  0
   43.3318   14.0998   12.9588 C   0  0  1  0  0  0  0  0  0  0  0  0
   42.5114   15.2570   13.1597 O   0  0  0  0  0  0  0  0  0  0  0  0
   44.5574   14.4732   12.1104 C   0  0  2  0  0  0  0  0  0  0  0  0
   44.1175   14.9612   10.8245 O   0  0  0  0  0  0  0  0  0  0  0  0
   45.4323   13.2029   11.9239 C   0  0  2  0  0  0  0  0  0  0  0  0
   45.8613   12.6974   13.2253 O   0  0  0  0  0  0  0  0  0  0  0  0
   46.6798   13.5762   11.1027 C   0  0  0  0  0  0  0  0  0  0  0  0
   47.4917   12.4199   10.8641 O   0  0  0  0  0  0  0  0  0  0  0  0
  1  2  1  6  0  0  0
  1  3  1  0  0  0  0
  1  4  2  0  0  0  0
  1 16  1  0  0  0  0
  5  6  1  6  0  0  0
  5  7  1  0  0  0  0
  5 14  1  0  0  0  0
  7  8  1  1  0  0  0
  7  9  1  0  0  0  0
  9 10  1  1  0  0  0
  9 11  1  0  0  0  0
 11 12  1  6  0  0  0
 11 13  1  0  0  0  0
 13 14  1  0  0  0  0
 13 15  1  6  0  0  0
 15 16  1  0  0  0  0
M  CHG  1   3  -1
M  END
>  <CHROM.1>
-177.83689476,174.62774037,-59.80742160,45.95344168,13.25864949,11.80512162
-0.31953466,-0.55704687,2.39211530

>  <Name>
ligand

>  <RI>
0

>  <Rbt.Current_Directory>
/home/itssahil/PROJECTS/Mol_Feturizer/New_Systems/rnas/2HO7

>  <Rbt.Executable>
rbdock ($Id: //depot/dev/client3/rdock/2013.1/src/exe/rbdock.cxx#4 $)

>  <Rbt.Library>
libRbt.so (2013.1, Build901 2013/11/27)

>  <Rbt.Parameter_File>
/export/apps/rDock/src/rDock_2013.1_src/data/scripts/dock_solv.prm

>  <Rbt.Receptor>
prm/pocket_docking_5.prm

>  <SCORE>
-10.44

>  <SCORE.INTER>
-10.5271

>  <SCORE.INTER.CONST>
1

>  <SCORE.INTER.POLAR>
-1.29904

>  <SCORE.INTER.ROT>
3

>  <SCORE.INTER.SOLV>
9.88623

>  <SCORE.INTER.VDW>
-11.5834

>  <SCORE.INTER.norm>
-0.657944

>  <SCORE.INTRA>
0.0870641

>  <SCORE.INTRA.DIHEDRAL>
0.149488

>  <SCORE.INTRA.DIHEDRAL.0>
0.00893466

>  <SCORE.INTRA.POLAR>
0

>  <SCORE.INTRA.POLAR.0>
0

>  <SCORE.INTRA.REPUL>
0

>  <SCORE.INTRA.REPUL.0>
0

>  <SCORE.INTRA.SOLV>
-0.0382585

>  <SCORE.INTRA.SOLV.lig_0>
-48.9722

>  <SCORE.INTRA.VDW>
0.0314494

>  <SCORE.INTRA.VDW.0>
-0.529409

>  <SCORE.INTRA.norm>
0.00544151

>  <SCORE.RESTR>
0

>  <SCORE.RESTR.CAVITY>
0

>  <SCORE.RESTR.norm>
0

>  <SCORE.SYSTEM>
0

>  <SCORE.SYSTEM.CONST>
0

>  <SCORE.SYSTEM.DIHEDRAL>
0

>  <SCORE.SYSTEM.SOLV>
0

>  <SCORE.SYSTEM.norm>
0

>  <SCORE.heavy>
16

>  <SCORE.norm>
-0.652503

>  <RMSD>
1.909

$$$$
ligand
 OpenBabel11021811433D
libRbt.so/2013.1/901 2013/11/27
 16 16  0  0  0  0  0  0  0  0999 V2000
   48.4657   12.5338    9.7605 P   0  0  2  0  0  0  0  0  0  0  0  0
   48.4554   13.0730    8.3779 O   0  0  0  0  0  0  0  0  0  0  0  0
   49.4808   13.3986   10.6613 O   0  5  0  0  0  0  0  0  0  0  0  0
   48.9637   11.0029    9.7171 O   0  0  0  0  0  0  0  0  0  0  0  0
   44.4787   11.8096   14.4972 C   0  0  2  0  0  0  0  0  0  0  0  0
   43.5348   10.9570   13.8241 O   0  0  0  0  0  0  0  0  0  0  0  0
   43.9542   13.2668   14.5645 C   0  0  2  0  0  0  0  0  0  0  0  0
   42.6562   13.2999   15.2486 O   0  0  0  0  0  0  0  0  0  0  0  0
   43.7919   13.7944   13.1265 C   0  0  1  0  0  0  0  0  0  0  0  0
   43.3136   15.1445   13.1570 O   0  0  0  0  0  0  0  0  0  0  0  0
   45.1652   13.7456   12.4389 C   0  0  2  0  0  0  0  0  0  0  0  0
   45.0380   14.2253   11.0830 O   0  0  0  0  0  0  0  0  0  0  0  0
   45.6618   12.2733   12.4357 C   0  0  2  0  0  0  0  0  0  0  0  0
   45.7719   11.7812   13.8064 O   0  0  0  0  0  0  0  0  0  0  0  0
   47.0528   12.2206   11.7781 C   0  0  0  0  0  0  0  0  0  0  0  0
   46.9773   12.6213   10.4045 O   0  0  0  0  0  0  0  0  0  0  0  0
  1  2  1  6  0  0  0
  1  3  1  0  0  0  0
  1  4  2  0  0  0  0
  1 16  1  0  0  0  0
  5  6  1  6  0  0  0
  5  7  1  0  0  0  0
  5 14  1  0  0  0  0
  7  8  1  6  0  0  0
  7  9  1  0  0  0  0
  9 10  1  1  0  0  0
  9 11  1  0  0  0  0
 11 12  1  6  0  0  0
 11 13  1  0  0  0  0
 13 14  1  0  0  0  0
 13 15  1  1  0  0  0
 15 16  1  0  0  0  0
M  CHG  1   3  -1
M  END
>  <CHROM.1>
-63.64628848,-179.49599794,-174.23114161,46.01475756,12.80028260,11.96830492
0.30898011,0.67676597,-0.59497937

>  <Name>
ligand

>  <RI>
0

>  <Rbt.Current_Directory>
/home/itssahil/PROJECTS/Mol_Feturizer/New_Systems/rnas/2HO7

>  <Rbt.Executable>
rbdock ($Id: //depot/dev/client3/rdock/2013.1/src/exe/rbdock.cxx#4 $)

>  <Rbt.Library>
libRbt.so (2013.1, Build901 2013/11/27)

>  <Rbt.Parameter_File>
/export/apps/rDock/src/rDock_2013.1_src/data/scripts/dock_solv.prm

>  <Rbt.Receptor>
prm/pocket_docking_4.prm

>  <SCORE>
-10.9968

>  <SCORE.INTER>
-11.7304

>  <SCORE.INTER.CONST>
1

>  <SCORE.INTER.POLAR>
-1.29668

>  <SCORE.INTER.ROT>
3

>  <SCORE.INTER.SOLV>
11.6881

>  <SCORE.INTER.VDW>
-12.9941

>  <SCORE.INTER.norm>
-0.733153

>  <SCORE.INTRA>
0.731057

>  <SCORE.INTRA.DIHEDRAL>
0.0945408

>  <SCORE.INTRA.DIHEDRAL.0>
0.00893466

>  <SCORE.INTRA.POLAR>
0

>  <SCORE.INTRA.POLAR.0>
0

>  <SCORE.INTRA.REPUL>
0

>  <SCORE.INTRA.REPUL.0>
0

>  <SCORE.INTRA.SOLV>
1.15174

>  <SCORE.INTRA.SOLV.lig_0>
-48.9722

>  <SCORE.INTRA.VDW>
0.107918

>  <SCORE.INTRA.VDW.0>
-0.529409

>  <SCORE.INTRA.norm>
0.0456911

>  <SCORE.RESTR>
0.00255019

>  <SCORE.RESTR.CAVITY>
0.00255019

>  <SCORE.RESTR.norm>
0.000159387

>  <SCORE.SYSTEM>
0

>  <SCORE.SYSTEM.CONST>
0

>  <SCORE.SYSTEM.DIHEDRAL>
0

>  <SCORE.SYSTEM.SOLV>
0

>  <SCORE.SYSTEM.norm>
0

>  <SCORE.heavy>
16

>  <SCORE.norm>
-0.687302

>  <RMSD>
1.970

$$$$
ligand
 OpenBabel11021811433D
libRbt.so/2013.1/901 2013/11/27
 16 16  0  0  0  0  0  0  0  0999 V2000
   48.1065   12.0366    9.3698 P   0  0  2  0  0  0  0  0  0  0  0  0
   48.0933   11.2298    8.1243 O   0  0  0  0  0  0  0  0  0  0  0  0
   48.0286   13.5991    8.9924 O   0  5  0  0  0  0  0  0  0  0  0  0
   49.4790   11.7474   10.1612 O   0  0  0  0  0  0  0  0  0  0  0  0
   44.8328   12.4235   14.6592 C   0  0  2  0  0  0  0  0  0  0  0  0
   44.4805   11.0333   14.7764 O   0  0  0  0  0  0  0  0  0  0  0  0
   43.6436   13.2483   14.1036 C   0  0  2  0  0  0  0  0  0  0  0  0
   42.4738   13.0886   14.9755 O   0  0  0  0  0  0  0  0  0  0  0  0
   43.3079   12.7315   12.6920 C   0  0  1  0  0  0  0  0  0  0  0  0
   42.2142   13.4809   12.1491 O   0  0  0  0  0  0  0  0  0  0  0  0
   44.5507   12.9114   11.8064 C   0  0  2  0  0  0  0  0  0  0  0  0
   44.2654   12.4230   10.4779 O   0  0  0  0  0  0  0  0  0  0  0  0
   45.7203   12.1002   12.4293 C   0  0  2  0  0  0  0  0  0  0  0  0
   45.9964   12.5807   13.7806 O   0  0  0  0  0  0  0  0  0  0  0  0
   46.9789   12.3020   11.5659 C   0  0  0  0  0  0  0  0  0  0  0  0
   46.8315   11.6501   10.2985 O   0  0  0  0  0  0  0  0  0  0  0  0
  1  2  1  6  0  0  0
  1  3  1  0  0  0  0
  1  4  2  0  0  0  0
  1 16  1  0  0  0  0
  5  6  1  6  0  0  0
  5  7  1  0  0  0  0
  5 14  1  0  0  0  0
  7  8  1  1  0  0  0
  7  9  1  0  0  0  0
  9 10  1  6  0  0  0
  9 11  1  0  0  0  0
 11 12  1  6  0  0  0
 11 13  1  0  0  0  0
 13 14  1  0  0  0  0
 13 15  1  6  0  0  0
 15 16  1  0  0  0  0
M  CHG  1   3  -1
M  END
>  <CHROM.1>
-69.65969716,173.56979047,171.86385699,45.76918834,12.37448494,11.67847504
0.73710428,0.28915973,-1.40889290

>  <Name>
ligand

>  <RI>
0

>  <Rbt.Current_Directory>
/home/itssahil/PROJECTS/Mol_Feturizer/New_Systems/rnas/2HO7

>  <Rbt.Executable>
rbdock ($Id: //depot/dev/client3/rdock/2013.1/src/exe/rbdock.cxx#4 $)

>  <Rbt.Library>
libRbt.so (2013.1, Build901 2013/11/27)

>  <Rbt.Parameter_File>
/export/apps/rDock/src/rDock_2013.1_src/data/scripts/dock_solv.prm

>  <Rbt.Receptor>
prm/pocket_docking_5.prm

>  <SCORE>
-10.0848

>  <SCORE.INTER>
-11.0061

>  <SCORE.INTER.CONST>
1

>  <SCORE.INTER.POLAR>
-1.29904

>  <SCORE.INTER.ROT>
3

>  <SCORE.INTER.SOLV>
12.6447

>  <SCORE.INTER.VDW>
-12.8222

>  <SCORE.INTER.norm>
-0.68788

>  <SCORE.INTRA>
0.921306

>  <SCORE.INTRA.DIHEDRAL>
0.632594

>  <SCORE.INTRA.DIHEDRAL.0>
0.00893466

>  <SCORE.INTRA.POLAR>
0

>  <SCORE.INTRA.POLAR.0>
0

>  <SCORE.INTRA.REPUL>
0

>  <SCORE.INTRA.REPUL.0>
0

>  <SCORE.INTRA.SOLV>
1.35523

>  <SCORE.INTRA.SOLV.lig_0>
-48.9722

>  <SCORE.INTRA.VDW>
-0.0726074

>  <SCORE.INTRA.VDW.0>
-0.529409

>  <SCORE.INTRA.norm>
0.0575816

>  <SCORE.RESTR>
0

>  <SCORE.RESTR.CAVITY>
0

>  <SCORE.RESTR.norm>
0

>  <SCORE.SYSTEM>
0

>  <SCORE.SYSTEM.CONST>
0

>  <SCORE.SYSTEM.DIHEDRAL>
0

>  <SCORE.SYSTEM.SOLV>
0

>  <SCORE.SYSTEM.norm>
0

>  <SCORE.heavy>
16

>  <SCORE.norm>
-0.630298

>  <RMSD>
2.038

$$$$
ligand
 OpenBabel11021811433D
libRbt.so/2013.1/901 2013/11/27
 16 16  0  0  0  0  0  0  0  0999 V2000
   48.7429   13.1988   11.1848 P   0  0  2  0  0  0  0  0  0  0  0  0
   49.8466   14.0874   11.6258 O   0  0  0  0  0  0  0  0  0  0  0  0
   49.3400   11.7494   10.8207 O   0  5  0  0  0  0  0  0  0  0  0  0
   48.0550   13.8359    9.8755 O   0  0  0  0  0  0  0  0  0  0  0  0
   43.7884   13.4364   14.0734 C   0  0  2  0  0  0  0  0  0  0  0  0
   44.2651   13.0338   15.3701 O   0  0  0  0  0  0  0  0  0  0  0  0
   42.6583   12.4943   13.5849 C   0  0  2  0  0  0  0  0  0  0  0  0
   41.5576   12.4886   14.5557 O   0  0  0  0  0  0  0  0  0  0  0  0
   43.2327   11.0716   13.4496 C   0  0  1  0  0  0  0  0  0  0  0  0
   42.2106   10.1779   12.9924 O   0  0  0  0  0  0  0  0  0  0  0  0
   44.3812   11.1123   12.4294 C   0  0  2  0  0  0  0  0  0  0  0  0
   44.9455    9.7903   12.2924 O   0  0  0  0  0  0  0  0  0  0  0  0
   45.4638   12.0996   12.9462 C   0  0  2  0  0  0  0  0  0  0  0  0
   44.8885   13.4328   13.1037 O   0  0  0  0  0  0  0  0  0  0  0  0
   46.6030   12.1715   11.9133 C   0  0  0  0  0  0  0  0  0  0  0  0
   47.6470   13.0388   12.3726 O   0  0  0  0  0  0  0  0  0  0  0  0
  1  2  1  1  0  0  0
  1  3  1  0  0  0  0
  1  4  2  0  0  0  0
  1 16  1  0  0  0  0
  5  6  1  1  0  0  0
  5  7  1  0  0  0  0
  5 14  1  0  0  0  0
  7  8  1  1  0  0  0
  7  9  1  0  0  0  0
  9 10  1  6  0  0  0
  9 11  1  0  0  0  0
 11 12  1  1  0  0  0
 11 13  1  0  0  0  0
 13 14  1  0  0  0  0
 13 15  1  6  0  0  0
 15 16  1  0  0  0  0
M  CHG  1   3  -1
M  END
>  <CHROM.1>
-178.04042662,-174.17663529,-179.73272650,45.75257392,12.39545666,12.54344002
-0.02270966,0.47099498,0.51725790

>  <Name>
ligand

>  <RI>
0

>  <Rbt.Current_Directory>
/home/itssahil/PROJECTS/Mol_Feturizer/New_Systems/rnas/2HO7

>  <Rbt.Executable>
rbdock ($Id: //depot/dev/client3/rdock/2013.1/src/exe/rbdock.cxx#4 $)

>  <Rbt.Library>
libRbt.so (2013.1, Build901 2013/11/27)

>  <Rbt.Parameter_File>
/export/apps/rDock/src/rDock_2013.1_src/data/scripts/dock_solv.prm

>  <Rbt.Receptor>
prm/pocket_docking_4.prm

>  <SCORE>
-9.62213

>  <SCORE.INTER>
-9.94704

>  <SCORE.INTER.CONST>
1

>  <SCORE.INTER.POLAR>
-1.29904

>  <SCORE.INTER.ROT>
3

>  <SCORE.INTER.SOLV>
16.3924

>  <SCORE.INTER.VDW>
-13.3654

>  <SCORE.INTER.norm>
-0.62169

>  <SCORE.INTRA>
0.324905

>  <SCORE.INTRA.DIHEDRAL>
0.17109

>  <SCORE.INTRA.DIHEDRAL.0>
0.00893466

>  <SCORE.INTRA.POLAR>
0

>  <SCORE.INTRA.POLAR.0>
0

>  <SCORE.INTRA.REPUL>
0

>  <SCORE.INTRA.REPUL.0>
0

>  <SCORE.INTRA.SOLV>
0.690974

>  <SCORE.INTRA.SOLV.lig_0>
-48.9722

>  <SCORE.INTRA.VDW>
-0.106127

>  <SCORE.INTRA.VDW.0>
-0.529409

>  <SCORE.INTRA.norm>
0.0203066

>  <SCORE.RESTR>
0

>  <SCORE.RESTR.CAVITY>
0

>  <SCORE.RESTR.norm>
0

>  <SCORE.SYSTEM>
0

>  <SCORE.SYSTEM.CONST>
0

>  <SCORE.SYSTEM.DIHEDRAL>
0

>  <SCORE.SYSTEM.SOLV>
0

>  <SCORE.SYSTEM.norm>
0

>  <SCORE.heavy>
16

>  <SCORE.norm>
-0.601383

>  <RMSD>
2.099

$$$$
ligand
 OpenBabel11021811433D
libRbt.so/2013.1/901 2013/11/27
 16 16  0  0  0  0  0  0  0  0999 V2000
   48.1737   11.8098    9.4869 P   0  0  2  0  0  0  0  0  0  0  0  0
   48.4412   12.7345    8.3575 O   0  0  0  0  0  0  0  0  0  0  0  0
   49.4428   11.7974   10.4764 O   0  5  0  0  0  0  0  0  0  0  0  0
   47.9406   10.3280    8.9008 O   0  0  0  0  0  0  0  0  0  0  0  0
   44.5425   11.6944   14.5413 C   0  0  2  0  0  0  0  0  0  0  0  0
   43.5001   10.8826   13.9712 O   0  0  0  0  0  0  0  0  0  0  0  0
   44.1250   13.1871   14.5697 C   0  0  2  0  0  0  0  0  0  0  0  0
   42.8801   13.3436   15.3313 O   0  0  0  0  0  0  0  0  0  0  0  0
   43.9050   13.6605   13.1206 C   0  0  1  0  0  0  0  0  0  0  0  0
   43.5236   15.0414   13.1147 O   0  0  0  0  0  0  0  0  0  0  0  0
   45.2235   13.4827   12.3518 C   0  0  2  0  0  0  0  0  0  0  0  0
   45.0406   13.9095   10.9846 O   0  0  0  0  0  0  0  0  0  0  0  0
   45.6165   11.9800   12.3897 C   0  0  2  0  0  0  0  0  0  0  0  0
   45.7825   11.5427   13.7733 O   0  0  0  0  0  0  0  0  0  0  0  0
   46.9543   11.7985   11.6498 C   0  0  0  0  0  0  0  0  0  0  0  0
   46.8626   12.2998   10.3106 O   0  0  0  0  0  0  0  0  0  0  0  0
  1  2  1  6  0  0  0
  1  3  1  0  0  0  0
  1  4  2  0  0  0  0
  1 16  1  0  0  0  0
  5  6  1  6  0  0  0
  5  7  1  0  0  0  0
  5 14  1  0  0  0  0
  7  8  1  1  0  0  0
  7  9  1  0  0  0  0
  9 10  1  1  0  0  0
  9 11  1  0  0  0  0
 11 12  1  6  0  0  0
 11 13  1  0  0  0  0
 13 14  1  0  0  0  0
 13 15  1  6  0  0  0
 15 16  1  0  0  0  0
M  CHG  1   3  -1
M  END
>  <CHROM.1>
-56.35805369,-168.30009824,-155.25317625,45.94323992,12.41515445,11.85657457
0.28142357,0.78896228,-0.64100792

>  <Name>
ligand

>  <RI>
0

>  <Rbt.Current_Directory>
/home/itssahil/PROJECTS/Mol_Feturizer/New_Systems/rnas/2HO7

>  <Rbt.Executable>
rbdock ($Id: //depot/dev/client3/rdock/2013.1/src/exe/rbdock.cxx#4 $)

>  <Rbt.Library>
libRbt.so (2013.1, Build901 2013/11/27)

>  <Rbt.Parameter_File>
/export/apps/rDock/src/rDock_2013.1_src/data/scripts/dock_solv.prm

>  <Rbt.Receptor>
prm/pocket_docking_4.prm

>  <SCORE>
-9.05861

>  <SCORE.INTER>
-11.2889

>  <SCORE.INTER.CONST>
1

>  <SCORE.INTER.POLAR>
-1.29904

>  <SCORE.INTER.ROT>
3

>  <SCORE.INTER.SOLV>
13.7163

>  <SCORE.INTER.VDW>
-13.3679

>  <SCORE.INTER.norm>
-0.705553

>  <SCORE.INTRA>
2.23024

>  <SCORE.INTRA.DIHEDRAL>
1.56581

>  <SCORE.INTRA.DIHEDRAL.0>
0.00893466

>  <SCORE.INTRA.POLAR>
0

>  <SCORE.INTRA.POLAR.0>
0

>  <SCORE.INTRA.REPUL>
0

>  <SCORE.INTRA.REPUL.0>
0

>  <SCORE.INTRA.SOLV>
1.12526

>  <SCORE.INTRA.SOLV.lig_0>
-48.9722

>  <SCORE.INTRA.VDW>
0.884705

>  <SCORE.INTRA.VDW.0>
-0.529409

>  <SCORE.INTRA.norm>
0.13939

>  <SCORE.RESTR>
0

>  <SCORE.RESTR.CAVITY>
0

>  <SCORE.RESTR.norm>
0

>  <SCORE.SYSTEM>
0

>  <SCORE.SYSTEM.CONST>
0

>  <SCORE.SYSTEM.DIHEDRAL>
0

>  <SCORE.SYSTEM.SOLV>
0

>  <SCORE.SYSTEM.norm>
0

>  <SCORE.heavy>
16

>  <SCORE.norm>
-0.566163

>  <RMSD>
2.171

$$$$
ligand
 OpenBabel11021811433D
libRbt.so/2013.1/901 2013/11/27
 16 16  0  0  0  0  0  0  0  0999 V2000
   48.2391   11.8199    9.5103 P   0  0  2  0  0  0  0  0  0  0  0  0
   49.3554   11.7387   10.4847 O   0  0  0  0  0  0  0  0  0  0  0  0
   48.0301   10.3815    8.8196 O   0  5  0  0  0  0  0  0  0  0  0  0
   48.6142   12.9042    8.3802 O   0  0  0  0  0  0  0  0  0  0  0  0
   44.3393   11.5793   14.3665 C   0  0  2  0  0  0  0  0  0  0  0  0
   43.2362   10.9392   13.7000 O   0  0  0  0  0  0  0  0  0  0  0  0
   44.0881   13.1024   14.5089 C   0  0  2  0  0  0  0  0  0  0  0  0
   42.8400   13.3367   15.2447 O   0  0  0  0  0  0  0  0  0  0  0  0
   43.9771   13.7130   13.0992 C   0  0  1  0  0  0  0  0  0  0  0  0
   43.7509   15.1241   13.1989 O   0  0  0  0  0  0  0  0  0  0  0  0
   45.2964   13.4499   12.3565 C   0  0  2  0  0  0  0  0  0  0  0  0
   45.2139   14.0036   11.0255 O   0  0  0  0  0  0  0  0  0  0  0  0
   45.5194   11.9143   12.2786 C   0  0  2  0  0  0  0  0  0  0  0  0
   45.5833   11.3508   13.6245 O   0  0  0  0  0  0  0  0  0  0  0  0
   46.8563   11.6430   11.5649 C   0  0  0  0  0  0  0  0  0  0  0  0
   46.8681   12.2501   10.2671 O   0  0  0  0  0  0  0  0  0  0  0  0
  1  2  1  1  0  0  0
  1  3  1  0  0  0  0
  1  4  2  0  0  0  0
  1 16  1  0  0  0  0
  5  6  1  6  0  0  0
  5  7  1  0  0  0  0
  5 14  1  0  0  0  0
  7  8  1  1  0  0  0
  7  9  1  0  0  0  0
  9 10  1  1  0  0  0
  9 11  1  0  0  0  0
 11 12  1  6  0  0  0
 11 13  1  0  0  0  0
 13 14  1  0  0  0  0
 13 15  1  1  0  0  0
 15 16  1  0  0  0  0
M  CHG  1   3  -1
M  END
>  <CHROM.1>
-56.75503385,-174.90111096,-36.00876034,45.94086625,12.40462102,11.80620394
-0.13041938,-0.80039715,2.71534381

>  <Name>
ligand

>  <RI>
0

>  <Rbt.Current_Directory>
/home/itssahil/PROJECTS/Mol_Feturizer/New_Systems/rnas/2HO7

>  <Rbt.Executable>
rbdock ($Id: //depot/dev/client3/rdock/2013.1/src/exe/rbdock.cxx#4 $)

>  <Rbt.Library>
libRbt.so (2013.1, Build901 2013/11/27)

>  <Rbt.Parameter_File>
/export/apps/rDock/src/rDock_2013.1_src/data/scripts/dock_solv.prm

>  <Rbt.Receptor>
prm/pocket_docking_4.prm

>  <SCORE>
-7.30627

>  <SCORE.INTER>
-8.96238

>  <SCORE.INTER.CONST>
1

>  <SCORE.INTER.POLAR>
-1.03923

>  <SCORE.INTER.ROT>
3

>  <SCORE.INTER.SOLV>
15.0803

>  <SCORE.INTER.VDW>
-13.1376

>  <SCORE.INTER.norm>
-0.560148

>  <SCORE.INTRA>
1.65611

>  <SCORE.INTRA.DIHEDRAL>
0.983492

>  <SCORE.INTRA.DIHEDRAL.0>
0.00893466

>  <SCORE.INTRA.POLAR>
0

>  <SCORE.INTRA.POLAR.0>
0

>  <SCORE.INTRA.REPUL>
0

>  <SCORE.INTRA.REPUL.0>
0

>  <SCORE.INTRA.SOLV>
0.307134

>  <SCORE.INTRA.SOLV.lig_0>
-48.9722

>  <SCORE.INTRA.VDW>
1.01079

>  <SCORE.INTRA.VDW.0>
-0.529409

>  <SCORE.INTRA.norm>
0.103507

>  <SCORE.RESTR>
0

>  <SCORE.RESTR.CAVITY>
0

>  <SCORE.RESTR.norm>
0

>  <SCORE.SYSTEM>
0

>  <SCORE.SYSTEM.CONST>
0

>  <SCORE.SYSTEM.DIHEDRAL>
0

>  <SCORE.SYSTEM.SOLV>
0

>  <SCORE.SYSTEM.norm>
0

>  <SCORE.heavy>
16

>  <SCORE.norm>
-0.456642

>  <RMSD>
2.190

$$$$
ligand
 OpenBabel11021811433D
libRbt.so/2013.1/901 2013/11/27
 16 16  0  0  0  0  0  0  0  0999 V2000
   48.8082   12.9525   11.2710 P   0  0  2  0  0  0  0  0  0  0  0  0
   49.1450   11.5864   10.7992 O   0  0  0  0  0  0  0  0  0  0  0  0
   48.2368   13.8152   10.0386 O   0  5  0  0  0  0  0  0  0  0  0  0
   50.1447   13.6509   11.8361 O   0  0  0  0  0  0  0  0  0  0  0  0
   43.7930   13.4305   14.1233 C   0  0  2  0  0  0  0  0  0  0  0  0
   44.2783   13.0326   15.4183 O   0  0  0  0  0  0  0  0  0  0  0  0
   42.6469   12.4982   13.6541 C   0  0  2  0  0  0  0  0  0  0  0  0
   41.5563   12.5133   14.6362 O   0  0  0  0  0  0  0  0  0  0  0  0
   43.2030   11.0676   13.5245 C   0  0  1  0  0  0  0  0  0  0  0  0
   42.1656   10.1826   13.0851 O   0  0  0  0  0  0  0  0  0  0  0  0
   44.3412   11.0864   12.4922 C   0  0  2  0  0  0  0  0  0  0  0  0
   44.8884    9.7567   12.3602 O   0  0  0  0  0  0  0  0  0  0  0  0
   45.4407   12.0648   12.9899 C   0  0  2  0  0  0  0  0  0  0  0  0
   44.8829   13.4060   13.1425 O   0  0  0  0  0  0  0  0  0  0  0  0
   46.5700   12.1149   11.9448 C   0  0  0  0  0  0  0  0  0  0  0  0
   47.6790   12.8777   12.4359 O   0  0  0  0  0  0  0  0  0  0  0  0
  1  2  1  6  0  0  0
  1  3  1  0  0  0  0
  1  4  2  0  0  0  0
  1 16  1  0  0  0  0
  5  6  1  1  0  0  0
  5  7  1  0  0  0  0
  5 14  1  0  0  0  0
  7  8  1  1  0  0  0
  7  9  1  0  0  0  0
  9 10  1  6  0  0  0
  9 11  1  0  0  0  0
 11 12  1  1  0  0  0
 11 13  1  0  0  0  0
 13 14  1  0  0  0  0
 13 15  1  6  0  0  0
 15 16  1  0  0  0  0
M  CHG  1   3  -1
M  END
>  <CHROM.1>
-172.96408951,-177.49545316,-53.31291496,45.76752266,12.30767266,12.61789082
-0.05624211,0.44497099,0.53502501

>  <Name>
ligand

>  <RI>
0

>  <Rbt.Current_Directory>
/home/itssahil/PROJECTS/Mol_Feturizer/New_Systems/rnas/2HO7

>  <Rbt.Executable>
rbdock ($Id: //depot/dev/client3/rdock/2013.1/src/exe/rbdock.cxx#4 $)

>  <Rbt.Library>
libRbt.so (2013.1, Build901 2013/11/27)

>  <Rbt.Parameter_File>
/export/apps/rDock/src/rDock_2013.1_src/data/scripts/dock_solv.prm

>  <Rbt.Receptor>
prm/pocket_docking_3.prm

>  <SCORE>
-8.61487

>  <SCORE.INTER>
-8.79969

>  <SCORE.INTER.CONST>
1

>  <SCORE.INTER.POLAR>
-1.03923

>  <SCORE.INTER.ROT>
3

>  <SCORE.INTER.SOLV>
16.7695

>  <SCORE.INTER.VDW>
-13.5922

>  <SCORE.INTER.norm>
-0.549981

>  <SCORE.INTRA>
0.184821

>  <SCORE.INTRA.DIHEDRAL>
0.270895

>  <SCORE.INTRA.DIHEDRAL.0>
0.00893466

>  <SCORE.INTRA.POLAR>
0

>  <SCORE.INTRA.POLAR.0>
0

>  <SCORE.INTRA.REPUL>
0

>  <SCORE.INTRA.REPUL.0>
0

>  <SCORE.INTRA.SOLV>
-0.056091

>  <SCORE.INTRA.SOLV.lig_0>
-48.9722

>  <SCORE.INTRA.VDW>
0.0774193

>  <SCORE.INTRA.VDW.0>
-0.529409

>  <SCORE.INTRA.norm>
0.0115513

>  <SCORE.RESTR>
0

>  <SCORE.RESTR.CAVITY>
0

>  <SCORE.RESTR.norm>
0

>  <SCORE.SYSTEM>
0

>  <SCORE.SYSTEM.CONST>
0

>  <SCORE.SYSTEM.DIHEDRAL>
0

>  <SCORE.SYSTEM.SOLV>
0

>  <SCORE.SYSTEM.norm>
0

>  <SCORE.heavy>
16

>  <SCORE.norm>
-0.53843

>  <RMSD>
2.251

$$$$
ligand
 OpenBabel11021811433D
libRbt.so/2013.1/901 2013/11/27
 16 16  0  0  0  0  0  0  0  0999 V2000
   48.1365   11.8654    9.5427 P   0  0  2  0  0  0  0  0  0  0  0  0
   47.8487   10.5054    9.0233 O   0  0  0  0  0  0  0  0  0  0  0  0
   48.4425   12.8523    8.3090 O   0  5  0  0  0  0  0  0  0  0  0  0
   49.4294   11.7927   10.5002 O   0  0  0  0  0  0  0  0  0  0  0  0
   44.4038   11.7443   14.5122 C   0  0  2  0  0  0  0  0  0  0  0  0
   43.3609   10.9772   13.8840 O   0  0  0  0  0  0  0  0  0  0  0  0
   44.0192   13.2444   14.5811 C   0  0  2  0  0  0  0  0  0  0  0  0
   42.7561   13.4036   15.3114 O   0  0  0  0  0  0  0  0  0  0  0  0
   43.8529   13.7726   13.1438 C   0  0  1  0  0  0  0  0  0  0  0  0
   43.5029   15.1614   13.1754 O   0  0  0  0  0  0  0  0  0  0  0  0
   45.1894   13.5906   12.4075 C   0  0  2  0  0  0  0  0  0  0  0  0
   45.0567   14.0685   11.0514 O   0  0  0  0  0  0  0  0  0  0  0  0
   45.5473   12.0787   12.4038 C   0  0  2  0  0  0  0  0  0  0  0  0
   45.6624   11.5901   13.7754 O   0  0  0  0  0  0  0  0  0  0  0  0
   46.9020   11.8916   11.6969 C   0  0  0  0  0  0  0  0  0  0  0  0
   46.8573   12.4292   10.3695 O   0  0  0  0  0  0  0  0  0  0  0  0
  1  2  1  6  0  0  0
  1  3  1  0  0  0  0
  1  4  2  0  0  0  0
  1 16  1  0  0  0  0
  5  6  1  6  0  0  0
  5  7  1  0  0  0  0
  5 14  1  0  0  0  0
  7  8  1  1  0  0  0
  7  9  1  0  0  0  0
  9 10  1  1  0  0  0
  9 11  1  0  0  0  0
 11 12  1  6  0  0  0
 11 13  1  0  0  0  0
 13 14  1  0  0  0  0
 13 15  1  1  0  0  0
 15 16  1  0  0  0  0
M  CHG  1   3  -1
M  END
>  <CHROM.1>
-56.92125474,-165.00179381,82.10196495,45.88401768,12.50563348,11.88111262
-0.24402218,-0.78501366,2.54986196

>  <Name>
ligand

>  <RI>
0

>  <Rbt.Current_Directory>
/home/itssahil/PROJECTS/Mol_Feturizer/New_Systems/rnas/2HO7

>  <Rbt.Executable>
rbdock ($Id: //depot/dev/client3/rdock/2013.1/src/exe/rbdock.cxx#4 $)

>  <Rbt.Library>
libRbt.so (2013.1, Build901 2013/11/27)

>  <Rbt.Parameter_File>
/export/apps/rDock/src/rDock_2013.1_src/data/scripts/dock_solv.prm

>  <Rbt.Receptor>
prm/pocket_docking_7.prm

>  <SCORE>
-8.92001

>  <SCORE.INTER>
-10.854

>  <SCORE.INTER.CONST>
1

>  <SCORE.INTER.POLAR>
-1.29879

>  <SCORE.INTER.ROT>
3

>  <SCORE.INTER.SOLV>
14.474

>  <SCORE.INTER.VDW>
-13.3313

>  <SCORE.INTER.norm>
-0.678372

>  <SCORE.INTRA>
1.93395

>  <SCORE.INTRA.DIHEDRAL>
1.79554

>  <SCORE.INTRA.DIHEDRAL.0>
0.00893466

>  <SCORE.INTRA.POLAR>
0

>  <SCORE.INTRA.POLAR.0>
0

>  <SCORE.INTRA.REPUL>
0

>  <SCORE.INTRA.REPUL.0>
0

>  <SCORE.INTRA.SOLV>
0.630083

>  <SCORE.INTRA.SOLV.lig_0>
-48.9722

>  <SCORE.INTRA.VDW>
0.721135

>  <SCORE.INTRA.VDW.0>
-0.529409

>  <SCORE.INTRA.norm>
0.120872

>  <SCORE.RESTR>
0

>  <SCORE.RESTR.CAVITY>
0

>  <SCORE.RESTR.norm>
0

>  <SCORE.SYSTEM>
0

>  <SCORE.SYSTEM.CONST>
0

>  <SCORE.SYSTEM.DIHEDRAL>
0

>  <SCORE.SYSTEM.SOLV>
0

>  <SCORE.SYSTEM.norm>
0

>  <SCORE.heavy>
16

>  <SCORE.norm>
-0.557501

>  <RMSD>
2.281

$$$$
ligand
 OpenBabel11021811433D
libRbt.so/2013.1/901 2013/11/27
 16 16  0  0  0  0  0  0  0  0999 V2000
   48.9058   12.6881   11.7138 P   0  0  2  0  0  0  0  0  0  0  0  0
   49.3095   14.0949   11.9587 O   0  0  0  0  0  0  0  0  0  0  0  0
   50.1237   11.7100   12.1009 O   0  5  0  0  0  0  0  0  0  0  0  0
   48.5572   12.5124   10.1513 O   0  0  0  0  0  0  0  0  0  0  0  0
   43.0705   13.7161   13.6152 C   0  0  2  0  0  0  0  0  0  0  0  0
   43.3925   13.8471   15.0116 O   0  0  0  0  0  0  0  0  0  0  0  0
   42.4387   12.3310   13.3230 C   0  0  2  0  0  0  0  0  0  0  0  0
   41.2368   12.1464   14.1449 O   0  0  0  0  0  0  0  0  0  0  0  0
   43.4706   11.2409   13.6679 C   0  0  1  0  0  0  0  0  0  0  0  0
   42.9161    9.9471   13.4013 O   0  0  0  0  0  0  0  0  0  0  0  0
   44.7144   11.4628   12.7932 C   0  0  2  0  0  0  0  0  0  0  0  0
   45.7037   10.4586   13.1059 O   0  0  0  0  0  0  0  0  0  0  0  0
   45.2818   12.8774   13.0946 C   0  0  2  0  0  0  0  0  0  0  0  0
   44.2747   13.8925   12.7971 O   0  0  0  0  0  0  0  0  0  0  0  0
   46.5092   13.1208   12.1977 C   0  0  0  0  0  0  0  0  0  0  0  0
   47.6132   12.3123   12.6225 O   0  0  0  0  0  0  0  0  0  0  0  0
  1  2  1  1  0  0  0
  1  3  1  0  0  0  0
  1  4  2  0  0  0  0
  1 16  1  0  0  0  0
  5  6  1  1  0  0  0
  5  7  1  0  0  0  0
  5 14  1  0  0  0  0
  7  8  1  1  0  0  0
  7  9  1  0  0  0  0
  9 10  1  6  0  0  0
  9 11  1  0  0  0  0
 11 12  1  1  0  0  0
 11 13  1  0  0  0  0
 13 14  1  0  0  0  0
 13 15  1  6  0  0  0
 15 16  1  0  0  0  0
M  CHG  1   3  -1
M  END
>  <CHROM.1>
-71.00717304,-175.92961533,64.37630976,45.76254592,12.41312799,12.76803999
0.03972330,0.33484480,0.09872656

>  <Name>
ligand

>  <RI>
0

>  <Rbt.Current_Directory>
/home/itssahil/PROJECTS/Mol_Feturizer/New_Systems/rnas/2HO7

>  <Rbt.Executable>
rbdock ($Id: //depot/dev/client3/rdock/2013.1/src/exe/rbdock.cxx#4 $)

>  <Rbt.Library>
libRbt.so (2013.1, Build901 2013/11/27)

>  <Rbt.Parameter_File>
/export/apps/rDock/src/rDock_2013.1_src/data/scripts/dock_solv.prm

>  <Rbt.Receptor>
prm/pocket_docking_5.prm

>  <SCORE>
-10.6036

>  <SCORE.INTER>
-11.0706

>  <SCORE.INTER.CONST>
1

>  <SCORE.INTER.POLAR>
-1.29904

>  <SCORE.INTER.ROT>
3

>  <SCORE.INTER.SOLV>
17.1951

>  <SCORE.INTER.VDW>
-14.382

>  <SCORE.INTER.norm>
-0.691915

>  <SCORE.INTRA>
0.467009

>  <SCORE.INTRA.DIHEDRAL>
0.530914

>  <SCORE.INTRA.DIHEDRAL.0>
0.00893466

>  <SCORE.INTRA.POLAR>
0

>  <SCORE.INTRA.POLAR.0>
0

>  <SCORE.INTRA.REPUL>
0

>  <SCORE.INTRA.REPUL.0>
0

>  <SCORE.INTRA.SOLV>
0.397874

>  <SCORE.INTRA.SOLV.lig_0>
-48.9722

>  <SCORE.INTRA.VDW>
0.0026144

>  <SCORE.INTRA.VDW.0>
-0.529409

>  <SCORE.INTRA.norm>
0.029188

>  <SCORE.RESTR>
0

>  <SCORE.RESTR.CAVITY>
0

>  <SCORE.RESTR.norm>
0

>  <SCORE.SYSTEM>
0

>  <SCORE.SYSTEM.CONST>
0

>  <SCORE.SYSTEM.DIHEDRAL>
0

>  <SCORE.SYSTEM.SOLV>
0

>  <SCORE.SYSTEM.norm>
0

>  <SCORE.heavy>
16

>  <SCORE.norm>
-0.662727

>  <RMSD>
2.286

$$$$
ligand
 OpenBabel11021811433D
libRbt.so/2013.1/901 2013/11/27
 16 16  0  0  0  0  0  0  0  0999 V2000
   47.9816   11.7434    9.9191 P   0  0  2  0  0  0  0  0  0  0  0  0
   48.6808   10.4446    9.7567 O   0  0  0  0  0  0  0  0  0  0  0  0
   47.3429   12.1837    8.5092 O   0  5  0  0  0  0  0  0  0  0  0  0
   49.0498   12.8529   10.3898 O   0  0  0  0  0  0  0  0  0  0  0  0
   44.3234   12.2531   14.4433 C   0  0  2  0  0  0  0  0  0  0  0  0
   43.3654   11.2962   13.9561 O   0  0  0  0  0  0  0  0  0  0  0  0
   43.6675   13.6458   14.6250 C   0  0  2  0  0  0  0  0  0  0  0  0
   42.5296   13.5462   15.5467 O   0  0  0  0  0  0  0  0  0  0  0  0
   43.1752   14.1370   13.2506 C   0  0  1  0  0  0  0  0  0  0  0  0
   42.5687   15.4279   13.3862 O   0  0  0  0  0  0  0  0  0  0  0  0
   44.3875   14.2291   12.3109 C   0  0  2  0  0  0  0  0  0  0  0  0
   43.9505   14.6773   11.0098 O   0  0  0  0  0  0  0  0  0  0  0  0
   45.0303   12.8191   12.1973 C   0  0  2  0  0  0  0  0  0  0  0  0
   45.4548   12.3568   13.5161 O   0  0  0  0  0  0  0  0  0  0  0  0
   46.2660   12.9096   11.2836 C   0  0  0  0  0  0  0  0  0  0  0  0
   46.7953   11.6046   11.0196 O   0  0  0  0  0  0  0  0  0  0  0  0
  1  2  1  6  0  0  0
  1  3  1  0  0  0  0
  1  4  2  0  0  0  0
  1 16  1  0  0  0  0
  5  6  1  6  0  0  0
  5  7  1  0  0  0  0
  5 14  1  0  0  0  0
  7  8  1  1  0  0  0
  7  9  1  0  0  0  0
  9 10  1  1  0  0  0
  9 11  1  0  0  0  0
 11 12  1  6  0  0  0
 11 13  1  0  0  0  0
 13 14  1  0  0  0  0
 13 15  1  6  0  0  0
 15 16  1  0  0  0  0
M  CHG  1   3  -1
M  END
>  <CHROM.1>
-172.98099758,173.45126222,172.21615109,45.50540121,12.78430055,11.99930832
-0.25365442,-0.73037160,2.34587221

>  <Name>
ligand

>  <RI>
0

>  <Rbt.Current_Directory>
/home/itssahil/PROJECTS/Mol_Feturizer/New_Systems/rnas/2HO7

>  <Rbt.Executable>
rbdock ($Id: //depot/dev/client3/rdock/2013.1/src/exe/rbdock.cxx#4 $)

>  <Rbt.Library>
libRbt.so (2013.1, Build901 2013/11/27)

>  <Rbt.Parameter_File>
/export/apps/rDock/src/rDock_2013.1_src/data/scripts/dock_solv.prm

>  <Rbt.Receptor>
prm/pocket_docking_7.prm

>  <SCORE>
-8.43348

>  <SCORE.INTER>
-8.92306

>  <SCORE.INTER.CONST>
1

>  <SCORE.INTER.POLAR>
-1.03923

>  <SCORE.INTER.ROT>
3

>  <SCORE.INTER.SOLV>
12.7636

>  <SCORE.INTER.VDW>
-12.3392

>  <SCORE.INTER.norm>
-0.557691

>  <SCORE.INTRA>
0.489577

>  <SCORE.INTRA.DIHEDRAL>
0.475495

>  <SCORE.INTRA.DIHEDRAL.0>
0.00893466

>  <SCORE.INTRA.POLAR>
0

>  <SCORE.INTRA.POLAR.0>
0

>  <SCORE.INTRA.REPUL>
0

>  <SCORE.INTRA.REPUL.0>
0

>  <SCORE.INTRA.SOLV>
0.62261

>  <SCORE.INTRA.SOLV.lig_0>
-48.9722

>  <SCORE.INTRA.VDW>
-0.059475

>  <SCORE.INTRA.VDW.0>
-0.529409

>  <SCORE.INTRA.norm>
0.0305986

>  <SCORE.RESTR>
0

>  <SCORE.RESTR.CAVITY>
0

>  <SCORE.RESTR.norm>
0

>  <SCORE.SYSTEM>
0

>  <SCORE.SYSTEM.CONST>
0

>  <SCORE.SYSTEM.DIHEDRAL>
0

>  <SCORE.SYSTEM.SOLV>
0

>  <SCORE.SYSTEM.norm>
0

>  <SCORE.heavy>
16

>  <SCORE.norm>
-0.527093

>  <RMSD>
2.293

$$$$
ligand
 OpenBabel11021811433D
libRbt.so/2013.1/901 2013/11/27
 16 16  0  0  0  0  0  0  0  0999 V2000
   49.2858   12.8375   11.7699 P   0  0  2  0  0  0  0  0  0  0  0  0
   49.1621   14.2134   11.2280 O   0  0  0  0  0  0  0  0  0  0  0  0
   50.5906   12.7505   12.7078 O   0  5  0  0  0  0  0  0  0  0  0  0
   49.4429   11.8079   10.5416 O   0  0  0  0  0  0  0  0  0  0  0  0
   43.2496   13.4534   13.0550 C   0  0  2  0  0  0  0  0  0  0  0  0
   43.4665   13.8474   14.4219 O   0  0  0  0  0  0  0  0  0  0  0  0
   42.7448   11.9898   12.9769 C   0  0  2  0  0  0  0  0  0  0  0  0
   41.5078   11.8455   13.7534 O   0  0  0  0  0  0  0  0  0  0  0  0
   43.8303   11.0668   13.5617 C   0  0  1  0  0  0  0  0  0  0  0  0
   43.3938    9.7038   13.4968 O   0  0  0  0  0  0  0  0  0  0  0  0
   45.1098   11.2423   12.7289 C   0  0  2  0  0  0  0  0  0  0  0  0
   46.1486   10.3945   13.2648 O   0  0  0  0  0  0  0  0  0  0  0  0
   45.5477   12.7309   12.8075 C   0  0  2  0  0  0  0  0  0  0  0  0
   44.4894   13.5904   12.2838 O   0  0  0  0  0  0  0  0  0  0  0  0
   46.8107   12.9223   11.9483 C   0  0  0  0  0  0  0  0  0  0  0  0
   47.9730   12.4644   12.6501 O   0  0  0  0  0  0  0  0  0  0  0  0
  1  2  1  6  0  0  0
  1  3  1  0  0  0  0
  1  4  2  0  0  0  0
  1 16  1  0  0  0  0
  5  6  1  1  0  0  0
  5  7  1  0  0  0  0
  5 14  1  0  0  0  0
  7  8  1  1  0  0  0
  7  9  1  0  0  0  0
  9 10  1  6  0  0  0
  9 11  1  0  0  0  0
 11 12  1  1  0  0  0
 11 13  1  0  0  0  0
 13 14  1  0  0  0  0
 13 15  1  6  0  0  0
 15 16  1  0  0  0  0
M  CHG  1   3  -1
M  END
>  <CHROM.1>
-79.18327026,-173.88629908,42.98332649,46.09457146,12.34260222,12.63168363
0.15680550,0.25663145,-0.08353296

>  <Name>
ligand

>  <RI>
0

>  <Rbt.Current_Directory>
/home/itssahil/PROJECTS/Mol_Feturizer/New_Systems/rnas/2HO7

>  <Rbt.Executable>
rbdock ($Id: //depot/dev/client3/rdock/2013.1/src/exe/rbdock.cxx#4 $)

>  <Rbt.Library>
libRbt.so (2013.1, Build901 2013/11/27)

>  <Rbt.Parameter_File>
/export/apps/rDock/src/rDock_2013.1_src/data/scripts/dock_solv.prm

>  <Rbt.Receptor>
prm/pocket_docking_3.prm

>  <SCORE>
-8.91168

>  <SCORE.INTER>
-10.0637

>  <SCORE.INTER.CONST>
1

>  <SCORE.INTER.POLAR>
-1.29625

>  <SCORE.INTER.ROT>
3

>  <SCORE.INTER.SOLV>
17.0241

>  <SCORE.INTER.VDW>
-13.663

>  <SCORE.INTER.norm>
-0.628978

>  <SCORE.INTRA>
1.15197

>  <SCORE.INTRA.DIHEDRAL>
1.84581

>  <SCORE.INTRA.DIHEDRAL.0>
0.00893466

>  <SCORE.INTRA.POLAR>
0

>  <SCORE.INTRA.POLAR.0>
0

>  <SCORE.INTRA.REPUL>
0

>  <SCORE.INTRA.REPUL.0>
0

>  <SCORE.INTRA.SOLV>
0.0773832

>  <SCORE.INTRA.SOLV.lig_0>
-48.9722

>  <SCORE.INTRA.VDW>
0.190379

>  <SCORE.INTRA.VDW.0>
-0.529409

>  <SCORE.INTRA.norm>
0.0719983

>  <SCORE.RESTR>
0

>  <SCORE.RESTR.CAVITY>
0

>  <SCORE.RESTR.norm>
0

>  <SCORE.SYSTEM>
0

>  <SCORE.SYSTEM.CONST>
0

>  <SCORE.SYSTEM.DIHEDRAL>
0

>  <SCORE.SYSTEM.SOLV>
0

>  <SCORE.SYSTEM.norm>
0

>  <SCORE.heavy>
16

>  <SCORE.norm>
-0.55698

>  <RMSD>
2.304

$$$$
ligand
 OpenBabel11021811433D
libRbt.so/2013.1/901 2013/11/27
 16 16  0  0  0  0  0  0  0  0999 V2000
   48.9240   12.6609   11.7356 P   0  0  2  0  0  0  0  0  0  0  0  0
   49.3518   14.0682   11.9327 O   0  0  0  0  0  0  0  0  0  0  0  0
   50.1271   11.6760   12.1506 O   0  5  0  0  0  0  0  0  0  0  0  0
   48.5665   12.4398   10.1810 O   0  0  0  0  0  0  0  0  0  0  0  0
   43.0093   13.6352   13.4304 C   0  0  2  0  0  0  0  0  0  0  0  0
   43.2740   13.8803   14.8235 O   0  0  0  0  0  0  0  0  0  0  0  0
   42.4514   12.2044   13.2191 C   0  0  2  0  0  0  0  0  0  0  0  0
   41.2299   12.0219   14.0120 O   0  0  0  0  0  0  0  0  0  0  0  0
   43.5180   11.1917   13.6765 C   0  0  1  0  0  0  0  0  0  0  0  0
   43.0322    9.8574   13.4866 O   0  0  0  0  0  0  0  0  0  0  0  0
   44.7817   11.4095   12.8297 C   0  0  2  0  0  0  0  0  0  0  0  0
   45.8030   10.4782   13.2472 O   0  0  0  0  0  0  0  0  0  0  0  0
   45.2736   12.8673   13.0459 C   0  0  2  0  0  0  0  0  0  0  0  0
   44.2334   13.8097   12.6421 O   0  0  0  0  0  0  0  0  0  0  0  0
   46.5207   13.1042   12.1748 C   0  0  0  0  0  0  0  0  0  0  0  0
   47.6289   12.3367   12.6605 O   0  0  0  0  0  0  0  0  0  0  0  0
  1  2  1  1  0  0  0
  1  3  1  0  0  0  0
  1  4  2  0  0  0  0
  1 16  1  0  0  0  0
  5  6  1  1  0  0  0
  5  7  1  0  0  0  0
  5 14  1  0  0  0  0
  7  8  1  1  0  0  0
  7  9  1  0  0  0  0
  9 10  1  6  0  0  0
  9 11  1  0  0  0  0
 11 12  1  1  0  0  0
 11 13  1  0  0  0  0
 13 14  1  0  0  0  0
 13 15  1  6  0  0  0
 15 16  1  0  0  0  0
M  CHG  1   3  -1
M  END
>  <CHROM.1>
-68.55150788,-178.23191034,66.95066173,45.77590209,12.37026117,12.74452739
0.07500546,0.31379126,0.00785976

>  <Name>
ligand

>  <RI>
0

>  <Rbt.Current_Directory>
/home/itssahil/PROJECTS/Mol_Feturizer/New_Systems/rnas/2HO7

>  <Rbt.Executable>
rbdock ($Id: //depot/dev/client3/rdock/2013.1/src/exe/rbdock.cxx#4 $)

>  <Rbt.Library>
libRbt.so (2013.1, Build901 2013/11/27)

>  <Rbt.Parameter_File>
/export/apps/rDock/src/rDock_2013.1_src/data/scripts/dock_solv.prm

>  <Rbt.Receptor>
prm/pocket_docking_4.prm

>  <SCORE>
-10.4444

>  <SCORE.INTER>
-10.9147

>  <SCORE.INTER.CONST>
1

>  <SCORE.INTER.POLAR>
-1.29856

>  <SCORE.INTER.ROT>
3

>  <SCORE.INTER.SOLV>
17.1943

>  <SCORE.INTER.VDW>
-14.2794

>  <SCORE.INTER.norm>
-0.682167

>  <SCORE.INTRA>
0.470299

>  <SCORE.INTRA.DIHEDRAL>
0.345517

>  <SCORE.INTRA.DIHEDRAL.0>
0.00893466

>  <SCORE.INTRA.POLAR>
0

>  <SCORE.INTRA.POLAR.0>
0

>  <SCORE.INTRA.REPUL>
0

>  <SCORE.INTRA.REPUL.0>
0

>  <SCORE.INTRA.SOLV>
0.478213

>  <SCORE.INTRA.SOLV.lig_0>
-48.9722

>  <SCORE.INTRA.VDW>
0.0584343

>  <SCORE.INTRA.VDW.0>
-0.529409

>  <SCORE.INTRA.norm>
0.0293937

>  <SCORE.RESTR>
0

>  <SCORE.RESTR.CAVITY>
0

>  <SCORE.RESTR.norm>
0

>  <SCORE.SYSTEM>
0

>  <SCORE.SYSTEM.CONST>
0

>  <SCORE.SYSTEM.DIHEDRAL>
0

>  <SCORE.SYSTEM.SOLV>
0

>  <SCORE.SYSTEM.norm>
0

>  <SCORE.heavy>
16

>  <SCORE.norm>
-0.652773

>  <RMSD>
2.322

$$$$
ligand
 OpenBabel11021811433D
libRbt.so/2013.1/901 2013/11/27
 16 16  0  0  0  0  0  0  0  0999 V2000
   49.2420   12.8014   11.7769 P   0  0  2  0  0  0  0  0  0  0  0  0
   49.1725   14.1683   11.2032 O   0  0  0  0  0  0  0  0  0  0  0  0
   50.5534   12.6786   12.7015 O   0  5  0  0  0  0  0  0  0  0  0  0
   49.3378   11.7370   10.5721 O   0  0  0  0  0  0  0  0  0  0  0  0
   43.1869   13.4941   12.9755 C   0  0  2  0  0  0  0  0  0  0  0  0
   43.3820   14.0154   14.3025 O   0  0  0  0  0  0  0  0  0  0  0  0
   42.7119   12.0194   13.0271 C   0  0  2  0  0  0  0  0  0  0  0  0
   41.4701   11.9210   13.8032 O   0  0  0  0  0  0  0  0  0  0  0  0
   43.8094   11.1761   13.7028 C   0  0  1  0  0  0  0  0  0  0  0  0
   43.4006    9.8042   13.7591 O   0  0  0  0  0  0  0  0  0  0  0  0
   45.0936   11.3012   12.8683 C   0  0  2  0  0  0  0  0  0  0  0  0
   46.1434   10.5274   13.4879 O   0  0  0  0  0  0  0  0  0  0  0  0
   45.5013   12.7995   12.8142 C   0  0  2  0  0  0  0  0  0  0  0  0
   44.4315   13.5857   12.2053 O   0  0  0  0  0  0  0  0  0  0  0  0
   46.7689   12.9377   11.9517 C   0  0  0  0  0  0  0  0  0  0  0  0
   47.9251   12.5082   12.6810 O   0  0  0  0  0  0  0  0  0  0  0  0
  1  2  1  6  0  0  0
  1  3  1  0  0  0  0
  1  4  2  0  0  0  0
  1 16  1  0  0  0  0
  5  6  1  1  0  0  0
  5  7  1  0  0  0  0
  5 14  1  0  0  0  0
  7  8  1  1  0  0  0
  7  9  1  0  0  0  0
  9 10  1  6  0  0  0
  9 11  1  0  0  0  0
 11 12  1  1  0  0  0
 11 13  1  0  0  0  0
 13 14  1  0  0  0  0
 13 15  1  6  0  0  0
 15 16  1  0  0  0  0
M  CHG  1   3  -1
M  END
>  <CHROM.1>
-76.38288531,-174.91392156,45.93643744,46.05518058,12.37544625,12.66908036
0.16294305,0.25075603,-0.18402298

>  <Name>
ligand

>  <RI>
0

>  <Rbt.Current_Directory>
/home/itssahil/PROJECTS/Mol_Feturizer/New_Systems/rnas/2HO7

>  <Rbt.Executable>
rbdock ($Id: //depot/dev/client3/rdock/2013.1/src/exe/rbdock.cxx#4 $)

>  <Rbt.Library>
libRbt.so (2013.1, Build901 2013/11/27)

>  <Rbt.Parameter_File>
/export/apps/rDock/src/rDock_2013.1_src/data/scripts/dock_solv.prm

>  <Rbt.Receptor>
prm/pocket_docking_5.prm

>  <SCORE>
-8.9837

>  <SCORE.INTER>
-9.86271

>  <SCORE.INTER.CONST>
1

>  <SCORE.INTER.POLAR>
-1.29904

>  <SCORE.INTER.ROT>
3

>  <SCORE.INTER.SOLV>
17.2309

>  <SCORE.INTER.VDW>
-13.5886

>  <SCORE.INTER.norm>
-0.616419

>  <SCORE.INTRA>
0.87901

>  <SCORE.INTRA.DIHEDRAL>
1.34451

>  <SCORE.INTRA.DIHEDRAL.0>
0.00893466

>  <SCORE.INTRA.POLAR>
0

>  <SCORE.INTRA.POLAR.0>
0

>  <SCORE.INTRA.REPUL>
0

>  <SCORE.INTRA.REPUL.0>
0

>  <SCORE.INTRA.SOLV>
0.148467

>  <SCORE.INTRA.SOLV.lig_0>
-48.9722

>  <SCORE.INTRA.VDW>
0.132521

>  <SCORE.INTRA.VDW.0>
-0.529409

>  <SCORE.INTRA.norm>
0.0549381

>  <SCORE.RESTR>
0

>  <SCORE.RESTR.CAVITY>
0

>  <SCORE.RESTR.norm>
0

>  <SCORE.SYSTEM>
0

>  <SCORE.SYSTEM.CONST>
0

>  <SCORE.SYSTEM.DIHEDRAL>
0

>  <SCORE.SYSTEM.SOLV>
0

>  <SCORE.SYSTEM.norm>
0

>  <SCORE.heavy>
16

>  <SCORE.norm>
-0.561481

>  <RMSD>
2.358

$$$$
ligand
 OpenBabel11021811433D
libRbt.so/2013.1/901 2013/11/27
 16 16  0  0  0  0  0  0  0  0999 V2000
   47.9417   11.8619   10.1691 P   0  0  2  0  0  0  0  0  0  0  0  0
   47.6373   10.5478    9.5505 O   0  0  0  0  0  0  0  0  0  0  0  0
   47.8967   13.0056    9.0379 O   0  5  0  0  0  0  0  0  0  0  0  0
   49.4178   11.8044   10.8104 O   0  0  0  0  0  0  0  0  0  0  0  0
   43.8221   11.8931   14.1655 C   0  0  2  0  0  0  0  0  0  0  0  0
   42.5365   11.3657   13.7914 O   0  0  0  0  0  0  0  0  0  0  0  0
   43.7440   13.4242   14.3947 C   0  0  2  0  0  0  0  0  0  0  0  0
   42.7469   13.7248   15.4289 O   0  0  0  0  0  0  0  0  0  0  0  0
   43.3315   14.0958   13.0713 C   0  0  1  0  0  0  0  0  0  0  0  0
   43.2572   15.5152   13.2509 O   0  0  0  0  0  0  0  0  0  0  0  0
   44.3929   13.7614   12.0117 C   0  0  2  0  0  0  0  0  0  0  0  0
   44.0231   14.3710   10.7561 O   0  0  0  0  0  0  0  0  0  0  0  0
   44.4593   12.2174   11.8518 C   0  0  2  0  0  0  0  0  0  0  0  0
   44.8142   11.5989   13.1265 O   0  0  0  0  0  0  0  0  0  0  0  0
   45.5444   11.8723   10.8157 C   0  0  0  0  0  0  0  0  0  0  0  0
   46.8448   12.2058   11.3164 O   0  0  0  0  0  0  0  0  0  0  0  0
  1  2  1  6  0  0  0
  1  3  1  0  0  0  0
  1  4  2  0  0  0  0
  1 16  1  0  0  0  0
  5  6  1  6  0  0  0
  5  7  1  0  0  0  0
  5 14  1  0  0  0  0
  7  8  1  1  0  0  0
  7  9  1  0  0  0  0
  9 10  1  1  0  0  0
  9 11  1  0  0  0  0
 11 12  1  6  0  0  0
 11 13  1  0  0  0  0
 13 14  1  0  0  0  0
 13 15  1  6  0  0  0
 15 16  1  0  0  0  0
M  CHG  1   3  -1
M  END
>  <CHROM.1>
67.29413272,-178.37679628,-43.44032689,45.38249172,12.63894334,11.93435529
-0.08156687,-0.71211660,2.62661856

>  <Name>
ligand

>  <RI>
0

>  <Rbt.Current_Directory>
/home/itssahil/PROJECTS/Mol_Feturizer/New_Systems/rnas/2HO7

>  <Rbt.Executable>
rbdock ($Id: //depot/dev/client3/rdock/2013.1/src/exe/rbdock.cxx#4 $)

>  <Rbt.Library>
libRbt.so (2013.1, Build901 2013/11/27)

>  <Rbt.Parameter_File>
/export/apps/rDock/src/rDock_2013.1_src/data/scripts/dock_solv.prm

>  <Rbt.Receptor>
prm/pocket_docking_6.prm

>  <SCORE>
-9.20592

>  <SCORE.INTER>
-9.74406

>  <SCORE.INTER.CONST>
1

>  <SCORE.INTER.POLAR>
-1.29904

>  <SCORE.INTER.ROT>
3

>  <SCORE.INTER.SOLV>
11.7986

>  <SCORE.INTER.VDW>
-11.6988

>  <SCORE.INTER.norm>
-0.609003

>  <SCORE.INTRA>
0.538135

>  <SCORE.INTRA.DIHEDRAL>
0.61601

>  <SCORE.INTRA.DIHEDRAL.0>
0.00893466

>  <SCORE.INTRA.POLAR>
0

>  <SCORE.INTRA.POLAR.0>
0

>  <SCORE.INTRA.REPUL>
0

>  <SCORE.INTRA.REPUL.0>
0

>  <SCORE.INTRA.SOLV>
0.112799

>  <SCORE.INTRA.SOLV.lig_0>
-48.9722

>  <SCORE.INTRA.VDW>
0.17373

>  <SCORE.INTRA.VDW.0>
-0.529409

>  <SCORE.INTRA.norm>
0.0336334

>  <SCORE.RESTR>
0

>  <SCORE.RESTR.CAVITY>
0

>  <SCORE.RESTR.norm>
0

>  <SCORE.SYSTEM>
0

>  <SCORE.SYSTEM.CONST>
0

>  <SCORE.SYSTEM.DIHEDRAL>
0

>  <SCORE.SYSTEM.SOLV>
0

>  <SCORE.SYSTEM.norm>
0

>  <SCORE.heavy>
16

>  <SCORE.norm>
-0.57537

>  <RMSD>
2.371

$$$$
ligand
 OpenBabel11021811433D
libRbt.so/2013.1/901 2013/11/27
 16 16  0  0  0  0  0  0  0  0999 V2000
   48.6716   12.4413   11.7828 P   0  0  2  0  0  0  0  0  0  0  0  0
   49.0757   13.8627   11.9182 O   0  0  0  0  0  0  0  0  0  0  0  0
   49.8887   11.4958   12.2460 O   0  5  0  0  0  0  0  0  0  0  0  0
   48.3247   12.1450   10.2383 O   0  0  0  0  0  0  0  0  0  0  0  0
   42.8511   13.6265   13.6640 C   0  0  2  0  0  0  0  0  0  0  0  0
   43.1338   13.6797   15.0739 O   0  0  0  0  0  0  0  0  0  0  0  0
   42.1947   12.2745   13.2843 C   0  0  2  0  0  0  0  0  0  0  0  0
   40.9643   12.0806   14.0607 O   0  0  0  0  0  0  0  0  0  0  0  0
   43.1887   11.1421   13.6037 C   0  0  1  0  0  0  0  0  0  0  0  0
   42.6110    9.8779   13.2565 O   0  0  0  0  0  0  0  0  0  0  0  0
   44.4635   11.3747   12.7778 C   0  0  2  0  0  0  0  0  0  0  0  0
   45.4180   10.3309   13.0681 O   0  0  0  0  0  0  0  0  0  0  0  0
   45.0560   12.7574   13.1663 C   0  0  2  0  0  0  0  0  0  0  0  0
   44.0835   13.8118   12.8911 O   0  0  0  0  0  0  0  0  0  0  0  0
   46.3155   13.0130   12.3187 C   0  0  0  0  0  0  0  0  0  0  0  0
   47.3779   12.1377   12.7165 O   0  0  0  0  0  0  0  0  0  0  0  0
  1  2  1  1  0  0  0
  1  3  1  0  0  0  0
  1  4  2  0  0  0  0
  1 16  1  0  0  0  0
  5  6  1  1  0  0  0
  5  7  1  0  0  0  0
  5 14  1  0  0  0  0
  7  8  1  1  0  0  0
  7  9  1  0  0  0  0
  9 10  1  6  0  0  0
  9 11  1  0  0  0  0
 11 12  1  1  0  0  0
 11 13  1  0  0  0  0
 13 14  1  0  0  0  0
 13 15  1  6  0  0  0
 15 16  1  0  0  0  0
M  CHG  1   3  -1
M  END
>  <CHROM.1>
-69.86195288,179.47477696,58.39681972,45.51902355,12.25946799,12.79429248
-0.00407691,0.31613680,0.15823993

>  <Name>
ligand

>  <RI>
0

>  <Rbt.Current_Directory>
/home/itssahil/PROJECTS/Mol_Feturizer/New_Systems/rnas/2HO7

>  <Rbt.Executable>
rbdock ($Id: //depot/dev/client3/rdock/2013.1/src/exe/rbdock.cxx#4 $)

>  <Rbt.Library>
libRbt.so (2013.1, Build901 2013/11/27)

>  <Rbt.Parameter_File>
/export/apps/rDock/src/rDock_2013.1_src/data/scripts/dock_solv.prm

>  <Rbt.Receptor>
prm/pocket_docking_3.prm

>  <SCORE>
-10.5109

>  <SCORE.INTER>
-10.9031

>  <SCORE.INTER.CONST>
1

>  <SCORE.INTER.POLAR>
-1.29904

>  <SCORE.INTER.ROT>
3

>  <SCORE.INTER.SOLV>
18.3106

>  <SCORE.INTER.VDW>
-14.6421

>  <SCORE.INTER.norm>
-0.681441

>  <SCORE.INTRA>
0.392196

>  <SCORE.INTRA.DIHEDRAL>
0.341916

>  <SCORE.INTRA.DIHEDRAL.0>
0.00893466

>  <SCORE.INTRA.POLAR>
0

>  <SCORE.INTRA.POLAR.0>
0

>  <SCORE.INTRA.REPUL>
0

>  <SCORE.INTRA.REPUL.0>
0

>  <SCORE.INTRA.SOLV>
0.41966

>  <SCORE.INTRA.SOLV.lig_0>
-48.9722

>  <SCORE.INTRA.VDW>
0.011408

>  <SCORE.INTRA.VDW.0>
-0.529409

>  <SCORE.INTRA.norm>
0.0245123

>  <SCORE.RESTR>
0

>  <SCORE.RESTR.CAVITY>
0

>  <SCORE.RESTR.norm>
0

>  <SCORE.SYSTEM>
0

>  <SCORE.SYSTEM.CONST>
0

>  <SCORE.SYSTEM.DIHEDRAL>
0

>  <SCORE.SYSTEM.SOLV>
0

>  <SCORE.SYSTEM.norm>
0

>  <SCORE.heavy>
16

>  <SCORE.norm>
-0.656929

>  <RMSD>
2.383

$$$$
ligand
 OpenBabel11021811433D
libRbt.so/2013.1/901 2013/11/27
 16 16  0  0  0  0  0  0  0  0999 V2000
   48.6438   12.4055   11.8543 P   0  0  2  0  0  0  0  0  0  0  0  0
   49.0765   13.8176   11.9989 O   0  0  0  0  0  0  0  0  0  0  0  0
   49.8472   11.4325   12.2958 O   0  5  0  0  0  0  0  0  0  0  0  0
   48.2754   12.1308   10.3108 O   0  0  0  0  0  0  0  0  0  0  0  0
   42.8515   13.6576   13.7810 C   0  0  2  0  0  0  0  0  0  0  0  0
   43.1400   13.6964   15.1902 O   0  0  0  0  0  0  0  0  0  0  0  0
   42.1780   12.3164   13.3932 C   0  0  2  0  0  0  0  0  0  0  0  0
   40.9483   12.1307   14.1726 O   0  0  0  0  0  0  0  0  0  0  0  0
   43.1599   11.1700   13.6999 C   0  0  1  0  0  0  0  0  0  0  0  0
   42.5662    9.9155   13.3449 O   0  0  0  0  0  0  0  0  0  0  0  0
   44.4343   11.3943   12.8710 C   0  0  2  0  0  0  0  0  0  0  0  0
   45.3776   10.3372   13.1495 O   0  0  0  0  0  0  0  0  0  0  0  0
   45.0443   12.7670   13.2681 C   0  0  2  0  0  0  0  0  0  0  0  0
   44.0831   13.8347   13.0049 O   0  0  0  0  0  0  0  0  0  0  0  0
   46.3036   13.0146   12.4179 C   0  0  0  0  0  0  0  0  0  0  0  0
   47.3541   12.1176   12.7985 O   0  0  0  0  0  0  0  0  0  0  0  0
  1  2  1  1  0  0  0
  1  3  1  0  0  0  0
  1  4  2  0  0  0  0
  1 16  1  0  0  0  0
  5  6  1  1  0  0  0
  5  7  1  0  0  0  0
  5 14  1  0  0  0  0
  7  8  1  1  0  0  0
  7  9  1  0  0  0  0
  9 10  1  6  0  0  0
  9 11  1  0  0  0  0
 11 12  1  1  0  0  0
 11 13  1  0  0  0  0
 13 14  1  0  0  0  0
 13 15  1  6  0  0  0
 15 16  1  0  0  0  0
M  CHG  1   3  -1
M  END
>  <CHROM.1>
-69.46744695,179.00835998,58.54431242,45.49740213,12.26129024,12.88514429
-0.01971626,0.32000043,0.16999202

>  <Name>
ligand

>  <RI>
0

>  <Rbt.Current_Directory>
/home/itssahil/PROJECTS/Mol_Feturizer/New_Systems/rnas/2HO7

>  <Rbt.Executable>
rbdock ($Id: //depot/dev/client3/rdock/2013.1/src/exe/rbdock.cxx#4 $)

>  <Rbt.Library>
libRbt.so (2013.1, Build901 2013/11/27)

>  <Rbt.Parameter_File>
/export/apps/rDock/src/rDock_2013.1_src/data/scripts/dock_solv.prm

>  <Rbt.Receptor>
prm/pocket_docking_5.prm

>  <SCORE>
-10.7351

>  <SCORE.INTER>
-11.1297

>  <SCORE.INTER.CONST>
1

>  <SCORE.INTER.POLAR>
-1.29882

>  <SCORE.INTER.ROT>
3

>  <SCORE.INTER.SOLV>
18.9135

>  <SCORE.INTER.VDW>
-14.9949

>  <SCORE.INTER.norm>
-0.695606

>  <SCORE.INTRA>
0.394586

>  <SCORE.INTRA.DIHEDRAL>
0.318192

>  <SCORE.INTRA.DIHEDRAL.0>
0.00893466

>  <SCORE.INTRA.POLAR>
0

>  <SCORE.INTRA.POLAR.0>
0

>  <SCORE.INTRA.REPUL>
0

>  <SCORE.INTRA.REPUL.0>
0

>  <SCORE.INTRA.SOLV>
0.436393

>  <SCORE.INTRA.SOLV.lig_0>
-48.9722

>  <SCORE.INTRA.VDW>
0.0172939

>  <SCORE.INTRA.VDW.0>
-0.529409

>  <SCORE.INTRA.norm>
0.0246617

>  <SCORE.RESTR>
0

>  <SCORE.RESTR.CAVITY>
0

>  <SCORE.RESTR.norm>
0

>  <SCORE.SYSTEM>
0

>  <SCORE.SYSTEM.CONST>
0

>  <SCORE.SYSTEM.DIHEDRAL>
0

>  <SCORE.SYSTEM.SOLV>
0

>  <SCORE.SYSTEM.norm>
0

>  <SCORE.heavy>
16

>  <SCORE.norm>
-0.670945

>  <RMSD>
2.416

$$$$
ligand
 OpenBabel11021811433D
libRbt.so/2013.1/901 2013/11/27
 16 16  0  0  0  0  0  0  0  0999 V2000
   48.0294   11.6504    9.2224 P   0  0  2  0  0  0  0  0  0  0  0  0
   47.1429   11.5210    8.0394 O   0  0  0  0  0  0  0  0  0  0  0  0
   49.0759   12.8475    8.9746 O   0  5  0  0  0  0  0  0  0  0  0  0
   48.8355   10.2703    9.4206 O   0  0  0  0  0  0  0  0  0  0  0  0
   45.2344   11.5415   14.2664 C   0  0  2  0  0  0  0  0  0  0  0  0
   44.2076   10.5465   14.4292 O   0  0  0  0  0  0  0  0  0  0  0  0
   44.6171   12.9607   14.1771 C   0  0  2  0  0  0  0  0  0  0  0  0
   43.8228   13.2370   15.3799 O   0  0  0  0  0  0  0  0  0  0  0  0
   43.7083   13.0208   12.9350 C   0  0  1  0  0  0  0  0  0  0  0  0
   43.1275   14.3256   12.8224 O   0  0  0  0  0  0  0  0  0  0  0  0
   44.5681   12.7266   11.6959 C   0  0  2  0  0  0  0  0  0  0  0  0
   43.7358   12.7656   10.5166 O   0  0  0  0  0  0  0  0  0  0  0  0
   45.1943   11.3137   11.8558 C   0  0  2  0  0  0  0  0  0  0  0  0
   46.0207   11.2677   13.0592 O   0  0  0  0  0  0  0  0  0  0  0  0
   46.0845   11.0246   10.6334 C   0  0  0  0  0  0  0  0  0  0  0  0
   47.1484   11.9804   10.5463 O   0  0  0  0  0  0  0  0  0  0  0  0
  1  2  1  6  0  0  0
  1  3  1  0  0  0  0
  1  4  2  0  0  0  0
  1 16  1  0  0  0  0
  5  6  1  6  0  0  0
  5  7  1  0  0  0  0
  5 14  1  0  0  0  0
  7  8  1  1  0  0  0
  7  9  1  0  0  0  0
  9 10  1  6  0  0  0
  9 11  1  0  0  0  0
 11 12  1  6  0  0  0
 11 13  1  0  0  0  0
 13 14  1  0  0  0  0
 13 15  1  6  0  0  0
 15 16  1  0  0  0  0
M  CHG  1   3  -1
M  END
>  <CHROM.1>
61.18533134,-178.58606891,50.87459038,45.85429594,12.03159236,11.53559497
-0.64960577,-0.64485665,2.02564185

>  <Name>
ligand

>  <RI>
0

>  <Rbt.Current_Directory>
/home/itssahil/PROJECTS/Mol_Feturizer/New_Systems/rnas/2HO7

>  <Rbt.Executable>
rbdock ($Id: //depot/dev/client3/rdock/2013.1/src/exe/rbdock.cxx#4 $)

>  <Rbt.Library>
libRbt.so (2013.1, Build901 2013/11/27)

>  <Rbt.Parameter_File>
/export/apps/rDock/src/rDock_2013.1_src/data/scripts/dock_solv.prm

>  <Rbt.Receptor>
prm/pocket_docking_6.prm

>  <SCORE>
-10.3451

>  <SCORE.INTER>
-10.4886

>  <SCORE.INTER.CONST>
1

>  <SCORE.INTER.POLAR>
-1.29904

>  <SCORE.INTER.ROT>
3

>  <SCORE.INTER.SOLV>
14.0999

>  <SCORE.INTER.VDW>
-12.9622

>  <SCORE.INTER.norm>
-0.655536

>  <SCORE.INTRA>
0.143449

>  <SCORE.INTRA.DIHEDRAL>
0.141266

>  <SCORE.INTRA.DIHEDRAL.0>
0.00893466

>  <SCORE.INTRA.POLAR>
0

>  <SCORE.INTRA.POLAR.0>
0

>  <SCORE.INTRA.REPUL>
0

>  <SCORE.INTRA.REPUL.0>
0

>  <SCORE.INTRA.SOLV>
0.140932

>  <SCORE.INTRA.SOLV.lig_0>
-48.9722

>  <SCORE.INTRA.VDW>
0.00235014

>  <SCORE.INTRA.VDW.0>
-0.529409

>  <SCORE.INTRA.norm>
0.00896557

>  <SCORE.RESTR>
0

>  <SCORE.RESTR.CAVITY>
0

>  <SCORE.RESTR.norm>
0

>  <SCORE.SYSTEM>
0

>  <SCORE.SYSTEM.CONST>
0

>  <SCORE.SYSTEM.DIHEDRAL>
0

>  <SCORE.SYSTEM.SOLV>
0

>  <SCORE.SYSTEM.norm>
0

>  <SCORE.heavy>
16

>  <SCORE.norm>
-0.64657

>  <RMSD>
2.425

$$$$
ligand
 OpenBabel11021811433D
libRbt.so/2013.1/901 2013/11/27
 16 16  0  0  0  0  0  0  0  0999 V2000
   47.9424   11.3844    9.4231 P   0  0  2  0  0  0  0  0  0  0  0  0
   47.6893   10.0170    8.9050 O   0  0  0  0  0  0  0  0  0  0  0  0
   47.4649   12.4644    8.3299 O   0  5  0  0  0  0  0  0  0  0  0  0
   49.5219   11.5556    9.6867 O   0  0  0  0  0  0  0  0  0  0  0  0
   44.9339   11.5186   14.2839 C   0  0  2  0  0  0  0  0  0  0  0  0
   43.8050   10.6323   14.3881 O   0  0  0  0  0  0  0  0  0  0  0  0
   44.4709   12.9973   14.2367 C   0  0  2  0  0  0  0  0  0  0  0  0
   43.6815   13.3125   15.4332 O   0  0  0  0  0  0  0  0  0  0  0  0
   43.6031   13.1976   12.9800 C   0  0  1  0  0  0  0  0  0  0  0  0
   43.1650   14.5595   12.9058 O   0  0  0  0  0  0  0  0  0  0  0  0
   44.4566   12.8589   11.7479 C   0  0  2  0  0  0  0  0  0  0  0  0
   43.6613   13.0279   10.5547 O   0  0  0  0  0  0  0  0  0  0  0  0
   44.9276   11.3830   11.8660 C   0  0  2  0  0  0  0  0  0  0  0  0
   45.7157   11.2070   13.0830 O   0  0  0  0  0  0  0  0  0  0  0  0
   45.8113   11.0457   10.6515 C   0  0  0  0  0  0  0  0  0  0  0  0
   47.1151   11.6211   10.8005 O   0  0  0  0  0  0  0  0  0  0  0  0
  1  2  1  6  0  0  0
  1  3  1  0  0  0  0
  1  4  2  0  0  0  0
  1 16  1  0  0  0  0
  5  6  1  6  0  0  0
  5  7  1  0  0  0  0
  5 14  1  0  0  0  0
  7  8  1  1  0  0  0
  7  9  1  0  0  0  0
  9 10  1  6  0  0  0
  9 11  1  0  0  0  0
 11 12  1  6  0  0  0
 11 13  1  0  0  0  0
 13 14  1  0  0  0  0
 13 15  1  6  0  0  0
 15 16  1  0  0  0  0
M  CHG  1   3  -1
M  END
>  <CHROM.1>
76.20756511,-173.43726395,-41.18878238,45.69927910,11.99748042,11.62708185
-0.55852035,-0.69783610,2.07226393

>  <Name>
ligand

>  <RI>
0

>  <Rbt.Current_Directory>
/home/itssahil/PROJECTS/Mol_Feturizer/New_Systems/rnas/2HO7

>  <Rbt.Executable>
rbdock ($Id: //depot/dev/client3/rdock/2013.1/src/exe/rbdock.cxx#4 $)

>  <Rbt.Library>
libRbt.so (2013.1, Build901 2013/11/27)

>  <Rbt.Parameter_File>
/export/apps/rDock/src/rDock_2013.1_src/data/scripts/dock_solv.prm

>  <Rbt.Receptor>
prm/pocket_docking_4.prm

>  <SCORE>
-8.97253

>  <SCORE.INTER>
-10.1225

>  <SCORE.INTER.CONST>
1

>  <SCORE.INTER.POLAR>
-1.29732

>  <SCORE.INTER.ROT>
3

>  <SCORE.INTER.SOLV>
15.0078

>  <SCORE.INTER.VDW>
-13.0265

>  <SCORE.INTER.norm>
-0.632655

>  <SCORE.INTRA>
1.14995

>  <SCORE.INTRA.DIHEDRAL>
1.63043

>  <SCORE.INTRA.DIHEDRAL.0>
0.00893466

>  <SCORE.INTRA.POLAR>
0

>  <SCORE.INTRA.POLAR.0>
0

>  <SCORE.INTRA.REPUL>
0

>  <SCORE.INTRA.REPUL.0>
0

>  <SCORE.INTRA.SOLV>
0.154599

>  <SCORE.INTRA.SOLV.lig_0>
-48.9722

>  <SCORE.INTRA.VDW>
0.257435

>  <SCORE.INTRA.VDW.0>
-0.529409

>  <SCORE.INTRA.norm>
0.0718718

>  <SCORE.RESTR>
0

>  <SCORE.RESTR.CAVITY>
0

>  <SCORE.RESTR.norm>
0

>  <SCORE.SYSTEM>
0

>  <SCORE.SYSTEM.CONST>
0

>  <SCORE.SYSTEM.DIHEDRAL>
0

>  <SCORE.SYSTEM.SOLV>
0

>  <SCORE.SYSTEM.norm>
0

>  <SCORE.heavy>
16

>  <SCORE.norm>
-0.560783

>  <RMSD>
2.440

$$$$
ligand
 OpenBabel11021811433D
libRbt.so/2013.1/901 2013/11/27
 16 16  0  0  0  0  0  0  0  0999 V2000
   47.5355   11.2259    8.8876 P   0  0  2  0  0  0  0  0  0  0  0  0
   47.6647   12.6149    8.3813 O   0  0  0  0  0  0  0  0  0  0  0  0
   48.9149   10.7852    9.5896 O   0  5  0  0  0  0  0  0  0  0  0  0
   47.2331   10.2466    7.6455 O   0  0  0  0  0  0  0  0  0  0  0  0
   45.0493   12.4882   14.4590 C   0  0  2  0  0  0  0  0  0  0  0  0
   44.5579   11.1632   14.7304 O   0  0  0  0  0  0  0  0  0  0  0  0
   43.8973   13.4206   14.0044 C   0  0  2  0  0  0  0  0  0  0  0  0
   42.8525   13.4633   15.0343 O   0  0  0  0  0  0  0  0  0  0  0  0
   43.3069   12.8648   12.6949 C   0  0  1  0  0  0  0  0  0  0  0  0
   42.2419   13.7113   12.2459 O   0  0  0  0  0  0  0  0  0  0  0  0
   44.4239   12.8321   11.6401 C   0  0  2  0  0  0  0  0  0  0  0  0
   43.8981   12.3031   10.4037 O   0  0  0  0  0  0  0  0  0  0  0  0
   45.5677   11.9197   12.1628 C   0  0  2  0  0  0  0  0  0  0  0  0
   46.0867   12.4435   13.4236 O   0  0  0  0  0  0  0  0  0  0  0  0
   46.7058   11.9082   11.1262 C   0  0  0  0  0  0  0  0  0  0  0  0
   46.3336   11.1385    9.9764 O   0  0  0  0  0  0  0  0  0  0  0  0
  1  2  1  6  0  0  0
  1  3  1  0  0  0  0
  1  4  2  0  0  0  0
  1 16  1  0  0  0  0
  5  6  1  6  0  0  0
  5  7  1  0  0  0  0
  5 14  1  0  0  0  0
  7  8  1  1  0  0  0
  7  9  1  0  0  0  0
  9 10  1  6  0  0  0
  9 11  1  0  0  0  0
 11 12  1  6  0  0  0
 11 13  1  0  0  0  0
 13 14  1  0  0  0  0
 13 15  1  6  0  0  0
 15 16  1  0  0  0  0
M  CHG  1   3  -1
M  END
>  <CHROM.1>
-72.98629898,177.05216321,-66.13068840,45.56330309,12.07299359,11.41289851
-0.86076181,-0.42674930,1.58505306

>  <Name>
ligand

>  <RI>
0

>  <Rbt.Current_Directory>
/home/itssahil/PROJECTS/Mol_Feturizer/New_Systems/rnas/2HO7

>  <Rbt.Executable>
rbdock ($Id: //depot/dev/client3/rdock/2013.1/src/exe/rbdock.cxx#4 $)

>  <Rbt.Library>
libRbt.so (2013.1, Build901 2013/11/27)

>  <Rbt.Parameter_File>
/export/apps/rDock/src/rDock_2013.1_src/data/scripts/dock_solv.prm

>  <Rbt.Receptor>
prm/pocket_docking_6.prm

>  <SCORE>
-10.6789

>  <SCORE.INTER>
-11.2383

>  <SCORE.INTER.CONST>
1

>  <SCORE.INTER.POLAR>
-1.29904

>  <SCORE.INTER.ROT>
3

>  <SCORE.INTER.SOLV>
16.4844

>  <SCORE.INTER.VDW>
-14.2569

>  <SCORE.INTER.norm>
-0.702396

>  <SCORE.INTRA>
0.559391

>  <SCORE.INTRA.DIHEDRAL>
0.683958

>  <SCORE.INTRA.DIHEDRAL.0>
0.00893466

>  <SCORE.INTRA.POLAR>
0

>  <SCORE.INTRA.POLAR.0>
0

>  <SCORE.INTRA.REPUL>
0

>  <SCORE.INTRA.REPUL.0>
0

>  <SCORE.INTRA.SOLV>
0.494635

>  <SCORE.INTRA.SOLV.lig_0>
-48.9722

>  <SCORE.INTRA.VDW>
-0.0299054

>  <SCORE.INTRA.VDW.0>
-0.529409

>  <SCORE.INTRA.norm>
0.0349619

>  <SCORE.RESTR>
0

>  <SCORE.RESTR.CAVITY>
0

>  <SCORE.RESTR.norm>
0

>  <SCORE.SYSTEM>
0

>  <SCORE.SYSTEM.CONST>
0

>  <SCORE.SYSTEM.DIHEDRAL>
0

>  <SCORE.SYSTEM.SOLV>
0

>  <SCORE.SYSTEM.norm>
0

>  <SCORE.heavy>
16

>  <SCORE.norm>
-0.667434

>  <RMSD>
2.462

$$$$
ligand
 OpenBabel11021811433D
libRbt.so/2013.1/901 2013/11/27
 16 16  0  0  0  0  0  0  0  0999 V2000
   47.6969   10.9585    9.2873 P   0  0  2  0  0  0  0  0  0  0  0  0
   48.3993   12.2524    9.1006 O   0  0  0  0  0  0  0  0  0  0  0  0
   48.7827    9.7782    9.4207 O   0  5  0  0  0  0  0  0  0  0  0  0
   46.7656   10.6832    8.0027 O   0  0  0  0  0  0  0  0  0  0  0  0
   44.9044   12.0861   14.1974 C   0  0  2  0  0  0  0  0  0  0  0  0
   43.9817   10.9822   14.1692 O   0  0  0  0  0  0  0  0  0  0  0  0
   44.1460   13.4364   14.2645 C   0  0  2  0  0  0  0  0  0  0  0  0
   43.2784   13.4643   15.4479 O   0  0  0  0  0  0  0  0  0  0  0  0
   43.2876   13.5783   12.9935 C   0  0  1  0  0  0  0  0  0  0  0  0
   42.5784   14.8227   13.0242 O   0  0  0  0  0  0  0  0  0  0  0  0
   44.2237   13.5442   11.7753 C   0  0  2  0  0  0  0  0  0  0  0  0
   43.4411   13.6641   10.5679 O   0  0  0  0  0  0  0  0  0  0  0  0
   44.9875   12.1912   11.7794 C   0  0  2  0  0  0  0  0  0  0  0  0
   45.7640   12.0606   13.0095 O   0  0  0  0  0  0  0  0  0  0  0  0
   45.9525   12.1629   10.5802 C   0  0  0  0  0  0  0  0  0  0  0  0
   46.7931   11.0039   10.6359 O   0  0  0  0  0  0  0  0  0  0  0  0
  1  2  1  6  0  0  0
  1  3  1  0  0  0  0
  1  4  2  0  0  0  0
  1 16  1  0  0  0  0
  5  6  1  6  0  0  0
  5  7  1  0  0  0  0
  5 14  1  0  0  0  0
  7  8  1  1  0  0  0
  7  9  1  0  0  0  0
  9 10  1  1  0  0  0
  9 11  1  0  0  0  0
 11 12  1  6  0  0  0
 11 13  1  0  0  0  0
 13 14  1  0  0  0  0
 13 15  1  6  0  0  0
 15 16  1  0  0  0  0
M  CHG  1   3  -1
M  END
>  <CHROM.1>
173.01030094,175.18988207,52.57996790,45.50578196,12.17463884,11.55664734
-0.56825519,-0.73273611,1.89816200

>  <Name>
ligand

>  <RI>
0

>  <Rbt.Current_Directory>
/home/itssahil/PROJECTS/Mol_Feturizer/New_Systems/rnas/2HO7

>  <Rbt.Executable>
rbdock ($Id: //depot/dev/client3/rdock/2013.1/src/exe/rbdock.cxx#4 $)

>  <Rbt.Library>
libRbt.so (2013.1, Build901 2013/11/27)

>  <Rbt.Parameter_File>
/export/apps/rDock/src/rDock_2013.1_src/data/scripts/dock_solv.prm

>  <Rbt.Receptor>
prm/pocket_docking_8.prm

>  <SCORE>
-9.65323

>  <SCORE.INTER>
-9.91955

>  <SCORE.INTER.CONST>
1

>  <SCORE.INTER.POLAR>
-1.29904

>  <SCORE.INTER.ROT>
3

>  <SCORE.INTER.SOLV>
15.9066

>  <SCORE.INTER.VDW>
-13.1851

>  <SCORE.INTER.norm>
-0.619972

>  <SCORE.INTRA>
0.266322

>  <SCORE.INTRA.DIHEDRAL>
0.370278

>  <SCORE.INTRA.DIHEDRAL.0>
0.00893466

>  <SCORE.INTRA.POLAR>
0

>  <SCORE.INTRA.POLAR.0>
0

>  <SCORE.INTRA.REPUL>
0

>  <SCORE.INTRA.REPUL.0>
0

>  <SCORE.INTRA.SOLV>
-0.0536098

>  <SCORE.INTRA.SOLV.lig_0>
-48.9722

>  <SCORE.INTRA.VDW>
0.107988

>  <SCORE.INTRA.VDW.0>
-0.529409

>  <SCORE.INTRA.norm>
0.0166451

>  <SCORE.RESTR>
0

>  <SCORE.RESTR.CAVITY>
0

>  <SCORE.RESTR.norm>
0

>  <SCORE.SYSTEM>
0

>  <SCORE.SYSTEM.CONST>
0

>  <SCORE.SYSTEM.DIHEDRAL>
0

>  <SCORE.SYSTEM.SOLV>
0

>  <SCORE.SYSTEM.norm>
0

>  <SCORE.heavy>
16

>  <SCORE.norm>
-0.603327

>  <RMSD>
2.483

$$$$
ligand
 OpenBabel11021811433D
libRbt.so/2013.1/901 2013/11/27
 16 16  0  0  0  0  0  0  0  0999 V2000
   47.4341   11.3964    9.9224 P   0  0  2  0  0  0  0  0  0  0  0  0
   46.1042   10.7879   10.1744 O   0  0  0  0  0  0  0  0  0  0  0  0
   47.4309   12.1020    8.4762 O   0  5  0  0  0  0  0  0  0  0  0  0
   48.5494   10.2349    9.9461 O   0  0  0  0  0  0  0  0  0  0  0  0
   44.4237   11.2453   14.3605 C   0  0  2  0  0  0  0  0  0  0  0  0
   43.6653   10.4836   13.4036 O   0  0  0  0  0  0  0  0  0  0  0  0
   43.8769   12.6917   14.4710 C   0  0  2  0  0  0  0  0  0  0  0  0
   42.4589   12.6626   14.8484 O   0  0  0  0  0  0  0  0  0  0  0  0
   44.0311   13.3782   13.1009 C   0  0  1  0  0  0  0  0  0  0  0  0
   43.5390   14.7217   13.1741 O   0  0  0  0  0  0  0  0  0  0  0  0
   45.5235   13.3912   12.7352 C   0  0  2  0  0  0  0  0  0  0  0  0
   45.6943   14.0205   11.4470 O   0  0  0  0  0  0  0  0  0  0  0  0
   46.0291   11.9231   12.6788 C   0  0  2  0  0  0  0  0  0  0  0  0
   45.8385   11.2798   13.9762 O   0  0  0  0  0  0  0  0  0  0  0  0
   47.5321   11.9287   12.3457 C   0  0  0  0  0  0  0  0  0  0  0  0
   47.7614   12.5114   11.0570 O   0  0  0  0  0  0  0  0  0  0  0  0
  1  2  1  1  0  0  0
  1  3  1  0  0  0  0
  1  4  2  0  0  0  0
  1 16  1  0  0  0  0
  5  6  1  6  0  0  0
  5  7  1  0  0  0  0
  5 14  1  0  0  0  0
  7  8  1  6  0  0  0
  7  9  1  0  0  0  0
  9 10  1  1  0  0  0
  9 11  1  0  0  0  0
 11 12  1  6  0  0  0
 11 13  1  0  0  0  0
 13 14  1  0  0  0  0
 13 15  1  1  0  0  0
 15 16  1  0  0  0  0
M  CHG  1   3  -1
M  END
>  <CHROM.1>
-62.21019098,-79.63557180,50.07435246,45.75977373,12.10786683,12.04795739
-0.10687829,-0.82962089,2.70392774

>  <Name>
ligand

>  <RI>
0

>  <Rbt.Current_Directory>
/home/itssahil/PROJECTS/Mol_Feturizer/New_Systems/rnas/2HO7

>  <Rbt.Executable>
rbdock ($Id: //depot/dev/client3/rdock/2013.1/src/exe/rbdock.cxx#4 $)

>  <Rbt.Library>
libRbt.so (2013.1, Build901 2013/11/27)

>  <Rbt.Parameter_File>
/export/apps/rDock/src/rDock_2013.1_src/data/scripts/dock_solv.prm

>  <Rbt.Receptor>
prm/pocket_docking_5.prm

>  <SCORE>
-9.56148

>  <SCORE.INTER>
-11.8152

>  <SCORE.INTER.CONST>
1

>  <SCORE.INTER.POLAR>
-1.29904

>  <SCORE.INTER.ROT>
3

>  <SCORE.INTER.SOLV>
15.8824

>  <SCORE.INTER.VDW>
-14.4408

>  <SCORE.INTER.norm>
-0.738448

>  <SCORE.INTRA>
2.25369

>  <SCORE.INTRA.DIHEDRAL>
1.90921

>  <SCORE.INTRA.DIHEDRAL.0>
0.00893466

>  <SCORE.INTRA.POLAR>
0

>  <SCORE.INTRA.POLAR.0>
0

>  <SCORE.INTRA.REPUL>
0

>  <SCORE.INTRA.REPUL.0>
0

>  <SCORE.INTRA.SOLV>
1.79183

>  <SCORE.INTRA.SOLV.lig_0>
-48.9722

>  <SCORE.INTRA.VDW>
0.403166

>  <SCORE.INTRA.VDW.0>
-0.529409

>  <SCORE.INTRA.norm>
0.140855

>  <SCORE.RESTR>
0

>  <SCORE.RESTR.CAVITY>
0

>  <SCORE.RESTR.norm>
0

>  <SCORE.SYSTEM>
0

>  <SCORE.SYSTEM.CONST>
0

>  <SCORE.SYSTEM.DIHEDRAL>
0

>  <SCORE.SYSTEM.SOLV>
0

>  <SCORE.SYSTEM.norm>
0

>  <SCORE.heavy>
16

>  <SCORE.norm>
-0.597592

>  <RMSD>
2.495

$$$$
ligand
 OpenBabel11021811433D
libRbt.so/2013.1/901 2013/11/27
 16 16  0  0  0  0  0  0  0  0999 V2000
   47.7163   11.1422    9.2619 P   0  0  2  0  0  0  0  0  0  0  0  0
   48.5440   10.0857    9.8951 O   0  0  0  0  0  0  0  0  0  0  0  0
   47.3123   10.6812    7.7740 O   0  5  0  0  0  0  0  0  0  0  0  0
   48.5787   12.5000    9.1833 O   0  0  0  0  0  0  0  0  0  0  0  0
   44.7596   11.9971   14.6597 C   0  0  2  0  0  0  0  0  0  0  0  0
   43.8148   10.9305   14.4585 O   0  0  0  0  0  0  0  0  0  0  0  0
   44.0916   13.3762   14.4256 C   0  0  2  0  0  0  0  0  0  0  0  0
   42.9424   13.5342   15.3247 O   0  0  0  0  0  0  0  0  0  0  0  0
   43.6143   13.4458   12.9628 C   0  0  1  0  0  0  0  0  0  0  0  0
   42.9971   14.7146   12.7144 O   0  0  0  0  0  0  0  0  0  0  0  0
   44.8383   13.2761   12.0495 C   0  0  2  0  0  0  0  0  0  0  0  0
   44.4155   13.3262   10.6698 O   0  0  0  0  0  0  0  0  0  0  0  0
   45.4923   11.8999   12.3536 C   0  0  2  0  0  0  0  0  0  0  0  0
   45.9024   11.8413   13.7541 O   0  0  0  0  0  0  0  0  0  0  0  0
   46.7394   11.7365   11.4658 C   0  0  0  0  0  0  0  0  0  0  0  0
   46.3644   11.3858   10.1281 O   0  0  0  0  0  0  0  0  0  0  0  0
  1  2  1  1  0  0  0
  1  3  1  0  0  0  0
  1  4  2  0  0  0  0
  1 16  1  0  0  0  0
  5  6  1  6  0  0  0
  5  7  1  0  0  0  0
  5 14  1  0  0  0  0
  7  8  1  1  0  0  0
  7  9  1  0  0  0  0
  9 10  1  1  0  0  0
  9 11  1  0  0  0  0
 11 12  1  6  0  0  0
 11 13  1  0  0  0  0
 13 14  1  0  0  0  0
 13 15  1  6  0  0  0
 15 16  1  0  0  0  0
M  CHG  1   3  -1
M  END
>  <CHROM.1>
-77.64224604,-176.73878020,57.47630079,45.68394973,12.14852254,11.70922969
-0.55552609,-0.77293389,2.04192548

>  <Name>
ligand

>  <RI>
0

>  <Rbt.Current_Directory>
/home/itssahil/PROJECTS/Mol_Feturizer/New_Systems/rnas/2HO7

>  <Rbt.Executable>
rbdock ($Id: //depot/dev/client3/rdock/2013.1/src/exe/rbdock.cxx#4 $)

>  <Rbt.Library>
libRbt.so (2013.1, Build901 2013/11/27)

>  <Rbt.Parameter_File>
/export/apps/rDock/src/rDock_2013.1_src/data/scripts/dock_solv.prm

>  <Rbt.Receptor>
prm/pocket_docking_7.prm

>  <SCORE>
-9.18706

>  <SCORE.INTER>
-9.7866

>  <SCORE.INTER.CONST>
1

>  <SCORE.INTER.POLAR>
-1.03923

>  <SCORE.INTER.ROT>
3

>  <SCORE.INTER.SOLV>
14.8517

>  <SCORE.INTER.VDW>
-13.6109

>  <SCORE.INTER.norm>
-0.611662

>  <SCORE.INTRA>
0.599537

>  <SCORE.INTRA.DIHEDRAL>
1.10397

>  <SCORE.INTRA.DIHEDRAL.0>
0.00893466

>  <SCORE.INTRA.POLAR>
0

>  <SCORE.INTRA.POLAR.0>
0

>  <SCORE.INTRA.REPUL>
0

>  <SCORE.INTRA.REPUL.0>
0

>  <SCORE.INTRA.SOLV>
0.270796

>  <SCORE.INTRA.SOLV.lig_0>
-48.9722

>  <SCORE.INTRA.VDW>
-0.0878447

>  <SCORE.INTRA.VDW.0>
-0.529409

>  <SCORE.INTRA.norm>
0.0374711

>  <SCORE.RESTR>
0

>  <SCORE.RESTR.CAVITY>
0

>  <SCORE.RESTR.norm>
0

>  <SCORE.SYSTEM>
0

>  <SCORE.SYSTEM.CONST>
0

>  <SCORE.SYSTEM.DIHEDRAL>
0

>  <SCORE.SYSTEM.SOLV>
0

>  <SCORE.SYSTEM.norm>
0

>  <SCORE.heavy>
16

>  <SCORE.norm>
-0.574191

>  <RMSD>
2.499

$$$$
ligand
 OpenBabel11021811433D
libRbt.so/2013.1/901 2013/11/27
 16 16  0  0  0  0  0  0  0  0999 V2000
   49.2312   12.8817   11.4918 P   0  0  2  0  0  0  0  0  0  0  0  0
   50.0986   12.5679   12.6542 O   0  0  0  0  0  0  0  0  0  0  0  0
   49.2043   11.6207   10.4923 O   0  5  0  0  0  0  0  0  0  0  0  0
   49.8374   14.1594   10.7215 O   0  0  0  0  0  0  0  0  0  0  0  0
   43.5861   13.2877   12.3618 C   0  0  2  0  0  0  0  0  0  0  0  0
   43.5786   14.0228   13.5988 O   0  0  0  0  0  0  0  0  0  0  0  0
   42.8168   11.9502   12.5110 C   0  0  2  0  0  0  0  0  0  0  0  0
   41.4386   12.2115   12.9427 O   0  0  0  0  0  0  0  0  0  0  0  0
   43.5333   11.0901   13.5690 C   0  0  1  0  0  0  0  0  0  0  0  0
   42.8472    9.8420   13.7243 O   0  0  0  0  0  0  0  0  0  0  0  0
   44.9706   10.8361   13.0886 C   0  0  2  0  0  0  0  0  0  0  0  0
   45.6688   10.0399   14.0702 O   0  0  0  0  0  0  0  0  0  0  0  0
   45.6812   12.2070   12.9159 C   0  0  2  0  0  0  0  0  0  0  0  0
   44.9642   13.0206   11.9376 O   0  0  0  0  0  0  0  0  0  0  0  0
   47.1119   11.9628   12.4026 C   0  0  0  0  0  0  0  0  0  0  0  0
   47.7184   13.1947   11.9930 O   0  0  0  0  0  0  0  0  0  0  0  0
  1  2  1  1  0  0  0
  1  3  1  0  0  0  0
  1  4  2  0  0  0  0
  1 16  1  0  0  0  0
  5  6  1  1  0  0  0
  5  7  1  0  0  0  0
  5 14  1  0  0  0  0
  7  8  1  1  0  0  0
  7  9  1  0  0  0  0
  9 10  1  6  0  0  0
  9 11  1  0  0  0  0
 11 12  1  1  0  0  0
 11 13  1  0  0  0  0
 13 14  1  0  0  0  0
 13 15  1  6  0  0  0
 15 16  1  0  0  0  0
M  CHG  1   3  -1
M  END
>  <CHROM.1>
169.23885572,178.83813583,-72.55322225,46.05840202,12.24192701,12.44842428
0.26178755,0.19035869,-0.36696840

>  <Name>
ligand

>  <RI>
0

>  <Rbt.Current_Directory>
/home/itssahil/PROJECTS/Mol_Feturizer/New_Systems/rnas/2HO7

>  <Rbt.Executable>
rbdock ($Id: //depot/dev/client3/rdock/2013.1/src/exe/rbdock.cxx#4 $)

>  <Rbt.Library>
libRbt.so (2013.1, Build901 2013/11/27)

>  <Rbt.Parameter_File>
/export/apps/rDock/src/rDock_2013.1_src/data/scripts/dock_solv.prm

>  <Rbt.Receptor>
prm/pocket_docking_4.prm

>  <SCORE>
-8.36915

>  <SCORE.INTER>
-8.93889

>  <SCORE.INTER.CONST>
1

>  <SCORE.INTER.POLAR>
-1.29904

>  <SCORE.INTER.ROT>
3

>  <SCORE.INTER.SOLV>
14.8265

>  <SCORE.INTER.VDW>
-12.1713

>  <SCORE.INTER.norm>
-0.558681

>  <SCORE.INTRA>
0.569734

>  <SCORE.INTRA.DIHEDRAL>
0.657878

>  <SCORE.INTRA.DIHEDRAL.0>
0.00893466

>  <SCORE.INTRA.POLAR>
0

>  <SCORE.INTRA.POLAR.0>
0

>  <SCORE.INTRA.REPUL>
0

>  <SCORE.INTRA.REPUL.0>
0

>  <SCORE.INTRA.SOLV>
0.161917

>  <SCORE.INTRA.SOLV.lig_0>
-48.9722

>  <SCORE.INTRA.VDW>
0.159836

>  <SCORE.INTRA.VDW.0>
-0.529409

>  <SCORE.INTRA.norm>
0.0356084

>  <SCORE.RESTR>
0

>  <SCORE.RESTR.CAVITY>
0

>  <SCORE.RESTR.norm>
0

>  <SCORE.SYSTEM>
0

>  <SCORE.SYSTEM.CONST>
0

>  <SCORE.SYSTEM.DIHEDRAL>
0

>  <SCORE.SYSTEM.SOLV>
0

>  <SCORE.SYSTEM.norm>
0

>  <SCORE.heavy>
16

>  <SCORE.norm>
-0.523072

>  <RMSD>
2.522

$$$$
ligand
 OpenBabel11021811433D
libRbt.so/2013.1/901 2013/11/27
 16 16  0  0  0  0  0  0  0  0999 V2000
   47.6208   10.9403    9.2760 P   0  0  2  0  0  0  0  0  0  0  0  0
   48.2584   12.2567    9.0256 O   0  0  0  0  0  0  0  0  0  0  0  0
   48.7632    9.8201    9.4486 O   0  5  0  0  0  0  0  0  0  0  0  0
   46.6924   10.5647    8.0148 O   0  0  0  0  0  0  0  0  0  0  0  0
   44.8161   12.0114   14.1847 C   0  0  2  0  0  0  0  0  0  0  0  0
   43.8376   10.9596   14.1010 O   0  0  0  0  0  0  0  0  0  0  0  0
   44.1283   13.3959   14.2993 C   0  0  2  0  0  0  0  0  0  0  0  0
   43.2480   13.4212   15.4734 O   0  0  0  0  0  0  0  0  0  0  0  0
   43.2952   13.6343   13.0259 C   0  0  1  0  0  0  0  0  0  0  0  0
   42.6514   14.9120   13.1003 O   0  0  0  0  0  0  0  0  0  0  0  0
   44.2440   13.6006   11.8177 C   0  0  2  0  0  0  0  0  0  0  0  0
   43.4845   13.8105   10.6077 O   0  0  0  0  0  0  0  0  0  0  0  0
   44.9361   12.2102   11.7742 C   0  0  2  0  0  0  0  0  0  0  0  0
   45.6886   11.9890   13.0063 O   0  0  0  0  0  0  0  0  0  0  0  0
   45.9138   12.1799   10.5854 C   0  0  0  0  0  0  0  0  0  0  0  0
   46.7279   11.0017   10.6312 O   0  0  0  0  0  0  0  0  0  0  0  0
  1  2  1  6  0  0  0
  1  3  1  0  0  0  0
  1  4  2  0  0  0  0
  1 16  1  0  0  0  0
  5  6  1  6  0  0  0
  5  7  1  0  0  0  0
  5 14  1  0  0  0  0
  7  8  1  1  0  0  0
  7  9  1  0  0  0  0
  9 10  1  1  0  0  0
  9 11  1  0  0  0  0
 11 12  1  6  0  0  0
 11 13  1  0  0  0  0
 13 14  1  0  0  0  0
 13 15  1  6  0  0  0
 15 16  1  0  0  0  0
M  CHG  1   3  -1
M  END
>  <CHROM.1>
170.78390563,173.89869220,47.69353244,45.46052630,12.17568708,11.56215228
-0.52608426,-0.77440718,1.96551675

>  <Name>
ligand

>  <RI>
0

>  <Rbt.Current_Directory>
/home/itssahil/PROJECTS/Mol_Feturizer/New_Systems/rnas/2HO7

>  <Rbt.Executable>
rbdock ($Id: //depot/dev/client3/rdock/2013.1/src/exe/rbdock.cxx#4 $)

>  <Rbt.Library>
libRbt.so (2013.1, Build901 2013/11/27)

>  <Rbt.Parameter_File>
/export/apps/rDock/src/rDock_2013.1_src/data/scripts/dock_solv.prm

>  <Rbt.Receptor>
prm/pocket_docking_8.prm

>  <SCORE>
-9.66326

>  <SCORE.INTER>
-10.1927

>  <SCORE.INTER.CONST>
1

>  <SCORE.INTER.POLAR>
-1.29904

>  <SCORE.INTER.ROT>
3

>  <SCORE.INTER.SOLV>
15.8276

>  <SCORE.INTER.VDW>
-13.3409

>  <SCORE.INTER.norm>
-0.637043

>  <SCORE.INTRA>
0.529424

>  <SCORE.INTRA.DIHEDRAL>
0.717203

>  <SCORE.INTRA.DIHEDRAL.0>
0.00893466

>  <SCORE.INTRA.POLAR>
0

>  <SCORE.INTRA.POLAR.0>
0

>  <SCORE.INTRA.REPUL>
0

>  <SCORE.INTRA.REPUL.0>
0

>  <SCORE.INTRA.SOLV>
-0.0896187

>  <SCORE.INTRA.SOLV.lig_0>
-48.9722

>  <SCORE.INTRA.VDW>
0.215632

>  <SCORE.INTRA.VDW.0>
-0.529409

>  <SCORE.INTRA.norm>
0.033089

>  <SCORE.RESTR>
0

>  <SCORE.RESTR.CAVITY>
0

>  <SCORE.RESTR.norm>
0

>  <SCORE.SYSTEM>
0

>  <SCORE.SYSTEM.CONST>
0

>  <SCORE.SYSTEM.DIHEDRAL>
0

>  <SCORE.SYSTEM.SOLV>
0

>  <SCORE.SYSTEM.norm>
0

>  <SCORE.heavy>
16

>  <SCORE.norm>
-0.603954

>  <RMSD>
2.523

$$$$
ligand
 OpenBabel11021811433D
libRbt.so/2013.1/901 2013/11/27
 16 16  0  0  0  0  0  0  0  0999 V2000
   47.9295   11.4536    9.1354 P   0  0  2  0  0  0  0  0  0  0  0  0
   47.0602   11.1906    7.9618 O   0  0  0  0  0  0  0  0  0  0  0  0
   48.9384   12.6590    8.7906 O   0  5  0  0  0  0  0  0  0  0  0  0
   48.7787   10.1245    9.4608 O   0  0  0  0  0  0  0  0  0  0  0  0
   45.1336   11.4474   14.1754 C   0  0  2  0  0  0  0  0  0  0  0  0
   44.0493   10.5135   14.3264 O   0  0  0  0  0  0  0  0  0  0  0  0
   44.6024   12.9022   14.1091 C   0  0  2  0  0  0  0  0  0  0  0  0
   43.8287   13.2076   15.3183 O   0  0  0  0  0  0  0  0  0  0  0  0
   43.6962   13.0355   12.8708 C   0  0  1  0  0  0  0  0  0  0  0  0
   43.1946   14.3743   12.7793 O   0  0  0  0  0  0  0  0  0  0  0  0
   44.5343   12.7088   11.6248 C   0  0  2  0  0  0  0  0  0  0  0  0
   43.7034   12.8155   10.4488 O   0  0  0  0  0  0  0  0  0  0  0  0
   45.0749   11.2587   11.7618 C   0  0  2  0  0  0  0  0  0  0  0  0
   45.8995   11.1451   12.9619 O   0  0  0  0  0  0  0  0  0  0  0  0
   45.9435   10.9351   10.5326 C   0  0  0  0  0  0  0  0  0  0  0  0
   47.0243   11.8689   10.4183 O   0  0  0  0  0  0  0  0  0  0  0  0
  1  2  1  6  0  0  0
  1  3  1  0  0  0  0
  1  4  2  0  0  0  0
  1 16  1  0  0  0  0
  5  6  1  6  0  0  0
  5  7  1  0  0  0  0
  5 14  1  0  0  0  0
  7  8  1  1  0  0  0
  7  9  1  0  0  0  0
  9 10  1  6  0  0  0
  9 11  1  0  0  0  0
 11 12  1  6  0  0  0
 11 13  1  0  0  0  0
 13 14  1  0  0  0  0
 13 15  1  6  0  0  0
 15 16  1  0  0  0  0
M  CHG  1   3  -1
M  END
>  <CHROM.1>
58.24504686,178.30947348,47.38668624,45.77964569,11.93754220,11.45405752
-0.61583351,-0.69738071,2.05875860

>  <Name>
ligand

>  <RI>
0

>  <Rbt.Current_Directory>
/home/itssahil/PROJECTS/Mol_Feturizer/New_Systems/rnas/2HO7

>  <Rbt.Executable>
rbdock ($Id: //depot/dev/client3/rdock/2013.1/src/exe/rbdock.cxx#4 $)

>  <Rbt.Library>
libRbt.so (2013.1, Build901 2013/11/27)

>  <Rbt.Parameter_File>
/export/apps/rDock/src/rDock_2013.1_src/data/scripts/dock_solv.prm

>  <Rbt.Receptor>
prm/pocket_docking_6.prm

>  <SCORE>
-10.4549

>  <SCORE.INTER>
-10.7576

>  <SCORE.INTER.CONST>
1

>  <SCORE.INTER.POLAR>
-1.29904

>  <SCORE.INTER.ROT>
3

>  <SCORE.INTER.SOLV>
14.5993

>  <SCORE.INTER.VDW>
-13.308

>  <SCORE.INTER.norm>
-0.672349

>  <SCORE.INTRA>
0.302713

>  <SCORE.INTRA.DIHEDRAL>
0.269997

>  <SCORE.INTRA.DIHEDRAL.0>
0.00893466

>  <SCORE.INTRA.POLAR>
0

>  <SCORE.INTRA.POLAR.0>
0

>  <SCORE.INTRA.REPUL>
0

>  <SCORE.INTRA.REPUL.0>
0

>  <SCORE.INTRA.SOLV>
0.122756

>  <SCORE.INTRA.SOLV.lig_0>
-48.9722

>  <SCORE.INTRA.VDW>
0.106336

>  <SCORE.INTRA.VDW.0>
-0.529409

>  <SCORE.INTRA.norm>
0.0189195

>  <SCORE.RESTR>
0

>  <SCORE.RESTR.CAVITY>
0

>  <SCORE.RESTR.norm>
0

>  <SCORE.SYSTEM>
0

>  <SCORE.SYSTEM.CONST>
0

>  <SCORE.SYSTEM.DIHEDRAL>
0

>  <SCORE.SYSTEM.SOLV>
0

>  <SCORE.SYSTEM.norm>
0

>  <SCORE.heavy>
16

>  <SCORE.norm>
-0.653429

>  <RMSD>
2.533

$$$$
ligand
 OpenBabel11021811433D
libRbt.so/2013.1/901 2013/11/27
 16 16  0  0  0  0  0  0  0  0999 V2000
   49.1523   12.9643   11.1472 P   0  0  2  0  0  0  0  0  0  0  0  0
   49.8590   11.8109   11.7575 O   0  0  0  0  0  0  0  0  0  0  0  0
   48.8030   12.6234    9.6137 O   0  5  0  0  0  0  0  0  0  0  0  0
   50.1180   14.2520   11.2001 O   0  0  0  0  0  0  0  0  0  0  0  0
   43.5341   13.3950   12.3947 C   0  0  2  0  0  0  0  0  0  0  0  0
   43.6613   14.1122   13.6357 O   0  0  0  0  0  0  0  0  0  0  0  0
   42.7718   12.0616   12.6045 C   0  0  2  0  0  0  0  0  0  0  0  0
   41.4480   12.3277   13.1798 O   0  0  0  0  0  0  0  0  0  0  0  0
   43.5855   11.1806   13.5710 C   0  0  1  0  0  0  0  0  0  0  0  0
   42.9074    9.9359   13.7794 O   0  0  0  0  0  0  0  0  0  0  0  0
   44.9631   10.9221   12.9412 C   0  0  2  0  0  0  0  0  0  0  0  0
   45.7513   10.1062   13.8344 O   0  0  0  0  0  0  0  0  0  0  0  0
   45.6649   12.2896   12.7146 C   0  0  2  0  0  0  0  0  0  0  0  0
   44.8584   13.1230   11.8267 O   0  0  0  0  0  0  0  0  0  0  0  0
   47.0326   12.0415   12.0528 C   0  0  0  0  0  0  0  0  0  0  0  0
   47.7739   13.2635   11.9522 O   0  0  0  0  0  0  0  0  0  0  0  0
  1  2  1  1  0  0  0
  1  3  1  0  0  0  0
  1  4  2  0  0  0  0
  1 16  1  0  0  0  0
  5  6  1  1  0  0  0
  5  7  1  0  0  0  0
  5 14  1  0  0  0  0
  7  8  1  1  0  0  0
  7  9  1  0  0  0  0
  9 10  1  6  0  0  0
  9 11  1  0  0  0  0
 11 12  1  1  0  0  0
 11 13  1  0  0  0  0
 13 14  1  0  0  0  0
 13 15  1  6  0  0  0
 15 16  1  0  0  0  0
M  CHG  1   3  -1
M  END
>  <CHROM.1>
-173.98649778,-175.69330541,-51.52765813,46.02984201,12.33592889,12.29051023
0.27621346,0.25673224,-0.34699827

>  <Name>
ligand

>  <RI>
0

>  <Rbt.Current_Directory>
/home/itssahil/PROJECTS/Mol_Feturizer/New_Systems/rnas/2HO7

>  <Rbt.Executable>
rbdock ($Id: //depot/dev/client3/rdock/2013.1/src/exe/rbdock.cxx#4 $)

>  <Rbt.Library>
libRbt.so (2013.1, Build901 2013/11/27)

>  <Rbt.Parameter_File>
/export/apps/rDock/src/rDock_2013.1_src/data/scripts/dock_solv.prm

>  <Rbt.Receptor>
prm/pocket_docking_5.prm

>  <SCORE>
-7.40301

>  <SCORE.INTER>
-7.62437

>  <SCORE.INTER.CONST>
1

>  <SCORE.INTER.POLAR>
-1.03856

>  <SCORE.INTER.ROT>
3

>  <SCORE.INTER.SOLV>
13.3105

>  <SCORE.INTER.VDW>
-11.6579

>  <SCORE.INTER.norm>
-0.476523

>  <SCORE.INTRA>
0.221367

>  <SCORE.INTRA.DIHEDRAL>
0.327056

>  <SCORE.INTRA.DIHEDRAL.0>
0.00893466

>  <SCORE.INTRA.POLAR>
0

>  <SCORE.INTRA.POLAR.0>
0

>  <SCORE.INTRA.REPUL>
0

>  <SCORE.INTRA.REPUL.0>
0

>  <SCORE.INTRA.SOLV>
-0.0533043

>  <SCORE.INTRA.SOLV.lig_0>
-48.9722

>  <SCORE.INTRA.VDW>
0.0844911

>  <SCORE.INTRA.VDW.0>
-0.529409

>  <SCORE.INTRA.norm>
0.0138354

>  <SCORE.RESTR>
0

>  <SCORE.RESTR.CAVITY>
0

>  <SCORE.RESTR.norm>
0

>  <SCORE.SYSTEM>
0

>  <SCORE.SYSTEM.CONST>
0

>  <SCORE.SYSTEM.DIHEDRAL>
0

>  <SCORE.SYSTEM.SOLV>
0

>  <SCORE.SYSTEM.norm>
0

>  <SCORE.heavy>
16

>  <SCORE.norm>
-0.462688

>  <RMSD>
2.537

$$$$
ligand
 OpenBabel11021811433D
libRbt.so/2013.1/901 2013/11/27
 16 16  0  0  0  0  0  0  0  0999 V2000
   49.5283   13.3118   11.1520 P   0  0  2  0  0  0  0  0  0  0  0  0
   50.1824   13.2053   12.4798 O   0  0  0  0  0  0  0  0  0  0  0  0
   49.6294   11.8958   10.3941 O   0  5  0  0  0  0  0  0  0  0  0  0
   50.2910   14.4352   10.2861 O   0  0  0  0  0  0  0  0  0  0  0  0
   43.7203   13.3140   11.1488 C   0  0  2  0  0  0  0  0  0  0  0  0
   43.5501   14.6316   11.7017 O   0  0  0  0  0  0  0  0  0  0  0  0
   43.0386   12.2483   12.0447 C   0  0  2  0  0  0  0  0  0  0  0  0
   41.6123   12.5598   12.1950 O   0  0  0  0  0  0  0  0  0  0  0  0
   43.7178   12.2654   13.4270 C   0  0  1  0  0  0  0  0  0  0  0  0
   43.1117   11.2839   14.2767 O   0  0  0  0  0  0  0  0  0  0  0  0
   45.2067   11.9375   13.2349 C   0  0  2  0  0  0  0  0  0  0  0  0
   45.8698   11.9584   14.5173 O   0  0  0  0  0  0  0  0  0  0  0  0
   45.8298   13.0095   12.2987 C   0  0  2  0  0  0  0  0  0  0  0  0
   45.1463   13.0023   11.0079 O   0  0  0  0  0  0  0  0  0  0  0  0
   47.3143   12.6693   12.0741 C   0  0  0  0  0  0  0  0  0  0  0  0
   47.9635   13.7081   11.3310 O   0  0  0  0  0  0  0  0  0  0  0  0
  1  2  1  1  0  0  0
  1  3  1  0  0  0  0
  1  4  2  0  0  0  0
  1 16  1  0  0  0  0
  5  6  1  1  0  0  0
  5  7  1  0  0  0  0
  5 14  1  0  0  0  0
  7  8  1  1  0  0  0
  7  9  1  0  0  0  0
  9 10  1  1  0  0  0
  9 11  1  0  0  0  0
 11 12  1  1  0  0  0
 11 13  1  0  0  0  0
 13 14  1  0  0  0  0
 13 15  1  6  0  0  0
 15 16  1  0  0  0  0
M  CHG  1   3  -1
M  END
>  <CHROM.1>
-173.92334742,178.81763420,-61.48880315,46.27917190,12.88561952,12.02302880
0.27010495,0.03188723,-0.98385170

>  <Name>
ligand

>  <RI>
0

>  <Rbt.Current_Directory>
/home/itssahil/PROJECTS/Mol_Feturizer/New_Systems/rnas/2HO7

>  <Rbt.Executable>
rbdock ($Id: //depot/dev/client3/rdock/2013.1/src/exe/rbdock.cxx#4 $)

>  <Rbt.Library>
libRbt.so (2013.1, Build901 2013/11/27)

>  <Rbt.Parameter_File>
/export/apps/rDock/src/rDock_2013.1_src/data/scripts/dock_solv.prm

>  <Rbt.Receptor>
prm/pocket_docking_4.prm

>  <SCORE>
-7.79078

>  <SCORE.INTER>
-7.87646

>  <SCORE.INTER.CONST>
1

>  <SCORE.INTER.POLAR>
-1.29806

>  <SCORE.INTER.ROT>
3

>  <SCORE.INTER.SOLV>
10.8262

>  <SCORE.INTER.VDW>
-10.1328

>  <SCORE.INTER.norm>
-0.492279

>  <SCORE.INTRA>
0.0856775

>  <SCORE.INTRA.DIHEDRAL>
0.133907

>  <SCORE.INTRA.DIHEDRAL.0>
0.00893466

>  <SCORE.INTRA.POLAR>
0

>  <SCORE.INTRA.POLAR.0>
0

>  <SCORE.INTRA.REPUL>
0

>  <SCORE.INTRA.REPUL.0>
0

>  <SCORE.INTRA.SOLV>
-0.00355599

>  <SCORE.INTRA.SOLV.lig_0>
-48.9722

>  <SCORE.INTRA.VDW>
0.0205022

>  <SCORE.INTRA.VDW.0>
-0.529409

>  <SCORE.INTRA.norm>
0.00535485

>  <SCORE.RESTR>
0

>  <SCORE.RESTR.CAVITY>
0

>  <SCORE.RESTR.norm>
0

>  <SCORE.SYSTEM>
0

>  <SCORE.SYSTEM.CONST>
0

>  <SCORE.SYSTEM.DIHEDRAL>
0

>  <SCORE.SYSTEM.SOLV>
0

>  <SCORE.SYSTEM.norm>
0

>  <SCORE.heavy>
16

>  <SCORE.norm>
-0.486924

>  <RMSD>
2.545

$$$$
ligand
 OpenBabel11021811433D
libRbt.so/2013.1/901 2013/11/27
 16 16  0  0  0  0  0  0  0  0999 V2000
   49.5416   13.2978   11.1580 P   0  0  2  0  0  0  0  0  0  0  0  0
   50.1711   13.1556   12.4943 O   0  0  0  0  0  0  0  0  0  0  0  0
   49.6539   11.9016   10.3657 O   0  5  0  0  0  0  0  0  0  0  0  0
   50.3221   14.4415   10.3355 O   0  0  0  0  0  0  0  0  0  0  0  0
   43.7453   13.3125   11.1208 C   0  0  2  0  0  0  0  0  0  0  0  0
   43.5653   14.6318   11.6664 O   0  0  0  0  0  0  0  0  0  0  0  0
   43.0537   12.2489   12.0116 C   0  0  2  0  0  0  0  0  0  0  0  0
   41.6249   12.5583   12.1418 O   0  0  0  0  0  0  0  0  0  0  0  0
   43.7144   12.2724   13.4027 C   0  0  1  0  0  0  0  0  0  0  0  0
   43.0990   11.2930   14.2480 O   0  0  0  0  0  0  0  0  0  0  0  0
   45.2063   11.9466   13.2316 C   0  0  2  0  0  0  0  0  0  0  0  0
   45.8524   11.9736   14.5226 O   0  0  0  0  0  0  0  0  0  0  0  0
   45.8398   13.0163   12.2997 C   0  0  2  0  0  0  0  0  0  0  0  0
   45.1736   13.0029   11.0000 O   0  0  0  0  0  0  0  0  0  0  0  0
   47.3278   12.6780   12.0961 C   0  0  0  0  0  0  0  0  0  0  0  0
   47.9746   13.6930   11.3186 O   0  0  0  0  0  0  0  0  0  0  0  0
  1  2  1  1  0  0  0
  1  3  1  0  0  0  0
  1  4  2  0  0  0  0
  1 16  1  0  0  0  0
  5  6  1  1  0  0  0
  5  7  1  0  0  0  0
  5 14  1  0  0  0  0
  7  8  1  1  0  0  0
  7  9  1  0  0  0  0
  9 10  1  1  0  0  0
  9 11  1  0  0  0  0
 11 12  1  1  0  0  0
 11 13  1  0  0  0  0
 13 14  1  0  0  0  0
 13 15  1  6  0  0  0
 15 16  1  0  0  0  0
M  CHG  1   3  -1
M  END
>  <CHROM.1>
-175.89638349,179.04352508,-57.85851458,46.28898357,12.88368694,12.01437723
0.26457807,0.02890438,-0.99093512

>  <Name>
ligand

>  <RI>
0

>  <Rbt.Current_Directory>
/home/itssahil/PROJECTS/Mol_Feturizer/New_Systems/rnas/2HO7

>  <Rbt.Executable>
rbdock ($Id: //depot/dev/client3/rdock/2013.1/src/exe/rbdock.cxx#4 $)

>  <Rbt.Library>
libRbt.so (2013.1, Build901 2013/11/27)

>  <Rbt.Parameter_File>
/export/apps/rDock/src/rDock_2013.1_src/data/scripts/dock_solv.prm

>  <Rbt.Receptor>
prm/pocket_docking_5.prm

>  <SCORE>
-7.82537

>  <SCORE.INTER>
-7.87755

>  <SCORE.INTER.CONST>
1

>  <SCORE.INTER.POLAR>
-1.29904

>  <SCORE.INTER.ROT>
3

>  <SCORE.INTER.SOLV>
10.8084

>  <SCORE.INTER.VDW>
-10.1244

>  <SCORE.INTER.norm>
-0.492347

>  <SCORE.INTRA>
0.0521784

>  <SCORE.INTRA.DIHEDRAL>
0.0634427

>  <SCORE.INTRA.DIHEDRAL.0>
0.00893466

>  <SCORE.INTRA.POLAR>
0

>  <SCORE.INTRA.POLAR.0>
0

>  <SCORE.INTRA.REPUL>
0

>  <SCORE.INTRA.REPUL.0>
0

>  <SCORE.INTRA.SOLV>
-0.0322005

>  <SCORE.INTRA.SOLV.lig_0>
-48.9722

>  <SCORE.INTRA.VDW>
0.0365573

>  <SCORE.INTRA.VDW.0>
-0.529409

>  <SCORE.INTRA.norm>
0.00326115

>  <SCORE.RESTR>
0

>  <SCORE.RESTR.CAVITY>
0

>  <SCORE.RESTR.norm>
0

>  <SCORE.SYSTEM>
0

>  <SCORE.SYSTEM.CONST>
0

>  <SCORE.SYSTEM.DIHEDRAL>
0

>  <SCORE.SYSTEM.SOLV>
0

>  <SCORE.SYSTEM.norm>
0

>  <SCORE.heavy>
16

>  <SCORE.norm>
-0.489085

>  <RMSD>
2.549

$$$$
ligand
 OpenBabel11021811433D
libRbt.so/2013.1/901 2013/11/27
 16 16  0  0  0  0  0  0  0  0999 V2000
   47.8083   10.9866    9.2948 P   0  0  2  0  0  0  0  0  0  0  0  0
   46.9960   10.8818    8.0573 O   0  0  0  0  0  0  0  0  0  0  0  0
   48.6363   12.3664    9.2724 O   0  5  0  0  0  0  0  0  0  0  0  0
   48.8370    9.7486    9.3470 O   0  0  0  0  0  0  0  0  0  0  0  0
   44.9523   12.0702   14.2214 C   0  0  2  0  0  0  0  0  0  0  0  0
   44.0562   10.9462   14.1574 O   0  0  0  0  0  0  0  0  0  0  0  0
   44.1619   13.4027   14.2747 C   0  0  2  0  0  0  0  0  0  0  0  0
   43.2583   13.4021   15.4313 O   0  0  0  0  0  0  0  0  0  0  0  0
   43.3395   13.5350   12.9791 C   0  0  1  0  0  0  0  0  0  0  0  0
   42.6017   14.7629   12.9968 O   0  0  0  0  0  0  0  0  0  0  0  0
   44.3127   13.5312   11.7899 C   0  0  2  0  0  0  0  0  0  0  0  0
   43.5646   13.6428   10.5600 O   0  0  0  0  0  0  0  0  0  0  0  0
   45.1065   12.1957   11.8079 C   0  0  2  0  0  0  0  0  0  0  0  0
   45.8480   12.0731   13.0602 O   0  0  0  0  0  0  0  0  0  0  0  0
   46.1078   12.1981   10.6386 C   0  0  0  0  0  0  0  0  0  0  0  0
   46.8418   10.9682   10.5998 O   0  0  0  0  0  0  0  0  0  0  0  0
  1  2  1  6  0  0  0
  1  3  1  0  0  0  0
  1  4  2  0  0  0  0
  1 16  1  0  0  0  0
  5  6  1  6  0  0  0
  5  7  1  0  0  0  0
  5 14  1  0  0  0  0
  7  8  1  1  0  0  0
  7  9  1  0  0  0  0
  9 10  1  1  0  0  0
  9 11  1  0  0  0  0
 11 12  1  6  0  0  0
 11 13  1  0  0  0  0
 13 14  1  0  0  0  0
 13 15  1  6  0  0  0
 15 16  1  0  0  0  0
M  CHG  1   3  -1
M  END
>  <CHROM.1>
-178.69051760,176.31420946,-69.90398218,45.59839221,12.17987459,11.57053404
-0.54104871,-0.72686390,1.94007729

>  <Name>
ligand

>  <RI>
0

>  <Rbt.Current_Directory>
/home/itssahil/PROJECTS/Mol_Feturizer/New_Systems/rnas/2HO7

>  <Rbt.Executable>
rbdock ($Id: //depot/dev/client3/rdock/2013.1/src/exe/rbdock.cxx#4 $)

>  <Rbt.Library>
libRbt.so (2013.1, Build901 2013/11/27)

>  <Rbt.Parameter_File>
/export/apps/rDock/src/rDock_2013.1_src/data/scripts/dock_solv.prm

>  <Rbt.Receptor>
prm/pocket_docking_8.prm

>  <SCORE>
-10.8219

>  <SCORE.INTER>
-11.0516

>  <SCORE.INTER.CONST>
1

>  <SCORE.INTER.POLAR>
-1.29904

>  <SCORE.INTER.ROT>
3

>  <SCORE.INTER.SOLV>
13.1414

>  <SCORE.INTER.VDW>
-13.0181

>  <SCORE.INTER.norm>
-0.690726

>  <SCORE.INTRA>
0.229666

>  <SCORE.INTRA.DIHEDRAL>
0.222783

>  <SCORE.INTRA.DIHEDRAL.0>
0.00893466

>  <SCORE.INTRA.POLAR>
0

>  <SCORE.INTRA.POLAR.0>
0

>  <SCORE.INTRA.REPUL>
0

>  <SCORE.INTRA.REPUL.0>
0

>  <SCORE.INTRA.SOLV>
0.0786341

>  <SCORE.INTRA.SOLV.lig_0>
-48.9722

>  <SCORE.INTRA.VDW>
0.0789579

>  <SCORE.INTRA.VDW.0>
-0.529409

>  <SCORE.INTRA.norm>
0.0143541

>  <SCORE.RESTR>
0

>  <SCORE.RESTR.CAVITY>
0

>  <SCORE.RESTR.norm>
0

>  <SCORE.SYSTEM>
0

>  <SCORE.SYSTEM.CONST>
0

>  <SCORE.SYSTEM.DIHEDRAL>
0

>  <SCORE.SYSTEM.SOLV>
0

>  <SCORE.SYSTEM.norm>
0

>  <SCORE.heavy>
16

>  <SCORE.norm>
-0.676371

>  <RMSD>
2.551

$$$$
ligand
 OpenBabel11021811433D
libRbt.so/2013.1/901 2013/11/27
 16 16  0  0  0  0  0  0  0  0999 V2000
   47.5899   11.3096    9.1684 P   0  0  2  0  0  0  0  0  0  0  0  0
   47.2260   10.8662    7.7998 O   0  0  0  0  0  0  0  0  0  0  0  0
   48.3125   12.7453    9.0880 O   0  5  0  0  0  0  0  0  0  0  0  0
   48.6061   10.2367    9.8087 O   0  0  0  0  0  0  0  0  0  0  0  0
   44.7020   11.8827   14.6417 C   0  0  2  0  0  0  0  0  0  0  0  0
   43.6867   10.9036   14.3563 O   0  0  0  0  0  0  0  0  0  0  0  0
   44.1288   13.3188   14.5317 C   0  0  2  0  0  0  0  0  0  0  0  0
   42.9941   13.4759   15.4492 O   0  0  0  0  0  0  0  0  0  0  0  0
   43.6554   13.5463   13.0838 C   0  0  1  0  0  0  0  0  0  0  0  0
   43.1255   14.8706   12.9497 O   0  0  0  0  0  0  0  0  0  0  0  0
   44.8639   13.3738   12.1505 C   0  0  2  0  0  0  0  0  0  0  0  0
   44.4437   13.5711   10.7832 O   0  0  0  0  0  0  0  0  0  0  0  0
   45.4233   11.9355   12.3305 C   0  0  2  0  0  0  0  0  0  0  0  0
   45.8304   11.7288   13.7179 O   0  0  0  0  0  0  0  0  0  0  0  0
   46.6553   11.7655   11.4231 C   0  0  0  0  0  0  0  0  0  0  0  0
   46.2565   11.4366   10.0868 O   0  0  0  0  0  0  0  0  0  0  0  0
  1  2  1  6  0  0  0
  1  3  1  0  0  0  0
  1  4  2  0  0  0  0
  1 16  1  0  0  0  0
  5  6  1  6  0  0  0
  5  7  1  0  0  0  0
  5 14  1  0  0  0  0
  7  8  1  1  0  0  0
  7  9  1  0  0  0  0
  9 10  1  1  0  0  0
  9 11  1  0  0  0  0
 11 12  1  6  0  0  0
 11 13  1  0  0  0  0
 13 14  1  0  0  0  0
 13 15  1  6  0  0  0
 15 16  1  0  0  0  0
M  CHG  1   3  -1
M  END
>  <CHROM.1>
-82.91077090,178.47880921,175.61908498,45.63817382,12.22630396,11.71884739
-0.49842432,-0.83160778,2.17088387

>  <Name>
ligand

>  <RI>
0

>  <Rbt.Current_Directory>
/home/itssahil/PROJECTS/Mol_Feturizer/New_Systems/rnas/2HO7

>  <Rbt.Executable>
rbdock ($Id: //depot/dev/client3/rdock/2013.1/src/exe/rbdock.cxx#4 $)

>  <Rbt.Library>
libRbt.so (2013.1, Build901 2013/11/27)

>  <Rbt.Parameter_File>
/export/apps/rDock/src/rDock_2013.1_src/data/scripts/dock_solv.prm

>  <Rbt.Receptor>
prm/pocket_docking_5.prm

>  <SCORE>
-10.5936

>  <SCORE.INTER>
-11.7648

>  <SCORE.INTER.CONST>
1

>  <SCORE.INTER.POLAR>
-1.29904

>  <SCORE.INTER.ROT>
3

>  <SCORE.INTER.SOLV>
13.6179

>  <SCORE.INTER.VDW>
-13.6524

>  <SCORE.INTER.norm>
-0.735301

>  <SCORE.INTRA>
1.15138

>  <SCORE.INTRA.DIHEDRAL>
1.71823

>  <SCORE.INTRA.DIHEDRAL.0>
0.00893466

>  <SCORE.INTRA.POLAR>
0

>  <SCORE.INTRA.POLAR.0>
0

>  <SCORE.INTRA.REPUL>
0

>  <SCORE.INTRA.REPUL.0>
0

>  <SCORE.INTRA.SOLV>
1.0585

>  <SCORE.INTRA.SOLV.lig_0>
-48.9722

>  <SCORE.INTRA.VDW>
-0.236985

>  <SCORE.INTRA.VDW.0>
-0.529409

>  <SCORE.INTRA.norm>
0.0719612

>  <SCORE.RESTR>
0.0198656

>  <SCORE.RESTR.CAVITY>
0.0198656

>  <SCORE.RESTR.norm>
0.0012416

>  <SCORE.SYSTEM>
0

>  <SCORE.SYSTEM.CONST>
0

>  <SCORE.SYSTEM.DIHEDRAL>
0

>  <SCORE.SYSTEM.SOLV>
0

>  <SCORE.SYSTEM.norm>
0

>  <SCORE.heavy>
16

>  <SCORE.norm>
-0.662098

>  <RMSD>
2.553

$$$$
ligand
 OpenBabel11021811433D
libRbt.so/2013.1/901 2013/11/27
 16 16  0  0  0  0  0  0  0  0999 V2000
   47.5109   11.2262    9.1241 P   0  0  2  0  0  0  0  0  0  0  0  0
   47.0481   10.7638    7.7921 O   0  0  0  0  0  0  0  0  0  0  0  0
   48.0516   12.7372    9.0043 O   0  5  0  0  0  0  0  0  0  0  0  0
   48.7082   10.2694    9.6187 O   0  0  0  0  0  0  0  0  0  0  0  0
   45.0903   12.2474   14.7765 C   0  0  2  0  0  0  0  0  0  0  0  0
   44.4243   10.9815   14.9335 O   0  0  0  0  0  0  0  0  0  0  0  0
   44.0814   13.3550   14.3786 C   0  0  2  0  0  0  0  0  0  0  0  0
   43.0238   13.4553   15.3913 O   0  0  0  0  0  0  0  0  0  0  0  0
   43.4591   12.9837   13.0195 C   0  0  1  0  0  0  0  0  0  0  0  0
   42.5251   13.9946   12.6218 O   0  0  0  0  0  0  0  0  0  0  0  0
   44.5902   12.8857   11.9840 C   0  0  2  0  0  0  0  0  0  0  0  0
   44.0335   12.5267   10.7009 O   0  0  0  0  0  0  0  0  0  0  0  0
   45.5918   11.7936   12.4512 C   0  0  2  0  0  0  0  0  0  0  0  0
   46.1404   12.1464   13.7580 O   0  0  0  0  0  0  0  0  0  0  0  0
   46.7461   11.7124   11.4358 C   0  0  0  0  0  0  0  0  0  0  0  0
   46.2836   11.1838   10.1869 O   0  0  0  0  0  0  0  0  0  0  0  0
  1  2  1  6  0  0  0
  1  3  1  0  0  0  0
  1  4  2  0  0  0  0
  1 16  1  0  0  0  0
  5  6  1  6  0  0  0
  5  7  1  0  0  0  0
  5 14  1  0  0  0  0
  7  8  1  1  0  0  0
  7  9  1  0  0  0  0
  9 10  1  6  0  0  0
  9 11  1  0  0  0  0
 11 12  1  6  0  0  0
 11 13  1  0  0  0  0
 13 14  1  0  0  0  0
 13 15  1  6  0  0  0
 15 16  1  0  0  0  0
M  CHG  1   3  -1
M  END
>  <CHROM.1>
-68.52470526,175.75695154,-176.52556459,45.62025660,12.06080230,11.70554941
0.82730304,0.55613867,-1.43138610

>  <Name>
ligand

>  <RI>
0

>  <Rbt.Current_Directory>
/home/itssahil/PROJECTS/Mol_Feturizer/New_Systems/rnas/2HO7

>  <Rbt.Executable>
rbdock ($Id: //depot/dev/client3/rdock/2013.1/src/exe/rbdock.cxx#4 $)

>  <Rbt.Library>
libRbt.so (2013.1, Build901 2013/11/27)

>  <Rbt.Parameter_File>
/export/apps/rDock/src/rDock_2013.1_src/data/scripts/dock_solv.prm

>  <Rbt.Receptor>
prm/pocket_docking_5.prm

>  <SCORE>
-11.4359

>  <SCORE.INTER>
-12.174

>  <SCORE.INTER.CONST>
1

>  <SCORE.INTER.POLAR>
-1.29889

>  <SCORE.INTER.ROT>
3

>  <SCORE.INTER.SOLV>
14.6989

>  <SCORE.INTER.VDW>
-14.286

>  <SCORE.INTER.norm>
-0.760875

>  <SCORE.INTRA>
0.729339

>  <SCORE.INTRA.DIHEDRAL>
0.358489

>  <SCORE.INTRA.DIHEDRAL.0>
0.00893466

>  <SCORE.INTRA.POLAR>
0

>  <SCORE.INTRA.POLAR.0>
0

>  <SCORE.INTRA.REPUL>
0

>  <SCORE.INTRA.REPUL.0>
0

>  <SCORE.INTRA.SOLV>
1.23892

>  <SCORE.INTRA.SOLV.lig_0>
-48.9722

>  <SCORE.INTRA.VDW>
-0.0693679

>  <SCORE.INTRA.VDW.0>
-0.529409

>  <SCORE.INTRA.norm>
0.0455837

>  <SCORE.RESTR>
0.00875187

>  <SCORE.RESTR.CAVITY>
0.00875187

>  <SCORE.RESTR.norm>
0.000546992

>  <SCORE.SYSTEM>
0

>  <SCORE.SYSTEM.CONST>
0

>  <SCORE.SYSTEM.DIHEDRAL>
0

>  <SCORE.SYSTEM.SOLV>
0

>  <SCORE.SYSTEM.norm>
0

>  <SCORE.heavy>
16

>  <SCORE.norm>
-0.714744

>  <RMSD>
2.557

$$$$
ligand
 OpenBabel11021811433D
libRbt.so/2013.1/901 2013/11/27
 16 16  0  0  0  0  0  0  0  0999 V2000
   48.0640   12.6232   10.6509 P   0  0  2  0  0  0  0  0  0  0  0  0
   48.7131   13.8959   11.0525 O   0  0  0  0  0  0  0  0  0  0  0  0
   48.9779   11.3868   11.1262 O   0  5  0  0  0  0  0  0  0  0  0  0
   47.9230   12.5959    9.0468 O   0  0  0  0  0  0  0  0  0  0  0  0
   43.2087   13.5610   13.5694 C   0  0  2  0  0  0  0  0  0  0  0  0
   43.3246   13.7938   14.9847 O   0  0  0  0  0  0  0  0  0  0  0  0
   42.5162   12.2027   13.2894 C   0  0  2  0  0  0  0  0  0  0  0  0
   41.1924   12.1765   13.9225 O   0  0  0  0  0  0  0  0  0  0  0  0
   43.3901   11.0786   13.8769 C   0  0  1  0  0  0  0  0  0  0  0  0
   42.7774    9.8079   13.6273 O   0  0  0  0  0  0  0  0  0  0  0  0
   44.7664   11.1341   13.1956 C   0  0  2  0  0  0  0  0  0  0  0  0
   45.6102   10.0956   13.7380 O   0  0  0  0  0  0  0  0  0  0  0  0
   45.3965   12.5272   13.4722 C   0  0  2  0  0  0  0  0  0  0  0  0
   44.5336   13.5791   12.9411 O   0  0  0  0  0  0  0  0  0  0  0  0
   46.7617   12.6032   12.7648 C   0  0  0  0  0  0  0  0  0  0  0  0
   46.6008   12.4999   11.3447 O   0  0  0  0  0  0  0  0  0  0  0  0
  1  2  1  1  0  0  0
  1  3  1  0  0  0  0
  1  4  2  0  0  0  0
  1 16  1  0  0  0  0
  5  6  1  1  0  0  0
  5  7  1  0  0  0  0
  5 14  1  0  0  0  0
  7  8  1  1  0  0  0
  7  9  1  0  0  0  0
  9 10  1  6  0  0  0
  9 11  1  0  0  0  0
 11 12  1  1  0  0  0
 11 13  1  0  0  0  0
 13 14  1  0  0  0  0
 13 15  1  6  0  0  0
 15 16  1  0  0  0  0
M  CHG  1   3  -1
M  END
>  <CHROM.1>
63.15744897,178.60430755,-56.78483054,45.47057247,12.25038207,12.49536544
0.12982750,0.54030641,-0.06103948

>  <Name>
ligand

>  <RI>
0

>  <Rbt.Current_Directory>
/home/itssahil/PROJECTS/Mol_Feturizer/New_Systems/rnas/2HO7

>  <Rbt.Executable>
rbdock ($Id: //depot/dev/client3/rdock/2013.1/src/exe/rbdock.cxx#4 $)

>  <Rbt.Library>
libRbt.so (2013.1, Build901 2013/11/27)

>  <Rbt.Parameter_File>
/export/apps/rDock/src/rDock_2013.1_src/data/scripts/dock_solv.prm

>  <Rbt.Receptor>
prm/pocket_docking_5.prm

>  <SCORE>
-9.91777

>  <SCORE.INTER>
-9.98838

>  <SCORE.INTER.CONST>
1

>  <SCORE.INTER.POLAR>
-1.29904

>  <SCORE.INTER.ROT>
3

>  <SCORE.INTER.SOLV>
16.25

>  <SCORE.INTER.VDW>
-13.3455

>  <SCORE.INTER.norm>
-0.624274

>  <SCORE.INTRA>
0.0706108

>  <SCORE.INTRA.DIHEDRAL>
0.0532354

>  <SCORE.INTRA.DIHEDRAL.0>
0.00893466

>  <SCORE.INTRA.POLAR>
0

>  <SCORE.INTRA.POLAR.0>
0

>  <SCORE.INTRA.REPUL>
0

>  <SCORE.INTRA.REPUL.0>
0

>  <SCORE.INTRA.SOLV>
0.212339

>  <SCORE.INTRA.SOLV.lig_0>
-48.9722

>  <SCORE.INTRA.VDW>
-0.0621766

>  <SCORE.INTRA.VDW.0>
-0.529409

>  <SCORE.INTRA.norm>
0.00441317

>  <SCORE.RESTR>
0

>  <SCORE.RESTR.CAVITY>
0

>  <SCORE.RESTR.norm>
0

>  <SCORE.SYSTEM>
0

>  <SCORE.SYSTEM.CONST>
0

>  <SCORE.SYSTEM.DIHEDRAL>
0

>  <SCORE.SYSTEM.SOLV>
0

>  <SCORE.SYSTEM.norm>
0

>  <SCORE.heavy>
16

>  <SCORE.norm>
-0.619861

>  <RMSD>
2.583

$$$$
ligand
 OpenBabel11021811433D
libRbt.so/2013.1/901 2013/11/27
 16 16  0  0  0  0  0  0  0  0999 V2000
   48.9670   13.1507   10.7670 P   0  0  2  0  0  0  0  0  0  0  0  0
   48.5630   12.7901    9.3853 O   0  0  0  0  0  0  0  0  0  0  0  0
   49.8530   14.4935   10.7289 O   0  5  0  0  0  0  0  0  0  0  0  0
   49.8463   11.9493   11.3810 O   0  0  0  0  0  0  0  0  0  0  0  0
   43.4644   13.3654   12.3334 C   0  0  2  0  0  0  0  0  0  0  0  0
   43.5985   14.1156   13.5540 O   0  0  0  0  0  0  0  0  0  0  0  0
   42.7654   12.0068   12.5957 C   0  0  2  0  0  0  0  0  0  0  0  0
   41.4494   12.2312   13.2057 O   0  0  0  0  0  0  0  0  0  0  0  0
   43.6440   11.1827   13.5556 C   0  0  1  0  0  0  0  0  0  0  0  0
   43.0253    9.9162   13.8119 O   0  0  0  0  0  0  0  0  0  0  0  0
   45.0117   10.9669   12.8893 C   0  0  2  0  0  0  0  0  0  0  0  0
   45.8599   10.2051   13.7753 O   0  0  0  0  0  0  0  0  0  0  0  0
   45.6484   12.3567   12.6114 C   0  0  2  0  0  0  0  0  0  0  0  0
   44.7814   13.1353   11.7309 O   0  0  0  0  0  0  0  0  0  0  0  0
   47.0048   12.1501   11.9132 C   0  0  0  0  0  0  0  0  0  0  0  0
   47.6513   13.4080   11.6836 O   0  0  0  0  0  0  0  0  0  0  0  0
  1  2  1  6  0  0  0
  1  3  1  0  0  0  0
  1  4  2  0  0  0  0
  1 16  1  0  0  0  0
  5  6  1  1  0  0  0
  5  7  1  0  0  0  0
  5 14  1  0  0  0  0
  7  8  1  1  0  0  0
  7  9  1  0  0  0  0
  9 10  1  6  0  0  0
  9 11  1  0  0  0  0
 11 12  1  1  0  0  0
 11 13  1  0  0  0  0
 13 14  1  0  0  0  0
 13 15  1  6  0  0  0
 15 16  1  0  0  0  0
M  CHG  1   3  -1
M  END
>  <CHROM.1>
-177.80217794,-172.17970243,70.60834140,45.97167727,12.40958490,12.12822939
0.34116602,0.28772185,-0.39498933

>  <Name>
ligand

>  <RI>
0

>  <Rbt.Current_Directory>
/home/itssahil/PROJECTS/Mol_Feturizer/New_Systems/rnas/2HO7

>  <Rbt.Executable>
rbdock ($Id: //depot/dev/client3/rdock/2013.1/src/exe/rbdock.cxx#4 $)

>  <Rbt.Library>
libRbt.so (2013.1, Build901 2013/11/27)

>  <Rbt.Parameter_File>
/export/apps/rDock/src/rDock_2013.1_src/data/scripts/dock_solv.prm

>  <Rbt.Receptor>
prm/pocket_docking_4.prm

>  <SCORE>
-8.12545

>  <SCORE.INTER>
-8.41877

>  <SCORE.INTER.CONST>
1

>  <SCORE.INTER.POLAR>
-1.29877

>  <SCORE.INTER.ROT>
3

>  <SCORE.INTER.SOLV>
12.8426

>  <SCORE.INTER.VDW>
-11.1641

>  <SCORE.INTER.norm>
-0.526173

>  <SCORE.INTRA>
0.293316

>  <SCORE.INTRA.DIHEDRAL>
0.485585

>  <SCORE.INTRA.DIHEDRAL.0>
0.00893466

>  <SCORE.INTRA.POLAR>
0

>  <SCORE.INTRA.POLAR.0>
0

>  <SCORE.INTRA.REPUL>
0

>  <SCORE.INTRA.REPUL.0>
0

>  <SCORE.INTRA.SOLV>
0.107152

>  <SCORE.INTRA.SOLV.lig_0>
-48.9722

>  <SCORE.INTRA.VDW>
-0.00305281

>  <SCORE.INTRA.VDW.0>
-0.529409

>  <SCORE.INTRA.norm>
0.0183322

>  <SCORE.RESTR>
0

>  <SCORE.RESTR.CAVITY>
0

>  <SCORE.RESTR.norm>
0

>  <SCORE.SYSTEM>
0

>  <SCORE.SYSTEM.CONST>
0

>  <SCORE.SYSTEM.DIHEDRAL>
0

>  <SCORE.SYSTEM.SOLV>
0

>  <SCORE.SYSTEM.norm>
0

>  <SCORE.heavy>
16

>  <SCORE.norm>
-0.507841

>  <RMSD>
2.591

$$$$
ligand
 OpenBabel11021811433D
libRbt.so/2013.1/901 2013/11/27
 16 16  0  0  0  0  0  0  0  0999 V2000
   48.0137   12.5633   10.6611 P   0  0  2  0  0  0  0  0  0  0  0  0
   48.6637   13.8333   11.0696 O   0  0  0  0  0  0  0  0  0  0  0  0
   48.9257   11.3236   11.1313 O   0  5  0  0  0  0  0  0  0  0  0  0
   47.8743   12.5440    9.0568 O   0  0  0  0  0  0  0  0  0  0  0  0
   43.1498   13.5396   13.5630 C   0  0  2  0  0  0  0  0  0  0  0  0
   43.2623   13.7772   14.9777 O   0  0  0  0  0  0  0  0  0  0  0  0
   42.4570   12.1808   13.2858 C   0  0  2  0  0  0  0  0  0  0  0  0
   41.1315   12.1578   13.9156 O   0  0  0  0  0  0  0  0  0  0  0  0
   43.3286   11.0581   13.8794 C   0  0  1  0  0  0  0  0  0  0  0  0
   42.7156    9.7870   13.6325 O   0  0  0  0  0  0  0  0  0  0  0  0
   44.7066   11.1103   13.2014 C   0  0  2  0  0  0  0  0  0  0  0  0
   45.5483   10.0730   13.7495 O   0  0  0  0  0  0  0  0  0  0  0  0
   45.3370   12.5038   13.4749 C   0  0  2  0  0  0  0  0  0  0  0  0
   44.4763   13.5546   12.9379 O   0  0  0  0  0  0  0  0  0  0  0  0
   46.7041   12.5765   12.7706 C   0  0  0  0  0  0  0  0  0  0  0  0
   46.5496   12.4383   11.3529 O   0  0  0  0  0  0  0  0  0  0  0  0
  1  2  1  1  0  0  0
  1  3  1  0  0  0  0
  1  4  2  0  0  0  0
  1 16  1  0  0  0  0
  5  6  1  1  0  0  0
  5  7  1  0  0  0  0
  5 14  1  0  0  0  0
  7  8  1  1  0  0  0
  7  9  1  0  0  0  0
  9 10  1  6  0  0  0
  9 11  1  0  0  0  0
 11 12  1  1  0  0  0
 11 13  1  0  0  0  0
 13 14  1  0  0  0  0
 13 15  1  6  0  0  0
 15 16  1  0  0  0  0
M  CHG  1   3  -1
M  END
>  <CHROM.1>
61.85796306,178.45668409,-54.99685426,45.41408463,12.21435676,12.49949604
0.12246575,0.53805855,-0.06074536

>  <Name>
ligand

>  <RI>
0

>  <Rbt.Current_Directory>
/home/itssahil/PROJECTS/Mol_Feturizer/New_Systems/rnas/2HO7

>  <Rbt.Executable>
rbdock ($Id: //depot/dev/client3/rdock/2013.1/src/exe/rbdock.cxx#4 $)

>  <Rbt.Library>
libRbt.so (2013.1, Build901 2013/11/27)

>  <Rbt.Parameter_File>
/export/apps/rDock/src/rDock_2013.1_src/data/scripts/dock_solv.prm

>  <Rbt.Receptor>
prm/pocket_docking_4.prm

>  <SCORE>
-9.86839

>  <SCORE.INTER>
-9.95557

>  <SCORE.INTER.CONST>
1

>  <SCORE.INTER.POLAR>
-1.29904

>  <SCORE.INTER.ROT>
3

>  <SCORE.INTER.SOLV>
16.2686

>  <SCORE.INTER.VDW>
-13.3298

>  <SCORE.INTER.norm>
-0.622223

>  <SCORE.INTRA>
0.0871829

>  <SCORE.INTRA.DIHEDRAL>
0.0557831

>  <SCORE.INTRA.DIHEDRAL.0>
0.00893466

>  <SCORE.INTRA.POLAR>
0

>  <SCORE.INTRA.POLAR.0>
0

>  <SCORE.INTRA.REPUL>
0

>  <SCORE.INTRA.REPUL.0>
0

>  <SCORE.INTRA.SOLV>
0.195201

>  <SCORE.INTRA.SOLV.lig_0>
-48.9722

>  <SCORE.INTRA.VDW>
-0.0383093

>  <SCORE.INTRA.VDW.0>
-0.529409

>  <SCORE.INTRA.norm>
0.00544893

>  <SCORE.RESTR>
0

>  <SCORE.RESTR.CAVITY>
0

>  <SCORE.RESTR.norm>
0

>  <SCORE.SYSTEM>
0

>  <SCORE.SYSTEM.CONST>
0

>  <SCORE.SYSTEM.DIHEDRAL>
0

>  <SCORE.SYSTEM.SOLV>
0

>  <SCORE.SYSTEM.norm>
0

>  <SCORE.heavy>
16

>  <SCORE.norm>
-0.616774

>  <RMSD>
2.610

$$$$
ligand
 OpenBabel11021811433D
libRbt.so/2013.1/901 2013/11/27
 16 16  0  0  0  0  0  0  0  0999 V2000
   47.8384   11.0295    9.2834 P   0  0  2  0  0  0  0  0  0  0  0  0
   47.3393   11.8716    8.1680 O   0  0  0  0  0  0  0  0  0  0  0  0
   49.3993   11.3377    9.5254 O   0  5  0  0  0  0  0  0  0  0  0  0
   47.6568    9.4796    8.8854 O   0  0  0  0  0  0  0  0  0  0  0  0
   44.6619   11.3114   14.0707 C   0  0  2  0  0  0  0  0  0  0  0  0
   43.3501   10.7214   14.0306 O   0  0  0  0  0  0  0  0  0  0  0  0
   44.5687   12.8562   14.1599 C   0  0  2  0  0  0  0  0  0  0  0  0
   43.7972   13.2428   15.3471 O   0  0  0  0  0  0  0  0  0  0  0  0
   43.8616   13.3768   12.8944 C   0  0  1  0  0  0  0  0  0  0  0  0
   43.7665   14.8054   12.9455 O   0  0  0  0  0  0  0  0  0  0  0  0
   44.6921   12.9552   11.6722 C   0  0  2  0  0  0  0  0  0  0  0  0
   44.0433   13.4221   10.4697 O   0  0  0  0  0  0  0  0  0  0  0  0
   44.7888   11.4046   11.6541 C   0  0  2  0  0  0  0  0  0  0  0  0
   45.4272   10.9305   12.8792 O   0  0  0  0  0  0  0  0  0  0  0  0
   45.6477   10.9753   10.4508 C   0  0  0  0  0  0  0  0  0  0  0  0
   47.0145   11.3595   10.6435 O   0  0  0  0  0  0  0  0  0  0  0  0
  1  2  1  6  0  0  0
  1  3  1  0  0  0  0
  1  4  2  0  0  0  0
  1 16  1  0  0  0  0
  5  6  1  6  0  0  0
  5  7  1  0  0  0  0
  5 14  1  0  0  0  0
  7  8  1  1  0  0  0
  7  9  1  0  0  0  0
  9 10  1  1  0  0  0
  9 11  1  0  0  0  0
 11 12  1  6  0  0  0
 11 13  1  0  0  0  0
 13 14  1  0  0  0  0
 13 15  1  6  0  0  0
 15 16  1  0  0  0  0
M  CHG  1   3  -1
M  END
>  <CHROM.1>
68.59897076,-173.92084430,64.84720329,45.68522530,11.87047209,11.48990506
-0.27325760,-0.87256813,2.41464161

>  <Name>
ligand

>  <RI>
0

>  <Rbt.Current_Directory>
/home/itssahil/PROJECTS/Mol_Feturizer/New_Systems/rnas/2HO7

>  <Rbt.Executable>
rbdock ($Id: //depot/dev/client3/rdock/2013.1/src/exe/rbdock.cxx#4 $)

>  <Rbt.Library>
libRbt.so (2013.1, Build901 2013/11/27)

>  <Rbt.Parameter_File>
/export/apps/rDock/src/rDock_2013.1_src/data/scripts/dock_solv.prm

>  <Rbt.Receptor>
prm/pocket_docking_5.prm

>  <SCORE>
-10.1418

>  <SCORE.INTER>
-10.3627

>  <SCORE.INTER.CONST>
1

>  <SCORE.INTER.POLAR>
-1.29904

>  <SCORE.INTER.ROT>
3

>  <SCORE.INTER.SOLV>
15.0318

>  <SCORE.INTER.VDW>
-13.1889

>  <SCORE.INTER.norm>
-0.647669

>  <SCORE.INTRA>
0.220907

>  <SCORE.INTRA.DIHEDRAL>
0.472459

>  <SCORE.INTRA.DIHEDRAL.0>
0.00893466

>  <SCORE.INTRA.POLAR>
0

>  <SCORE.INTRA.POLAR.0>
0

>  <SCORE.INTRA.REPUL>
0

>  <SCORE.INTRA.REPUL.0>
0

>  <SCORE.INTRA.SOLV>
0.265508

>  <SCORE.INTRA.SOLV.lig_0>
-48.9722

>  <SCORE.INTRA.VDW>
-0.148077

>  <SCORE.INTRA.VDW.0>
-0.529409

>  <SCORE.INTRA.norm>
0.0138067

>  <SCORE.RESTR>
0

>  <SCORE.RESTR.CAVITY>
0

>  <SCORE.RESTR.norm>
0

>  <SCORE.SYSTEM>
0

>  <SCORE.SYSTEM.CONST>
0

>  <SCORE.SYSTEM.DIHEDRAL>
0

>  <SCORE.SYSTEM.SOLV>
0

>  <SCORE.SYSTEM.norm>
0

>  <SCORE.heavy>
16

>  <SCORE.norm>
-0.633862

>  <RMSD>
2.613

$$$$
ligand
 OpenBabel11021811433D
libRbt.so/2013.1/901 2013/11/27
 16 16  0  0  0  0  0  0  0  0999 V2000
   47.6856   11.0002    9.0421 P   0  0  2  0  0  0  0  0  0  0  0  0
   47.2947   10.6195    7.6621 O   0  0  0  0  0  0  0  0  0  0  0  0
   48.4844   12.3966    9.0027 O   0  5  0  0  0  0  0  0  0  0  0  0
   48.6440    9.8549    9.6450 O   0  0  0  0  0  0  0  0  0  0  0  0
   44.8826   11.6971   14.5601 C   0  0  2  0  0  0  0  0  0  0  0  0
   43.8647   10.7017   14.3512 O   0  0  0  0  0  0  0  0  0  0  0  0
   44.3049   13.1235   14.3733 C   0  0  2  0  0  0  0  0  0  0  0  0
   43.1852   13.3345   15.2984 O   0  0  0  0  0  0  0  0  0  0  0  0
   43.8071   13.2628   12.9224 C   0  0  1  0  0  0  0  0  0  0  0  0
   43.2723   14.5760   12.7176 O   0  0  0  0  0  0  0  0  0  0  0  0
   45.0003   13.0355   11.9812 C   0  0  2  0  0  0  0  0  0  0  0  0
   44.5571   13.1496   10.6117 O   0  0  0  0  0  0  0  0  0  0  0  0
   45.5655   11.6113   12.2382 C   0  0  2  0  0  0  0  0  0  0  0  0
   45.9959   11.4890   13.6286 O   0  0  0  0  0  0  0  0  0  0  0  0
   46.7826   11.3880   11.3223 C   0  0  0  0  0  0  0  0  0  0  0  0
   46.3633   11.1705    9.9696 O   0  0  0  0  0  0  0  0  0  0  0  0
  1  2  1  6  0  0  0
  1  3  1  0  0  0  0
  1  4  2  0  0  0  0
  1 16  1  0  0  0  0
  5  6  1  6  0  0  0
  5  7  1  0  0  0  0
  5 14  1  0  0  0  0
  7  8  1  1  0  0  0
  7  9  1  0  0  0  0
  9 10  1  1  0  0  0
  9 11  1  0  0  0  0
 11 12  1  6  0  0  0
 11 13  1  0  0  0  0
 13 14  1  0  0  0  0
 13 15  1  6  0  0  0
 15 16  1  0  0  0  0
M  CHG  1   3  -1
M  END
>  <CHROM.1>
-74.48528085,177.79405938,173.56362552,45.77149236,11.93967185,11.59133839
-0.54220119,-0.82490808,2.10609144

>  <Name>
ligand

>  <RI>
0

>  <Rbt.Current_Directory>
/home/itssahil/PROJECTS/Mol_Feturizer/New_Systems/rnas/2HO7

>  <Rbt.Executable>
rbdock ($Id: //depot/dev/client3/rdock/2013.1/src/exe/rbdock.cxx#4 $)

>  <Rbt.Library>
libRbt.so (2013.1, Build901 2013/11/27)

>  <Rbt.Parameter_File>
/export/apps/rDock/src/rDock_2013.1_src/data/scripts/dock_solv.prm

>  <Rbt.Receptor>
prm/pocket_docking_7.prm

>  <SCORE>
-11.2556

>  <SCORE.INTER>
-12.0862

>  <SCORE.INTER.CONST>
1

>  <SCORE.INTER.POLAR>
-1.29562

>  <SCORE.INTER.ROT>
3

>  <SCORE.INTER.SOLV>
14.0335

>  <SCORE.INTER.VDW>
-14.0165

>  <SCORE.INTER.norm>
-0.755387

>  <SCORE.INTRA>
0.830572

>  <SCORE.INTRA.DIHEDRAL>
0.807933

>  <SCORE.INTRA.DIHEDRAL.0>
0.00893466

>  <SCORE.INTRA.POLAR>
0

>  <SCORE.INTRA.POLAR.0>
0

>  <SCORE.INTRA.REPUL>
0

>  <SCORE.INTRA.REPUL.0>
0

>  <SCORE.INTRA.SOLV>
1.1601

>  <SCORE.INTRA.SOLV.lig_0>
-48.9722

>  <SCORE.INTRA.VDW>
-0.153445

>  <SCORE.INTRA.VDW.0>
-0.529409

>  <SCORE.INTRA.norm>
0.0519108

>  <SCORE.RESTR>
0

>  <SCORE.RESTR.CAVITY>
0

>  <SCORE.RESTR.norm>
0

>  <SCORE.SYSTEM>
0

>  <SCORE.SYSTEM.CONST>
0

>  <SCORE.SYSTEM.DIHEDRAL>
0

>  <SCORE.SYSTEM.SOLV>
0

>  <SCORE.SYSTEM.norm>
0

>  <SCORE.heavy>
16

>  <SCORE.norm>
-0.703476

>  <RMSD>
2.613

$$$$
ligand
 OpenBabel11021811433D
libRbt.so/2013.1/901 2013/11/27
 16 16  0  0  0  0  0  0  0  0999 V2000
   48.0739   12.5074   10.6962 P   0  0  2  0  0  0  0  0  0  0  0  0
   48.6074   13.8687   10.9501 O   0  0  0  0  0  0  0  0  0  0  0  0
   49.0644   11.4181   11.3459 O   0  5  0  0  0  0  0  0  0  0  0  0
   47.9912   12.2705    9.1054 O   0  0  0  0  0  0  0  0  0  0  0  0
   43.1238   13.4816   13.4401 C   0  0  2  0  0  0  0  0  0  0  0  0
   43.1969   13.7877   14.8442 O   0  0  0  0  0  0  0  0  0  0  0  0
   42.4700   12.0947   13.2118 C   0  0  2  0  0  0  0  0  0  0  0  0
   41.1308   12.0684   13.8117 O   0  0  0  0  0  0  0  0  0  0  0  0
   43.3534   11.0228   13.8775 C   0  0  1  0  0  0  0  0  0  0  0  0
   42.7765    9.7268   13.6771 O   0  0  0  0  0  0  0  0  0  0  0  0
   44.7456   11.0772   13.2292 C   0  0  2  0  0  0  0  0  0  0  0  0
   45.5982   10.0877   13.8447 O   0  0  0  0  0  0  0  0  0  0  0  0
   45.3363   12.4971   13.4507 C   0  0  2  0  0  0  0  0  0  0  0  0
   44.4641   13.5001   12.8453 O   0  0  0  0  0  0  0  0  0  0  0  0
   46.7177   12.5704   12.7751 C   0  0  0  0  0  0  0  0  0  0  0  0
   46.6016   12.3518   11.3638 O   0  0  0  0  0  0  0  0  0  0  0  0
  1  2  1  1  0  0  0
  1  3  1  0  0  0  0
  1  4  2  0  0  0  0
  1 16  1  0  0  0  0
  5  6  1  1  0  0  0
  5  7  1  0  0  0  0
  5 14  1  0  0  0  0
  7  8  1  1  0  0  0
  7  9  1  0  0  0  0
  9 10  1  6  0  0  0
  9 11  1  0  0  0  0
 11 12  1  1  0  0  0
 11 13  1  0  0  0  0
 13 14  1  0  0  0  0
 13 15  1  6  0  0  0
 15 16  1  0  0  0  0
M  CHG  1   3  -1
M  END
>  <CHROM.1>
61.39823324,177.44498802,-59.92213023,45.44262066,12.17022726,12.49177623
0.15095945,0.51259600,-0.12094277

>  <Name>
ligand

>  <RI>
0

>  <Rbt.Current_Directory>
/home/itssahil/PROJECTS/Mol_Feturizer/New_Systems/rnas/2HO7

>  <Rbt.Executable>
rbdock ($Id: //depot/dev/client3/rdock/2013.1/src/exe/rbdock.cxx#4 $)

>  <Rbt.Library>
libRbt.so (2013.1, Build901 2013/11/27)

>  <Rbt.Parameter_File>
/export/apps/rDock/src/rDock_2013.1_src/data/scripts/dock_solv.prm

>  <Rbt.Receptor>
prm/pocket_docking_4.prm

>  <SCORE>
-9.93917

>  <SCORE.INTER>
-10.0054

>  <SCORE.INTER.CONST>
1

>  <SCORE.INTER.POLAR>
-1.29904

>  <SCORE.INTER.ROT>
3

>  <SCORE.INTER.SOLV>
16.227

>  <SCORE.INTER.VDW>
-13.3491

>  <SCORE.INTER.norm>
-0.625337

>  <SCORE.INTRA>
0.0662268

>  <SCORE.INTRA.DIHEDRAL>
0.0303468

>  <SCORE.INTRA.DIHEDRAL.0>
0.00893466

>  <SCORE.INTRA.POLAR>
0

>  <SCORE.INTRA.POLAR.0>
0

>  <SCORE.INTRA.REPUL>
0

>  <SCORE.INTRA.REPUL.0>
0

>  <SCORE.INTRA.SOLV>
0.241474

>  <SCORE.INTRA.SOLV.lig_0>
-48.9722

>  <SCORE.INTRA.VDW>
-0.0696834

>  <SCORE.INTRA.VDW.0>
-0.529409

>  <SCORE.INTRA.norm>
0.00413917

>  <SCORE.RESTR>
0

>  <SCORE.RESTR.CAVITY>
0

>  <SCORE.RESTR.norm>
0

>  <SCORE.SYSTEM>
0

>  <SCORE.SYSTEM.CONST>
0

>  <SCORE.SYSTEM.DIHEDRAL>
0

>  <SCORE.SYSTEM.SOLV>
0

>  <SCORE.SYSTEM.norm>
0

>  <SCORE.heavy>
16

>  <SCORE.norm>
-0.621198

>  <RMSD>
2.616

$$$$
ligand
 OpenBabel11021811433D
libRbt.so/2013.1/901 2013/11/27
 16 16  0  0  0  0  0  0  0  0999 V2000
   47.6806   11.0034    8.9864 P   0  0  2  0  0  0  0  0  0  0  0  0
   47.2724   10.5752    7.6255 O   0  0  0  0  0  0  0  0  0  0  0  0
   48.4567   12.4100    8.8912 O   0  5  0  0  0  0  0  0  0  0  0  0
   48.6670    9.8916    9.6065 O   0  0  0  0  0  0  0  0  0  0  0  0
   44.9745   11.7585   14.5474 C   0  0  2  0  0  0  0  0  0  0  0  0
   44.0038   10.7053   14.4088 O   0  0  0  0  0  0  0  0  0  0  0  0
   44.3208   13.1445   14.3134 C   0  0  2  0  0  0  0  0  0  0  0  0
   43.2142   13.3411   15.2572 O   0  0  0  0  0  0  0  0  0  0  0  0
   43.7822   13.1934   12.8712 C   0  0  1  0  0  0  0  0  0  0  0  0
   43.1768   14.4679   12.6231 O   0  0  0  0  0  0  0  0  0  0  0  0
   44.9628   12.9835   11.9102 C   0  0  2  0  0  0  0  0  0  0  0  0
   44.4819   13.0136   10.5490 O   0  0  0  0  0  0  0  0  0  0  0  0
   45.6055   11.6021   12.2146 C   0  0  2  0  0  0  0  0  0  0  0  0
   46.0745   11.5641   13.5973 O   0  0  0  0  0  0  0  0  0  0  0  0
   46.8103   11.3986   11.2780 C   0  0  0  0  0  0  0  0  0  0  0  0
   46.3718   11.1816    9.9313 O   0  0  0  0  0  0  0  0  0  0  0  0
  1  2  1  6  0  0  0
  1  3  1  0  0  0  0
  1  4  2  0  0  0  0
  1 16  1  0  0  0  0
  5  6  1  6  0  0  0
  5  7  1  0  0  0  0
  5 14  1  0  0  0  0
  7  8  1  1  0  0  0
  7  9  1  0  0  0  0
  9 10  1  6  0  0  0
  9 11  1  0  0  0  0
 11 12  1  6  0  0  0
 11 13  1  0  0  0  0
 13 14  1  0  0  0  0
 13 15  1  6  0  0  0
 15 16  1  0  0  0  0
M  CHG  1   3  -1
M  END
>  <CHROM.1>
-70.92296973,178.88548366,171.52069021,45.78040611,11.92922527,11.54591629
0.61214482,0.78830343,-1.12373625

>  <Name>
ligand

>  <RI>
0

>  <Rbt.Current_Directory>
/home/itssahil/PROJECTS/Mol_Feturizer/New_Systems/rnas/2HO7

>  <Rbt.Executable>
rbdock ($Id: //depot/dev/client3/rdock/2013.1/src/exe/rbdock.cxx#4 $)

>  <Rbt.Library>
libRbt.so (2013.1, Build901 2013/11/27)

>  <Rbt.Parameter_File>
/export/apps/rDock/src/rDock_2013.1_src/data/scripts/dock_solv.prm

>  <Rbt.Receptor>
prm/pocket_docking_6.prm

>  <SCORE>
-11.4022

>  <SCORE.INTER>
-12.1713

>  <SCORE.INTER.CONST>
1

>  <SCORE.INTER.POLAR>
-1.29849

>  <SCORE.INTER.ROT>
3

>  <SCORE.INTER.SOLV>
14.179

>  <SCORE.INTER.VDW>
-14.1122

>  <SCORE.INTER.norm>
-0.760706

>  <SCORE.INTRA>
0.769135

>  <SCORE.INTRA.DIHEDRAL>
0.535389

>  <SCORE.INTRA.DIHEDRAL.0>
0.00893466

>  <SCORE.INTRA.POLAR>
0

>  <SCORE.INTRA.POLAR.0>
0

>  <SCORE.INTRA.REPUL>
0

>  <SCORE.INTRA.REPUL.0>
0

>  <SCORE.INTRA.SOLV>
1.14791

>  <SCORE.INTRA.SOLV.lig_0>
-48.9722

>  <SCORE.INTRA.VDW>
-0.0725165

>  <SCORE.INTRA.VDW.0>
-0.529409

>  <SCORE.INTRA.norm>
0.0480709

>  <SCORE.RESTR>
0

>  <SCORE.RESTR.CAVITY>
0

>  <SCORE.RESTR.norm>
0

>  <SCORE.SYSTEM>
0

>  <SCORE.SYSTEM.CONST>
0

>  <SCORE.SYSTEM.DIHEDRAL>
0

>  <SCORE.SYSTEM.SOLV>
0

>  <SCORE.SYSTEM.norm>
0

>  <SCORE.heavy>
16

>  <SCORE.norm>
-0.712635

>  <RMSD>
2.617

$$$$
ligand
 OpenBabel11021811433D
libRbt.so/2013.1/901 2013/11/27
 16 16  0  0  0  0  0  0  0  0999 V2000
   47.5937   10.8202    9.3536 P   0  0  2  0  0  0  0  0  0  0  0  0
   47.2593   11.7657    8.2599 O   0  0  0  0  0  0  0  0  0  0  0  0
   48.9925   11.2527   10.0216 O   0  5  0  0  0  0  0  0  0  0  0  0
   47.7337    9.3397    8.7355 O   0  0  0  0  0  0  0  0  0  0  0  0
   44.4962   11.9015   14.2148 C   0  0  2  0  0  0  0  0  0  0  0  0
   43.3939   11.0479   13.8585 O   0  0  0  0  0  0  0  0  0  0  0  0
   44.0239   13.3679   14.3877 C   0  0  2  0  0  0  0  0  0  0  0  0
   42.9721   13.4372   15.4089 O   0  0  0  0  0  0  0  0  0  0  0  0
   43.4666   13.8637   13.0401 C   0  0  1  0  0  0  0  0  0  0  0  0
   43.0273   15.2214   13.1676 O   0  0  0  0  0  0  0  0  0  0  0  0
   44.5896   13.7773   11.9948 C   0  0  2  0  0  0  0  0  0  0  0  0
   44.0887   14.2267   10.7173 O   0  0  0  0  0  0  0  0  0  0  0  0
   45.0530   12.2980   11.8916 C   0  0  2  0  0  0  0  0  0  0  0  0
   45.5416   11.8368   13.1884 O   0  0  0  0  0  0  0  0  0  0  0  0
   46.2014   12.2082   10.8701 C   0  0  0  0  0  0  0  0  0  0  0  0
   46.4323   10.8466   10.4886 O   0  0  0  0  0  0  0  0  0  0  0  0
  1  2  1  6  0  0  0
  1  3  1  0  0  0  0
  1  4  2  0  0  0  0
  1 16  1  0  0  0  0
  5  6  1  6  0  0  0
  5  7  1  0  0  0  0
  5 14  1  0  0  0  0
  7  8  1  1  0  0  0
  7  9  1  0  0  0  0
  9 10  1  1  0  0  0
  9 11  1  0  0  0  0
 11 12  1  6  0  0  0
 11 13  1  0  0  0  0
 13 14  1  0  0  0  0
 13 15  1  6  0  0  0
 15 16  1  0  0  0  0
M  CHG  1   3  -1
M  END
>  <CHROM.1>
-165.33566194,176.93275259,-51.51307127,45.48945761,12.19590406,11.63677197
-0.22459701,-0.88761410,2.33197038

>  <Name>
ligand

>  <RI>
0

>  <Rbt.Current_Directory>
/home/itssahil/PROJECTS/Mol_Feturizer/New_Systems/rnas/2HO7

>  <Rbt.Executable>
rbdock ($Id: //depot/dev/client3/rdock/2013.1/src/exe/rbdock.cxx#4 $)

>  <Rbt.Library>
libRbt.so (2013.1, Build901 2013/11/27)

>  <Rbt.Parameter_File>
/export/apps/rDock/src/rDock_2013.1_src/data/scripts/dock_solv.prm

>  <Rbt.Receptor>
prm/pocket_docking_8.prm

>  <SCORE>
-10.5405

>  <SCORE.INTER>
-11.0189

>  <SCORE.INTER.CONST>
1

>  <SCORE.INTER.POLAR>
-1.29864

>  <SCORE.INTER.ROT>
3

>  <SCORE.INTER.SOLV>
13.9298

>  <SCORE.INTER.VDW>
-13.2604

>  <SCORE.INTER.norm>
-0.68868

>  <SCORE.INTRA>
0.478384

>  <SCORE.INTRA.DIHEDRAL>
0.892929

>  <SCORE.INTRA.DIHEDRAL.0>
0.00893466

>  <SCORE.INTRA.POLAR>
0

>  <SCORE.INTRA.POLAR.0>
0

>  <SCORE.INTRA.REPUL>
0

>  <SCORE.INTRA.REPUL.0>
0

>  <SCORE.INTRA.SOLV>
-0.143779

>  <SCORE.INTRA.SOLV.lig_0>
-48.9722

>  <SCORE.INTRA.VDW>
0.103808

>  <SCORE.INTRA.VDW.0>
-0.529409

>  <SCORE.INTRA.norm>
0.029899

>  <SCORE.RESTR>
0

>  <SCORE.RESTR.CAVITY>
0

>  <SCORE.RESTR.norm>
0

>  <SCORE.SYSTEM>
0

>  <SCORE.SYSTEM.CONST>
0

>  <SCORE.SYSTEM.DIHEDRAL>
0

>  <SCORE.SYSTEM.SOLV>
0

>  <SCORE.SYSTEM.norm>
0

>  <SCORE.heavy>
16

>  <SCORE.norm>
-0.658782

>  <RMSD>
2.618

$$$$
ligand
 OpenBabel11021811433D
libRbt.so/2013.1/901 2013/11/27
 16 16  0  0  0  0  0  0  0  0999 V2000
   48.0258   12.5620   10.6645 P   0  0  2  0  0  0  0  0  0  0  0  0
   48.6808   13.8233   11.0914 O   0  0  0  0  0  0  0  0  0  0  0  0
   48.9166   11.3108   11.1449 O   0  5  0  0  0  0  0  0  0  0  0  0
   47.9159   12.5520    9.0578 O   0  0  0  0  0  0  0  0  0  0  0  0
   43.0843   13.4851   13.4412 C   0  0  2  0  0  0  0  0  0  0  0  0
   43.1628   13.7717   14.8492 O   0  0  0  0  0  0  0  0  0  0  0  0
   42.4314   12.1006   13.1963 C   0  0  2  0  0  0  0  0  0  0  0  0
   41.0947   12.0641   13.8013 O   0  0  0  0  0  0  0  0  0  0  0  0
   43.3190   11.0207   13.8432 C   0  0  1  0  0  0  0  0  0  0  0  0
   42.7430    9.7269   13.6272 O   0  0  0  0  0  0  0  0  0  0  0  0
   44.7084   11.0861   13.1901 C   0  0  2  0  0  0  0  0  0  0  0  0
   45.5648   10.0893   13.7881 O   0  0  0  0  0  0  0  0  0  0  0  0
   45.2981   12.5036   13.4289 C   0  0  2  0  0  0  0  0  0  0  0  0
   44.4221   13.5137   12.8412 O   0  0  0  0  0  0  0  0  0  0  0  0
   46.6765   12.5883   12.7486 C   0  0  0  0  0  0  0  0  0  0  0  0
   46.5481   12.4482   11.3285 O   0  0  0  0  0  0  0  0  0  0  0  0
  1  2  1  1  0  0  0
  1  3  1  0  0  0  0
  1  4  2  0  0  0  0
  1 16  1  0  0  0  0
  5  6  1  1  0  0  0
  5  7  1  0  0  0  0
  5 14  1  0  0  0  0
  7  8  1  1  0  0  0
  7  9  1  0  0  0  0
  9 10  1  6  0  0  0
  9 11  1  0  0  0  0
 11 12  1  1  0  0  0
 11 13  1  0  0  0  0
 13 14  1  0  0  0  0
 13 15  1  6  0  0  0
 15 16  1  0  0  0  0
M  CHG  1   3  -1
M  END
>  <CHROM.1>
63.95258422,179.36759577,-54.55011519,45.40079201,12.19288195,12.46454556
0.15593869,0.51639767,-0.11105814

>  <Name>
ligand

>  <RI>
0

>  <Rbt.Current_Directory>
/home/itssahil/PROJECTS/Mol_Feturizer/New_Systems/rnas/2HO7

>  <Rbt.Executable>
rbdock ($Id: //depot/dev/client3/rdock/2013.1/src/exe/rbdock.cxx#4 $)

>  <Rbt.Library>
libRbt.so (2013.1, Build901 2013/11/27)

>  <Rbt.Parameter_File>
/export/apps/rDock/src/rDock_2013.1_src/data/scripts/dock_solv.prm

>  <Rbt.Receptor>
prm/pocket_docking_3.prm

>  <SCORE>
-9.88849

>  <SCORE.INTER>
-9.9926

>  <SCORE.INTER.CONST>
1

>  <SCORE.INTER.POLAR>
-1.29865

>  <SCORE.INTER.ROT>
3

>  <SCORE.INTER.SOLV>
16.0281

>  <SCORE.INTER.VDW>
-13.2756

>  <SCORE.INTER.norm>
-0.624537

>  <SCORE.INTRA>
0.104109

>  <SCORE.INTRA.DIHEDRAL>
0.0972367

>  <SCORE.INTRA.DIHEDRAL.0>
0.00893466

>  <SCORE.INTRA.POLAR>
0

>  <SCORE.INTRA.POLAR.0>
0

>  <SCORE.INTRA.REPUL>
0

>  <SCORE.INTRA.REPUL.0>
0

>  <SCORE.INTRA.SOLV>
0.198939

>  <SCORE.INTRA.SOLV.lig_0>
-48.9722

>  <SCORE.INTRA.VDW>
-0.0439785

>  <SCORE.INTRA.VDW.0>
-0.529409

>  <SCORE.INTRA.norm>
0.00650683

>  <SCORE.RESTR>
0

>  <SCORE.RESTR.CAVITY>
0

>  <SCORE.RESTR.norm>
0

>  <SCORE.SYSTEM>
0

>  <SCORE.SYSTEM.CONST>
0

>  <SCORE.SYSTEM.DIHEDRAL>
0

>  <SCORE.SYSTEM.SOLV>
0

>  <SCORE.SYSTEM.norm>
0

>  <SCORE.heavy>
16

>  <SCORE.norm>
-0.61803

>  <RMSD>
2.619

$$$$
ligand
 OpenBabel11021811433D
libRbt.so/2013.1/901 2013/11/27
 16 16  0  0  0  0  0  0  0  0999 V2000
   47.7538   10.7088    8.9051 P   0  0  2  0  0  0  0  0  0  0  0  0
   48.1942   12.0783    8.5405 O   0  0  0  0  0  0  0  0  0  0  0  0
   49.0455    9.7698    9.1035 O   0  5  0  0  0  0  0  0  0  0  0  0
   46.8456   10.1207    7.7123 O   0  0  0  0  0  0  0  0  0  0  0  0
   45.2142   11.8645   13.9239 C   0  0  2  0  0  0  0  0  0  0  0  0
   44.3187   10.7400   13.9912 O   0  0  0  0  0  0  0  0  0  0  0  0
   44.4299   13.1990   14.0071 C   0  0  2  0  0  0  0  0  0  0  0  0
   43.6465   13.2421   15.2474 O   0  0  0  0  0  0  0  0  0  0  0  0
   43.4818   13.2847   12.7962 C   0  0  1  0  0  0  0  0  0  0  0  0
   42.7466   14.5135   12.8425 O   0  0  0  0  0  0  0  0  0  0  0  0
   44.3313   13.2359   11.5166 C   0  0  2  0  0  0  0  0  0  0  0  0
   43.4637   13.3032   10.3644 O   0  0  0  0  0  0  0  0  0  0  0  0
   45.1259   11.9009   11.5041 C   0  0  2  0  0  0  0  0  0  0  0  0
   45.9892   11.8234   12.6797 O   0  0  0  0  0  0  0  0  0  0  0  0
   46.0054   11.8590   10.2412 C   0  0  0  0  0  0  0  0  0  0  0  0
   46.9059   10.7456   10.2898 O   0  0  0  0  0  0  0  0  0  0  0  0
  1  2  1  6  0  0  0
  1  3  1  0  0  0  0
  1  4  2  0  0  0  0
  1 16  1  0  0  0  0
  5  6  1  6  0  0  0
  5  7  1  0  0  0  0
  5 14  1  0  0  0  0
  7  8  1  1  0  0  0
  7  9  1  0  0  0  0
  9 10  1  1  0  0  0
  9 11  1  0  0  0  0
 11 12  1  6  0  0  0
 11 13  1  0  0  0  0
 13 14  1  0  0  0  0
 13 15  1  6  0  0  0
 15 16  1  0  0  0  0
M  CHG  1   3  -1
M  END
>  <CHROM.1>
171.13163234,177.23977696,43.35308972,45.65497975,11.90864176,11.26249825
-0.65748067,-0.71488502,1.80974664

>  <Name>
ligand

>  <RI>
0

>  <Rbt.Current_Directory>
/home/itssahil/PROJECTS/Mol_Feturizer/New_Systems/rnas/2HO7

>  <Rbt.Executable>
rbdock ($Id: //depot/dev/client3/rdock/2013.1/src/exe/rbdock.cxx#4 $)

>  <Rbt.Library>
libRbt.so (2013.1, Build901 2013/11/27)

>  <Rbt.Parameter_File>
/export/apps/rDock/src/rDock_2013.1_src/data/scripts/dock_solv.prm

>  <Rbt.Receptor>
prm/pocket_docking_8.prm

>  <SCORE>
-9.82256

>  <SCORE.INTER>
-10.4514

>  <SCORE.INTER.CONST>
1

>  <SCORE.INTER.POLAR>
-1.29904

>  <SCORE.INTER.ROT>
3

>  <SCORE.INTER.SOLV>
16.1916

>  <SCORE.INTER.VDW>
-13.6347

>  <SCORE.INTER.norm>
-0.653212

>  <SCORE.INTRA>
0.628834

>  <SCORE.INTRA.DIHEDRAL>
0.73802

>  <SCORE.INTRA.DIHEDRAL.0>
0.00893466

>  <SCORE.INTRA.POLAR>
0

>  <SCORE.INTRA.POLAR.0>
0

>  <SCORE.INTRA.REPUL>
0

>  <SCORE.INTRA.REPUL.0>
0

>  <SCORE.INTRA.SOLV>
-0.135801

>  <SCORE.INTRA.SOLV.lig_0>
-48.9722

>  <SCORE.INTRA.VDW>
0.327724

>  <SCORE.INTRA.VDW.0>
-0.529409

>  <SCORE.INTRA.norm>
0.0393021

>  <SCORE.RESTR>
0

>  <SCORE.RESTR.CAVITY>
0

>  <SCORE.RESTR.norm>
0

>  <SCORE.SYSTEM>
0

>  <SCORE.SYSTEM.CONST>
0

>  <SCORE.SYSTEM.DIHEDRAL>
0

>  <SCORE.SYSTEM.SOLV>
0

>  <SCORE.SYSTEM.norm>
0

>  <SCORE.heavy>
16

>  <SCORE.norm>
-0.61391

>  <RMSD>
2.625

$$$$
ligand
 OpenBabel11021811433D
libRbt.so/2013.1/901 2013/11/27
 16 16  0  0  0  0  0  0  0  0999 V2000
   47.4003   10.8213    8.8830 P   0  0  2  0  0  0  0  0  0  0  0  0
   47.6985   12.1866    8.3839 O   0  0  0  0  0  0  0  0  0  0  0  0
   48.7107   10.2175    9.5959 O   0  5  0  0  0  0  0  0  0  0  0  0
   46.9957    9.8886    7.6340 O   0  0  0  0  0  0  0  0  0  0  0  0
   45.1022   12.0081   14.5492 C   0  0  2  0  0  0  0  0  0  0  0  0
   44.2928   10.8226   14.6497 O   0  0  0  0  0  0  0  0  0  0  0  0
   44.2296   13.2438   14.2104 C   0  0  2  0  0  0  0  0  0  0  0  0
   43.1913   13.4182   15.2329 O   0  0  0  0  0  0  0  0  0  0  0  0
   43.5678   13.0132   12.8388 C   0  0  1  0  0  0  0  0  0  0  0  0
   42.7583   14.1442   12.4952 O   0  0  0  0  0  0  0  0  0  0  0  0
   44.6793   12.8336   11.7932 C   0  0  2  0  0  0  0  0  0  0  0  0
   44.0842   12.6040   10.4978 O   0  0  0  0  0  0  0  0  0  0  0  0
   45.5465   11.6109   12.2020 C   0  0  2  0  0  0  0  0  0  0  0  0
   46.1330   11.8342   13.5208 O   0  0  0  0  0  0  0  0  0  0  0  0
   46.6831   11.4442   11.1771 C   0  0  0  0  0  0  0  0  0  0  0  0
   46.1861   10.8739    9.9603 O   0  0  0  0  0  0  0  0  0  0  0  0
  1  2  1  6  0  0  0
  1  3  1  0  0  0  0
  1  4  2  0  0  0  0
  1 16  1  0  0  0  0
  5  6  1  6  0  0  0
  5  7  1  0  0  0  0
  5 14  1  0  0  0  0
  7  8  1  1  0  0  0
  7  9  1  0  0  0  0
  9 10  1  6  0  0  0
  9 11  1  0  0  0  0
 11 12  1  6  0  0  0
 11 13  1  0  0  0  0
 13 14  1  0  0  0  0
 13 15  1  6  0  0  0
 15 16  1  0  0  0  0
M  CHG  1   3  -1
M  END
>  <CHROM.1>
-75.80252937,175.95130767,-73.08918469,45.60747769,11.83787952,11.48153717
0.80935810,0.67358623,-1.40965585

>  <Name>
ligand

>  <RI>
0

>  <Rbt.Current_Directory>
/home/itssahil/PROJECTS/Mol_Feturizer/New_Systems/rnas/2HO7

>  <Rbt.Executable>
rbdock ($Id: //depot/dev/client3/rdock/2013.1/src/exe/rbdock.cxx#4 $)

>  <Rbt.Library>
libRbt.so (2013.1, Build901 2013/11/27)

>  <Rbt.Parameter_File>
/export/apps/rDock/src/rDock_2013.1_src/data/scripts/dock_solv.prm

>  <Rbt.Receptor>
prm/pocket_docking_7.prm

>  <SCORE>
-11.2165

>  <SCORE.INTER>
-12.0999

>  <SCORE.INTER.CONST>
1

>  <SCORE.INTER.POLAR>
-1.29904

>  <SCORE.INTER.ROT>
3

>  <SCORE.INTER.SOLV>
17.3891

>  <SCORE.INTER.VDW>
-15.1329

>  <SCORE.INTER.norm>
-0.756246

>  <SCORE.INTRA>
0.883446

>  <SCORE.INTRA.DIHEDRAL>
1.19828

>  <SCORE.INTRA.DIHEDRAL.0>
0.00893466

>  <SCORE.INTRA.POLAR>
0

>  <SCORE.INTRA.POLAR.0>
0

>  <SCORE.INTRA.REPUL>
0

>  <SCORE.INTRA.REPUL.0>
0

>  <SCORE.INTRA.SOLV>
0.550204

>  <SCORE.INTRA.SOLV.lig_0>
-48.9722

>  <SCORE.INTRA.VDW>
0.00920205

>  <SCORE.INTRA.VDW.0>
-0.529409

>  <SCORE.INTRA.norm>
0.0552154

>  <SCORE.RESTR>
0

>  <SCORE.RESTR.CAVITY>
0

>  <SCORE.RESTR.norm>
0

>  <SCORE.SYSTEM>
0

>  <SCORE.SYSTEM.CONST>
0

>  <SCORE.SYSTEM.DIHEDRAL>
0

>  <SCORE.SYSTEM.SOLV>
0

>  <SCORE.SYSTEM.norm>
0

>  <SCORE.heavy>
16

>  <SCORE.norm>
-0.701031

>  <RMSD>
2.635

$$$$
ligand
 OpenBabel11021811433D
libRbt.so/2013.1/901 2013/11/27
 16 16  0  0  0  0  0  0  0  0999 V2000
   48.1144   12.4378   10.8613 P   0  0  2  0  0  0  0  0  0  0  0  0
   48.6756   13.7691   11.2004 O   0  0  0  0  0  0  0  0  0  0  0  0
   49.0232   11.2910   11.5310 O   0  5  0  0  0  0  0  0  0  0  0  0
   48.1276   12.2612    9.2606 O   0  0  0  0  0  0  0  0  0  0  0  0
   42.9738   13.4110   13.2357 C   0  0  2  0  0  0  0  0  0  0  0  0
   42.9478   13.7615   14.6312 O   0  0  0  0  0  0  0  0  0  0  0  0
   42.3598   12.0058   13.0091 C   0  0  2  0  0  0  0  0  0  0  0  0
   40.9840   11.9731   13.5193 O   0  0  0  0  0  0  0  0  0  0  0  0
   43.2142   10.9715   13.7658 C   0  0  1  0  0  0  0  0  0  0  0  0
   42.6735    9.6595   13.5691 O   0  0  0  0  0  0  0  0  0  0  0  0
   44.6455   11.0318   13.2100 C   0  0  2  0  0  0  0  0  0  0  0  0
   45.4712   10.0778   13.9120 O   0  0  0  0  0  0  0  0  0  0  0  0
   45.1966   12.4686   13.4247 C   0  0  2  0  0  0  0  0  0  0  0  0
   44.3504   13.4361   12.7310 O   0  0  0  0  0  0  0  0  0  0  0  0
   46.6187   12.5467   12.8402 C   0  0  0  0  0  0  0  0  0  0  0  0
   46.5973   12.3114   11.4270 O   0  0  0  0  0  0  0  0  0  0  0  0
  1  2  1  1  0  0  0
  1  3  1  0  0  0  0
  1  4  2  0  0  0  0
  1 16  1  0  0  0  0
  5  6  1  1  0  0  0
  5  7  1  0  0  0  0
  5 14  1  0  0  0  0
  7  8  1  1  0  0  0
  7  9  1  0  0  0  0
  9 10  1  6  0  0  0
  9 11  1  0  0  0  0
 11 12  1  1  0  0  0
 11 13  1  0  0  0  0
 13 14  1  0  0  0  0
 13 15  1  6  0  0  0
 15 16  1  0  0  0  0
M  CHG  1   3  -1
M  END
>  <CHROM.1>
62.65781502,178.77830662,-56.84168805,45.37278209,12.11188218,12.48616423
0.15907462,0.44404095,-0.15702525

>  <Name>
ligand

>  <RI>
0

>  <Rbt.Current_Directory>
/home/itssahil/PROJECTS/Mol_Feturizer/New_Systems/rnas/2HO7

>  <Rbt.Executable>
rbdock ($Id: //depot/dev/client3/rdock/2013.1/src/exe/rbdock.cxx#4 $)

>  <Rbt.Library>
libRbt.so (2013.1, Build901 2013/11/27)

>  <Rbt.Parameter_File>
/export/apps/rDock/src/rDock_2013.1_src/data/scripts/dock_solv.prm

>  <Rbt.Receptor>
prm/pocket_docking_3.prm

>  <SCORE>
-9.81853

>  <SCORE.INTER>
-9.88534

>  <SCORE.INTER.CONST>
1

>  <SCORE.INTER.POLAR>
-1.29904

>  <SCORE.INTER.ROT>
3

>  <SCORE.INTER.SOLV>
16.0872

>  <SCORE.INTER.VDW>
-13.2225

>  <SCORE.INTER.norm>
-0.617834

>  <SCORE.INTRA>
0.0668172

>  <SCORE.INTRA.DIHEDRAL>
0.0399688

>  <SCORE.INTRA.DIHEDRAL.0>
0.00893466

>  <SCORE.INTRA.POLAR>
0

>  <SCORE.INTRA.POLAR.0>
0

>  <SCORE.INTRA.REPUL>
0

>  <SCORE.INTRA.REPUL.0>
0

>  <SCORE.INTRA.SOLV>
0.215617

>  <SCORE.INTRA.SOLV.lig_0>
-48.9722

>  <SCORE.INTRA.VDW>
-0.0609756

>  <SCORE.INTRA.VDW.0>
-0.529409

>  <SCORE.INTRA.norm>
0.00417608

>  <SCORE.RESTR>
0

>  <SCORE.RESTR.CAVITY>
0

>  <SCORE.RESTR.norm>
0

>  <SCORE.SYSTEM>
0

>  <SCORE.SYSTEM.CONST>
0

>  <SCORE.SYSTEM.DIHEDRAL>
0

>  <SCORE.SYSTEM.SOLV>
0

>  <SCORE.SYSTEM.norm>
0

>  <SCORE.heavy>
16

>  <SCORE.norm>
-0.613658

>  <RMSD>
2.636

$$$$
ligand
 OpenBabel11021811433D
libRbt.so/2013.1/901 2013/11/27
 16 16  0  0  0  0  0  0  0  0999 V2000
   48.2061   12.3979   11.0389 P   0  0  2  0  0  0  0  0  0  0  0  0
   48.7149   13.7350   11.4336 O   0  0  0  0  0  0  0  0  0  0  0  0
   49.1002   11.2596   11.7423 O   0  5  0  0  0  0  0  0  0  0  0  0
   48.3186   12.2511    9.4391 O   0  0  0  0  0  0  0  0  0  0  0  0
   42.9421   13.3638   13.0460 C   0  0  2  0  0  0  0  0  0  0  0  0
   42.8241   13.7462   14.4282 O   0  0  0  0  0  0  0  0  0  0  0  0
   42.3246   11.9620   12.8075 C   0  0  2  0  0  0  0  0  0  0  0  0
   40.9163   11.9592   13.2207 O   0  0  0  0  0  0  0  0  0  0  0  0
   43.1087   10.9339   13.6444 C   0  0  1  0  0  0  0  0  0  0  0  0
   42.5636    9.6251   13.4389 O   0  0  0  0  0  0  0  0  0  0  0  0
   44.5760   10.9626   13.1890 C   0  0  2  0  0  0  0  0  0  0  0  0
   45.3366   10.0138   13.9677 O   0  0  0  0  0  0  0  0  0  0  0  0
   45.1321   12.3964   13.4105 C   0  0  2  0  0  0  0  0  0  0  0  0
   44.3508   13.3590   12.6384 O   0  0  0  0  0  0  0  0  0  0  0  0
   46.5924   12.4423   12.9255 C   0  0  0  0  0  0  0  0  0  0  0  0
   46.6614   12.2273   11.5105 O   0  0  0  0  0  0  0  0  0  0  0  0
  1  2  1  1  0  0  0
  1  3  1  0  0  0  0
  1  4  2  0  0  0  0
  1 16  1  0  0  0  0
  5  6  1  1  0  0  0
  5  7  1  0  0  0  0
  5 14  1  0  0  0  0
  7  8  1  1  0  0  0
  7  9  1  0  0  0  0
  9 10  1  6  0  0  0
  9 11  1  0  0  0  0
 11 12  1  1  0  0  0
 11 13  1  0  0  0  0
 13 14  1  0  0  0  0
 13 15  1  6  0  0  0
 15 16  1  0  0  0  0
M  CHG  1   3  -1
M  END
>  <CHROM.1>
64.92260786,175.76208825,-56.61520471,45.36277302,12.06448701,12.48683676
0.16259811,0.37555976,-0.18475868

>  <Name>
ligand

>  <RI>
0

>  <Rbt.Current_Directory>
/home/itssahil/PROJECTS/Mol_Feturizer/New_Systems/rnas/2HO7

>  <Rbt.Executable>
rbdock ($Id: //depot/dev/client3/rdock/2013.1/src/exe/rbdock.cxx#4 $)

>  <Rbt.Library>
libRbt.so (2013.1, Build901 2013/11/27)

>  <Rbt.Parameter_File>
/export/apps/rDock/src/rDock_2013.1_src/data/scripts/dock_solv.prm

>  <Rbt.Receptor>
prm/pocket_docking_3.prm

>  <SCORE>
-9.77689

>  <SCORE.INTER>
-9.88842

>  <SCORE.INTER.CONST>
1

>  <SCORE.INTER.POLAR>
-1.29544

>  <SCORE.INTER.ROT>
3

>  <SCORE.INTER.SOLV>
16.1088

>  <SCORE.INTER.VDW>
-13.2437

>  <SCORE.INTER.norm>
-0.618026

>  <SCORE.INTRA>
0.111527

>  <SCORE.INTRA.DIHEDRAL>
0.184777

>  <SCORE.INTRA.DIHEDRAL.0>
0.00893466

>  <SCORE.INTRA.POLAR>
0

>  <SCORE.INTRA.POLAR.0>
0

>  <SCORE.INTRA.REPUL>
0

>  <SCORE.INTRA.REPUL.0>
0

>  <SCORE.INTRA.SOLV>
0.199285

>  <SCORE.INTRA.SOLV.lig_0>
-48.9722

>  <SCORE.INTRA.VDW>
-0.0805044

>  <SCORE.INTRA.VDW.0>
-0.529409

>  <SCORE.INTRA.norm>
0.00697041

>  <SCORE.RESTR>
0

>  <SCORE.RESTR.CAVITY>
0

>  <SCORE.RESTR.norm>
0

>  <SCORE.SYSTEM>
0

>  <SCORE.SYSTEM.CONST>
0

>  <SCORE.SYSTEM.DIHEDRAL>
0

>  <SCORE.SYSTEM.SOLV>
0

>  <SCORE.SYSTEM.norm>
0

>  <SCORE.heavy>
16

>  <SCORE.norm>
-0.611056

>  <RMSD>
2.637

$$$$
ligand
 OpenBabel11021811433D
libRbt.so/2013.1/901 2013/11/27
 16 16  0  0  0  0  0  0  0  0999 V2000
   47.5310   11.0163    9.0080 P   0  0  2  0  0  0  0  0  0  0  0  0
   47.1306   10.4566    7.6932 O   0  0  0  0  0  0  0  0  0  0  0  0
   48.1473   12.4875    8.7945 O   0  5  0  0  0  0  0  0  0  0  0  0
   48.6499   10.0594    9.6606 O   0  0  0  0  0  0  0  0  0  0  0  0
   44.9058   11.9024   14.5881 C   0  0  2  0  0  0  0  0  0  0  0  0
   43.9826   10.8007   14.5188 O   0  0  0  0  0  0  0  0  0  0  0  0
   44.1839   13.2448   14.3054 C   0  0  2  0  0  0  0  0  0  0  0  0
   43.0880   13.4345   15.2630 O   0  0  0  0  0  0  0  0  0  0  0  0
   43.6156   13.2019   12.8745 C   0  0  1  0  0  0  0  0  0  0  0  0
   42.9468   14.4345   12.5816 O   0  0  0  0  0  0  0  0  0  0  0  0
   44.7856   13.0015   11.8987 C   0  0  2  0  0  0  0  0  0  0  0  0
   44.2774   12.9462   10.5483 O   0  0  0  0  0  0  0  0  0  0  0  0
   45.4977   11.6665   12.2518 C   0  0  2  0  0  0  0  0  0  0  0  0
   45.9949   11.7143   13.6243 O   0  0  0  0  0  0  0  0  0  0  0  0
   46.6921   11.4746   11.2996 C   0  0  0  0  0  0  0  0  0  0  0  0
   46.2396   11.1183    9.9876 O   0  0  0  0  0  0  0  0  0  0  0  0
  1  2  1  6  0  0  0
  1  3  1  0  0  0  0
  1  4  2  0  0  0  0
  1 16  1  0  0  0  0
  5  6  1  6  0  0  0
  5  7  1  0  0  0  0
  5 14  1  0  0  0  0
  7  8  1  1  0  0  0
  7  9  1  0  0  0  0
  9 10  1  6  0  0  0
  9 11  1  0  0  0  0
 11 12  1  6  0  0  0
 11 13  1  0  0  0  0
 13 14  1  0  0  0  0
 13 15  1  6  0  0  0
 15 16  1  0  0  0  0
M  CHG  1   3  -1
M  END
>  <CHROM.1>
-73.43309658,176.66157351,171.69461109,45.64250908,11.97115925,11.56435988
-0.66545568,-0.75386839,1.93503168

>  <Name>
ligand

>  <RI>
0

>  <Rbt.Current_Directory>
/home/itssahil/PROJECTS/Mol_Feturizer/New_Systems/rnas/2HO7

>  <Rbt.Executable>
rbdock ($Id: //depot/dev/client3/rdock/2013.1/src/exe/rbdock.cxx#4 $)

>  <Rbt.Library>
libRbt.so (2013.1, Build901 2013/11/27)

>  <Rbt.Parameter_File>
/export/apps/rDock/src/rDock_2013.1_src/data/scripts/dock_solv.prm

>  <Rbt.Receptor>
prm/pocket_docking_6.prm

>  <SCORE>
-11.5129

>  <SCORE.INTER>
-12.385

>  <SCORE.INTER.CONST>
1

>  <SCORE.INTER.POLAR>
-1.29855

>  <SCORE.INTER.ROT>
3

>  <SCORE.INTER.SOLV>
14.4625

>  <SCORE.INTER.VDW>
-14.349

>  <SCORE.INTER.norm>
-0.774064

>  <SCORE.INTRA>
0.872123

>  <SCORE.INTRA.DIHEDRAL>
0.786016

>  <SCORE.INTRA.DIHEDRAL.0>
0.00893466

>  <SCORE.INTRA.POLAR>
0

>  <SCORE.INTRA.POLAR.0>
0

>  <SCORE.INTRA.REPUL>
0

>  <SCORE.INTRA.REPUL.0>
0

>  <SCORE.INTRA.SOLV>
1.21265

>  <SCORE.INTRA.SOLV.lig_0>
-48.9722

>  <SCORE.INTRA.VDW>
-0.127208

>  <SCORE.INTRA.VDW.0>
-0.529409

>  <SCORE.INTRA.norm>
0.0545077

>  <SCORE.RESTR>
0

>  <SCORE.RESTR.CAVITY>
0

>  <SCORE.RESTR.norm>
0

>  <SCORE.SYSTEM>
0

>  <SCORE.SYSTEM.CONST>
0

>  <SCORE.SYSTEM.DIHEDRAL>
0

>  <SCORE.SYSTEM.SOLV>
0

>  <SCORE.SYSTEM.norm>
0

>  <SCORE.heavy>
16

>  <SCORE.norm>
-0.719556

>  <RMSD>
2.639

$$$$
ligand
 OpenBabel11021811433D
libRbt.so/2013.1/901 2013/11/27
 16 16  0  0  0  0  0  0  0  0999 V2000
   47.5069   10.8053    8.8934 P   0  0  2  0  0  0  0  0  0  0  0  0
   48.0396   12.1457    8.5445 O   0  0  0  0  0  0  0  0  0  0  0  0
   48.6513    9.9562    9.6412 O   0  5  0  0  0  0  0  0  0  0  0  0
   47.0806   10.0470    7.5381 O   0  0  0  0  0  0  0  0  0  0  0  0
   44.8597   11.6587   14.4460 C   0  0  2  0  0  0  0  0  0  0  0  0
   43.7748   10.7441   14.2065 O   0  0  0  0  0  0  0  0  0  0  0  0
   44.3758   13.1276   14.3391 C   0  0  2  0  0  0  0  0  0  0  0  0
   43.2857   13.3655   15.2927 O   0  0  0  0  0  0  0  0  0  0  0  0
   43.8680   13.3715   12.9055 C   0  0  1  0  0  0  0  0  0  0  0  0
   43.4192   14.7256   12.7743 O   0  0  0  0  0  0  0  0  0  0  0  0
   45.0301   13.1132   11.9338 C   0  0  2  0  0  0  0  0  0  0  0  0
   44.5762   13.3243   10.5794 O   0  0  0  0  0  0  0  0  0  0  0  0
   45.5026   11.6438   12.1113 C   0  0  2  0  0  0  0  0  0  0  0  0
   45.9434   11.4243   13.4863 O   0  0  0  0  0  0  0  0  0  0  0  0
   46.6891   11.3867   11.1646 C   0  0  0  0  0  0  0  0  0  0  0  0
   46.2253   10.9537    9.8799 O   0  0  0  0  0  0  0  0  0  0  0  0
  1  2  1  6  0  0  0
  1  3  1  0  0  0  0
  1  4  2  0  0  0  0
  1 16  1  0  0  0  0
  5  6  1  6  0  0  0
  5  7  1  0  0  0  0
  5 14  1  0  0  0  0
  7  8  1  1  0  0  0
  7  9  1  0  0  0  0
  9 10  1  1  0  0  0
  9 11  1  0  0  0  0
 11 12  1  6  0  0  0
 11 13  1  0  0  0  0
 13 14  1  0  0  0  0
 13 15  1  6  0  0  0
 15 16  1  0  0  0  0
M  CHG  1   3  -1
M  END
>  <CHROM.1>
-88.15371430,175.83635527,-71.19514069,45.70652750,11.88715592,11.48766771
-0.50427482,-0.90431426,2.13712976

>  <Name>
ligand

>  <RI>
0

>  <Rbt.Current_Directory>
/home/itssahil/PROJECTS/Mol_Feturizer/New_Systems/rnas/2HO7

>  <Rbt.Executable>
rbdock ($Id: //depot/dev/client3/rdock/2013.1/src/exe/rbdock.cxx#4 $)

>  <Rbt.Library>
libRbt.so (2013.1, Build901 2013/11/27)

>  <Rbt.Parameter_File>
/export/apps/rDock/src/rDock_2013.1_src/data/scripts/dock_solv.prm

>  <Rbt.Receptor>
prm/pocket_docking_7.prm

>  <SCORE>
-10.1246

>  <SCORE.INTER>
-11.5673

>  <SCORE.INTER.CONST>
1

>  <SCORE.INTER.POLAR>
-1.29904

>  <SCORE.INTER.ROT>
3

>  <SCORE.INTER.SOLV>
17.2911

>  <SCORE.INTER.VDW>
-14.7451

>  <SCORE.INTER.norm>
-0.722954

>  <SCORE.INTRA>
1.44269

>  <SCORE.INTRA.DIHEDRAL>
2.66433

>  <SCORE.INTRA.DIHEDRAL.0>
0.00893466

>  <SCORE.INTRA.POLAR>
0

>  <SCORE.INTRA.POLAR.0>
0

>  <SCORE.INTRA.REPUL>
0

>  <SCORE.INTRA.REPUL.0>
0

>  <SCORE.INTRA.SOLV>
0.405064

>  <SCORE.INTRA.SOLV.lig_0>
-48.9722

>  <SCORE.INTRA.VDW>
-0.0920107

>  <SCORE.INTRA.VDW.0>
-0.529409

>  <SCORE.INTRA.norm>
0.0901678

>  <SCORE.RESTR>
0

>  <SCORE.RESTR.CAVITY>
0

>  <SCORE.RESTR.norm>
0

>  <SCORE.SYSTEM>
0

>  <SCORE.SYSTEM.CONST>
0

>  <SCORE.SYSTEM.DIHEDRAL>
0

>  <SCORE.SYSTEM.SOLV>
0

>  <SCORE.SYSTEM.norm>
0

>  <SCORE.heavy>
16

>  <SCORE.norm>
-0.632786

>  <RMSD>
2.644

$$$$
ligand
 OpenBabel11021811433D
libRbt.so/2013.1/901 2013/11/27
 16 16  0  0  0  0  0  0  0  0999 V2000
   47.4397   10.9079    9.1592 P   0  0  2  0  0  0  0  0  0  0  0  0
   48.6090   10.2806    9.8235 O   0  0  0  0  0  0  0  0  0  0  0  0
   46.9988   10.0097    7.8988 O   0  5  0  0  0  0  0  0  0  0  0  0
   47.8595   12.3758    8.6466 O   0  0  0  0  0  0  0  0  0  0  0  0
   45.0332   12.2863   14.7324 C   0  0  2  0  0  0  0  0  0  0  0  0
   44.3164   11.0497   14.8982 O   0  0  0  0  0  0  0  0  0  0  0  0
   44.0692   13.4326   14.3326 C   0  0  2  0  0  0  0  0  0  0  0  0
   43.0206   13.5812   15.3487 O   0  0  0  0  0  0  0  0  0  0  0  0
   43.4268   13.0805   12.9777 C   0  0  1  0  0  0  0  0  0  0  0  0
   42.5336   14.1271   12.5784 O   0  0  0  0  0  0  0  0  0  0  0  0
   44.5488   12.9309   11.9385 C   0  0  2  0  0  0  0  0  0  0  0  0
   43.9728   12.5889   10.6594 O   0  0  0  0  0  0  0  0  0  0  0  0
   45.5065   11.8009   12.4075 C   0  0  2  0  0  0  0  0  0  0  0  0
   46.0743   12.1372   13.7104 O   0  0  0  0  0  0  0  0  0  0  0  0
   46.6525   11.6673   11.3882 C   0  0  0  0  0  0  0  0  0  0  0  0
   46.1963   11.0112   10.1989 O   0  0  0  0  0  0  0  0  0  0  0  0
  1  2  1  1  0  0  0
  1  3  1  0  0  0  0
  1  4  2  0  0  0  0
  1 16  1  0  0  0  0
  5  6  1  6  0  0  0
  5  7  1  0  0  0  0
  5 14  1  0  0  0  0
  7  8  1  1  0  0  0
  7  9  1  0  0  0  0
  9 10  1  6  0  0  0
  9 11  1  0  0  0  0
 11 12  1  6  0  0  0
 11 13  1  0  0  0  0
 13 14  1  0  0  0  0
 13 15  1  6  0  0  0
 15 16  1  0  0  0  0
M  CHG  1   3  -1
M  END
>  <CHROM.1>
-75.13881199,179.59419970,52.86921250,45.55332768,11.97663047,11.68047360
-0.81392603,-0.61198212,1.67837332

>  <Name>
ligand

>  <RI>
0

>  <Rbt.Current_Directory>
/home/itssahil/PROJECTS/Mol_Feturizer/New_Systems/rnas/2HO7

>  <Rbt.Executable>
rbdock ($Id: //depot/dev/client3/rdock/2013.1/src/exe/rbdock.cxx#4 $)

>  <Rbt.Library>
libRbt.so (2013.1, Build901 2013/11/27)

>  <Rbt.Parameter_File>
/export/apps/rDock/src/rDock_2013.1_src/data/scripts/dock_solv.prm

>  <Rbt.Receptor>
prm/pocket_docking_5.prm

>  <SCORE>
-9.60193

>  <SCORE.INTER>
-10.1835

>  <SCORE.INTER.CONST>
1

>  <SCORE.INTER.POLAR>
-1.03923

>  <SCORE.INTER.ROT>
3

>  <SCORE.INTER.SOLV>
17.0438

>  <SCORE.INTER.VDW>
-14.6062

>  <SCORE.INTER.norm>
-0.63647

>  <SCORE.INTRA>
0.580606

>  <SCORE.INTRA.DIHEDRAL>
0.863269

>  <SCORE.INTRA.DIHEDRAL.0>
0.00893466

>  <SCORE.INTRA.POLAR>
0

>  <SCORE.INTRA.POLAR.0>
0

>  <SCORE.INTRA.REPUL>
0

>  <SCORE.INTRA.REPUL.0>
0

>  <SCORE.INTRA.SOLV>
0.325992

>  <SCORE.INTRA.SOLV.lig_0>
-48.9722

>  <SCORE.INTRA.VDW>
-0.0140249

>  <SCORE.INTRA.VDW.0>
-0.529409

>  <SCORE.INTRA.norm>
0.0362878

>  <SCORE.RESTR>
0.000981271

>  <SCORE.RESTR.CAVITY>
0.000981271

>  <SCORE.RESTR.norm>
6.13294e-05

>  <SCORE.SYSTEM>
0

>  <SCORE.SYSTEM.CONST>
0

>  <SCORE.SYSTEM.DIHEDRAL>
0

>  <SCORE.SYSTEM.SOLV>
0

>  <SCORE.SYSTEM.norm>
0

>  <SCORE.heavy>
16

>  <SCORE.norm>
-0.60012

>  <RMSD>
2.649

$$$$
ligand
 OpenBabel11021811433D
libRbt.so/2013.1/901 2013/11/27
 16 16  0  0  0  0  0  0  0  0999 V2000
   47.6291   10.9119    8.9785 P   0  0  2  0  0  0  0  0  0  0  0  0
   47.1886   10.4603    7.6353 O   0  0  0  0  0  0  0  0  0  0  0  0
   48.3302   12.3548    8.8513 O   0  5  0  0  0  0  0  0  0  0  0  0
   48.6931    9.8518    9.5597 O   0  0  0  0  0  0  0  0  0  0  0  0
   45.0892   11.9184   14.5787 C   0  0  2  0  0  0  0  0  0  0  0  0
   44.2029   10.7848   14.5744 O   0  0  0  0  0  0  0  0  0  0  0  0
   44.3164   13.2233   14.2575 C   0  0  2  0  0  0  0  0  0  0  0  0
   43.2345   13.4159   15.2303 O   0  0  0  0  0  0  0  0  0  0  0  0
   43.7207   13.1024   12.8423 C   0  0  1  0  0  0  0  0  0  0  0  0
   43.0045   14.2990   12.5143 O   0  0  0  0  0  0  0  0  0  0  0  0
   44.8766   12.9008   11.8501 C   0  0  2  0  0  0  0  0  0  0  0  0
   44.3430   12.7729   10.5145 O   0  0  0  0  0  0  0  0  0  0  0  0
   45.6409   11.6059   12.2415 C   0  0  2  0  0  0  0  0  0  0  0  0
   46.1641   11.7269   13.5997 O   0  0  0  0  0  0  0  0  0  0  0  0
   46.8214   11.4146   11.2720 C   0  0  0  0  0  0  0  0  0  0  0  0
   46.3517   11.0279    9.9747 O   0  0  0  0  0  0  0  0  0  0  0  0
  1  2  1  6  0  0  0
  1  3  1  0  0  0  0
  1  4  2  0  0  0  0
  1 16  1  0  0  0  0
  5  6  1  6  0  0  0
  5  7  1  0  0  0  0
  5 14  1  0  0  0  0
  7  8  1  1  0  0  0
  7  9  1  0  0  0  0
  9 10  1  6  0  0  0
  9 11  1  0  0  0  0
 11 12  1  6  0  0  0
 11 13  1  0  0  0  0
 13 14  1  0  0  0  0
 13 15  1  6  0  0  0
 15 16  1  0  0  0  0
M  CHG  1   3  -1
M  END
>  <CHROM.1>
-71.71937353,177.26213275,177.77024850,45.76162234,11.89376907,11.53793361
0.70774215,0.72807356,-1.27305157

>  <Name>
ligand

>  <RI>
0

>  <Rbt.Current_Directory>
/home/itssahil/PROJECTS/Mol_Feturizer/New_Systems/rnas/2HO7

>  <Rbt.Executable>
rbdock ($Id: //depot/dev/client3/rdock/2013.1/src/exe/rbdock.cxx#4 $)

>  <Rbt.Library>
libRbt.so (2013.1, Build901 2013/11/27)

>  <Rbt.Parameter_File>
/export/apps/rDock/src/rDock_2013.1_src/data/scripts/dock_solv.prm

>  <Rbt.Receptor>
prm/pocket_docking_6.prm

>  <SCORE>
-11.752

>  <SCORE.INTER>
-12.4784

>  <SCORE.INTER.CONST>
1

>  <SCORE.INTER.POLAR>
-1.29841

>  <SCORE.INTER.ROT>
3

>  <SCORE.INTER.SOLV>
14.5066

>  <SCORE.INTER.VDW>
-14.4264

>  <SCORE.INTER.norm>
-0.779899

>  <SCORE.INTRA>
0.726373

>  <SCORE.INTRA.DIHEDRAL>
0.519018

>  <SCORE.INTRA.DIHEDRAL.0>
0.00893466

>  <SCORE.INTRA.POLAR>
0

>  <SCORE.INTRA.POLAR.0>
0

>  <SCORE.INTRA.REPUL>
0

>  <SCORE.INTRA.REPUL.0>
0

>  <SCORE.INTRA.SOLV>
1.18958

>  <SCORE.INTRA.SOLV.lig_0>
-48.9722

>  <SCORE.INTRA.VDW>
-0.127926

>  <SCORE.INTRA.VDW.0>
-0.529409

>  <SCORE.INTRA.norm>
0.0453983

>  <SCORE.RESTR>
0

>  <SCORE.RESTR.CAVITY>
0

>  <SCORE.RESTR.norm>
0

>  <SCORE.SYSTEM>
0

>  <SCORE.SYSTEM.CONST>
0

>  <SCORE.SYSTEM.DIHEDRAL>
0

>  <SCORE.SYSTEM.SOLV>
0

>  <SCORE.SYSTEM.norm>
0

>  <SCORE.heavy>
16

>  <SCORE.norm>
-0.734501

>  <RMSD>
2.649

$$$$
ligand
 OpenBabel11021811433D
libRbt.so/2013.1/901 2013/11/27
 16 16  0  0  0  0  0  0  0  0999 V2000
   47.7462   10.8398    9.1688 P   0  0  2  0  0  0  0  0  0  0  0  0
   46.9140   10.5609    7.9722 O   0  0  0  0  0  0  0  0  0  0  0  0
   48.4340   12.2864    9.0131 O   0  5  0  0  0  0  0  0  0  0  0  0
   48.8924    9.7138    9.2780 O   0  0  0  0  0  0  0  0  0  0  0  0
   45.0747   11.9325   14.1102 C   0  0  2  0  0  0  0  0  0  0  0  0
   44.1651   10.8184   14.1565 O   0  0  0  0  0  0  0  0  0  0  0  0
   44.3051   13.2757   14.1911 C   0  0  2  0  0  0  0  0  0  0  0  0
   43.5040   13.3198   15.4201 O   0  0  0  0  0  0  0  0  0  0  0  0
   43.3762   13.3809   12.9670 C   0  0  1  0  0  0  0  0  0  0  0  0
   42.6549   14.6180   13.0110 O   0  0  0  0  0  0  0  0  0  0  0  0
   44.2438   13.3306   11.6997 C   0  0  2  0  0  0  0  0  0  0  0  0
   43.3942   13.4161   10.5354 O   0  0  0  0  0  0  0  0  0  0  0  0
   45.0227   11.9863   11.6897 C   0  0  2  0  0  0  0  0  0  0  0  0
   45.8675   11.8906   12.8773 O   0  0  0  0  0  0  0  0  0  0  0  0
   45.9202   11.9425   10.4396 C   0  0  0  0  0  0  0  0  0  0  0  0
   46.8228   10.8316   10.5048 O   0  0  0  0  0  0  0  0  0  0  0  0
  1  2  1  6  0  0  0
  1  3  1  0  0  0  0
  1  4  2  0  0  0  0
  1 16  1  0  0  0  0
  5  6  1  6  0  0  0
  5  7  1  0  0  0  0
  5 14  1  0  0  0  0
  7  8  1  1  0  0  0
  7  9  1  0  0  0  0
  9 10  1  1  0  0  0
  9 11  1  0  0  0  0
 11 12  1  6  0  0  0
 11 13  1  0  0  0  0
 13 14  1  0  0  0  0
 13 15  1  6  0  0  0
 15 16  1  0  0  0  0
M  CHG  1   3  -1
M  END
>  <CHROM.1>
170.11549015,-179.71946154,-66.64734007,45.58869567,12.02124841,11.47797354
-0.60572736,-0.71553436,1.86641156

>  <Name>
ligand

>  <RI>
0

>  <Rbt.Current_Directory>
/home/itssahil/PROJECTS/Mol_Feturizer/New_Systems/rnas/2HO7

>  <Rbt.Executable>
rbdock ($Id: //depot/dev/client3/rdock/2013.1/src/exe/rbdock.cxx#4 $)

>  <Rbt.Library>
libRbt.so (2013.1, Build901 2013/11/27)

>  <Rbt.Parameter_File>
/export/apps/rDock/src/rDock_2013.1_src/data/scripts/dock_solv.prm

>  <Rbt.Receptor>
prm/pocket_docking_5.prm

>  <SCORE>
-10.8801

>  <SCORE.INTER>
-11.2231

>  <SCORE.INTER.CONST>
1

>  <SCORE.INTER.POLAR>
-1.29904

>  <SCORE.INTER.ROT>
3

>  <SCORE.INTER.SOLV>
13.7594

>  <SCORE.INTER.VDW>
-13.3384

>  <SCORE.INTER.norm>
-0.701447

>  <SCORE.INTRA>
0.343078

>  <SCORE.INTRA.DIHEDRAL>
0.410666

>  <SCORE.INTRA.DIHEDRAL.0>
0.00893466

>  <SCORE.INTRA.POLAR>
0

>  <SCORE.INTRA.POLAR.0>
0

>  <SCORE.INTRA.REPUL>
0

>  <SCORE.INTRA.REPUL.0>
0

>  <SCORE.INTRA.SOLV>
0.109817

>  <SCORE.INTRA.SOLV.lig_0>
-48.9722

>  <SCORE.INTRA.VDW>
0.0828367

>  <SCORE.INTRA.VDW.0>
-0.529409

>  <SCORE.INTRA.norm>
0.0214424

>  <SCORE.RESTR>
0

>  <SCORE.RESTR.CAVITY>
0

>  <SCORE.RESTR.norm>
0

>  <SCORE.SYSTEM>
0

>  <SCORE.SYSTEM.CONST>
0

>  <SCORE.SYSTEM.DIHEDRAL>
0

>  <SCORE.SYSTEM.SOLV>
0

>  <SCORE.SYSTEM.norm>
0

>  <SCORE.heavy>
16

>  <SCORE.norm>
-0.680004

>  <RMSD>
2.650

$$$$
ligand
 OpenBabel11021811433D
libRbt.so/2013.1/901 2013/11/27
 16 16  0  0  0  0  0  0  0  0999 V2000
   48.0479   12.4035   10.7083 P   0  0  2  0  0  0  0  0  0  0  0  0
   48.5907   13.7635   10.9489 O   0  0  0  0  0  0  0  0  0  0  0  0
   48.9991   11.3176   11.4193 O   0  5  0  0  0  0  0  0  0  0  0  0
   48.0191   12.1291    9.1216 O   0  0  0  0  0  0  0  0  0  0  0  0
   42.9755   13.4276   13.2336 C   0  0  2  0  0  0  0  0  0  0  0  0
   42.9940   13.7945   14.6249 O   0  0  0  0  0  0  0  0  0  0  0  0
   42.3641   12.0157   13.0443 C   0  0  2  0  0  0  0  0  0  0  0  0
   41.0066   11.9799   13.6010 O   0  0  0  0  0  0  0  0  0  0  0  0
   43.2508   10.9962   13.7837 C   0  0  1  0  0  0  0  0  0  0  0  0
   42.7131    9.6784   13.6207 O   0  0  0  0  0  0  0  0  0  0  0  0
   44.6622   11.0595   13.1792 C   0  0  2  0  0  0  0  0  0  0  0  0
   45.5178   10.1194   13.8640 O   0  0  0  0  0  0  0  0  0  0  0  0
   45.2100   12.5023   13.3584 C   0  0  2  0  0  0  0  0  0  0  0  0
   44.3341   13.4558   12.6824 O   0  0  0  0  0  0  0  0  0  0  0  0
   46.6110   12.5830   12.7253 C   0  0  0  0  0  0  0  0  0  0  0  0
   46.5504   12.2833   11.3255 O   0  0  0  0  0  0  0  0  0  0  0  0
  1  2  1  1  0  0  0
  1  3  1  0  0  0  0
  1  4  2  0  0  0  0
  1 16  1  0  0  0  0
  5  6  1  1  0  0  0
  5  7  1  0  0  0  0
  5 14  1  0  0  0  0
  7  8  1  1  0  0  0
  7  9  1  0  0  0  0
  9 10  1  6  0  0  0
  9 11  1  0  0  0  0
 11 12  1  1  0  0  0
 11 13  1  0  0  0  0
 13 14  1  0  0  0  0
 13 15  1  6  0  0  0
 15 16  1  0  0  0  0
M  CHG  1   3  -1
M  END
>  <CHROM.1>
60.57462261,179.21848415,-57.82198957,45.36006764,12.11427100,12.42272489
0.15785112,0.47659983,-0.16645925

>  <Name>
ligand

>  <RI>
0

>  <Rbt.Current_Directory>
/home/itssahil/PROJECTS/Mol_Feturizer/New_Systems/rnas/2HO7

>  <Rbt.Executable>
rbdock ($Id: //depot/dev/client3/rdock/2013.1/src/exe/rbdock.cxx#4 $)

>  <Rbt.Library>
libRbt.so (2013.1, Build901 2013/11/27)

>  <Rbt.Parameter_File>
/export/apps/rDock/src/rDock_2013.1_src/data/scripts/dock_solv.prm

>  <Rbt.Receptor>
prm/pocket_docking_3.prm

>  <SCORE>
-9.87067

>  <SCORE.INTER>
-9.93036

>  <SCORE.INTER.CONST>
1

>  <SCORE.INTER.POLAR>
-1.29833

>  <SCORE.INTER.ROT>
3

>  <SCORE.INTER.SOLV>
15.7651

>  <SCORE.INTER.VDW>
-13.1475

>  <SCORE.INTER.norm>
-0.620647

>  <SCORE.INTRA>
0.0596885

>  <SCORE.INTRA.DIHEDRAL>
0.00297618

>  <SCORE.INTRA.DIHEDRAL.0>
0.00893466

>  <SCORE.INTRA.POLAR>
0

>  <SCORE.INTRA.POLAR.0>
0

>  <SCORE.INTRA.REPUL>
0

>  <SCORE.INTRA.REPUL.0>
0

>  <SCORE.INTRA.SOLV>
0.232944

>  <SCORE.INTRA.SOLV.lig_0>
-48.9722

>  <SCORE.INTRA.VDW>
-0.0582716

>  <SCORE.INTRA.VDW.0>
-0.529409

>  <SCORE.INTRA.norm>
0.00373053

>  <SCORE.RESTR>
0

>  <SCORE.RESTR.CAVITY>
0

>  <SCORE.RESTR.norm>
0

>  <SCORE.SYSTEM>
0

>  <SCORE.SYSTEM.CONST>
0

>  <SCORE.SYSTEM.DIHEDRAL>
0

>  <SCORE.SYSTEM.SOLV>
0

>  <SCORE.SYSTEM.norm>
0

>  <SCORE.heavy>
16

>  <SCORE.norm>
-0.616917

>  <RMSD>
2.653

$$$$
ligand
 OpenBabel11021811433D
libRbt.so/2013.1/901 2013/11/27
 16 16  0  0  0  0  0  0  0  0999 V2000
   48.1668   12.3815   11.0749 P   0  0  2  0  0  0  0  0  0  0  0  0
   48.6890   13.7030   11.5028 O   0  0  0  0  0  0  0  0  0  0  0  0
   49.0617   11.2173   11.7334 O   0  5  0  0  0  0  0  0  0  0  0  0
   48.2593   12.2815    9.4702 O   0  0  0  0  0  0  0  0  0  0  0  0
   42.9111   13.3338   13.1339 C   0  0  2  0  0  0  0  0  0  0  0  0
   42.8031   13.7040   14.5203 O   0  0  0  0  0  0  0  0  0  0  0  0
   42.3011   11.9298   12.8895 C   0  0  2  0  0  0  0  0  0  0  0  0
   40.8967   11.9137   13.3155 O   0  0  0  0  0  0  0  0  0  0  0  0
   43.1001   10.9004   13.7107 C   0  0  1  0  0  0  0  0  0  0  0  0
   42.5622    9.5895   13.4993 O   0  0  0  0  0  0  0  0  0  0  0  0
   44.5629   10.9431   13.2421 C   0  0  2  0  0  0  0  0  0  0  0  0
   45.3372    9.9934   14.0060 O   0  0  0  0  0  0  0  0  0  0  0  0
   45.1110   12.3789   13.4704 C   0  0  2  0  0  0  0  0  0  0  0  0
   44.3159   13.3424   12.7135 O   0  0  0  0  0  0  0  0  0  0  0  0
   46.5664   12.4391   12.9724 C   0  0  0  0  0  0  0  0  0  0  0  0
   46.6268   12.2065   11.5599 O   0  0  0  0  0  0  0  0  0  0  0  0
  1  2  1  1  0  0  0
  1  3  1  0  0  0  0
  1  4  2  0  0  0  0
  1 16  1  0  0  0  0
  5  6  1  1  0  0  0
  5  7  1  0  0  0  0
  5 14  1  0  0  0  0
  7  8  1  1  0  0  0
  7  9  1  0  0  0  0
  9 10  1  6  0  0  0
  9 11  1  0  0  0  0
 11 12  1  1  0  0  0
 11 13  1  0  0  0  0
 13 14  1  0  0  0  0
 13 15  1  6  0  0  0
 15 16  1  0  0  0  0
M  CHG  1   3  -1
M  END
>  <CHROM.1>
63.63088310,176.19283621,-54.05596477,45.33679466,12.04133364,12.54330147
0.16257102,0.38432301,-0.17547942

>  <Name>
ligand

>  <RI>
0

>  <Rbt.Current_Directory>
/home/itssahil/PROJECTS/Mol_Feturizer/New_Systems/rnas/2HO7

>  <Rbt.Executable>
rbdock ($Id: //depot/dev/client3/rdock/2013.1/src/exe/rbdock.cxx#4 $)

>  <Rbt.Library>
libRbt.so (2013.1, Build901 2013/11/27)

>  <Rbt.Parameter_File>
/export/apps/rDock/src/rDock_2013.1_src/data/scripts/dock_solv.prm

>  <Rbt.Receptor>
prm/pocket_docking_3.prm

>  <SCORE>
-9.73679

>  <SCORE.INTER>
-9.85896

>  <SCORE.INTER.CONST>
1

>  <SCORE.INTER.POLAR>
-1.29904

>  <SCORE.INTER.ROT>
3

>  <SCORE.INTER.SOLV>
16.5081

>  <SCORE.INTER.VDW>
-13.3452

>  <SCORE.INTER.norm>
-0.616185

>  <SCORE.INTRA>
0.122177

>  <SCORE.INTRA.DIHEDRAL>
0.166891

>  <SCORE.INTRA.DIHEDRAL.0>
0.00893466

>  <SCORE.INTRA.POLAR>
0

>  <SCORE.INTRA.POLAR.0>
0

>  <SCORE.INTRA.REPUL>
0

>  <SCORE.INTRA.REPUL.0>
0

>  <SCORE.INTRA.SOLV>
0.17675

>  <SCORE.INTRA.SOLV.lig_0>
-48.9722

>  <SCORE.INTRA.VDW>
-0.0496436

>  <SCORE.INTRA.VDW.0>
-0.529409

>  <SCORE.INTRA.norm>
0.00763605

>  <SCORE.RESTR>
0

>  <SCORE.RESTR.CAVITY>
0

>  <SCORE.RESTR.norm>
0

>  <SCORE.SYSTEM>
0

>  <SCORE.SYSTEM.CONST>
0

>  <SCORE.SYSTEM.DIHEDRAL>
0

>  <SCORE.SYSTEM.SOLV>
0

>  <SCORE.SYSTEM.norm>
0

>  <SCORE.heavy>
16

>  <SCORE.norm>
-0.608549

>  <RMSD>
2.658

$$$$
ligand
 OpenBabel11021811433D
libRbt.so/2013.1/901 2013/11/27
 16 16  0  0  0  0  0  0  0  0999 V2000
   48.1791   12.4078   11.1034 P   0  0  2  0  0  0  0  0  0  0  0  0
   48.7211   13.7001   11.5919 O   0  0  0  0  0  0  0  0  0  0  0  0
   49.0417   11.2000   11.7254 O   0  5  0  0  0  0  0  0  0  0  0  0
   48.2921   12.3714    9.4973 O   0  0  0  0  0  0  0  0  0  0  0  0
   42.8976   13.3287   13.0632 C   0  0  2  0  0  0  0  0  0  0  0  0
   42.7676   13.7272   14.4398 O   0  0  0  0  0  0  0  0  0  0  0  0
   42.2888   11.9211   12.8374 C   0  0  2  0  0  0  0  0  0  0  0  0
   40.8776   11.9160   13.2406 O   0  0  0  0  0  0  0  0  0  0  0  0
   43.0721   10.9072   13.6924 C   0  0  1  0  0  0  0  0  0  0  0  0
   42.5351    9.5932   13.4989 O   0  0  0  0  0  0  0  0  0  0  0  0
   44.5425   10.9378   13.2471 C   0  0  2  0  0  0  0  0  0  0  0  0
   45.3022   10.0025   14.0427 O   0  0  0  0  0  0  0  0  0  0  0  0
   45.0897   12.3771   13.4551 C   0  0  2  0  0  0  0  0  0  0  0  0
   44.3092   13.3263   12.6658 O   0  0  0  0  0  0  0  0  0  0  0  0
   46.5533   12.4246   12.9799 C   0  0  0  0  0  0  0  0  0  0  0  0
   46.6293   12.2443   11.5605 O   0  0  0  0  0  0  0  0  0  0  0  0
  1  2  1  1  0  0  0
  1  3  1  0  0  0  0
  1  4  2  0  0  0  0
  1 16  1  0  0  0  0
  5  6  1  1  0  0  0
  5  7  1  0  0  0  0
  5 14  1  0  0  0  0
  7  8  1  1  0  0  0
  7  9  1  0  0  0  0
  9 10  1  6  0  0  0
  9 11  1  0  0  0  0
 11 12  1  1  0  0  0
 11 13  1  0  0  0  0
 13 14  1  0  0  0  0
 13 15  1  6  0  0  0
 15 16  1  0  0  0  0
M  CHG  1   3  -1
M  END
>  <CHROM.1>
67.15826812,176.05664739,-53.88017280,45.32788854,12.05119874,12.53577671
0.17664171,0.36610678,-0.20388231

>  <Name>
ligand

>  <RI>
0

>  <Rbt.Current_Directory>
/home/itssahil/PROJECTS/Mol_Feturizer/New_Systems/rnas/2HO7

>  <Rbt.Executable>
rbdock ($Id: //depot/dev/client3/rdock/2013.1/src/exe/rbdock.cxx#4 $)

>  <Rbt.Library>
libRbt.so (2013.1, Build901 2013/11/27)

>  <Rbt.Parameter_File>
/export/apps/rDock/src/rDock_2013.1_src/data/scripts/dock_solv.prm

>  <Rbt.Receptor>
prm/pocket_docking_4.prm

>  <SCORE>
-9.68655

>  <SCORE.INTER>
-9.87279

>  <SCORE.INTER.CONST>
1

>  <SCORE.INTER.POLAR>
-1.29872

>  <SCORE.INTER.ROT>
3

>  <SCORE.INTER.SOLV>
16.359

>  <SCORE.INTER.VDW>
-13.3058

>  <SCORE.INTER.norm>
-0.617049

>  <SCORE.INTRA>
0.186239

>  <SCORE.INTRA.DIHEDRAL>
0.310903

>  <SCORE.INTRA.DIHEDRAL.0>
0.00893466

>  <SCORE.INTRA.POLAR>
0

>  <SCORE.INTRA.POLAR.0>
0

>  <SCORE.INTRA.REPUL>
0

>  <SCORE.INTRA.REPUL.0>
0

>  <SCORE.INTRA.SOLV>
0.16979

>  <SCORE.INTRA.SOLV.lig_0>
-48.9722

>  <SCORE.INTRA.VDW>
-0.0541074

>  <SCORE.INTRA.VDW.0>
-0.529409

>  <SCORE.INTRA.norm>
0.0116399

>  <SCORE.RESTR>
0

>  <SCORE.RESTR.CAVITY>
0

>  <SCORE.RESTR.norm>
0

>  <SCORE.SYSTEM>
0

>  <SCORE.SYSTEM.CONST>
0

>  <SCORE.SYSTEM.DIHEDRAL>
0

>  <SCORE.SYSTEM.SOLV>
0

>  <SCORE.SYSTEM.norm>
0

>  <SCORE.heavy>
16

>  <SCORE.norm>
-0.60541

>  <RMSD>
2.663

$$$$
ligand
 OpenBabel11021811433D
libRbt.so/2013.1/901 2013/11/27
 16 16  0  0  0  0  0  0  0  0999 V2000
   47.5566   10.8614    9.3635 P   0  0  2  0  0  0  0  0  0  0  0  0
   47.3537   11.8282    8.2561 O   0  0  0  0  0  0  0  0  0  0  0  0
   48.9204   11.2194   10.1391 O   0  5  0  0  0  0  0  0  0  0  0  0
   47.6691    9.3789    8.7444 O   0  0  0  0  0  0  0  0  0  0  0  0
   44.2393   11.9172   14.0573 C   0  0  2  0  0  0  0  0  0  0  0  0
   43.0726   11.2331   13.5659 O   0  0  0  0  0  0  0  0  0  0  0  0
   43.9265   13.4098   14.3355 C   0  0  2  0  0  0  0  0  0  0  0  0
   42.8254   13.5185   15.2998 O   0  0  0  0  0  0  0  0  0  0  0  0
   43.5175   14.0785   13.0096 C   0  0  1  0  0  0  0  0  0  0  0  0
   43.2280   15.4634   13.2346 O   0  0  0  0  0  0  0  0  0  0  0  0
   44.6888   13.9465   12.0237 C   0  0  2  0  0  0  0  0  0  0  0  0
   44.3260   14.5567   10.7664 O   0  0  0  0  0  0  0  0  0  0  0  0
   44.9870   12.4363   11.8132 C   0  0  2  0  0  0  0  0  0  0  0  0
   45.3349   11.8142   13.0880 O   0  0  0  0  0  0  0  0  0  0  0  0
   46.1814   12.2960   10.8521 C   0  0  0  0  0  0  0  0  0  0  0  0
   46.3151   10.9404   10.4076 O   0  0  0  0  0  0  0  0  0  0  0  0
  1  2  1  6  0  0  0
  1  3  1  0  0  0  0
  1  4  2  0  0  0  0
  1 16  1  0  0  0  0
  5  6  1  6  0  0  0
  5  7  1  0  0  0  0
  5 14  1  0  0  0  0
  7  8  1  1  0  0  0
  7  9  1  0  0  0  0
  9 10  1  1  0  0  0
  9 11  1  0  0  0  0
 11 12  1  6  0  0  0
 11 13  1  0  0  0  0
 13 14  1  0  0  0  0
 13 15  1  6  0  0  0
 15 16  1  0  0  0  0
M  CHG  1   3  -1
M  END
>  <CHROM.1>
-167.82137250,178.20987313,-55.34903059,45.44504013,12.29708967,11.60046912
-0.00857894,-0.90376420,2.58080502

>  <Name>
ligand

>  <RI>
0

>  <Rbt.Current_Directory>
/home/itssahil/PROJECTS/Mol_Feturizer/New_Systems/rnas/2HO7

>  <Rbt.Executable>
rbdock ($Id: //depot/dev/client3/rdock/2013.1/src/exe/rbdock.cxx#4 $)

>  <Rbt.Library>
libRbt.so (2013.1, Build901 2013/11/27)

>  <Rbt.Parameter_File>
/export/apps/rDock/src/rDock_2013.1_src/data/scripts/dock_solv.prm

>  <Rbt.Receptor>
prm/pocket_docking_8.prm

>  <SCORE>
-10.5152

>  <SCORE.INTER>
-10.8033

>  <SCORE.INTER.CONST>
1

>  <SCORE.INTER.POLAR>
-1.29904

>  <SCORE.INTER.ROT>
3

>  <SCORE.INTER.SOLV>
13.7019

>  <SCORE.INTER.VDW>
-13.0394

>  <SCORE.INTER.norm>
-0.675204

>  <SCORE.INTRA>
0.287235

>  <SCORE.INTRA.DIHEDRAL>
0.559848

>  <SCORE.INTRA.DIHEDRAL.0>
0.00893466

>  <SCORE.INTRA.POLAR>
0

>  <SCORE.INTRA.POLAR.0>
0

>  <SCORE.INTRA.REPUL>
0

>  <SCORE.INTRA.REPUL.0>
0

>  <SCORE.INTRA.SOLV>
-0.0885231

>  <SCORE.INTRA.SOLV.lig_0>
-48.9722

>  <SCORE.INTRA.VDW>
0.0515724

>  <SCORE.INTRA.VDW.0>
-0.529409

>  <SCORE.INTRA.norm>
0.0179522

>  <SCORE.RESTR>
0.000827317

>  <SCORE.RESTR.CAVITY>
0.000827317

>  <SCORE.RESTR.norm>
5.17073e-05

>  <SCORE.SYSTEM>
0

>  <SCORE.SYSTEM.CONST>
0

>  <SCORE.SYSTEM.DIHEDRAL>
0

>  <SCORE.SYSTEM.SOLV>
0

>  <SCORE.SYSTEM.norm>
0

>  <SCORE.heavy>
16

>  <SCORE.norm>
-0.6572

>  <RMSD>
2.669

$$$$
ligand
 OpenBabel11021811433D
libRbt.so/2013.1/901 2013/11/27
 16 16  0  0  0  0  0  0  0  0999 V2000
   47.5825   10.8183    9.0001 P   0  0  2  0  0  0  0  0  0  0  0  0
   47.1122   10.3484    7.6733 O   0  0  0  0  0  0  0  0  0  0  0  0
   48.2288   12.2840    8.8470 O   0  5  0  0  0  0  0  0  0  0  0  0
   48.7016    9.7968    9.5458 O   0  0  0  0  0  0  0  0  0  0  0  0
   45.1767   11.9964   14.6279 C   0  0  2  0  0  0  0  0  0  0  0  0
   44.4191   10.7806   14.7646 O   0  0  0  0  0  0  0  0  0  0  0  0
   44.2549   13.1785   14.2329 C   0  0  2  0  0  0  0  0  0  0  0  0
   43.1972   13.3448   15.2368 O   0  0  0  0  0  0  0  0  0  0  0  0
   43.6211   12.8674   12.8640 C   0  0  1  0  0  0  0  0  0  0  0  0
   42.7670   13.9476   12.4689 O   0  0  0  0  0  0  0  0  0  0  0  0
   44.7526   12.6982   11.8381 C   0  0  2  0  0  0  0  0  0  0  0  0
   44.1843   12.3940   10.5460 O   0  0  0  0  0  0  0  0  0  0  0  0
   45.6675   11.5315   12.3025 C   0  0  2  0  0  0  0  0  0  0  0  0
   46.2271   11.8299   13.6182 O   0  0  0  0  0  0  0  0  0  0  0  0
   46.8231   11.3772   11.2971 C   0  0  0  0  0  0  0  0  0  0  0  0
   46.3367   10.8928   10.0393 O   0  0  0  0  0  0  0  0  0  0  0  0
  1  2  1  6  0  0  0
  1  3  1  0  0  0  0
  1  4  2  0  0  0  0
  1 16  1  0  0  0  0
  5  6  1  6  0  0  0
  5  7  1  0  0  0  0
  5 14  1  0  0  0  0
  7  8  1  1  0  0  0
  7  9  1  0  0  0  0
  9 10  1  6  0  0  0
  9 11  1  0  0  0  0
 11 12  1  6  0  0  0
 11 13  1  0  0  0  0
 13 14  1  0  0  0  0
 13 15  1  6  0  0  0
 15 16  1  0  0  0  0
M  CHG  1   3  -1
M  END
>  <CHROM.1>
-68.69210328,177.29627680,-178.74034526,45.72597486,11.78804512,11.56480895
0.79852188,0.62934798,-1.41049403

>  <Name>
ligand

>  <RI>
0

>  <Rbt.Current_Directory>
/home/itssahil/PROJECTS/Mol_Feturizer/New_Systems/rnas/2HO7

>  <Rbt.Executable>
rbdock ($Id: //depot/dev/client3/rdock/2013.1/src/exe/rbdock.cxx#4 $)

>  <Rbt.Library>
libRbt.so (2013.1, Build901 2013/11/27)

>  <Rbt.Parameter_File>
/export/apps/rDock/src/rDock_2013.1_src/data/scripts/dock_solv.prm

>  <Rbt.Receptor>
prm/pocket_docking_6.prm

>  <SCORE>
-12.1267

>  <SCORE.INTER>
-12.8134

>  <SCORE.INTER.CONST>
1

>  <SCORE.INTER.POLAR>
-1.29904

>  <SCORE.INTER.ROT>
3

>  <SCORE.INTER.SOLV>
15.1564

>  <SCORE.INTER.VDW>
-14.8643

>  <SCORE.INTER.norm>
-0.800837

>  <SCORE.INTRA>
0.686687

>  <SCORE.INTRA.DIHEDRAL>
0.299125

>  <SCORE.INTRA.DIHEDRAL.0>
0.00893466

>  <SCORE.INTRA.POLAR>
0

>  <SCORE.INTRA.POLAR.0>
0

>  <SCORE.INTRA.REPUL>
0

>  <SCORE.INTRA.REPUL.0>
0

>  <SCORE.INTRA.SOLV>
1.19306

>  <SCORE.INTRA.SOLV.lig_0>
-48.9722

>  <SCORE.INTRA.VDW>
-0.0594056

>  <SCORE.INTRA.VDW.0>
-0.529409

>  <SCORE.INTRA.norm>
0.042918

>  <SCORE.RESTR>
0

>  <SCORE.RESTR.CAVITY>
0

>  <SCORE.RESTR.norm>
0

>  <SCORE.SYSTEM>
0

>  <SCORE.SYSTEM.CONST>
0

>  <SCORE.SYSTEM.DIHEDRAL>
0

>  <SCORE.SYSTEM.SOLV>
0

>  <SCORE.SYSTEM.norm>
0

>  <SCORE.heavy>
16

>  <SCORE.norm>
-0.757919

>  <RMSD>
2.673

$$$$
ligand
 OpenBabel11021811433D
libRbt.so/2013.1/901 2013/11/27
 16 16  0  0  0  0  0  0  0  0999 V2000
   47.6122   10.7144    9.0154 P   0  0  2  0  0  0  0  0  0  0  0  0
   48.6786    9.8544    9.5858 O   0  0  0  0  0  0  0  0  0  0  0  0
   47.0840   10.0657    7.6407 O   0  5  0  0  0  0  0  0  0  0  0  0
   48.2262   12.1726    8.7153 O   0  0  0  0  0  0  0  0  0  0  0  0
   45.2524   12.0826   14.6176 C   0  0  2  0  0  0  0  0  0  0  0  0
   44.5422   10.8464   14.8128 O   0  0  0  0  0  0  0  0  0  0  0  0
   44.2810   13.2157   14.1983 C   0  0  2  0  0  0  0  0  0  0  0  0
   43.2364   13.3808   15.2159 O   0  0  0  0  0  0  0  0  0  0  0  0
   43.6342   12.8321   12.8541 C   0  0  1  0  0  0  0  0  0  0  0  0
   42.7342   13.8658   12.4371 O   0  0  0  0  0  0  0  0  0  0  0  0
   44.7522   12.6660   11.8131 C   0  0  2  0  0  0  0  0  0  0  0  0
   44.1721   12.2943   10.5441 O   0  0  0  0  0  0  0  0  0  0  0  0
   45.7174   11.5506   12.3013 C   0  0  2  0  0  0  0  0  0  0  0  0
   46.2895   11.9170   13.5942 O   0  0  0  0  0  0  0  0  0  0  0  0
   46.8594   11.4009   11.2798 C   0  0  0  0  0  0  0  0  0  0  0  0
   46.3727   10.8316   10.0583 O   0  0  0  0  0  0  0  0  0  0  0  0
  1  2  1  1  0  0  0
  1  3  1  0  0  0  0
  1  4  2  0  0  0  0
  1 16  1  0  0  0  0
  5  6  1  6  0  0  0
  5  7  1  0  0  0  0
  5 14  1  0  0  0  0
  7  8  1  1  0  0  0
  7  9  1  0  0  0  0
  9 10  1  6  0  0  0
  9 11  1  0  0  0  0
 11 12  1  6  0  0  0
 11 13  1  0  0  0  0
 13 14  1  0  0  0  0
 13 15  1  6  0  0  0
 15 16  1  0  0  0  0
M  CHG  1   3  -1
M  END
>  <CHROM.1>
-69.71573914,179.31525042,59.63387618,45.75020215,11.75595073,11.55302868
-0.83465418,-0.59496330,1.66036171

>  <Name>
ligand

>  <RI>
0

>  <Rbt.Current_Directory>
/home/itssahil/PROJECTS/Mol_Feturizer/New_Systems/rnas/2HO7

>  <Rbt.Executable>
rbdock ($Id: //depot/dev/client3/rdock/2013.1/src/exe/rbdock.cxx#4 $)

>  <Rbt.Library>
libRbt.so (2013.1, Build901 2013/11/27)

>  <Rbt.Parameter_File>
/export/apps/rDock/src/rDock_2013.1_src/data/scripts/dock_solv.prm

>  <Rbt.Receptor>
prm/pocket_docking_8.prm

>  <SCORE>
-10.4634

>  <SCORE.INTER>
-10.8525

>  <SCORE.INTER.CONST>
1

>  <SCORE.INTER.POLAR>
-1.03923

>  <SCORE.INTER.ROT>
3

>  <SCORE.INTER.SOLV>
17.3595

>  <SCORE.INTER.VDW>
-15.1574

>  <SCORE.INTER.norm>
-0.678283

>  <SCORE.INTRA>
0.389129

>  <SCORE.INTRA.DIHEDRAL>
0.328829

>  <SCORE.INTRA.DIHEDRAL.0>
0.00893466

>  <SCORE.INTRA.POLAR>
0

>  <SCORE.INTRA.POLAR.0>
0

>  <SCORE.INTRA.REPUL>
0

>  <SCORE.INTRA.REPUL.0>
0

>  <SCORE.INTRA.SOLV>
0.43757

>  <SCORE.INTRA.SOLV.lig_0>
-48.9722

>  <SCORE.INTRA.VDW>
0.00592891

>  <SCORE.INTRA.VDW.0>
-0.529409

>  <SCORE.INTRA.norm>
0.0243205

>  <SCORE.RESTR>
0

>  <SCORE.RESTR.CAVITY>
0

>  <SCORE.RESTR.norm>
0

>  <SCORE.SYSTEM>
0

>  <SCORE.SYSTEM.CONST>
0

>  <SCORE.SYSTEM.DIHEDRAL>
0

>  <SCORE.SYSTEM.SOLV>
0

>  <SCORE.SYSTEM.norm>
0

>  <SCORE.heavy>
16

>  <SCORE.norm>
-0.653962

>  <RMSD>
2.678

$$$$
ligand
 OpenBabel11021811433D
libRbt.so/2013.1/901 2013/11/27
 16 16  0  0  0  0  0  0  0  0999 V2000
   47.4137   10.6773    8.8653 P   0  0  2  0  0  0  0  0  0  0  0  0
   47.7367   12.0470    8.3942 O   0  0  0  0  0  0  0  0  0  0  0  0
   48.7269   10.0165    9.5200 O   0  5  0  0  0  0  0  0  0  0  0  0
   46.9436    9.7921    7.6047 O   0  0  0  0  0  0  0  0  0  0  0  0
   45.2846   12.0075   14.5662 C   0  0  2  0  0  0  0  0  0  0  0  0
   44.5603   10.7798   14.7633 O   0  0  0  0  0  0  0  0  0  0  0  0
   44.3187   13.1653   14.2062 C   0  0  2  0  0  0  0  0  0  0  0  0
   43.3158   13.3273   15.2654 O   0  0  0  0  0  0  0  0  0  0  0  0
   43.6157   12.8205   12.8798 C   0  0  1  0  0  0  0  0  0  0  0  0
   42.7194   13.8777   12.5174 O   0  0  0  0  0  0  0  0  0  0  0  0
   44.6911   12.6566   11.7945 C   0  0  2  0  0  0  0  0  0  0  0  0
   44.0576   12.3210   10.5411 O   0  0  0  0  0  0  0  0  0  0  0  0
   45.6537   11.5151   12.2239 C   0  0  2  0  0  0  0  0  0  0  0  0
   46.2799   11.8451   13.5015 O   0  0  0  0  0  0  0  0  0  0  0  0
   46.7540   11.3669   11.1575 C   0  0  0  0  0  0  0  0  0  0  0  0
   46.2351   10.7346    9.9811 O   0  0  0  0  0  0  0  0  0  0  0  0
  1  2  1  6  0  0  0
  1  3  1  0  0  0  0
  1  4  2  0  0  0  0
  1 16  1  0  0  0  0
  5  6  1  6  0  0  0
  5  7  1  0  0  0  0
  5 14  1  0  0  0  0
  7  8  1  1  0  0  0
  7  9  1  0  0  0  0
  9 10  1  6  0  0  0
  9 11  1  0  0  0  0
 11 12  1  6  0  0  0
 11 13  1  0  0  0  0
 13 14  1  0  0  0  0
 13 15  1  6  0  0  0
 15 16  1  0  0  0  0
M  CHG  1   3  -1
M  END
>  <CHROM.1>
-74.24079430,176.98696867,-67.95839240,45.66853086,11.70954762,11.48968924
-0.87396173,-0.61456727,1.64308369

>  <Name>
ligand

>  <RI>
0

>  <Rbt.Current_Directory>
/home/itssahil/PROJECTS/Mol_Feturizer/New_Systems/rnas/2HO7

>  <Rbt.Executable>
rbdock ($Id: //depot/dev/client3/rdock/2013.1/src/exe/rbdock.cxx#4 $)

>  <Rbt.Library>
libRbt.so (2013.1, Build901 2013/11/27)

>  <Rbt.Parameter_File>
/export/apps/rDock/src/rDock_2013.1_src/data/scripts/dock_solv.prm

>  <Rbt.Receptor>
prm/pocket_docking_7.prm

>  <SCORE>
-11.5569

>  <SCORE.INTER>
-12.1936

>  <SCORE.INTER.CONST>
1

>  <SCORE.INTER.POLAR>
-1.29904

>  <SCORE.INTER.ROT>
3

>  <SCORE.INTER.SOLV>
18.2674

>  <SCORE.INTER.VDW>
-15.4881

>  <SCORE.INTER.norm>
-0.762097

>  <SCORE.INTRA>
0.636675

>  <SCORE.INTRA.DIHEDRAL>
0.840865

>  <SCORE.INTRA.DIHEDRAL.0>
0.00893466

>  <SCORE.INTRA.POLAR>
0

>  <SCORE.INTRA.POLAR.0>
0

>  <SCORE.INTRA.REPUL>
0

>  <SCORE.INTRA.REPUL.0>
0

>  <SCORE.INTRA.SOLV>
0.502033

>  <SCORE.INTRA.SOLV.lig_0>
-48.9722

>  <SCORE.INTRA.VDW>
-0.0347746

>  <SCORE.INTRA.VDW.0>
-0.529409

>  <SCORE.INTRA.norm>
0.0397922

>  <SCORE.RESTR>
0

>  <SCORE.RESTR.CAVITY>
0

>  <SCORE.RESTR.norm>
0

>  <SCORE.SYSTEM>
0

>  <SCORE.SYSTEM.CONST>
0

>  <SCORE.SYSTEM.DIHEDRAL>
0

>  <SCORE.SYSTEM.SOLV>
0

>  <SCORE.SYSTEM.norm>
0

>  <SCORE.heavy>
16

>  <SCORE.norm>
-0.722305

>  <RMSD>
2.683

$$$$
ligand
 OpenBabel11021811433D
libRbt.so/2013.1/901 2013/11/27
 16 16  0  0  0  0  0  0  0  0999 V2000
   47.4193   10.7837    8.8922 P   0  0  2  0  0  0  0  0  0  0  0  0
   47.8102   12.1441    8.4463 O   0  0  0  0  0  0  0  0  0  0  0  0
   48.6632   10.0921    9.6433 O   0  5  0  0  0  0  0  0  0  0  0  0
   47.0232    9.9076    7.6002 O   0  0  0  0  0  0  0  0  0  0  0  0
   44.7849   11.6508   14.4302 C   0  0  2  0  0  0  0  0  0  0  0  0
   43.6782   10.7731   14.1551 O   0  0  0  0  0  0  0  0  0  0  0  0
   44.3386   13.1343   14.3748 C   0  0  2  0  0  0  0  0  0  0  0  0
   43.2516   13.3654   15.3335 O   0  0  0  0  0  0  0  0  0  0  0  0
   43.8421   13.4422   12.9496 C   0  0  1  0  0  0  0  0  0  0  0  0
   43.4280   14.8111   12.8660 O   0  0  0  0  0  0  0  0  0  0  0  0
   45.0007   13.1896   11.9723 C   0  0  2  0  0  0  0  0  0  0  0  0
   44.5570   13.4606   10.6252 O   0  0  0  0  0  0  0  0  0  0  0  0
   45.4354   11.7033   12.0981 C   0  0  2  0  0  0  0  0  0  0  0  0
   45.8658   11.4236   13.4655 O   0  0  0  0  0  0  0  0  0  0  0  0
   46.6183   11.4504   11.1458 C   0  0  0  0  0  0  0  0  0  0  0  0
   46.1623   10.8720    9.9168 O   0  0  0  0  0  0  0  0  0  0  0  0
  1  2  1  6  0  0  0
  1  3  1  0  0  0  0
  1  4  2  0  0  0  0
  1 16  1  0  0  0  0
  5  6  1  6  0  0  0
  5  7  1  0  0  0  0
  5 14  1  0  0  0  0
  7  8  1  1  0  0  0
  7  9  1  0  0  0  0
  9 10  1  1  0  0  0
  9 11  1  0  0  0  0
 11 12  1  6  0  0  0
 11 13  1  0  0  0  0
 13 14  1  0  0  0  0
 13 15  1  6  0  0  0
 15 16  1  0  0  0  0
M  CHG  1   3  -1
M  END
>  <CHROM.1>
-97.40414741,173.66526591,-69.97909938,45.64487287,11.90882718,11.49791704
-0.45571092,-0.93368208,2.19123362

>  <Name>
ligand

>  <RI>
0

>  <Rbt.Current_Directory>
/home/itssahil/PROJECTS/Mol_Feturizer/New_Systems/rnas/2HO7

>  <Rbt.Executable>
rbdock ($Id: //depot/dev/client3/rdock/2013.1/src/exe/rbdock.cxx#4 $)

>  <Rbt.Library>
libRbt.so (2013.1, Build901 2013/11/27)

>  <Rbt.Parameter_File>
/export/apps/rDock/src/rDock_2013.1_src/data/scripts/dock_solv.prm

>  <Rbt.Receptor>
prm/pocket_docking_8.prm

>  <SCORE>
-9.90618

>  <SCORE.INTER>
-11.9477

>  <SCORE.INTER.CONST>
1

>  <SCORE.INTER.POLAR>
-1.29839

>  <SCORE.INTER.ROT>
3

>  <SCORE.INTER.SOLV>
17.1744

>  <SCORE.INTER.VDW>
-14.962

>  <SCORE.INTER.norm>
-0.746731

>  <SCORE.INTRA>
2.04151

>  <SCORE.INTRA.DIHEDRAL>
3.98769

>  <SCORE.INTRA.DIHEDRAL.0>
0.00893466

>  <SCORE.INTRA.POLAR>
0

>  <SCORE.INTRA.POLAR.0>
0

>  <SCORE.INTRA.REPUL>
0

>  <SCORE.INTRA.REPUL.0>
0

>  <SCORE.INTRA.SOLV>
0.314273

>  <SCORE.INTRA.SOLV.lig_0>
-48.9722

>  <SCORE.INTRA.VDW>
-0.109471

>  <SCORE.INTRA.VDW.0>
-0.529409

>  <SCORE.INTRA.norm>
0.127595

>  <SCORE.RESTR>
0

>  <SCORE.RESTR.CAVITY>
0

>  <SCORE.RESTR.norm>
0

>  <SCORE.SYSTEM>
0

>  <SCORE.SYSTEM.CONST>
0

>  <SCORE.SYSTEM.DIHEDRAL>
0

>  <SCORE.SYSTEM.SOLV>
0

>  <SCORE.SYSTEM.norm>
0

>  <SCORE.heavy>
16

>  <SCORE.norm>
-0.619136

>  <RMSD>
2.685

$$$$
ligand
 OpenBabel11021811433D
libRbt.so/2013.1/901 2013/11/27
 16 16  0  0  0  0  0  0  0  0999 V2000
   47.4225   10.6646    8.8431 P   0  0  2  0  0  0  0  0  0  0  0  0
   47.7477   12.0273    8.3537 O   0  0  0  0  0  0  0  0  0  0  0  0
   48.7346   10.0106    9.5069 O   0  5  0  0  0  0  0  0  0  0  0  0
   46.9513    9.7632    7.5946 O   0  0  0  0  0  0  0  0  0  0  0  0
   45.2834   12.1486   14.5012 C   0  0  2  0  0  0  0  0  0  0  0  0
   44.6239   10.8959   14.7588 O   0  0  0  0  0  0  0  0  0  0  0  0
   44.2568   13.2408   14.1060 C   0  0  2  0  0  0  0  0  0  0  0  0
   43.2586   13.3974   15.1705 O   0  0  0  0  0  0  0  0  0  0  0  0
   43.5573   12.8057   12.8045 C   0  0  1  0  0  0  0  0  0  0  0  0
   42.6052   13.8008   12.4101 O   0  0  0  0  0  0  0  0  0  0  0  0
   44.6276   12.6497   11.7129 C   0  0  2  0  0  0  0  0  0  0  0  0
   43.9980   12.2304   10.4830 O   0  0  0  0  0  0  0  0  0  0  0  0
   45.6509   11.5767   12.1769 C   0  0  2  0  0  0  0  0  0  0  0  0
   46.2739   11.9911   13.4313 O   0  0  0  0  0  0  0  0  0  0  0  0
   46.7456   11.4384   11.1032 C   0  0  0  0  0  0  0  0  0  0  0  0
   46.2438   10.7387    9.9579 O   0  0  0  0  0  0  0  0  0  0  0  0
  1  2  1  6  0  0  0
  1  3  1  0  0  0  0
  1  4  2  0  0  0  0
  1 16  1  0  0  0  0
  5  6  1  6  0  0  0
  5  7  1  0  0  0  0
  5 14  1  0  0  0  0
  7  8  1  1  0  0  0
  7  9  1  0  0  0  0
  9 10  1  6  0  0  0
  9 11  1  0  0  0  0
 11 12  1  6  0  0  0
 11 13  1  0  0  0  0
 13 14  1  0  0  0  0
 13 15  1  6  0  0  0
 15 16  1  0  0  0  0
M  CHG  1   3  -1
M  END
>  <CHROM.1>
-73.90748790,178.20474226,-65.43323919,45.65081463,11.73226269,11.43851066
-0.88838680,-0.56731554,1.59014661

>  <Name>
ligand

>  <RI>
0

>  <Rbt.Current_Directory>
/home/itssahil/PROJECTS/Mol_Feturizer/New_Systems/rnas/2HO7

>  <Rbt.Executable>
rbdock ($Id: //depot/dev/client3/rdock/2013.1/src/exe/rbdock.cxx#4 $)

>  <Rbt.Library>
libRbt.so (2013.1, Build901 2013/11/27)

>  <Rbt.Parameter_File>
/export/apps/rDock/src/rDock_2013.1_src/data/scripts/dock_solv.prm

>  <Rbt.Receptor>
prm/pocket_docking_8.prm

>  <SCORE>
-11.46

>  <SCORE.INTER>
-12.0138

>  <SCORE.INTER.CONST>
1

>  <SCORE.INTER.POLAR>
-1.29904

>  <SCORE.INTER.ROT>
3

>  <SCORE.INTER.SOLV>
18.1401

>  <SCORE.INTER.VDW>
-15.3258

>  <SCORE.INTER.norm>
-0.75086

>  <SCORE.INTRA>
0.553795

>  <SCORE.INTRA.DIHEDRAL>
0.726401

>  <SCORE.INTRA.DIHEDRAL.0>
0.00893466

>  <SCORE.INTRA.POLAR>
0

>  <SCORE.INTRA.POLAR.0>
0

>  <SCORE.INTRA.REPUL>
0

>  <SCORE.INTRA.REPUL.0>
0

>  <SCORE.INTRA.SOLV>
0.468664

>  <SCORE.INTRA.SOLV.lig_0>
-48.9722

>  <SCORE.INTRA.VDW>
-0.0437379

>  <SCORE.INTRA.VDW.0>
-0.529409

>  <SCORE.INTRA.norm>
0.0346122

>  <SCORE.RESTR>
0

>  <SCORE.RESTR.CAVITY>
0

>  <SCORE.RESTR.norm>
0

>  <SCORE.SYSTEM>
0

>  <SCORE.SYSTEM.CONST>
0

>  <SCORE.SYSTEM.DIHEDRAL>
0

>  <SCORE.SYSTEM.SOLV>
0

>  <SCORE.SYSTEM.norm>
0

>  <SCORE.heavy>
16

>  <SCORE.norm>
-0.716248

>  <RMSD>
2.688

$$$$
ligand
 OpenBabel11021811433D
libRbt.so/2013.1/901 2013/11/27
 16 16  0  0  0  0  0  0  0  0999 V2000
   48.8882   13.0269   10.4038 P   0  0  2  0  0  0  0  0  0  0  0  0
   48.5669   12.4631    9.0692 O   0  0  0  0  0  0  0  0  0  0  0  0
   49.7087   14.3988   10.2183 O   0  5  0  0  0  0  0  0  0  0  0  0
   49.7955   11.9683   11.2099 O   0  0  0  0  0  0  0  0  0  0  0  0
   43.2553   13.0232   11.5637 C   0  0  2  0  0  0  0  0  0  0  0  0
   43.2574   14.0371   12.5848 O   0  0  0  0  0  0  0  0  0  0  0  0
   42.6588   11.6983   12.1041 C   0  0  2  0  0  0  0  0  0  0  0  0
   41.2965   11.9287   12.5993 O   0  0  0  0  0  0  0  0  0  0  0  0
   43.5478   11.1969   13.2576 C   0  0  1  0  0  0  0  0  0  0  0  0
   43.0238    9.9676   13.7740 O   0  0  0  0  0  0  0  0  0  0  0  0
   44.9641   10.9671   12.7075 C   0  0  2  0  0  0  0  0  0  0  0  0
   45.8219   10.5066   13.7738 O   0  0  0  0  0  0  0  0  0  0  0  0
   45.4970   12.3128   12.1426 C   0  0  2  0  0  0  0  0  0  0  0  0
   44.6187   12.7890   11.0771 O   0  0  0  0  0  0  0  0  0  0  0  0
   46.9030   12.0837   11.5591 C   0  0  0  0  0  0  0  0  0  0  0  0
   47.5204   13.3326   11.2243 O   0  0  0  0  0  0  0  0  0  0  0  0
  1  2  1  6  0  0  0
  1  3  1  0  0  0  0
  1  4  2  0  0  0  0
  1 16  1  0  0  0  0
  5  6  1  1  0  0  0
  5  7  1  0  0  0  0
  5 14  1  0  0  0  0
  7  8  1  1  0  0  0
  7  9  1  0  0  0  0
  9 10  1  6  0  0  0
  9 11  1  0  0  0  0
 11 12  1  1  0  0  0
 11 13  1  0  0  0  0
 13 14  1  0  0  0  0
 13 15  1  6  0  0  0
 15 16  1  0  0  0  0
M  CHG  1   3  -1
M  END
>  <CHROM.1>
-170.63538913,-171.15694947,68.72993155,45.86103724,12.30228785,11.71656779
0.38744907,0.18712854,-0.62346189

>  <Name>
ligand

>  <RI>
0

>  <Rbt.Current_Directory>
/home/itssahil/PROJECTS/Mol_Feturizer/New_Systems/rnas/2HO7

>  <Rbt.Executable>
rbdock ($Id: //depot/dev/client3/rdock/2013.1/src/exe/rbdock.cxx#4 $)

>  <Rbt.Library>
libRbt.so (2013.1, Build901 2013/11/27)

>  <Rbt.Parameter_File>
/export/apps/rDock/src/rDock_2013.1_src/data/scripts/dock_solv.prm

>  <Rbt.Receptor>
prm/pocket_docking_2.prm

>  <SCORE>
-6.9655

>  <SCORE.INTER>
-7.37373

>  <SCORE.INTER.CONST>
1

>  <SCORE.INTER.POLAR>
-1.29904

>  <SCORE.INTER.ROT>
3

>  <SCORE.INTER.SOLV>
10.9535

>  <SCORE.INTER.VDW>
-9.83685

>  <SCORE.INTER.norm>
-0.460858

>  <SCORE.INTRA>
0.407192

>  <SCORE.INTRA.DIHEDRAL>
0.802993

>  <SCORE.INTRA.DIHEDRAL.0>
0.00893466

>  <SCORE.INTRA.POLAR>
0

>  <SCORE.INTRA.POLAR.0>
0

>  <SCORE.INTRA.REPUL>
0

>  <SCORE.INTRA.REPUL.0>
0

>  <SCORE.INTRA.SOLV>
0.0712988

>  <SCORE.INTRA.SOLV.lig_0>
-48.9722

>  <SCORE.INTRA.VDW>
-0.0299541

>  <SCORE.INTRA.VDW.0>
-0.529409

>  <SCORE.INTRA.norm>
0.0254495

>  <SCORE.RESTR>
0.00104144

>  <SCORE.RESTR.CAVITY>
0.00104144

>  <SCORE.RESTR.norm>
6.50897e-05

>  <SCORE.SYSTEM>
0

>  <SCORE.SYSTEM.CONST>
0

>  <SCORE.SYSTEM.DIHEDRAL>
0

>  <SCORE.SYSTEM.SOLV>
0

>  <SCORE.SYSTEM.norm>
0

>  <SCORE.heavy>
16

>  <SCORE.norm>
-0.435343

>  <RMSD>
2.710

$$$$
ligand
 OpenBabel11021811433D
libRbt.so/2013.1/901 2013/11/27
 16 16  0  0  0  0  0  0  0  0999 V2000
   47.3426   10.6437    8.8886 P   0  0  2  0  0  0  0  0  0  0  0  0
   47.4896   12.0068    8.3206 O   0  0  0  0  0  0  0  0  0  0  0  0
   48.7449   10.1793    9.5270 O   0  5  0  0  0  0  0  0  0  0  0  0
   46.9336    9.6298    7.7061 O   0  0  0  0  0  0  0  0  0  0  0  0
   45.2553   12.0860   14.5772 C   0  0  2  0  0  0  0  0  0  0  0  0
   44.5883   10.8364   14.8303 O   0  0  0  0  0  0  0  0  0  0  0  0
   44.2345   13.1875   14.1929 C   0  0  2  0  0  0  0  0  0  0  0  0
   43.2421   13.3447   15.2628 O   0  0  0  0  0  0  0  0  0  0  0  0
   43.5263   12.7648   12.8920 C   0  0  1  0  0  0  0  0  0  0  0  0
   42.5793   13.7688   12.5077 O   0  0  0  0  0  0  0  0  0  0  0  0
   44.5907   12.6080   11.7948 C   0  0  2  0  0  0  0  0  0  0  0  0
   43.9528   12.2002   10.5653 O   0  0  0  0  0  0  0  0  0  0  0  0
   45.6086   11.5252   12.2479 C   0  0  2  0  0  0  0  0  0  0  0  0
   46.2399   11.9279   13.5019 O   0  0  0  0  0  0  0  0  0  0  0  0
   46.6976   11.3857   11.1686 C   0  0  0  0  0  0  0  0  0  0  0  0
   46.2047   10.6420   10.0474 O   0  0  0  0  0  0  0  0  0  0  0  0
  1  2  1  6  0  0  0
  1  3  1  0  0  0  0
  1  4  2  0  0  0  0
  1 16  1  0  0  0  0
  5  6  1  6  0  0  0
  5  7  1  0  0  0  0
  5 14  1  0  0  0  0
  7  8  1  1  0  0  0
  7  9  1  0  0  0  0
  9 10  1  6  0  0  0
  9 11  1  0  0  0  0
 11 12  1  6  0  0  0
 11 13  1  0  0  0  0
 13 14  1  0  0  0  0
 13 15  1  6  0  0  0
 15 16  1  0  0  0  0
M  CHG  1   3  -1
M  END
>  <CHROM.1>
-76.59784841,174.84488617,-68.93723093,45.60112349,11.69390090,11.50626099
0.89796311,0.57167663,-1.54791973

>  <Name>
ligand

>  <RI>
0

>  <Rbt.Current_Directory>
/home/itssahil/PROJECTS/Mol_Feturizer/New_Systems/rnas/2HO7

>  <Rbt.Executable>
rbdock ($Id: //depot/dev/client3/rdock/2013.1/src/exe/rbdock.cxx#4 $)

>  <Rbt.Library>
libRbt.so (2013.1, Build901 2013/11/27)

>  <Rbt.Parameter_File>
/export/apps/rDock/src/rDock_2013.1_src/data/scripts/dock_solv.prm

>  <Rbt.Receptor>
prm/pocket_docking_6.prm

>  <SCORE>
-11.4414

>  <SCORE.INTER>
-12.2272

>  <SCORE.INTER.CONST>
1

>  <SCORE.INTER.POLAR>
-1.29889

>  <SCORE.INTER.ROT>
3

>  <SCORE.INTER.SOLV>
18.3298

>  <SCORE.INTER.VDW>
-15.5318

>  <SCORE.INTER.norm>
-0.764203

>  <SCORE.INTRA>
0.785845

>  <SCORE.INTRA.DIHEDRAL>
1.18827

>  <SCORE.INTRA.DIHEDRAL.0>
0.00893466

>  <SCORE.INTRA.POLAR>
0

>  <SCORE.INTRA.POLAR.0>
0

>  <SCORE.INTRA.REPUL>
0

>  <SCORE.INTRA.REPUL.0>
0

>  <SCORE.INTRA.SOLV>
0.511614

>  <SCORE.INTRA.SOLV.lig_0>
-48.9722

>  <SCORE.INTRA.VDW>
-0.0640973

>  <SCORE.INTRA.VDW.0>
-0.529409

>  <SCORE.INTRA.norm>
0.0491153

>  <SCORE.RESTR>
0

>  <SCORE.RESTR.CAVITY>
0

>  <SCORE.RESTR.norm>
0

>  <SCORE.SYSTEM>
0

>  <SCORE.SYSTEM.CONST>
0

>  <SCORE.SYSTEM.DIHEDRAL>
0

>  <SCORE.SYSTEM.SOLV>
0

>  <SCORE.SYSTEM.norm>
0

>  <SCORE.heavy>
16

>  <SCORE.norm>
-0.715087

>  <RMSD>
2.713

$$$$
ligand
 OpenBabel11021811433D
libRbt.so/2013.1/901 2013/11/27
 16 16  0  0  0  0  0  0  0  0999 V2000
   47.7278   10.7975    8.9727 P   0  0  2  0  0  0  0  0  0  0  0  0
   46.9540   10.3593    7.7847 O   0  0  0  0  0  0  0  0  0  0  0  0
   48.2572   12.2991    8.7386 O   0  5  0  0  0  0  0  0  0  0  0  0
   48.9872    9.8123    9.1644 O   0  0  0  0  0  0  0  0  0  0  0  0
   45.1125   11.8879   13.9367 C   0  0  2  0  0  0  0  0  0  0  0  0
   44.1904   10.7845   13.9909 O   0  0  0  0  0  0  0  0  0  0  0  0
   44.3600   13.2399   14.0320 C   0  0  2  0  0  0  0  0  0  0  0  0
   43.5754   13.2891   15.2714 O   0  0  0  0  0  0  0  0  0  0  0  0
   43.4167   13.3604   12.8204 C   0  0  1  0  0  0  0  0  0  0  0  0
   42.7108   14.6058   12.8780 O   0  0  0  0  0  0  0  0  0  0  0  0
   44.2672   13.3043   11.5418 C   0  0  2  0  0  0  0  0  0  0  0  0
   43.4037   13.4039   10.3889 O   0  0  0  0  0  0  0  0  0  0  0  0
   45.0299   11.9509   11.5172 C   0  0  2  0  0  0  0  0  0  0  0  0
   45.8888   11.8410   12.6934 O   0  0  0  0  0  0  0  0  0  0  0  0
   45.9105   11.9009   10.2554 C   0  0  0  0  0  0  0  0  0  0  0  0
   46.7852   10.7667   10.2949 O   0  0  0  0  0  0  0  0  0  0  0  0
  1  2  1  6  0  0  0
  1  3  1  0  0  0  0
  1  4  2  0  0  0  0
  1 16  1  0  0  0  0
  5  6  1  6  0  0  0
  5  7  1  0  0  0  0
  5 14  1  0  0  0  0
  7  8  1  1  0  0  0
  7  9  1  0  0  0  0
  9 10  1  1  0  0  0
  9 11  1  0  0  0  0
 11 12  1  6  0  0  0
 11 13  1  0  0  0  0
 13 14  1  0  0  0  0
 13 15  1  6  0  0  0
 15 16  1  0  0  0  0
M  CHG  1   3  -1
M  END
>  <CHROM.1>
171.07292315,-177.78072970,-76.00444581,45.60084641,11.98695917,11.30397103
-0.61500508,-0.72562248,1.86385185

>  <Name>
ligand

>  <RI>
0

>  <Rbt.Current_Directory>
/home/itssahil/PROJECTS/Mol_Feturizer/New_Systems/rnas/2HO7

>  <Rbt.Executable>
rbdock ($Id: //depot/dev/client3/rdock/2013.1/src/exe/rbdock.cxx#4 $)

>  <Rbt.Library>
libRbt.so (2013.1, Build901 2013/11/27)

>  <Rbt.Parameter_File>
/export/apps/rDock/src/rDock_2013.1_src/data/scripts/dock_solv.prm

>  <Rbt.Receptor>
prm/pocket_docking_8.prm

>  <SCORE>
-10.7046

>  <SCORE.INTER>
-11.3573

>  <SCORE.INTER.CONST>
1

>  <SCORE.INTER.POLAR>
-1.29904

>  <SCORE.INTER.ROT>
3

>  <SCORE.INTER.SOLV>
13.7314

>  <SCORE.INTER.VDW>
-13.4186

>  <SCORE.INTER.norm>
-0.709834

>  <SCORE.INTRA>
0.652736

>  <SCORE.INTRA.DIHEDRAL>
0.697922

>  <SCORE.INTRA.DIHEDRAL.0>
0.00893466

>  <SCORE.INTRA.POLAR>
0

>  <SCORE.INTRA.POLAR.0>
0

>  <SCORE.INTRA.REPUL>
0

>  <SCORE.INTRA.REPUL.0>
0

>  <SCORE.INTRA.SOLV>
0.215761

>  <SCORE.INTRA.SOLV.lig_0>
-48.9722

>  <SCORE.INTRA.VDW>
0.195894

>  <SCORE.INTRA.VDW.0>
-0.529409

>  <SCORE.INTRA.norm>
0.040796

>  <SCORE.RESTR>
0

>  <SCORE.RESTR.CAVITY>
0

>  <SCORE.RESTR.norm>
0

>  <SCORE.SYSTEM>
0

>  <SCORE.SYSTEM.CONST>
0

>  <SCORE.SYSTEM.DIHEDRAL>
0

>  <SCORE.SYSTEM.SOLV>
0

>  <SCORE.SYSTEM.norm>
0

>  <SCORE.heavy>
16

>  <SCORE.norm>
-0.669038

>  <RMSD>
2.713

$$$$
ligand
 OpenBabel11021811433D
libRbt.so/2013.1/901 2013/11/27
 16 16  0  0  0  0  0  0  0  0999 V2000
   47.4947   11.3073    9.5479 P   0  0  2  0  0  0  0  0  0  0  0  0
   47.1142    9.9702    9.0286 O   0  0  0  0  0  0  0  0  0  0  0  0
   47.2539   12.4113    8.4020 O   0  5  0  0  0  0  0  0  0  0  0  0
   49.0549   11.2847    9.9466 O   0  0  0  0  0  0  0  0  0  0  0  0
   43.9720   11.6651   14.0525 C   0  0  2  0  0  0  0  0  0  0  0  0
   42.6170   11.2176   13.8673 O   0  0  0  0  0  0  0  0  0  0  0  0
   44.0211   13.1998   14.2657 C   0  0  2  0  0  0  0  0  0  0  0  0
   43.1971   13.5705   15.4223 O   0  0  0  0  0  0  0  0  0  0  0  0
   43.4719   13.8864   13.0011 C   0  0  1  0  0  0  0  0  0  0  0  0
   43.5110   15.3090   13.1664 O   0  0  0  0  0  0  0  0  0  0  0  0
   44.3539   13.4777   11.8110 C   0  0  2  0  0  0  0  0  0  0  0  0
   43.8524   14.1002   10.6086 O   0  0  0  0  0  0  0  0  0  0  0  0
   44.3019   11.9314   11.6682 C   0  0  2  0  0  0  0  0  0  0  0  0
   44.7908   11.3009   12.8917 O   0  0  0  0  0  0  0  0  0  0  0  0
   45.2099   11.5106   10.4983 C   0  0  0  0  0  0  0  0  0  0  0  0
   46.5900   11.6807   10.8439 O   0  0  0  0  0  0  0  0  0  0  0  0
  1  2  1  6  0  0  0
  1  3  1  0  0  0  0
  1  4  2  0  0  0  0
  1 16  1  0  0  0  0
  5  6  1  6  0  0  0
  5  7  1  0  0  0  0
  5 14  1  0  0  0  0
  7  8  1  1  0  0  0
  7  9  1  0  0  0  0
  9 10  1  1  0  0  0
  9 11  1  0  0  0  0
 11 12  1  6  0  0  0
 11 13  1  0  0  0  0
 13 14  1  0  0  0  0
 13 15  1  6  0  0  0
 15 16  1  0  0  0  0
M  CHG  1   3  -1
M  END
>  <CHROM.1>
71.17113374,-176.67702851,-52.10420566,45.25341922,12.28085637,11.62334419
-0.10142602,-0.86260263,2.59224871

>  <Name>
ligand

>  <RI>
0

>  <Rbt.Current_Directory>
/home/itssahil/PROJECTS/Mol_Feturizer/New_Systems/rnas/2HO7

>  <Rbt.Executable>
rbdock ($Id: //depot/dev/client3/rdock/2013.1/src/exe/rbdock.cxx#4 $)

>  <Rbt.Library>
libRbt.so (2013.1, Build901 2013/11/27)

>  <Rbt.Parameter_File>
/export/apps/rDock/src/rDock_2013.1_src/data/scripts/dock_solv.prm

>  <Rbt.Receptor>
prm/blind_docking_60.prm

>  <SCORE>
-9.78081

>  <SCORE.INTER>
-10.1709

>  <SCORE.INTER.CONST>
1

>  <SCORE.INTER.POLAR>
-1.29904

>  <SCORE.INTER.ROT>
3

>  <SCORE.INTER.SOLV>
13.8566

>  <SCORE.INTER.VDW>
-12.6694

>  <SCORE.INTER.norm>
-0.635684

>  <SCORE.INTRA>
0.390133

>  <SCORE.INTRA.DIHEDRAL>
0.583962

>  <SCORE.INTRA.DIHEDRAL.0>
0.00893466

>  <SCORE.INTRA.POLAR>
0

>  <SCORE.INTRA.POLAR.0>
0

>  <SCORE.INTRA.REPUL>
0

>  <SCORE.INTRA.REPUL.0>
0

>  <SCORE.INTRA.SOLV>
0.238625

>  <SCORE.INTRA.SOLV.lig_0>
-48.9722

>  <SCORE.INTRA.VDW>
-0.0211606

>  <SCORE.INTRA.VDW.0>
-0.529409

>  <SCORE.INTRA.norm>
0.0243833

>  <SCORE.RESTR>
0

>  <SCORE.RESTR.CAVITY>
0

>  <SCORE.RESTR.norm>
0

>  <SCORE.SYSTEM>
0

>  <SCORE.SYSTEM.CONST>
0

>  <SCORE.SYSTEM.DIHEDRAL>
0

>  <SCORE.SYSTEM.SOLV>
0

>  <SCORE.SYSTEM.norm>
0

>  <SCORE.heavy>
16

>  <SCORE.norm>
-0.611301

>  <RMSD>
2.715

$$$$
ligand
 OpenBabel11021811433D
libRbt.so/2013.1/901 2013/11/27
 16 16  0  0  0  0  0  0  0  0999 V2000
   47.3636   10.6029    8.8628 P   0  0  2  0  0  0  0  0  0  0  0  0
   47.5895   11.9563    8.2975 O   0  0  0  0  0  0  0  0  0  0  0  0
   48.7291   10.0687    9.5259 O   0  5  0  0  0  0  0  0  0  0  0  0
   46.9250    9.6100    7.6731 O   0  0  0  0  0  0  0  0  0  0  0  0
   45.2791   12.0674   14.5420 C   0  0  2  0  0  0  0  0  0  0  0  0
   44.5617   10.8393   14.7604 O   0  0  0  0  0  0  0  0  0  0  0  0
   44.3048   13.2182   14.1824 C   0  0  2  0  0  0  0  0  0  0  0  0
   43.3143   13.3874   15.2522 O   0  0  0  0  0  0  0  0  0  0  0  0
   43.5867   12.8576   12.8684 C   0  0  1  0  0  0  0  0  0  0  0  0
   42.6822   13.9080   12.5065 O   0  0  0  0  0  0  0  0  0  0  0  0
   44.6492   12.6865   11.7715 C   0  0  2  0  0  0  0  0  0  0  0  0
   44.0016   12.3361   10.5295 O   0  0  0  0  0  0  0  0  0  0  0  0
   45.6211   11.5528   12.2005 C   0  0  2  0  0  0  0  0  0  0  0  0
   46.2619   11.8978   13.4669 O   0  0  0  0  0  0  0  0  0  0  0  0
   46.7088   11.3976   11.1221 C   0  0  0  0  0  0  0  0  0  0  0  0
   46.2068   10.6597   10.0012 O   0  0  0  0  0  0  0  0  0  0  0  0
  1  2  1  6  0  0  0
  1  3  1  0  0  0  0
  1  4  2  0  0  0  0
  1 16  1  0  0  0  0
  5  6  1  6  0  0  0
  5  7  1  0  0  0  0
  5 14  1  0  0  0  0
  7  8  1  1  0  0  0
  7  9  1  0  0  0  0
  9 10  1  6  0  0  0
  9 11  1  0  0  0  0
 11 12  1  6  0  0  0
 11 13  1  0  0  0  0
 13 14  1  0  0  0  0
 13 15  1  6  0  0  0
 15 16  1  0  0  0  0
M  CHG  1   3  -1
M  END
>  <CHROM.1>
-78.75023528,176.70038050,-67.98707966,45.63454806,11.70840780,11.47726317
-0.88066684,-0.61693956,1.61593791

>  <Name>
ligand

>  <RI>
0

>  <Rbt.Current_Directory>
/home/itssahil/PROJECTS/Mol_Feturizer/New_Systems/rnas/2HO7

>  <Rbt.Executable>
rbdock ($Id: //depot/dev/client3/rdock/2013.1/src/exe/rbdock.cxx#4 $)

>  <Rbt.Library>
libRbt.so (2013.1, Build901 2013/11/27)

>  <Rbt.Parameter_File>
/export/apps/rDock/src/rDock_2013.1_src/data/scripts/dock_solv.prm

>  <Rbt.Receptor>
prm/pocket_docking_6.prm

>  <SCORE>
-11.3487

>  <SCORE.INTER>
-12.1543

>  <SCORE.INTER.CONST>
1

>  <SCORE.INTER.POLAR>
-1.29904

>  <SCORE.INTER.ROT>
3

>  <SCORE.INTER.SOLV>
18.2501

>  <SCORE.INTER.VDW>
-15.4561

>  <SCORE.INTER.norm>
-0.759641

>  <SCORE.INTRA>
0.805556

>  <SCORE.INTRA.DIHEDRAL>
1.32349

>  <SCORE.INTRA.DIHEDRAL.0>
0.00893466

>  <SCORE.INTRA.POLAR>
0

>  <SCORE.INTRA.POLAR.0>
0

>  <SCORE.INTRA.REPUL>
0

>  <SCORE.INTRA.REPUL.0>
0

>  <SCORE.INTRA.SOLV>
0.460891

>  <SCORE.INTRA.SOLV.lig_0>
-48.9722

>  <SCORE.INTRA.VDW>
-0.0866363

>  <SCORE.INTRA.VDW.0>
-0.529409

>  <SCORE.INTRA.norm>
0.0503473

>  <SCORE.RESTR>
0

>  <SCORE.RESTR.CAVITY>
0

>  <SCORE.RESTR.norm>
0

>  <SCORE.SYSTEM>
0

>  <SCORE.SYSTEM.CONST>
0

>  <SCORE.SYSTEM.DIHEDRAL>
0

>  <SCORE.SYSTEM.SOLV>
0

>  <SCORE.SYSTEM.norm>
0

>  <SCORE.heavy>
16

>  <SCORE.norm>
-0.709294

>  <RMSD>
2.728

$$$$
ligand
 OpenBabel11021811433D
libRbt.so/2013.1/901 2013/11/27
 16 16  0  0  0  0  0  0  0  0999 V2000
   47.3548   10.6060    8.8852 P   0  0  2  0  0  0  0  0  0  0  0  0
   47.6083   11.9525    8.3153 O   0  0  0  0  0  0  0  0  0  0  0  0
   48.7050   10.0528    9.5641 O   0  5  0  0  0  0  0  0  0  0  0  0
   46.9111    9.6142    7.6965 O   0  0  0  0  0  0  0  0  0  0  0  0
   45.2607   12.1090   14.5525 C   0  0  2  0  0  0  0  0  0  0  0  0
   44.5375   10.8859   14.7795 O   0  0  0  0  0  0  0  0  0  0  0  0
   44.2923   13.2604   14.1787 C   0  0  2  0  0  0  0  0  0  0  0  0
   43.2986   13.4434   15.2433 O   0  0  0  0  0  0  0  0  0  0  0  0
   43.5775   12.8906   12.8655 C   0  0  1  0  0  0  0  0  0  0  0  0
   42.6786   13.9413   12.4906 O   0  0  0  0  0  0  0  0  0  0  0  0
   44.6433   12.7052   11.7741 C   0  0  2  0  0  0  0  0  0  0  0  0
   43.9988   12.3460   10.5330 O   0  0  0  0  0  0  0  0  0  0  0  0
   45.6090   11.5715   12.2170 C   0  0  2  0  0  0  0  0  0  0  0  0
   46.2466   11.9256   13.4825 O   0  0  0  0  0  0  0  0  0  0  0  0
   46.7000   11.4021   11.1441 C   0  0  0  0  0  0  0  0  0  0  0  0
   46.1883   10.6877   10.0123 O   0  0  0  0  0  0  0  0  0  0  0  0
  1  2  1  6  0  0  0
  1  3  1  0  0  0  0
  1  4  2  0  0  0  0
  1 16  1  0  0  0  0
  5  6  1  6  0  0  0
  5  7  1  0  0  0  0
  5 14  1  0  0  0  0
  7  8  1  1  0  0  0
  7  9  1  0  0  0  0
  9 10  1  6  0  0  0
  9 11  1  0  0  0  0
 11 12  1  6  0  0  0
 11 13  1  0  0  0  0
 13 14  1  0  0  0  0
 13 15  1  6  0  0  0
 15 16  1  0  0  0  0
M  CHG  1   3  -1
M  END
>  <CHROM.1>
-77.16496126,177.11794503,-69.02462033,45.62374665,11.72864466,11.48893995
-0.87821677,-0.61936482,1.61154465

>  <Name>
ligand

>  <RI>
0

>  <Rbt.Current_Directory>
/home/itssahil/PROJECTS/Mol_Feturizer/New_Systems/rnas/2HO7

>  <Rbt.Executable>
rbdock ($Id: //depot/dev/client3/rdock/2013.1/src/exe/rbdock.cxx#4 $)

>  <Rbt.Library>
libRbt.so (2013.1, Build901 2013/11/27)

>  <Rbt.Parameter_File>
/export/apps/rDock/src/rDock_2013.1_src/data/scripts/dock_solv.prm

>  <Rbt.Receptor>
prm/pocket_docking_6.prm

>  <SCORE>
-11.3484

>  <SCORE.INTER>
-12.1118

>  <SCORE.INTER.CONST>
1

>  <SCORE.INTER.POLAR>
-1.29904

>  <SCORE.INTER.ROT>
3

>  <SCORE.INTER.SOLV>
18.2438

>  <SCORE.INTER.VDW>
-15.4257

>  <SCORE.INTER.norm>
-0.756987

>  <SCORE.INTRA>
0.763391

>  <SCORE.INTRA.DIHEDRAL>
1.16197

>  <SCORE.INTRA.DIHEDRAL.0>
0.00893466

>  <SCORE.INTRA.POLAR>
0

>  <SCORE.INTRA.POLAR.0>
0

>  <SCORE.INTRA.REPUL>
0

>  <SCORE.INTRA.REPUL.0>
0

>  <SCORE.INTRA.SOLV>
0.483261

>  <SCORE.INTRA.SOLV.lig_0>
-48.9722

>  <SCORE.INTRA.VDW>
-0.0592223

>  <SCORE.INTRA.VDW.0>
-0.529409

>  <SCORE.INTRA.norm>
0.047712

>  <SCORE.RESTR>
0

>  <SCORE.RESTR.CAVITY>
0

>  <SCORE.RESTR.norm>
0

>  <SCORE.SYSTEM>
0

>  <SCORE.SYSTEM.CONST>
0

>  <SCORE.SYSTEM.DIHEDRAL>
0

>  <SCORE.SYSTEM.SOLV>
0

>  <SCORE.SYSTEM.norm>
0

>  <SCORE.heavy>
16

>  <SCORE.norm>
-0.709275

>  <RMSD>
2.728

$$$$
ligand
 OpenBabel11021811433D
libRbt.so/2013.1/901 2013/11/27
 16 16  0  0  0  0  0  0  0  0999 V2000
   47.3430   10.6068    8.8927 P   0  0  2  0  0  0  0  0  0  0  0  0
   47.5664   11.9551    8.3143 O   0  0  0  0  0  0  0  0  0  0  0  0
   48.7091   10.0821    9.5620 O   0  5  0  0  0  0  0  0  0  0  0  0
   46.9072    9.6013    7.7126 O   0  0  0  0  0  0  0  0  0  0  0  0
   45.2745   12.0867   14.5756 C   0  0  2  0  0  0  0  0  0  0  0  0
   44.5701   10.8540   14.8099 O   0  0  0  0  0  0  0  0  0  0  0  0
   44.2875   13.2241   14.2082 C   0  0  2  0  0  0  0  0  0  0  0  0
   43.3000   13.3949   15.2804 O   0  0  0  0  0  0  0  0  0  0  0  0
   43.5673   12.8427   12.9011 C   0  0  1  0  0  0  0  0  0  0  0  0
   42.6511   13.8805   12.5322 O   0  0  0  0  0  0  0  0  0  0  0  0
   44.6268   12.6705   11.8015 C   0  0  2  0  0  0  0  0  0  0  0  0
   43.9774   12.3008   10.5660 O   0  0  0  0  0  0  0  0  0  0  0  0
   45.6116   11.5508   12.2381 C   0  0  2  0  0  0  0  0  0  0  0  0
   46.2543   11.9153   13.4980 O   0  0  0  0  0  0  0  0  0  0  0  0
   46.6961   11.3949   11.1567 C   0  0  0  0  0  0  0  0  0  0  0  0
   46.1852   10.6724   10.0297 O   0  0  0  0  0  0  0  0  0  0  0  0
  1  2  1  6  0  0  0
  1  3  1  0  0  0  0
  1  4  2  0  0  0  0
  1 16  1  0  0  0  0
  5  6  1  6  0  0  0
  5  7  1  0  0  0  0
  5 14  1  0  0  0  0
  7  8  1  1  0  0  0
  7  9  1  0  0  0  0
  9 10  1  6  0  0  0
  9 11  1  0  0  0  0
 11 12  1  6  0  0  0
 11 13  1  0  0  0  0
 13 14  1  0  0  0  0
 13 15  1  6  0  0  0
 15 16  1  0  0  0  0
M  CHG  1   3  -1
M  END
>  <CHROM.1>
-77.14544262,177.04564750,-69.35547217,45.61806240,11.70790792,11.50936236
-0.88887692,-0.60575918,1.60439800

>  <Name>
ligand

>  <RI>
0

>  <Rbt.Current_Directory>
/home/itssahil/PROJECTS/Mol_Feturizer/New_Systems/rnas/2HO7

>  <Rbt.Executable>
rbdock ($Id: //depot/dev/client3/rdock/2013.1/src/exe/rbdock.cxx#4 $)

>  <Rbt.Library>
libRbt.so (2013.1, Build901 2013/11/27)

>  <Rbt.Parameter_File>
/export/apps/rDock/src/rDock_2013.1_src/data/scripts/dock_solv.prm

>  <Rbt.Receptor>
prm/pocket_docking_6.prm

>  <SCORE>
-11.4132

>  <SCORE.INTER>
-12.1872

>  <SCORE.INTER.CONST>
1

>  <SCORE.INTER.POLAR>
-1.29904

>  <SCORE.INTER.ROT>
3

>  <SCORE.INTER.SOLV>
18.3836

>  <SCORE.INTER.VDW>
-15.5226

>  <SCORE.INTER.norm>
-0.761703

>  <SCORE.INTRA>
0.774001

>  <SCORE.INTRA.DIHEDRAL>
1.17158

>  <SCORE.INTRA.DIHEDRAL.0>
0.00893466

>  <SCORE.INTRA.POLAR>
0

>  <SCORE.INTRA.POLAR.0>
0

>  <SCORE.INTRA.REPUL>
0

>  <SCORE.INTRA.REPUL.0>
0

>  <SCORE.INTRA.SOLV>
0.487527

>  <SCORE.INTRA.SOLV.lig_0>
-48.9722

>  <SCORE.INTRA.VDW>
-0.0555514

>  <SCORE.INTRA.VDW.0>
-0.529409

>  <SCORE.INTRA.norm>
0.0483751

>  <SCORE.RESTR>
0

>  <SCORE.RESTR.CAVITY>
0

>  <SCORE.RESTR.norm>
0

>  <SCORE.SYSTEM>
0

>  <SCORE.SYSTEM.CONST>
0

>  <SCORE.SYSTEM.DIHEDRAL>
0

>  <SCORE.SYSTEM.SOLV>
0

>  <SCORE.SYSTEM.norm>
0

>  <SCORE.heavy>
16

>  <SCORE.norm>
-0.713328

>  <RMSD>
2.729

$$$$
ligand
 OpenBabel11021811433D
libRbt.so/2013.1/901 2013/11/27
 16 16  0  0  0  0  0  0  0  0999 V2000
   47.4002   10.6939    9.2044 P   0  0  2  0  0  0  0  0  0  0  0  0
   47.1575   11.7376    8.1778 O   0  0  0  0  0  0  0  0  0  0  0  0
   48.8373   10.9412    9.8851 O   0  5  0  0  0  0  0  0  0  0  0  0
   47.3902    9.2506    8.4901 O   0  0  0  0  0  0  0  0  0  0  0  0
   44.4152   11.8574   14.1080 C   0  0  2  0  0  0  0  0  0  0  0  0
   43.2701   11.0578   13.7614 O   0  0  0  0  0  0  0  0  0  0  0  0
   44.0118   13.3410   14.3058 C   0  0  2  0  0  0  0  0  0  0  0  0
   42.9816   13.4446   15.3461 O   0  0  0  0  0  0  0  0  0  0  0  0
   43.4542   13.8774   12.9740 C   0  0  1  0  0  0  0  0  0  0  0  0
   43.0781   15.2516   13.1246 O   0  0  0  0  0  0  0  0  0  0  0  0
   44.5543   13.7541   11.9082 C   0  0  2  0  0  0  0  0  0  0  0  0
   44.0523   14.2406   10.6448 O   0  0  0  0  0  0  0  0  0  0  0  0
   44.9496   12.2570   11.7800 C   0  0  2  0  0  0  0  0  0  0  0  0
   45.4391   11.7588   13.0628 O   0  0  0  0  0  0  0  0  0  0  0  0
   46.0753   12.1288   10.7377 C   0  0  0  0  0  0  0  0  0  0  0  0
   46.2511   10.7606   10.3502 O   0  0  0  0  0  0  0  0  0  0  0  0
  1  2  1  6  0  0  0
  1  3  1  0  0  0  0
  1  4  2  0  0  0  0
  1 16  1  0  0  0  0
  5  6  1  6  0  0  0
  5  7  1  0  0  0  0
  5 14  1  0  0  0  0
  7  8  1  1  0  0  0
  7  9  1  0  0  0  0
  9 10  1  1  0  0  0
  9 11  1  0  0  0  0
 11 12  1  6  0  0  0
 11 13  1  0  0  0  0
 13 14  1  0  0  0  0
 13 15  1  6  0  0  0
 15 16  1  0  0  0  0
M  CHG  1   3  -1
M  END
>  <CHROM.1>
-166.12668031,177.47211311,-46.47962866,45.38444701,12.13645528,11.52488332
-0.19252089,-0.92734639,2.36524933

>  <Name>
ligand

>  <RI>
0

>  <Rbt.Current_Directory>
/home/itssahil/PROJECTS/Mol_Feturizer/New_Systems/rnas/2HO7

>  <Rbt.Executable>
rbdock ($Id: //depot/dev/client3/rdock/2013.1/src/exe/rbdock.cxx#4 $)

>  <Rbt.Library>
libRbt.so (2013.1, Build901 2013/11/27)

>  <Rbt.Parameter_File>
/export/apps/rDock/src/rDock_2013.1_src/data/scripts/dock_solv.prm

>  <Rbt.Receptor>
prm/pocket_docking_7.prm

>  <SCORE>
-10.4208

>  <SCORE.INTER>
-11.0042

>  <SCORE.INTER.CONST>
1

>  <SCORE.INTER.POLAR>
-1.29904

>  <SCORE.INTER.ROT>
3

>  <SCORE.INTER.SOLV>
14.8137

>  <SCORE.INTER.VDW>
-13.5439

>  <SCORE.INTER.norm>
-0.687761

>  <SCORE.INTRA>
0.5834

>  <SCORE.INTRA.DIHEDRAL>
0.97526

>  <SCORE.INTRA.DIHEDRAL.0>
0.00893466

>  <SCORE.INTRA.POLAR>
0

>  <SCORE.INTRA.POLAR.0>
0

>  <SCORE.INTRA.REPUL>
0

>  <SCORE.INTRA.REPUL.0>
0

>  <SCORE.INTRA.SOLV>
-0.185041

>  <SCORE.INTRA.SOLV.lig_0>
-48.9722

>  <SCORE.INTRA.VDW>
0.188291

>  <SCORE.INTRA.VDW.0>
-0.529409

>  <SCORE.INTRA.norm>
0.0364625

>  <SCORE.RESTR>
0

>  <SCORE.RESTR.CAVITY>
0

>  <SCORE.RESTR.norm>
0

>  <SCORE.SYSTEM>
0

>  <SCORE.SYSTEM.CONST>
0

>  <SCORE.SYSTEM.DIHEDRAL>
0

>  <SCORE.SYSTEM.SOLV>
0

>  <SCORE.SYSTEM.norm>
0

>  <SCORE.heavy>
16

>  <SCORE.norm>
-0.651299

>  <RMSD>
2.745

$$$$
ligand
 OpenBabel11021811433D
libRbt.so/2013.1/901 2013/11/27
 16 16  0  0  0  0  0  0  0  0999 V2000
   47.4575   10.7038    9.1600 P   0  0  2  0  0  0  0  0  0  0  0  0
   47.1989   11.7229    8.1126 O   0  0  0  0  0  0  0  0  0  0  0  0
   48.8890   10.9890    9.8377 O   0  5  0  0  0  0  0  0  0  0  0  0
   47.4734    9.2468    8.4741 O   0  0  0  0  0  0  0  0  0  0  0  0
   44.4043   11.7655   14.0496 C   0  0  2  0  0  0  0  0  0  0  0  0
   43.2198   11.0727   13.6164 O   0  0  0  0  0  0  0  0  0  0  0  0
   44.0974   13.2589   14.3303 C   0  0  2  0  0  0  0  0  0  0  0  0
   43.0404   13.3704   15.3424 O   0  0  0  0  0  0  0  0  0  0  0  0
   43.6261   13.9156   13.0193 C   0  0  1  0  0  0  0  0  0  0  0  0
   43.3406   15.3010   13.2467 O   0  0  0  0  0  0  0  0  0  0  0  0
   44.7524   13.7810   11.9826 C   0  0  2  0  0  0  0  0  0  0  0  0
   44.3305   14.3800   10.7383 O   0  0  0  0  0  0  0  0  0  0  0  0
   45.0477   12.2705   11.7702 C   0  0  2  0  0  0  0  0  0  0  0  0
   45.4556   11.6598   13.0326 O   0  0  0  0  0  0  0  0  0  0  0  0
   46.1983   12.1278   10.7573 C   0  0  0  0  0  0  0  0  0  0  0  0
   46.3054   10.7733   10.3025 O   0  0  0  0  0  0  0  0  0  0  0  0
  1  2  1  6  0  0  0
  1  3  1  0  0  0  0
  1  4  2  0  0  0  0
  1 16  1  0  0  0  0
  5  6  1  6  0  0  0
  5  7  1  0  0  0  0
  5 14  1  0  0  0  0
  7  8  1  1  0  0  0
  7  9  1  0  0  0  0
  9 10  1  1  0  0  0
  9 11  1  0  0  0  0
 11 12  1  6  0  0  0
 11 13  1  0  0  0  0
 13 14  1  0  0  0  0
 13 15  1  6  0  0  0
 15 16  1  0  0  0  0
M  CHG  1   3  -1
M  END
>  <CHROM.1>
-166.96958405,175.87694586,-52.11674403,45.47615440,12.13728764,11.51565008
-0.06297182,-0.94951687,2.53697921

>  <Name>
ligand

>  <RI>
0

>  <Rbt.Current_Directory>
/home/itssahil/PROJECTS/Mol_Feturizer/New_Systems/rnas/2HO7

>  <Rbt.Executable>
rbdock ($Id: //depot/dev/client3/rdock/2013.1/src/exe/rbdock.cxx#4 $)

>  <Rbt.Library>
libRbt.so (2013.1, Build901 2013/11/27)

>  <Rbt.Parameter_File>
/export/apps/rDock/src/rDock_2013.1_src/data/scripts/dock_solv.prm

>  <Rbt.Receptor>
prm/pocket_docking_7.prm

>  <SCORE>
-10.6852

>  <SCORE.INTER>
-11.0919

>  <SCORE.INTER.CONST>
1

>  <SCORE.INTER.POLAR>
-1.29858

>  <SCORE.INTER.ROT>
3

>  <SCORE.INTER.SOLV>
14.7351

>  <SCORE.INTER.VDW>
-13.5777

>  <SCORE.INTER.norm>
-0.693243

>  <SCORE.INTRA>
0.406739

>  <SCORE.INTRA.DIHEDRAL>
0.764827

>  <SCORE.INTRA.DIHEDRAL.0>
0.00893466

>  <SCORE.INTRA.POLAR>
0

>  <SCORE.INTRA.POLAR.0>
0

>  <SCORE.INTRA.REPUL>
0

>  <SCORE.INTRA.REPUL.0>
0

>  <SCORE.INTRA.SOLV>
-0.140619

>  <SCORE.INTRA.SOLV.lig_0>
-48.9722

>  <SCORE.INTRA.VDW>
0.0946353

>  <SCORE.INTRA.VDW.0>
-0.529409

>  <SCORE.INTRA.norm>
0.0254212

>  <SCORE.RESTR>
0

>  <SCORE.RESTR.CAVITY>
0

>  <SCORE.RESTR.norm>
0

>  <SCORE.SYSTEM>
0

>  <SCORE.SYSTEM.CONST>
0

>  <SCORE.SYSTEM.DIHEDRAL>
0

>  <SCORE.SYSTEM.SOLV>
0

>  <SCORE.SYSTEM.norm>
0

>  <SCORE.heavy>
16

>  <SCORE.norm>
-0.667822

>  <RMSD>
2.750

$$$$
ligand
 OpenBabel11021811433D
libRbt.so/2013.1/901 2013/11/27
 16 16  0  0  0  0  0  0  0  0999 V2000
   47.9634   12.5495   10.2595 P   0  0  2  0  0  0  0  0  0  0  0  0
   47.7537   12.3647    8.8021 O   0  0  0  0  0  0  0  0  0  0  0  0
   48.6360   13.9877   10.5220 O   0  5  0  0  0  0  0  0  0  0  0  0
   48.9506   11.3942   10.7926 O   0  0  0  0  0  0  0  0  0  0  0  0
   43.2731   13.6093   13.4315 C   0  0  2  0  0  0  0  0  0  0  0  0
   43.4720   13.8891   14.8290 O   0  0  0  0  0  0  0  0  0  0  0  0
   42.5834   12.2345   13.2377 C   0  0  2  0  0  0  0  0  0  0  0  0
   41.3011   12.2134   13.9514 O   0  0  0  0  0  0  0  0  0  0  0  0
   43.5068   11.1404   13.8057 C   0  0  1  0  0  0  0  0  0  0  0  0
   42.8974    9.8552   13.6344 O   0  0  0  0  0  0  0  0  0  0  0  0
   44.8380   11.1899   13.0397 C   0  0  2  0  0  0  0  0  0  0  0  0
   45.7275   10.1794   13.5618 O   0  0  0  0  0  0  0  0  0  0  0  0
   45.4647   12.5984   13.2328 C   0  0  2  0  0  0  0  0  0  0  0  0
   44.5568   13.6225   12.7227 O   0  0  0  0  0  0  0  0  0  0  0  0
   46.7830   12.6674   12.4408 C   0  0  0  0  0  0  0  0  0  0  0  0
   46.5417   12.4773   11.0413 O   0  0  0  0  0  0  0  0  0  0  0  0
  1  2  1  6  0  0  0
  1  3  1  0  0  0  0
  1  4  2  0  0  0  0
  1 16  1  0  0  0  0
  5  6  1  1  0  0  0
  5  7  1  0  0  0  0
  5 14  1  0  0  0  0
  7  8  1  1  0  0  0
  7  9  1  0  0  0  0
  9 10  1  6  0  0  0
  9 11  1  0  0  0  0
 11 12  1  1  0  0  0
 11 13  1  0  0  0  0
 13 14  1  0  0  0  0
 13 15  1  6  0  0  0
 15 16  1  0  0  0  0
M  CHG  1   3  -1
M  END
>  <CHROM.1>
61.46983992,-179.61518883,-179.65756627,45.49092898,12.26831149,12.27483473
0.12592487,0.59515632,-0.08060030

>  <Name>
ligand

>  <RI>
0

>  <Rbt.Current_Directory>
/home/itssahil/PROJECTS/Mol_Feturizer/New_Systems/rnas/2HO7

>  <Rbt.Executable>
rbdock ($Id: //depot/dev/client3/rdock/2013.1/src/exe/rbdock.cxx#4 $)

>  <Rbt.Library>
libRbt.so (2013.1, Build901 2013/11/27)

>  <Rbt.Parameter_File>
/export/apps/rDock/src/rDock_2013.1_src/data/scripts/dock_solv.prm

>  <Rbt.Receptor>
prm/pocket_docking_7.prm

>  <SCORE>
-9.98397

>  <SCORE.INTER>
-10.2538

>  <SCORE.INTER.CONST>
1

>  <SCORE.INTER.POLAR>
-1.29896

>  <SCORE.INTER.ROT>
3

>  <SCORE.INTER.SOLV>
14.5929

>  <SCORE.INTER.VDW>
-12.9703

>  <SCORE.INTER.norm>
-0.640862

>  <SCORE.INTRA>
0.26983

>  <SCORE.INTRA.DIHEDRAL>
-0.000194072

>  <SCORE.INTRA.DIHEDRAL.0>
0.00893466

>  <SCORE.INTRA.POLAR>
0

>  <SCORE.INTRA.POLAR.0>
0

>  <SCORE.INTRA.REPUL>
0

>  <SCORE.INTRA.REPUL.0>
0

>  <SCORE.INTRA.SOLV>
0.911261

>  <SCORE.INTRA.SOLV.lig_0>
-48.9722

>  <SCORE.INTRA.VDW>
-0.185704

>  <SCORE.INTRA.VDW.0>
-0.529409

>  <SCORE.INTRA.norm>
0.0168644

>  <SCORE.RESTR>
0

>  <SCORE.RESTR.CAVITY>
0

>  <SCORE.RESTR.norm>
0

>  <SCORE.SYSTEM>
0

>  <SCORE.SYSTEM.CONST>
0

>  <SCORE.SYSTEM.DIHEDRAL>
0

>  <SCORE.SYSTEM.SOLV>
0

>  <SCORE.SYSTEM.norm>
0

>  <SCORE.heavy>
16

>  <SCORE.norm>
-0.623998

>  <RMSD>
2.757

$$$$
ligand
 OpenBabel11021811433D
libRbt.so/2013.1/901 2013/11/27
 16 16  0  0  0  0  0  0  0  0999 V2000
   47.5260   10.6986    8.8572 P   0  0  2  0  0  0  0  0  0  0  0  0
   47.0610   10.0158    7.6244 O   0  0  0  0  0  0  0  0  0  0  0  0
   48.0589   12.1699    8.4818 O   0  5  0  0  0  0  0  0  0  0  0  0
   48.7297    9.8443    9.5013 O   0  0  0  0  0  0  0  0  0  0  0  0
   45.2813   11.9880   14.5169 C   0  0  2  0  0  0  0  0  0  0  0  0
   44.5439   10.7614   14.6666 O   0  0  0  0  0  0  0  0  0  0  0  0
   44.3312   13.1637   14.1737 C   0  0  2  0  0  0  0  0  0  0  0  0
   43.3113   13.3042   15.2198 O   0  0  0  0  0  0  0  0  0  0  0  0
   43.6484   12.8627   12.8262 C   0  0  1  0  0  0  0  0  0  0  0  0
   42.7671   13.9374   12.4789 O   0  0  0  0  0  0  0  0  0  0  0  0
   44.7411   12.7205   11.7552 C   0  0  2  0  0  0  0  0  0  0  0  0
   44.1268   12.4261   10.4821 O   0  0  0  0  0  0  0  0  0  0  0  0
   45.6869   11.5592   12.1683 C   0  0  2  0  0  0  0  0  0  0  0  0
   46.2936   11.8474   13.4652 O   0  0  0  0  0  0  0  0  0  0  0  0
   46.8044   11.4319   11.1170 C   0  0  0  0  0  0  0  0  0  0  0  0
   46.3025   10.8310    9.9170 O   0  0  0  0  0  0  0  0  0  0  0  0
  1  2  1  6  0  0  0
  1  3  1  0  0  0  0
  1  4  2  0  0  0  0
  1 16  1  0  0  0  0
  5  6  1  6  0  0  0
  5  7  1  0  0  0  0
  5 14  1  0  0  0  0
  7  8  1  1  0  0  0
  7  9  1  0  0  0  0
  9 10  1  6  0  0  0
  9 11  1  0  0  0  0
 11 12  1  6  0  0  0
 11 13  1  0  0  0  0
 13 14  1  0  0  0  0
 13 15  1  6  0  0  0
 15 16  1  0  0  0  0
M  CHG  1   3  -1
M  END
>  <CHROM.1>
-74.55849747,-179.02411614,177.11177973,45.73043010,11.74728968,11.45883132
-0.82741873,-0.63740533,1.69631377

>  <Name>
ligand

>  <RI>
0

>  <Rbt.Current_Directory>
/home/itssahil/PROJECTS/Mol_Feturizer/New_Systems/rnas/2HO7

>  <Rbt.Executable>
rbdock ($Id: //depot/dev/client3/rdock/2013.1/src/exe/rbdock.cxx#4 $)

>  <Rbt.Library>
libRbt.so (2013.1, Build901 2013/11/27)

>  <Rbt.Parameter_File>
/export/apps/rDock/src/rDock_2013.1_src/data/scripts/dock_solv.prm

>  <Rbt.Receptor>
prm/blind_docking_60.prm

>  <SCORE>
-12.1166

>  <SCORE.INTER>
-12.8485

>  <SCORE.INTER.CONST>
1

>  <SCORE.INTER.POLAR>
-1.29904

>  <SCORE.INTER.ROT>
3

>  <SCORE.INTER.SOLV>
15.912

>  <SCORE.INTER.VDW>
-15.1396

>  <SCORE.INTER.norm>
-0.803034

>  <SCORE.INTRA>
0.731957

>  <SCORE.INTRA.DIHEDRAL>
0.741501

>  <SCORE.INTRA.DIHEDRAL.0>
0.00893466

>  <SCORE.INTRA.POLAR>
0

>  <SCORE.INTRA.POLAR.0>
0

>  <SCORE.INTRA.REPUL>
0

>  <SCORE.INTRA.REPUL.0>
0

>  <SCORE.INTRA.SOLV>
1.03988

>  <SCORE.INTRA.SOLV.lig_0>
-48.9722

>  <SCORE.INTRA.VDW>
-0.158732

>  <SCORE.INTRA.VDW.0>
-0.529409

>  <SCORE.INTRA.norm>
0.0457473

>  <SCORE.RESTR>
0

>  <SCORE.RESTR.CAVITY>
0

>  <SCORE.RESTR.norm>
0

>  <SCORE.SYSTEM>
0

>  <SCORE.SYSTEM.CONST>
0

>  <SCORE.SYSTEM.DIHEDRAL>
0

>  <SCORE.SYSTEM.SOLV>
0

>  <SCORE.SYSTEM.norm>
0

>  <SCORE.heavy>
16

>  <SCORE.norm>
-0.757287

>  <RMSD>
2.758

$$$$
ligand
 OpenBabel11021811433D
libRbt.so/2013.1/901 2013/11/27
 16 16  0  0  0  0  0  0  0  0999 V2000
   47.9344   12.5278   10.2429 P   0  0  2  0  0  0  0  0  0  0  0  0
   47.7153   12.3341    8.7880 O   0  0  0  0  0  0  0  0  0  0  0  0
   48.5799   13.9802   10.4949 O   0  5  0  0  0  0  0  0  0  0  0  0
   48.9498   11.3946   10.7705 O   0  0  0  0  0  0  0  0  0  0  0  0
   43.2713   13.6134   13.4564 C   0  0  2  0  0  0  0  0  0  0  0  0
   43.4822   13.8781   14.8550 O   0  0  0  0  0  0  0  0  0  0  0  0
   42.5710   12.2453   13.2541 C   0  0  2  0  0  0  0  0  0  0  0  0
   41.2938   12.2257   13.9769 O   0  0  0  0  0  0  0  0  0  0  0  0
   43.4911   11.1394   13.8045 C   0  0  1  0  0  0  0  0  0  0  0  0
   42.8718    9.8601   13.6251 O   0  0  0  0  0  0  0  0  0  0  0  0
   44.8170   11.1877   13.0293 C   0  0  2  0  0  0  0  0  0  0  0  0
   45.7034   10.1662   13.5349 O   0  0  0  0  0  0  0  0  0  0  0  0
   45.4546   12.5900   13.2317 C   0  0  2  0  0  0  0  0  0  0  0  0
   44.5499   13.6251   12.7383 O   0  0  0  0  0  0  0  0  0  0  0  0
   46.7675   12.6580   12.4307 C   0  0  0  0  0  0  0  0  0  0  0  0
   46.5216   12.4291   11.0378 O   0  0  0  0  0  0  0  0  0  0  0  0
  1  2  1  6  0  0  0
  1  3  1  0  0  0  0
  1  4  2  0  0  0  0
  1 16  1  0  0  0  0
  5  6  1  1  0  0  0
  5  7  1  0  0  0  0
  5 14  1  0  0  0  0
  7  8  1  1  0  0  0
  7  9  1  0  0  0  0
  9 10  1  6  0  0  0
  9 11  1  0  0  0  0
 11 12  1  1  0  0  0
 11 13  1  0  0  0  0
 13 14  1  0  0  0  0
 13 15  1  6  0  0  0
 15 16  1  0  0  0  0
M  CHG  1   3  -1
M  END
>  <CHROM.1>
59.11609354,179.41154728,-178.39366336,45.47277714,12.25961462,12.27145103
0.11195177,0.60269681,-0.06357569

>  <Name>
ligand

>  <RI>
0

>  <Rbt.Current_Directory>
/home/itssahil/PROJECTS/Mol_Feturizer/New_Systems/rnas/2HO7

>  <Rbt.Executable>
rbdock ($Id: //depot/dev/client3/rdock/2013.1/src/exe/rbdock.cxx#4 $)

>  <Rbt.Library>
libRbt.so (2013.1, Build901 2013/11/27)

>  <Rbt.Parameter_File>
/export/apps/rDock/src/rDock_2013.1_src/data/scripts/dock_solv.prm

>  <Rbt.Receptor>
prm/pocket_docking_5.prm

>  <SCORE>
-9.91638

>  <SCORE.INTER>
-10.2073

>  <SCORE.INTER.CONST>
1

>  <SCORE.INTER.POLAR>
-1.29596

>  <SCORE.INTER.ROT>
3

>  <SCORE.INTER.SOLV>
14.5915

>  <SCORE.INTER.VDW>
-12.9488

>  <SCORE.INTER.norm>
-0.637954

>  <SCORE.INTRA>
0.290875

>  <SCORE.INTRA.DIHEDRAL>
-7.80484e-05

>  <SCORE.INTRA.DIHEDRAL.0>
0.00893466

>  <SCORE.INTRA.POLAR>
0

>  <SCORE.INTRA.POLAR.0>
0

>  <SCORE.INTRA.REPUL>
0

>  <SCORE.INTRA.REPUL.0>
0

>  <SCORE.INTRA.SOLV>
0.908888

>  <SCORE.INTRA.SOLV.lig_0>
-48.9722

>  <SCORE.INTRA.VDW>
-0.16353

>  <SCORE.INTRA.VDW.0>
-0.529409

>  <SCORE.INTRA.norm>
0.0181797

>  <SCORE.RESTR>
0

>  <SCORE.RESTR.CAVITY>
0

>  <SCORE.RESTR.norm>
0

>  <SCORE.SYSTEM>
0

>  <SCORE.SYSTEM.CONST>
0

>  <SCORE.SYSTEM.DIHEDRAL>
0

>  <SCORE.SYSTEM.SOLV>
0

>  <SCORE.SYSTEM.norm>
0

>  <SCORE.heavy>
16

>  <SCORE.norm>
-0.619774

>  <RMSD>
2.762

$$$$
ligand
 OpenBabel11021811433D
libRbt.so/2013.1/901 2013/11/27
 16 16  0  0  0  0  0  0  0  0999 V2000
   47.9851   12.5678   10.2542 P   0  0  2  0  0  0  0  0  0  0  0  0
   47.8041   12.3512    8.7973 O   0  0  0  0  0  0  0  0  0  0  0  0
   48.5824   14.0413   10.5028 O   0  5  0  0  0  0  0  0  0  0  0  0
   49.0210   11.4709   10.8175 O   0  0  0  0  0  0  0  0  0  0  0  0
   43.2124   13.5376   13.3014 C   0  0  2  0  0  0  0  0  0  0  0  0
   43.3747   13.8842   14.6885 O   0  0  0  0  0  0  0  0  0  0  0  0
   42.5715   12.1336   13.1557 C   0  0  2  0  0  0  0  0  0  0  0  0
   41.2768   12.1009   13.8462 O   0  0  0  0  0  0  0  0  0  0  0  0
   43.5184   11.0963   13.7879 C   0  0  1  0  0  0  0  0  0  0  0  0
   42.9543    9.7854   13.6622 O   0  0  0  0  0  0  0  0  0  0  0  0
   44.8621   11.1568   13.0448 C   0  0  2  0  0  0  0  0  0  0  0  0
   45.7734   10.1999   13.6268 O   0  0  0  0  0  0  0  0  0  0  0  0
   45.4390   12.5923   13.1872 C   0  0  2  0  0  0  0  0  0  0  0  0
   44.5086   13.5626   12.6161 O   0  0  0  0  0  0  0  0  0  0  0  0
   46.7697   12.6706   12.4169 C   0  0  0  0  0  0  0  0  0  0  0  0
   46.5584   12.4368   11.0192 O   0  0  0  0  0  0  0  0  0  0  0  0
  1  2  1  6  0  0  0
  1  3  1  0  0  0  0
  1  4  2  0  0  0  0
  1 16  1  0  0  0  0
  5  6  1  1  0  0  0
  5  7  1  0  0  0  0
  5 14  1  0  0  0  0
  7  8  1  1  0  0  0
  7  9  1  0  0  0  0
  9 10  1  6  0  0  0
  9 11  1  0  0  0  0
 11 12  1  1  0  0  0
 11 13  1  0  0  0  0
 13 14  1  0  0  0  0
 13 15  1  6  0  0  0
 15 16  1  0  0  0  0
M  CHG  1   3  -1
M  END
>  <CHROM.1>
62.55077295,178.60881400,-179.17811473,45.49070396,12.24816005,12.24134218
0.18052295,0.57244750,-0.15304867

>  <Name>
ligand

>  <RI>
0

>  <Rbt.Current_Directory>
/home/itssahil/PROJECTS/Mol_Feturizer/New_Systems/rnas/2HO7

>  <Rbt.Executable>
rbdock ($Id: //depot/dev/client3/rdock/2013.1/src/exe/rbdock.cxx#4 $)

>  <Rbt.Library>
libRbt.so (2013.1, Build901 2013/11/27)

>  <Rbt.Parameter_File>
/export/apps/rDock/src/rDock_2013.1_src/data/scripts/dock_solv.prm

>  <Rbt.Receptor>
prm/pocket_docking_5.prm

>  <SCORE>
-9.89747

>  <SCORE.INTER>
-10.1775

>  <SCORE.INTER.CONST>
1

>  <SCORE.INTER.POLAR>
-1.2984

>  <SCORE.INTER.ROT>
3

>  <SCORE.INTER.SOLV>
14.3262

>  <SCORE.INTER.VDW>
-12.8324

>  <SCORE.INTER.norm>
-0.636095

>  <SCORE.INTRA>
0.280059

>  <SCORE.INTRA.DIHEDRAL>
0.0251036

>  <SCORE.INTRA.DIHEDRAL.0>
0.00893466

>  <SCORE.INTRA.POLAR>
0

>  <SCORE.INTRA.POLAR.0>
0

>  <SCORE.INTRA.REPUL>
0

>  <SCORE.INTRA.REPUL.0>
0

>  <SCORE.INTRA.SOLV>
0.905967

>  <SCORE.INTRA.SOLV.lig_0>
-48.9722

>  <SCORE.INTRA.VDW>
-0.185476

>  <SCORE.INTRA.VDW.0>
-0.529409

>  <SCORE.INTRA.norm>
0.0175037

>  <SCORE.RESTR>
0

>  <SCORE.RESTR.CAVITY>
0

>  <SCORE.RESTR.norm>
0

>  <SCORE.SYSTEM>
0

>  <SCORE.SYSTEM.CONST>
0

>  <SCORE.SYSTEM.DIHEDRAL>
0

>  <SCORE.SYSTEM.SOLV>
0

>  <SCORE.SYSTEM.norm>
0

>  <SCORE.heavy>
16

>  <SCORE.norm>
-0.618592

>  <RMSD>
2.764

$$$$
ligand
 OpenBabel11021811433D
libRbt.so/2013.1/901 2013/11/27
 16 16  0  0  0  0  0  0  0  0999 V2000
   47.5183   10.6834    8.8540 P   0  0  2  0  0  0  0  0  0  0  0  0
   47.0526   10.0009    7.6213 O   0  0  0  0  0  0  0  0  0  0  0  0
   48.0295   12.1632    8.4819 O   0  5  0  0  0  0  0  0  0  0  0  0
   48.7376    9.8413    9.4846 O   0  0  0  0  0  0  0  0  0  0  0  0
   45.2777   11.9861   14.5139 C   0  0  2  0  0  0  0  0  0  0  0  0
   44.5410   10.7600   14.6716 O   0  0  0  0  0  0  0  0  0  0  0  0
   44.3268   13.1589   14.1628 C   0  0  2  0  0  0  0  0  0  0  0  0
   43.3067   13.3055   15.2078 O   0  0  0  0  0  0  0  0  0  0  0  0
   43.6444   12.8485   12.8173 C   0  0  1  0  0  0  0  0  0  0  0  0
   42.7624   13.9203   12.4627 O   0  0  0  0  0  0  0  0  0  0  0  0
   44.7373   12.7000   11.7473 C   0  0  2  0  0  0  0  0  0  0  0  0
   44.1233   12.3967   10.4761 O   0  0  0  0  0  0  0  0  0  0  0  0
   45.6838   11.5420   12.1682 C   0  0  2  0  0  0  0  0  0  0  0  0
   46.2902   11.8392   13.4633 O   0  0  0  0  0  0  0  0  0  0  0  0
   46.8015   11.4086   11.1179 C   0  0  0  0  0  0  0  0  0  0  0  0
   46.3013   10.7949    9.9236 O   0  0  0  0  0  0  0  0  0  0  0  0
  1  2  1  6  0  0  0
  1  3  1  0  0  0  0
  1  4  2  0  0  0  0
  1 16  1  0  0  0  0
  5  6  1  6  0  0  0
  5  7  1  0  0  0  0
  5 14  1  0  0  0  0
  7  8  1  1  0  0  0
  7  9  1  0  0  0  0
  9 10  1  6  0  0  0
  9 11  1  0  0  0  0
 11 12  1  6  0  0  0
 11 13  1  0  0  0  0
 13 14  1  0  0  0  0
 13 15  1  6  0  0  0
 15 16  1  0  0  0  0
M  CHG  1   3  -1
M  END
>  <CHROM.1>
-74.76890348,179.87167960,177.68575519,45.72519719,11.73387436,11.45412486
-0.82992387,-0.63517470,1.69156642

>  <Name>
ligand

>  <RI>
0

>  <Rbt.Current_Directory>
/home/itssahil/PROJECTS/Mol_Feturizer/New_Systems/rnas/2HO7

>  <Rbt.Executable>
rbdock ($Id: //depot/dev/client3/rdock/2013.1/src/exe/rbdock.cxx#4 $)

>  <Rbt.Library>
libRbt.so (2013.1, Build901 2013/11/27)

>  <Rbt.Parameter_File>
/export/apps/rDock/src/rDock_2013.1_src/data/scripts/dock_solv.prm

>  <Rbt.Receptor>
prm/pocket_docking_7.prm

>  <SCORE>
-12.1381

>  <SCORE.INTER>
-12.8855

>  <SCORE.INTER.CONST>
1

>  <SCORE.INTER.POLAR>
-1.29271

>  <SCORE.INTER.ROT>
3

>  <SCORE.INTER.SOLV>
15.9348

>  <SCORE.INTER.VDW>
-15.1929

>  <SCORE.INTER.norm>
-0.805342

>  <SCORE.INTRA>
0.747362

>  <SCORE.INTRA.DIHEDRAL>
0.752146

>  <SCORE.INTRA.DIHEDRAL.0>
0.00893466

>  <SCORE.INTRA.POLAR>
0

>  <SCORE.INTRA.POLAR.0>
0

>  <SCORE.INTRA.REPUL>
0

>  <SCORE.INTRA.REPUL.0>
0

>  <SCORE.INTRA.SOLV>
1.07531

>  <SCORE.INTRA.SOLV.lig_0>
-48.9722

>  <SCORE.INTRA.VDW>
-0.166368

>  <SCORE.INTRA.VDW.0>
-0.529409

>  <SCORE.INTRA.norm>
0.0467101

>  <SCORE.RESTR>
0

>  <SCORE.RESTR.CAVITY>
0

>  <SCORE.RESTR.norm>
0

>  <SCORE.SYSTEM>
0

>  <SCORE.SYSTEM.CONST>
0

>  <SCORE.SYSTEM.DIHEDRAL>
0

>  <SCORE.SYSTEM.SOLV>
0

>  <SCORE.SYSTEM.norm>
0

>  <SCORE.heavy>
16

>  <SCORE.norm>
-0.758632

>  <RMSD>
2.764

$$$$
ligand
 OpenBabel11021811433D
libRbt.so/2013.1/901 2013/11/27
 16 16  0  0  0  0  0  0  0  0999 V2000
   47.4512   10.7369    8.8561 P   0  0  2  0  0  0  0  0  0  0  0  0
   47.0058    9.9701    7.6662 O   0  0  0  0  0  0  0  0  0  0  0  0
   47.8156   12.2407    8.4142 O   0  5  0  0  0  0  0  0  0  0  0  0
   48.7615   10.0292    9.4691 O   0  0  0  0  0  0  0  0  0  0  0  0
   45.2955   12.0099   14.5597 C   0  0  2  0  0  0  0  0  0  0  0  0
   44.5960   10.7671   14.7522 O   0  0  0  0  0  0  0  0  0  0  0  0
   44.3064   13.1496   14.2051 C   0  0  2  0  0  0  0  0  0  0  0  0
   43.3010   13.2871   15.2655 O   0  0  0  0  0  0  0  0  0  0  0  0
   43.6096   12.7963   12.8777 C   0  0  1  0  0  0  0  0  0  0  0  0
   42.6921   13.8368   12.5202 O   0  0  0  0  0  0  0  0  0  0  0  0
   44.6874   12.6585   11.7911 C   0  0  2  0  0  0  0  0  0  0  0  0
   44.0600   12.3155   10.5367 O   0  0  0  0  0  0  0  0  0  0  0  0
   45.6729   11.5348   12.2153 C   0  0  2  0  0  0  0  0  0  0  0  0
   46.2932   11.8719   13.4939 O   0  0  0  0  0  0  0  0  0  0  0  0
   46.7754   11.4130   11.1477 C   0  0  0  0  0  0  0  0  0  0  0  0
   46.2667   10.7816    9.9664 O   0  0  0  0  0  0  0  0  0  0  0  0
  1  2  1  6  0  0  0
  1  3  1  0  0  0  0
  1  4  2  0  0  0  0
  1 16  1  0  0  0  0
  5  6  1  6  0  0  0
  5  7  1  0  0  0  0
  5 14  1  0  0  0  0
  7  8  1  1  0  0  0
  7  9  1  0  0  0  0
  9 10  1  6  0  0  0
  9 11  1  0  0  0  0
 11 12  1  6  0  0  0
 11 13  1  0  0  0  0
 13 14  1  0  0  0  0
 13 15  1  6  0  0  0
 15 16  1  0  0  0  0
M  CHG  1   3  -1
M  END
>  <CHROM.1>
-73.94144782,177.64277416,174.39938793,45.68833945,11.74113404,11.48664309
-0.86361814,-0.60446817,1.66463254

>  <Name>
ligand

>  <RI>
0

>  <Rbt.Current_Directory>
/home/itssahil/PROJECTS/Mol_Feturizer/New_Systems/rnas/2HO7

>  <Rbt.Executable>
rbdock ($Id: //depot/dev/client3/rdock/2013.1/src/exe/rbdock.cxx#4 $)

>  <Rbt.Library>
libRbt.so (2013.1, Build901 2013/11/27)

>  <Rbt.Parameter_File>
/export/apps/rDock/src/rDock_2013.1_src/data/scripts/dock_solv.prm

>  <Rbt.Receptor>
prm/pocket_docking_7.prm

>  <SCORE>
-12.1359

>  <SCORE.INTER>
-12.9406

>  <SCORE.INTER.CONST>
1

>  <SCORE.INTER.POLAR>
-1.29904

>  <SCORE.INTER.ROT>
3

>  <SCORE.INTER.SOLV>
16.311

>  <SCORE.INTER.VDW>
-15.334

>  <SCORE.INTER.norm>
-0.808788

>  <SCORE.INTRA>
0.804695

>  <SCORE.INTRA.DIHEDRAL>
0.744034

>  <SCORE.INTRA.DIHEDRAL.0>
0.00893466

>  <SCORE.INTRA.POLAR>
0

>  <SCORE.INTRA.POLAR.0>
0

>  <SCORE.INTRA.REPUL>
0

>  <SCORE.INTRA.REPUL.0>
0

>  <SCORE.INTRA.SOLV>
1.16845

>  <SCORE.INTRA.SOLV.lig_0>
-48.9722

>  <SCORE.INTRA.VDW>
-0.151548

>  <SCORE.INTRA.VDW.0>
-0.529409

>  <SCORE.INTRA.norm>
0.0502934

>  <SCORE.RESTR>
0

>  <SCORE.RESTR.CAVITY>
0

>  <SCORE.RESTR.norm>
0

>  <SCORE.SYSTEM>
0

>  <SCORE.SYSTEM.CONST>
0

>  <SCORE.SYSTEM.DIHEDRAL>
0

>  <SCORE.SYSTEM.SOLV>
0

>  <SCORE.SYSTEM.norm>
0

>  <SCORE.heavy>
16

>  <SCORE.norm>
-0.758495

>  <RMSD>
2.767

$$$$
ligand
 OpenBabel11021811433D
libRbt.so/2013.1/901 2013/11/27
 16 16  0  0  0  0  0  0  0  0999 V2000
   47.9845   12.5521   10.2215 P   0  0  2  0  0  0  0  0  0  0  0  0
   47.7898   12.2827    8.7752 O   0  0  0  0  0  0  0  0  0  0  0  0
   48.5796   14.0352   10.4110 O   0  5  0  0  0  0  0  0  0  0  0  0
   49.0294   11.4791   10.8135 O   0  0  0  0  0  0  0  0  0  0  0  0
   43.2437   13.5187   13.3430 C   0  0  2  0  0  0  0  0  0  0  0  0
   43.4257   13.8667   14.7274 O   0  0  0  0  0  0  0  0  0  0  0  0
   42.6180   12.1070   13.2074 C   0  0  2  0  0  0  0  0  0  0  0  0
   41.3359   12.0577   13.9202 O   0  0  0  0  0  0  0  0  0  0  0  0
   43.5886   11.0813   13.8224 C   0  0  1  0  0  0  0  0  0  0  0  0
   43.0389    9.7635   13.7057 O   0  0  0  0  0  0  0  0  0  0  0  0
   44.9184   11.1589   13.0563 C   0  0  2  0  0  0  0  0  0  0  0  0
   45.8515   10.2132   13.6218 O   0  0  0  0  0  0  0  0  0  0  0  0
   45.4797   12.6015   13.1897 C   0  0  2  0  0  0  0  0  0  0  0  0
   44.5275   13.5603   12.6355 O   0  0  0  0  0  0  0  0  0  0  0  0
   46.7958   12.6968   12.3966 C   0  0  0  0  0  0  0  0  0  0  0  0
   46.5659   12.4448   11.0050 O   0  0  0  0  0  0  0  0  0  0  0  0
  1  2  1  6  0  0  0
  1  3  1  0  0  0  0
  1  4  2  0  0  0  0
  1 16  1  0  0  0  0
  5  6  1  1  0  0  0
  5  7  1  0  0  0  0
  5 14  1  0  0  0  0
  7  8  1  1  0  0  0
  7  9  1  0  0  0  0
  9 10  1  6  0  0  0
  9 11  1  0  0  0  0
 11 12  1  1  0  0  0
 11 13  1  0  0  0  0
 13 14  1  0  0  0  0
 13 15  1  6  0  0  0
 15 16  1  0  0  0  0
M  CHG  1   3  -1
M  END
>  <CHROM.1>
61.83803783,-179.76837273,179.41473586,45.52291394,12.23695909,12.24594507
0.18375965,0.58784023,-0.15560437

>  <Name>
ligand

>  <RI>
0

>  <Rbt.Current_Directory>
/home/itssahil/PROJECTS/Mol_Feturizer/New_Systems/rnas/2HO7

>  <Rbt.Executable>
rbdock ($Id: //depot/dev/client3/rdock/2013.1/src/exe/rbdock.cxx#4 $)

>  <Rbt.Library>
libRbt.so (2013.1, Build901 2013/11/27)

>  <Rbt.Parameter_File>
/export/apps/rDock/src/rDock_2013.1_src/data/scripts/dock_solv.prm

>  <Rbt.Receptor>
prm/pocket_docking_6.prm

>  <SCORE>
-9.93593

>  <SCORE.INTER>
-10.2037

>  <SCORE.INTER.CONST>
1

>  <SCORE.INTER.POLAR>
-1.29904

>  <SCORE.INTER.ROT>
3

>  <SCORE.INTER.SOLV>
14.3997

>  <SCORE.INTER.VDW>
-12.8722

>  <SCORE.INTER.norm>
-0.637733

>  <SCORE.INTRA>
0.267803

>  <SCORE.INTRA.DIHEDRAL>
0.0041675

>  <SCORE.INTRA.DIHEDRAL.0>
0.00893466

>  <SCORE.INTRA.POLAR>
0

>  <SCORE.INTRA.POLAR.0>
0

>  <SCORE.INTRA.REPUL>
0

>  <SCORE.INTRA.REPUL.0>
0

>  <SCORE.INTRA.SOLV>
0.909172

>  <SCORE.INTRA.SOLV.lig_0>
-48.9722

>  <SCORE.INTRA.VDW>
-0.188867

>  <SCORE.INTRA.VDW.0>
-0.529409

>  <SCORE.INTRA.norm>
0.0167377

>  <SCORE.RESTR>
0

>  <SCORE.RESTR.CAVITY>
0

>  <SCORE.RESTR.norm>
0

>  <SCORE.SYSTEM>
0

>  <SCORE.SYSTEM.CONST>
0

>  <SCORE.SYSTEM.DIHEDRAL>
0

>  <SCORE.SYSTEM.SOLV>
0

>  <SCORE.SYSTEM.norm>
0

>  <SCORE.heavy>
16

>  <SCORE.norm>
-0.620996

>  <RMSD>
2.768

$$$$
ligand
 OpenBabel11021811433D
libRbt.so/2013.1/901 2013/11/27
 16 16  0  0  0  0  0  0  0  0999 V2000
   47.5210   10.6618    8.8687 P   0  0  2  0  0  0  0  0  0  0  0  0
   47.0489    9.9872    7.6341 O   0  0  0  0  0  0  0  0  0  0  0  0
   48.0433   12.1389    8.5014 O   0  5  0  0  0  0  0  0  0  0  0  0
   48.7344    9.8080    9.4952 O   0  0  0  0  0  0  0  0  0  0  0  0
   45.2887   12.0089   14.5202 C   0  0  2  0  0  0  0  0  0  0  0  0
   44.5589   10.7802   14.6885 O   0  0  0  0  0  0  0  0  0  0  0  0
   44.3306   13.1746   14.1648 C   0  0  2  0  0  0  0  0  0  0  0  0
   43.3135   13.3229   15.2125 O   0  0  0  0  0  0  0  0  0  0  0  0
   43.6451   12.8519   12.8238 C   0  0  1  0  0  0  0  0  0  0  0  0
   42.7564   13.9168   12.4654 O   0  0  0  0  0  0  0  0  0  0  0  0
   44.7350   12.7019   11.7510 C   0  0  2  0  0  0  0  0  0  0  0  0
   44.1181   12.3872   10.4840 O   0  0  0  0  0  0  0  0  0  0  0  0
   45.6889   11.5515   12.1760 C   0  0  2  0  0  0  0  0  0  0  0  0
   46.2982   11.8603   13.4670 O   0  0  0  0  0  0  0  0  0  0  0  0
   46.8035   11.4168   11.1227 C   0  0  0  0  0  0  0  0  0  0  0  0
   46.3060   10.7789    9.9400 O   0  0  0  0  0  0  0  0  0  0  0  0
  1  2  1  6  0  0  0
  1  3  1  0  0  0  0
  1  4  2  0  0  0  0
  1 16  1  0  0  0  0
  5  6  1  6  0  0  0
  5  7  1  0  0  0  0
  5 14  1  0  0  0  0
  7  8  1  1  0  0  0
  7  9  1  0  0  0  0
  9 10  1  6  0  0  0
  9 11  1  0  0  0  0
 11 12  1  6  0  0  0
 11 13  1  0  0  0  0
 13 14  1  0  0  0  0
 13 15  1  6  0  0  0
 15 16  1  0  0  0  0
M  CHG  1   3  -1
M  END
>  <CHROM.1>
-75.43285586,-179.90497560,179.20540413,45.72866363,11.73180995,11.46352230
-0.83272987,-0.63193052,1.68054564

>  <Name>
ligand

>  <RI>
0

>  <Rbt.Current_Directory>
/home/itssahil/PROJECTS/Mol_Feturizer/New_Systems/rnas/2HO7

>  <Rbt.Executable>
rbdock ($Id: //depot/dev/client3/rdock/2013.1/src/exe/rbdock.cxx#4 $)

>  <Rbt.Library>
libRbt.so (2013.1, Build901 2013/11/27)

>  <Rbt.Parameter_File>
/export/apps/rDock/src/rDock_2013.1_src/data/scripts/dock_solv.prm

>  <Rbt.Receptor>
prm/pocket_docking_7.prm

>  <SCORE>
-12.1397

>  <SCORE.INTER>
-12.8993

>  <SCORE.INTER.CONST>
1

>  <SCORE.INTER.POLAR>
-1.29904

>  <SCORE.INTER.ROT>
3

>  <SCORE.INTER.SOLV>
15.9596

>  <SCORE.INTER.VDW>
-15.1893

>  <SCORE.INTER.norm>
-0.806204

>  <SCORE.INTRA>
0.759566

>  <SCORE.INTRA.DIHEDRAL>
0.80948

>  <SCORE.INTRA.DIHEDRAL.0>
0.00893466

>  <SCORE.INTRA.POLAR>
0

>  <SCORE.INTRA.POLAR.0>
0

>  <SCORE.INTRA.REPUL>
0

>  <SCORE.INTRA.REPUL.0>
0

>  <SCORE.INTRA.SOLV>
1.05871

>  <SCORE.INTRA.SOLV.lig_0>
-48.9722

>  <SCORE.INTRA.VDW>
-0.174528

>  <SCORE.INTRA.VDW.0>
-0.529409

>  <SCORE.INTRA.norm>
0.0474729

>  <SCORE.RESTR>
0

>  <SCORE.RESTR.CAVITY>
0

>  <SCORE.RESTR.norm>
0

>  <SCORE.SYSTEM>
0

>  <SCORE.SYSTEM.CONST>
0

>  <SCORE.SYSTEM.DIHEDRAL>
0

>  <SCORE.SYSTEM.SOLV>
0

>  <SCORE.SYSTEM.norm>
0

>  <SCORE.heavy>
16

>  <SCORE.norm>
-0.758731

>  <RMSD>
2.768

$$$$
ligand
 OpenBabel11021811433D
libRbt.so/2013.1/901 2013/11/27
 16 16  0  0  0  0  0  0  0  0999 V2000
   48.0013   12.2716   10.4376 P   0  0  2  0  0  0  0  0  0  0  0  0
   48.8799   11.2763   11.1006 O   0  0  0  0  0  0  0  0  0  0  0  0
   47.7905   11.8532    8.8980 O   0  5  0  0  0  0  0  0  0  0  0  0
   48.7101   13.7162   10.5049 O   0  0  0  0  0  0  0  0  0  0  0  0
   43.2593   13.6003   13.5102 C   0  0  2  0  0  0  0  0  0  0  0  0
   43.4419   13.8683   14.9121 O   0  0  0  0  0  0  0  0  0  0  0  0
   42.5489   12.2390   13.2974 C   0  0  2  0  0  0  0  0  0  0  0  0
   41.2558   12.2359   13.9917 O   0  0  0  0  0  0  0  0  0  0  0  0
   43.4445   11.1255   13.8723 C   0  0  1  0  0  0  0  0  0  0  0  0
   42.8155    9.8522   13.6839 O   0  0  0  0  0  0  0  0  0  0  0  0
   44.7878   11.1564   13.1267 C   0  0  2  0  0  0  0  0  0  0  0  0
   45.6516   10.1275   13.6557 O   0  0  0  0  0  0  0  0  0  0  0  0
   45.4358   12.5526   13.3380 C   0  0  2  0  0  0  0  0  0  0  0  0
   44.5536   13.5954   12.8208 O   0  0  0  0  0  0  0  0  0  0  0  0
   46.7669   12.6034   12.5663 C   0  0  0  0  0  0  0  0  0  0  0  0
   46.5564   12.3208   11.1775 O   0  0  0  0  0  0  0  0  0  0  0  0
  1  2  1  1  0  0  0
  1  3  1  0  0  0  0
  1  4  2  0  0  0  0
  1 16  1  0  0  0  0
  5  6  1  1  0  0  0
  5  7  1  0  0  0  0
  5 14  1  0  0  0  0
  7  8  1  1  0  0  0
  7  9  1  0  0  0  0
  9 10  1  6  0  0  0
  9 11  1  0  0  0  0
 11 12  1  1  0  0  0
 11 13  1  0  0  0  0
 13 14  1  0  0  0  0
 13 15  1  6  0  0  0
 15 16  1  0  0  0  0
M  CHG  1   3  -1
M  END
>  <CHROM.1>
56.89836721,-175.57146171,56.11784799,45.47351135,12.15420730,12.37972556
0.04124408,0.58553008,-0.01478322

>  <Name>
ligand

>  <RI>
0

>  <Rbt.Current_Directory>
/home/itssahil/PROJECTS/Mol_Feturizer/New_Systems/rnas/2HO7

>  <Rbt.Executable>
rbdock ($Id: //depot/dev/client3/rdock/2013.1/src/exe/rbdock.cxx#4 $)

>  <Rbt.Library>
libRbt.so (2013.1, Build901 2013/11/27)

>  <Rbt.Parameter_File>
/export/apps/rDock/src/rDock_2013.1_src/data/scripts/dock_solv.prm

>  <Rbt.Receptor>
prm/pocket_docking_4.prm

>  <SCORE>
-9.35455

>  <SCORE.INTER>
-9.46864

>  <SCORE.INTER.CONST>
1

>  <SCORE.INTER.POLAR>
-1.03668

>  <SCORE.INTER.ROT>
3

>  <SCORE.INTER.SOLV>
14.5763

>  <SCORE.INTER.VDW>
-13.3156

>  <SCORE.INTER.norm>
-0.59179

>  <SCORE.INTRA>
0.114092

>  <SCORE.INTRA.DIHEDRAL>
0.147616

>  <SCORE.INTRA.DIHEDRAL.0>
0.00893466

>  <SCORE.INTRA.POLAR>
0

>  <SCORE.INTRA.POLAR.0>
0

>  <SCORE.INTRA.REPUL>
0

>  <SCORE.INTRA.REPUL.0>
0

>  <SCORE.INTRA.SOLV>
0.186613

>  <SCORE.INTRA.SOLV.lig_0>
-48.9722

>  <SCORE.INTRA.VDW>
-0.0530218

>  <SCORE.INTRA.VDW.0>
-0.529409

>  <SCORE.INTRA.norm>
0.00713078

>  <SCORE.RESTR>
0

>  <SCORE.RESTR.CAVITY>
0

>  <SCORE.RESTR.norm>
0

>  <SCORE.SYSTEM>
0

>  <SCORE.SYSTEM.CONST>
0

>  <SCORE.SYSTEM.DIHEDRAL>
0

>  <SCORE.SYSTEM.SOLV>
0

>  <SCORE.SYSTEM.norm>
0

>  <SCORE.heavy>
16

>  <SCORE.norm>
-0.584659

>  <RMSD>
2.772

$$$$
ligand
 OpenBabel11021811433D
libRbt.so/2013.1/901 2013/11/27
 16 16  0  0  0  0  0  0  0  0999 V2000
   48.0190   12.2723   10.4714 P   0  0  2  0  0  0  0  0  0  0  0  0
   48.8316   11.2094   11.1136 O   0  0  0  0  0  0  0  0  0  0  0  0
   47.8279   11.9264    8.9114 O   0  5  0  0  0  0  0  0  0  0  0  0
   48.7943   13.6765   10.6147 O   0  0  0  0  0  0  0  0  0  0  0  0
   43.1992   13.5647   13.4247 C   0  0  2  0  0  0  0  0  0  0  0  0
   43.3490   13.8777   14.8212 O   0  0  0  0  0  0  0  0  0  0  0  0
   42.5259   12.1807   13.2393 C   0  0  2  0  0  0  0  0  0  0  0  0
   41.2205   12.1659   13.9100 O   0  0  0  0  0  0  0  0  0  0  0  0
   43.4372   11.1068   13.8628 C   0  0  1  0  0  0  0  0  0  0  0  0
   42.8427    9.8134   13.7007 O   0  0  0  0  0  0  0  0  0  0  0  0
   44.7931   11.1492   13.1410 C   0  0  2  0  0  0  0  0  0  0  0  0
   45.6714   10.1576   13.7156 O   0  0  0  0  0  0  0  0  0  0  0  0
   45.4032   12.5664   13.3227 C   0  0  2  0  0  0  0  0  0  0  0  0
   44.5059   13.5717   12.7592 O   0  0  0  0  0  0  0  0  0  0  0  0
   46.7469   12.6276   12.5739 C   0  0  0  0  0  0  0  0  0  0  0  0
   46.5597   12.3626   11.1783 O   0  0  0  0  0  0  0  0  0  0  0  0
  1  2  1  1  0  0  0
  1  3  1  0  0  0  0
  1  4  2  0  0  0  0
  1 16  1  0  0  0  0
  5  6  1  1  0  0  0
  5  7  1  0  0  0  0
  5 14  1  0  0  0  0
  7  8  1  1  0  0  0
  7  9  1  0  0  0  0
  9 10  1  6  0  0  0
  9 11  1  0  0  0  0
 11 12  1  1  0  0  0
 11 13  1  0  0  0  0
 13 14  1  0  0  0  0
 13 15  1  6  0  0  0
 15 16  1  0  0  0  0
M  CHG  1   3  -1
M  END
>  <CHROM.1>
59.66849169,-173.63275078,58.19580630,45.46524892,12.14486065,12.37508382
0.07241677,0.56754304,-0.06157455

>  <Name>
ligand

>  <RI>
0

>  <Rbt.Current_Directory>
/home/itssahil/PROJECTS/Mol_Feturizer/New_Systems/rnas/2HO7

>  <Rbt.Executable>
rbdock ($Id: //depot/dev/client3/rdock/2013.1/src/exe/rbdock.cxx#4 $)

>  <Rbt.Library>
libRbt.so (2013.1, Build901 2013/11/27)

>  <Rbt.Parameter_File>
/export/apps/rDock/src/rDock_2013.1_src/data/scripts/dock_solv.prm

>  <Rbt.Receptor>
prm/pocket_docking_5.prm

>  <SCORE>
-9.35645

>  <SCORE.INTER>
-9.45242

>  <SCORE.INTER.CONST>
1

>  <SCORE.INTER.POLAR>
-1.03605

>  <SCORE.INTER.ROT>
3

>  <SCORE.INTER.SOLV>
14.485

>  <SCORE.INTER.VDW>
-13.2764

>  <SCORE.INTER.norm>
-0.590776

>  <SCORE.INTRA>
0.0959638

>  <SCORE.INTRA.DIHEDRAL>
0.19538

>  <SCORE.INTRA.DIHEDRAL.0>
0.00893466

>  <SCORE.INTRA.POLAR>
0

>  <SCORE.INTRA.POLAR.0>
0

>  <SCORE.INTRA.REPUL>
0

>  <SCORE.INTRA.REPUL.0>
0

>  <SCORE.INTRA.SOLV>
0.203834

>  <SCORE.INTRA.SOLV.lig_0>
-48.9722

>  <SCORE.INTRA.VDW>
-0.103643

>  <SCORE.INTRA.VDW.0>
-0.529409

>  <SCORE.INTRA.norm>
0.00599774

>  <SCORE.RESTR>
0

>  <SCORE.RESTR.CAVITY>
0

>  <SCORE.RESTR.norm>
0

>  <SCORE.SYSTEM>
0

>  <SCORE.SYSTEM.CONST>
0

>  <SCORE.SYSTEM.DIHEDRAL>
0

>  <SCORE.SYSTEM.SOLV>
0

>  <SCORE.SYSTEM.norm>
0

>  <SCORE.heavy>
16

>  <SCORE.norm>
-0.584778

>  <RMSD>
2.781

$$$$
ligand
 OpenBabel11021811433D
libRbt.so/2013.1/901 2013/11/27
 16 16  0  0  0  0  0  0  0  0999 V2000
   47.5014   10.5652    9.0948 P   0  0  2  0  0  0  0  0  0  0  0  0
   47.1981   11.5017    7.9844 O   0  0  0  0  0  0  0  0  0  0  0  0
   48.9163   10.9598    9.7522 O   0  5  0  0  0  0  0  0  0  0  0  0
   47.5871    9.0695    8.5039 O   0  0  0  0  0  0  0  0  0  0  0  0
   44.5893   11.7116   14.0068 C   0  0  2  0  0  0  0  0  0  0  0  0
   43.4005   10.9782   13.6610 O   0  0  0  0  0  0  0  0  0  0  0  0
   44.2601   13.2042   14.2656 C   0  0  2  0  0  0  0  0  0  0  0  0
   43.2600   13.3177   15.3337 O   0  0  0  0  0  0  0  0  0  0  0  0
   43.6979   13.8127   12.9671 C   0  0  1  0  0  0  0  0  0  0  0  0
   43.3898   15.1964   13.1742 O   0  0  0  0  0  0  0  0  0  0  0  0
   44.7664   13.6771   11.8711 C   0  0  2  0  0  0  0  0  0  0  0  0
   44.2588   14.2309   10.6379 O   0  0  0  0  0  0  0  0  0  0  0  0
   45.0884   12.1690   11.6816 C   0  0  2  0  0  0  0  0  0  0  0  0
   45.5833   11.6036   12.9340 O   0  0  0  0  0  0  0  0  0  0  0  0
   46.1827   12.0266   10.6082 C   0  0  0  0  0  0  0  0  0  0  0  0
   46.3445   10.6538   10.2312 O   0  0  0  0  0  0  0  0  0  0  0  0
  1  2  1  6  0  0  0
  1  3  1  0  0  0  0
  1  4  2  0  0  0  0
  1 16  1  0  0  0  0
  5  6  1  6  0  0  0
  5  7  1  0  0  0  0
  5 14  1  0  0  0  0
  7  8  1  1  0  0  0
  7  9  1  0  0  0  0
  9 10  1  1  0  0  0
  9 11  1  0  0  0  0
 11 12  1  6  0  0  0
 11 13  1  0  0  0  0
 13 14  1  0  0  0  0
 13 15  1  6  0  0  0
 15 16  1  0  0  0  0
M  CHG  1   3  -1
M  END
>  <CHROM.1>
-169.80874670,179.69336772,-52.70780618,45.54807170,12.03020441,11.45012992
-0.14447482,-0.95797617,2.42854200

>  <Name>
ligand

>  <RI>
0

>  <Rbt.Current_Directory>
/home/itssahil/PROJECTS/Mol_Feturizer/New_Systems/rnas/2HO7

>  <Rbt.Executable>
rbdock ($Id: //depot/dev/client3/rdock/2013.1/src/exe/rbdock.cxx#4 $)

>  <Rbt.Library>
libRbt.so (2013.1, Build901 2013/11/27)

>  <Rbt.Parameter_File>
/export/apps/rDock/src/rDock_2013.1_src/data/scripts/dock_solv.prm

>  <Rbt.Receptor>
prm/pocket_docking_6.prm

>  <SCORE>
-10.718

>  <SCORE.INTER>
-10.9772

>  <SCORE.INTER.CONST>
1

>  <SCORE.INTER.POLAR>
-1.29825

>  <SCORE.INTER.ROT>
3

>  <SCORE.INTER.SOLV>
14.8227

>  <SCORE.INTER.VDW>
-13.5316

>  <SCORE.INTER.norm>
-0.686076

>  <SCORE.INTRA>
0.259253

>  <SCORE.INTRA.DIHEDRAL>
0.443654

>  <SCORE.INTRA.DIHEDRAL.0>
0.00893466

>  <SCORE.INTRA.POLAR>
0

>  <SCORE.INTRA.POLAR.0>
0

>  <SCORE.INTRA.REPUL>
0

>  <SCORE.INTRA.REPUL.0>
0

>  <SCORE.INTRA.SOLV>
-0.0961767

>  <SCORE.INTRA.SOLV.lig_0>
-48.9722

>  <SCORE.INTRA.VDW>
0.0855146

>  <SCORE.INTRA.VDW.0>
-0.529409

>  <SCORE.INTRA.norm>
0.0162033

>  <SCORE.RESTR>
0

>  <SCORE.RESTR.CAVITY>
0

>  <SCORE.RESTR.norm>
0

>  <SCORE.SYSTEM>
0

>  <SCORE.SYSTEM.CONST>
0

>  <SCORE.SYSTEM.DIHEDRAL>
0

>  <SCORE.SYSTEM.SOLV>
0

>  <SCORE.SYSTEM.norm>
0

>  <SCORE.heavy>
16

>  <SCORE.norm>
-0.669873

>  <RMSD>
2.788

$$$$
ligand
 OpenBabel11021811433D
libRbt.so/2013.1/901 2013/11/27
 16 16  0  0  0  0  0  0  0  0999 V2000
   48.0148   12.2442   10.4734 P   0  0  2  0  0  0  0  0  0  0  0  0
   48.8419   11.2132   11.1481 O   0  0  0  0  0  0  0  0  0  0  0  0
   47.8373   11.8526    8.9226 O   0  5  0  0  0  0  0  0  0  0  0  0
   48.7656   13.6648   10.5817 O   0  0  0  0  0  0  0  0  0  0  0  0
   43.1655   13.5273   13.3830 C   0  0  2  0  0  0  0  0  0  0  0  0
   43.3043   13.8595   14.7762 O   0  0  0  0  0  0  0  0  0  0  0  0
   42.5071   12.1344   13.2117 C   0  0  2  0  0  0  0  0  0  0  0  0
   41.1982   12.1150   13.8753 O   0  0  0  0  0  0  0  0  0  0  0  0
   43.4256   11.0777   13.8538 C   0  0  1  0  0  0  0  0  0  0  0  0
   42.8450    9.7765   13.7050 O   0  0  0  0  0  0  0  0  0  0  0  0
   44.7850   11.1245   13.1389 C   0  0  2  0  0  0  0  0  0  0  0  0
   45.6700   10.1493   13.7309 O   0  0  0  0  0  0  0  0  0  0  0  0
   45.3799   12.5501   13.3058 C   0  0  2  0  0  0  0  0  0  0  0  0
   44.4758   13.5390   12.7246 O   0  0  0  0  0  0  0  0  0  0  0  0
   46.7271   12.6152   12.5637 C   0  0  0  0  0  0  0  0  0  0  0  0
   46.5506   12.3290   11.1708 O   0  0  0  0  0  0  0  0  0  0  0  0
  1  2  1  1  0  0  0
  1  3  1  0  0  0  0
  1  4  2  0  0  0  0
  1 16  1  0  0  0  0
  5  6  1  1  0  0  0
  5  7  1  0  0  0  0
  5 14  1  0  0  0  0
  7  8  1  1  0  0  0
  7  9  1  0  0  0  0
  9 10  1  6  0  0  0
  9 11  1  0  0  0  0
 11 12  1  1  0  0  0
 11 13  1  0  0  0  0
 13 14  1  0  0  0  0
 13 15  1  6  0  0  0
 15 16  1  0  0  0  0
M  CHG  1   3  -1
M  END
>  <CHROM.1>
59.59528748,-173.62089005,57.33785165,45.45154082,12.11635706,12.36413281
0.08315428,0.56130930,-0.07996349

>  <Name>
ligand

>  <RI>
0

>  <Rbt.Current_Directory>
/home/itssahil/PROJECTS/Mol_Feturizer/New_Systems/rnas/2HO7

>  <Rbt.Executable>
rbdock ($Id: //depot/dev/client3/rdock/2013.1/src/exe/rbdock.cxx#4 $)

>  <Rbt.Library>
libRbt.so (2013.1, Build901 2013/11/27)

>  <Rbt.Parameter_File>
/export/apps/rDock/src/rDock_2013.1_src/data/scripts/dock_solv.prm

>  <Rbt.Receptor>
prm/pocket_docking_5.prm

>  <SCORE>
-9.32055

>  <SCORE.INTER>
-9.42381

>  <SCORE.INTER.CONST>
1

>  <SCORE.INTER.POLAR>
-1.03887

>  <SCORE.INTER.ROT>
3

>  <SCORE.INTER.SOLV>
14.4073

>  <SCORE.INTER.VDW>
-13.2221

>  <SCORE.INTER.norm>
-0.588988

>  <SCORE.INTRA>
0.103262

>  <SCORE.INTRA.DIHEDRAL>
0.20268

>  <SCORE.INTRA.DIHEDRAL.0>
0.00893466

>  <SCORE.INTRA.POLAR>
0

>  <SCORE.INTRA.POLAR.0>
0

>  <SCORE.INTRA.REPUL>
0

>  <SCORE.INTRA.REPUL.0>
0

>  <SCORE.INTRA.SOLV>
0.195346

>  <SCORE.INTRA.SOLV.lig_0>
-48.9722

>  <SCORE.INTRA.VDW>
-0.095751

>  <SCORE.INTRA.VDW.0>
-0.529409

>  <SCORE.INTRA.norm>
0.0064539

>  <SCORE.RESTR>
0

>  <SCORE.RESTR.CAVITY>
0

>  <SCORE.RESTR.norm>
0

>  <SCORE.SYSTEM>
0

>  <SCORE.SYSTEM.CONST>
0

>  <SCORE.SYSTEM.DIHEDRAL>
0

>  <SCORE.SYSTEM.SOLV>
0

>  <SCORE.SYSTEM.norm>
0

>  <SCORE.heavy>
16

>  <SCORE.norm>
-0.582534

>  <RMSD>
2.790

$$$$
ligand
 OpenBabel11021811433D
libRbt.so/2013.1/901 2013/11/27
 16 16  0  0  0  0  0  0  0  0999 V2000
   48.0028   12.2563   10.4651 P   0  0  2  0  0  0  0  0  0  0  0  0
   48.8331   11.2100   11.1118 O   0  0  0  0  0  0  0  0  0  0  0  0
   47.8173   11.9003    8.9067 O   0  5  0  0  0  0  0  0  0  0  0  0
   48.7544   13.6739   10.6021 O   0  0  0  0  0  0  0  0  0  0  0  0
   43.1660   13.5558   13.3959 C   0  0  2  0  0  0  0  0  0  0  0  0
   43.3133   13.8918   14.7874 O   0  0  0  0  0  0  0  0  0  0  0  0
   42.5070   12.1623   13.2324 C   0  0  2  0  0  0  0  0  0  0  0  0
   41.2021   12.1444   13.9040 O   0  0  0  0  0  0  0  0  0  0  0  0
   43.4296   11.1076   13.8718 C   0  0  1  0  0  0  0  0  0  0  0  0
   42.8485    9.8058   13.7300 O   0  0  0  0  0  0  0  0  0  0  0  0
   44.7846   11.1528   13.1484 C   0  0  2  0  0  0  0  0  0  0  0  0
   45.6734   10.1793   13.7377 O   0  0  0  0  0  0  0  0  0  0  0  0
   45.3802   12.5789   13.3079 C   0  0  2  0  0  0  0  0  0  0  0  0
   44.4723   13.5661   12.7296 O   0  0  0  0  0  0  0  0  0  0  0  0
   46.7228   12.6424   12.5574 C   0  0  0  0  0  0  0  0  0  0  0  0
   46.5421   12.3253   11.1718 O   0  0  0  0  0  0  0  0  0  0  0  0
  1  2  1  1  0  0  0
  1  3  1  0  0  0  0
  1  4  2  0  0  0  0
  1 16  1  0  0  0  0
  5  6  1  1  0  0  0
  5  7  1  0  0  0  0
  5 14  1  0  0  0  0
  7  8  1  1  0  0  0
  7  9  1  0  0  0  0
  9 10  1  6  0  0  0
  9 11  1  0  0  0  0
 11 12  1  1  0  0  0
 11 13  1  0  0  0  0
 13 14  1  0  0  0  0
 13 15  1  6  0  0  0
 15 16  1  0  0  0  0
M  CHG  1   3  -1
M  END
>  <CHROM.1>
58.40092956,-174.20495306,60.04509904,45.44803955,12.13914213,12.36891311
0.08147231,0.56641242,-0.08178051

>  <Name>
ligand

>  <RI>
0

>  <Rbt.Current_Directory>
/home/itssahil/PROJECTS/Mol_Feturizer/New_Systems/rnas/2HO7

>  <Rbt.Executable>
rbdock ($Id: //depot/dev/client3/rdock/2013.1/src/exe/rbdock.cxx#4 $)

>  <Rbt.Library>
libRbt.so (2013.1, Build901 2013/11/27)

>  <Rbt.Parameter_File>
/export/apps/rDock/src/rDock_2013.1_src/data/scripts/dock_solv.prm

>  <Rbt.Receptor>
prm/pocket_docking_7.prm

>  <SCORE>
-9.40274

>  <SCORE.INTER>
-9.49297

>  <SCORE.INTER.CONST>
1

>  <SCORE.INTER.POLAR>
-1.03923

>  <SCORE.INTER.ROT>
3

>  <SCORE.INTER.SOLV>
14.4171

>  <SCORE.INTER.VDW>
-13.2702

>  <SCORE.INTER.norm>
-0.59331

>  <SCORE.INTRA>
0.0902301

>  <SCORE.INTRA.DIHEDRAL>
0.165053

>  <SCORE.INTRA.DIHEDRAL.0>
0.00893466

>  <SCORE.INTRA.POLAR>
0

>  <SCORE.INTRA.POLAR.0>
0

>  <SCORE.INTRA.REPUL>
0

>  <SCORE.INTRA.REPUL.0>
0

>  <SCORE.INTRA.SOLV>
0.223195

>  <SCORE.INTRA.SOLV.lig_0>
-48.9722

>  <SCORE.INTRA.VDW>
-0.103894

>  <SCORE.INTRA.VDW.0>
-0.529409

>  <SCORE.INTRA.norm>
0.00563938

>  <SCORE.RESTR>
0

>  <SCORE.RESTR.CAVITY>
0

>  <SCORE.RESTR.norm>
0

>  <SCORE.SYSTEM>
0

>  <SCORE.SYSTEM.CONST>
0

>  <SCORE.SYSTEM.DIHEDRAL>
0

>  <SCORE.SYSTEM.SOLV>
0

>  <SCORE.SYSTEM.norm>
0

>  <SCORE.heavy>
16

>  <SCORE.norm>
-0.587671

>  <RMSD>
2.792

$$$$
ligand
 OpenBabel11021811433D
libRbt.so/2013.1/901 2013/11/27
 16 16  0  0  0  0  0  0  0  0999 V2000
   47.4327   10.4537    9.0990 P   0  0  2  0  0  0  0  0  0  0  0  0
   47.1419   11.4192    8.0103 O   0  0  0  0  0  0  0  0  0  0  0  0
   48.8249   10.8490    9.8028 O   0  5  0  0  0  0  0  0  0  0  0  0
   47.5561    8.9783    8.4653 O   0  0  0  0  0  0  0  0  0  0  0  0
   44.8884   11.7742   14.1089 C   0  0  2  0  0  0  0  0  0  0  0  0
   43.8390   10.7915   14.0459 O   0  0  0  0  0  0  0  0  0  0  0  0
   44.2988   13.2027   14.2306 C   0  0  2  0  0  0  0  0  0  0  0  0
   43.4431   13.2909   15.4197 O   0  0  0  0  0  0  0  0  0  0  0  0
   43.4616   13.4945   12.9711 C   0  0  1  0  0  0  0  0  0  0  0  0
   42.9080   14.8134   13.0522 O   0  0  0  0  0  0  0  0  0  0  0  0
   44.3844   13.3933   11.7466 C   0  0  2  0  0  0  0  0  0  0  0  0
   43.6198   13.6518   10.5494 O   0  0  0  0  0  0  0  0  0  0  0  0
   44.9791   11.9588   11.6960 C   0  0  2  0  0  0  0  0  0  0  0  0
   45.7364   11.6895   12.9155 O   0  0  0  0  0  0  0  0  0  0  0  0
   45.9314   11.8590   10.4905 C   0  0  0  0  0  0  0  0  0  0  0  0
   46.2473   10.4902   10.2086 O   0  0  0  0  0  0  0  0  0  0  0  0
  1  2  1  6  0  0  0
  1  3  1  0  0  0  0
  1  4  2  0  0  0  0
  1 16  1  0  0  0  0
  5  6  1  6  0  0  0
  5  7  1  0  0  0  0
  5 14  1  0  0  0  0
  7  8  1  1  0  0  0
  7  9  1  0  0  0  0
  9 10  1  1  0  0  0
  9 11  1  0  0  0  0
 11 12  1  6  0  0  0
 11 13  1  0  0  0  0
 13 14  1  0  0  0  0
 13 15  1  6  0  0  0
 15 16  1  0  0  0  0
M  CHG  1   3  -1
M  END
>  <CHROM.1>
-165.91425473,-170.81781083,-45.05341332,45.46669011,11.87204333,11.45835757
-0.51114478,-0.86321511,1.97862533

>  <Name>
ligand

>  <RI>
0

>  <Rbt.Current_Directory>
/home/itssahil/PROJECTS/Mol_Feturizer/New_Systems/rnas/2HO7

>  <Rbt.Executable>
rbdock ($Id: //depot/dev/client3/rdock/2013.1/src/exe/rbdock.cxx#4 $)

>  <Rbt.Library>
libRbt.so (2013.1, Build901 2013/11/27)

>  <Rbt.Parameter_File>
/export/apps/rDock/src/rDock_2013.1_src/data/scripts/dock_solv.prm

>  <Rbt.Receptor>
prm/pocket_docking_6.prm

>  <SCORE>
-10.2717

>  <SCORE.INTER>
-11.1566

>  <SCORE.INTER.CONST>
1

>  <SCORE.INTER.POLAR>
-1.29747

>  <SCORE.INTER.ROT>
3

>  <SCORE.INTER.SOLV>
15.8173

>  <SCORE.INTER.VDW>
-13.9853

>  <SCORE.INTER.norm>
-0.697289

>  <SCORE.INTRA>
0.884918

>  <SCORE.INTRA.DIHEDRAL>
1.43216

>  <SCORE.INTRA.DIHEDRAL.0>
0.00893466

>  <SCORE.INTRA.POLAR>
0

>  <SCORE.INTRA.POLAR.0>
0

>  <SCORE.INTRA.REPUL>
0

>  <SCORE.INTRA.REPUL.0>
0

>  <SCORE.INTRA.SOLV>
-0.0862725

>  <SCORE.INTRA.SOLV.lig_0>
-48.9722

>  <SCORE.INTRA.VDW>
0.211976

>  <SCORE.INTRA.VDW.0>
-0.529409

>  <SCORE.INTRA.norm>
0.0553074

>  <SCORE.RESTR>
0

>  <SCORE.RESTR.CAVITY>
0

>  <SCORE.RESTR.norm>
0

>  <SCORE.SYSTEM>
0

>  <SCORE.SYSTEM.CONST>
0

>  <SCORE.SYSTEM.DIHEDRAL>
0

>  <SCORE.SYSTEM.SOLV>
0

>  <SCORE.SYSTEM.norm>
0

>  <SCORE.heavy>
16

>  <SCORE.norm>
-0.641982

>  <RMSD>
2.804

$$$$
ligand
 OpenBabel11021811433D
libRbt.so/2013.1/901 2013/11/27
 16 16  0  0  0  0  0  0  0  0999 V2000
   47.4323   10.4657    9.1137 P   0  0  2  0  0  0  0  0  0  0  0  0
   47.1392   11.4137    8.0102 O   0  0  0  0  0  0  0  0  0  0  0  0
   48.8354   10.8606    9.7957 O   0  5  0  0  0  0  0  0  0  0  0  0
   47.5352    8.9777    8.5064 O   0  0  0  0  0  0  0  0  0  0  0  0
   44.7129   11.7505   14.0582 C   0  0  2  0  0  0  0  0  0  0  0  0
   43.5945   10.8614   13.8868 O   0  0  0  0  0  0  0  0  0  0  0  0
   44.2327   13.2158   14.2167 C   0  0  2  0  0  0  0  0  0  0  0  0
   43.3159   13.3208   15.3581 O   0  0  0  0  0  0  0  0  0  0  0  0
   43.4995   13.6318   12.9276 C   0  0  1  0  0  0  0  0  0  0  0  0
   43.0488   14.9868   13.0423 O   0  0  0  0  0  0  0  0  0  0  0  0
   44.4842   13.5098   11.7542 C   0  0  2  0  0  0  0  0  0  0  0  0
   43.8169   13.8838   10.5296 O   0  0  0  0  0  0  0  0  0  0  0  0
   44.9648   12.0349   11.6665 C   0  0  2  0  0  0  0  0  0  0  0  0
   45.6226   11.6497   12.9124 O   0  0  0  0  0  0  0  0  0  0  0  0
   45.9778   11.9111   10.5138 C   0  0  0  0  0  0  0  0  0  0  0  0
   46.2589   10.5342   10.2345 O   0  0  0  0  0  0  0  0  0  0  0  0
  1  2  1  6  0  0  0
  1  3  1  0  0  0  0
  1  4  2  0  0  0  0
  1 16  1  0  0  0  0
  5  6  1  6  0  0  0
  5  7  1  0  0  0  0
  5 14  1  0  0  0  0
  7  8  1  1  0  0  0
  7  9  1  0  0  0  0
  9 10  1  1  0  0  0
  9 11  1  0  0  0  0
 11 12  1  6  0  0  0
 11 13  1  0  0  0  0
 13 14  1  0  0  0  0
 13 15  1  6  0  0  0
 15 16  1  0  0  0  0
M  CHG  1   3  -1
M  END
>  <CHROM.1>
-169.25156396,-174.67944107,-46.20507430,45.45375435,11.92515814,11.44257928
-0.37078977,-0.90991242,2.14090290

>  <Name>
ligand

>  <RI>
0

>  <Rbt.Current_Directory>
/home/itssahil/PROJECTS/Mol_Feturizer/New_Systems/rnas/2HO7

>  <Rbt.Executable>
rbdock ($Id: //depot/dev/client3/rdock/2013.1/src/exe/rbdock.cxx#4 $)

>  <Rbt.Library>
libRbt.so (2013.1, Build901 2013/11/27)

>  <Rbt.Parameter_File>
/export/apps/rDock/src/rDock_2013.1_src/data/scripts/dock_solv.prm

>  <Rbt.Receptor>
prm/pocket_docking_6.prm

>  <SCORE>
-10.4583

>  <SCORE.INTER>
-11.012

>  <SCORE.INTER.CONST>
1

>  <SCORE.INTER.POLAR>
-1.29904

>  <SCORE.INTER.ROT>
3

>  <SCORE.INTER.SOLV>
15.4845

>  <SCORE.INTER.VDW>
-13.7727

>  <SCORE.INTER.norm>
-0.688248

>  <SCORE.INTRA>
0.553703

>  <SCORE.INTRA.DIHEDRAL>
0.834817

>  <SCORE.INTRA.DIHEDRAL.0>
0.00893466

>  <SCORE.INTRA.POLAR>
0

>  <SCORE.INTRA.POLAR.0>
0

>  <SCORE.INTRA.REPUL>
0

>  <SCORE.INTRA.REPUL.0>
0

>  <SCORE.INTRA.SOLV>
-0.107365

>  <SCORE.INTRA.SOLV.lig_0>
-48.9722

>  <SCORE.INTRA.VDW>
0.189978

>  <SCORE.INTRA.VDW.0>
-0.529409

>  <SCORE.INTRA.norm>
0.0346065

>  <SCORE.RESTR>
0

>  <SCORE.RESTR.CAVITY>
0

>  <SCORE.RESTR.norm>
0

>  <SCORE.SYSTEM>
0

>  <SCORE.SYSTEM.CONST>
0

>  <SCORE.SYSTEM.DIHEDRAL>
0

>  <SCORE.SYSTEM.SOLV>
0

>  <SCORE.SYSTEM.norm>
0

>  <SCORE.heavy>
16

>  <SCORE.norm>
-0.653642

>  <RMSD>
2.809

$$$$
ligand
 OpenBabel11021811433D
libRbt.so/2013.1/901 2013/11/27
 16 16  0  0  0  0  0  0  0  0999 V2000
   48.2136   12.1034   11.4797 P   0  0  2  0  0  0  0  0  0  0  0  0
   49.0577   12.0185   12.6973 O   0  0  0  0  0  0  0  0  0  0  0  0
   48.7068   11.0043   10.4127 O   0  5  0  0  0  0  0  0  0  0  0  0
   48.3699   13.5736   10.8412 O   0  0  0  0  0  0  0  0  0  0  0  0
   42.7471   13.2846   12.6886 C   0  0  2  0  0  0  0  0  0  0  0  0
   42.4491   13.7963   14.0001 O   0  0  0  0  0  0  0  0  0  0  0  0
   42.1705   11.8567   12.5103 C   0  0  2  0  0  0  0  0  0  0  0  0
   40.7204   11.8712   12.7367 O   0  0  0  0  0  0  0  0  0  0  0  0
   42.8426   10.9266   13.5377 C   0  0  1  0  0  0  0  0  0  0  0  0
   42.3332    9.5955   13.3922 O   0  0  0  0  0  0  0  0  0  0  0  0
   44.3565   10.9347   13.2748 C   0  0  2  0  0  0  0  0  0  0  0  0
   45.0126   10.0776   14.2339 O   0  0  0  0  0  0  0  0  0  0  0  0
   44.8743   12.3919   13.4253 C   0  0  2  0  0  0  0  0  0  0  0  0
   44.1968   13.2631   12.4687 O   0  0  0  0  0  0  0  0  0  0  0  0
   46.3851   12.4142   13.1306 C   0  0  0  0  0  0  0  0  0  0  0  0
   46.6599   11.8180   11.8570 O   0  0  0  0  0  0  0  0  0  0  0  0
  1  2  1  1  0  0  0
  1  3  1  0  0  0  0
  1  4  2  0  0  0  0
  1 16  1  0  0  0  0
  5  6  1  1  0  0  0
  5  7  1  0  0  0  0
  5 14  1  0  0  0  0
  7  8  1  1  0  0  0
  7  9  1  0  0  0  0
  9 10  1  6  0  0  0
  9 11  1  0  0  0  0
 11 12  1  1  0  0  0
 11 13  1  0  0  0  0
 13 14  1  0  0  0  0
 13 15  1  6  0  0  0
 15 16  1  0  0  0  0
M  CHG  1   3  -1
M  END
>  <CHROM.1>
53.58874040,170.02241156,37.65800439,45.21565775,11.94264011,12.56971536
0.11949856,0.25797786,-0.24422543

>  <Name>
ligand

>  <RI>
0

>  <Rbt.Current_Directory>
/home/itssahil/PROJECTS/Mol_Feturizer/New_Systems/rnas/2HO7

>  <Rbt.Executable>
rbdock ($Id: //depot/dev/client3/rdock/2013.1/src/exe/rbdock.cxx#4 $)

>  <Rbt.Library>
libRbt.so (2013.1, Build901 2013/11/27)

>  <Rbt.Parameter_File>
/export/apps/rDock/src/rDock_2013.1_src/data/scripts/dock_solv.prm

>  <Rbt.Receptor>
prm/pocket_docking_6.prm

>  <SCORE>
-8.64646

>  <SCORE.INTER>
-9.83044

>  <SCORE.INTER.CONST>
1

>  <SCORE.INTER.POLAR>
-1.29648

>  <SCORE.INTER.ROT>
3

>  <SCORE.INTER.SOLV>
16.7854

>  <SCORE.INTER.VDW>
-13.4272

>  <SCORE.INTER.norm>
-0.614403

>  <SCORE.INTRA>
1.18398

>  <SCORE.INTRA.DIHEDRAL>
1.35252

>  <SCORE.INTRA.DIHEDRAL.0>
0.00893466

>  <SCORE.INTRA.POLAR>
0

>  <SCORE.INTRA.POLAR.0>
0

>  <SCORE.INTRA.REPUL>
0

>  <SCORE.INTRA.REPUL.0>
0

>  <SCORE.INTRA.SOLV>
0.0968566

>  <SCORE.INTRA.SOLV.lig_0>
-48.9722

>  <SCORE.INTRA.VDW>
0.459292

>  <SCORE.INTRA.VDW.0>
-0.529409

>  <SCORE.INTRA.norm>
0.0739988

>  <SCORE.RESTR>
0

>  <SCORE.RESTR.CAVITY>
0

>  <SCORE.RESTR.norm>
0

>  <SCORE.SYSTEM>
0

>  <SCORE.SYSTEM.CONST>
0

>  <SCORE.SYSTEM.DIHEDRAL>
0

>  <SCORE.SYSTEM.SOLV>
0

>  <SCORE.SYSTEM.norm>
0

>  <SCORE.heavy>
16

>  <SCORE.norm>
-0.540404

>  <RMSD>
2.844

$$$$
ligand
 OpenBabel11021811433D
libRbt.so/2013.1/901 2013/11/27
 16 16  0  0  0  0  0  0  0  0999 V2000
   47.2455   10.8389    9.3129 P   0  0  2  0  0  0  0  0  0  0  0  0
   47.0725    9.6331    8.4653 O   0  0  0  0  0  0  0  0  0  0  0  0
   47.1818   12.1536    8.3870 O   0  5  0  0  0  0  0  0  0  0  0  0
   48.6834   10.7645   10.0344 O   0  0  0  0  0  0  0  0  0  0  0  0
   44.1512   11.9153   14.2144 C   0  0  2  0  0  0  0  0  0  0  0  0
   42.9733   11.2285   13.7542 O   0  0  0  0  0  0  0  0  0  0  0  0
   43.8488   13.4131   14.4757 C   0  0  2  0  0  0  0  0  0  0  0  0
   42.7655   13.5405   15.4578 O   0  0  0  0  0  0  0  0  0  0  0  0
   43.4186   14.0636   13.1475 C   0  0  1  0  0  0  0  0  0  0  0  0
   43.1383   15.4528   13.3569 O   0  0  0  0  0  0  0  0  0  0  0  0
   44.5716   13.9123   12.1429 C   0  0  2  0  0  0  0  0  0  0  0  0
   44.1886   14.5051   10.8833 O   0  0  0  0  0  0  0  0  0  0  0  0
   44.8604   12.3979   11.9498 C   0  0  2  0  0  0  0  0  0  0  0  0
   45.2288   11.7936   13.2273 O   0  0  0  0  0  0  0  0  0  0  0  0
   46.0369   12.2386   10.9698 C   0  0  0  0  0  0  0  0  0  0  0  0
   46.0636   10.9139   10.4242 O   0  0  0  0  0  0  0  0  0  0  0  0
  1  2  1  6  0  0  0
  1  3  1  0  0  0  0
  1  4  2  0  0  0  0
  1 16  1  0  0  0  0
  5  6  1  6  0  0  0
  5  7  1  0  0  0  0
  5 14  1  0  0  0  0
  7  8  1  1  0  0  0
  7  9  1  0  0  0  0
  9 10  1  1  0  0  0
  9 11  1  0  0  0  0
 11 12  1  6  0  0  0
 11 13  1  0  0  0  0
 13 14  1  0  0  0  0
 13 15  1  6  0  0  0
 15 16  1  0  0  0  0
M  CHG  1   3  -1
M  END
>  <CHROM.1>
-161.13263412,175.49958010,-164.32314386,45.26294166,12.28882646,11.66693620
-0.06163010,-0.94430007,2.54406324

>  <Name>
ligand

>  <RI>
0

>  <Rbt.Current_Directory>
/home/itssahil/PROJECTS/Mol_Feturizer/New_Systems/rnas/2HO7

>  <Rbt.Executable>
rbdock ($Id: //depot/dev/client3/rdock/2013.1/src/exe/rbdock.cxx#4 $)

>  <Rbt.Library>
libRbt.so (2013.1, Build901 2013/11/27)

>  <Rbt.Parameter_File>
/export/apps/rDock/src/rDock_2013.1_src/data/scripts/dock_solv.prm

>  <Rbt.Receptor>
prm/pocket_docking_6.prm

>  <SCORE>
-10.3743

>  <SCORE.INTER>
-11.5419

>  <SCORE.INTER.CONST>
1

>  <SCORE.INTER.POLAR>
-1.29884

>  <SCORE.INTER.ROT>
3

>  <SCORE.INTER.SOLV>
14.6574

>  <SCORE.INTER.VDW>
-13.851

>  <SCORE.INTER.norm>
-0.721371

>  <SCORE.INTRA>
1.16767

>  <SCORE.INTRA.DIHEDRAL>
1.65693

>  <SCORE.INTRA.DIHEDRAL.0>
0.00893466

>  <SCORE.INTRA.POLAR>
0

>  <SCORE.INTRA.POLAR.0>
0

>  <SCORE.INTRA.REPUL>
0

>  <SCORE.INTRA.REPUL.0>
0

>  <SCORE.INTRA.SOLV>
0.572255

>  <SCORE.INTRA.SOLV.lig_0>
-48.9722

>  <SCORE.INTRA.VDW>
0.0530721

>  <SCORE.INTRA.VDW.0>
-0.529409

>  <SCORE.INTRA.norm>
0.0729791

>  <SCORE.RESTR>
0

>  <SCORE.RESTR.CAVITY>
0

>  <SCORE.RESTR.norm>
0

>  <SCORE.SYSTEM>
0

>  <SCORE.SYSTEM.CONST>
0

>  <SCORE.SYSTEM.DIHEDRAL>
0

>  <SCORE.SYSTEM.SOLV>
0

>  <SCORE.SYSTEM.norm>
0

>  <SCORE.heavy>
16

>  <SCORE.norm>
-0.648392

>  <RMSD>
2.845

$$$$
ligand
 OpenBabel11021811433D
libRbt.so/2013.1/901 2013/11/27
 16 16  0  0  0  0  0  0  0  0999 V2000
   47.2607   10.7499    9.2986 P   0  0  2  0  0  0  0  0  0  0  0  0
   47.1335    9.4851    8.5330 O   0  0  0  0  0  0  0  0  0  0  0  0
   47.1100   11.9977    8.2935 O   0  5  0  0  0  0  0  0  0  0  0  0
   48.7148   10.7948    9.9894 O   0  0  0  0  0  0  0  0  0  0  0  0
   44.2730   11.9008   14.2292 C   0  0  2  0  0  0  0  0  0  0  0  0
   43.0961   11.1757   13.8294 O   0  0  0  0  0  0  0  0  0  0  0  0
   43.9446   13.3974   14.4645 C   0  0  2  0  0  0  0  0  0  0  0  0
   42.8946   13.5249   15.4820 O   0  0  0  0  0  0  0  0  0  0  0  0
   43.4516   14.0038   13.1372 C   0  0  1  0  0  0  0  0  0  0  0  0
   43.1459   15.3911   13.3224 O   0  0  0  0  0  0  0  0  0  0  0  0
   44.5710   13.8535   12.0953 C   0  0  2  0  0  0  0  0  0  0  0  0
   44.1289   14.4050   10.8362 O   0  0  0  0  0  0  0  0  0  0  0  0
   44.8887   12.3417   11.9290 C   0  0  2  0  0  0  0  0  0  0  0  0
   45.3171   11.7787   13.2068 O   0  0  0  0  0  0  0  0  0  0  0  0
   46.0327   12.1844   10.9109 C   0  0  0  0  0  0  0  0  0  0  0  0
   46.0992   10.8362   10.4305 O   0  0  0  0  0  0  0  0  0  0  0  0
  1  2  1  6  0  0  0
  1  3  1  0  0  0  0
  1  4  2  0  0  0  0
  1 16  1  0  0  0  0
  5  6  1  6  0  0  0
  5  7  1  0  0  0  0
  5 14  1  0  0  0  0
  7  8  1  1  0  0  0
  7  9  1  0  0  0  0
  9 10  1  1  0  0  0
  9 11  1  0  0  0  0
 11 12  1  6  0  0  0
 11 13  1  0  0  0  0
 13 14  1  0  0  0  0
 13 15  1  6  0  0  0
 15 16  1  0  0  0  0
M  CHG  1   3  -1
M  END
>  <CHROM.1>
-163.03726367,176.64946392,-165.44912326,45.30048350,12.22692857,11.65387620
-0.12376497,-0.95110997,2.46097921

>  <Name>
ligand

>  <RI>
0

>  <Rbt.Current_Directory>
/home/itssahil/PROJECTS/Mol_Feturizer/New_Systems/rnas/2HO7

>  <Rbt.Executable>
rbdock ($Id: //depot/dev/client3/rdock/2013.1/src/exe/rbdock.cxx#4 $)

>  <Rbt.Library>
libRbt.so (2013.1, Build901 2013/11/27)

>  <Rbt.Parameter_File>
/export/apps/rDock/src/rDock_2013.1_src/data/scripts/dock_solv.prm

>  <Rbt.Receptor>
prm/pocket_docking_5.prm

>  <SCORE>
-10.2999

>  <SCORE.INTER>
-11.3149

>  <SCORE.INTER.CONST>
1

>  <SCORE.INTER.POLAR>
-1.29904

>  <SCORE.INTER.ROT>
3

>  <SCORE.INTER.SOLV>
14.9819

>  <SCORE.INTER.VDW>
-13.8071

>  <SCORE.INTER.norm>
-0.707179

>  <SCORE.INTRA>
1.01498

>  <SCORE.INTRA.DIHEDRAL>
1.35035

>  <SCORE.INTRA.DIHEDRAL.0>
0.00893466

>  <SCORE.INTRA.POLAR>
0

>  <SCORE.INTRA.POLAR.0>
0

>  <SCORE.INTRA.REPUL>
0

>  <SCORE.INTRA.REPUL.0>
0

>  <SCORE.INTRA.SOLV>
0.584932

>  <SCORE.INTRA.SOLV.lig_0>
-48.9722

>  <SCORE.INTRA.VDW>
0.0473453

>  <SCORE.INTRA.VDW.0>
-0.529409

>  <SCORE.INTRA.norm>
0.0634365

>  <SCORE.RESTR>
0

>  <SCORE.RESTR.CAVITY>
0

>  <SCORE.RESTR.norm>
0

>  <SCORE.SYSTEM>
0

>  <SCORE.SYSTEM.CONST>
0

>  <SCORE.SYSTEM.DIHEDRAL>
0

>  <SCORE.SYSTEM.SOLV>
0

>  <SCORE.SYSTEM.norm>
0

>  <SCORE.heavy>
16

>  <SCORE.norm>
-0.643742

>  <RMSD>
2.851

$$$$
ligand
 OpenBabel11021811433D
libRbt.so/2013.1/901 2013/11/27
 16 16  0  0  0  0  0  0  0  0999 V2000
   47.2321   10.8018    9.2976 P   0  0  2  0  0  0  0  0  0  0  0  0
   47.0536    9.5961    8.4510 O   0  0  0  0  0  0  0  0  0  0  0  0
   47.1847   12.1155    8.3693 O   0  5  0  0  0  0  0  0  0  0  0  0
   48.6652   10.7164   10.0273 O   0  0  0  0  0  0  0  0  0  0  0  0
   44.1320   11.9247   14.1811 C   0  0  2  0  0  0  0  0  0  0  0  0
   42.9550   11.2311   13.7292 O   0  0  0  0  0  0  0  0  0  0  0  0
   43.8271   13.4244   14.4282 C   0  0  2  0  0  0  0  0  0  0  0  0
   42.7448   13.5593   15.4103 O   0  0  0  0  0  0  0  0  0  0  0  0
   43.3939   14.0610   13.0942 C   0  0  1  0  0  0  0  0  0  0  0  0
   43.1111   15.4516   13.2903 O   0  0  0  0  0  0  0  0  0  0  0  0
   44.5459   13.9021   12.0897 C   0  0  2  0  0  0  0  0  0  0  0  0
   44.1601   14.4818   10.8248 O   0  0  0  0  0  0  0  0  0  0  0  0
   44.8375   12.3865   11.9109 C   0  0  2  0  0  0  0  0  0  0  0  0
   45.2087   11.7954   13.1939 O   0  0  0  0  0  0  0  0  0  0  0  0
   46.0131   12.2199   10.9310 C   0  0  0  0  0  0  0  0  0  0  0  0
   46.0446   10.8886   10.4021 O   0  0  0  0  0  0  0  0  0  0  0  0
  1  2  1  6  0  0  0
  1  3  1  0  0  0  0
  1  4  2  0  0  0  0
  1 16  1  0  0  0  0
  5  6  1  6  0  0  0
  5  7  1  0  0  0  0
  5 14  1  0  0  0  0
  7  8  1  1  0  0  0
  7  9  1  0  0  0  0
  9 10  1  1  0  0  0
  9 11  1  0  0  0  0
 11 12  1  6  0  0  0
 11 13  1  0  0  0  0
 13 14  1  0  0  0  0
 13 15  1  6  0  0  0
 15 16  1  0  0  0  0
M  CHG  1   3  -1
M  END
>  <CHROM.1>
-161.34059269,175.90372447,-163.47644755,45.24354254,12.27367184,11.63293929
-0.06392138,-0.94238268,2.53084128

>  <Name>
ligand

>  <RI>
0

>  <Rbt.Current_Directory>
/home/itssahil/PROJECTS/Mol_Feturizer/New_Systems/rnas/2HO7

>  <Rbt.Executable>
rbdock ($Id: //depot/dev/client3/rdock/2013.1/src/exe/rbdock.cxx#4 $)

>  <Rbt.Library>
libRbt.so (2013.1, Build901 2013/11/27)

>  <Rbt.Parameter_File>
/export/apps/rDock/src/rDock_2013.1_src/data/scripts/dock_solv.prm

>  <Rbt.Receptor>
prm/pocket_docking_7.prm

>  <SCORE>
-10.3747

>  <SCORE.INTER>
-11.5626

>  <SCORE.INTER.CONST>
1

>  <SCORE.INTER.POLAR>
-1.29904

>  <SCORE.INTER.ROT>
3

>  <SCORE.INTER.SOLV>
14.5982

>  <SCORE.INTER.VDW>
-13.8443

>  <SCORE.INTER.norm>
-0.722661

>  <SCORE.INTRA>
1.1879

>  <SCORE.INTRA.DIHEDRAL>
1.6557

>  <SCORE.INTRA.DIHEDRAL.0>
0.00893466

>  <SCORE.INTRA.POLAR>
0

>  <SCORE.INTRA.POLAR.0>
0

>  <SCORE.INTRA.REPUL>
0

>  <SCORE.INTRA.REPUL.0>
0

>  <SCORE.INTRA.SOLV>
0.57241

>  <SCORE.INTRA.SOLV.lig_0>
-48.9722

>  <SCORE.INTRA.VDW>
0.0738429

>  <SCORE.INTRA.VDW.0>
-0.529409

>  <SCORE.INTRA.norm>
0.0742435

>  <SCORE.RESTR>
0

>  <SCORE.RESTR.CAVITY>
0

>  <SCORE.RESTR.norm>
0

>  <SCORE.SYSTEM>
0

>  <SCORE.SYSTEM.CONST>
0

>  <SCORE.SYSTEM.DIHEDRAL>
0

>  <SCORE.SYSTEM.SOLV>
0

>  <SCORE.SYSTEM.norm>
0

>  <SCORE.heavy>
16

>  <SCORE.norm>
-0.648418

>  <RMSD>
2.860

$$$$
ligand
 OpenBabel11021811433D
libRbt.so/2013.1/901 2013/11/27
 16 16  0  0  0  0  0  0  0  0999 V2000
   47.2281   10.6723    9.2950 P   0  0  2  0  0  0  0  0  0  0  0  0
   47.0893    9.3887    8.5632 O   0  0  0  0  0  0  0  0  0  0  0  0
   47.0889   11.8942    8.2571 O   0  5  0  0  0  0  0  0  0  0  0  0
   48.6825   10.7221    9.9848 O   0  0  0  0  0  0  0  0  0  0  0  0
   44.1651   11.9119   14.1147 C   0  0  2  0  0  0  0  0  0  0  0  0
   42.9607   11.2466   13.6935 O   0  0  0  0  0  0  0  0  0  0  0  0
   43.9012   13.4174   14.3734 C   0  0  2  0  0  0  0  0  0  0  0  0
   42.8495   13.5741   15.3851 O   0  0  0  0  0  0  0  0  0  0  0  0
   43.4465   14.0675   13.0532 C   0  0  1  0  0  0  0  0  0  0  0  0
   43.2008   15.4637   13.2601 O   0  0  0  0  0  0  0  0  0  0  0  0
   44.5667   13.8855   12.0172 C   0  0  2  0  0  0  0  0  0  0  0  0
   44.1598   14.4774   10.7646 O   0  0  0  0  0  0  0  0  0  0  0  0
   44.8186   12.3642   11.8271 C   0  0  2  0  0  0  0  0  0  0  0  0
   45.2112   11.7611   13.0981 O   0  0  0  0  0  0  0  0  0  0  0  0
   45.9630   12.1737   10.8151 C   0  0  0  0  0  0  0  0  0  0  0  0
   46.0673   10.7992   10.4238 O   0  0  0  0  0  0  0  0  0  0  0  0
  1  2  1  6  0  0  0
  1  3  1  0  0  0  0
  1  4  2  0  0  0  0
  1 16  1  0  0  0  0
  5  6  1  6  0  0  0
  5  7  1  0  0  0  0
  5 14  1  0  0  0  0
  7  8  1  1  0  0  0
  7  9  1  0  0  0  0
  9 10  1  1  0  0  0
  9 11  1  0  0  0  0
 11 12  1  6  0  0  0
 11 13  1  0  0  0  0
 13 14  1  0  0  0  0
 13 15  1  6  0  0  0
 15 16  1  0  0  0  0
M  CHG  1   3  -1
M  END
>  <CHROM.1>
-169.43099645,176.72951039,-162.31367938,45.26005241,12.22060896,11.59304767
-0.04129525,-0.95446110,2.53050125

>  <Name>
ligand

>  <RI>
0

>  <Rbt.Current_Directory>
/home/itssahil/PROJECTS/Mol_Feturizer/New_Systems/rnas/2HO7

>  <Rbt.Executable>
rbdock ($Id: //depot/dev/client3/rdock/2013.1/src/exe/rbdock.cxx#4 $)

>  <Rbt.Library>
libRbt.so (2013.1, Build901 2013/11/27)

>  <Rbt.Parameter_File>
/export/apps/rDock/src/rDock_2013.1_src/data/scripts/dock_solv.prm

>  <Rbt.Receptor>
prm/pocket_docking_8.prm

>  <SCORE>
-10.3343

>  <SCORE.INTER>
-11.2166

>  <SCORE.INTER.CONST>
1

>  <SCORE.INTER.POLAR>
-1.29736

>  <SCORE.INTER.ROT>
3

>  <SCORE.INTER.SOLV>
14.9516

>  <SCORE.INTER.VDW>
-13.7371

>  <SCORE.INTER.norm>
-0.701037

>  <SCORE.INTRA>
0.882269

>  <SCORE.INTRA.DIHEDRAL>
0.914465

>  <SCORE.INTRA.DIHEDRAL.0>
0.00893466

>  <SCORE.INTRA.POLAR>
0

>  <SCORE.INTRA.POLAR.0>
0

>  <SCORE.INTRA.REPUL>
0

>  <SCORE.INTRA.REPUL.0>
0

>  <SCORE.INTRA.SOLV>
0.598266

>  <SCORE.INTRA.SOLV.lig_0>
-48.9722

>  <SCORE.INTRA.VDW>
0.125904

>  <SCORE.INTRA.VDW.0>
-0.529409

>  <SCORE.INTRA.norm>
0.0551418

>  <SCORE.RESTR>
0

>  <SCORE.RESTR.CAVITY>
0

>  <SCORE.RESTR.norm>
0

>  <SCORE.SYSTEM>
0

>  <SCORE.SYSTEM.CONST>
0

>  <SCORE.SYSTEM.DIHEDRAL>
0

>  <SCORE.SYSTEM.SOLV>
0

>  <SCORE.SYSTEM.norm>
0

>  <SCORE.heavy>
16

>  <SCORE.norm>
-0.645895

>  <RMSD>
2.901

$$$$
ligand
 OpenBabel11021811433D
libRbt.so/2013.1/901 2013/11/27
 16 16  0  0  0  0  0  0  0  0999 V2000
   47.3506   10.3532    9.1365 P   0  0  2  0  0  0  0  0  0  0  0  0
   47.4054    8.9605    8.6272 O   0  0  0  0  0  0  0  0  0  0  0  0
   47.0349   11.3539    7.9163 O   0  5  0  0  0  0  0  0  0  0  0  0
   48.7797   10.7284    9.7772 O   0  0  0  0  0  0  0  0  0  0  0  0
   44.5189   11.6711   14.0870 C   0  0  2  0  0  0  0  0  0  0  0  0
   43.3235   10.9389   13.7616 O   0  0  0  0  0  0  0  0  0  0  0  0
   44.2044   13.1746   14.2958 C   0  0  2  0  0  0  0  0  0  0  0  0
   43.2025   13.3332   15.3565 O   0  0  0  0  0  0  0  0  0  0  0  0
   43.6522   13.7460   12.9764 C   0  0  1  0  0  0  0  0  0  0  0  0
   43.3579   15.1388   13.1372 O   0  0  0  0  0  0  0  0  0  0  0  0
   44.7223   13.5637   11.8888 C   0  0  2  0  0  0  0  0  0  0  0  0
   44.2240   14.0820   10.6366 O   0  0  0  0  0  0  0  0  0  0  0  0
   45.0292   12.0469   11.7497 C   0  0  2  0  0  0  0  0  0  0  0  0
   45.5148   11.5178   13.0215 O   0  0  0  0  0  0  0  0  0  0  0  0
   46.1250   11.8583   10.6850 C   0  0  0  0  0  0  0  0  0  0  0  0
   46.1808   10.4928   10.2544 O   0  0  0  0  0  0  0  0  0  0  0  0
  1  2  1  6  0  0  0
  1  3  1  0  0  0  0
  1  4  2  0  0  0  0
  1 16  1  0  0  0  0
  5  6  1  6  0  0  0
  5  7  1  0  0  0  0
  5 14  1  0  0  0  0
  7  8  1  1  0  0  0
  7  9  1  0  0  0  0
  9 10  1  1  0  0  0
  9 11  1  0  0  0  0
 11 12  1  6  0  0  0
 11 13  1  0  0  0  0
 13 14  1  0  0  0  0
 13 15  1  6  0  0  0
 15 16  1  0  0  0  0
M  CHG  1   3  -1
M  END
>  <CHROM.1>
-163.93037244,-179.95631526,-177.87012293,45.45478832,11.91520957,11.48736663
-0.16323286,-0.97456806,2.39102550

>  <Name>
ligand

>  <RI>
0

>  <Rbt.Current_Directory>
/home/itssahil/PROJECTS/Mol_Feturizer/New_Systems/rnas/2HO7

>  <Rbt.Executable>
rbdock ($Id: //depot/dev/client3/rdock/2013.1/src/exe/rbdock.cxx#4 $)

>  <Rbt.Library>
libRbt.so (2013.1, Build901 2013/11/27)

>  <Rbt.Parameter_File>
/export/apps/rDock/src/rDock_2013.1_src/data/scripts/dock_solv.prm

>  <Rbt.Receptor>
prm/pocket_docking_6.prm

>  <SCORE>
-10.1279

>  <SCORE.INTER>
-10.789

>  <SCORE.INTER.CONST>
1

>  <SCORE.INTER.POLAR>
-1.29904

>  <SCORE.INTER.ROT>
3

>  <SCORE.INTER.SOLV>
16.0664

>  <SCORE.INTER.VDW>
-13.818

>  <SCORE.INTER.norm>
-0.674313

>  <SCORE.INTRA>
0.6611

>  <SCORE.INTRA.DIHEDRAL>
0.877933

>  <SCORE.INTRA.DIHEDRAL.0>
0.00893466

>  <SCORE.INTRA.POLAR>
0

>  <SCORE.INTRA.POLAR.0>
0

>  <SCORE.INTRA.REPUL>
0

>  <SCORE.INTRA.REPUL.0>
0

>  <SCORE.INTRA.SOLV>
0.61607

>  <SCORE.INTRA.SOLV.lig_0>
-48.9722

>  <SCORE.INTRA.VDW>
-0.0859015

>  <SCORE.INTRA.VDW.0>
-0.529409

>  <SCORE.INTRA.norm>
0.0413187

>  <SCORE.RESTR>
0

>  <SCORE.RESTR.CAVITY>
0

>  <SCORE.RESTR.norm>
0

>  <SCORE.SYSTEM>
0

>  <SCORE.SYSTEM.CONST>
0

>  <SCORE.SYSTEM.DIHEDRAL>
0

>  <SCORE.SYSTEM.SOLV>
0

>  <SCORE.SYSTEM.norm>
0

>  <SCORE.heavy>
16

>  <SCORE.norm>
-0.632994

>  <RMSD>
2.922

$$$$
ligand
 OpenBabel11021811433D
libRbt.so/2013.1/901 2013/11/27
 16 16  0  0  0  0  0  0  0  0999 V2000
   48.2384   12.1557    9.4954 P   0  0  2  0  0  0  0  0  0  0  0  0
   47.5262   10.9761    8.9442 O   0  0  0  0  0  0  0  0  0  0  0  0
   48.1824   13.3580    8.4272 O   0  5  0  0  0  0  0  0  0  0  0  0
   49.7744   11.7548    9.7665 O   0  0  0  0  0  0  0  0  0  0  0  0
   43.2533   13.9452   12.7833 C   0  0  2  0  0  0  0  0  0  0  0  0
   43.7627   15.2073   13.2507 O   0  0  0  0  0  0  0  0  0  0  0  0
   43.3431   12.8689   13.8953 C   0  0  2  0  0  0  0  0  0  0  0  0
   42.6013   13.3125   15.0815 O   0  0  0  0  0  0  0  0  0  0  0  0
   44.8256   12.6669   14.2609 C   0  0  1  0  0  0  0  0  0  0  0  0
   44.9408   11.6707   15.2841 O   0  0  0  0  0  0  0  0  0  0  0  0
   45.5727   12.2049   13.0001 C   0  0  2  0  0  0  0  0  0  0  0  0
   46.9698   12.0190   13.3139 O   0  0  0  0  0  0  0  0  0  0  0  0
   45.4161   13.2980   11.9071 C   0  0  2  0  0  0  0  0  0  0  0  0
   44.0019   13.5005   11.6034 O   0  0  0  0  0  0  0  0  0  0  0  0
   46.1340   12.8277   10.6290 C   0  0  0  0  0  0  0  0  0  0  0  0
   47.5326   12.6384   10.8761 O   0  0  0  0  0  0  0  0  0  0  0  0
  1  2  1  6  0  0  0
  1  3  1  0  0  0  0
  1  4  2  0  0  0  0
  1 16  1  0  0  0  0
  5  6  1  1  0  0  0
  5  7  1  0  0  0  0
  5 14  1  0  0  0  0
  7  8  1  1  0  0  0
  7  9  1  0  0  0  0
  9 10  1  1  0  0  0
  9 11  1  0  0  0  0
 11 12  1  1  0  0  0
 11 13  1  0  0  0  0
 13 14  1  0  0  0  0
 13 15  1  6  0  0  0
 15 16  1  0  0  0  0
M  CHG  1   3  -1
M  END
>  <CHROM.1>
-61.25270803,-179.55326442,-52.97937491,45.97276790,12.72536425,11.82711492
0.59729936,0.57978770,-1.12603464

>  <Name>
ligand

>  <RI>
0

>  <Rbt.Current_Directory>
/home/itssahil/PROJECTS/Mol_Feturizer/New_Systems/rnas/2HO7

>  <Rbt.Executable>
rbdock ($Id: //depot/dev/client3/rdock/2013.1/src/exe/rbdock.cxx#4 $)

>  <Rbt.Library>
libRbt.so (2013.1, Build901 2013/11/27)

>  <Rbt.Parameter_File>
/export/apps/rDock/src/rDock_2013.1_src/data/scripts/dock_solv.prm

>  <Rbt.Receptor>
prm/pocket_docking_4.prm

>  <SCORE>
-9.17129

>  <SCORE.INTER>
-9.77144

>  <SCORE.INTER.CONST>
1

>  <SCORE.INTER.POLAR>
-1.29093

>  <SCORE.INTER.ROT>
3

>  <SCORE.INTER.SOLV>
14.2578

>  <SCORE.INTER.VDW>
-12.5638

>  <SCORE.INTER.norm>
-0.610715

>  <SCORE.INTRA>
0.592486

>  <SCORE.INTRA.DIHEDRAL>
0.0775213

>  <SCORE.INTRA.DIHEDRAL.0>
0.00893466

>  <SCORE.INTRA.POLAR>
0

>  <SCORE.INTRA.POLAR.0>
0

>  <SCORE.INTRA.REPUL>
0

>  <SCORE.INTRA.REPUL.0>
0

>  <SCORE.INTRA.SOLV>
0.442089

>  <SCORE.INTRA.SOLV.lig_0>
-48.9722

>  <SCORE.INTRA.VDW>
0.33268

>  <SCORE.INTRA.VDW.0>
-0.529409

>  <SCORE.INTRA.norm>
0.0370303

>  <SCORE.RESTR>
0.00767154

>  <SCORE.RESTR.CAVITY>
0.00767154

>  <SCORE.RESTR.norm>
0.000479471

>  <SCORE.SYSTEM>
0

>  <SCORE.SYSTEM.CONST>
0

>  <SCORE.SYSTEM.DIHEDRAL>
0

>  <SCORE.SYSTEM.SOLV>
0

>  <SCORE.SYSTEM.norm>
0

>  <SCORE.heavy>
16

>  <SCORE.norm>
-0.573205

>  <RMSD>
3.115

$$$$
ligand
 OpenBabel11021811433D
libRbt.so/2013.1/901 2013/11/27
 16 16  0  0  0  0  0  0  0  0999 V2000
   46.5842   11.0772    8.9734 P   0  0  2  0  0  0  0  0  0  0  0  0
   45.9830   11.7814    7.8137 O   0  0  0  0  0  0  0  0  0  0  0  0
   47.9692   11.7937    9.3712 O   0  5  0  0  0  0  0  0  0  0  0  0
   46.8750    9.5485    8.5587 O   0  0  0  0  0  0  0  0  0  0  0  0
   44.0145   12.0926   14.0653 C   0  0  2  0  0  0  0  0  0  0  0  0
   42.8021   11.3622   13.8059 O   0  0  0  0  0  0  0  0  0  0  0  0
   43.7049   13.5761   14.3913 C   0  0  2  0  0  0  0  0  0  0  0  0
   42.8022   13.6565   15.5458 O   0  0  0  0  0  0  0  0  0  0  0  0
   43.0289   14.2153   13.1638 C   0  0  1  0  0  0  0  0  0  0  0  0
   42.7361   15.5915   13.4337 O   0  0  0  0  0  0  0  0  0  0  0  0
   43.9973   14.1140   11.9750 C   0  0  2  0  0  0  0  0  0  0  0  0
   43.3816   14.6970   10.8063 O   0  0  0  0  0  0  0  0  0  0  0  0
   44.3059   12.6130   11.7182 C   0  0  2  0  0  0  0  0  0  0  0  0
   44.9107   12.0178   12.9069 O   0  0  0  0  0  0  0  0  0  0  0  0
   45.3020   12.5045   10.5495 C   0  0  0  0  0  0  0  0  0  0  0  0
   45.5739   11.1313   10.2438 O   0  0  0  0  0  0  0  0  0  0  0  0
  1  2  1  6  0  0  0
  1  3  1  0  0  0  0
  1  4  2  0  0  0  0
  1 16  1  0  0  0  0
  5  6  1  6  0  0  0
  5  7  1  0  0  0  0
  5 14  1  0  0  0  0
  7  8  1  1  0  0  0
  7  9  1  0  0  0  0
  9 10  1  1  0  0  0
  9 11  1  0  0  0  0
 11 12  1  6  0  0  0
 11 13  1  0  0  0  0
 13 14  1  0  0  0  0
 13 15  1  6  0  0  0
 15 16  1  0  0  0  0
M  CHG  1   3  -1
M  END
>  <CHROM.1>
-177.71237694,177.95970024,-57.86381742,44.78119496,12.47950611,11.47602835
-0.24021870,-1.00249877,2.36719216

>  <Name>
ligand

>  <RI>
0

>  <Rbt.Current_Directory>
/home/itssahil/PROJECTS/Mol_Feturizer/New_Systems/rnas/2HO7

>  <Rbt.Executable>
rbdock ($Id: //depot/dev/client3/rdock/2013.1/src/exe/rbdock.cxx#4 $)

>  <Rbt.Library>
libRbt.so (2013.1, Build901 2013/11/27)

>  <Rbt.Parameter_File>
/export/apps/rDock/src/rDock_2013.1_src/data/scripts/dock_solv.prm

>  <Rbt.Receptor>
prm/pocket_docking_7.prm

>  <SCORE>
-7.14389

>  <SCORE.INTER>
-7.18534

>  <SCORE.INTER.CONST>
1

>  <SCORE.INTER.POLAR>
0

>  <SCORE.INTER.ROT>
3

>  <SCORE.INTER.SOLV>
13.6012

>  <SCORE.INTER.VDW>
-14.924

>  <SCORE.INTER.norm>
-0.449084

>  <SCORE.INTRA>
0.0414445

>  <SCORE.INTRA.DIHEDRAL>
0.0377736

>  <SCORE.INTRA.DIHEDRAL.0>
0.00893466

>  <SCORE.INTRA.POLAR>
0

>  <SCORE.INTRA.POLAR.0>
0

>  <SCORE.INTRA.REPUL>
0

>  <SCORE.INTRA.REPUL.0>
0

>  <SCORE.INTRA.SOLV>
-0.0350287

>  <SCORE.INTRA.SOLV.lig_0>
-48.9722

>  <SCORE.INTRA.VDW>
0.040072

>  <SCORE.INTRA.VDW.0>
-0.529409

>  <SCORE.INTRA.norm>
0.00259028

>  <SCORE.RESTR>
0

>  <SCORE.RESTR.CAVITY>
0

>  <SCORE.RESTR.norm>
0

>  <SCORE.SYSTEM>
0

>  <SCORE.SYSTEM.CONST>
0

>  <SCORE.SYSTEM.DIHEDRAL>
0

>  <SCORE.SYSTEM.SOLV>
0

>  <SCORE.SYSTEM.norm>
0

>  <SCORE.heavy>
16

>  <SCORE.norm>
-0.446493

>  <RMSD>
3.152

$$$$
ligand
 OpenBabel11021811433D
libRbt.so/2013.1/901 2013/11/27
 16 16  0  0  0  0  0  0  0  0999 V2000
   47.7968   11.9003    9.7039 P   0  0  2  0  0  0  0  0  0  0  0  0
   47.3637   12.3756    8.3665 O   0  0  0  0  0  0  0  0  0  0  0  0
   47.8405   13.1454   10.7225 O   0  5  0  0  0  0  0  0  0  0  0  0
   49.2707   11.2639    9.5766 O   0  0  0  0  0  0  0  0  0  0  0  0
   43.5217   13.7842   12.3261 C   0  0  2  0  0  0  0  0  0  0  0  0
   44.4713   14.8639   12.3805 O   0  0  0  0  0  0  0  0  0  0  0  0
   43.5083   12.9944   13.6599 C   0  0  2  0  0  0  0  0  0  0  0  0
   43.1928   13.8978   14.7727 O   0  0  0  0  0  0  0  0  0  0  0  0
   44.9032   12.3782   13.8767 C   0  0  1  0  0  0  0  0  0  0  0  0
   44.9195   11.6351   15.1015 O   0  0  0  0  0  0  0  0  0  0  0  0
   45.2030   11.4408   12.6967 C   0  0  2  0  0  0  0  0  0  0  0  0
   46.5126   10.8579   12.8703 O   0  0  0  0  0  0  0  0  0  0  0  0
   45.1630   12.2726   11.3850 C   0  0  2  0  0  0  0  0  0  0  0  0
   43.8446   12.8786   11.2188 O   0  0  0  0  0  0  0  0  0  0  0  0
   45.4295   11.3339   10.1942 C   0  0  0  0  0  0  0  0  0  0  0  0
   46.7532   10.7902   10.2663 O   0  0  0  0  0  0  0  0  0  0  0  0
  1  2  1  6  0  0  0
  1  3  1  0  0  0  0
  1  4  2  0  0  0  0
  1 16  1  0  0  0  0
  5  6  1  1  0  0  0
  5  7  1  0  0  0  0
  5 14  1  0  0  0  0
  7  8  1  1  0  0  0
  7  9  1  0  0  0  0
  9 10  1  1  0  0  0
  9 11  1  0  0  0  0
 11 12  1  1  0  0  0
 11 13  1  0  0  0  0
 13 14  1  0  0  0  0
 13 15  1  6  0  0  0
 15 16  1  0  0  0  0
M  CHG  1   3  -1
M  END
>  <CHROM.1>
-64.39344086,-80.31658782,-52.25129763,45.80360536,12.33164281,11.65097612
0.53670683,0.69103430,-1.06405982

>  <Name>
ligand

>  <RI>
0

>  <Rbt.Current_Directory>
/home/itssahil/PROJECTS/Mol_Feturizer/New_Systems/rnas/2HO7

>  <Rbt.Executable>
rbdock ($Id: //depot/dev/client3/rdock/2013.1/src/exe/rbdock.cxx#4 $)

>  <Rbt.Library>
libRbt.so (2013.1, Build901 2013/11/27)

>  <Rbt.Parameter_File>
/export/apps/rDock/src/rDock_2013.1_src/data/scripts/dock_solv.prm

>  <Rbt.Receptor>
prm/pocket_docking_6.prm

>  <SCORE>
-7.74223

>  <SCORE.INTER>
-10.4674

>  <SCORE.INTER.CONST>
1

>  <SCORE.INTER.POLAR>
-1.29414

>  <SCORE.INTER.ROT>
3

>  <SCORE.INTER.SOLV>
11.6861

>  <SCORE.INTER.VDW>
-12.1598

>  <SCORE.INTER.norm>
-0.654213

>  <SCORE.INTRA>
2.72518

>  <SCORE.INTRA.DIHEDRAL>
2.00977

>  <SCORE.INTRA.DIHEDRAL.0>
0.00893466

>  <SCORE.INTRA.POLAR>
0

>  <SCORE.INTRA.POLAR.0>
0

>  <SCORE.INTRA.REPUL>
0

>  <SCORE.INTRA.REPUL.0>
0

>  <SCORE.INTRA.SOLV>
3.46622

>  <SCORE.INTRA.SOLV.lig_0>
-48.9722

>  <SCORE.INTRA.VDW>
-0.0128199

>  <SCORE.INTRA.VDW.0>
-0.529409

>  <SCORE.INTRA.norm>
0.170323

>  <SCORE.RESTR>
0

>  <SCORE.RESTR.CAVITY>
0

>  <SCORE.RESTR.norm>
0

>  <SCORE.SYSTEM>
0

>  <SCORE.SYSTEM.CONST>
0

>  <SCORE.SYSTEM.DIHEDRAL>
0

>  <SCORE.SYSTEM.SOLV>
0

>  <SCORE.SYSTEM.norm>
0

>  <SCORE.heavy>
16

>  <SCORE.norm>
-0.483889

>  <RMSD>
3.180

$$$$
ligand
 OpenBabel11021811433D
libRbt.so/2013.1/901 2013/11/27
 16 16  0  0  0  0  0  0  0  0999 V2000
   47.9694   11.4759    9.0625 P   0  0  2  0  0  0  0  0  0  0  0  0
   47.1125   11.0338    7.9345 O   0  0  0  0  0  0  0  0  0  0  0  0
   49.1462   12.4179    8.4992 O   0  5  0  0  0  0  0  0  0  0  0  0
   48.6154   10.1779    9.7635 O   0  0  0  0  0  0  0  0  0  0  0  0
   42.7057   12.6095   12.1830 C   0  0  2  0  0  0  0  0  0  0  0  0
   42.7372   14.0378   12.0107 O   0  0  0  0  0  0  0  0  0  0  0  0
   43.1464   12.2177   13.6166 C   0  0  2  0  0  0  0  0  0  0  0  0
   42.2779   12.8714   14.6028 O   0  0  0  0  0  0  0  0  0  0  0  0
   44.6007   12.6805   13.8244 C   0  0  1  0  0  0  0  0  0  0  0  0
   45.0386   12.3255   15.1414 O   0  0  0  0  0  0  0  0  0  0  0  0
   45.4817   11.9805   12.7779 C   0  0  2  0  0  0  0  0  0  0  0  0
   46.8512   12.4070   12.9441 O   0  0  0  0  0  0  0  0  0  0  0  0
   44.9723   12.3734   11.3637 C   0  0  2  0  0  0  0  0  0  0  0  0
   43.5809   11.9597   11.2020 O   0  0  0  0  0  0  0  0  0  0  0  0
   45.8291   11.6494   10.3092 C   0  0  0  0  0  0  0  0  0  0  0  0
   47.0871   12.3137   10.1383 O   0  0  0  0  0  0  0  0  0  0  0  0
  1  2  1  6  0  0  0
  1  3  1  0  0  0  0
  1  4  2  0  0  0  0
  1 16  1  0  0  0  0
  5  6  1  1  0  0  0
  5  7  1  0  0  0  0
  5 14  1  0  0  0  0
  7  8  1  1  0  0  0
  7  9  1  0  0  0  0
  9 10  1  1  0  0  0
  9 11  1  0  0  0  0
 11 12  1  6  0  0  0
 11 13  1  0  0  0  0
 13 14  1  0  0  0  0
 13 15  1  6  0  0  0
 15 16  1  0  0  0  0
M  CHG  1   3  -1
M  END
>  <CHROM.1>
-78.57313795,177.76956600,41.87724272,45.66694072,12.10941406,11.37860072
0.76896532,0.23355475,-1.60956375

>  <Name>
ligand

>  <RI>
0

>  <Rbt.Current_Directory>
/home/itssahil/PROJECTS/Mol_Feturizer/New_Systems/rnas/2HO7

>  <Rbt.Executable>
rbdock ($Id: //depot/dev/client3/rdock/2013.1/src/exe/rbdock.cxx#4 $)

>  <Rbt.Library>
libRbt.so (2013.1, Build901 2013/11/27)

>  <Rbt.Parameter_File>
/export/apps/rDock/src/rDock_2013.1_src/data/scripts/dock_solv.prm

>  <Rbt.Receptor>
prm/pocket_docking_6.prm

>  <SCORE>
-8.3678

>  <SCORE.INTER>
-9.54647

>  <SCORE.INTER.CONST>
1

>  <SCORE.INTER.POLAR>
-1.29904

>  <SCORE.INTER.ROT>
3

>  <SCORE.INTER.SOLV>
14.9988

>  <SCORE.INTER.VDW>
-12.6338

>  <SCORE.INTER.norm>
-0.596655

>  <SCORE.INTRA>
1.17867

>  <SCORE.INTRA.DIHEDRAL>
1.67233

>  <SCORE.INTRA.DIHEDRAL.0>
0.00893466

>  <SCORE.INTRA.POLAR>
0

>  <SCORE.INTRA.POLAR.0>
0

>  <SCORE.INTRA.REPUL>
0

>  <SCORE.INTRA.REPUL.0>
0

>  <SCORE.INTRA.SOLV>
0.279361

>  <SCORE.INTRA.SOLV.lig_0>
-48.9722

>  <SCORE.INTRA.VDW>
0.202823

>  <SCORE.INTRA.VDW.0>
-0.529409

>  <SCORE.INTRA.norm>
0.0736669

>  <SCORE.RESTR>
0

>  <SCORE.RESTR.CAVITY>
0

>  <SCORE.RESTR.norm>
0

>  <SCORE.SYSTEM>
0

>  <SCORE.SYSTEM.CONST>
0

>  <SCORE.SYSTEM.DIHEDRAL>
0

>  <SCORE.SYSTEM.SOLV>
0

>  <SCORE.SYSTEM.norm>
0

>  <SCORE.heavy>
16

>  <SCORE.norm>
-0.522988

>  <RMSD>
3.275

$$$$
ligand
 OpenBabel11021811433D
libRbt.so/2013.1/901 2013/11/27
 16 16  0  0  0  0  0  0  0  0999 V2000
   47.4135   11.2318    9.1544 P   0  0  2  0  0  0  0  0  0  0  0  0
   47.6333   12.3724    8.2309 O   0  0  0  0  0  0  0  0  0  0  0  0
   48.7937   10.8804    9.9037 O   0  5  0  0  0  0  0  0  0  0  0  0
   46.9322    9.9556    8.2981 O   0  0  0  0  0  0  0  0  0  0  0  0
   43.4211   13.7206   12.5771 C   0  0  2  0  0  0  0  0  0  0  0  0
   43.7995   14.9408   13.2394 O   0  0  0  0  0  0  0  0  0  0  0  0
   43.3480   12.5459   13.5860 C   0  0  2  0  0  0  0  0  0  0  0  0
   42.3951   12.8643   14.6559 O   0  0  0  0  0  0  0  0  0  0  0  0
   44.7487   12.3334   14.1905 C   0  0  1  0  0  0  0  0  0  0  0  0
   44.7137   11.2473   15.1241 O   0  0  0  0  0  0  0  0  0  0  0  0
   45.7206   12.0038   13.0468 C   0  0  2  0  0  0  0  0  0  0  0  0
   47.0458   11.8109   13.5866 O   0  0  0  0  0  0  0  0  0  0  0  0
   45.7240   13.1924   12.0461 C   0  0  2  0  0  0  0  0  0  0  0  0
   44.3797   13.4006   11.5145 O   0  0  0  0  0  0  0  0  0  0  0  0
   46.6704   12.8557   10.8795 C   0  0  0  0  0  0  0  0  0  0  0  0
   46.2912   11.6193   10.2625 O   0  0  0  0  0  0  0  0  0  0  0  0
  1  2  1  6  0  0  0
  1  3  1  0  0  0  0
  1  4  2  0  0  0  0
  1 16  1  0  0  0  0
  5  6  1  1  0  0  0
  5  7  1  0  0  0  0
  5 14  1  0  0  0  0
  7  8  1  1  0  0  0
  7  9  1  0  0  0  0
  9 10  1  1  0  0  0
  9 11  1  0  0  0  0
 11 12  1  1  0  0  0
 11 13  1  0  0  0  0
 13 14  1  0  0  0  0
 13 15  1  6  0  0  0
 15 16  1  0  0  0  0
M  CHG  1   3  -1
M  END
>  <CHROM.1>
55.89393216,-173.76442866,-52.42090104,45.72180677,12.21682423,11.66982542
0.66808452,0.72695660,-1.21308134

>  <Name>
ligand

>  <RI>
0

>  <Rbt.Current_Directory>
/home/itssahil/PROJECTS/Mol_Feturizer/New_Systems/rnas/2HO7

>  <Rbt.Executable>
rbdock ($Id: //depot/dev/client3/rdock/2013.1/src/exe/rbdock.cxx#4 $)

>  <Rbt.Library>
libRbt.so (2013.1, Build901 2013/11/27)

>  <Rbt.Parameter_File>
/export/apps/rDock/src/rDock_2013.1_src/data/scripts/dock_solv.prm

>  <Rbt.Receptor>
prm/pocket_docking_6.prm

>  <SCORE>
-10.0455

>  <SCORE.INTER>
-10.4468

>  <SCORE.INTER.CONST>
1

>  <SCORE.INTER.POLAR>
-1.29783

>  <SCORE.INTER.ROT>
3

>  <SCORE.INTER.SOLV>
15.9353

>  <SCORE.INTER.VDW>
-13.5502

>  <SCORE.INTER.norm>
-0.652923

>  <SCORE.INTRA>
0.399121

>  <SCORE.INTRA.DIHEDRAL>
0.335084

>  <SCORE.INTRA.DIHEDRAL.0>
0.00893466

>  <SCORE.INTRA.POLAR>
0

>  <SCORE.INTRA.POLAR.0>
0

>  <SCORE.INTRA.REPUL>
0

>  <SCORE.INTRA.REPUL.0>
0

>  <SCORE.INTRA.SOLV>
0.427431

>  <SCORE.INTRA.SOLV.lig_0>
-48.9722

>  <SCORE.INTRA.VDW>
0.0178642

>  <SCORE.INTRA.VDW.0>
-0.529409

>  <SCORE.INTRA.norm>
0.0249451

>  <SCORE.RESTR>
0.00219054

>  <SCORE.RESTR.CAVITY>
0.00219054

>  <SCORE.RESTR.norm>
0.000136909

>  <SCORE.SYSTEM>
0

>  <SCORE.SYSTEM.CONST>
0

>  <SCORE.SYSTEM.DIHEDRAL>
0

>  <SCORE.SYSTEM.SOLV>
0

>  <SCORE.SYSTEM.norm>
0

>  <SCORE.heavy>
16

>  <SCORE.norm>
-0.627841

>  <RMSD>
3.317

$$$$
ligand
 OpenBabel11021811433D
libRbt.so/2013.1/901 2013/11/27
 16 16  0  0  0  0  0  0  0  0999 V2000
   47.3836   11.1379    9.1450 P   0  0  2  0  0  0  0  0  0  0  0  0
   47.4843   12.2837    8.2073 O   0  0  0  0  0  0  0  0  0  0  0  0
   48.8337   10.8364    9.7742 O   0  5  0  0  0  0  0  0  0  0  0  0
   46.8764    9.8440    8.3312 O   0  0  0  0  0  0  0  0  0  0  0  0
   43.4889   13.6596   12.5504 C   0  0  2  0  0  0  0  0  0  0  0  0
   43.8557   14.9119   13.1570 O   0  0  0  0  0  0  0  0  0  0  0  0
   43.3900   12.5389   13.6168 C   0  0  2  0  0  0  0  0  0  0  0  0
   42.4142   12.9137   14.6471 O   0  0  0  0  0  0  0  0  0  0  0  0
   44.7762   12.3557   14.2629 C   0  0  1  0  0  0  0  0  0  0  0  0
   44.7173   11.3194   15.2504 O   0  0  0  0  0  0  0  0  0  0  0  0
   45.7726   11.9658   13.1600 C   0  0  2  0  0  0  0  0  0  0  0  0
   47.0848   11.7991   13.7388 O   0  0  0  0  0  0  0  0  0  0  0  0
   45.8017   13.1010   12.0995 C   0  0  2  0  0  0  0  0  0  0  0  0
   44.4702   13.2835   11.5276 O   0  0  0  0  0  0  0  0  0  0  0  0
   46.7731   12.7028   10.9735 C   0  0  0  0  0  0  0  0  0  0  0  0
   46.3463   11.4882   10.3446 O   0  0  0  0  0  0  0  0  0  0  0  0
  1  2  1  6  0  0  0
  1  3  1  0  0  0  0
  1  4  2  0  0  0  0
  1 16  1  0  0  0  0
  5  6  1  1  0  0  0
  5  7  1  0  0  0  0
  5 14  1  0  0  0  0
  7  8  1  1  0  0  0
  7  9  1  0  0  0  0
  9 10  1  1  0  0  0
  9 11  1  0  0  0  0
 11 12  1  1  0  0  0
 11 13  1  0  0  0  0
 13 14  1  0  0  0  0
 13 15  1  6  0  0  0
 15 16  1  0  0  0  0
M  CHG  1   3  -1
M  END
>  <CHROM.1>
60.31413866,178.59500736,-55.37126827,45.74372143,12.16203944,11.69655662
0.72339924,0.70594202,-1.28817697

>  <Name>
ligand

>  <RI>
0

>  <Rbt.Current_Directory>
/home/itssahil/PROJECTS/Mol_Feturizer/New_Systems/rnas/2HO7

>  <Rbt.Executable>
rbdock ($Id: //depot/dev/client3/rdock/2013.1/src/exe/rbdock.cxx#4 $)

>  <Rbt.Library>
libRbt.so (2013.1, Build901 2013/11/27)

>  <Rbt.Parameter_File>
/export/apps/rDock/src/rDock_2013.1_src/data/scripts/dock_solv.prm

>  <Rbt.Receptor>
prm/pocket_docking_5.prm

>  <SCORE>
-10.3444

>  <SCORE.INTER>
-10.4291

>  <SCORE.INTER.CONST>
1

>  <SCORE.INTER.POLAR>
-1.29904

>  <SCORE.INTER.ROT>
3

>  <SCORE.INTER.SOLV>
16.4332

>  <SCORE.INTER.VDW>
-13.7004

>  <SCORE.INTER.norm>
-0.651821

>  <SCORE.INTRA>
0.084699

>  <SCORE.INTRA.DIHEDRAL>
0.0359378

>  <SCORE.INTRA.DIHEDRAL.0>
0.00893466

>  <SCORE.INTRA.POLAR>
0

>  <SCORE.INTRA.POLAR.0>
0

>  <SCORE.INTRA.REPUL>
0

>  <SCORE.INTRA.REPUL.0>
0

>  <SCORE.INTRA.SOLV>
0.200919

>  <SCORE.INTRA.SOLV.lig_0>
-48.9722

>  <SCORE.INTRA.VDW>
-0.0337294

>  <SCORE.INTRA.VDW.0>
-0.529409

>  <SCORE.INTRA.norm>
0.00529369

>  <SCORE.RESTR>
0

>  <SCORE.RESTR.CAVITY>
0

>  <SCORE.RESTR.norm>
0

>  <SCORE.SYSTEM>
0

>  <SCORE.SYSTEM.CONST>
0

>  <SCORE.SYSTEM.DIHEDRAL>
0

>  <SCORE.SYSTEM.SOLV>
0

>  <SCORE.SYSTEM.norm>
0

>  <SCORE.heavy>
16

>  <SCORE.norm>
-0.646528

>  <RMSD>
3.356

$$$$
ligand
 OpenBabel11021811433D
libRbt.so/2013.1/901 2013/11/27
 16 16  0  0  0  0  0  0  0  0999 V2000
   47.3948   11.2587    9.1626 P   0  0  2  0  0  0  0  0  0  0  0  0
   46.8760   10.2182    8.2404 O   0  0  0  0  0  0  0  0  0  0  0  0
   47.8212   12.5575    8.3134 O   0  5  0  0  0  0  0  0  0  0  0  0
   48.6856   10.6761    9.9294 O   0  0  0  0  0  0  0  0  0  0  0  0
   43.4125   13.7395   12.5986 C   0  0  2  0  0  0  0  0  0  0  0  0
   43.7944   14.9526   13.2718 O   0  0  0  0  0  0  0  0  0  0  0  0
   43.3369   12.5558   13.5967 C   0  0  2  0  0  0  0  0  0  0  0  0
   42.3853   12.8668   14.6699 O   0  0  0  0  0  0  0  0  0  0  0  0
   44.7372   12.3341   14.1985 C   0  0  1  0  0  0  0  0  0  0  0  0
   44.6999   11.2396   15.1221 O   0  0  0  0  0  0  0  0  0  0  0  0
   45.7078   12.0126   13.0514 C   0  0  2  0  0  0  0  0  0  0  0  0
   47.0327   11.8113   13.5888 O   0  0  0  0  0  0  0  0  0  0  0  0
   45.7138   13.2102   12.0616 C   0  0  2  0  0  0  0  0  0  0  0  0
   44.3697   13.4267   11.5326 O   0  0  0  0  0  0  0  0  0  0  0  0
   46.6588   12.8818   10.8915 C   0  0  0  0  0  0  0  0  0  0  0  0
   46.2477   11.6772   10.2334 O   0  0  0  0  0  0  0  0  0  0  0  0
  1  2  1  6  0  0  0
  1  3  1  0  0  0  0
  1  4  2  0  0  0  0
  1 16  1  0  0  0  0
  5  6  1  1  0  0  0
  5  7  1  0  0  0  0
  5 14  1  0  0  0  0
  7  8  1  1  0  0  0
  7  9  1  0  0  0  0
  9 10  1  1  0  0  0
  9 11  1  0  0  0  0
 11 12  1  1  0  0  0
 11 13  1  0  0  0  0
 13 14  1  0  0  0  0
 13 15  1  6  0  0  0
 15 16  1  0  0  0  0
M  CHG  1   3  -1
M  END
>  <CHROM.1>
57.95697354,-171.55950316,-166.54418426,45.71159708,12.24548822,11.67998458
0.65534462,0.73387799,-1.18362167

>  <Name>
ligand

>  <RI>
0

>  <Rbt.Current_Directory>
/home/itssahil/PROJECTS/Mol_Feturizer/New_Systems/rnas/2HO7

>  <Rbt.Executable>
rbdock ($Id: //depot/dev/client3/rdock/2013.1/src/exe/rbdock.cxx#4 $)

>  <Rbt.Library>
libRbt.so (2013.1, Build901 2013/11/27)

>  <Rbt.Parameter_File>
/export/apps/rDock/src/rDock_2013.1_src/data/scripts/dock_solv.prm

>  <Rbt.Receptor>
prm/pocket_docking_6.prm

>  <SCORE>
-9.89414

>  <SCORE.INTER>
-10.7576

>  <SCORE.INTER.CONST>
1

>  <SCORE.INTER.POLAR>
-1.29904

>  <SCORE.INTER.ROT>
3

>  <SCORE.INTER.SOLV>
15.5211

>  <SCORE.INTER.VDW>
-13.6153

>  <SCORE.INTER.norm>
-0.67235

>  <SCORE.INTRA>
0.863461

>  <SCORE.INTRA.DIHEDRAL>
0.636931

>  <SCORE.INTRA.DIHEDRAL.0>
0.00893466

>  <SCORE.INTRA.POLAR>
0

>  <SCORE.INTRA.POLAR.0>
0

>  <SCORE.INTRA.REPUL>
0

>  <SCORE.INTRA.REPUL.0>
0

>  <SCORE.INTRA.SOLV>
1.1599

>  <SCORE.INTRA.SOLV.lig_0>
-48.9722

>  <SCORE.INTRA.VDW>
-0.0349543

>  <SCORE.INTRA.VDW.0>
-0.529409

>  <SCORE.INTRA.norm>
0.0539663

>  <SCORE.RESTR>
0

>  <SCORE.RESTR.CAVITY>
0

>  <SCORE.RESTR.norm>
0

>  <SCORE.SYSTEM>
0

>  <SCORE.SYSTEM.CONST>
0

>  <SCORE.SYSTEM.DIHEDRAL>
0

>  <SCORE.SYSTEM.SOLV>
0

>  <SCORE.SYSTEM.norm>
0

>  <SCORE.heavy>
16

>  <SCORE.norm>
-0.618384

>  <RMSD>
3.397

$$$$
ligand
 OpenBabel11021811433D
libRbt.so/2013.1/901 2013/11/27
 16 16  0  0  0  0  0  0  0  0999 V2000
   47.7632   11.4079   11.7892 P   0  0  2  0  0  0  0  0  0  0  0  0
   47.5680   11.0398   10.3649 O   0  0  0  0  0  0  0  0  0  0  0  0
   47.6775   13.0076   11.9417 O   0  5  0  0  0  0  0  0  0  0  0  0
   49.2185   10.9049   12.2608 O   0  0  0  0  0  0  0  0  0  0  0  0
   43.5180   14.3201   11.8306 C   0  0  2  0  0  0  0  0  0  0  0  0
   44.6298   15.2302   11.9096 O   0  0  0  0  0  0  0  0  0  0  0  0
   42.7321   14.2931   13.1665 C   0  0  2  0  0  0  0  0  0  0  0  0
   42.2649   15.6441   13.4991 O   0  0  0  0  0  0  0  0  0  0  0  0
   43.6722   13.7858   14.2761 C   0  0  1  0  0  0  0  0  0  0  0  0
   42.9701   13.7437   15.5242 O   0  0  0  0  0  0  0  0  0  0  0  0
   44.1435   12.3730   13.8977 C   0  0  2  0  0  0  0  0  0  0  0  0
   45.0370   11.8781   14.9183 O   0  0  0  0  0  0  0  0  0  0  0  0
   44.8863   12.4504   12.5353 C   0  0  2  0  0  0  0  0  0  0  0  0
   43.9887   12.9695   11.5067 O   0  0  0  0  0  0  0  0  0  0  0  0
   45.3328   11.0332   12.1327 C   0  0  0  0  0  0  0  0  0  0  0  0
   46.6094   10.7243   12.7052 O   0  0  0  0  0  0  0  0  0  0  0  0
  1  2  1  6  0  0  0
  1  3  1  0  0  0  0
  1  4  2  0  0  0  0
  1 16  1  0  0  0  0
  5  6  1  1  0  0  0
  5  7  1  0  0  0  0
  5 14  1  0  0  0  0
  7  8  1  1  0  0  0
  7  9  1  0  0  0  0
  9 10  1  1  0  0  0
  9 11  1  0  0  0  0
 11 12  1  1  0  0  0
 11 13  1  0  0  0  0
 13 14  1  0  0  0  0
 13 15  1  6  0  0  0
 15 16  1  0  0  0  0
M  CHG  1   3  -1
M  END
>  <CHROM.1>
-86.85180927,-80.56173292,-51.37401185,45.35789060,12.69424262,12.69151758
-0.01207141,0.65369776,-1.00845544

>  <Name>
ligand

>  <RI>
0

>  <Rbt.Current_Directory>
/home/itssahil/PROJECTS/Mol_Feturizer/New_Systems/rnas/2HO7

>  <Rbt.Executable>
rbdock ($Id: //depot/dev/client3/rdock/2013.1/src/exe/rbdock.cxx#4 $)

>  <Rbt.Library>
libRbt.so (2013.1, Build901 2013/11/27)

>  <Rbt.Parameter_File>
/export/apps/rDock/src/rDock_2013.1_src/data/scripts/dock_solv.prm

>  <Rbt.Receptor>
prm/pocket_docking_7.prm

>  <SCORE>
-7.64491

>  <SCORE.INTER>
-10.9333

>  <SCORE.INTER.CONST>
1

>  <SCORE.INTER.POLAR>
-1.29904

>  <SCORE.INTER.ROT>
3

>  <SCORE.INTER.SOLV>
19.064

>  <SCORE.INTER.VDW>
-14.9134

>  <SCORE.INTER.norm>
-0.683331

>  <SCORE.INTRA>
3.28839

>  <SCORE.INTRA.DIHEDRAL>
4.21145

>  <SCORE.INTRA.DIHEDRAL.0>
0.00893466

>  <SCORE.INTRA.POLAR>
0

>  <SCORE.INTRA.POLAR.0>
0

>  <SCORE.INTRA.REPUL>
0

>  <SCORE.INTRA.REPUL.0>
0

>  <SCORE.INTRA.SOLV>
2.81751

>  <SCORE.INTRA.SOLV.lig_0>
-48.9722

>  <SCORE.INTRA.VDW>
-0.226093

>  <SCORE.INTRA.VDW.0>
-0.529409

>  <SCORE.INTRA.norm>
0.205524

>  <SCORE.RESTR>
0

>  <SCORE.RESTR.CAVITY>
0

>  <SCORE.RESTR.norm>
0

>  <SCORE.SYSTEM>
0

>  <SCORE.SYSTEM.CONST>
0

>  <SCORE.SYSTEM.DIHEDRAL>
0

>  <SCORE.SYSTEM.SOLV>
0

>  <SCORE.SYSTEM.norm>
0

>  <SCORE.heavy>
16

>  <SCORE.norm>
-0.477807

>  <RMSD>
3.397

$$$$
ligand
 OpenBabel11021811433D
libRbt.so/2013.1/901 2013/11/27
 16 16  0  0  0  0  0  0  0  0999 V2000
   47.3542   11.1697    9.1493 P   0  0  2  0  0  0  0  0  0  0  0  0
   46.8040   10.1028    8.2767 O   0  0  0  0  0  0  0  0  0  0  0  0
   47.6329   12.4869    8.2678 O   0  5  0  0  0  0  0  0  0  0  0  0
   48.7390   10.6541    9.7896 O   0  0  0  0  0  0  0  0  0  0  0  0
   43.4622   13.6545   12.5911 C   0  0  2  0  0  0  0  0  0  0  0  0
   43.8312   14.8986   13.2131 O   0  0  0  0  0  0  0  0  0  0  0  0
   43.3669   12.5197   13.6429 C   0  0  2  0  0  0  0  0  0  0  0  0
   42.3946   12.8809   14.6813 O   0  0  0  0  0  0  0  0  0  0  0  0
   44.7552   12.3280   14.2818 C   0  0  1  0  0  0  0  0  0  0  0  0
   44.6996   11.2787   15.2556 O   0  0  0  0  0  0  0  0  0  0  0  0
   45.7478   11.9527   13.1704 C   0  0  2  0  0  0  0  0  0  0  0  0
   47.0620   11.7782   13.7426 O   0  0  0  0  0  0  0  0  0  0  0  0
   45.7735   13.1018   12.1250 C   0  0  2  0  0  0  0  0  0  0  0  0
   44.4400   13.2919   11.5601 O   0  0  0  0  0  0  0  0  0  0  0  0
   46.7410   12.7186   10.9905 C   0  0  0  0  0  0  0  0  0  0  0  0
   46.2933   11.5315   10.3246 O   0  0  0  0  0  0  0  0  0  0  0  0
  1  2  1  6  0  0  0
  1  3  1  0  0  0  0
  1  4  2  0  0  0  0
  1 16  1  0  0  0  0
  5  6  1  1  0  0  0
  5  7  1  0  0  0  0
  5 14  1  0  0  0  0
  7  8  1  1  0  0  0
  7  9  1  0  0  0  0
  9 10  1  1  0  0  0
  9 11  1  0  0  0  0
 11 12  1  1  0  0  0
 11 13  1  0  0  0  0
 13 14  1  0  0  0  0
 13 15  1  6  0  0  0
 15 16  1  0  0  0  0
M  CHG  1   3  -1
M  END
>  <CHROM.1>
61.80374160,-179.57872327,-169.50987040,45.72029562,12.17757832,11.71263824
0.71415270,0.71214631,-1.25578344

>  <Name>
ligand

>  <RI>
0

>  <Rbt.Current_Directory>
/home/itssahil/PROJECTS/Mol_Feturizer/New_Systems/rnas/2HO7

>  <Rbt.Executable>
rbdock ($Id: //depot/dev/client3/rdock/2013.1/src/exe/rbdock.cxx#4 $)

>  <Rbt.Library>
libRbt.so (2013.1, Build901 2013/11/27)

>  <Rbt.Parameter_File>
/export/apps/rDock/src/rDock_2013.1_src/data/scripts/dock_solv.prm

>  <Rbt.Receptor>
prm/pocket_docking_5.prm

>  <SCORE>
-10.1448

>  <SCORE.INTER>
-10.5962

>  <SCORE.INTER.CONST>
1

>  <SCORE.INTER.POLAR>
-1.29732

>  <SCORE.INTER.ROT>
3

>  <SCORE.INTER.SOLV>
16.033

>  <SCORE.INTER.VDW>
-13.6841

>  <SCORE.INTER.norm>
-0.66226

>  <SCORE.INTRA>
0.451373

>  <SCORE.INTRA.DIHEDRAL>
0.179304

>  <SCORE.INTRA.DIHEDRAL.0>
0.00893466

>  <SCORE.INTRA.POLAR>
0

>  <SCORE.INTRA.POLAR.0>
0

>  <SCORE.INTRA.REPUL>
0

>  <SCORE.INTRA.REPUL.0>
0

>  <SCORE.INTRA.SOLV>
0.901975

>  <SCORE.INTRA.SOLV.lig_0>
-48.9722

>  <SCORE.INTRA.VDW>
-0.089266

>  <SCORE.INTRA.VDW.0>
-0.529409

>  <SCORE.INTRA.norm>
0.0282108

>  <SCORE.RESTR>
0

>  <SCORE.RESTR.CAVITY>
0

>  <SCORE.RESTR.norm>
0

>  <SCORE.SYSTEM>
0

>  <SCORE.SYSTEM.CONST>
0

>  <SCORE.SYSTEM.DIHEDRAL>
0

>  <SCORE.SYSTEM.SOLV>
0

>  <SCORE.SYSTEM.norm>
0

>  <SCORE.heavy>
16

>  <SCORE.norm>
-0.634049

>  <RMSD>
3.429

$$$$
ligand
 OpenBabel11021811433D
libRbt.so/2013.1/901 2013/11/27
 16 16  0  0  0  0  0  0  0  0999 V2000
   47.3668   10.9979    9.3314 P   0  0  2  0  0  0  0  0  0  0  0  0
   46.5006    9.8598    8.9354 O   0  0  0  0  0  0  0  0  0  0  0  0
   47.2694   12.1538    8.2160 O   0  5  0  0  0  0  0  0  0  0  0  0
   48.8889   10.4815    9.4320 O   0  0  0  0  0  0  0  0  0  0  0  0
   43.1276   13.8424   12.8869 C   0  0  2  0  0  0  0  0  0  0  0  0
   43.8329   15.0929   12.9840 O   0  0  0  0  0  0  0  0  0  0  0  0
   43.2860   13.0179   14.1900 C   0  0  2  0  0  0  0  0  0  0  0  0
   42.7964   13.7940   15.3354 O   0  0  0  0  0  0  0  0  0  0  0  0
   44.7796   12.6969   14.3863 C   0  0  1  0  0  0  0  0  0  0  0  0
   44.9568   11.9281   15.5822 O   0  0  0  0  0  0  0  0  0  0  0  0
   45.2606   11.8868   13.1724 C   0  0  2  0  0  0  0  0  0  0  0  0
   46.6635   11.5823   13.3266 O   0  0  0  0  0  0  0  0  0  0  0  0
   45.0413   12.7406   11.8929 C   0  0  2  0  0  0  0  0  0  0  0  0
   43.6249   13.0655   11.7469 O   0  0  0  0  0  0  0  0  0  0  0  0
   45.4899   11.9227   10.6682 C   0  0  0  0  0  0  0  0  0  0  0  0
   46.8821   11.5969   10.7610 O   0  0  0  0  0  0  0  0  0  0  0  0
  1  2  1  6  0  0  0
  1  3  1  0  0  0  0
  1  4  2  0  0  0  0
  1 16  1  0  0  0  0
  5  6  1  1  0  0  0
  5  7  1  0  0  0  0
  5 14  1  0  0  0  0
  7  8  1  1  0  0  0
  7  9  1  0  0  0  0
  9 10  1  1  0  0  0
  9 11  1  0  0  0  0
 11 12  1  1  0  0  0
 11 13  1  0  0  0  0
 13 14  1  0  0  0  0
 13 15  1  6  0  0  0
 15 16  1  0  0  0  0
M  CHG  1   3  -1
M  END
>  <CHROM.1>
-61.04405904,-169.07289051,-54.37645374,45.53993838,12.18588308,11.82985419
0.74542070,0.71641595,-1.39858758

>  <Name>
ligand

>  <RI>
0

>  <Rbt.Current_Directory>
/home/itssahil/PROJECTS/Mol_Feturizer/New_Systems/rnas/2HO7

>  <Rbt.Executable>
rbdock ($Id: //depot/dev/client3/rdock/2013.1/src/exe/rbdock.cxx#4 $)

>  <Rbt.Library>
libRbt.so (2013.1, Build901 2013/11/27)

>  <Rbt.Parameter_File>
/export/apps/rDock/src/rDock_2013.1_src/data/scripts/dock_solv.prm

>  <Rbt.Receptor>
prm/pocket_docking_8.prm

>  <SCORE>
-10.4636

>  <SCORE.INTER>
-11.368

>  <SCORE.INTER.CONST>
1

>  <SCORE.INTER.POLAR>
-1.29884

>  <SCORE.INTER.ROT>
3

>  <SCORE.INTER.SOLV>
16.7866

>  <SCORE.INTER.VDW>
-14.4448

>  <SCORE.INTER.norm>
-0.710503

>  <SCORE.INTRA>
0.904401

>  <SCORE.INTRA.DIHEDRAL>
0.619709

>  <SCORE.INTRA.DIHEDRAL.0>
0.00893466

>  <SCORE.INTRA.POLAR>
0

>  <SCORE.INTRA.POLAR.0>
0

>  <SCORE.INTRA.REPUL>
0

>  <SCORE.INTRA.REPUL.0>
0

>  <SCORE.INTRA.SOLV>
0.428442

>  <SCORE.INTRA.SOLV.lig_0>
-48.9722

>  <SCORE.INTRA.VDW>
0.380325

>  <SCORE.INTRA.VDW.0>
-0.529409

>  <SCORE.INTRA.norm>
0.056525

>  <SCORE.RESTR>
0

>  <SCORE.RESTR.CAVITY>
0

>  <SCORE.RESTR.norm>
0

>  <SCORE.SYSTEM>
0

>  <SCORE.SYSTEM.CONST>
0

>  <SCORE.SYSTEM.DIHEDRAL>
0

>  <SCORE.SYSTEM.SOLV>
0

>  <SCORE.SYSTEM.norm>
0

>  <SCORE.heavy>
16

>  <SCORE.norm>
-0.653978

>  <RMSD>
3.554

$$$$
ligand
 OpenBabel11021811433D
libRbt.so/2013.1/901 2013/11/27
 16 16  0  0  0  0  0  0  0  0999 V2000
   47.3733   11.0067    9.3254 P   0  0  2  0  0  0  0  0  0  0  0  0
   46.4989    9.8715    8.9396 O   0  0  0  0  0  0  0  0  0  0  0  0
   47.2838   12.1535    8.2001 O   0  5  0  0  0  0  0  0  0  0  0  0
   48.8917   10.4802    9.4301 O   0  0  0  0  0  0  0  0  0  0  0  0
   43.1222   13.8255   12.8897 C   0  0  2  0  0  0  0  0  0  0  0  0
   43.8031   15.0911   12.9638 O   0  0  0  0  0  0  0  0  0  0  0  0
   43.3129   13.0197   14.2001 C   0  0  2  0  0  0  0  0  0  0  0  0
   42.8213   13.7991   15.3424 O   0  0  0  0  0  0  0  0  0  0  0  0
   44.8149   12.7312   14.3820 C   0  0  1  0  0  0  0  0  0  0  0  0
   45.0219   11.9802   15.5843 O   0  0  0  0  0  0  0  0  0  0  0  0
   45.2977   11.9167   13.1716 C   0  0  2  0  0  0  0  0  0  0  0  0
   46.7083   11.6423   13.3123 O   0  0  0  0  0  0  0  0  0  0  0  0
   45.0460   12.7509   11.8852 C   0  0  2  0  0  0  0  0  0  0  0  0
   43.6216   13.0455   11.7527 O   0  0  0  0  0  0  0  0  0  0  0  0
   45.4964   11.9280   10.6646 C   0  0  0  0  0  0  0  0  0  0  0  0
   46.8934   11.6215   10.7500 O   0  0  0  0  0  0  0  0  0  0  0  0
  1  2  1  6  0  0  0
  1  3  1  0  0  0  0
  1  4  2  0  0  0  0
  1 16  1  0  0  0  0
  5  6  1  1  0  0  0
  5  7  1  0  0  0  0
  5 14  1  0  0  0  0
  7  8  1  1  0  0  0
  7  9  1  0  0  0  0
  9 10  1  1  0  0  0
  9 11  1  0  0  0  0
 11 12  1  1  0  0  0
 11 13  1  0  0  0  0
 13 14  1  0  0  0  0
 13 15  1  6  0  0  0
 15 16  1  0  0  0  0
M  CHG  1   3  -1
M  END
>  <CHROM.1>
-60.54826547,-169.45093896,-53.06473787,45.55424548,12.19847847,11.82615373
0.76350828,0.70036131,-1.42473076

>  <Name>
ligand

>  <RI>
0

>  <Rbt.Current_Directory>
/home/itssahil/PROJECTS/Mol_Feturizer/New_Systems/rnas/2HO7

>  <Rbt.Executable>
rbdock ($Id: //depot/dev/client3/rdock/2013.1/src/exe/rbdock.cxx#4 $)

>  <Rbt.Library>
libRbt.so (2013.1, Build901 2013/11/27)

>  <Rbt.Parameter_File>
/export/apps/rDock/src/rDock_2013.1_src/data/scripts/dock_solv.prm

>  <Rbt.Receptor>
prm/pocket_docking_7.prm

>  <SCORE>
-10.4681

>  <SCORE.INTER>
-11.3982

>  <SCORE.INTER.CONST>
1

>  <SCORE.INTER.POLAR>
-1.29904

>  <SCORE.INTER.ROT>
3

>  <SCORE.INTER.SOLV>
16.845

>  <SCORE.INTER.VDW>
-14.4837

>  <SCORE.INTER.norm>
-0.71239

>  <SCORE.INTRA>
0.930133

>  <SCORE.INTRA.DIHEDRAL>
0.605319

>  <SCORE.INTRA.DIHEDRAL.0>
0.00893466

>  <SCORE.INTRA.POLAR>
0

>  <SCORE.INTRA.POLAR.0>
0

>  <SCORE.INTRA.REPUL>
0

>  <SCORE.INTRA.REPUL.0>
0

>  <SCORE.INTRA.SOLV>
0.420874

>  <SCORE.INTRA.SOLV.lig_0>
-48.9722

>  <SCORE.INTRA.VDW>
0.417037

>  <SCORE.INTRA.VDW.0>
-0.529409

>  <SCORE.INTRA.norm>
0.0581333

>  <SCORE.RESTR>
0

>  <SCORE.RESTR.CAVITY>
0

>  <SCORE.RESTR.norm>
0

>  <SCORE.SYSTEM>
0

>  <SCORE.SYSTEM.CONST>
0

>  <SCORE.SYSTEM.DIHEDRAL>
0

>  <SCORE.SYSTEM.SOLV>
0

>  <SCORE.SYSTEM.norm>
0

>  <SCORE.heavy>
16

>  <SCORE.norm>
-0.654257

>  <RMSD>
3.555

$$$$
ligand
 OpenBabel11021811433D
libRbt.so/2013.1/901 2013/11/27
 16 16  0  0  0  0  0  0  0  0999 V2000
   47.4074   10.9573    9.2544 P   0  0  2  0  0  0  0  0  0  0  0  0
   46.5032    9.8788    8.7835 O   0  0  0  0  0  0  0  0  0  0  0  0
   47.3878   12.1683    8.1948 O   0  5  0  0  0  0  0  0  0  0  0  0
   48.9028   10.3698    9.3647 O   0  0  0  0  0  0  0  0  0  0  0  0
   43.1720   13.7872   12.8138 C   0  0  2  0  0  0  0  0  0  0  0  0
   43.8789   15.0383   12.8897 O   0  0  0  0  0  0  0  0  0  0  0  0
   43.3368   12.9808   14.1274 C   0  0  2  0  0  0  0  0  0  0  0  0
   42.8539   13.7732   15.2645 O   0  0  0  0  0  0  0  0  0  0  0  0
   44.8311   12.6612   14.3203 C   0  0  1  0  0  0  0  0  0  0  0  0
   45.0141   11.9091   15.5259 O   0  0  0  0  0  0  0  0  0  0  0  0
   45.3049   11.8338   13.1153 C   0  0  2  0  0  0  0  0  0  0  0  0
   46.7085   11.5302   13.2663 O   0  0  0  0  0  0  0  0  0  0  0  0
   45.0796   12.6698   11.8252 C   0  0  2  0  0  0  0  0  0  0  0  0
   43.6626   12.9940   11.6822 O   0  0  0  0  0  0  0  0  0  0  0  0
   45.5209   11.8346   10.6096 C   0  0  0  0  0  0  0  0  0  0  0  0
   46.9131   11.5081   10.7000 O   0  0  0  0  0  0  0  0  0  0  0  0
  1  2  1  6  0  0  0
  1  3  1  0  0  0  0
  1  4  2  0  0  0  0
  1 16  1  0  0  0  0
  5  6  1  1  0  0  0
  5  7  1  0  0  0  0
  5 14  1  0  0  0  0
  7  8  1  1  0  0  0
  7  9  1  0  0  0  0
  9 10  1  1  0  0  0
  9 11  1  0  0  0  0
 11 12  1  1  0  0  0
 11 13  1  0  0  0  0
 13 14  1  0  0  0  0
 13 15  1  6  0  0  0
 15 16  1  0  0  0  0
M  CHG  1   3  -1
M  END
>  <CHROM.1>
-61.01051321,-166.32172374,-51.43753326,45.58413408,12.13892730,11.75971429
0.75245370,0.71300244,-1.40629278

>  <Name>
ligand

>  <RI>
0

>  <Rbt.Current_Directory>
/home/itssahil/PROJECTS/Mol_Feturizer/New_Systems/rnas/2HO7

>  <Rbt.Executable>
rbdock ($Id: //depot/dev/client3/rdock/2013.1/src/exe/rbdock.cxx#4 $)

>  <Rbt.Library>
libRbt.so (2013.1, Build901 2013/11/27)

>  <Rbt.Parameter_File>
/export/apps/rDock/src/rDock_2013.1_src/data/scripts/dock_solv.prm

>  <Rbt.Receptor>
prm/pocket_docking_5.prm

>  <SCORE>
-10.4331

>  <SCORE.INTER>
-11.559

>  <SCORE.INTER.CONST>
1

>  <SCORE.INTER.POLAR>
-1.29904

>  <SCORE.INTER.ROT>
3

>  <SCORE.INTER.SOLV>
16.7632

>  <SCORE.INTER.VDW>
-14.5636

>  <SCORE.INTER.norm>
-0.722436

>  <SCORE.INTRA>
1.12583

>  <SCORE.INTRA.DIHEDRAL>
0.997311

>  <SCORE.INTRA.DIHEDRAL.0>
0.00893466

>  <SCORE.INTRA.POLAR>
0

>  <SCORE.INTRA.POLAR.0>
0

>  <SCORE.INTRA.REPUL>
0

>  <SCORE.INTRA.REPUL.0>
0

>  <SCORE.INTRA.SOLV>
0.401781

>  <SCORE.INTRA.SOLV.lig_0>
-48.9722

>  <SCORE.INTRA.VDW>
0.426284

>  <SCORE.INTRA.VDW.0>
-0.529409

>  <SCORE.INTRA.norm>
0.0703644

>  <SCORE.RESTR>
0

>  <SCORE.RESTR.CAVITY>
0

>  <SCORE.RESTR.norm>
0

>  <SCORE.SYSTEM>
0

>  <SCORE.SYSTEM.CONST>
0

>  <SCORE.SYSTEM.DIHEDRAL>
0

>  <SCORE.SYSTEM.SOLV>
0

>  <SCORE.SYSTEM.norm>
0

>  <SCORE.heavy>
16

>  <SCORE.norm>
-0.652071

>  <RMSD>
3.557

$$$$
ligand
 OpenBabel11021811433D
libRbt.so/2013.1/901 2013/11/27
 16 16  0  0  0  0  0  0  0  0999 V2000
   47.3524   10.9898    9.3404 P   0  0  2  0  0  0  0  0  0  0  0  0
   46.4686    9.8682    8.9363 O   0  0  0  0  0  0  0  0  0  0  0  0
   47.2828   12.1497    8.2270 O   0  5  0  0  0  0  0  0  0  0  0  0
   48.8643   10.4461    9.4496 O   0  0  0  0  0  0  0  0  0  0  0  0
   43.1107   13.8208   12.9069 C   0  0  2  0  0  0  0  0  0  0  0  0
   43.8047   15.0780   12.9997 O   0  0  0  0  0  0  0  0  0  0  0  0
   43.2847   12.9981   14.2092 C   0  0  2  0  0  0  0  0  0  0  0  0
   42.7945   13.7698   15.3574 O   0  0  0  0  0  0  0  0  0  0  0  0
   44.7824   12.6912   14.3967 C   0  0  1  0  0  0  0  0  0  0  0  0
   44.9739   11.9245   15.5916 O   0  0  0  0  0  0  0  0  0  0  0  0
   45.2637   11.8854   13.1801 C   0  0  2  0  0  0  0  0  0  0  0  0
   46.6704   11.5942   13.3260 O   0  0  0  0  0  0  0  0  0  0  0  0
   45.0288   12.7369   11.9018 C   0  0  2  0  0  0  0  0  0  0  0  0
   43.6085   13.0484   11.7641 O   0  0  0  0  0  0  0  0  0  0  0  0
   45.4777   11.9230   10.6745 C   0  0  0  0  0  0  0  0  0  0  0  0
   46.8692   11.5943   10.7682 O   0  0  0  0  0  0  0  0  0  0  0  0
  1  2  1  6  0  0  0
  1  3  1  0  0  0  0
  1  4  2  0  0  0  0
  1 16  1  0  0  0  0
  5  6  1  1  0  0  0
  5  7  1  0  0  0  0
  5 14  1  0  0  0  0
  7  8  1  1  0  0  0
  7  9  1  0  0  0  0
  9 10  1  1  0  0  0
  9 11  1  0  0  0  0
 11 12  1  1  0  0  0
 11 13  1  0  0  0  0
 13 14  1  0  0  0  0
 13 15  1  6  0  0  0
 15 16  1  0  0  0  0
M  CHG  1   3  -1
M  END
>  <CHROM.1>
-60.23680726,-169.48695816,-53.36123609,45.53129445,12.17710270,11.84102040
0.75284714,0.71062523,-1.40757899

>  <Name>
ligand

>  <RI>
0

>  <Rbt.Current_Directory>
/home/itssahil/PROJECTS/Mol_Feturizer/New_Systems/rnas/2HO7

>  <Rbt.Executable>
rbdock ($Id: //depot/dev/client3/rdock/2013.1/src/exe/rbdock.cxx#4 $)

>  <Rbt.Library>
libRbt.so (2013.1, Build901 2013/11/27)

>  <Rbt.Parameter_File>
/export/apps/rDock/src/rDock_2013.1_src/data/scripts/dock_solv.prm

>  <Rbt.Receptor>
prm/blind_docking_60.prm

>  <SCORE>
-10.4564

>  <SCORE.INTER>
-11.3925

>  <SCORE.INTER.CONST>
1

>  <SCORE.INTER.POLAR>
-1.29904

>  <SCORE.INTER.ROT>
3

>  <SCORE.INTER.SOLV>
16.8411

>  <SCORE.INTER.VDW>
-14.4786

>  <SCORE.INTER.norm>
-0.712031

>  <SCORE.INTRA>
0.936104

>  <SCORE.INTRA.DIHEDRAL>
0.594395

>  <SCORE.INTRA.DIHEDRAL.0>
0.00893466

>  <SCORE.INTRA.POLAR>
0

>  <SCORE.INTRA.POLAR.0>
0

>  <SCORE.INTRA.REPUL>
0

>  <SCORE.INTRA.REPUL.0>
0

>  <SCORE.INTRA.SOLV>
0.426825

>  <SCORE.INTRA.SOLV.lig_0>
-48.9722

>  <SCORE.INTRA.VDW>
0.425494

>  <SCORE.INTRA.VDW.0>
-0.529409

>  <SCORE.INTRA.norm>
0.0585065

>  <SCORE.RESTR>
0

>  <SCORE.RESTR.CAVITY>
0

>  <SCORE.RESTR.norm>
0

>  <SCORE.SYSTEM>
0

>  <SCORE.SYSTEM.CONST>
0

>  <SCORE.SYSTEM.DIHEDRAL>
0

>  <SCORE.SYSTEM.SOLV>
0

>  <SCORE.SYSTEM.norm>
0

>  <SCORE.heavy>
16

>  <SCORE.norm>
-0.653524

>  <RMSD>
3.558

$$$$
ligand
 OpenBabel11021811433D
libRbt.so/2013.1/901 2013/11/27
 16 16  0  0  0  0  0  0  0  0999 V2000
   47.3550   10.9944    9.3537 P   0  0  2  0  0  0  0  0  0  0  0  0
   46.5044    9.8355    8.9853 O   0  0  0  0  0  0  0  0  0  0  0  0
   47.2278   12.1294    8.2200 O   0  5  0  0  0  0  0  0  0  0  0  0
   48.8865   10.5051    9.4483 O   0  0  0  0  0  0  0  0  0  0  0  0
   43.1027   13.8212   12.9098 C   0  0  2  0  0  0  0  0  0  0  0  0
   43.7846   15.0863   12.9819 O   0  0  0  0  0  0  0  0  0  0  0  0
   43.2918   13.0178   14.2220 C   0  0  2  0  0  0  0  0  0  0  0  0
   42.7999   13.8000   15.3623 O   0  0  0  0  0  0  0  0  0  0  0  0
   44.7935   12.7285   14.4056 C   0  0  1  0  0  0  0  0  0  0  0  0
   44.9989   11.9799   15.6097 O   0  0  0  0  0  0  0  0  0  0  0  0
   45.2765   11.9113   13.1973 C   0  0  2  0  0  0  0  0  0  0  0  0
   46.6868   11.6361   13.3396 O   0  0  0  0  0  0  0  0  0  0  0  0
   45.0264   12.7429   11.9090 C   0  0  2  0  0  0  0  0  0  0  0  0
   43.6023   13.0384   11.7748 O   0  0  0  0  0  0  0  0  0  0  0  0
   45.4771   11.9172   10.6904 C   0  0  0  0  0  0  0  0  0  0  0  0
   46.8737   11.6095   10.7776 O   0  0  0  0  0  0  0  0  0  0  0  0
  1  2  1  6  0  0  0
  1  3  1  0  0  0  0
  1  4  2  0  0  0  0
  1 16  1  0  0  0  0
  5  6  1  1  0  0  0
  5  7  1  0  0  0  0
  5 14  1  0  0  0  0
  7  8  1  1  0  0  0
  7  9  1  0  0  0  0
  9 10  1  1  0  0  0
  9 11  1  0  0  0  0
 11 12  1  1  0  0  0
 11 13  1  0  0  0  0
 13 14  1  0  0  0  0
 13 15  1  6  0  0  0
 15 16  1  0  0  0  0
M  CHG  1   3  -1
M  END
>  <CHROM.1>
-60.53078486,-169.32685340,-54.68107769,45.53440705,12.19117798,11.85102805
0.76290881,0.70032514,-1.42625463

>  <Name>
ligand

>  <RI>
0

>  <Rbt.Current_Directory>
/home/itssahil/PROJECTS/Mol_Feturizer/New_Systems/rnas/2HO7

>  <Rbt.Executable>
rbdock ($Id: //depot/dev/client3/rdock/2013.1/src/exe/rbdock.cxx#4 $)

>  <Rbt.Library>
libRbt.so (2013.1, Build901 2013/11/27)

>  <Rbt.Parameter_File>
/export/apps/rDock/src/rDock_2013.1_src/data/scripts/dock_solv.prm

>  <Rbt.Receptor>
prm/pocket_docking_5.prm

>  <SCORE>
-10.448

>  <SCORE.INTER>
-11.356

>  <SCORE.INTER.CONST>
1

>  <SCORE.INTER.POLAR>
-1.29904

>  <SCORE.INTER.ROT>
3

>  <SCORE.INTER.SOLV>
16.8608

>  <SCORE.INTER.VDW>
-14.4608

>  <SCORE.INTER.norm>
-0.709752

>  <SCORE.INTRA>
0.908001

>  <SCORE.INTRA.DIHEDRAL>
0.585711

>  <SCORE.INTRA.DIHEDRAL.0>
0.00893466

>  <SCORE.INTRA.POLAR>
0

>  <SCORE.INTRA.POLAR.0>
0

>  <SCORE.INTRA.REPUL>
0

>  <SCORE.INTRA.REPUL.0>
0

>  <SCORE.INTRA.SOLV>
0.436592

>  <SCORE.INTRA.SOLV.lig_0>
-48.9722

>  <SCORE.INTRA.VDW>
0.396849

>  <SCORE.INTRA.VDW.0>
-0.529409

>  <SCORE.INTRA.norm>
0.05675

>  <SCORE.RESTR>
0

>  <SCORE.RESTR.CAVITY>
0

>  <SCORE.RESTR.norm>
0

>  <SCORE.SYSTEM>
0

>  <SCORE.SYSTEM.CONST>
0

>  <SCORE.SYSTEM.DIHEDRAL>
0

>  <SCORE.SYSTEM.SOLV>
0

>  <SCORE.SYSTEM.norm>
0

>  <SCORE.heavy>
16

>  <SCORE.norm>
-0.653001

>  <RMSD>
3.558

$$$$
ligand
 OpenBabel11021811433D
libRbt.so/2013.1/901 2013/11/27
 16 16  0  0  0  0  0  0  0  0999 V2000
   47.3725   11.0616    9.2919 P   0  0  2  0  0  0  0  0  0  0  0  0
   46.4434   10.0002    8.8312 O   0  0  0  0  0  0  0  0  0  0  0  0
   47.4328   12.2315    8.1885 O   0  5  0  0  0  0  0  0  0  0  0  0
   48.8402   10.4241    9.4734 O   0  0  0  0  0  0  0  0  0  0  0  0
   43.1964   14.2458   12.6285 C   0  0  2  0  0  0  0  0  0  0  0  0
   43.9982   15.4313   12.7785 O   0  0  0  0  0  0  0  0  0  0  0  0
   43.2113   13.4024   13.9291 C   0  0  2  0  0  0  0  0  0  0  0  0
   42.7253   14.2099   15.0542 O   0  0  0  0  0  0  0  0  0  0  0  0
   44.6590   12.9545   14.2043 C   0  0  1  0  0  0  0  0  0  0  0  0
   44.7033   12.1658   15.3995 O   0  0  0  0  0  0  0  0  0  0  0  0
   45.1373   12.1143   13.0099 C   0  0  2  0  0  0  0  0  0  0  0  0
   46.4986   11.6908   13.2382 O   0  0  0  0  0  0  0  0  0  0  0  0
   45.0631   12.9918   11.7298 C   0  0  2  0  0  0  0  0  0  0  0  0
   43.6896   13.4369   11.5092 O   0  0  0  0  0  0  0  0  0  0  0  0
   45.5090   12.1468   10.5227 C   0  0  0  0  0  0  0  0  0  0  0  0
   46.8538   11.6848   10.6991 O   0  0  0  0  0  0  0  0  0  0  0  0
  1  2  1  6  0  0  0
  1  3  1  0  0  0  0
  1  4  2  0  0  0  0
  1 16  1  0  0  0  0
  5  6  1  1  0  0  0
  5  7  1  0  0  0  0
  5 14  1  0  0  0  0
  7  8  1  1  0  0  0
  7  9  1  0  0  0  0
  9 10  1  1  0  0  0
  9 11  1  0  0  0  0
 11 12  1  1  0  0  0
 11 13  1  0  0  0  0
 13 14  1  0  0  0  0
 13 15  1  6  0  0  0
 15 16  1  0  0  0  0
M  CHG  1   3  -1
M  END
>  <CHROM.1>
-60.08648648,-168.84488299,-55.54069479,45.51551207,12.39244463,11.69213824
0.64461793,0.78859062,-1.32315521

>  <Name>
ligand

>  <RI>
0

>  <Rbt.Current_Directory>
/home/itssahil/PROJECTS/Mol_Feturizer/New_Systems/rnas/2HO7

>  <Rbt.Executable>
rbdock ($Id: //depot/dev/client3/rdock/2013.1/src/exe/rbdock.cxx#4 $)

>  <Rbt.Library>
libRbt.so (2013.1, Build901 2013/11/27)

>  <Rbt.Parameter_File>
/export/apps/rDock/src/rDock_2013.1_src/data/scripts/dock_solv.prm

>  <Rbt.Receptor>
prm/pocket_docking_6.prm

>  <SCORE>
-9.83712

>  <SCORE.INTER>
-10.7864

>  <SCORE.INTER.CONST>
1

>  <SCORE.INTER.POLAR>
-1.29827

>  <SCORE.INTER.ROT>
3

>  <SCORE.INTER.SOLV>
15.8408

>  <SCORE.INTER.VDW>
-13.7436

>  <SCORE.INTER.norm>
-0.674147

>  <SCORE.INTRA>
0.940677

>  <SCORE.INTRA.DIHEDRAL>
0.62022

>  <SCORE.INTRA.DIHEDRAL.0>
0.00893466

>  <SCORE.INTRA.POLAR>
0

>  <SCORE.INTRA.POLAR.0>
0

>  <SCORE.INTRA.REPUL>
0

>  <SCORE.INTRA.REPUL.0>
0

>  <SCORE.INTRA.SOLV>
0.449283

>  <SCORE.INTRA.SOLV.lig_0>
-48.9722

>  <SCORE.INTRA.VDW>
0.405926

>  <SCORE.INTRA.VDW.0>
-0.529409

>  <SCORE.INTRA.norm>
0.0587923

>  <SCORE.RESTR>
0.00855975

>  <SCORE.RESTR.CAVITY>
0.00855975

>  <SCORE.RESTR.norm>
0.000534985

>  <SCORE.SYSTEM>
0

>  <SCORE.SYSTEM.CONST>
0

>  <SCORE.SYSTEM.DIHEDRAL>
0

>  <SCORE.SYSTEM.SOLV>
0

>  <SCORE.SYSTEM.norm>
0

>  <SCORE.heavy>
16

>  <SCORE.norm>
-0.61482

>  <RMSD>
3.579

$$$$
ligand
 OpenBabel11021811433D
libRbt.so/2013.1/901 2013/11/27
 16 16  0  0  0  0  0  0  0  0999 V2000
   45.5308   14.5775    8.3686 P   0  0  2  0  0  0  0  0  0  0  0  0
   46.0175   13.4398    7.5495 O   0  0  0  0  0  0  0  0  0  0  0  0
   44.1359   15.1082    7.7666 O   0  5  0  0  0  0  0  0  0  0  0  0
   46.6206   15.7618    8.3120 O   0  0  0  0  0  0  0  0  0  0  0  0
   45.4538   11.3508   13.1067 C   0  0  2  0  0  0  0  0  0  0  0  0
   44.5428   10.2373   13.1345 O   0  0  0  0  0  0  0  0  0  0  0  0
   45.0176   12.4447   14.1148 C   0  0  2  0  0  0  0  0  0  0  0  0
   44.9433   11.8779   15.4666 O   0  0  0  0  0  0  0  0  0  0  0  0
   43.6297   12.9671   13.6986 C   0  0  1  0  0  0  0  0  0  0  0  0
   43.2022   13.9862   14.6102 O   0  0  0  0  0  0  0  0  0  0  0  0
   43.7414   13.5515   12.2818 C   0  0  2  0  0  0  0  0  0  0  0  0
   42.4484   14.0387   11.8627 O   0  0  0  0  0  0  0  0  0  0  0  0
   44.2204   12.4273   11.3222 C   0  0  2  0  0  0  0  0  0  0  0  0
   45.5194   11.9205   11.7570 O   0  0  0  0  0  0  0  0  0  0  0  0
   44.3671   13.0132    9.9061 C   0  0  0  0  0  0  0  0  0  0  0  0
   45.2998   14.1009    9.9039 O   0  0  0  0  0  0  0  0  0  0  0  0
  1  2  1  6  0  0  0
  1  3  1  0  0  0  0
  1  4  2  0  0  0  0
  1 16  1  0  0  0  0
  5  6  1  6  0  0  0
  5  7  1  0  0  0  0
  5 14  1  0  0  0  0
  7  8  1  1  0  0  0
  7  9  1  0  0  0  0
  9 10  1  1  0  0  0
  9 11  1  0  0  0  0
 11 12  1  6  0  0  0
 11 13  1  0  0  0  0
 13 14  1  0  0  0  0
 13 15  1  6  0  0  0
 15 16  1  0  0  0  0
M  CHG  1   3  -1
M  END
>  <CHROM.1>
58.64025480,174.21811554,-57.66266830,44.73633860,13.29589770,11.19266748
-1.29860279,-0.83235079,2.16936165

>  <Name>
ligand

>  <RI>
0

>  <Rbt.Current_Directory>
/home/itssahil/PROJECTS/Mol_Feturizer/New_Systems/rnas/2HO7

>  <Rbt.Executable>
rbdock ($Id: //depot/dev/client3/rdock/2013.1/src/exe/rbdock.cxx#4 $)

>  <Rbt.Library>
libRbt.so (2013.1, Build901 2013/11/27)

>  <Rbt.Parameter_File>
/export/apps/rDock/src/rDock_2013.1_src/data/scripts/dock_solv.prm

>  <Rbt.Receptor>
prm/pocket_docking_7.prm

>  <SCORE>
-8.39005

>  <SCORE.INTER>
-8.52867

>  <SCORE.INTER.CONST>
1

>  <SCORE.INTER.POLAR>
0

>  <SCORE.INTER.ROT>
3

>  <SCORE.INTER.SOLV>
11.9639

>  <SCORE.INTER.VDW>
-15.2738

>  <SCORE.INTER.norm>
-0.533042

>  <SCORE.INTRA>
0.138611

>  <SCORE.INTRA.DIHEDRAL>
0.170495

>  <SCORE.INTRA.DIHEDRAL.0>
0.00893466

>  <SCORE.INTRA.POLAR>
0

>  <SCORE.INTRA.POLAR.0>
0

>  <SCORE.INTRA.REPUL>
0

>  <SCORE.INTRA.REPUL.0>
0

>  <SCORE.INTRA.SOLV>
0.214762

>  <SCORE.INTRA.SOLV.lig_0>
-48.9722

>  <SCORE.INTRA.VDW>
-0.0540178

>  <SCORE.INTRA.VDW.0>
-0.529409

>  <SCORE.INTRA.norm>
0.00866318

>  <SCORE.RESTR>
0

>  <SCORE.RESTR.CAVITY>
0

>  <SCORE.RESTR.norm>
0

>  <SCORE.SYSTEM>
0

>  <SCORE.SYSTEM.CONST>
0

>  <SCORE.SYSTEM.DIHEDRAL>
0

>  <SCORE.SYSTEM.SOLV>
0

>  <SCORE.SYSTEM.norm>
0

>  <SCORE.heavy>
16

>  <SCORE.norm>
-0.524378

>  <RMSD>
3.610

$$$$
ligand
 OpenBabel11021811433D
libRbt.so/2013.1/901 2013/11/27
 16 16  0  0  0  0  0  0  0  0999 V2000
   45.2824   14.4552    8.2824 P   0  0  2  0  0  0  0  0  0  0  0  0
   46.0315   13.4003    7.5555 O   0  0  0  0  0  0  0  0  0  0  0  0
   43.8330   14.6391    7.6078 O   0  5  0  0  0  0  0  0  0  0  0  0
   46.0992   15.8390    8.1759 O   0  0  0  0  0  0  0  0  0  0  0  0
   45.4658   11.3943   13.1442 C   0  0  2  0  0  0  0  0  0  0  0  0
   44.5975   10.2509   13.2397 O   0  0  0  0  0  0  0  0  0  0  0  0
   45.0088   12.5156   14.1122 C   0  0  2  0  0  0  0  0  0  0  0  0
   44.9814   12.0072   15.4888 O   0  0  0  0  0  0  0  0  0  0  0  0
   43.5947   12.9683   13.7024 C   0  0  1  0  0  0  0  0  0  0  0  0
   43.1473   14.0109   14.5772 O   0  0  0  0  0  0  0  0  0  0  0  0
   43.6575   13.4926   12.2594 C   0  0  2  0  0  0  0  0  0  0  0  0
   42.3395   13.9135   11.8462 O   0  0  0  0  0  0  0  0  0  0  0  0
   44.1594   12.3448   11.3402 C   0  0  2  0  0  0  0  0  0  0  0  0
   45.4844   11.9052   11.7697 O   0  0  0  0  0  0  0  0  0  0  0  0
   44.2571   12.8720    9.8971 C   0  0  0  0  0  0  0  0  0  0  0  0
   45.0941   14.0334    9.8394 O   0  0  0  0  0  0  0  0  0  0  0  0
  1  2  1  6  0  0  0
  1  3  1  0  0  0  0
  1  4  2  0  0  0  0
  1 16  1  0  0  0  0
  5  6  1  6  0  0  0
  5  7  1  0  0  0  0
  5 14  1  0  0  0  0
  7  8  1  1  0  0  0
  7  9  1  0  0  0  0
  9 10  1  1  0  0  0
  9 11  1  0  0  0  0
 11 12  1  6  0  0  0
 11 13  1  0  0  0  0
 13 14  1  0  0  0  0
 13 15  1  6  0  0  0
 15 16  1  0  0  0  0
M  CHG  1   3  -1
M  END
>  <CHROM.1>
55.66393056,174.34808940,-65.42804509,44.62027587,13.24215100,11.16685980
-1.36409536,-0.82451320,2.08804249

>  <Name>
ligand

>  <RI>
0

>  <Rbt.Current_Directory>
/home/itssahil/PROJECTS/Mol_Feturizer/New_Systems/rnas/2HO7

>  <Rbt.Executable>
rbdock ($Id: //depot/dev/client3/rdock/2013.1/src/exe/rbdock.cxx#4 $)

>  <Rbt.Library>
libRbt.so (2013.1, Build901 2013/11/27)

>  <Rbt.Parameter_File>
/export/apps/rDock/src/rDock_2013.1_src/data/scripts/dock_solv.prm

>  <Rbt.Receptor>
prm/pocket_docking_7.prm

>  <SCORE>
-8.42764

>  <SCORE.INTER>
-8.67806

>  <SCORE.INTER.CONST>
1

>  <SCORE.INTER.POLAR>
0

>  <SCORE.INTER.ROT>
3

>  <SCORE.INTER.SOLV>
14.2591

>  <SCORE.INTER.VDW>
-16.1384

>  <SCORE.INTER.norm>
-0.542379

>  <SCORE.INTRA>
0.25042

>  <SCORE.INTRA.DIHEDRAL>
0.264439

>  <SCORE.INTRA.DIHEDRAL.0>
0.00893466

>  <SCORE.INTRA.POLAR>
0

>  <SCORE.INTRA.POLAR.0>
0

>  <SCORE.INTRA.REPUL>
0

>  <SCORE.INTRA.REPUL.0>
0

>  <SCORE.INTRA.SOLV>
0.297364

>  <SCORE.INTRA.SOLV.lig_0>
-48.9722

>  <SCORE.INTRA.VDW>
-0.0304813

>  <SCORE.INTRA.VDW.0>
-0.529409

>  <SCORE.INTRA.norm>
0.0156512

>  <SCORE.RESTR>
0

>  <SCORE.RESTR.CAVITY>
0

>  <SCORE.RESTR.norm>
0

>  <SCORE.SYSTEM>
0

>  <SCORE.SYSTEM.CONST>
0

>  <SCORE.SYSTEM.DIHEDRAL>
0

>  <SCORE.SYSTEM.SOLV>
0

>  <SCORE.SYSTEM.norm>
0

>  <SCORE.heavy>
16

>  <SCORE.norm>
-0.526728

>  <RMSD>
3.726

$$$$
ligand
 OpenBabel11021811433D
libRbt.so/2013.1/901 2013/11/27
 16 16  0  0  0  0  0  0  0  0999 V2000
   45.1059   14.3509    8.3002 P   0  0  2  0  0  0  0  0  0  0  0  0
   43.8194   14.3540    7.5604 O   0  0  0  0  0  0  0  0  0  0  0  0
   45.7883   15.8039    8.1867 O   0  5  0  0  0  0  0  0  0  0  0  0
   46.0810   13.2514    7.6415 O   0  0  0  0  0  0  0  0  0  0  0  0
   45.4966   11.4487   13.2222 C   0  0  2  0  0  0  0  0  0  0  0  0
   44.7173   10.2459   13.3516 O   0  0  0  0  0  0  0  0  0  0  0  0
   44.9609   12.5564   14.1651 C   0  0  2  0  0  0  0  0  0  0  0  0
   44.9783   12.0823   15.5540 O   0  0  0  0  0  0  0  0  0  0  0  0
   43.5149   12.8911   13.7534 C   0  0  1  0  0  0  0  0  0  0  0  0
   42.9943   13.9189   14.6050 O   0  0  0  0  0  0  0  0  0  0  0  0
   43.5313   13.3821   12.2974 C   0  0  2  0  0  0  0  0  0  0  0  0
   42.1835   13.6922   11.8826 O   0  0  0  0  0  0  0  0  0  0  0  0
   44.1140   12.2525   11.4038 C   0  0  2  0  0  0  0  0  0  0  0  0
   45.4702   11.9247   11.8354 O   0  0  0  0  0  0  0  0  0  0  0  0
   44.1649   12.7489    9.9474 C   0  0  0  0  0  0  0  0  0  0  0  0
   44.8482   14.0058    9.8661 O   0  0  0  0  0  0  0  0  0  0  0  0
  1  2  1  6  0  0  0
  1  3  1  0  0  0  0
  1  4  2  0  0  0  0
  1 16  1  0  0  0  0
  5  6  1  6  0  0  0
  5  7  1  0  0  0  0
  5 14  1  0  0  0  0
  7  8  1  1  0  0  0
  7  9  1  0  0  0  0
  9 10  1  1  0  0  0
  9 11  1  0  0  0  0
 11 12  1  6  0  0  0
 11 13  1  0  0  0  0
 13 14  1  0  0  0  0
 13 15  1  6  0  0  0
 15 16  1  0  0  0  0
M  CHG  1   3  -1
M  END
>  <CHROM.1>
52.47355558,170.04005213,56.46295838,44.53409926,13.16781287,11.21045971
-1.39735865,-0.77156614,2.03493427

>  <Name>
ligand

>  <RI>
0

>  <Rbt.Current_Directory>
/home/itssahil/PROJECTS/Mol_Feturizer/New_Systems/rnas/2HO7

>  <Rbt.Executable>
rbdock ($Id: //depot/dev/client3/rdock/2013.1/src/exe/rbdock.cxx#4 $)

>  <Rbt.Library>
libRbt.so (2013.1, Build901 2013/11/27)

>  <Rbt.Parameter_File>
/export/apps/rDock/src/rDock_2013.1_src/data/scripts/dock_solv.prm

>  <Rbt.Receptor>
prm/pocket_docking_5.prm

>  <SCORE>
-8.56857

>  <SCORE.INTER>
-9.07233

>  <SCORE.INTER.CONST>
1

>  <SCORE.INTER.POLAR>
0

>  <SCORE.INTER.ROT>
3

>  <SCORE.INTER.SOLV>
14.7615

>  <SCORE.INTER.VDW>
-16.5687

>  <SCORE.INTER.norm>
-0.567021

>  <SCORE.INTRA>
0.503766

>  <SCORE.INTRA.DIHEDRAL>
0.693551

>  <SCORE.INTRA.DIHEDRAL.0>
0.00893466

>  <SCORE.INTRA.POLAR>
0

>  <SCORE.INTRA.POLAR.0>
0

>  <SCORE.INTRA.REPUL>
0

>  <SCORE.INTRA.REPUL.0>
0

>  <SCORE.INTRA.SOLV>
0.270181

>  <SCORE.INTRA.SOLV.lig_0>
-48.9722

>  <SCORE.INTRA.VDW>
0.0218999

>  <SCORE.INTRA.VDW.0>
-0.529409

>  <SCORE.INTRA.norm>
0.0314854

>  <SCORE.RESTR>
0

>  <SCORE.RESTR.CAVITY>
0

>  <SCORE.RESTR.norm>
0

>  <SCORE.SYSTEM>
0

>  <SCORE.SYSTEM.CONST>
0

>  <SCORE.SYSTEM.DIHEDRAL>
0

>  <SCORE.SYSTEM.SOLV>
0

>  <SCORE.SYSTEM.norm>
0

>  <SCORE.heavy>
16

>  <SCORE.norm>
-0.535535

>  <RMSD>
3.791

$$$$
ligand
 OpenBabel11021811433D
libRbt.so/2013.1/901 2013/11/27
 16 16  0  0  0  0  0  0  0  0999 V2000
   45.0916   14.3480    8.3049 P   0  0  2  0  0  0  0  0  0  0  0  0
   43.8037   14.3508    7.5676 O   0  0  0  0  0  0  0  0  0  0  0  0
   45.7723   15.8019    8.1922 O   0  5  0  0  0  0  0  0  0  0  0  0
   46.0665   13.2504    7.6427 O   0  0  0  0  0  0  0  0  0  0  0  0
   45.5602   11.4694   13.2174 C   0  0  2  0  0  0  0  0  0  0  0  0
   44.8277   10.2372   13.3426 O   0  0  0  0  0  0  0  0  0  0  0  0
   44.9851   12.5512   14.1671 C   0  0  2  0  0  0  0  0  0  0  0  0
   45.0240   12.0712   15.5536 O   0  0  0  0  0  0  0  0  0  0  0  0
   43.5263   12.8325   13.7606 C   0  0  1  0  0  0  0  0  0  0  0  0
   42.9690   13.8354   14.6185 O   0  0  0  0  0  0  0  0  0  0  0  0
   43.5203   13.3309   12.3070 C   0  0  2  0  0  0  0  0  0  0  0  0
   42.1606   13.5915   11.8969 O   0  0  0  0  0  0  0  0  0  0  0  0
   44.1434   12.2289   11.4063 C   0  0  2  0  0  0  0  0  0  0  0  0
   45.5122   11.9509   11.8331 O   0  0  0  0  0  0  0  0  0  0  0  0
   44.1717   12.7341    9.9524 C   0  0  0  0  0  0  0  0  0  0  0  0
   44.8373   14.0004    9.8708 O   0  0  0  0  0  0  0  0  0  0  0  0
  1  2  1  6  0  0  0
  1  3  1  0  0  0  0
  1  4  2  0  0  0  0
  1 16  1  0  0  0  0
  5  6  1  6  0  0  0
  5  7  1  0  0  0  0
  5 14  1  0  0  0  0
  7  8  1  1  0  0  0
  7  9  1  0  0  0  0
  9 10  1  1  0  0  0
  9 11  1  0  0  0  0
 11 12  1  6  0  0  0
 11 13  1  0  0  0  0
 13 14  1  0  0  0  0
 13 15  1  6  0  0  0
 15 16  1  0  0  0  0
M  CHG  1   3  -1
M  END
>  <CHROM.1>
53.97890767,169.26171330,57.24064311,44.54460953,13.14866936,11.21434559
-1.41285422,-0.73198490,2.02231049

>  <Name>
ligand

>  <RI>
0

>  <Rbt.Current_Directory>
/home/itssahil/PROJECTS/Mol_Feturizer/New_Systems/rnas/2HO7

>  <Rbt.Executable>
rbdock ($Id: //depot/dev/client3/rdock/2013.1/src/exe/rbdock.cxx#4 $)

>  <Rbt.Library>
libRbt.so (2013.1, Build901 2013/11/27)

>  <Rbt.Parameter_File>
/export/apps/rDock/src/rDock_2013.1_src/data/scripts/dock_solv.prm

>  <Rbt.Receptor>
prm/pocket_docking_5.prm

>  <SCORE>
-8.54418

>  <SCORE.INTER>
-9.02278

>  <SCORE.INTER.CONST>
1

>  <SCORE.INTER.POLAR>
0

>  <SCORE.INTER.ROT>
3

>  <SCORE.INTER.SOLV>
14.8246

>  <SCORE.INTER.VDW>
-16.5567

>  <SCORE.INTER.norm>
-0.563924

>  <SCORE.INTRA>
0.4786

>  <SCORE.INTRA.DIHEDRAL>
0.688767

>  <SCORE.INTRA.DIHEDRAL.0>
0.00893466

>  <SCORE.INTRA.POLAR>
0

>  <SCORE.INTRA.POLAR.0>
0

>  <SCORE.INTRA.REPUL>
0

>  <SCORE.INTRA.REPUL.0>
0

>  <SCORE.INTRA.SOLV>
0.2827

>  <SCORE.INTRA.SOLV.lig_0>
-48.9722

>  <SCORE.INTRA.VDW>
-0.00713395

>  <SCORE.INTRA.VDW.0>
-0.529409

>  <SCORE.INTRA.norm>
0.0299125

>  <SCORE.RESTR>
0

>  <SCORE.RESTR.CAVITY>
0

>  <SCORE.RESTR.norm>
0

>  <SCORE.SYSTEM>
0

>  <SCORE.SYSTEM.CONST>
0

>  <SCORE.SYSTEM.DIHEDRAL>
0

>  <SCORE.SYSTEM.SOLV>
0

>  <SCORE.SYSTEM.norm>
0

>  <SCORE.heavy>
16

>  <SCORE.norm>
-0.534011

>  <RMSD>
3.796

$$$$
ligand
 OpenBabel11021811433D
libRbt.so/2013.1/901 2013/11/27
 16 16  0  0  0  0  0  0  0  0999 V2000
   45.5795   15.1077    8.2021 P   0  0  2  0  0  0  0  0  0  0  0  0
   46.3450   14.5449    7.0622 O   0  0  0  0  0  0  0  0  0  0  0  0
   44.1619   15.6551    7.6723 O   0  5  0  0  0  0  0  0  0  0  0  0
   46.4173   16.3269    8.8387 O   0  0  0  0  0  0  0  0  0  0  0  0
   45.6790   12.0409   13.0625 C   0  0  2  0  0  0  0  0  0  0  0  0
   44.9106   10.9058   12.6245 O   0  0  0  0  0  0  0  0  0  0  0  0
   45.0287   12.6999   14.3058 C   0  0  2  0  0  0  0  0  0  0  0  0
   44.9078   11.7154   15.3877 O   0  0  0  0  0  0  0  0  0  0  0  0
   43.6286   13.2079   13.9133 C   0  0  1  0  0  0  0  0  0  0  0  0
   43.0043   13.8291   15.0432 O   0  0  0  0  0  0  0  0  0  0  0  0
   43.7899   14.2335   12.7804 C   0  0  2  0  0  0  0  0  0  0  0  0
   42.4882   14.7177   12.3854 O   0  0  0  0  0  0  0  0  0  0  0  0
   44.4821   13.5338   11.5782 C   0  0  2  0  0  0  0  0  0  0  0  0
   45.7907   13.0265   11.9824 O   0  0  0  0  0  0  0  0  0  0  0  0
   44.6778   14.5636   10.4506 C   0  0  0  0  0  0  0  0  0  0  0  0
   45.3210   13.9598    9.3216 O   0  0  0  0  0  0  0  0  0  0  0  0
  1  2  1  6  0  0  0
  1  3  1  0  0  0  0
  1  4  2  0  0  0  0
  1 16  1  0  0  0  0
  5  6  1  6  0  0  0
  5  7  1  0  0  0  0
  5 14  1  0  0  0  0
  7  8  1  1  0  0  0
  7  9  1  0  0  0  0
  9 10  1  1  0  0  0
  9 11  1  0  0  0  0
 11 12  1  6  0  0  0
 11 13  1  0  0  0  0
 13 14  1  0  0  0  0
 13 15  1  6  0  0  0
 15 16  1  0  0  0  0
M  CHG  1   3  -1
M  END
>  <CHROM.1>
179.71342863,-176.72441143,175.35616667,44.82621069,13.86360533,11.25676250
-1.31006063,-0.73865975,2.14561402

>  <Name>
ligand

>  <RI>
0

>  <Rbt.Current_Directory>
/home/itssahil/PROJECTS/Mol_Feturizer/New_Systems/rnas/2HO7

>  <Rbt.Executable>
rbdock ($Id: //depot/dev/client3/rdock/2013.1/src/exe/rbdock.cxx#4 $)

>  <Rbt.Library>
libRbt.so (2013.1, Build901 2013/11/27)

>  <Rbt.Parameter_File>
/export/apps/rDock/src/rDock_2013.1_src/data/scripts/dock_solv.prm

>  <Rbt.Receptor>
prm/pocket_docking_8.prm

>  <SCORE>
-7.80562

>  <SCORE.INTER>
-8.11185

>  <SCORE.INTER.CONST>
1

>  <SCORE.INTER.POLAR>
0

>  <SCORE.INTER.ROT>
3

>  <SCORE.INTER.SOLV>
9.97799

>  <SCORE.INTER.VDW>
-14.3339

>  <SCORE.INTER.norm>
-0.50699

>  <SCORE.INTRA>
0.306224

>  <SCORE.INTRA.DIHEDRAL>
0.08008

>  <SCORE.INTRA.DIHEDRAL.0>
0.00893466

>  <SCORE.INTRA.POLAR>
0

>  <SCORE.INTRA.POLAR.0>
0

>  <SCORE.INTRA.REPUL>
0

>  <SCORE.INTRA.REPUL.0>
0

>  <SCORE.INTRA.SOLV>
0.678575

>  <SCORE.INTRA.SOLV.lig_0>
-48.9722

>  <SCORE.INTRA.VDW>
-0.073103

>  <SCORE.INTRA.VDW.0>
-0.529409

>  <SCORE.INTRA.norm>
0.019139

>  <SCORE.RESTR>
0

>  <SCORE.RESTR.CAVITY>
0

>  <SCORE.RESTR.norm>
0

>  <SCORE.SYSTEM>
0

>  <SCORE.SYSTEM.CONST>
0

>  <SCORE.SYSTEM.DIHEDRAL>
0

>  <SCORE.SYSTEM.SOLV>
0

>  <SCORE.SYSTEM.norm>
0

>  <SCORE.heavy>
16

>  <SCORE.norm>
-0.487851

>  <RMSD>
3.796

$$$$
ligand
 OpenBabel11021811433D
libRbt.so/2013.1/901 2013/11/27
 16 16  0  0  0  0  0  0  0  0999 V2000
   45.2483   14.6884    8.1155 P   0  0  2  0  0  0  0  0  0  0  0  0
   46.0497   13.6200    7.4685 O   0  0  0  0  0  0  0  0  0  0  0  0
   43.8404   14.8349    7.3498 O   0  5  0  0  0  0  0  0  0  0  0  0
   46.0569   16.0774    8.0144 O   0  0  0  0  0  0  0  0  0  0  0  0
   45.3339   11.6756   12.9665 C   0  0  2  0  0  0  0  0  0  0  0  0
   44.4885   10.5136   13.0435 O   0  0  0  0  0  0  0  0  0  0  0  0
   44.8418   12.7801   13.9365 C   0  0  2  0  0  0  0  0  0  0  0  0
   44.8085   12.2616   15.3091 O   0  0  0  0  0  0  0  0  0  0  0  0
   43.4236   13.2062   13.5126 C   0  0  1  0  0  0  0  0  0  0  0  0
   42.9440   14.2330   14.3889 O   0  0  0  0  0  0  0  0  0  0  0  0
   43.4928   13.7419   12.0740 C   0  0  2  0  0  0  0  0  0  0  0  0
   42.1714   14.1383   11.6477 O   0  0  0  0  0  0  0  0  0  0  0  0
   44.0297   12.6115   11.1532 C   0  0  2  0  0  0  0  0  0  0  0  0
   45.3583   12.1965   11.5959 O   0  0  0  0  0  0  0  0  0  0  0  0
   44.1337   13.1508    9.7150 C   0  0  0  0  0  0  0  0  0  0  0  0
   44.9705   14.3130    9.6710 O   0  0  0  0  0  0  0  0  0  0  0  0
  1  2  1  6  0  0  0
  1  3  1  0  0  0  0
  1  4  2  0  0  0  0
  1 16  1  0  0  0  0
  5  6  1  6  0  0  0
  5  7  1  0  0  0  0
  5 14  1  0  0  0  0
  7  8  1  1  0  0  0
  7  9  1  0  0  0  0
  9 10  1  1  0  0  0
  9 11  1  0  0  0  0
 11 12  1  6  0  0  0
 11 13  1  0  0  0  0
 13 14  1  0  0  0  0
 13 15  1  6  0  0  0
 15 16  1  0  0  0  0
M  CHG  1   3  -1
M  END
>  <CHROM.1>
56.91713626,170.56074080,-65.88461016,44.51222963,13.49039458,10.98808283
-1.33930966,-0.78473138,2.09568171

>  <Name>
ligand

>  <RI>
0

>  <Rbt.Current_Directory>
/home/itssahil/PROJECTS/Mol_Feturizer/New_Systems/rnas/2HO7

>  <Rbt.Executable>
rbdock ($Id: //depot/dev/client3/rdock/2013.1/src/exe/rbdock.cxx#4 $)

>  <Rbt.Library>
libRbt.so (2013.1, Build901 2013/11/27)

>  <Rbt.Parameter_File>
/export/apps/rDock/src/rDock_2013.1_src/data/scripts/dock_solv.prm

>  <Rbt.Receptor>
prm/pocket_docking_6.prm

>  <SCORE>
-8.11407

>  <SCORE.INTER>
-8.49897

>  <SCORE.INTER.CONST>
1

>  <SCORE.INTER.POLAR>
0

>  <SCORE.INTER.ROT>
3

>  <SCORE.INTER.SOLV>
13.6328

>  <SCORE.INTER.VDW>
-15.8102

>  <SCORE.INTER.norm>
-0.531185

>  <SCORE.INTRA>
0.384892

>  <SCORE.INTRA.DIHEDRAL>
0.513644

>  <SCORE.INTRA.DIHEDRAL.0>
0.00893466

>  <SCORE.INTRA.POLAR>
0

>  <SCORE.INTRA.POLAR.0>
0

>  <SCORE.INTRA.REPUL>
0

>  <SCORE.INTRA.REPUL.0>
0

>  <SCORE.INTRA.SOLV>
0.299883

>  <SCORE.INTRA.SOLV.lig_0>
-48.9722

>  <SCORE.INTRA.VDW>
-0.0218714

>  <SCORE.INTRA.VDW.0>
-0.529409

>  <SCORE.INTRA.norm>
0.0240557

>  <SCORE.RESTR>
0

>  <SCORE.RESTR.CAVITY>
0

>  <SCORE.RESTR.norm>
0

>  <SCORE.SYSTEM>
0

>  <SCORE.SYSTEM.CONST>
0

>  <SCORE.SYSTEM.DIHEDRAL>
0

>  <SCORE.SYSTEM.SOLV>
0

>  <SCORE.SYSTEM.norm>
0

>  <SCORE.heavy>
16

>  <SCORE.norm>
-0.50713

>  <RMSD>
3.827

$$$$
ligand
 OpenBabel11021811433D
libRbt.so/2013.1/901 2013/11/27
 16 16  0  0  0  0  0  0  0  0999 V2000
   45.0578   14.5730    8.1803 P   0  0  2  0  0  0  0  0  0  0  0  0
   43.8327   14.3270    7.3797 O   0  0  0  0  0  0  0  0  0  0  0  0
   45.4591   16.1279    8.0743 O   0  5  0  0  0  0  0  0  0  0  0  0
   46.2544   13.6723    7.5884 O   0  0  0  0  0  0  0  0  0  0  0  0
   45.5077   11.7041   13.1538 C   0  0  2  0  0  0  0  0  0  0  0  0
   44.8070   10.4520   13.2632 O   0  0  0  0  0  0  0  0  0  0  0  0
   44.8518   12.7829   14.0531 C   0  0  2  0  0  0  0  0  0  0  0  0
   44.8333   12.3271   15.4481 O   0  0  0  0  0  0  0  0  0  0  0  0
   43.4082   13.0122   13.5673 C   0  0  1  0  0  0  0  0  0  0  0  0
   42.7773   14.0113   14.3774 O   0  0  0  0  0  0  0  0  0  0  0  0
   43.4625   13.4864   12.1067 C   0  0  2  0  0  0  0  0  0  0  0  0
   42.1187   13.6980   11.6228 O   0  0  0  0  0  0  0  0  0  0  0  0
   44.1643   12.3896   11.2590 C   0  0  2  0  0  0  0  0  0  0  0  0
   45.5170   12.1612   11.7604 O   0  0  0  0  0  0  0  0  0  0  0  0
   44.2527   12.8716    9.7996 C   0  0  0  0  0  0  0  0  0  0  0  0
   44.7910   14.1981    9.7378 O   0  0  0  0  0  0  0  0  0  0  0  0
  1  2  1  6  0  0  0
  1  3  1  0  0  0  0
  1  4  2  0  0  0  0
  1 16  1  0  0  0  0
  5  6  1  6  0  0  0
  5  7  1  0  0  0  0
  5 14  1  0  0  0  0
  7  8  1  1  0  0  0
  7  9  1  0  0  0  0
  9 10  1  1  0  0  0
  9 11  1  0  0  0  0
 11 12  1  6  0  0  0
 11 13  1  0  0  0  0
 13 14  1  0  0  0  0
 13 15  1  6  0  0  0
 15 16  1  0  0  0  0
M  CHG  1   3  -1
M  END
>  <CHROM.1>
49.63969601,172.09536721,51.93618701,44.49080972,13.35171056,11.07418609
-1.40404016,-0.70169223,2.03099866

>  <Name>
ligand

>  <RI>
0

>  <Rbt.Current_Directory>
/home/itssahil/PROJECTS/Mol_Feturizer/New_Systems/rnas/2HO7

>  <Rbt.Executable>
rbdock ($Id: //depot/dev/client3/rdock/2013.1/src/exe/rbdock.cxx#4 $)

>  <Rbt.Library>
libRbt.so (2013.1, Build901 2013/11/27)

>  <Rbt.Parameter_File>
/export/apps/rDock/src/rDock_2013.1_src/data/scripts/dock_solv.prm

>  <Rbt.Receptor>
prm/pocket_docking_6.prm

>  <SCORE>
-8.35276

>  <SCORE.INTER>
-8.98442

>  <SCORE.INTER.CONST>
1

>  <SCORE.INTER.POLAR>
0

>  <SCORE.INTER.ROT>
3

>  <SCORE.INTER.SOLV>
14.0124

>  <SCORE.INTER.VDW>
-16.2604

>  <SCORE.INTER.norm>
-0.561526

>  <SCORE.INTRA>
0.628396

>  <SCORE.INTRA.DIHEDRAL>
0.781072

>  <SCORE.INTRA.DIHEDRAL.0>
0.00893466

>  <SCORE.INTRA.POLAR>
0

>  <SCORE.INTRA.POLAR.0>
0

>  <SCORE.INTRA.REPUL>
0

>  <SCORE.INTRA.REPUL.0>
0

>  <SCORE.INTRA.SOLV>
0.212554

>  <SCORE.INTRA.SOLV.lig_0>
-48.9722

>  <SCORE.INTRA.VDW>
0.131583

>  <SCORE.INTRA.VDW.0>
-0.529409

>  <SCORE.INTRA.norm>
0.0392748

>  <SCORE.RESTR>
0.00326148

>  <SCORE.RESTR.CAVITY>
0.00326148

>  <SCORE.RESTR.norm>
0.000203842

>  <SCORE.SYSTEM>
0

>  <SCORE.SYSTEM.CONST>
0

>  <SCORE.SYSTEM.DIHEDRAL>
0

>  <SCORE.SYSTEM.SOLV>
0

>  <SCORE.SYSTEM.norm>
0

>  <SCORE.heavy>
16

>  <SCORE.norm>
-0.522048

>  <RMSD>
3.837

$$$$
ligand
 OpenBabel11021811433D
libRbt.so/2013.1/901 2013/11/27
 16 16  0  0  0  0  0  0  0  0999 V2000
   50.2877   12.6767    8.3828 P   0  0  2  0  0  0  0  0  0  0  0  0
   50.7995   11.8419    7.2677 O   0  0  0  0  0  0  0  0  0  0  0  0
   50.9464   14.1424    8.2958 O   0  5  0  0  0  0  0  0  0  0  0  0
   50.7015   11.9886    9.7788 O   0  0  0  0  0  0  0  0  0  0  0  0
   44.5807   12.8045    9.2807 C   0  0  2  0  0  0  0  0  0  0  0  0
   44.1933   13.3133    7.9916 O   0  0  0  0  0  0  0  0  0  0  0  0
   44.0849   13.7393   10.4136 C   0  0  2  0  0  0  0  0  0  0  0  0
   42.6265   13.8859   10.3385 O   0  0  0  0  0  0  0  0  0  0  0  0
   44.7506   15.1170   10.2366 C   0  0  1  0  0  0  0  0  0  0  0  0
   44.3155   16.0023   11.2755 O   0  0  0  0  0  0  0  0  0  0  0  0
   46.2734   14.9288   10.3189 C   0  0  2  0  0  0  0  0  0  0  0  0
   46.9228   16.2066   10.1442 O   0  0  0  0  0  0  0  0  0  0  0  0
   46.7104   13.9538    9.1908 C   0  0  2  0  0  0  0  0  0  0  0  0
   46.0388   12.6674    9.3557 O   0  0  0  0  0  0  0  0  0  0  0  0
   48.2310   13.7337    9.2871 C   0  0  0  0  0  0  0  0  0  0  0  0
   48.6726   12.8132    8.2818 O   0  0  0  0  0  0  0  0  0  0  0  0
  1  2  1  6  0  0  0
  1  3  1  0  0  0  0
  1  4  2  0  0  0  0
  1 16  1  0  0  0  0
  5  6  1  6  0  0  0
  5  7  1  0  0  0  0
  5 14  1  0  0  0  0
  7  8  1  6  0  0  0
  7  9  1  0  0  0  0
  9 10  1  1  0  0  0
  9 11  1  0  0  0  0
 11 12  1  6  0  0  0
 11 13  1  0  0  0  0
 13 14  1  0  0  0  0
 13 15  1  1  0  0  0
 15 16  1  0  0  0  0
M  CHG  1   3  -1
M  END
>  <CHROM.1>
178.62697929,177.21356043,-174.11019620,47.16768692,13.65419548,9.27703731
0.36276391,-0.09856219,-2.60808998

>  <Name>
ligand

>  <RI>
0

>  <Rbt.Current_Directory>
/home/itssahil/PROJECTS/Mol_Feturizer/New_Systems/rnas/2HO7

>  <Rbt.Executable>
rbdock ($Id: //depot/dev/client3/rdock/2013.1/src/exe/rbdock.cxx#4 $)

>  <Rbt.Library>
libRbt.so (2013.1, Build901 2013/11/27)

>  <Rbt.Parameter_File>
/export/apps/rDock/src/rDock_2013.1_src/data/scripts/dock_solv.prm

>  <Rbt.Receptor>
prm/pocket_docking_7.prm

>  <SCORE>
-5.91923

>  <SCORE.INTER>
-6.25687

>  <SCORE.INTER.CONST>
1

>  <SCORE.INTER.POLAR>
-1.29904

>  <SCORE.INTER.ROT>
3

>  <SCORE.INTER.SOLV>
10.2034

>  <SCORE.INTER.VDW>
-8.84225

>  <SCORE.INTER.norm>
-0.391055

>  <SCORE.INTRA>
0.337642

>  <SCORE.INTRA.DIHEDRAL>
0.0924768

>  <SCORE.INTRA.DIHEDRAL.0>
0.00893466

>  <SCORE.INTRA.POLAR>
0

>  <SCORE.INTRA.POLAR.0>
0

>  <SCORE.INTRA.REPUL>
0

>  <SCORE.INTRA.REPUL.0>
0

>  <SCORE.INTRA.SOLV>
0.656904

>  <SCORE.INTRA.SOLV.lig_0>
-48.9722

>  <SCORE.INTRA.VDW>
-0.0370484

>  <SCORE.INTRA.VDW.0>
-0.529409

>  <SCORE.INTRA.norm>
0.0211026

>  <SCORE.RESTR>
0

>  <SCORE.RESTR.CAVITY>
0

>  <SCORE.RESTR.norm>
0

>  <SCORE.SYSTEM>
0

>  <SCORE.SYSTEM.CONST>
0

>  <SCORE.SYSTEM.DIHEDRAL>
0

>  <SCORE.SYSTEM.SOLV>
0

>  <SCORE.SYSTEM.norm>
0

>  <SCORE.heavy>
16

>  <SCORE.norm>
-0.369952

>  <RMSD>
3.938

$$$$
ligand
 OpenBabel11021811433D
libRbt.so/2013.1/901 2013/11/27
 16 16  0  0  0  0  0  0  0  0999 V2000
   44.7460   14.8442    7.9216 P   0  0  2  0  0  0  0  0  0  0  0  0
   45.9405   14.2408    7.2803 O   0  0  0  0  0  0  0  0  0  0  0  0
   43.5363   14.8851    6.8611 O   0  5  0  0  0  0  0  0  0  0  0  0
   45.1050   16.3462    8.3786 O   0  0  0  0  0  0  0  0  0  0  0  0
   45.9978   11.7994   13.1992 C   0  0  2  0  0  0  0  0  0  0  0  0
   45.3134   10.5891   12.8284 O   0  0  0  0  0  0  0  0  0  0  0  0
   45.1567   12.6206   14.2098 C   0  0  2  0  0  0  0  0  0  0  0  0
   44.8716   11.8090   15.3989 O   0  0  0  0  0  0  0  0  0  0  0  0
   43.8335   13.0222   13.5313 C   0  0  1  0  0  0  0  0  0  0  0  0
   43.0361   13.7896   14.4411 O   0  0  0  0  0  0  0  0  0  0  0  0
   44.1663   13.8679   12.2922 C   0  0  2  0  0  0  0  0  0  0  0  0
   42.9408   14.2485   11.6303 O   0  0  0  0  0  0  0  0  0  0  0  0
   45.0425   13.0140   11.3346 C   0  0  2  0  0  0  0  0  0  0  0  0
   46.2736   12.6122   12.0101 O   0  0  0  0  0  0  0  0  0  0  0  0
   45.4084   13.8656   10.1054 C   0  0  0  0  0  0  0  0  0  0  0  0
   44.2961   13.9593    9.2070 O   0  0  0  0  0  0  0  0  0  0  0  0
  1  2  1  6  0  0  0
  1  3  1  0  0  0  0
  1  4  2  0  0  0  0
  1 16  1  0  0  0  0
  5  6  1  6  0  0  0
  5  7  1  0  0  0  0
  5 14  1  0  0  0  0
  7  8  1  1  0  0  0
  7  9  1  0  0  0  0
  9 10  1  1  0  0  0
  9 11  1  0  0  0  0
 11 12  1  6  0  0  0
 11 13  1  0  0  0  0
 13 14  1  0  0  0  0
 13 15  1  6  0  0  0
 15 16  1  0  0  0  0
M  CHG  1   3  -1
M  END
>  <CHROM.1>
-76.90364036,-179.03763919,56.68292284,44.71829903,13.58300227,11.00484185
-1.56849974,-0.69758147,1.97116118

>  <Name>
ligand

>  <RI>
0

>  <Rbt.Current_Directory>
/home/itssahil/PROJECTS/Mol_Feturizer/New_Systems/rnas/2HO7

>  <Rbt.Executable>
rbdock ($Id: //depot/dev/client3/rdock/2013.1/src/exe/rbdock.cxx#4 $)

>  <Rbt.Library>
libRbt.so (2013.1, Build901 2013/11/27)

>  <Rbt.Parameter_File>
/export/apps/rDock/src/rDock_2013.1_src/data/scripts/dock_solv.prm

>  <Rbt.Receptor>
prm/pocket_docking_7.prm

>  <SCORE>
-7.92348

>  <SCORE.INTER>
-8.48786

>  <SCORE.INTER.CONST>
1

>  <SCORE.INTER.POLAR>
0

>  <SCORE.INTER.ROT>
3

>  <SCORE.INTER.SOLV>
15.1264

>  <SCORE.INTER.VDW>
-16.3007

>  <SCORE.INTER.norm>
-0.530491

>  <SCORE.INTRA>
0.564383

>  <SCORE.INTRA.DIHEDRAL>
0.983562

>  <SCORE.INTRA.DIHEDRAL.0>
0.00893466

>  <SCORE.INTRA.POLAR>
0

>  <SCORE.INTRA.POLAR.0>
0

>  <SCORE.INTRA.REPUL>
0

>  <SCORE.INTRA.REPUL.0>
0

>  <SCORE.INTRA.SOLV>
0.304622

>  <SCORE.INTRA.SOLV.lig_0>
-48.9722

>  <SCORE.INTRA.VDW>
-0.0797094

>  <SCORE.INTRA.VDW.0>
-0.529409

>  <SCORE.INTRA.norm>
0.0352739

>  <SCORE.RESTR>
0

>  <SCORE.RESTR.CAVITY>
0

>  <SCORE.RESTR.norm>
0

>  <SCORE.SYSTEM>
0

>  <SCORE.SYSTEM.CONST>
0

>  <SCORE.SYSTEM.DIHEDRAL>
0

>  <SCORE.SYSTEM.SOLV>
0

>  <SCORE.SYSTEM.norm>
0

>  <SCORE.heavy>
16

>  <SCORE.norm>
-0.495217

>  <RMSD>
3.989

$$$$
ligand
 OpenBabel11021811433D
libRbt.so/2013.1/901 2013/11/27
 16 16  0  0  0  0  0  0  0  0999 V2000
   44.7139   14.7787    7.9336 P   0  0  2  0  0  0  0  0  0  0  0  0
   45.9094   14.1602    7.3088 O   0  0  0  0  0  0  0  0  0  0  0  0
   43.5180   14.8303    6.8579 O   0  5  0  0  0  0  0  0  0  0  0  0
   45.0840   16.2778    8.3912 O   0  0  0  0  0  0  0  0  0  0  0  0
   45.8650   11.5381   13.1252 C   0  0  2  0  0  0  0  0  0  0  0  0
   44.9937   10.4344   12.8197 O   0  0  0  0  0  0  0  0  0  0  0  0
   45.2137   12.4819   14.1682 C   0  0  2  0  0  0  0  0  0  0  0  0
   44.8906   11.7323   15.3880 O   0  0  0  0  0  0  0  0  0  0  0  0
   43.9214   13.0616   13.5628 C   0  0  1  0  0  0  0  0  0  0  0  0
   43.2993   13.9449   14.5037 O   0  0  0  0  0  0  0  0  0  0  0  0
   44.2933   13.8376   12.2897 C   0  0  2  0  0  0  0  0  0  0  0  0
   43.0956   14.3825   11.6953 O   0  0  0  0  0  0  0  0  0  0  0  0
   44.9779   12.8569   11.2980 C   0  0  2  0  0  0  0  0  0  0  0  0
   46.1790   12.2903   11.9061 O   0  0  0  0  0  0  0  0  0  0  0  0
   45.3840   13.6342   10.0327 C   0  0  0  0  0  0  0  0  0  0  0  0
   44.2380   13.9024    9.2155 O   0  0  0  0  0  0  0  0  0  0  0  0
  1  2  1  6  0  0  0
  1  3  1  0  0  0  0
  1  4  2  0  0  0  0
  1 16  1  0  0  0  0
  5  6  1  6  0  0  0
  5  7  1  0  0  0  0
  5 14  1  0  0  0  0
  7  8  1  1  0  0  0
  7  9  1  0  0  0  0
  9 10  1  1  0  0  0
  9 11  1  0  0  0  0
 11 12  1  6  0  0  0
 11 13  1  0  0  0  0
 13 14  1  0  0  0  0
 13 15  1  6  0  0  0
 15 16  1  0  0  0  0
M  CHG  1   3  -1
M  END
>  <CHROM.1>
-75.62310565,177.49310564,48.43302694,44.71018967,13.50112892,10.99914427
-1.57860887,-0.85653915,1.96825040

>  <Name>
ligand

>  <RI>
0

>  <Rbt.Current_Directory>
/home/itssahil/PROJECTS/Mol_Feturizer/New_Systems/rnas/2HO7

>  <Rbt.Executable>
rbdock ($Id: //depot/dev/client3/rdock/2013.1/src/exe/rbdock.cxx#4 $)

>  <Rbt.Library>
libRbt.so (2013.1, Build901 2013/11/27)

>  <Rbt.Parameter_File>
/export/apps/rDock/src/rDock_2013.1_src/data/scripts/dock_solv.prm

>  <Rbt.Receptor>
prm/pocket_docking_7.prm

>  <SCORE>
-7.88269

>  <SCORE.INTER>
-8.66117

>  <SCORE.INTER.CONST>
1

>  <SCORE.INTER.POLAR>
0

>  <SCORE.INTER.ROT>
3

>  <SCORE.INTER.SOLV>
15.4031

>  <SCORE.INTER.VDW>
-16.5085

>  <SCORE.INTER.norm>
-0.541323

>  <SCORE.INTRA>
0.778481

>  <SCORE.INTRA.DIHEDRAL>
1.07284

>  <SCORE.INTRA.DIHEDRAL.0>
0.00893466

>  <SCORE.INTRA.POLAR>
0

>  <SCORE.INTRA.POLAR.0>
0

>  <SCORE.INTRA.REPUL>
0

>  <SCORE.INTRA.REPUL.0>
0

>  <SCORE.INTRA.SOLV>
0.371294

>  <SCORE.INTRA.SOLV.lig_0>
-48.9722

>  <SCORE.INTRA.VDW>
0.056413

>  <SCORE.INTRA.VDW.0>
-0.529409

>  <SCORE.INTRA.norm>
0.048655

>  <SCORE.RESTR>
0

>  <SCORE.RESTR.CAVITY>
0

>  <SCORE.RESTR.norm>
0

>  <SCORE.SYSTEM>
0

>  <SCORE.SYSTEM.CONST>
0

>  <SCORE.SYSTEM.DIHEDRAL>
0

>  <SCORE.SYSTEM.SOLV>
0

>  <SCORE.SYSTEM.norm>
0

>  <SCORE.heavy>
16

>  <SCORE.norm>
-0.492668

>  <RMSD>
3.994

$$$$
ligand
 OpenBabel11021811433D
libRbt.so/2013.1/901 2013/11/27
 16 16  0  0  0  0  0  0  0  0999 V2000
   45.0402   15.2441    8.3527 P   0  0  2  0  0  0  0  0  0  0  0  0
   44.8476   14.8105    6.9466 O   0  0  0  0  0  0  0  0  0  0  0  0
   44.1756   16.5744    8.6223 O   0  5  0  0  0  0  0  0  0  0  0  0
   46.6006   15.5661    8.5877 O   0  0  0  0  0  0  0  0  0  0  0  0
   45.2727   11.6464   12.8504 C   0  0  2  0  0  0  0  0  0  0  0  0
   44.2363   10.7425   12.4269 O   0  0  0  0  0  0  0  0  0  0  0  0
   44.9427   12.2513   14.2390 C   0  0  2  0  0  0  0  0  0  0  0  0
   44.7670   11.1769   15.2234 O   0  0  0  0  0  0  0  0  0  0  0  0
   43.6374   13.0604   14.1217 C   0  0  1  0  0  0  0  0  0  0  0  0
   43.3097   13.6382   15.3911 O   0  0  0  0  0  0  0  0  0  0  0  0
   43.8539   14.1738   13.0849 C   0  0  2  0  0  0  0  0  0  0  0  0
   42.6388   14.9415   12.9475 O   0  0  0  0  0  0  0  0  0  0  0  0
   44.2217   13.5162   11.7262 C   0  0  2  0  0  0  0  0  0  0  0  0
   45.4400   12.7235   11.8693 O   0  0  0  0  0  0  0  0  0  0  0  0
   44.4730   14.6265   10.6898 C   0  0  0  0  0  0  0  0  0  0  0  0
   44.5492   14.0763    9.3690 O   0  0  0  0  0  0  0  0  0  0  0  0
  1  2  1  6  0  0  0
  1  3  1  0  0  0  0
  1  4  2  0  0  0  0
  1 16  1  0  0  0  0
  5  6  1  6  0  0  0
  5  7  1  0  0  0  0
  5 14  1  0  0  0  0
  7  8  1  1  0  0  0
  7  9  1  0  0  0  0
  9 10  1  1  0  0  0
  9 11  1  0  0  0  0
 11 12  1  6  0  0  0
 11 13  1  0  0  0  0
 13 14  1  0  0  0  0
 13 15  1  6  0  0  0
 15 16  1  0  0  0  0
M  CHG  1   3  -1
M  END
>  <CHROM.1>
-168.36274508,-171.35765513,-167.57144936,44.53915966,13.80181898,11.37501779
-1.33864659,-0.99114547,2.23081980

>  <Name>
ligand

>  <RI>
0

>  <Rbt.Current_Directory>
/home/itssahil/PROJECTS/Mol_Feturizer/New_Systems/rnas/2HO7

>  <Rbt.Executable>
rbdock ($Id: //depot/dev/client3/rdock/2013.1/src/exe/rbdock.cxx#4 $)

>  <Rbt.Library>
libRbt.so (2013.1, Build901 2013/11/27)

>  <Rbt.Parameter_File>
/export/apps/rDock/src/rDock_2013.1_src/data/scripts/dock_solv.prm

>  <Rbt.Receptor>
prm/pocket_docking_8.prm

>  <SCORE>
-7.62419

>  <SCORE.INTER>
-8.5136

>  <SCORE.INTER.CONST>
1

>  <SCORE.INTER.POLAR>
0

>  <SCORE.INTER.ROT>
3

>  <SCORE.INTER.SOLV>
9.45983

>  <SCORE.INTER.VDW>
-14.429

>  <SCORE.INTER.norm>
-0.5321

>  <SCORE.INTRA>
0.889408

>  <SCORE.INTRA.DIHEDRAL>
1.07193

>  <SCORE.INTRA.DIHEDRAL.0>
0.00893466

>  <SCORE.INTRA.POLAR>
0

>  <SCORE.INTRA.POLAR.0>
0

>  <SCORE.INTRA.REPUL>
0

>  <SCORE.INTRA.REPUL.0>
0

>  <SCORE.INTRA.SOLV>
0.681545

>  <SCORE.INTRA.SOLV.lig_0>
-48.9722

>  <SCORE.INTRA.VDW>
0.0126715

>  <SCORE.INTRA.VDW.0>
-0.529409

>  <SCORE.INTRA.norm>
0.055588

>  <SCORE.RESTR>
0

>  <SCORE.RESTR.CAVITY>
0

>  <SCORE.RESTR.norm>
0

>  <SCORE.SYSTEM>
0

>  <SCORE.SYSTEM.CONST>
0

>  <SCORE.SYSTEM.DIHEDRAL>
0

>  <SCORE.SYSTEM.SOLV>
0

>  <SCORE.SYSTEM.norm>
0

>  <SCORE.heavy>
16

>  <SCORE.norm>
-0.476512

>  <RMSD>
4.003

$$$$
ligand
 OpenBabel11021811433D
libRbt.so/2013.1/901 2013/11/27
 16 16  0  0  0  0  0  0  0  0999 V2000
   44.7000   14.8644    7.9251 P   0  0  2  0  0  0  0  0  0  0  0  0
   45.9191   14.2795    7.3135 O   0  0  0  0  0  0  0  0  0  0  0  0
   43.5058   14.8529    6.8464 O   0  5  0  0  0  0  0  0  0  0  0  0
   45.0136   16.3839    8.3567 O   0  0  0  0  0  0  0  0  0  0  0  0
   45.9860   11.8166   13.1933 C   0  0  2  0  0  0  0  0  0  0  0  0
   45.2989   10.6062   12.8276 O   0  0  0  0  0  0  0  0  0  0  0  0
   45.1512   12.6388   14.2082 C   0  0  2  0  0  0  0  0  0  0  0  0
   44.8730   11.8282   15.3998 O   0  0  0  0  0  0  0  0  0  0  0  0
   43.8241   13.0403   13.5375 C   0  0  1  0  0  0  0  0  0  0  0  0
   43.0323   13.8086   14.4514 O   0  0  0  0  0  0  0  0  0  0  0  0
   44.1496   13.8849   12.2957 C   0  0  2  0  0  0  0  0  0  0  0  0
   42.9203   14.2653   11.6409 O   0  0  0  0  0  0  0  0  0  0  0  0
   45.0198   13.0300   11.3335 C   0  0  2  0  0  0  0  0  0  0  0  0
   46.2548   12.6283   12.0020 O   0  0  0  0  0  0  0  0  0  0  0  0
   45.3785   13.8805   10.1015 C   0  0  0  0  0  0  0  0  0  0  0  0
   44.2535   13.9938    9.2214 O   0  0  0  0  0  0  0  0  0  0  0  0
  1  2  1  6  0  0  0
  1  3  1  0  0  0  0
  1  4  2  0  0  0  0
  1 16  1  0  0  0  0
  5  6  1  6  0  0  0
  5  7  1  0  0  0  0
  5 14  1  0  0  0  0
  7  8  1  1  0  0  0
  7  9  1  0  0  0  0
  9 10  1  1  0  0  0
  9 11  1  0  0  0  0
 11 12  1  6  0  0  0
 11 13  1  0  0  0  0
 13 14  1  0  0  0  0
 13 15  1  6  0  0  0
 15 16  1  0  0  0  0
M  CHG  1   3  -1
M  END
>  <CHROM.1>
-75.86526486,-178.49500291,53.33955207,44.69241125,13.60125135,11.00659085
-1.57646503,-0.70087114,1.96643983

>  <Name>
ligand

>  <RI>
0

>  <Rbt.Current_Directory>
/home/itssahil/PROJECTS/Mol_Feturizer/New_Systems/rnas/2HO7

>  <Rbt.Executable>
rbdock ($Id: //depot/dev/client3/rdock/2013.1/src/exe/rbdock.cxx#4 $)

>  <Rbt.Library>
libRbt.so (2013.1, Build901 2013/11/27)

>  <Rbt.Parameter_File>
/export/apps/rDock/src/rDock_2013.1_src/data/scripts/dock_solv.prm

>  <Rbt.Receptor>
prm/pocket_docking_8.prm

>  <SCORE>
-7.95369

>  <SCORE.INTER>
-8.53503

>  <SCORE.INTER.CONST>
1

>  <SCORE.INTER.POLAR>
0

>  <SCORE.INTER.ROT>
3

>  <SCORE.INTER.SOLV>
15.2927

>  <SCORE.INTER.VDW>
-16.3876

>  <SCORE.INTER.norm>
-0.533439

>  <SCORE.INTRA>
0.581338

>  <SCORE.INTRA.DIHEDRAL>
0.936028

>  <SCORE.INTRA.DIHEDRAL.0>
0.00893466

>  <SCORE.INTRA.POLAR>
0

>  <SCORE.INTRA.POLAR.0>
0

>  <SCORE.INTRA.REPUL>
0

>  <SCORE.INTRA.REPUL.0>
0

>  <SCORE.INTRA.SOLV>
0.274568

>  <SCORE.INTRA.SOLV.lig_0>
-48.9722

>  <SCORE.INTRA.VDW>
-0.0239601

>  <SCORE.INTRA.VDW.0>
-0.529409

>  <SCORE.INTRA.norm>
0.0363336

>  <SCORE.RESTR>
0

>  <SCORE.RESTR.CAVITY>
0

>  <SCORE.RESTR.norm>
0

>  <SCORE.SYSTEM>
0

>  <SCORE.SYSTEM.CONST>
0

>  <SCORE.SYSTEM.DIHEDRAL>
0

>  <SCORE.SYSTEM.SOLV>
0

>  <SCORE.SYSTEM.norm>
0

>  <SCORE.heavy>
16

>  <SCORE.norm>
-0.497106

>  <RMSD>
4.013

$$$$
ligand
 OpenBabel11021811433D
libRbt.so/2013.1/901 2013/11/27
 16 16  0  0  0  0  0  0  0  0999 V2000
   44.9143   15.1422    8.2989 P   0  0  2  0  0  0  0  0  0  0  0  0
   44.5736   14.7361    6.9128 O   0  0  0  0  0  0  0  0  0  0  0  0
   44.1819   16.5338    8.6407 O   0  5  0  0  0  0  0  0  0  0  0  0
   46.5092   15.3393    8.4050 O   0  0  0  0  0  0  0  0  0  0  0  0
   45.2801   11.6408   12.8842 C   0  0  2  0  0  0  0  0  0  0  0  0
   44.2508   10.7187   12.4829 O   0  0  0  0  0  0  0  0  0  0  0  0
   44.9497   12.2698   14.2620 C   0  0  2  0  0  0  0  0  0  0  0  0
   44.7883   11.2134   15.2681 O   0  0  0  0  0  0  0  0  0  0  0  0
   43.6362   13.0639   14.1341 C   0  0  1  0  0  0  0  0  0  0  0  0
   43.3079   13.6634   15.3932 O   0  0  0  0  0  0  0  0  0  0  0  0
   43.8378   14.1586   13.0747 C   0  0  2  0  0  0  0  0  0  0  0  0
   42.6147   14.9117   12.9271 O   0  0  0  0  0  0  0  0  0  0  0  0
   44.2065   13.4777   11.7277 C   0  0  2  0  0  0  0  0  0  0  0  0
   45.4331   12.6998   11.8814 O   0  0  0  0  0  0  0  0  0  0  0  0
   44.4431   14.5697   10.6685 C   0  0  0  0  0  0  0  0  0  0  0  0
   44.4181   14.0084    9.3505 O   0  0  0  0  0  0  0  0  0  0  0  0
  1  2  1  6  0  0  0
  1  3  1  0  0  0  0
  1  4  2  0  0  0  0
  1 16  1  0  0  0  0
  5  6  1  6  0  0  0
  5  7  1  0  0  0  0
  5 14  1  0  0  0  0
  7  8  1  1  0  0  0
  7  9  1  0  0  0  0
  9 10  1  1  0  0  0
  9 11  1  0  0  0  0
 11 12  1  6  0  0  0
 11 13  1  0  0  0  0
 13 14  1  0  0  0  0
 13 15  1  6  0  0  0
 15 16  1  0  0  0  0
M  CHG  1   3  -1
M  END
>  <CHROM.1>
-163.97899075,-170.68557712,-165.29526886,44.49055485,13.75757982,11.36270336
-1.37644833,-0.99128514,2.17839089

>  <Name>
ligand

>  <RI>
0

>  <Rbt.Current_Directory>
/home/itssahil/PROJECTS/Mol_Feturizer/New_Systems/rnas/2HO7

>  <Rbt.Executable>
rbdock ($Id: //depot/dev/client3/rdock/2013.1/src/exe/rbdock.cxx#4 $)

>  <Rbt.Library>
libRbt.so (2013.1, Build901 2013/11/27)

>  <Rbt.Parameter_File>
/export/apps/rDock/src/rDock_2013.1_src/data/scripts/dock_solv.prm

>  <Rbt.Receptor>
prm/pocket_docking_5.prm

>  <SCORE>
-7.68201

>  <SCORE.INTER>
-8.88869

>  <SCORE.INTER.CONST>
1

>  <SCORE.INTER.POLAR>
0

>  <SCORE.INTER.ROT>
3

>  <SCORE.INTER.SOLV>
10.2672

>  <SCORE.INTER.VDW>
-14.9482

>  <SCORE.INTER.norm>
-0.555543

>  <SCORE.INTRA>
1.20668

>  <SCORE.INTRA.DIHEDRAL>
1.62261

>  <SCORE.INTRA.DIHEDRAL.0>
0.00893466

>  <SCORE.INTRA.POLAR>
0

>  <SCORE.INTRA.POLAR.0>
0

>  <SCORE.INTRA.REPUL>
0

>  <SCORE.INTRA.REPUL.0>
0

>  <SCORE.INTRA.SOLV>
0.671929

>  <SCORE.INTRA.SOLV.lig_0>
-48.9722

>  <SCORE.INTRA.VDW>
0.0594102

>  <SCORE.INTRA.VDW.0>
-0.529409

>  <SCORE.INTRA.norm>
0.0754176

>  <SCORE.RESTR>
0

>  <SCORE.RESTR.CAVITY>
0

>  <SCORE.RESTR.norm>
0

>  <SCORE.SYSTEM>
0

>  <SCORE.SYSTEM.CONST>
0

>  <SCORE.SYSTEM.DIHEDRAL>
0

>  <SCORE.SYSTEM.SOLV>
0

>  <SCORE.SYSTEM.norm>
0

>  <SCORE.heavy>
16

>  <SCORE.norm>
-0.480126

>  <RMSD>
4.044

$$$$
ligand
 OpenBabel11021811433D
libRbt.so/2013.1/901 2013/11/27
 16 16  0  0  0  0  0  0  0  0999 V2000
   44.5508   14.8490    7.9208 P   0  0  2  0  0  0  0  0  0  0  0  0
   43.5631   14.6168    6.8379 O   0  0  0  0  0  0  0  0  0  0  0  0
   44.5554   16.4102    8.3110 O   0  5  0  0  0  0  0  0  0  0  0  0
   46.0119   14.4282    7.3899 O   0  0  0  0  0  0  0  0  0  0  0  0
   46.0480   12.0394   13.2533 C   0  0  2  0  0  0  0  0  0  0  0  0
   45.5540   10.7480   12.8547 O   0  0  0  0  0  0  0  0  0  0  0  0
   45.0725   12.7195   14.2478 C   0  0  2  0  0  0  0  0  0  0  0  0
   44.8772   11.8615   15.4224 O   0  0  0  0  0  0  0  0  0  0  0  0
   43.7228   12.9352   13.5377 C   0  0  1  0  0  0  0  0  0  0  0  0
   42.8007   13.5695   14.4322 O   0  0  0  0  0  0  0  0  0  0  0  0
   43.9616   13.8344   12.3147 C   0  0  2  0  0  0  0  0  0  0  0  0
   42.7111   14.0431   11.6236 O   0  0  0  0  0  0  0  0  0  0  0  0
   44.9752   13.1263   11.3738 C   0  0  2  0  0  0  0  0  0  0  0  0
   46.2338   12.8973   12.0786 O   0  0  0  0  0  0  0  0  0  0  0  0
   45.2456   14.0361   10.1617 C   0  0  0  0  0  0  0  0  0  0  0  0
   44.1573   13.9749    9.2318 O   0  0  0  0  0  0  0  0  0  0  0  0
  1  2  1  6  0  0  0
  1  3  1  0  0  0  0
  1  4  2  0  0  0  0
  1 16  1  0  0  0  0
  5  6  1  6  0  0  0
  5  7  1  0  0  0  0
  5 14  1  0  0  0  0
  7  8  1  1  0  0  0
  7  9  1  0  0  0  0
  9 10  1  1  0  0  0
  9 11  1  0  0  0  0
 11 12  1  6  0  0  0
 11 13  1  0  0  0  0
 13 14  1  0  0  0  0
 13 15  1  6  0  0  0
 15 16  1  0  0  0  0
M  CHG  1   3  -1
M  END
>  <CHROM.1>
-77.18362350,-175.21169515,169.92243239,44.61070712,13.61433944,11.02526649
-1.58778437,-0.56053598,1.95233267

>  <Name>
ligand

>  <RI>
0

>  <Rbt.Current_Directory>
/home/itssahil/PROJECTS/Mol_Feturizer/New_Systems/rnas/2HO7

>  <Rbt.Executable>
rbdock ($Id: //depot/dev/client3/rdock/2013.1/src/exe/rbdock.cxx#4 $)

>  <Rbt.Library>
libRbt.so (2013.1, Build901 2013/11/27)

>  <Rbt.Parameter_File>
/export/apps/rDock/src/rDock_2013.1_src/data/scripts/dock_solv.prm

>  <Rbt.Receptor>
prm/pocket_docking_5.prm

>  <SCORE>
-8.47952

>  <SCORE.INTER>
-9.44677

>  <SCORE.INTER.CONST>
1

>  <SCORE.INTER.POLAR>
0

>  <SCORE.INTER.ROT>
3

>  <SCORE.INTER.SOLV>
14.5118

>  <SCORE.INTER.VDW>
-16.7351

>  <SCORE.INTER.norm>
-0.590423

>  <SCORE.INTRA>
0.967254

>  <SCORE.INTRA.DIHEDRAL>
1.26743

>  <SCORE.INTRA.DIHEDRAL.0>
0.00893466

>  <SCORE.INTRA.POLAR>
0

>  <SCORE.INTRA.POLAR.0>
0

>  <SCORE.INTRA.REPUL>
0

>  <SCORE.INTRA.REPUL.0>
0

>  <SCORE.INTRA.SOLV>
0.961267

>  <SCORE.INTRA.SOLV.lig_0>
-48.9722

>  <SCORE.INTRA.VDW>
-0.147095

>  <SCORE.INTRA.VDW.0>
-0.529409

>  <SCORE.INTRA.norm>
0.0604534

>  <SCORE.RESTR>
0

>  <SCORE.RESTR.CAVITY>
0

>  <SCORE.RESTR.norm>
0

>  <SCORE.SYSTEM>
0

>  <SCORE.SYSTEM.CONST>
0

>  <SCORE.SYSTEM.DIHEDRAL>
0

>  <SCORE.SYSTEM.SOLV>
0

>  <SCORE.SYSTEM.norm>
0

>  <SCORE.heavy>
16

>  <SCORE.norm>
-0.52997

>  <RMSD>
4.053

$$$$
ligand
 OpenBabel11021811433D
libRbt.so/2013.1/901 2013/11/27
 16 16  0  0  0  0  0  0  0  0999 V2000
   44.5165   14.9099    7.7375 P   0  0  2  0  0  0  0  0  0  0  0  0
   43.5565   14.6623    6.6332 O   0  0  0  0  0  0  0  0  0  0  0  0
   44.4585   16.4632    8.1545 O   0  5  0  0  0  0  0  0  0  0  0  0
   46.0006   14.5506    7.2257 O   0  0  0  0  0  0  0  0  0  0  0  0
   45.9101   12.2261   13.1801 C   0  0  2  0  0  0  0  0  0  0  0  0
   45.4639   10.9059   12.8213 O   0  0  0  0  0  0  0  0  0  0  0  0
   44.8732   12.9288   14.0934 C   0  0  2  0  0  0  0  0  0  0  0  0
   44.6399   12.1226   15.2975 O   0  0  0  0  0  0  0  0  0  0  0  0
   43.5551   13.0787   13.3108 C   0  0  1  0  0  0  0  0  0  0  0  0
   42.5775   13.7323   14.1290 O   0  0  0  0  0  0  0  0  0  0  0  0
   43.8335   13.9248   12.0586 C   0  0  2  0  0  0  0  0  0  0  0  0
   42.6137   14.0709   11.2999 O   0  0  0  0  0  0  0  0  0  0  0  0
   44.9064   13.1975   11.2019 C   0  0  2  0  0  0  0  0  0  0  0  0
   46.1341   13.0319   11.9756 O   0  0  0  0  0  0  0  0  0  0  0  0
   45.2155   14.0553    9.9615 C   0  0  0  0  0  0  0  0  0  0  0  0
   44.1317   13.9992    9.0260 O   0  0  0  0  0  0  0  0  0  0  0  0
  1  2  1  6  0  0  0
  1  3  1  0  0  0  0
  1  4  2  0  0  0  0
  1 16  1  0  0  0  0
  5  6  1  6  0  0  0
  5  7  1  0  0  0  0
  5 14  1  0  0  0  0
  7  8  1  1  0  0  0
  7  9  1  0  0  0  0
  9 10  1  1  0  0  0
  9 11  1  0  0  0  0
 11 12  1  6  0  0  0
 11 13  1  0  0  0  0
 13 14  1  0  0  0  0
 13 15  1  6  0  0  0
 15 16  1  0  0  0  0
M  CHG  1   3  -1
M  END
>  <CHROM.1>
-73.10432088,-179.57859910,168.48800464,44.51298200,13.72104190,10.84467489
-1.56607766,-0.52050009,1.94650155

>  <Name>
ligand

>  <RI>
0

>  <Rbt.Current_Directory>
/home/itssahil/PROJECTS/Mol_Feturizer/New_Systems/rnas/2HO7

>  <Rbt.Executable>
rbdock ($Id: //depot/dev/client3/rdock/2013.1/src/exe/rbdock.cxx#4 $)

>  <Rbt.Library>
libRbt.so (2013.1, Build901 2013/11/27)

>  <Rbt.Parameter_File>
/export/apps/rDock/src/rDock_2013.1_src/data/scripts/dock_solv.prm

>  <Rbt.Receptor>
prm/pocket_docking_6.prm

>  <SCORE>
-8.33029

>  <SCORE.INTER>
-9.20092

>  <SCORE.INTER.CONST>
1

>  <SCORE.INTER.POLAR>
0

>  <SCORE.INTER.ROT>
3

>  <SCORE.INTER.SOLV>
14.7332

>  <SCORE.INTER.VDW>
-16.645

>  <SCORE.INTER.norm>
-0.575057

>  <SCORE.INTRA>
0.870629

>  <SCORE.INTRA.DIHEDRAL>
0.802961

>  <SCORE.INTRA.DIHEDRAL.0>
0.00893466

>  <SCORE.INTRA.POLAR>
0

>  <SCORE.INTRA.POLAR.0>
0

>  <SCORE.INTRA.REPUL>
0

>  <SCORE.INTRA.REPUL.0>
0

>  <SCORE.INTRA.SOLV>
1.07821

>  <SCORE.INTRA.SOLV.lig_0>
-48.9722

>  <SCORE.INTRA.VDW>
-0.069955

>  <SCORE.INTRA.VDW.0>
-0.529409

>  <SCORE.INTRA.norm>
0.0544143

>  <SCORE.RESTR>
0

>  <SCORE.RESTR.CAVITY>
0

>  <SCORE.RESTR.norm>
0

>  <SCORE.SYSTEM>
0

>  <SCORE.SYSTEM.CONST>
0

>  <SCORE.SYSTEM.DIHEDRAL>
0

>  <SCORE.SYSTEM.SOLV>
0

>  <SCORE.SYSTEM.norm>
0

>  <SCORE.heavy>
16

>  <SCORE.norm>
-0.520643

>  <RMSD>
4.112

$$$$
ligand
 OpenBabel11021811433D
libRbt.so/2013.1/901 2013/11/27
 16 16  0  0  0  0  0  0  0  0999 V2000
   44.7243   14.9912    8.1381 P   0  0  2  0  0  0  0  0  0  0  0  0
   44.1540   14.6573    6.8094 O   0  0  0  0  0  0  0  0  0  0  0  0
   44.2091   16.4481    8.5873 O   0  5  0  0  0  0  0  0  0  0  0  0
   46.3307   15.0057    8.0248 O   0  0  0  0  0  0  0  0  0  0  0  0
   45.2397   11.5602   12.8039 C   0  0  2  0  0  0  0  0  0  0  0  0
   44.1790   10.6559   12.4462 O   0  0  0  0  0  0  0  0  0  0  0  0
   44.9571   12.2261   14.1750 C   0  0  2  0  0  0  0  0  0  0  0  0
   44.7935   11.1955   15.2071 O   0  0  0  0  0  0  0  0  0  0  0  0
   43.6608   13.0499   14.0600 C   0  0  1  0  0  0  0  0  0  0  0  0
   43.3769   13.6838   15.3130 O   0  0  0  0  0  0  0  0  0  0  0  0
   43.8644   14.1167   12.9729 C   0  0  2  0  0  0  0  0  0  0  0  0
   42.6570   14.8969   12.8371 O   0  0  0  0  0  0  0  0  0  0  0  0
   44.1847   13.3987   11.6328 C   0  0  2  0  0  0  0  0  0  0  0  0
   45.3951   12.5937   11.7752 O   0  0  0  0  0  0  0  0  0  0  0  0
   44.4231   14.4619   10.5452 C   0  0  0  0  0  0  0  0  0  0  0  0
   44.2496   13.8967    9.2400 O   0  0  0  0  0  0  0  0  0  0  0  0
  1  2  1  6  0  0  0
  1  3  1  0  0  0  0
  1  4  2  0  0  0  0
  1 16  1  0  0  0  0
  5  6  1  6  0  0  0
  5  7  1  0  0  0  0
  5 14  1  0  0  0  0
  7  8  1  1  0  0  0
  7  9  1  0  0  0  0
  9 10  1  1  0  0  0
  9 11  1  0  0  0  0
 11 12  1  6  0  0  0
 11 13  1  0  0  0  0
 13 14  1  0  0  0  0
 13 15  1  6  0  0  0
 15 16  1  0  0  0  0
M  CHG  1   3  -1
M  END
>  <CHROM.1>
-159.42861629,-171.71539622,-160.96186695,44.41996484,13.67012135,11.24951590
-1.42400717,-1.03249357,2.11950509

>  <Name>
ligand

>  <RI>
0

>  <Rbt.Current_Directory>
/home/itssahil/PROJECTS/Mol_Feturizer/New_Systems/rnas/2HO7

>  <Rbt.Executable>
rbdock ($Id: //depot/dev/client3/rdock/2013.1/src/exe/rbdock.cxx#4 $)

>  <Rbt.Library>
libRbt.so (2013.1, Build901 2013/11/27)

>  <Rbt.Parameter_File>
/export/apps/rDock/src/rDock_2013.1_src/data/scripts/dock_solv.prm

>  <Rbt.Receptor>
prm/pocket_docking_6.prm

>  <SCORE>
-7.58525

>  <SCORE.INTER>
-9.19008

>  <SCORE.INTER.CONST>
1

>  <SCORE.INTER.POLAR>
0

>  <SCORE.INTER.ROT>
3

>  <SCORE.INTER.SOLV>
12.1428

>  <SCORE.INTER.VDW>
-15.7743

>  <SCORE.INTER.norm>
-0.57438

>  <SCORE.INTRA>
1.60483

>  <SCORE.INTRA.DIHEDRAL>
2.25914

>  <SCORE.INTRA.DIHEDRAL.0>
0.00893466

>  <SCORE.INTRA.POLAR>
0

>  <SCORE.INTRA.POLAR.0>
0

>  <SCORE.INTRA.REPUL>
0

>  <SCORE.INTRA.REPUL.0>
0

>  <SCORE.INTRA.SOLV>
0.641231

>  <SCORE.INTRA.SOLV.lig_0>
-48.9722

>  <SCORE.INTRA.VDW>
0.154644

>  <SCORE.INTRA.VDW.0>
-0.529409

>  <SCORE.INTRA.norm>
0.100302

>  <SCORE.RESTR>
0

>  <SCORE.RESTR.CAVITY>
0

>  <SCORE.RESTR.norm>
0

>  <SCORE.SYSTEM>
0

>  <SCORE.SYSTEM.CONST>
0

>  <SCORE.SYSTEM.DIHEDRAL>
0

>  <SCORE.SYSTEM.SOLV>
0

>  <SCORE.SYSTEM.norm>
0

>  <SCORE.heavy>
16

>  <SCORE.norm>
-0.474078

>  <RMSD>
4.120

$$$$
ligand
 OpenBabel11021811433D
libRbt.so/2013.1/901 2013/11/27
 16 16  0  0  0  0  0  0  0  0999 V2000
   44.8097   13.8307    8.5542 P   0  0  2  0  0  0  0  0  0  0  0  0
   44.1933   14.2598    7.2743 O   0  0  0  0  0  0  0  0  0  0  0  0
   44.5561   14.9604    9.6719 O   0  5  0  0  0  0  0  0  0  0  0  0
   46.3942   13.6475    8.3317 O   0  0  0  0  0  0  0  0  0  0  0  0
   42.7228   13.5021   12.8077 C   0  0  2  0  0  0  0  0  0  0  0  0
   43.1640   14.8693   12.7250 O   0  0  0  0  0  0  0  0  0  0  0  0
   43.3152   12.8068   14.0602 C   0  0  2  0  0  0  0  0  0  0  0  0
   42.9298   13.5431   15.2700 O   0  0  0  0  0  0  0  0  0  0  0  0
   44.8500   12.7946   13.9321 C   0  0  1  0  0  0  0  0  0  0  0  0
   45.4265   12.1509   15.0748 O   0  0  0  0  0  0  0  0  0  0  0  0
   45.2196   12.0191   12.6580 C   0  0  2  0  0  0  0  0  0  0  0  0
   46.6556   12.0027   12.5082 O   0  0  0  0  0  0  0  0  0  0  0  0
   44.5681   12.7326   11.4413 C   0  0  2  0  0  0  0  0  0  0  0  0
   43.1168   12.7669   11.6016 O   0  0  0  0  0  0  0  0  0  0  0  0
   44.9059   11.9426   10.1639 C   0  0  0  0  0  0  0  0  0  0  0  0
   44.1479   12.4334    9.0514 O   0  0  0  0  0  0  0  0  0  0  0  0
  1  2  1  6  0  0  0
  1  3  1  0  0  0  0
  1  4  2  0  0  0  0
  1 16  1  0  0  0  0
  5  6  1  6  0  0  0
  5  7  1  0  0  0  0
  5 14  1  0  0  0  0
  7  8  1  1  0  0  0
  7  9  1  0  0  0  0
  9 10  1  1  0  0  0
  9 11  1  0  0  0  0
 11 12  1  6  0  0  0
 11 13  1  0  0  0  0
 13 14  1  0  0  0  0
 13 15  1  6  0  0  0
 15 16  1  0  0  0  0
M  CHG  1   3  -1
M  END
>  <CHROM.1>
170.42589568,76.33604120,170.90797533,44.47198405,13.21308063,11.32090261
1.41578847,0.57908792,-1.34028152

>  <Name>
ligand

>  <RI>
0

>  <Rbt.Current_Directory>
/home/itssahil/PROJECTS/Mol_Feturizer/New_Systems/rnas/2HO7

>  <Rbt.Executable>
rbdock ($Id: //depot/dev/client3/rdock/2013.1/src/exe/rbdock.cxx#4 $)

>  <Rbt.Library>
libRbt.so (2013.1, Build901 2013/11/27)

>  <Rbt.Parameter_File>
/export/apps/rDock/src/rDock_2013.1_src/data/scripts/dock_solv.prm

>  <Rbt.Receptor>
prm/pocket_docking_4.prm

>  <SCORE>
-7.40479

>  <SCORE.INTER>
-10.133

>  <SCORE.INTER.CONST>
1

>  <SCORE.INTER.POLAR>
0

>  <SCORE.INTER.ROT>
3

>  <SCORE.INTER.SOLV>
12.7902

>  <SCORE.INTER.VDW>
-16.6187

>  <SCORE.INTER.norm>
-0.63331

>  <SCORE.INTRA>
2.72817

>  <SCORE.INTRA.DIHEDRAL>
1.68959

>  <SCORE.INTRA.DIHEDRAL.0>
0.00893466

>  <SCORE.INTRA.POLAR>
0

>  <SCORE.INTRA.POLAR.0>
0

>  <SCORE.INTRA.REPUL>
0

>  <SCORE.INTRA.REPUL.0>
0

>  <SCORE.INTRA.SOLV>
4.13449

>  <SCORE.INTRA.SOLV.lig_0>
-48.9722

>  <SCORE.INTRA.VDW>
-0.18387

>  <SCORE.INTRA.VDW.0>
-0.529409

>  <SCORE.INTRA.norm>
0.170511

>  <SCORE.RESTR>
0

>  <SCORE.RESTR.CAVITY>
0

>  <SCORE.RESTR.norm>
0

>  <SCORE.SYSTEM>
0

>  <SCORE.SYSTEM.CONST>
0

>  <SCORE.SYSTEM.DIHEDRAL>
0

>  <SCORE.SYSTEM.SOLV>
0

>  <SCORE.SYSTEM.norm>
0

>  <SCORE.heavy>
16

>  <SCORE.norm>
-0.4628

>  <RMSD>
4.199

$$$$
ligand
 OpenBabel11021811433D
libRbt.so/2013.1/901 2013/11/27
 16 16  0  0  0  0  0  0  0  0999 V2000
   44.8112   13.8531    8.4882 P   0  0  2  0  0  0  0  0  0  0  0  0
   44.1880   14.2878    7.2134 O   0  0  0  0  0  0  0  0  0  0  0  0
   44.5298   14.9596    9.6223 O   0  5  0  0  0  0  0  0  0  0  0  0
   46.3998   13.7089    8.2669 O   0  0  0  0  0  0  0  0  0  0  0  0
   42.6640   13.4140   12.7186 C   0  0  2  0  0  0  0  0  0  0  0  0
   43.0398   14.8005   12.6352 O   0  0  0  0  0  0  0  0  0  0  0  0
   43.2839   12.7498   13.9747 C   0  0  2  0  0  0  0  0  0  0  0  0
   42.8590   13.4687   15.1816 O   0  0  0  0  0  0  0  0  0  0  0  0
   44.8181   12.8106   13.8525 C   0  0  1  0  0  0  0  0  0  0  0  0
   45.4201   12.1970   14.9986 O   0  0  0  0  0  0  0  0  0  0  0  0
   45.2293   12.0516   12.5812 C   0  0  2  0  0  0  0  0  0  0  0  0
   46.6650   12.1036   12.4371 O   0  0  0  0  0  0  0  0  0  0  0  0
   44.5493   12.7313   11.3607 C   0  0  2  0  0  0  0  0  0  0  0  0
   43.0974   12.6965   11.5154 O   0  0  0  0  0  0  0  0  0  0  0  0
   44.9296   11.9563   10.0860 C   0  0  0  0  0  0  0  0  0  0  0  0
   44.1798   12.4339    8.9623 O   0  0  0  0  0  0  0  0  0  0  0  0
  1  2  1  6  0  0  0
  1  3  1  0  0  0  0
  1  4  2  0  0  0  0
  1 16  1  0  0  0  0
  5  6  1  6  0  0  0
  5  7  1  0  0  0  0
  5 14  1  0  0  0  0
  7  8  1  1  0  0  0
  7  9  1  0  0  0  0
  9 10  1  1  0  0  0
  9 11  1  0  0  0  0
 11 12  1  6  0  0  0
 11 13  1  0  0  0  0
 13 14  1  0  0  0  0
 13 15  1  6  0  0  0
 15 16  1  0  0  0  0
M  CHG  1   3  -1
M  END
>  <CHROM.1>
172.02150904,76.06055479,172.05459404,44.45381325,13.21296057,11.24488889
1.40938354,0.52963383,-1.33649065

>  <Name>
ligand

>  <RI>
0

>  <Rbt.Current_Directory>
/home/itssahil/PROJECTS/Mol_Feturizer/New_Systems/rnas/2HO7

>  <Rbt.Executable>
rbdock ($Id: //depot/dev/client3/rdock/2013.1/src/exe/rbdock.cxx#4 $)

>  <Rbt.Library>
libRbt.so (2013.1, Build901 2013/11/27)

>  <Rbt.Parameter_File>
/export/apps/rDock/src/rDock_2013.1_src/data/scripts/dock_solv.prm

>  <Rbt.Receptor>
prm/pocket_docking_5.prm

>  <SCORE>
-7.42953

>  <SCORE.INTER>
-10.0745

>  <SCORE.INTER.CONST>
1

>  <SCORE.INTER.POLAR>
0

>  <SCORE.INTER.ROT>
3

>  <SCORE.INTER.SOLV>
12.9028

>  <SCORE.INTER.VDW>
-16.6173

>  <SCORE.INTER.norm>
-0.629655

>  <SCORE.INTRA>
2.64495

>  <SCORE.INTRA.DIHEDRAL>
1.52156

>  <SCORE.INTRA.DIHEDRAL.0>
0.00893466

>  <SCORE.INTRA.POLAR>
0

>  <SCORE.INTRA.POLAR.0>
0

>  <SCORE.INTRA.REPUL>
0

>  <SCORE.INTRA.REPUL.0>
0

>  <SCORE.INTRA.SOLV>
4.11925

>  <SCORE.INTRA.SOLV.lig_0>
-48.9722

>  <SCORE.INTRA.VDW>
-0.175453

>  <SCORE.INTRA.VDW.0>
-0.529409

>  <SCORE.INTRA.norm>
0.16531

>  <SCORE.RESTR>
0

>  <SCORE.RESTR.CAVITY>
0

>  <SCORE.RESTR.norm>
0

>  <SCORE.SYSTEM>
0

>  <SCORE.SYSTEM.CONST>
0

>  <SCORE.SYSTEM.DIHEDRAL>
0

>  <SCORE.SYSTEM.SOLV>
0

>  <SCORE.SYSTEM.norm>
0

>  <SCORE.heavy>
16

>  <SCORE.norm>
-0.464346

>  <RMSD>
4.203

$$$$
ligand
 OpenBabel11021811433D
libRbt.so/2013.1/901 2013/11/27
 16 16  0  0  0  0  0  0  0  0999 V2000
   44.7551   13.7378    8.5295 P   0  0  2  0  0  0  0  0  0  0  0  0
   44.1028   14.1129    7.2504 O   0  0  0  0  0  0  0  0  0  0  0  0
   44.3925   14.8320    9.6524 O   0  5  0  0  0  0  0  0  0  0  0  0
   46.3502   13.7083    8.3098 O   0  0  0  0  0  0  0  0  0  0  0  0
   42.6882   13.3444   12.7255 C   0  0  2  0  0  0  0  0  0  0  0  0
   43.0426   14.7350   12.6191 O   0  0  0  0  0  0  0  0  0  0  0  0
   43.3037   12.7151   14.0016 C   0  0  2  0  0  0  0  0  0  0  0  0
   42.8529   13.4505   15.1891 O   0  0  0  0  0  0  0  0  0  0  0  0
   44.8381   12.7986   13.8961 C   0  0  1  0  0  0  0  0  0  0  0  0
   45.4361   12.2175   15.0610 O   0  0  0  0  0  0  0  0  0  0  0  0
   45.2766   12.0217   12.6450 C   0  0  2  0  0  0  0  0  0  0  0  0
   46.7129   12.0943   12.5165 O   0  0  0  0  0  0  0  0  0  0  0  0
   44.6004   12.6662   11.4034 C   0  0  2  0  0  0  0  0  0  0  0  0
   43.1475   12.6107   11.5418 O   0  0  0  0  0  0  0  0  0  0  0  0
   45.0083   11.8727   10.1488 C   0  0  0  0  0  0  0  0  0  0  0  0
   44.2291   12.2810    9.0178 O   0  0  0  0  0  0  0  0  0  0  0  0
  1  2  1  6  0  0  0
  1  3  1  0  0  0  0
  1  4  2  0  0  0  0
  1 16  1  0  0  0  0
  5  6  1  6  0  0  0
  5  7  1  0  0  0  0
  5 14  1  0  0  0  0
  7  8  1  1  0  0  0
  7  9  1  0  0  0  0
  9 10  1  1  0  0  0
  9 11  1  0  0  0  0
 11 12  1  6  0  0  0
 11 13  1  0  0  0  0
 13 14  1  0  0  0  0
 13 15  1  6  0  0  0
 15 16  1  0  0  0  0
M  CHG  1   3  -1
M  END
>  <CHROM.1>
169.85019518,74.10247149,172.22359266,44.45258930,13.14476655,11.28327373
1.42860223,0.51720636,-1.36248596

>  <Name>
ligand

>  <RI>
0

>  <Rbt.Current_Directory>
/home/itssahil/PROJECTS/Mol_Feturizer/New_Systems/rnas/2HO7

>  <Rbt.Executable>
rbdock ($Id: //depot/dev/client3/rdock/2013.1/src/exe/rbdock.cxx#4 $)

>  <Rbt.Library>
libRbt.so (2013.1, Build901 2013/11/27)

>  <Rbt.Parameter_File>
/export/apps/rDock/src/rDock_2013.1_src/data/scripts/dock_solv.prm

>  <Rbt.Receptor>
prm/pocket_docking_4.prm

>  <SCORE>
-7.40164

>  <SCORE.INTER>
-10.2064

>  <SCORE.INTER.CONST>
1

>  <SCORE.INTER.POLAR>
0

>  <SCORE.INTER.ROT>
3

>  <SCORE.INTER.SOLV>
13.2794

>  <SCORE.INTER.VDW>
-16.8308

>  <SCORE.INTER.norm>
-0.637902

>  <SCORE.INTRA>
2.80479

>  <SCORE.INTRA.DIHEDRAL>
1.39255

>  <SCORE.INTRA.DIHEDRAL.0>
0.00893466

>  <SCORE.INTRA.POLAR>
0

>  <SCORE.INTRA.POLAR.0>
0

>  <SCORE.INTRA.REPUL>
0

>  <SCORE.INTRA.REPUL.0>
0

>  <SCORE.INTRA.SOLV>
4.36798

>  <SCORE.INTRA.SOLV.lig_0>
-48.9722

>  <SCORE.INTRA.VDW>
-0.0754795

>  <SCORE.INTRA.VDW.0>
-0.529409

>  <SCORE.INTRA.norm>
0.175299

>  <SCORE.RESTR>
0

>  <SCORE.RESTR.CAVITY>
0

>  <SCORE.RESTR.norm>
0

>  <SCORE.SYSTEM>
0

>  <SCORE.SYSTEM.CONST>
0

>  <SCORE.SYSTEM.DIHEDRAL>
0

>  <SCORE.SYSTEM.SOLV>
0

>  <SCORE.SYSTEM.norm>
0

>  <SCORE.heavy>
16

>  <SCORE.norm>
-0.462603

>  <RMSD>
4.205

$$$$
ligand
 OpenBabel11021811433D
libRbt.so/2013.1/901 2013/11/27
 16 16  0  0  0  0  0  0  0  0999 V2000
   45.1996   16.7394    9.0827 P   0  0  2  0  0  0  0  0  0  0  0  0
   46.3045   17.4450    9.7781 O   0  0  0  0  0  0  0  0  0  0  0  0
   45.6247   16.4594    7.5561 O   0  5  0  0  0  0  0  0  0  0  0  0
   43.8890   17.6749    9.1079 O   0  0  0  0  0  0  0  0  0  0  0  0
   45.4441   12.3648   12.8209 C   0  0  2  0  0  0  0  0  0  0  0  0
   44.5889   11.4441   12.1198 O   0  0  0  0  0  0  0  0  0  0  0  0
   44.9016   12.6448   14.2458 C   0  0  2  0  0  0  0  0  0  0  0  0
   44.7836   11.3864   14.9920 O   0  0  0  0  0  0  0  0  0  0  0  0
   43.5138   13.3008   14.1200 C   0  0  1  0  0  0  0  0  0  0  0  0
   42.9888   13.5778   15.4239 O   0  0  0  0  0  0  0  0  0  0  0  0
   43.6717   14.6121   13.3347 C   0  0  2  0  0  0  0  0  0  0  0  0
   42.3804   15.2424   13.1926 O   0  0  0  0  0  0  0  0  0  0  0  0
   44.2558   14.2795   11.9339 C   0  0  2  0  0  0  0  0  0  0  0  0
   45.5532   13.6241   12.0774 O   0  0  0  0  0  0  0  0  0  0  0  0
   44.4485   15.5919   11.1525 C   0  0  0  0  0  0  0  0  0  0  0  0
   44.8923   15.3237    9.8168 O   0  0  0  0  0  0  0  0  0  0  0  0
  1  2  1  1  0  0  0
  1  3  1  0  0  0  0
  1  4  2  0  0  0  0
  1 16  1  0  0  0  0
  5  6  1  6  0  0  0
  5  7  1  0  0  0  0
  5 14  1  0  0  0  0
  7  8  1  1  0  0  0
  7  9  1  0  0  0  0
  9 10  1  1  0  0  0
  9 11  1  0  0  0  0
 11 12  1  6  0  0  0
 11 13  1  0  0  0  0
 13 14  1  0  0  0  0
 13 15  1  6  0  0  0
 15 16  1  0  0  0  0
M  CHG  1   3  -1
M  END
>  <CHROM.1>
-175.68526222,-175.23505567,63.02327052,44.57772250,14.66745203,11.68055132
-1.34260241,-0.82777009,2.41749735

>  <Name>
ligand

>  <RI>
0

>  <Rbt.Current_Directory>
/home/itssahil/PROJECTS/Mol_Feturizer/New_Systems/rnas/2HO7

>  <Rbt.Executable>
rbdock ($Id: //depot/dev/client3/rdock/2013.1/src/exe/rbdock.cxx#4 $)

>  <Rbt.Library>
libRbt.so (2013.1, Build901 2013/11/27)

>  <Rbt.Parameter_File>
/export/apps/rDock/src/rDock_2013.1_src/data/scripts/dock_solv.prm

>  <Rbt.Receptor>
prm/pocket_docking_6.prm

>  <SCORE>
-5.84452

>  <SCORE.INTER>
-5.90644

>  <SCORE.INTER.CONST>
1

>  <SCORE.INTER.POLAR>
0

>  <SCORE.INTER.ROT>
3

>  <SCORE.INTER.SOLV>
9.37637

>  <SCORE.INTER.VDW>
-12.6631

>  <SCORE.INTER.norm>
-0.369153

>  <SCORE.INTRA>
0.0619234

>  <SCORE.INTRA.DIHEDRAL>
0.184142

>  <SCORE.INTRA.DIHEDRAL.0>
0.00893466

>  <SCORE.INTRA.POLAR>
0

>  <SCORE.INTRA.POLAR.0>
0

>  <SCORE.INTRA.REPUL>
0

>  <SCORE.INTRA.REPUL.0>
0

>  <SCORE.INTRA.SOLV>
0.0155833

>  <SCORE.INTRA.SOLV.lig_0>
-48.9722

>  <SCORE.INTRA.VDW>
-0.0379395

>  <SCORE.INTRA.VDW.0>
-0.529409

>  <SCORE.INTRA.norm>
0.00387021

>  <SCORE.RESTR>
0

>  <SCORE.RESTR.CAVITY>
0

>  <SCORE.RESTR.norm>
0

>  <SCORE.SYSTEM>
0

>  <SCORE.SYSTEM.CONST>
0

>  <SCORE.SYSTEM.DIHEDRAL>
0

>  <SCORE.SYSTEM.SOLV>
0

>  <SCORE.SYSTEM.norm>
0

>  <SCORE.heavy>
16

>  <SCORE.norm>
-0.365283

>  <RMSD>
4.222

$$$$
ligand
 OpenBabel11021811433D
libRbt.so/2013.1/901 2013/11/27
 16 16  0  0  0  0  0  0  0  0999 V2000
   44.7137   15.0723    7.8009 P   0  0  2  0  0  0  0  0  0  0  0  0
   43.5351   14.6608    6.9985 O   0  0  0  0  0  0  0  0  0  0  0  0
   44.4569   16.5397    8.4095 O   0  5  0  0  0  0  0  0  0  0  0  0
   46.0066   15.1120    6.8416 O   0  0  0  0  0  0  0  0  0  0  0  0
   45.7212   12.8238   12.9704 C   0  0  2  0  0  0  0  0  0  0  0  0
   45.7670   11.4282   12.6225 O   0  0  0  0  0  0  0  0  0  0  0  0
   44.6465   13.0859   14.0564 C   0  0  2  0  0  0  0  0  0  0  0  0
   44.9273   12.2713   15.2445 O   0  0  0  0  0  0  0  0  0  0  0  0
   43.2692   12.7026   13.4832 C   0  0  1  0  0  0  0  0  0  0  0  0
   42.2528   12.9407   14.4644 O   0  0  0  0  0  0  0  0  0  0  0  0
   43.0067   13.5705   12.2426 C   0  0  2  0  0  0  0  0  0  0  0  0
   41.7240   13.2220   11.6785 O   0  0  0  0  0  0  0  0  0  0  0  0
   44.1322   13.3006   11.2061 C   0  0  2  0  0  0  0  0  0  0  0  0
   45.4319   13.6344   11.7830 O   0  0  0  0  0  0  0  0  0  0  0  0
   43.8950   14.1915    9.9732 C   0  0  0  0  0  0  0  0  0  0  0  0
   44.9517   14.0257    9.0198 O   0  0  0  0  0  0  0  0  0  0  0  0
  1  2  1  6  0  0  0
  1  3  1  0  0  0  0
  1  4  2  0  0  0  0
  1 16  1  0  0  0  0
  5  6  1  6  0  0  0
  5  7  1  0  0  0  0
  5 14  1  0  0  0  0
  7  8  1  1  0  0  0
  7  9  1  0  0  0  0
  9 10  1  1  0  0  0
  9 11  1  0  0  0  0
 11 12  1  6  0  0  0
 11 13  1  0  0  0  0
 13 14  1  0  0  0  0
 13 15  1  6  0  0  0
 15 16  1  0  0  0  0
M  CHG  1   3  -1
M  END
>  <CHROM.1>
176.94868004,-175.49345328,-70.13467987,44.31320573,13.77353739,10.89035053
-1.47213665,-0.17002145,1.97352702

>  <Name>
ligand

>  <RI>
0

>  <Rbt.Current_Directory>
/home/itssahil/PROJECTS/Mol_Feturizer/New_Systems/rnas/2HO7

>  <Rbt.Executable>
rbdock ($Id: //depot/dev/client3/rdock/2013.1/src/exe/rbdock.cxx#4 $)

>  <Rbt.Library>
libRbt.so (2013.1, Build901 2013/11/27)

>  <Rbt.Parameter_File>
/export/apps/rDock/src/rDock_2013.1_src/data/scripts/dock_solv.prm

>  <Rbt.Receptor>
prm/pocket_docking_6.prm

>  <SCORE>
-8.40329

>  <SCORE.INTER>
-8.69607

>  <SCORE.INTER.CONST>
1

>  <SCORE.INTER.POLAR>
0

>  <SCORE.INTER.ROT>
3

>  <SCORE.INTER.SOLV>
14.8186

>  <SCORE.INTER.VDW>
-16.3369

>  <SCORE.INTER.norm>
-0.543505

>  <SCORE.INTRA>
0.292782

>  <SCORE.INTRA.DIHEDRAL>
0.290759

>  <SCORE.INTRA.DIHEDRAL.0>
0.00893466

>  <SCORE.INTRA.POLAR>
0

>  <SCORE.INTRA.POLAR.0>
0

>  <SCORE.INTRA.REPUL>
0

>  <SCORE.INTRA.REPUL.0>
0

>  <SCORE.INTRA.SOLV>
0.159095

>  <SCORE.INTRA.SOLV.lig_0>
-48.9722

>  <SCORE.INTRA.VDW>
0.0678552

>  <SCORE.INTRA.VDW.0>
-0.529409

>  <SCORE.INTRA.norm>
0.0182989

>  <SCORE.RESTR>
0

>  <SCORE.RESTR.CAVITY>
0

>  <SCORE.RESTR.norm>
0

>  <SCORE.SYSTEM>
0

>  <SCORE.SYSTEM.CONST>
0

>  <SCORE.SYSTEM.DIHEDRAL>
0

>  <SCORE.SYSTEM.SOLV>
0

>  <SCORE.SYSTEM.norm>
0

>  <SCORE.heavy>
16

>  <SCORE.norm>
-0.525206

>  <RMSD>
4.224

$$$$
ligand
 OpenBabel11021811433D
libRbt.so/2013.1/901 2013/11/27
 16 16  0  0  0  0  0  0  0  0999 V2000
   45.0726   14.4443    8.1822 P   0  0  2  0  0  0  0  0  0  0  0  0
   46.3912   13.8852    7.7936 O   0  0  0  0  0  0  0  0  0  0  0  0
   44.4820   15.3114    6.9620 O   0  5  0  0  0  0  0  0  0  0  0  0
   45.2703   15.3964    9.4659 O   0  0  0  0  0  0  0  0  0  0  0  0
   42.9020   13.9356   12.5347 C   0  0  2  0  0  0  0  0  0  0  0  0
   43.5231   15.2336   12.5515 O   0  0  0  0  0  0  0  0  0  0  0  0
   43.4903   13.0290   13.6460 C   0  0  2  0  0  0  0  0  0  0  0  0
   43.3118   13.6649   14.9567 O   0  0  0  0  0  0  0  0  0  0  0  0
   44.9927   12.8307   13.3704 C   0  0  1  0  0  0  0  0  0  0  0  0
   45.5636   11.9896   14.3799 O   0  0  0  0  0  0  0  0  0  0  0  0
   45.1448   12.1657   11.9935 C   0  0  2  0  0  0  0  0  0  0  0  0
   46.5473   11.9788   11.7055 O   0  0  0  0  0  0  0  0  0  0  0  0
   44.5037   13.0940   10.9252 C   0  0  2  0  0  0  0  0  0  0  0  0
   43.0895   13.2992   11.2269 O   0  0  0  0  0  0  0  0  0  0  0  0
   44.6223   12.4192    9.5465 C   0  0  0  0  0  0  0  0  0  0  0  0
   44.0375   13.2420    8.5297 O   0  0  0  0  0  0  0  0  0  0  0  0
  1  2  1  6  0  0  0
  1  3  1  0  0  0  0
  1  4  2  0  0  0  0
  1 16  1  0  0  0  0
  5  6  1  6  0  0  0
  5  7  1  0  0  0  0
  5 14  1  0  0  0  0
  7  8  1  1  0  0  0
  7  9  1  0  0  0  0
  9 10  1  1  0  0  0
  9 11  1  0  0  0  0
 11 12  1  6  0  0  0
 11 13  1  0  0  0  0
 13 14  1  0  0  0  0
 13 15  1  6  0  0  0
 15 16  1  0  0  0  0
M  CHG  1   3  -1
M  END
>  <CHROM.1>
179.80067366,77.28457504,55.69555766,44.60947859,13.58765688,10.86906593
1.38222939,0.72229307,-1.21240573

>  <Name>
ligand

>  <RI>
0

>  <Rbt.Current_Directory>
/home/itssahil/PROJECTS/Mol_Feturizer/New_Systems/rnas/2HO7

>  <Rbt.Executable>
rbdock ($Id: //depot/dev/client3/rdock/2013.1/src/exe/rbdock.cxx#4 $)

>  <Rbt.Library>
libRbt.so (2013.1, Build901 2013/11/27)

>  <Rbt.Parameter_File>
/export/apps/rDock/src/rDock_2013.1_src/data/scripts/dock_solv.prm

>  <Rbt.Receptor>
prm/pocket_docking_7.prm

>  <SCORE>
-7.03282

>  <SCORE.INTER>
-9.09808

>  <SCORE.INTER.CONST>
1

>  <SCORE.INTER.POLAR>
0

>  <SCORE.INTER.ROT>
3

>  <SCORE.INTER.SOLV>
11.5917

>  <SCORE.INTER.VDW>
-15.5293

>  <SCORE.INTER.norm>
-0.56863

>  <SCORE.INTRA>
2.06526

>  <SCORE.INTRA.DIHEDRAL>
1.3985

>  <SCORE.INTRA.DIHEDRAL.0>
0.00893466

>  <SCORE.INTRA.POLAR>
0

>  <SCORE.INTRA.POLAR.0>
0

>  <SCORE.INTRA.REPUL>
0

>  <SCORE.INTRA.REPUL.0>
0

>  <SCORE.INTRA.SOLV>
2.94024

>  <SCORE.INTRA.SOLV.lig_0>
-48.9722

>  <SCORE.INTRA.VDW>
-0.104112

>  <SCORE.INTRA.VDW.0>
-0.529409

>  <SCORE.INTRA.norm>
0.129079

>  <SCORE.RESTR>
0

>  <SCORE.RESTR.CAVITY>
0

>  <SCORE.RESTR.norm>
0

>  <SCORE.SYSTEM>
0

>  <SCORE.SYSTEM.CONST>
0

>  <SCORE.SYSTEM.DIHEDRAL>
0

>  <SCORE.SYSTEM.SOLV>
0

>  <SCORE.SYSTEM.norm>
0

>  <SCORE.heavy>
16

>  <SCORE.norm>
-0.439552

>  <RMSD>
4.279

$$$$
ligand
 OpenBabel11021811433D
libRbt.so/2013.1/901 2013/11/27
 16 16  0  0  0  0  0  0  0  0999 V2000
   44.9607   14.3386    8.0409 P   0  0  2  0  0  0  0  0  0  0  0  0
   46.3262   13.8858    7.6766 O   0  0  0  0  0  0  0  0  0  0  0  0
   44.2883   15.0720    6.7761 O   0  5  0  0  0  0  0  0  0  0  0  0
   45.0682   15.3794    9.2652 O   0  0  0  0  0  0  0  0  0  0  0  0
   42.7966   13.9139   12.3808 C   0  0  2  0  0  0  0  0  0  0  0  0
   43.3436   15.2447   12.3577 O   0  0  0  0  0  0  0  0  0  0  0  0
   43.3936   13.0932   13.5526 C   0  0  2  0  0  0  0  0  0  0  0  0
   43.1324   13.7760   14.8253 O   0  0  0  0  0  0  0  0  0  0  0  0
   44.9137   12.9690   13.3375 C   0  0  1  0  0  0  0  0  0  0  0  0
   45.4934   12.2081   14.4040 O   0  0  0  0  0  0  0  0  0  0  0  0
   45.1525   12.2526   11.9992 C   0  0  2  0  0  0  0  0  0  0  0  0
   46.5728   12.1336   11.7679 O   0  0  0  0  0  0  0  0  0  0  0  0
   44.5001   13.0938   10.8675 C   0  0  2  0  0  0  0  0  0  0  0  0
   43.0666   13.2312   11.1113 O   0  0  0  0  0  0  0  0  0  0  0  0
   44.7061   12.3657    9.5268 C   0  0  0  0  0  0  0  0  0  0  0  0
   44.0456   13.0658    8.4654 O   0  0  0  0  0  0  0  0  0  0  0  0
  1  2  1  6  0  0  0
  1  3  1  0  0  0  0
  1  4  2  0  0  0  0
  1 16  1  0  0  0  0
  5  6  1  6  0  0  0
  5  7  1  0  0  0  0
  5 14  1  0  0  0  0
  7  8  1  1  0  0  0
  7  9  1  0  0  0  0
  9 10  1  1  0  0  0
  9 11  1  0  0  0  0
 11 12  1  6  0  0  0
 11 13  1  0  0  0  0
 13 14  1  0  0  0  0
 13 15  1  6  0  0  0
 15 16  1  0  0  0  0
M  CHG  1   3  -1
M  END
>  <CHROM.1>
176.35086824,78.34942355,55.83296623,44.53092260,13.58524815,10.77566413
1.39756002,0.66366131,-1.26812050

>  <Name>
ligand

>  <RI>
0

>  <Rbt.Current_Directory>
/home/itssahil/PROJECTS/Mol_Feturizer/New_Systems/rnas/2HO7

>  <Rbt.Executable>
rbdock ($Id: //depot/dev/client3/rdock/2013.1/src/exe/rbdock.cxx#4 $)

>  <Rbt.Library>
libRbt.so (2013.1, Build901 2013/11/27)

>  <Rbt.Parameter_File>
/export/apps/rDock/src/rDock_2013.1_src/data/scripts/dock_solv.prm

>  <Rbt.Receptor>
prm/pocket_docking_7.prm

>  <SCORE>
-7.19908

>  <SCORE.INTER>
-9.29818

>  <SCORE.INTER.CONST>
1

>  <SCORE.INTER.POLAR>
0

>  <SCORE.INTER.ROT>
3

>  <SCORE.INTER.SOLV>
12.957

>  <SCORE.INTER.VDW>
-16.1178

>  <SCORE.INTER.norm>
-0.581137

>  <SCORE.INTRA>
2.0991

>  <SCORE.INTRA.DIHEDRAL>
1.606

>  <SCORE.INTRA.DIHEDRAL.0>
0.00893466

>  <SCORE.INTRA.POLAR>
0

>  <SCORE.INTRA.POLAR.0>
0

>  <SCORE.INTRA.REPUL>
0

>  <SCORE.INTRA.REPUL.0>
0

>  <SCORE.INTRA.SOLV>
2.88068

>  <SCORE.INTRA.SOLV.lig_0>
-48.9722

>  <SCORE.INTRA.VDW>
-0.144239

>  <SCORE.INTRA.VDW.0>
-0.529409

>  <SCORE.INTRA.norm>
0.131194

>  <SCORE.RESTR>
0

>  <SCORE.RESTR.CAVITY>
0

>  <SCORE.RESTR.norm>
0

>  <SCORE.SYSTEM>
0

>  <SCORE.SYSTEM.CONST>
0

>  <SCORE.SYSTEM.DIHEDRAL>
0

>  <SCORE.SYSTEM.SOLV>
0

>  <SCORE.SYSTEM.norm>
0

>  <SCORE.heavy>
16

>  <SCORE.norm>
-0.449943

>  <RMSD>
4.354

$$$$
ligand
 OpenBabel11021811433D
libRbt.so/2013.1/901 2013/11/27
 16 16  0  0  0  0  0  0  0  0999 V2000
   51.6100   12.2116    8.2031 P   0  0  2  0  0  0  0  0  0  0  0  0
   51.5990   11.9539    6.7416 O   0  0  0  0  0  0  0  0  0  0  0  0
   52.7520   13.2930    8.5440 O   0  5  0  0  0  0  0  0  0  0  0  0
   51.9347   10.8337    8.9708 O   0  0  0  0  0  0  0  0  0  0  0  0
   46.2154   14.1753    8.5037 C   0  0  2  0  0  0  0  0  0  0  0  0
   46.1289   14.3746    9.9262 O   0  0  0  0  0  0  0  0  0  0  0  0
   45.1045   13.2114    8.0140 C   0  0  2  0  0  0  0  0  0  0  0  0
   43.7855   13.7429    8.3770 O   0  0  0  0  0  0  0  0  0  0  0  0
   45.3121   11.8431    8.6901 C   0  0  1  0  0  0  0  0  0  0  0  0
   44.3018   10.9273    8.2507 O   0  0  0  0  0  0  0  0  0  0  0  0
   46.6994   11.3159    8.2917 C   0  0  2  0  0  0  0  0  0  0  0  0
   46.9238   10.0368    8.9230 O   0  0  0  0  0  0  0  0  0  0  0  0
   47.7693   12.3368    8.7682 C   0  0  2  0  0  0  0  0  0  0  0  0
   47.5311   13.6361    8.1450 O   0  0  0  0  0  0  0  0  0  0  0  0
   49.1602   11.8322    8.3432 C   0  0  0  0  0  0  0  0  0  0  0  0
   50.1696   12.7924    8.6781 O   0  0  0  0  0  0  0  0  0  0  0  0
  1  2  1  6  0  0  0
  1  3  1  0  0  0  0
  1  4  2  0  0  0  0
  1 16  1  0  0  0  0
  5  6  1  1  0  0  0
  5  7  1  0  0  0  0
  5 14  1  0  0  0  0
  7  8  1  1  0  0  0
  7  9  1  0  0  0  0
  9 10  1  6  0  0  0
  9 11  1  0  0  0  0
 11 12  1  1  0  0  0
 11 13  1  0  0  0  0
 13 14  1  0  0  0  0
 13 15  1  6  0  0  0
 15 16  1  0  0  0  0
M  CHG  1   3  -1
M  END
>  <CHROM.1>
175.81629783,-179.77457674,58.86619401,48.24500085,12.39031785,8.44679924
-0.08080134,0.04576961,0.07369545

>  <Name>
ligand

>  <RI>
0

>  <Rbt.Current_Directory>
/home/itssahil/PROJECTS/Mol_Feturizer/New_Systems/rnas/2HO7

>  <Rbt.Executable>
rbdock ($Id: //depot/dev/client3/rdock/2013.1/src/exe/rbdock.cxx#4 $)

>  <Rbt.Library>
libRbt.so (2013.1, Build901 2013/11/27)

>  <Rbt.Parameter_File>
/export/apps/rDock/src/rDock_2013.1_src/data/scripts/dock_solv.prm

>  <Rbt.Receptor>
prm/pocket_docking_6.prm

>  <SCORE>
-9.44799

>  <SCORE.INTER>
-9.49575

>  <SCORE.INTER.CONST>
1

>  <SCORE.INTER.POLAR>
-1.29904

>  <SCORE.INTER.ROT>
3

>  <SCORE.INTER.SOLV>
12.88

>  <SCORE.INTER.VDW>
-11.8937

>  <SCORE.INTER.norm>
-0.593484

>  <SCORE.INTRA>
0.04776

>  <SCORE.INTRA.DIHEDRAL>
0.0571135

>  <SCORE.INTRA.DIHEDRAL.0>
0.00893466

>  <SCORE.INTRA.POLAR>
0

>  <SCORE.INTRA.POLAR.0>
0

>  <SCORE.INTRA.REPUL>
0

>  <SCORE.INTRA.REPUL.0>
0

>  <SCORE.INTRA.SOLV>
-0.00536677

>  <SCORE.INTRA.SOLV.lig_0>
-48.9722

>  <SCORE.INTRA.VDW>
0.0218866

>  <SCORE.INTRA.VDW.0>
-0.529409

>  <SCORE.INTRA.norm>
0.002985

>  <SCORE.RESTR>
0

>  <SCORE.RESTR.CAVITY>
0

>  <SCORE.RESTR.norm>
0

>  <SCORE.SYSTEM>
0

>  <SCORE.SYSTEM.CONST>
0

>  <SCORE.SYSTEM.DIHEDRAL>
0

>  <SCORE.SYSTEM.SOLV>
0

>  <SCORE.SYSTEM.norm>
0

>  <SCORE.heavy>
16

>  <SCORE.norm>
-0.590499

>  <RMSD>
4.883

$$$$
ligand
 OpenBabel11021811433D
libRbt.so/2013.1/901 2013/11/27
 16 16  0  0  0  0  0  0  0  0999 V2000
   51.2352   10.4029    7.2426 P   0  0  2  0  0  0  0  0  0  0  0  0
   50.9437    9.4034    6.1852 O   0  0  0  0  0  0  0  0  0  0  0  0
   52.4417   11.3520    6.7595 O   0  5  0  0  0  0  0  0  0  0  0  0
   51.6722    9.6269    8.5844 O   0  0  0  0  0  0  0  0  0  0  0  0
   45.4940   12.0031    8.4944 C   0  0  2  0  0  0  0  0  0  0  0  0
   45.8243   13.4028    8.4448 O   0  0  0  0  0  0  0  0  0  0  0  0
   45.1691   11.5648    9.9454 C   0  0  2  0  0  0  0  0  0  0  0  0
   44.0629   12.3708   10.4753 O   0  0  0  0  0  0  0  0  0  0  0  0
   46.4237   11.7789   10.8129 C   0  0  1  0  0  0  0  0  0  0  0  0
   46.1551   11.3755   12.1610 O   0  0  0  0  0  0  0  0  0  0  0  0
   47.5610   10.9243   10.2320 C   0  0  2  0  0  0  0  0  0  0  0  0
   48.7543   11.1162   11.0220 O   0  0  0  0  0  0  0  0  0  0  0  0
   47.8169   11.3755    8.7674 C   0  0  2  0  0  0  0  0  0  0  0  0
   46.6043   11.2000    7.9724 O   0  0  0  0  0  0  0  0  0  0  0  0
   48.9328   10.5013    8.1670 C   0  0  0  0  0  0  0  0  0  0  0  0
   49.9217   11.3155    7.5250 O   0  0  0  0  0  0  0  0  0  0  0  0
  1  2  1  6  0  0  0
  1  3  1  0  0  0  0
  1  4  2  0  0  0  0
  1 16  1  0  0  0  0
  5  6  1  1  0  0  0
  5  7  1  0  0  0  0
  5 14  1  0  0  0  0
  7  8  1  1  0  0  0
  7  9  1  0  0  0  0
  9 10  1  1  0  0  0
  9 11  1  0  0  0  0
 11 12  1  1  0  0  0
 11 13  1  0  0  0  0
 13 14  1  0  0  0  0
 13 15  1  6  0  0  0
 15 16  1  0  0  0  0
M  CHG  1   3  -1
M  END
>  <CHROM.1>
-131.54528252,166.04706167,69.78320197,48.33557864,11.17150724,8.78864006
0.40675738,0.34702487,-1.39714144

>  <Name>
ligand

>  <RI>
0

>  <Rbt.Current_Directory>
/home/itssahil/PROJECTS/Mol_Feturizer/New_Systems/rnas/2HO7

>  <Rbt.Executable>
rbdock ($Id: //depot/dev/client3/rdock/2013.1/src/exe/rbdock.cxx#4 $)

>  <Rbt.Library>
libRbt.so (2013.1, Build901 2013/11/27)

>  <Rbt.Parameter_File>
/export/apps/rDock/src/rDock_2013.1_src/data/scripts/dock_solv.prm

>  <Rbt.Receptor>
prm/pocket_docking_6.prm

>  <SCORE>
-7.96833

>  <SCORE.INTER>
-10.9672

>  <SCORE.INTER.CONST>
1

>  <SCORE.INTER.POLAR>
-2.33558

>  <SCORE.INTER.ROT>
3

>  <SCORE.INTER.SOLV>
13.3934

>  <SCORE.INTER.VDW>
-9.59067

>  <SCORE.INTER.norm>
-0.68545

>  <SCORE.INTRA>
2.99888

>  <SCORE.INTRA.DIHEDRAL>
5.87411

>  <SCORE.INTRA.DIHEDRAL.0>
0.00893466

>  <SCORE.INTRA.POLAR>
0

>  <SCORE.INTRA.POLAR.0>
0

>  <SCORE.INTRA.REPUL>
0

>  <SCORE.INTRA.REPUL.0>
0

>  <SCORE.INTRA.SOLV>
0.322013

>  <SCORE.INTRA.SOLV.lig_0>
-48.9722

>  <SCORE.INTRA.VDW>
-0.0991854

>  <SCORE.INTRA.VDW.0>
-0.529409

>  <SCORE.INTRA.norm>
0.18743

>  <SCORE.RESTR>
0

>  <SCORE.RESTR.CAVITY>
0

>  <SCORE.RESTR.norm>
0

>  <SCORE.SYSTEM>
0

>  <SCORE.SYSTEM.CONST>
0

>  <SCORE.SYSTEM.DIHEDRAL>
0

>  <SCORE.SYSTEM.SOLV>
0

>  <SCORE.SYSTEM.norm>
0

>  <SCORE.heavy>
16

>  <SCORE.norm>
-0.498021

>  <RMSD>
4.998

$$$$
ligand
 OpenBabel11021811433D
libRbt.so/2013.1/901 2013/11/27
 16 16  0  0  0  0  0  0  0  0999 V2000
   49.2676    8.7683    7.4197 P   0  0  2  0  0  0  0  0  0  0  0  0
   49.9907    8.7704    6.1238 O   0  0  0  0  0  0  0  0  0  0  0  0
   50.3310    8.8788    8.6225 O   0  5  0  0  0  0  0  0  0  0  0  0
   48.4505    7.3872    7.5560 O   0  0  0  0  0  0  0  0  0  0  0  0
   44.8951   12.5715    8.1561 C   0  0  2  0  0  0  0  0  0  0  0  0
   45.7043   13.7429    7.9469 O   0  0  0  0  0  0  0  0  0  0  0  0
   44.2501   12.5920    9.5655 C   0  0  2  0  0  0  0  0  0  0  0  0
   43.4432   13.8071    9.7284 O   0  0  0  0  0  0  0  0  0  0  0  0
   45.3747   12.5760   10.6178 C   0  0  1  0  0  0  0  0  0  0  0  0
   44.8075   12.5879   11.9333 O   0  0  0  0  0  0  0  0  0  0  0  0
   46.1997   11.2948   10.4197 C   0  0  2  0  0  0  0  0  0  0  0  0
   47.2698   11.2611   11.3885 O   0  0  0  0  0  0  0  0  0  0  0  0
   46.7873   11.3054    8.9815 C   0  0  2  0  0  0  0  0  0  0  0  0
   45.7059   11.3594    8.0013 O   0  0  0  0  0  0  0  0  0  0  0  0
   47.5881   10.0088    8.7634 C   0  0  0  0  0  0  0  0  0  0  0  0
   48.2498   10.0317    7.4927 O   0  0  0  0  0  0  0  0  0  0  0  0
  1  2  1  6  0  0  0
  1  3  1  0  0  0  0
  1  4  2  0  0  0  0
  1 16  1  0  0  0  0
  5  6  1  1  0  0  0
  5  7  1  0  0  0  0
  5 14  1  0  0  0  0
  7  8  1  6  0  0  0
  7  9  1  0  0  0  0
  9 10  1  1  0  0  0
  9 11  1  0  0  0  0
 11 12  1  1  0  0  0
 11 13  1  0  0  0  0
 13 14  1  0  0  0  0
 13 15  1  6  0  0  0
 15 16  1  0  0  0  0
M  CHG  1   3  -1
M  END
>  <CHROM.1>
-174.71033054,170.68174834,-179.04611427,46.98496653,10.87291986,8.79577506
0.36753499,0.75236096,-1.53958995

>  <Name>
ligand

>  <RI>
0

>  <Rbt.Current_Directory>
/home/itssahil/PROJECTS/Mol_Feturizer/New_Systems/rnas/2HO7

>  <Rbt.Executable>
rbdock ($Id: //depot/dev/client3/rdock/2013.1/src/exe/rbdock.cxx#4 $)

>  <Rbt.Library>
libRbt.so (2013.1, Build901 2013/11/27)

>  <Rbt.Parameter_File>
/export/apps/rDock/src/rDock_2013.1_src/data/scripts/dock_solv.prm

>  <Rbt.Receptor>
prm/pocket_docking_7.prm

>  <SCORE>
-9.23491

>  <SCORE.INTER>
-9.72224

>  <SCORE.INTER.CONST>
1

>  <SCORE.INTER.POLAR>
-1.2984

>  <SCORE.INTER.ROT>
3

>  <SCORE.INTER.SOLV>
14.0614

>  <SCORE.INTER.VDW>
-12.4406

>  <SCORE.INTER.norm>
-0.60764

>  <SCORE.INTRA>
0.487326

>  <SCORE.INTRA.DIHEDRAL>
0.512863

>  <SCORE.INTRA.DIHEDRAL.0>
0.00893466

>  <SCORE.INTRA.POLAR>
0

>  <SCORE.INTRA.POLAR.0>
0

>  <SCORE.INTRA.REPUL>
0

>  <SCORE.INTRA.REPUL.0>
0

>  <SCORE.INTRA.SOLV>
0.627624

>  <SCORE.INTRA.SOLV.lig_0>
-48.9722

>  <SCORE.INTRA.VDW>
-0.0829176

>  <SCORE.INTRA.VDW.0>
-0.529409

>  <SCORE.INTRA.norm>
0.0304579

>  <SCORE.RESTR>
0

>  <SCORE.RESTR.CAVITY>
0

>  <SCORE.RESTR.norm>
0

>  <SCORE.SYSTEM>
0

>  <SCORE.SYSTEM.CONST>
0

>  <SCORE.SYSTEM.DIHEDRAL>
0

>  <SCORE.SYSTEM.SOLV>
0

>  <SCORE.SYSTEM.norm>
0

>  <SCORE.heavy>
16

>  <SCORE.norm>
-0.577182

>  <RMSD>
5.105

$$$$
ligand
 OpenBabel11021811433D
libRbt.so/2013.1/901 2013/11/27
 16 16  0  0  0  0  0  0  0  0999 V2000
   42.9245   17.2821   12.7012 P   0  0  2  0  0  0  0  0  0  0  0  0
   42.4349   17.6096   14.0633 O   0  0  0  0  0  0  0  0  0  0  0  0
   43.8801   18.4675   12.1801 O   0  5  0  0  0  0  0  0  0  0  0  0
   41.6596   17.1445   11.7140 O   0  0  0  0  0  0  0  0  0  0  0  0
   45.3544   12.1687   14.1491 C   0  0  2  0  0  0  0  0  0  0  0  0
   46.0391   11.9783   12.8979 O   0  0  0  0  0  0  0  0  0  0  0  0
   44.3639   11.0069   14.4175 C   0  0  2  0  0  0  0  0  0  0  0  0
   45.0824    9.7271   14.4169 O   0  0  0  0  0  0  0  0  0  0  0  0
   43.3027   11.0020   13.3011 C   0  0  1  0  0  0  0  0  0  0  0  0
   42.3674    9.9404   13.5264 O   0  0  0  0  0  0  0  0  0  0  0  0
   42.5710   12.3530   13.3279 C   0  0  2  0  0  0  0  0  0  0  0  0
   41.5765   12.3785   12.2814 O   0  0  0  0  0  0  0  0  0  0  0  0
   43.6132   13.4817   13.0961 C   0  0  2  0  0  0  0  0  0  0  0  0
   44.6305   13.4440   14.1435 O   0  0  0  0  0  0  0  0  0  0  0  0
   42.8932   14.8412   13.1548 C   0  0  0  0  0  0  0  0  0  0  0  0
   43.7672   15.8941   12.7300 O   0  0  0  0  0  0  0  0  0  0  0  0
  1  2  1  1  0  0  0
  1  3  1  0  0  0  0
  1  4  2  0  0  0  0
  1 16  1  0  0  0  0
  5  6  1  6  0  0  0
  5  7  1  0  0  0  0
  5 14  1  0  0  0  0
  7  8  1  6  0  0  0
  7  9  1  0  0  0  0
  9 10  1  1  0  0  0
  9 11  1  0  0  0  0
 11 12  1  6  0  0  0
 11 13  1  0  0  0  0
 13 14  1  0  0  0  0
 13 15  1  1  0  0  0
 15 16  1  0  0  0  0
M  CHG  1   3  -1
M  END
>  <CHROM.1>
-170.47498621,175.64765737,61.86328658,43.47980459,13.97155059,13.20080505
-1.75997271,0.26848953,3.02504746

>  <Name>
ligand

>  <RI>
0

>  <Rbt.Current_Directory>
/home/itssahil/PROJECTS/Mol_Feturizer/New_Systems/rnas/2HO7

>  <Rbt.Executable>
rbdock ($Id: //depot/dev/client3/rdock/2013.1/src/exe/rbdock.cxx#4 $)

>  <Rbt.Library>
libRbt.so (2013.1, Build901 2013/11/27)

>  <Rbt.Parameter_File>
/export/apps/rDock/src/rDock_2013.1_src/data/scripts/dock_solv.prm

>  <Rbt.Receptor>
prm/pocket_docking_7.prm

>  <SCORE>
-9.46342

>  <SCORE.INTER>
-9.64411

>  <SCORE.INTER.CONST>
1

>  <SCORE.INTER.POLAR>
0

>  <SCORE.INTER.ROT>
3

>  <SCORE.INTER.SOLV>
15.5039

>  <SCORE.INTER.VDW>
-17.1974

>  <SCORE.INTER.norm>
-0.602757

>  <SCORE.INTRA>
0.180693

>  <SCORE.INTRA.DIHEDRAL>
0.41064

>  <SCORE.INTRA.DIHEDRAL.0>
0.00893466

>  <SCORE.INTRA.POLAR>
0

>  <SCORE.INTRA.POLAR.0>
0

>  <SCORE.INTRA.REPUL>
0

>  <SCORE.INTRA.REPUL.0>
0

>  <SCORE.INTRA.SOLV>
-0.0179793

>  <SCORE.INTRA.SOLV.lig_0>
-48.9722

>  <SCORE.INTRA.VDW>
-0.0156377

>  <SCORE.INTRA.VDW.0>
-0.529409

>  <SCORE.INTRA.norm>
0.0112933

>  <SCORE.RESTR>
0

>  <SCORE.RESTR.CAVITY>
0

>  <SCORE.RESTR.norm>
0

>  <SCORE.SYSTEM>
0

>  <SCORE.SYSTEM.CONST>
0

>  <SCORE.SYSTEM.DIHEDRAL>
0

>  <SCORE.SYSTEM.SOLV>
0

>  <SCORE.SYSTEM.norm>
0

>  <SCORE.heavy>
16

>  <SCORE.norm>
-0.591464

>  <RMSD>
5.153

$$$$
ligand
 OpenBabel11021811433D
libRbt.so/2013.1/901 2013/11/27
 16 16  0  0  0  0  0  0  0  0999 V2000
   50.5537   16.0091    8.1965 P   0  0  2  0  0  0  0  0  0  0  0  0
   50.9371   15.5708    6.8315 O   0  0  0  0  0  0  0  0  0  0  0  0
   50.3881   17.6098    8.2142 O   0  5  0  0  0  0  0  0  0  0  0  0
   51.7172   15.5824    9.2249 O   0  0  0  0  0  0  0  0  0  0  0  0
   45.6470   13.0625    8.2216 C   0  0  2  0  0  0  0  0  0  0  0  0
   45.1864   13.3601    9.5520 O   0  0  0  0  0  0  0  0  0  0  0  0
   45.7639   11.5315    8.0086 C   0  0  2  0  0  0  0  0  0  0  0  0
   44.4663   10.8918    8.2559 O   0  0  0  0  0  0  0  0  0  0  0  0
   46.8071   10.9788    8.9978 C   0  0  1  0  0  0  0  0  0  0  0  0
   46.9417    9.5637    8.8196 O   0  0  0  0  0  0  0  0  0  0  0  0
   48.1508   11.6680    8.7138 C   0  0  2  0  0  0  0  0  0  0  0  0
   49.1453   11.1749    9.6372 O   0  0  0  0  0  0  0  0  0  0  0  0
   47.9675   13.1995    8.9007 C   0  0  2  0  0  0  0  0  0  0  0  0
   46.9476   13.6957    7.9805 O   0  0  0  0  0  0  0  0  0  0  0  0
   49.3013   13.9007    8.5854 C   0  0  0  0  0  0  0  0  0  0  0  0
   49.1454   15.3245    8.6273 O   0  0  0  0  0  0  0  0  0  0  0  0
  1  2  1  6  0  0  0
  1  3  1  0  0  0  0
  1  4  2  0  0  0  0
  1 16  1  0  0  0  0
  5  6  1  1  0  0  0
  5  7  1  0  0  0  0
  5 14  1  0  0  0  0
  7  8  1  1  0  0  0
  7  9  1  0  0  0  0
  9 10  1  6  0  0  0
  9 11  1  0  0  0  0
 11 12  1  1  0  0  0
 11 13  1  0  0  0  0
 13 14  1  0  0  0  0
 13 15  1  6  0  0  0
 15 16  1  0  0  0  0
M  CHG  1   3  -1
M  END
>  <CHROM.1>
174.76134696,-176.46280324,59.10392410,48.27398019,13.54647226,8.52575626
0.80435075,-0.08575499,-0.17714012

>  <Name>
ligand

>  <RI>
0

>  <Rbt.Current_Directory>
/home/itssahil/PROJECTS/Mol_Feturizer/New_Systems/rnas/2HO7

>  <Rbt.Executable>
rbdock ($Id: //depot/dev/client3/rdock/2013.1/src/exe/rbdock.cxx#4 $)

>  <Rbt.Library>
libRbt.so (2013.1, Build901 2013/11/27)

>  <Rbt.Parameter_File>
/export/apps/rDock/src/rDock_2013.1_src/data/scripts/dock_solv.prm

>  <Rbt.Receptor>
prm/pocket_docking_7.prm

>  <SCORE>
-8.23559

>  <SCORE.INTER>
-8.3153

>  <SCORE.INTER.CONST>
1

>  <SCORE.INTER.POLAR>
-1.03865

>  <SCORE.INTER.ROT>
3

>  <SCORE.INTER.SOLV>
10.1307

>  <SCORE.INTER.VDW>
-11.0583

>  <SCORE.INTER.norm>
-0.519706

>  <SCORE.INTRA>
0.0797049

>  <SCORE.INTRA.DIHEDRAL>
0.153299

>  <SCORE.INTRA.DIHEDRAL.0>
0.00893466

>  <SCORE.INTRA.POLAR>
0

>  <SCORE.INTRA.POLAR.0>
0

>  <SCORE.INTRA.REPUL>
0

>  <SCORE.INTRA.REPUL.0>
0

>  <SCORE.INTRA.SOLV>
0.0027578

>  <SCORE.INTRA.SOLV.lig_0>
-48.9722

>  <SCORE.INTRA.VDW>
0.00167621

>  <SCORE.INTRA.VDW.0>
-0.529409

>  <SCORE.INTRA.norm>
0.00498155

>  <SCORE.RESTR>
0

>  <SCORE.RESTR.CAVITY>
0

>  <SCORE.RESTR.norm>
0

>  <SCORE.SYSTEM>
0

>  <SCORE.SYSTEM.CONST>
0

>  <SCORE.SYSTEM.DIHEDRAL>
0

>  <SCORE.SYSTEM.SOLV>
0

>  <SCORE.SYSTEM.norm>
0

>  <SCORE.heavy>
16

>  <SCORE.norm>
-0.514724

>  <RMSD>
5.175

$$$$
ligand
 OpenBabel11021811433D
libRbt.so/2013.1/901 2013/11/27
 16 16  0  0  0  0  0  0  0  0999 V2000
   50.2278    8.3056    8.1208 P   0  0  2  0  0  0  0  0  0  0  0  0
   50.1622    8.3594    6.6393 O   0  0  0  0  0  0  0  0  0  0  0  0
   51.7686    8.2938    8.5851 O   0  5  0  0  0  0  0  0  0  0  0  0
   49.5094    6.9548    8.6236 O   0  0  0  0  0  0  0  0  0  0  0  0
   45.3935   12.2052    8.4500 C   0  0  2  0  0  0  0  0  0  0  0  0
   46.0933   13.3428    7.9145 O   0  0  0  0  0  0  0  0  0  0  0  0
   45.2439   12.3245    9.9883 C   0  0  2  0  0  0  0  0  0  0  0  0
   44.5378   13.5657   10.3272 O   0  0  0  0  0  0  0  0  0  0  0  0
   46.6504   12.3446   10.6158 C   0  0  1  0  0  0  0  0  0  0  0  0
   46.5438   12.4479   12.0407 O   0  0  0  0  0  0  0  0  0  0  0  0
   47.3621   11.0350   10.2420 C   0  0  2  0  0  0  0  0  0  0  0  0
   48.6897   11.0338   10.8097 O   0  0  0  0  0  0  0  0  0  0  0  0
   47.4480   10.9464    8.6932 C   0  0  2  0  0  0  0  0  0  0  0  0
   46.1060   10.9673    8.1173 O   0  0  0  0  0  0  0  0  0  0  0  0
   48.1301    9.6207    8.3094 C   0  0  0  0  0  0  0  0  0  0  0  0
   49.4904    9.6041    8.7594 O   0  0  0  0  0  0  0  0  0  0  0  0
  1  2  1  6  0  0  0
  1  3  1  0  0  0  0
  1  4  2  0  0  0  0
  1 16  1  0  0  0  0
  5  6  1  1  0  0  0
  5  7  1  0  0  0  0
  5 14  1  0  0  0  0
  7  8  1  6  0  0  0
  7  9  1  0  0  0  0
  9 10  1  1  0  0  0
  9 11  1  0  0  0  0
 11 12  1  1  0  0  0
 11 13  1  0  0  0  0
 13 14  1  0  0  0  0
 13 15  1  1  0  0  0
 15 16  1  0  0  0  0
M  CHG  1   3  -1
M  END
>  <CHROM.1>
-65.07675220,-170.72697197,58.55384420,47.93062116,10.51397994,9.05930278
0.47134605,0.68219376,-1.86611644

>  <Name>
ligand

>  <RI>
0

>  <Rbt.Current_Directory>
/home/itssahil/PROJECTS/Mol_Feturizer/New_Systems/rnas/2HO7

>  <Rbt.Executable>
rbdock ($Id: //depot/dev/client3/rdock/2013.1/src/exe/rbdock.cxx#4 $)

>  <Rbt.Library>
libRbt.so (2013.1, Build901 2013/11/27)

>  <Rbt.Parameter_File>
/export/apps/rDock/src/rDock_2013.1_src/data/scripts/dock_solv.prm

>  <Rbt.Receptor>
prm/pocket_docking_7.prm

>  <SCORE>
-9.32003

>  <SCORE.INTER>
-9.91802

>  <SCORE.INTER.CONST>
1

>  <SCORE.INTER.POLAR>
-2.07781

>  <SCORE.INTER.ROT>
3

>  <SCORE.INTER.SOLV>
15.7727

>  <SCORE.INTER.VDW>
-10.5435

>  <SCORE.INTER.norm>
-0.619877

>  <SCORE.INTRA>
0.597999

>  <SCORE.INTRA.DIHEDRAL>
0.503986

>  <SCORE.INTRA.DIHEDRAL.0>
0.00893466

>  <SCORE.INTRA.POLAR>
0

>  <SCORE.INTRA.POLAR.0>
0

>  <SCORE.INTRA.REPUL>
0

>  <SCORE.INTRA.REPUL.0>
0

>  <SCORE.INTRA.SOLV>
0.34104

>  <SCORE.INTRA.SOLV.lig_0>
-48.9722

>  <SCORE.INTRA.VDW>
0.175486

>  <SCORE.INTRA.VDW.0>
-0.529409

>  <SCORE.INTRA.norm>
0.0373749

>  <SCORE.RESTR>
0

>  <SCORE.RESTR.CAVITY>
0

>  <SCORE.RESTR.norm>
0

>  <SCORE.SYSTEM>
0

>  <SCORE.SYSTEM.CONST>
0

>  <SCORE.SYSTEM.DIHEDRAL>
0

>  <SCORE.SYSTEM.SOLV>
0

>  <SCORE.SYSTEM.norm>
0

>  <SCORE.heavy>
16

>  <SCORE.norm>
-0.582502

>  <RMSD>
5.304

$$$$
ligand
 OpenBabel11021811433D
libRbt.so/2013.1/901 2013/11/27
 16 16  0  0  0  0  0  0  0  0999 V2000
   41.9176   16.9428   11.8398 P   0  0  2  0  0  0  0  0  0  0  0  0
   41.8029   17.6439   13.1427 O   0  0  0  0  0  0  0  0  0  0  0  0
   42.9716   17.7230   10.9070 O   0  5  0  0  0  0  0  0  0  0  0  0
   40.4749   16.9374   11.1243 O   0  0  0  0  0  0  0  0  0  0  0  0
   43.5484   12.0013   14.2060 C   0  0  2  0  0  0  0  0  0  0  0  0
   44.7309   12.0219   15.0258 O   0  0  0  0  0  0  0  0  0  0  0  0
   43.7870   11.1761   12.9156 C   0  0  2  0  0  0  0  0  0  0  0  0
   44.1920    9.8092   13.2640 O   0  0  0  0  0  0  0  0  0  0  0  0
   44.9063   11.8533   12.1026 C   0  0  1  0  0  0  0  0  0  0  0  0
   45.1450   11.1150   10.8983 O   0  0  0  0  0  0  0  0  0  0  0  0
   44.4524   13.2798   11.7557 C   0  0  2  0  0  0  0  0  0  0  0  0
   45.4910   13.9416   11.0018 O   0  0  0  0  0  0  0  0  0  0  0  0
   44.1879   14.0478   13.0801 C   0  0  2  0  0  0  0  0  0  0  0  0
   43.1512   13.3680   13.8523 O   0  0  0  0  0  0  0  0  0  0  0  0
   43.7005   15.4681   12.7409 C   0  0  0  0  0  0  0  0  0  0  0  0
   42.4358   15.4208   12.0690 O   0  0  0  0  0  0  0  0  0  0  0  0
  1  2  1  1  0  0  0
  1  3  1  0  0  0  0
  1  4  2  0  0  0  0
  1 16  1  0  0  0  0
  5  6  1  6  0  0  0
  5  7  1  0  0  0  0
  5 14  1  0  0  0  0
  7  8  1  1  0  0  0
  7  9  1  0  0  0  0
  9 10  1  6  0  0  0
  9 11  1  0  0  0  0
 11 12  1  1  0  0  0
 11 13  1  0  0  0  0
 13 14  1  0  0  0  0
 13 15  1  6  0  0  0
 15 16  1  0  0  0  0
M  CHG  1   3  -1
M  END
>  <CHROM.1>
64.65197756,175.66508442,-58.31415692,43.42191019,14.17296338,12.43625107
2.31835089,0.93606402,-0.83952608

>  <Name>
ligand

>  <RI>
0

>  <Rbt.Current_Directory>
/home/itssahil/PROJECTS/Mol_Feturizer/New_Systems/rnas/2HO7

>  <Rbt.Executable>
rbdock ($Id: //depot/dev/client3/rdock/2013.1/src/exe/rbdock.cxx#4 $)

>  <Rbt.Library>
libRbt.so (2013.1, Build901 2013/11/27)

>  <Rbt.Parameter_File>
/export/apps/rDock/src/rDock_2013.1_src/data/scripts/dock_solv.prm

>  <Rbt.Receptor>
prm/pocket_docking_8.prm

>  <SCORE>
-7.48819

>  <SCORE.INTER>
-7.587

>  <SCORE.INTER.CONST>
1

>  <SCORE.INTER.POLAR>
0

>  <SCORE.INTER.ROT>
3

>  <SCORE.INTER.SOLV>
15.1179

>  <SCORE.INTER.VDW>
-15.6973

>  <SCORE.INTER.norm>
-0.474188

>  <SCORE.INTRA>
0.0988155

>  <SCORE.INTRA.DIHEDRAL>
0.16562

>  <SCORE.INTRA.DIHEDRAL.0>
0.00893466

>  <SCORE.INTRA.POLAR>
0

>  <SCORE.INTRA.POLAR.0>
0

>  <SCORE.INTRA.REPUL>
0

>  <SCORE.INTRA.REPUL.0>
0

>  <SCORE.INTRA.SOLV>
0.216443

>  <SCORE.INTRA.SOLV.lig_0>
-48.9722

>  <SCORE.INTRA.VDW>
-0.0922159

>  <SCORE.INTRA.VDW.0>
-0.529409

>  <SCORE.INTRA.norm>
0.00617597

>  <SCORE.RESTR>
0

>  <SCORE.RESTR.CAVITY>
0

>  <SCORE.RESTR.norm>
0

>  <SCORE.SYSTEM>
0

>  <SCORE.SYSTEM.CONST>
0

>  <SCORE.SYSTEM.DIHEDRAL>
0

>  <SCORE.SYSTEM.SOLV>
0

>  <SCORE.SYSTEM.norm>
0

>  <SCORE.heavy>
16

>  <SCORE.norm>
-0.468012

>  <RMSD>
5.326

$$$$
ligand
 OpenBabel11021811433D
libRbt.so/2013.1/901 2013/11/27
 16 16  0  0  0  0  0  0  0  0999 V2000
   49.6455    7.7363    8.1215 P   0  0  2  0  0  0  0  0  0  0  0  0
   50.0081    7.8133    6.6846 O   0  0  0  0  0  0  0  0  0  0  0  0
   50.8964    8.2174    9.0124 O   0  5  0  0  0  0  0  0  0  0  0  0
   49.2881    6.2088    8.4857 O   0  0  0  0  0  0  0  0  0  0  0  0
   45.3072   11.5868    8.4591 C   0  0  2  0  0  0  0  0  0  0  0  0
   45.5909   12.9342    8.0410 O   0  0  0  0  0  0  0  0  0  0  0  0
   45.1791   11.5040   10.0017 C   0  0  2  0  0  0  0  0  0  0  0  0
   44.1270   12.4160   10.4657 O   0  0  0  0  0  0  0  0  0  0  0  0
   46.5266   11.9122   10.6264 C   0  0  1  0  0  0  0  0  0  0  0  0
   46.4405   11.8389   12.0545 O   0  0  0  0  0  0  0  0  0  0  0  0
   47.6045   10.9407   10.1207 C   0  0  2  0  0  0  0  0  0  0  0  0
   48.8819   11.3093   10.6837 O   0  0  0  0  0  0  0  0  0  0  0  0
   47.6621   11.0331    8.5708 C   0  0  2  0  0  0  0  0  0  0  0  0
   46.3644   10.6793    8.0015 O   0  0  0  0  0  0  0  0  0  0  0  0
   48.7168   10.0381    8.0536 C   0  0  0  0  0  0  0  0  0  0  0  0
   48.3735    8.6984    8.4282 O   0  0  0  0  0  0  0  0  0  0  0  0
  1  2  1  6  0  0  0
  1  3  1  0  0  0  0
  1  4  2  0  0  0  0
  1 16  1  0  0  0  0
  5  6  1  1  0  0  0
  5  7  1  0  0  0  0
  5 14  1  0  0  0  0
  7  8  1  1  0  0  0
  7  9  1  0  0  0  0
  9 10  1  1  0  0  0
  9 11  1  0  0  0  0
 11 12  1  1  0  0  0
 11 13  1  0  0  0  0
 13 14  1  0  0  0  0
 13 15  1  6  0  0  0
 15 16  1  0  0  0  0
M  CHG  1   3  -1
M  END
>  <CHROM.1>
60.31120078,-168.97520398,-58.22354225,47.71681478,10.09090620,9.03702485
0.56838960,0.67191378,-1.96521633

>  <Name>
ligand

>  <RI>
0

>  <Rbt.Current_Directory>
/home/itssahil/PROJECTS/Mol_Feturizer/New_Systems/rnas/2HO7

>  <Rbt.Executable>
rbdock ($Id: //depot/dev/client3/rdock/2013.1/src/exe/rbdock.cxx#4 $)

>  <Rbt.Library>
libRbt.so (2013.1, Build901 2013/11/27)

>  <Rbt.Parameter_File>
/export/apps/rDock/src/rDock_2013.1_src/data/scripts/dock_solv.prm

>  <Rbt.Receptor>
prm/pocket_docking_8.prm

>  <SCORE>
-11.4393

>  <SCORE.INTER>
-11.9509

>  <SCORE.INTER.CONST>
1

>  <SCORE.INTER.POLAR>
-2.33803

>  <SCORE.INTER.ROT>
3

>  <SCORE.INTER.SOLV>
17.1966

>  <SCORE.INTER.VDW>
-11.506

>  <SCORE.INTER.norm>
-0.746932

>  <SCORE.INTRA>
0.51161

>  <SCORE.INTRA.DIHEDRAL>
0.579903

>  <SCORE.INTRA.DIHEDRAL.0>
0.00893466

>  <SCORE.INTRA.POLAR>
0

>  <SCORE.INTRA.POLAR.0>
0

>  <SCORE.INTRA.REPUL>
0

>  <SCORE.INTRA.REPUL.0>
0

>  <SCORE.INTRA.SOLV>
0.652712

>  <SCORE.INTRA.SOLV.lig_0>
-48.9722

>  <SCORE.INTRA.VDW>
-0.104697

>  <SCORE.INTRA.VDW.0>
-0.529409

>  <SCORE.INTRA.norm>
0.0319756

>  <SCORE.RESTR>
0

>  <SCORE.RESTR.CAVITY>
0

>  <SCORE.RESTR.norm>
0

>  <SCORE.SYSTEM>
0

>  <SCORE.SYSTEM.CONST>
0

>  <SCORE.SYSTEM.DIHEDRAL>
0

>  <SCORE.SYSTEM.SOLV>
0

>  <SCORE.SYSTEM.norm>
0

>  <SCORE.heavy>
16

>  <SCORE.norm>
-0.714957

>  <RMSD>
5.426

$$$$
ligand
 OpenBabel11021811433D
libRbt.so/2013.1/901 2013/11/27
 16 16  0  0  0  0  0  0  0  0999 V2000
   43.0471   17.7657   12.6855 P   0  0  2  0  0  0  0  0  0  0  0  0
   42.0372   17.8858   13.7662 O   0  0  0  0  0  0  0  0  0  0  0  0
   44.1310   18.9455   12.8369 O   0  5  0  0  0  0  0  0  0  0  0  0
   42.3045   17.9037   11.2632 O   0  0  0  0  0  0  0  0  0  0  0  0
   45.3847   12.6185   11.7555 C   0  0  2  0  0  0  0  0  0  0  0  0
   44.5139   11.5761   11.2804 O   0  0  0  0  0  0  0  0  0  0  0  0
   45.8718   12.3158   13.1957 C   0  0  2  0  0  0  0  0  0  0  0  0
   46.5596   11.0197   13.2288 O   0  0  0  0  0  0  0  0  0  0  0  0
   44.6457   12.2718   14.1269 C   0  0  1  0  0  0  0  0  0  0  0  0
   45.0662   11.9996   15.4691 O   0  0  0  0  0  0  0  0  0  0  0  0
   43.9487   13.6401   14.0686 C   0  0  2  0  0  0  0  0  0  0  0  0
   42.7871   13.6214   14.9259 O   0  0  0  0  0  0  0  0  0  0  0  0
   43.5193   13.9113   12.6003 C   0  0  2  0  0  0  0  0  0  0  0  0
   44.6919   13.9108   11.7295 O   0  0  0  0  0  0  0  0  0  0  0  0
   42.8497   15.2957   12.5271 C   0  0  0  0  0  0  0  0  0  0  0  0
   43.8042   16.3324   12.7862 O   0  0  0  0  0  0  0  0  0  0  0  0
  1  2  1  1  0  0  0
  1  3  1  0  0  0  0
  1  4  2  0  0  0  0
  1 16  1  0  0  0  0
  5  6  1  1  0  0  0
  5  7  1  0  0  0  0
  5 14  1  0  0  0  0
  7  8  1  6  0  0  0
  7  9  1  0  0  0  0
  9 10  1  1  0  0  0
  9 11  1  0  0  0  0
 11 12  1  1  0  0  0
 11 13  1  0  0  0  0
 13 14  1  0  0  0  0
 13 15  1  1  0  0  0
 15 16  1  0  0  0  0
M  CHG  1   3  -1
M  END
>  <CHROM.1>
67.28172651,179.59203820,65.31962311,43.98644098,14.71500532,12.99186081
-2.53820989,-1.11861197,2.11400564

>  <Name>
ligand

>  <RI>
0

>  <Rbt.Current_Directory>
/home/itssahil/PROJECTS/Mol_Feturizer/New_Systems/rnas/2HO7

>  <Rbt.Executable>
rbdock ($Id: //depot/dev/client3/rdock/2013.1/src/exe/rbdock.cxx#4 $)

>  <Rbt.Library>
libRbt.so (2013.1, Build901 2013/11/27)

>  <Rbt.Parameter_File>
/export/apps/rDock/src/rDock_2013.1_src/data/scripts/dock_solv.prm

>  <Rbt.Receptor>
prm/pocket_docking_8.prm

>  <SCORE>
-8.53912

>  <SCORE.INTER>
-8.66568

>  <SCORE.INTER.CONST>
1

>  <SCORE.INTER.POLAR>
0

>  <SCORE.INTER.ROT>
3

>  <SCORE.INTER.SOLV>
11.8884

>  <SCORE.INTER.VDW>
-15.3399

>  <SCORE.INTER.norm>
-0.541605

>  <SCORE.INTRA>
0.126562

>  <SCORE.INTRA.DIHEDRAL>
0.226787

>  <SCORE.INTRA.DIHEDRAL.0>
0.00893466

>  <SCORE.INTRA.POLAR>
0

>  <SCORE.INTRA.POLAR.0>
0

>  <SCORE.INTRA.REPUL>
0

>  <SCORE.INTRA.REPUL.0>
0

>  <SCORE.INTRA.SOLV>
0.282419

>  <SCORE.INTRA.SOLV.lig_0>
-48.9722

>  <SCORE.INTRA.VDW>
-0.128041

>  <SCORE.INTRA.VDW.0>
-0.529409

>  <SCORE.INTRA.norm>
0.00791012

>  <SCORE.RESTR>
0

>  <SCORE.RESTR.CAVITY>
0

>  <SCORE.RESTR.norm>
0

>  <SCORE.SYSTEM>
0

>  <SCORE.SYSTEM.CONST>
0

>  <SCORE.SYSTEM.DIHEDRAL>
0

>  <SCORE.SYSTEM.SOLV>
0

>  <SCORE.SYSTEM.norm>
0

>  <SCORE.heavy>
16

>  <SCORE.norm>
-0.533695

>  <RMSD>
5.478

$$$$
ligand
 OpenBabel11021811433D
libRbt.so/2013.1/901 2013/11/27
 16 16  0  0  0  0  0  0  0  0999 V2000
   49.5386    7.8178    8.1977 P   0  0  2  0  0  0  0  0  0  0  0  0
   48.4483    6.9473    8.7035 O   0  0  0  0  0  0  0  0  0  0  0  0
   50.1625    7.1683    6.8640 O   0  5  0  0  0  0  0  0  0  0  0  0
   50.6839    7.9234    9.3250 O   0  0  0  0  0  0  0  0  0  0  0  0
   44.9376   11.9242    8.5480 C   0  0  2  0  0  0  0  0  0  0  0  0
   45.4663   12.9774    7.7222 O   0  0  0  0  0  0  0  0  0  0  0  0
   45.2130   12.2084   10.0468 C   0  0  2  0  0  0  0  0  0  0  0  0
   44.6274   13.4994   10.4267 O   0  0  0  0  0  0  0  0  0  0  0  0
   46.7373   12.2507   10.2639 C   0  0  1  0  0  0  0  0  0  0  0  0
   47.0231   12.5057   11.6444 O   0  0  0  0  0  0  0  0  0  0  0  0
   47.3186   10.8877    9.8566 C   0  0  2  0  0  0  0  0  0  0  0  0
   48.7506   10.9050   10.0402 O   0  0  0  0  0  0  0  0  0  0  0  0
   46.9791   10.6350    8.3616 C   0  0  2  0  0  0  0  0  0  0  0  0
   45.5309   10.6369    8.1718 O   0  0  0  0  0  0  0  0  0  0  0  0
   47.5293    9.2560    7.9545 C   0  0  0  0  0  0  0  0  0  0  0  0
   48.9577    9.2936    7.8483 O   0  0  0  0  0  0  0  0  0  0  0  0
  1  2  1  1  0  0  0
  1  3  1  0  0  0  0
  1  4  2  0  0  0  0
  1 16  1  0  0  0  0
  5  6  1  6  0  0  0
  5  7  1  0  0  0  0
  5 14  1  0  0  0  0
  7  8  1  6  0  0  0
  7  9  1  0  0  0  0
  9 10  1  1  0  0  0
  9 11  1  0  0  0  0
 11 12  1  6  0  0  0
 11 13  1  0  0  0  0
 13 14  1  0  0  0  0
 13 15  1  1  0  0  0
 15 16  1  0  0  0  0
M  CHG  1   3  -1
M  END
>  <CHROM.1>
-72.64483974,150.59459691,-8.08725288,47.56202736,10.21492835,8.93490304
-0.68183498,-0.63275975,0.94339552

>  <Name>
ligand

>  <RI>
0

>  <Rbt.Current_Directory>
/home/itssahil/PROJECTS/Mol_Feturizer/New_Systems/rnas/2HO7

>  <Rbt.Executable>
rbdock ($Id: //depot/dev/client3/rdock/2013.1/src/exe/rbdock.cxx#4 $)

>  <Rbt.Library>
libRbt.so (2013.1, Build901 2013/11/27)

>  <Rbt.Parameter_File>
/export/apps/rDock/src/rDock_2013.1_src/data/scripts/dock_solv.prm

>  <Rbt.Receptor>
prm/pocket_docking_8.prm

>  <SCORE>
-8.47572

>  <SCORE.INTER>
-13.3951

>  <SCORE.INTER.CONST>
1

>  <SCORE.INTER.POLAR>
-2.32692

>  <SCORE.INTER.ROT>
3

>  <SCORE.INTER.SOLV>
16.19

>  <SCORE.INTER.VDW>
-12.1704

>  <SCORE.INTER.norm>
-0.837197

>  <SCORE.INTRA>
4.91943

>  <SCORE.INTRA.DIHEDRAL>
6.33117

>  <SCORE.INTRA.DIHEDRAL.0>
0.00893466

>  <SCORE.INTRA.POLAR>
0

>  <SCORE.INTRA.POLAR.0>
0

>  <SCORE.INTRA.REPUL>
0

>  <SCORE.INTRA.REPUL.0>
0

>  <SCORE.INTRA.SOLV>
0.997978

>  <SCORE.INTRA.SOLV.lig_0>
-48.9722

>  <SCORE.INTRA.VDW>
1.25485

>  <SCORE.INTRA.VDW.0>
-0.529409

>  <SCORE.INTRA.norm>
0.307464

>  <SCORE.RESTR>
0

>  <SCORE.RESTR.CAVITY>
0

>  <SCORE.RESTR.norm>
0

>  <SCORE.SYSTEM>
0

>  <SCORE.SYSTEM.CONST>
0

>  <SCORE.SYSTEM.DIHEDRAL>
0

>  <SCORE.SYSTEM.SOLV>
0

>  <SCORE.SYSTEM.norm>
0

>  <SCORE.heavy>
16

>  <SCORE.norm>
-0.529733

>  <RMSD>
5.528

$$$$
ligand
 OpenBabel11021811433D
libRbt.so/2013.1/901 2013/11/27
 16 16  0  0  0  0  0  0  0  0999 V2000
   44.6468   11.6376   13.3244 P   0  0  2  0  0  0  0  0  0  0  0  0
   44.9818   11.0365   12.0096 O   0  0  0  0  0  0  0  0  0  0  0  0
   45.8862   11.4390   14.3314 O   0  5  0  0  0  0  0  0  0  0  0  0
   43.3504   10.8915   13.9213 O   0  0  0  0  0  0  0  0  0  0  0  0
   42.3107   16.9026   13.2918 C   0  0  2  0  0  0  0  0  0  0  0  0
   41.1244   17.0924   12.4996 O   0  0  0  0  0  0  0  0  0  0  0  0
   43.5149   17.6545   12.6692 C   0  0  2  0  0  0  0  0  0  0  0  0
   43.2036   19.0837   12.5481 O   0  0  0  0  0  0  0  0  0  0  0  0
   43.7883   17.0670   11.2719 C   0  0  1  0  0  0  0  0  0  0  0  0
   44.9027   17.7393   10.6732 O   0  0  0  0  0  0  0  0  0  0  0  0
   44.1090   15.5729   11.4333 C   0  0  2  0  0  0  0  0  0  0  0  0
   44.3584   14.9947   10.1340 O   0  0  0  0  0  0  0  0  0  0  0  0
   42.8891   14.8768   12.0977 C   0  0  2  0  0  0  0  0  0  0  0  0
   42.6241   15.4744   13.4037 O   0  0  0  0  0  0  0  0  0  0  0  0
   43.2154   13.3850   12.2935 C   0  0  0  0  0  0  0  0  0  0  0  0
   44.3507   13.2252   13.1529 O   0  0  0  0  0  0  0  0  0  0  0  0
  1  2  1  6  0  0  0
  1  3  1  0  0  0  0
  1  4  2  0  0  0  0
  1 16  1  0  0  0  0
  5  6  1  6  0  0  0
  5  7  1  0  0  0  0
  5 14  1  0  0  0  0
  7  8  1  6  0  0  0
  7  9  1  0  0  0  0
  9 10  1  1  0  0  0
  9 11  1  0  0  0  0
 11 12  1  6  0  0  0
 11 13  1  0  0  0  0
 13 14  1  0  0  0  0
 13 15  1  1  0  0  0
 15 16  1  0  0  0  0
M  CHG  1   3  -1
M  END
>  <CHROM.1>
61.02367322,179.93708918,62.14801612,43.78526115,14.61007304,12.51109449
1.25710084,-0.74164394,2.71648747

>  <Name>
ligand

>  <RI>
0

>  <Rbt.Current_Directory>
/home/itssahil/PROJECTS/Mol_Feturizer/New_Systems/rnas/2HO7

>  <Rbt.Executable>
rbdock ($Id: //depot/dev/client3/rdock/2013.1/src/exe/rbdock.cxx#4 $)

>  <Rbt.Library>
libRbt.so (2013.1, Build901 2013/11/27)

>  <Rbt.Parameter_File>
/export/apps/rDock/src/rDock_2013.1_src/data/scripts/dock_solv.prm

>  <Rbt.Receptor>
prm/pocket_docking_8.prm

>  <SCORE>
-5.87287

>  <SCORE.INTER>
-5.89098

>  <SCORE.INTER.CONST>
1

>  <SCORE.INTER.POLAR>
0

>  <SCORE.INTER.ROT>
3

>  <SCORE.INTER.SOLV>
12.3104

>  <SCORE.INTER.VDW>
-13.6308

>  <SCORE.INTER.norm>
-0.368186

>  <SCORE.INTRA>
0.0181142

>  <SCORE.INTRA.DIHEDRAL>
0.00233155

>  <SCORE.INTRA.DIHEDRAL.0>
0.00893466

>  <SCORE.INTRA.POLAR>
0

>  <SCORE.INTRA.POLAR.0>
0

>  <SCORE.INTRA.REPUL>
0

>  <SCORE.INTRA.REPUL.0>
0

>  <SCORE.INTRA.SOLV>
0.256209

>  <SCORE.INTRA.SOLV.lig_0>
-48.9722

>  <SCORE.INTRA.VDW>
-0.111156

>  <SCORE.INTRA.VDW.0>
-0.529409

>  <SCORE.INTRA.norm>
0.00113214

>  <SCORE.RESTR>
0

>  <SCORE.RESTR.CAVITY>
0

>  <SCORE.RESTR.norm>
0

>  <SCORE.SYSTEM>
0

>  <SCORE.SYSTEM.CONST>
0

>  <SCORE.SYSTEM.DIHEDRAL>
0

>  <SCORE.SYSTEM.SOLV>
0

>  <SCORE.SYSTEM.norm>
0

>  <SCORE.heavy>
16

>  <SCORE.norm>
-0.367054

>  <RMSD>
5.534

$$$$
ligand
 OpenBabel11021811433D
libRbt.so/2013.1/901 2013/11/27
 16 16  0  0  0  0  0  0  0  0999 V2000
   44.3145   11.6218   13.8680 P   0  0  2  0  0  0  0  0  0  0  0  0
   44.7371   12.6412   14.8603 O   0  0  0  0  0  0  0  0  0  0  0  0
   42.7078   11.5340   13.8470 O   0  5  0  0  0  0  0  0  0  0  0  0
   44.9206   10.1938   14.3004 O   0  0  0  0  0  0  0  0  0  0  0  0
   44.6595   13.1497    8.2771 C   0  0  2  0  0  0  0  0  0  0  0  0
   46.0955   13.1406    8.1847 O   0  0  0  0  0  0  0  0  0  0  0  0
   44.0931   14.5469    7.9165 C   0  0  2  0  0  0  0  0  0  0  0  0
   44.5213   14.9264    6.5650 O   0  0  0  0  0  0  0  0  0  0  0  0
   44.6324   15.5700    8.9337 C   0  0  1  0  0  0  0  0  0  0  0  0
   44.1194   16.8725    8.6292 O   0  0  0  0  0  0  0  0  0  0  0  0
   44.1685   15.1441   10.3354 C   0  0  2  0  0  0  0  0  0  0  0  0
   44.6716   16.0825   11.3108 O   0  0  0  0  0  0  0  0  0  0  0  0
   44.7277   13.7245   10.6286 C   0  0  2  0  0  0  0  0  0  0  0  0
   44.2349   12.7785    9.6308 O   0  0  0  0  0  0  0  0  0  0  0  0
   44.2396   13.2764   12.0182 C   0  0  0  0  0  0  0  0  0  0  0  0
   44.8437   12.0309   12.3881 O   0  0  0  0  0  0  0  0  0  0  0  0
  1  2  1  1  0  0  0
  1  3  1  0  0  0  0
  1  4  2  0  0  0  0
  1 16  1  0  0  0  0
  5  6  1  1  0  0  0
  5  7  1  0  0  0  0
  5 14  1  0  0  0  0
  7  8  1  6  0  0  0
  7  9  1  0  0  0  0
  9 10  1  6  0  0  0
  9 11  1  0  0  0  0
 11 12  1  1  0  0  0
 11 13  1  0  0  0  0
 13 14  1  0  0  0  0
 13 15  1  1  0  0  0
 15 16  1  0  0  0  0
M  CHG  1   3  -1
M  END
>  <CHROM.1>
-174.04348365,179.01069268,-62.35673309,44.47396573,13.41437187,10.99446013
-1.80219708,1.38135730,-0.80411377

>  <Name>
ligand

>  <RI>
0

>  <Rbt.Current_Directory>
/home/itssahil/PROJECTS/Mol_Feturizer/New_Systems/rnas/2HO7

>  <Rbt.Executable>
rbdock ($Id: //depot/dev/client3/rdock/2013.1/src/exe/rbdock.cxx#4 $)

>  <Rbt.Library>
libRbt.so (2013.1, Build901 2013/11/27)

>  <Rbt.Parameter_File>
/export/apps/rDock/src/rDock_2013.1_src/data/scripts/dock_solv.prm

>  <Rbt.Receptor>
prm/pocket_docking_6.prm

>  <SCORE>
-7.38173

>  <SCORE.INTER>
-7.47184

>  <SCORE.INTER.CONST>
1

>  <SCORE.INTER.POLAR>
0

>  <SCORE.INTER.ROT>
3

>  <SCORE.INTER.SOLV>
16.1364

>  <SCORE.INTER.VDW>
-15.96

>  <SCORE.INTER.norm>
-0.46699

>  <SCORE.INTRA>
0.0901174

>  <SCORE.INTRA.DIHEDRAL>
0.132263

>  <SCORE.INTRA.DIHEDRAL.0>
0.00893466

>  <SCORE.INTRA.POLAR>
0

>  <SCORE.INTRA.POLAR.0>
0

>  <SCORE.INTRA.REPUL>
0

>  <SCORE.INTRA.REPUL.0>
0

>  <SCORE.INTRA.SOLV>
0.00708195

>  <SCORE.INTRA.SOLV.lig_0>
-48.9722

>  <SCORE.INTRA.VDW>
0.0204451

>  <SCORE.INTRA.VDW.0>
-0.529409

>  <SCORE.INTRA.norm>
0.00563234

>  <SCORE.RESTR>
0

>  <SCORE.RESTR.CAVITY>
0

>  <SCORE.RESTR.norm>
0

>  <SCORE.SYSTEM>
0

>  <SCORE.SYSTEM.CONST>
0

>  <SCORE.SYSTEM.DIHEDRAL>
0

>  <SCORE.SYSTEM.SOLV>
0

>  <SCORE.SYSTEM.norm>
0

>  <SCORE.heavy>
16

>  <SCORE.norm>
-0.461358

>  <RMSD>
5.596

$$$$
ligand
 OpenBabel11021811433D
libRbt.so/2013.1/901 2013/11/27
 16 16  0  0  0  0  0  0  0  0999 V2000
   42.3355   17.4997   11.9817 P   0  0  2  0  0  0  0  0  0  0  0  0
   40.8865   17.2412   12.1709 O   0  0  0  0  0  0  0  0  0  0  0  0
   42.7751   18.7538   12.8893 O   0  5  0  0  0  0  0  0  0  0  0  0
   42.6034   17.8440   10.4314 O   0  0  0  0  0  0  0  0  0  0  0  0
   45.6140   12.7510   11.7177 C   0  0  2  0  0  0  0  0  0  0  0  0
   45.0033   11.5572   11.1957 O   0  0  0  0  0  0  0  0  0  0  0  0
   45.8675   12.6192   13.2413 C   0  0  2  0  0  0  0  0  0  0  0  0
   46.7160   11.4517   13.5079 O   0  0  0  0  0  0  0  0  0  0  0  0
   44.5108   12.4418   13.9487 C   0  0  1  0  0  0  0  0  0  0  0  0
   44.7131   12.3236   15.3620 O   0  0  0  0  0  0  0  0  0  0  0  0
   43.6477   13.6774   13.6493 C   0  0  2  0  0  0  0  0  0  0  0  0
   42.3635   13.5304   14.2929 O   0  0  0  0  0  0  0  0  0  0  0  0
   43.4599   13.7854   12.1108 C   0  0  2  0  0  0  0  0  0  0  0  0
   44.7599   13.9143   11.4576 O   0  0  0  0  0  0  0  0  0  0  0  0
   42.6238   15.0402   11.8002 C   0  0  0  0  0  0  0  0  0  0  0  0
   43.1971   16.1959   12.4237 O   0  0  0  0  0  0  0  0  0  0  0  0
  1  2  1  1  0  0  0
  1  3  1  0  0  0  0
  1  4  2  0  0  0  0
  1 16  1  0  0  0  0
  5  6  1  1  0  0  0
  5  7  1  0  0  0  0
  5 14  1  0  0  0  0
  7  8  1  6  0  0  0
  7  9  1  0  0  0  0
  9 10  1  1  0  0  0
  9 11  1  0  0  0  0
 11 12  1  1  0  0  0
 11 13  1  0  0  0  0
 13 14  1  0  0  0  0
 13 15  1  1  0  0  0
 15 16  1  0  0  0  0
M  CHG  1   3  -1
M  END
>  <CHROM.1>
52.72061338,176.23022521,48.99229168,43.69217367,14.67087668,12.58678301
-2.48174868,-0.91330639,2.11114749

>  <Name>
ligand

>  <RI>
0

>  <Rbt.Current_Directory>
/home/itssahil/PROJECTS/Mol_Feturizer/New_Systems/rnas/2HO7

>  <Rbt.Executable>
rbdock ($Id: //depot/dev/client3/rdock/2013.1/src/exe/rbdock.cxx#4 $)

>  <Rbt.Library>
libRbt.so (2013.1, Build901 2013/11/27)

>  <Rbt.Parameter_File>
/export/apps/rDock/src/rDock_2013.1_src/data/scripts/dock_solv.prm

>  <Rbt.Receptor>
prm/pocket_docking_8.prm

>  <SCORE>
-8.79235

>  <SCORE.INTER>
-9.22894

>  <SCORE.INTER.CONST>
1

>  <SCORE.INTER.POLAR>
0

>  <SCORE.INTER.ROT>
3

>  <SCORE.INTER.SOLV>
9.92046

>  <SCORE.INTER.VDW>
-15.0595

>  <SCORE.INTER.norm>
-0.576809

>  <SCORE.INTRA>
0.436592

>  <SCORE.INTRA.DIHEDRAL>
0.445958

>  <SCORE.INTRA.DIHEDRAL.0>
0.00893466

>  <SCORE.INTRA.POLAR>
0

>  <SCORE.INTRA.POLAR.0>
0

>  <SCORE.INTRA.REPUL>
0

>  <SCORE.INTRA.REPUL.0>
0

>  <SCORE.INTRA.SOLV>
0.153272

>  <SCORE.INTRA.SOLV.lig_0>
-48.9722

>  <SCORE.INTRA.VDW>
0.136977

>  <SCORE.INTRA.VDW.0>
-0.529409

>  <SCORE.INTRA.norm>
0.027287

>  <SCORE.RESTR>
0

>  <SCORE.RESTR.CAVITY>
0

>  <SCORE.RESTR.norm>
0

>  <SCORE.SYSTEM>
0

>  <SCORE.SYSTEM.CONST>
0

>  <SCORE.SYSTEM.DIHEDRAL>
0

>  <SCORE.SYSTEM.SOLV>
0

>  <SCORE.SYSTEM.norm>
0

>  <SCORE.heavy>
16

>  <SCORE.norm>
-0.549522

>  <RMSD>
5.628

$$$$
ligand
 OpenBabel11021811433D
libRbt.so/2013.1/901 2013/11/27
 16 16  0  0  0  0  0  0  0  0999 V2000
   42.2959   17.5124   11.9906 P   0  0  2  0  0  0  0  0  0  0  0  0
   40.8505   17.2383   12.1860 O   0  0  0  0  0  0  0  0  0  0  0  0
   42.7283   18.7642   12.9047 O   0  5  0  0  0  0  0  0  0  0  0  0
   42.5516   17.8704   10.4414 O   0  0  0  0  0  0  0  0  0  0  0  0
   45.5848   12.7769   11.6670 C   0  0  2  0  0  0  0  0  0  0  0  0
   44.9666   11.5783   11.1653 O   0  0  0  0  0  0  0  0  0  0  0  0
   45.8778   12.6522   13.1841 C   0  0  2  0  0  0  0  0  0  0  0  0
   46.7384   11.4897   13.4333 O   0  0  0  0  0  0  0  0  0  0  0  0
   44.5405   12.4713   13.9267 C   0  0  1  0  0  0  0  0  0  0  0  0
   44.7795   12.3595   15.3348 O   0  0  0  0  0  0  0  0  0  0  0  0
   43.6642   13.7017   13.6449 C   0  0  2  0  0  0  0  0  0  0  0  0
   42.3977   13.5514   14.3217 O   0  0  0  0  0  0  0  0  0  0  0  0
   43.4367   13.8029   12.1113 C   0  0  2  0  0  0  0  0  0  0  0  0
   44.7189   13.9353   11.4245 O   0  0  0  0  0  0  0  0  0  0  0  0
   42.5870   15.0527   11.8174 C   0  0  0  0  0  0  0  0  0  0  0  0
   43.1727   16.2140   12.4184 O   0  0  0  0  0  0  0  0  0  0  0  0
  1  2  1  1  0  0  0
  1  3  1  0  0  0  0
  1  4  2  0  0  0  0
  1 16  1  0  0  0  0
  5  6  1  1  0  0  0
  5  7  1  0  0  0  0
  5 14  1  0  0  0  0
  7  8  1  6  0  0  0
  7  9  1  0  0  0  0
  9 10  1  1  0  0  0
  9 11  1  0  0  0  0
 11 12  1  1  0  0  0
 11 13  1  0  0  0  0
 13 14  1  0  0  0  0
 13 15  1  1  0  0  0
 15 16  1  0  0  0  0
M  CHG  1   3  -1
M  END
>  <CHROM.1>
52.89129710,176.08640595,47.53299817,43.67837510,14.69169454,12.57559291
-2.51928642,-0.92167941,2.07716080

>  <Name>
ligand

>  <RI>
0

>  <Rbt.Current_Directory>
/home/itssahil/PROJECTS/Mol_Feturizer/New_Systems/rnas/2HO7

>  <Rbt.Executable>
rbdock ($Id: //depot/dev/client3/rdock/2013.1/src/exe/rbdock.cxx#4 $)

>  <Rbt.Library>
libRbt.so (2013.1, Build901 2013/11/27)

>  <Rbt.Parameter_File>
/export/apps/rDock/src/rDock_2013.1_src/data/scripts/dock_solv.prm

>  <Rbt.Receptor>
prm/pocket_docking_7.prm

>  <SCORE>
-8.80003

>  <SCORE.INTER>
-9.28614

>  <SCORE.INTER.CONST>
1

>  <SCORE.INTER.POLAR>
0

>  <SCORE.INTER.ROT>
3

>  <SCORE.INTER.SOLV>
9.97926

>  <SCORE.INTER.VDW>
-15.1172

>  <SCORE.INTER.norm>
-0.580384

>  <SCORE.INTRA>
0.486104

>  <SCORE.INTRA.DIHEDRAL>
0.495649

>  <SCORE.INTRA.DIHEDRAL.0>
0.00893466

>  <SCORE.INTRA.POLAR>
0

>  <SCORE.INTRA.POLAR.0>
0

>  <SCORE.INTRA.REPUL>
0

>  <SCORE.INTRA.REPUL.0>
0

>  <SCORE.INTRA.SOLV>
0.140445

>  <SCORE.INTRA.SOLV.lig_0>
-48.9722

>  <SCORE.INTRA.VDW>
0.168057

>  <SCORE.INTRA.VDW.0>
-0.529409

>  <SCORE.INTRA.norm>
0.0303815

>  <SCORE.RESTR>
0

>  <SCORE.RESTR.CAVITY>
0

>  <SCORE.RESTR.norm>
0

>  <SCORE.SYSTEM>
0

>  <SCORE.SYSTEM.CONST>
0

>  <SCORE.SYSTEM.DIHEDRAL>
0

>  <SCORE.SYSTEM.SOLV>
0

>  <SCORE.SYSTEM.norm>
0

>  <SCORE.heavy>
16

>  <SCORE.norm>
-0.550002

>  <RMSD>
5.659

$$$$
ligand
 OpenBabel11021811433D
libRbt.so/2013.1/901 2013/11/27
 16 16  0  0  0  0  0  0  0  0999 V2000
   41.4979   17.3894   11.6577 P   0  0  2  0  0  0  0  0  0  0  0  0
   41.6093   18.2986   12.8253 O   0  0  0  0  0  0  0  0  0  0  0  0
   42.4227   17.9427   10.4625 O   0  5  0  0  0  0  0  0  0  0  0  0
   39.9630   17.3544   11.1714 O   0  0  0  0  0  0  0  0  0  0  0  0
   43.1470   12.7025   14.4695 C   0  0  2  0  0  0  0  0  0  0  0  0
   44.3424   12.8001   15.2645 O   0  0  0  0  0  0  0  0  0  0  0  0
   43.3593   11.7428   13.2708 C   0  0  2  0  0  0  0  0  0  0  0  0
   43.7605   10.4172   13.7566 O   0  0  0  0  0  0  0  0  0  0  0  0
   44.4703   12.3201   12.3736 C   0  0  1  0  0  0  0  0  0  0  0  0
   44.6848   11.4559   11.2513 O   0  0  0  0  0  0  0  0  0  0  0  0
   44.0207   13.7055   11.8837 C   0  0  2  0  0  0  0  0  0  0  0  0
   45.0517   14.2745   11.0481 O   0  0  0  0  0  0  0  0  0  0  0  0
   43.7825   14.6122   13.1227 C   0  0  2  0  0  0  0  0  0  0  0  0
   42.7536   14.0271   13.9784 O   0  0  0  0  0  0  0  0  0  0  0  0
   43.2995   15.9925   12.6416 C   0  0  0  0  0  0  0  0  0  0  0  0
   41.9917   15.8966   12.0640 O   0  0  0  0  0  0  0  0  0  0  0  0
  1  2  1  1  0  0  0
  1  3  1  0  0  0  0
  1  4  2  0  0  0  0
  1 16  1  0  0  0  0
  5  6  1  6  0  0  0
  5  7  1  0  0  0  0
  5 14  1  0  0  0  0
  7  8  1  1  0  0  0
  7  9  1  0  0  0  0
  9 10  1  6  0  0  0
  9 11  1  0  0  0  0
 11 12  1  6  0  0  0
 11 13  1  0  0  0  0
 13 14  1  0  0  0  0
 13 15  1  6  0  0  0
 15 16  1  0  0  0  0
M  CHG  1   3  -1
M  END
>  <CHROM.1>
67.84948234,176.62928824,-53.05118160,43.00063553,14.67847092,12.49671630
2.33304557,0.94763446,-0.94792180

>  <Name>
ligand

>  <RI>
0

>  <Rbt.Current_Directory>
/home/itssahil/PROJECTS/Mol_Feturizer/New_Systems/rnas/2HO7

>  <Rbt.Executable>
rbdock ($Id: //depot/dev/client3/rdock/2013.1/src/exe/rbdock.cxx#4 $)

>  <Rbt.Library>
libRbt.so (2013.1, Build901 2013/11/27)

>  <Rbt.Parameter_File>
/export/apps/rDock/src/rDock_2013.1_src/data/scripts/dock_solv.prm

>  <Rbt.Receptor>
prm/pocket_docking_8.prm

>  <SCORE>
-7.68222

>  <SCORE.INTER>
-7.91127

>  <SCORE.INTER.CONST>
1

>  <SCORE.INTER.POLAR>
0

>  <SCORE.INTER.ROT>
3

>  <SCORE.INTER.SOLV>
17.4639

>  <SCORE.INTER.VDW>
-16.6955

>  <SCORE.INTER.norm>
-0.494455

>  <SCORE.INTRA>
0.229052

>  <SCORE.INTRA.DIHEDRAL>
0.344289

>  <SCORE.INTRA.DIHEDRAL.0>
0.00893466

>  <SCORE.INTRA.POLAR>
0

>  <SCORE.INTRA.POLAR.0>
0

>  <SCORE.INTRA.REPUL>
0

>  <SCORE.INTRA.REPUL.0>
0

>  <SCORE.INTRA.SOLV>
0.162394

>  <SCORE.INTRA.SOLV.lig_0>
-48.9722

>  <SCORE.INTRA.VDW>
-0.0242899

>  <SCORE.INTRA.VDW.0>
-0.529409

>  <SCORE.INTRA.norm>
0.0143157

>  <SCORE.RESTR>
0

>  <SCORE.RESTR.CAVITY>
0

>  <SCORE.RESTR.norm>
0

>  <SCORE.SYSTEM>
0

>  <SCORE.SYSTEM.CONST>
0

>  <SCORE.SYSTEM.DIHEDRAL>
0

>  <SCORE.SYSTEM.SOLV>
0

>  <SCORE.SYSTEM.norm>
0

>  <SCORE.heavy>
16

>  <SCORE.norm>
-0.480139

>  <RMSD>
5.682

$$$$
ligand
 OpenBabel11021811433D
libRbt.so/2013.1/901 2013/11/27
 16 16  0  0  0  0  0  0  0  0999 V2000
   43.7142   10.6939   13.4010 P   0  0  2  0  0  0  0  0  0  0  0  0
   44.0026    9.2430   13.5188 O   0  0  0  0  0  0  0  0  0  0  0  0
   44.3685   11.4695   14.6500 O   0  5  0  0  0  0  0  0  0  0  0  0
   42.1183   10.9090   13.4169 O   0  0  0  0  0  0  0  0  0  0  0  0
   44.6605   13.0484    8.1911 C   0  0  2  0  0  0  0  0  0  0  0  0
   46.0977   12.9848    8.2239 O   0  0  0  0  0  0  0  0  0  0  0  0
   44.1779   14.5094    8.0030 C   0  0  2  0  0  0  0  0  0  0  0  0
   44.7431   15.0677    6.7690 O   0  0  0  0  0  0  0  0  0  0  0  0
   44.6541   15.3403    9.2093 C   0  0  1  0  0  0  0  0  0  0  0  0
   44.2163   16.6969    9.0663 O   0  0  0  0  0  0  0  0  0  0  0  0
   44.0472   14.7304   10.4825 C   0  0  2  0  0  0  0  0  0  0  0  0
   44.4884   15.4857   11.6313 O   0  0  0  0  0  0  0  0  0  0  0  0
   44.5281   13.2577   10.6001 C   0  0  2  0  0  0  0  0  0  0  0  0
   44.0990   12.4979    9.4289 O   0  0  0  0  0  0  0  0  0  0  0  0
   43.8975   12.6289   11.8559 C   0  0  0  0  0  0  0  0  0  0  0  0
   44.3451   11.2781   12.0232 O   0  0  0  0  0  0  0  0  0  0  0  0
  1  2  1  1  0  0  0
  1  3  1  0  0  0  0
  1  4  2  0  0  0  0
  1 16  1  0  0  0  0
  5  6  1  1  0  0  0
  5  7  1  0  0  0  0
  5 14  1  0  0  0  0
  7  8  1  6  0  0  0
  7  9  1  0  0  0  0
  9 10  1  6  0  0  0
  9 11  1  0  0  0  0
 11 12  1  1  0  0  0
 11 13  1  0  0  0  0
 13 14  1  0  0  0  0
 13 15  1  1  0  0  0
 15 16  1  0  0  0  0
M  CHG  1   3  -1
M  END
>  <CHROM.1>
-178.40070023,176.97602226,172.37103504,44.22154393,12.91389401,10.88658956
-2.23146109,1.33134066,-0.23239664

>  <Name>
ligand

>  <RI>
0

>  <Rbt.Current_Directory>
/home/itssahil/PROJECTS/Mol_Feturizer/New_Systems/rnas/2HO7

>  <Rbt.Executable>
rbdock ($Id: //depot/dev/client3/rdock/2013.1/src/exe/rbdock.cxx#4 $)

>  <Rbt.Library>
libRbt.so (2013.1, Build901 2013/11/27)

>  <Rbt.Parameter_File>
/export/apps/rDock/src/rDock_2013.1_src/data/scripts/dock_solv.prm

>  <Rbt.Receptor>
prm/pocket_docking_6.prm

>  <SCORE>
-6.87933

>  <SCORE.INTER>
-7.21912

>  <SCORE.INTER.CONST>
1

>  <SCORE.INTER.POLAR>
0

>  <SCORE.INTER.ROT>
3

>  <SCORE.INTER.SOLV>
17.3364

>  <SCORE.INTER.VDW>
-16.1916

>  <SCORE.INTER.norm>
-0.451195

>  <SCORE.INTRA>
0.339784

>  <SCORE.INTRA.DIHEDRAL>
0.140524

>  <SCORE.INTRA.DIHEDRAL.0>
0.00893466

>  <SCORE.INTRA.POLAR>
0

>  <SCORE.INTRA.POLAR.0>
0

>  <SCORE.INTRA.REPUL>
0

>  <SCORE.INTRA.REPUL.0>
0

>  <SCORE.INTRA.SOLV>
0.645801

>  <SCORE.INTRA.SOLV.lig_0>
-48.9722

>  <SCORE.INTRA.VDW>
-0.0533782

>  <SCORE.INTRA.VDW.0>
-0.529409

>  <SCORE.INTRA.norm>
0.0212365

>  <SCORE.RESTR>
0

>  <SCORE.RESTR.CAVITY>
0

>  <SCORE.RESTR.norm>
0

>  <SCORE.SYSTEM>
0

>  <SCORE.SYSTEM.CONST>
0

>  <SCORE.SYSTEM.DIHEDRAL>
0

>  <SCORE.SYSTEM.SOLV>
0

>  <SCORE.SYSTEM.norm>
0

>  <SCORE.heavy>
16

>  <SCORE.norm>
-0.429958

>  <RMSD>
5.726

$$$$
ligand
 OpenBabel11021811433D
libRbt.so/2013.1/901 2013/11/27
 16 16  0  0  0  0  0  0  0  0999 V2000
   44.0699   12.1231   13.9633 P   0  0  2  0  0  0  0  0  0  0  0  0
   44.9859   12.5301   15.0576 O   0  0  0  0  0  0  0  0  0  0  0  0
   42.6096   12.7427   14.2338 O   0  5  0  0  0  0  0  0  0  0  0  0
   43.9709   10.5158   13.9400 O   0  0  0  0  0  0  0  0  0  0  0  0
   44.7261   14.6773    8.8052 C   0  0  2  0  0  0  0  0  0  0  0  0
   43.8465   14.2547    7.7477 O   0  0  0  0  0  0  0  0  0  0  0  0
   46.1718   14.1786    8.5516 C   0  0  2  0  0  0  0  0  0  0  0  0
   46.6523   14.6757    7.2570 O   0  0  0  0  0  0  0  0  0  0  0  0
   46.1623   12.6384    8.5403 C   0  0  1  0  0  0  0  0  0  0  0  0
   47.4891   12.1474    8.3140 O   0  0  0  0  0  0  0  0  0  0  0  0
   45.6544   12.1511    9.9063 C   0  0  2  0  0  0  0  0  0  0  0  0
   45.6250   10.7075    9.9178 O   0  0  0  0  0  0  0  0  0  0  0  0
   44.2224   12.7119   10.1274 C   0  0  2  0  0  0  0  0  0  0  0  0
   44.2483   14.1719   10.0963 O   0  0  0  0  0  0  0  0  0  0  0  0
   43.7190   12.2556   11.5088 C   0  0  0  0  0  0  0  0  0  0  0  0
   44.6242   12.6715   12.5387 O   0  0  0  0  0  0  0  0  0  0  0  0
  1  2  1  1  0  0  0
  1  3  1  0  0  0  0
  1  4  2  0  0  0  0
  1 16  1  0  0  0  0
  5  6  1  6  0  0  0
  5  7  1  0  0  0  0
  5 14  1  0  0  0  0
  7  8  1  6  0  0  0
  7  9  1  0  0  0  0
  9 10  1  1  0  0  0
  9 11  1  0  0  0  0
 11 12  1  6  0  0  0
 11 13  1  0  0  0  0
 13 14  1  0  0  0  0
 13 15  1  1  0  0  0
 15 16  1  0  0  0  0
M  CHG  1   3  -1
M  END
>  <CHROM.1>
56.52383385,-178.17796625,179.78061377,44.85544955,12.75893154,10.93110990
1.99978131,-0.77753897,2.15205931

>  <Name>
ligand

>  <RI>
0

>  <Rbt.Current_Directory>
/home/itssahil/PROJECTS/Mol_Feturizer/New_Systems/rnas/2HO7

>  <Rbt.Executable>
rbdock ($Id: //depot/dev/client3/rdock/2013.1/src/exe/rbdock.cxx#4 $)

>  <Rbt.Library>
libRbt.so (2013.1, Build901 2013/11/27)

>  <Rbt.Parameter_File>
/export/apps/rDock/src/rDock_2013.1_src/data/scripts/dock_solv.prm

>  <Rbt.Receptor>
prm/pocket_docking_6.prm

>  <SCORE>
-6.95722

>  <SCORE.INTER>
-7.31093

>  <SCORE.INTER.CONST>
1

>  <SCORE.INTER.POLAR>
0

>  <SCORE.INTER.ROT>
3

>  <SCORE.INTER.SOLV>
15.8095

>  <SCORE.INTER.VDW>
-15.7438

>  <SCORE.INTER.norm>
-0.456933

>  <SCORE.INTRA>
0.353705

>  <SCORE.INTRA.DIHEDRAL>
0.0515781

>  <SCORE.INTRA.DIHEDRAL.0>
0.00893466

>  <SCORE.INTRA.POLAR>
0

>  <SCORE.INTRA.POLAR.0>
0

>  <SCORE.INTRA.REPUL>
0

>  <SCORE.INTRA.REPUL.0>
0

>  <SCORE.INTRA.SOLV>
0.959987

>  <SCORE.INTRA.SOLV.lig_0>
-48.9722

>  <SCORE.INTRA.VDW>
-0.152077

>  <SCORE.INTRA.VDW.0>
-0.529409

>  <SCORE.INTRA.norm>
0.0221066

>  <SCORE.RESTR>
0

>  <SCORE.RESTR.CAVITY>
0

>  <SCORE.RESTR.norm>
0

>  <SCORE.SYSTEM>
0

>  <SCORE.SYSTEM.CONST>
0

>  <SCORE.SYSTEM.DIHEDRAL>
0

>  <SCORE.SYSTEM.SOLV>
0

>  <SCORE.SYSTEM.norm>
0

>  <SCORE.heavy>
16

>  <SCORE.norm>
-0.434826

>  <RMSD>
5.771

$$$$
ligand
 OpenBabel11021811433D
libRbt.so/2013.1/901 2013/11/27
 16 16  0  0  0  0  0  0  0  0999 V2000
   41.7684   18.0430   11.7737 P   0  0  2  0  0  0  0  0  0  0  0  0
   40.3890   17.5133   11.6368 O   0  0  0  0  0  0  0  0  0  0  0  0
   41.8393   19.0187   13.0515 O   0  5  0  0  0  0  0  0  0  0  0  0
   42.1390   18.8758   10.4461 O   0  0  0  0  0  0  0  0  0  0  0  0
   43.4371   12.6820   14.4567 C   0  0  2  0  0  0  0  0  0  0  0  0
   44.8017   12.9722   14.8092 O   0  0  0  0  0  0  0  0  0  0  0  0
   43.3704   11.8503   13.1503 C   0  0  2  0  0  0  0  0  0  0  0  0
   44.1332   10.6066   13.3099 O   0  0  0  0  0  0  0  0  0  0  0  0
   43.9798   12.6849   12.0081 C   0  0  1  0  0  0  0  0  0  0  0  0
   43.9261   11.9428   10.7838 O   0  0  0  0  0  0  0  0  0  0  0  0
   43.1610   13.9776   11.8680 C   0  0  2  0  0  0  0  0  0  0  0  0
   43.7199   14.7848   10.8093 O   0  0  0  0  0  0  0  0  0  0  0  0
   43.2270   14.7502   13.2144 C   0  0  2  0  0  0  0  0  0  0  0  0
   42.6797   13.9266   14.2893 O   0  0  0  0  0  0  0  0  0  0  0  0
   42.3813   16.0309   13.0932 C   0  0  0  0  0  0  0  0  0  0  0  0
   42.8175   16.8205   11.9800 O   0  0  0  0  0  0  0  0  0  0  0  0
  1  2  1  6  0  0  0
  1  3  1  0  0  0  0
  1  4  2  0  0  0  0
  1 16  1  0  0  0  0
  5  6  1  6  0  0  0
  5  7  1  0  0  0  0
  5 14  1  0  0  0  0
  7  8  1  1  0  0  0
  7  9  1  0  0  0  0
  9 10  1  6  0  0  0
  9 11  1  0  0  0  0
 11 12  1  6  0  0  0
 11 13  1  0  0  0  0
 13 14  1  0  0  0  0
 13 15  1  6  0  0  0
 15 16  1  0  0  0  0
M  CHG  1   3  -1
M  END
>  <CHROM.1>
-55.65941948,172.18207467,-54.53351775,42.89224833,15.05590613,12.46965500
-2.85326678,-1.22175947,1.65103554

>  <Name>
ligand

>  <RI>
0

>  <Rbt.Current_Directory>
/home/itssahil/PROJECTS/Mol_Feturizer/New_Systems/rnas/2HO7

>  <Rbt.Executable>
rbdock ($Id: //depot/dev/client3/rdock/2013.1/src/exe/rbdock.cxx#4 $)

>  <Rbt.Library>
libRbt.so (2013.1, Build901 2013/11/27)

>  <Rbt.Parameter_File>
/export/apps/rDock/src/rDock_2013.1_src/data/scripts/dock_solv.prm

>  <Rbt.Receptor>
prm/pocket_docking_8.prm

>  <SCORE>
-8.33784

>  <SCORE.INTER>
-9.35195

>  <SCORE.INTER.CONST>
1

>  <SCORE.INTER.POLAR>
0

>  <SCORE.INTER.ROT>
3

>  <SCORE.INTER.SOLV>
10.0857

>  <SCORE.INTER.VDW>
-15.1965

>  <SCORE.INTER.norm>
-0.584497

>  <SCORE.INTRA>
1.01411

>  <SCORE.INTRA.DIHEDRAL>
0.404504

>  <SCORE.INTRA.DIHEDRAL.0>
0.00893466

>  <SCORE.INTRA.POLAR>
0

>  <SCORE.INTRA.POLAR.0>
0

>  <SCORE.INTRA.REPUL>
0

>  <SCORE.INTRA.REPUL.0>
0

>  <SCORE.INTRA.SOLV>
0.560473

>  <SCORE.INTRA.SOLV.lig_0>
-48.9722

>  <SCORE.INTRA.VDW>
0.531623

>  <SCORE.INTRA.VDW.0>
-0.529409

>  <SCORE.INTRA.norm>
0.063382

>  <SCORE.RESTR>
0

>  <SCORE.RESTR.CAVITY>
0

>  <SCORE.RESTR.norm>
0

>  <SCORE.SYSTEM>
0

>  <SCORE.SYSTEM.CONST>
0

>  <SCORE.SYSTEM.DIHEDRAL>
0

>  <SCORE.SYSTEM.SOLV>
0

>  <SCORE.SYSTEM.norm>
0

>  <SCORE.heavy>
16

>  <SCORE.norm>
-0.521115

>  <RMSD>
5.804

$$$$
ligand
 OpenBabel11021811433D
libRbt.so/2013.1/901 2013/11/27
 16 16  0  0  0  0  0  0  0  0999 V2000
   49.6214    7.2216    8.4186 P   0  0  2  0  0  0  0  0  0  0  0  0
   48.4000    6.3787    8.4111 O   0  0  0  0  0  0  0  0  0  0  0  0
   49.9966    7.6279    6.9073 O   0  5  0  0  0  0  0  0  0  0  0  0
   50.8325    6.3751    9.0590 O   0  0  0  0  0  0  0  0  0  0  0  0
   49.0956   12.5935   10.3870 C   0  0  2  0  0  0  0  0  0  0  0  0
   48.5387   12.3070   11.6826 O   0  0  0  0  0  0  0  0  0  0  0  0
   48.1617   13.5326    9.5813 C   0  0  2  0  0  0  0  0  0  0  0  0
   47.9377   14.7760   10.3283 O   0  0  0  0  0  0  0  0  0  0  0  0
   46.8170   12.8141    9.3625 C   0  0  1  0  0  0  0  0  0  0  0  0
   45.9336   13.6571    8.6133 O   0  0  0  0  0  0  0  0  0  0  0  0
   47.0861   11.5189    8.5806 C   0  0  2  0  0  0  0  0  0  0  0  0
   45.8404   10.8193    8.3719 O   0  0  0  0  0  0  0  0  0  0  0  0
   48.0572   10.6353    9.4115 C   0  0  2  0  0  0  0  0  0  0  0  0
   49.3102   11.3501    9.6397 O   0  0  0  0  0  0  0  0  0  0  0  0
   48.3583    9.3498    8.6197 C   0  0  0  0  0  0  0  0  0  0  0  0
   49.3622    8.5718    9.2830 O   0  0  0  0  0  0  0  0  0  0  0  0
  1  2  1  6  0  0  0
  1  3  1  0  0  0  0
  1  4  2  0  0  0  0
  1 16  1  0  0  0  0
  5  6  1  1  0  0  0
  5  7  1  0  0  0  0
  5 14  1  0  0  0  0
  7  8  1  1  0  0  0
  7  9  1  0  0  0  0
  9 10  1  6  0  0  0
  9 11  1  0  0  0  0
 11 12  1  1  0  0  0
 11 13  1  0  0  0  0
 13 14  1  0  0  0  0
 13 15  1  6  0  0  0
 15 16  1  0  0  0  0
M  CHG  1   3  -1
M  END
>  <CHROM.1>
173.75904315,179.11086698,-64.79194142,48.43877224,10.31118609,9.10877360
-1.17381923,-0.55874028,0.43824474

>  <Name>
ligand

>  <RI>
0

>  <Rbt.Current_Directory>
/home/itssahil/PROJECTS/Mol_Feturizer/New_Systems/rnas/2HO7

>  <Rbt.Executable>
rbdock ($Id: //depot/dev/client3/rdock/2013.1/src/exe/rbdock.cxx#4 $)

>  <Rbt.Library>
libRbt.so (2013.1, Build901 2013/11/27)

>  <Rbt.Parameter_File>
/export/apps/rDock/src/rDock_2013.1_src/data/scripts/dock_solv.prm

>  <Rbt.Receptor>
prm/blind_docking_100.prm

>  <SCORE>
-8.90849

>  <SCORE.INTER>
-9.08684

>  <SCORE.INTER.CONST>
1

>  <SCORE.INTER.POLAR>
-2.07557

>  <SCORE.INTER.ROT>
3

>  <SCORE.INTER.SOLV>
16.8087

>  <SCORE.INTER.VDW>
-10.3422

>  <SCORE.INTER.norm>
-0.567927

>  <SCORE.INTRA>
0.178351

>  <SCORE.INTRA.DIHEDRAL>
0.173326

>  <SCORE.INTRA.DIHEDRAL.0>
0.00893466

>  <SCORE.INTRA.POLAR>
0

>  <SCORE.INTRA.POLAR.0>
0

>  <SCORE.INTRA.REPUL>
0

>  <SCORE.INTRA.REPUL.0>
0

>  <SCORE.INTRA.SOLV>
0.0710355

>  <SCORE.INTRA.SOLV.lig_0>
-48.9722

>  <SCORE.INTRA.VDW>
0.0561697

>  <SCORE.INTRA.VDW.0>
-0.529409

>  <SCORE.INTRA.norm>
0.0111469

>  <SCORE.RESTR>
0

>  <SCORE.RESTR.CAVITY>
0

>  <SCORE.RESTR.norm>
0

>  <SCORE.SYSTEM>
0

>  <SCORE.SYSTEM.CONST>
0

>  <SCORE.SYSTEM.DIHEDRAL>
0

>  <SCORE.SYSTEM.SOLV>
0

>  <SCORE.SYSTEM.norm>
0

>  <SCORE.heavy>
16

>  <SCORE.norm>
-0.55678

>  <RMSD>
5.819

$$$$
ligand
 OpenBabel11021811433D
libRbt.so/2013.1/901 2013/11/27
 16 16  0  0  0  0  0  0  0  0999 V2000
   41.5400   17.7494   11.7425 P   0  0  2  0  0  0  0  0  0  0  0  0
   41.0800   18.9522   12.4800 O   0  0  0  0  0  0  0  0  0  0  0  0
   42.6613   18.1788   10.6710 O   0  5  0  0  0  0  0  0  0  0  0  0
   40.2841   17.1026   10.9693 O   0  0  0  0  0  0  0  0  0  0  0  0
   43.0374   12.7864   14.4221 C   0  0  2  0  0  0  0  0  0  0  0  0
   43.7104   13.4111   15.5300 O   0  0  0  0  0  0  0  0  0  0  0  0
   44.0058   11.8638   13.6385 C   0  0  2  0  0  0  0  0  0  0  0  0
   44.5645   10.8468   14.5372 O   0  0  0  0  0  0  0  0  0  0  0  0
   45.1459   12.7265   13.0653 C   0  0  1  0  0  0  0  0  0  0  0  0
   46.0554   11.9002   12.3287 O   0  0  0  0  0  0  0  0  0  0  0  0
   44.5287   13.7795   12.1318 C   0  0  2  0  0  0  0  0  0  0  0  0
   45.5776   14.6103   11.5892 O   0  0  0  0  0  0  0  0  0  0  0  0
   43.5382   14.6476   12.9559 C   0  0  2  0  0  0  0  0  0  0  0  0
   42.4878   13.8049   13.5214 O   0  0  0  0  0  0  0  0  0  0  0  0
   42.8902   15.6842   12.0201 C   0  0  0  0  0  0  0  0  0  0  0  0
   42.1780   16.6713   12.7761 O   0  0  0  0  0  0  0  0  0  0  0  0
  1  2  1  1  0  0  0
  1  3  1  0  0  0  0
  1  4  2  0  0  0  0
  1 16  1  0  0  0  0
  5  6  1  1  0  0  0
  5  7  1  0  0  0  0
  5 14  1  0  0  0  0
  7  8  1  1  0  0  0
  7  9  1  0  0  0  0
  9 10  1  6  0  0  0
  9 11  1  0  0  0  0
 11 12  1  1  0  0  0
 11 13  1  0  0  0  0
 13 14  1  0  0  0  0
 13 15  1  6  0  0  0
 15 16  1  0  0  0  0
M  CHG  1   3  -1
M  END
>  <CHROM.1>
-168.48876563,179.00323913,-166.40031853,43.18596041,14.93184245,12.69125950
2.17909758,0.62005654,-0.72732398

>  <Name>
ligand

>  <RI>
0

>  <Rbt.Current_Directory>
/home/itssahil/PROJECTS/Mol_Feturizer/New_Systems/rnas/2HO7

>  <Rbt.Executable>
rbdock ($Id: //depot/dev/client3/rdock/2013.1/src/exe/rbdock.cxx#4 $)

>  <Rbt.Library>
libRbt.so (2013.1, Build901 2013/11/27)

>  <Rbt.Parameter_File>
/export/apps/rDock/src/rDock_2013.1_src/data/scripts/dock_solv.prm

>  <Rbt.Receptor>
prm/pocket_docking_7.prm

>  <SCORE>
-8.22594

>  <SCORE.INTER>
-8.95526

>  <SCORE.INTER.CONST>
1

>  <SCORE.INTER.POLAR>
0

>  <SCORE.INTER.ROT>
3

>  <SCORE.INTER.SOLV>
15.6949

>  <SCORE.INTER.VDW>
-16.8018

>  <SCORE.INTER.norm>
-0.559704

>  <SCORE.INTRA>
0.72933

>  <SCORE.INTRA.DIHEDRAL>
0.750842

>  <SCORE.INTRA.DIHEDRAL.0>
0.00893466

>  <SCORE.INTRA.POLAR>
0

>  <SCORE.INTRA.POLAR.0>
0

>  <SCORE.INTRA.REPUL>
0

>  <SCORE.INTRA.REPUL.0>
0

>  <SCORE.INTRA.SOLV>
0.61403

>  <SCORE.INTRA.SOLV.lig_0>
-48.9722

>  <SCORE.INTRA.VDW>
0.0468934

>  <SCORE.INTRA.VDW.0>
-0.529409

>  <SCORE.INTRA.norm>
0.0455831

>  <SCORE.RESTR>
0

>  <SCORE.RESTR.CAVITY>
0

>  <SCORE.RESTR.norm>
0

>  <SCORE.SYSTEM>
0

>  <SCORE.SYSTEM.CONST>
0

>  <SCORE.SYSTEM.DIHEDRAL>
0

>  <SCORE.SYSTEM.SOLV>
0

>  <SCORE.SYSTEM.norm>
0

>  <SCORE.heavy>
16

>  <SCORE.norm>
-0.514121

>  <RMSD>
5.860

$$$$
ligand
 OpenBabel11021811433D
libRbt.so/2013.1/901 2013/11/27
 16 16  0  0  0  0  0  0  0  0999 V2000
   41.4388   17.6253   11.6179 P   0  0  2  0  0  0  0  0  0  0  0  0
   40.2117   17.0577   11.0061 O   0  0  0  0  0  0  0  0  0  0  0  0
   41.0670   18.9871   12.3906 O   0  5  0  0  0  0  0  0  0  0  0  0
   42.4998   17.9479   10.4502 O   0  0  0  0  0  0  0  0  0  0  0  0
   43.0490   12.7158   14.4111 C   0  0  2  0  0  0  0  0  0  0  0  0
   43.6880   13.3993   15.5042 O   0  0  0  0  0  0  0  0  0  0  0  0
   44.0641   11.8260   13.6489 C   0  0  2  0  0  0  0  0  0  0  0  0
   44.6729   10.8598   14.5707 O   0  0  0  0  0  0  0  0  0  0  0  0
   45.1592   12.7323   13.0559 C   0  0  1  0  0  0  0  0  0  0  0  0
   46.1105   11.9368   12.3384 O   0  0  0  0  0  0  0  0  0  0  0  0
   44.4902   13.7307   12.0984 C   0  0  2  0  0  0  0  0  0  0  0  0
   45.4959   14.6013   11.5366 O   0  0  0  0  0  0  0  0  0  0  0  0
   43.4557   14.5659   12.9024 C   0  0  2  0  0  0  0  0  0  0  0  0
   42.4491   13.6839   13.4872 O   0  0  0  0  0  0  0  0  0  0  0  0
   42.7567   15.5462   11.9430 C   0  0  0  0  0  0  0  0  0  0  0  0
   42.0737   16.5700   12.6767 O   0  0  0  0  0  0  0  0  0  0  0  0
  1  2  1  6  0  0  0
  1  3  1  0  0  0  0
  1  4  2  0  0  0  0
  1 16  1  0  0  0  0
  5  6  1  1  0  0  0
  5  7  1  0  0  0  0
  5 14  1  0  0  0  0
  7  8  1  1  0  0  0
  7  9  1  0  0  0  0
  9 10  1  6  0  0  0
  9 11  1  0  0  0  0
 11 12  1  1  0  0  0
 11 13  1  0  0  0  0
 13 14  1  0  0  0  0
 13 15  1  6  0  0  0
 15 16  1  0  0  0  0
M  CHG  1   3  -1
M  END
>  <CHROM.1>
-164.30435705,176.37433550,77.08641707,43.14350067,14.86979627,12.63901399
2.20154621,0.61668153,-0.76428749

>  <Name>
ligand

>  <RI>
0

>  <Rbt.Current_Directory>
/home/itssahil/PROJECTS/Mol_Feturizer/New_Systems/rnas/2HO7

>  <Rbt.Executable>
rbdock ($Id: //depot/dev/client3/rdock/2013.1/src/exe/rbdock.cxx#4 $)

>  <Rbt.Library>
libRbt.so (2013.1, Build901 2013/11/27)

>  <Rbt.Parameter_File>
/export/apps/rDock/src/rDock_2013.1_src/data/scripts/dock_solv.prm

>  <Rbt.Receptor>
prm/pocket_docking_8.prm

>  <SCORE>
-10.3371

>  <SCORE.INTER>
-11.1577

>  <SCORE.INTER.CONST>
1

>  <SCORE.INTER.POLAR>
0

>  <SCORE.INTER.ROT>
3

>  <SCORE.INTER.SOLV>
12.6407

>  <SCORE.INTER.VDW>
-17.2521

>  <SCORE.INTER.norm>
-0.697358

>  <SCORE.INTRA>
0.820662

>  <SCORE.INTRA.DIHEDRAL>
1.34483

>  <SCORE.INTRA.DIHEDRAL.0>
0.00893466

>  <SCORE.INTRA.POLAR>
0

>  <SCORE.INTRA.POLAR.0>
0

>  <SCORE.INTRA.REPUL>
0

>  <SCORE.INTRA.REPUL.0>
0

>  <SCORE.INTRA.SOLV>
0.112231

>  <SCORE.INTRA.SOLV.lig_0>
-48.9722

>  <SCORE.INTRA.VDW>
0.0921299

>  <SCORE.INTRA.VDW.0>
-0.529409

>  <SCORE.INTRA.norm>
0.0512913

>  <SCORE.RESTR>
0

>  <SCORE.RESTR.CAVITY>
0

>  <SCORE.RESTR.norm>
0

>  <SCORE.SYSTEM>
0

>  <SCORE.SYSTEM.CONST>
0

>  <SCORE.SYSTEM.DIHEDRAL>
0

>  <SCORE.SYSTEM.SOLV>
0

>  <SCORE.SYSTEM.norm>
0

>  <SCORE.heavy>
16

>  <SCORE.norm>
-0.646067

>  <RMSD>
5.892

$$$$
ligand
 OpenBabel11021811433D
libRbt.so/2013.1/901 2013/11/27
 16 16  0  0  0  0  0  0  0  0999 V2000
   41.4212   17.6540   11.5804 P   0  0  2  0  0  0  0  0  0  0  0  0
   40.2177   17.0574   10.9498 O   0  0  0  0  0  0  0  0  0  0  0  0
   41.0063   19.0098   12.3416 O   0  5  0  0  0  0  0  0  0  0  0  0
   42.4947   17.9962   10.4297 O   0  0  0  0  0  0  0  0  0  0  0  0
   43.0058   12.7842   14.4061 C   0  0  2  0  0  0  0  0  0  0  0  0
   43.6219   13.4604   15.5170 O   0  0  0  0  0  0  0  0  0  0  0  0
   44.0329   11.8872   13.6689 C   0  0  2  0  0  0  0  0  0  0  0  0
   44.6093   10.9142   14.6044 O   0  0  0  0  0  0  0  0  0  0  0  0
   45.1509   12.7852   13.1065 C   0  0  1  0  0  0  0  0  0  0  0  0
   46.1138   11.9830   12.4126 O   0  0  0  0  0  0  0  0  0  0  0  0
   44.5156   13.7911   12.1339 C   0  0  2  0  0  0  0  0  0  0  0  0
   45.5430   14.6540   11.6004 O   0  0  0  0  0  0  0  0  0  0  0  0
   43.4676   14.6336   12.9123 C   0  0  2  0  0  0  0  0  0  0  0  0
   42.4386   13.7591   13.4689 O   0  0  0  0  0  0  0  0  0  0  0  0
   42.8022   15.6216   11.9370 C   0  0  0  0  0  0  0  0  0  0  0  0
   42.0611   16.6166   12.6537 O   0  0  0  0  0  0  0  0  0  0  0  0
  1  2  1  6  0  0  0
  1  3  1  0  0  0  0
  1  4  2  0  0  0  0
  1 16  1  0  0  0  0
  5  6  1  1  0  0  0
  5  7  1  0  0  0  0
  5 14  1  0  0  0  0
  7  8  1  1  0  0  0
  7  9  1  0  0  0  0
  9 10  1  6  0  0  0
  9 11  1  0  0  0  0
 11 12  1  1  0  0  0
 11 13  1  0  0  0  0
 13 14  1  0  0  0  0
 13 15  1  6  0  0  0
 15 16  1  0  0  0  0
M  CHG  1   3  -1
M  END
>  <CHROM.1>
-166.79425347,178.28510244,78.27257616,43.13132116,14.91899723,12.64089486
2.19008350,0.59397240,-0.75676005

>  <Name>
ligand

>  <RI>
0

>  <Rbt.Current_Directory>
/home/itssahil/PROJECTS/Mol_Feturizer/New_Systems/rnas/2HO7

>  <Rbt.Executable>
rbdock ($Id: //depot/dev/client3/rdock/2013.1/src/exe/rbdock.cxx#4 $)

>  <Rbt.Library>
libRbt.so (2013.1, Build901 2013/11/27)

>  <Rbt.Parameter_File>
/export/apps/rDock/src/rDock_2013.1_src/data/scripts/dock_solv.prm

>  <Rbt.Receptor>
prm/pocket_docking_8.prm

>  <SCORE>
-10.3612

>  <SCORE.INTER>
-11.1023

>  <SCORE.INTER.CONST>
1

>  <SCORE.INTER.POLAR>
0

>  <SCORE.INTER.ROT>
3

>  <SCORE.INTER.SOLV>
12.8893

>  <SCORE.INTER.VDW>
-17.2979

>  <SCORE.INTER.norm>
-0.693891

>  <SCORE.INTRA>
0.74109

>  <SCORE.INTRA.DIHEDRAL>
1.11819

>  <SCORE.INTRA.DIHEDRAL.0>
0.00893466

>  <SCORE.INTRA.POLAR>
0

>  <SCORE.INTRA.POLAR.0>
0

>  <SCORE.INTRA.REPUL>
0

>  <SCORE.INTRA.REPUL.0>
0

>  <SCORE.INTRA.SOLV>
0.132479

>  <SCORE.INTRA.SOLV.lig_0>
-48.9722

>  <SCORE.INTRA.VDW>
0.115753

>  <SCORE.INTRA.VDW.0>
-0.529409

>  <SCORE.INTRA.norm>
0.0463181

>  <SCORE.RESTR>
0

>  <SCORE.RESTR.CAVITY>
0

>  <SCORE.RESTR.norm>
0

>  <SCORE.SYSTEM>
0

>  <SCORE.SYSTEM.CONST>
0

>  <SCORE.SYSTEM.DIHEDRAL>
0

>  <SCORE.SYSTEM.SOLV>
0

>  <SCORE.SYSTEM.norm>
0

>  <SCORE.heavy>
16

>  <SCORE.norm>
-0.647573

>  <RMSD>
5.915

$$$$
ligand
 OpenBabel11021811433D
libRbt.so/2013.1/901 2013/11/27
 16 16  0  0  0  0  0  0  0  0999 V2000
   41.4021   17.6392   11.6543 P   0  0  2  0  0  0  0  0  0  0  0  0
   40.1649   17.0748   11.0600 O   0  0  0  0  0  0  0  0  0  0  0  0
   41.0476   19.0103   12.4187 O   0  5  0  0  0  0  0  0  0  0  0  0
   42.4533   17.9441   10.4730 O   0  0  0  0  0  0  0  0  0  0  0  0
   43.0006   12.7365   14.4428 C   0  0  2  0  0  0  0  0  0  0  0  0
   43.6270   13.4123   15.5481 O   0  0  0  0  0  0  0  0  0  0  0  0
   44.0230   11.8474   13.6896 C   0  0  2  0  0  0  0  0  0  0  0  0
   44.6164   10.8745   14.6145 O   0  0  0  0  0  0  0  0  0  0  0  0
   45.1289   12.7533   13.1162 C   0  0  1  0  0  0  0  0  0  0  0  0
   46.0872   11.9585   12.4074 O   0  0  0  0  0  0  0  0  0  0  0  0
   44.4759   13.7589   12.1551 C   0  0  2  0  0  0  0  0  0  0  0  0
   45.4918   14.6291   11.6115 O   0  0  0  0  0  0  0  0  0  0  0  0
   43.4333   14.5931   12.9495 C   0  0  2  0  0  0  0  0  0  0  0  0
   42.4162   13.7113   13.5161 O   0  0  0  0  0  0  0  0  0  0  0  0
   42.7504   15.5807   11.9860 C   0  0  0  0  0  0  0  0  0  0  0  0
   42.0405   16.5889   12.7159 O   0  0  0  0  0  0  0  0  0  0  0  0
  1  2  1  6  0  0  0
  1  3  1  0  0  0  0
  1  4  2  0  0  0  0
  1 16  1  0  0  0  0
  5  6  1  1  0  0  0
  5  7  1  0  0  0  0
  5 14  1  0  0  0  0
  7  8  1  1  0  0  0
  7  9  1  0  0  0  0
  9 10  1  6  0  0  0
  9 11  1  0  0  0  0
 11 12  1  1  0  0  0
 11 13  1  0  0  0  0
 13 14  1  0  0  0  0
 13 15  1  6  0  0  0
 15 16  1  0  0  0  0
M  CHG  1   3  -1
M  END
>  <CHROM.1>
-165.35571318,177.32636823,79.16821052,43.11027263,14.88954945,12.68340494
2.19584058,0.60512124,-0.75638880

>  <Name>
ligand

>  <RI>
0

>  <Rbt.Current_Directory>
/home/itssahil/PROJECTS/Mol_Feturizer/New_Systems/rnas/2HO7

>  <Rbt.Executable>
rbdock ($Id: //depot/dev/client3/rdock/2013.1/src/exe/rbdock.cxx#4 $)

>  <Rbt.Library>
libRbt.so (2013.1, Build901 2013/11/27)

>  <Rbt.Parameter_File>
/export/apps/rDock/src/rDock_2013.1_src/data/scripts/dock_solv.prm

>  <Rbt.Receptor>
prm/pocket_docking_8.prm

>  <SCORE>
-10.3731

>  <SCORE.INTER>
-11.234

>  <SCORE.INTER.CONST>
1

>  <SCORE.INTER.POLAR>
0

>  <SCORE.INTER.ROT>
3

>  <SCORE.INTER.SOLV>
12.9592

>  <SCORE.INTER.VDW>
-17.4091

>  <SCORE.INTER.norm>
-0.702127

>  <SCORE.INTRA>
0.860897

>  <SCORE.INTRA.DIHEDRAL>
1.31795

>  <SCORE.INTRA.DIHEDRAL.0>
0.00893466

>  <SCORE.INTRA.POLAR>
0

>  <SCORE.INTRA.POLAR.0>
0

>  <SCORE.INTRA.REPUL>
0

>  <SCORE.INTRA.REPUL.0>
0

>  <SCORE.INTRA.SOLV>
0.136042

>  <SCORE.INTRA.SOLV.lig_0>
-48.9722

>  <SCORE.INTRA.VDW>
0.133901

>  <SCORE.INTRA.VDW.0>
-0.529409

>  <SCORE.INTRA.norm>
0.053806

>  <SCORE.RESTR>
0

>  <SCORE.RESTR.CAVITY>
0

>  <SCORE.RESTR.norm>
0

>  <SCORE.SYSTEM>
0

>  <SCORE.SYSTEM.CONST>
0

>  <SCORE.SYSTEM.DIHEDRAL>
0

>  <SCORE.SYSTEM.SOLV>
0

>  <SCORE.SYSTEM.norm>
0

>  <SCORE.heavy>
16

>  <SCORE.norm>
-0.648321

>  <RMSD>
5.919

$$$$
ligand
 OpenBabel11021811433D
libRbt.so/2013.1/901 2013/11/27
 16 16  0  0  0  0  0  0  0  0999 V2000
   41.4165   17.6543   11.5966 P   0  0  2  0  0  0  0  0  0  0  0  0
   40.2146   17.0205   11.0001 O   0  0  0  0  0  0  0  0  0  0  0  0
   40.9866   19.0146   12.3412 O   0  5  0  0  0  0  0  0  0  0  0  0
   42.4604   17.9982   10.4195 O   0  0  0  0  0  0  0  0  0  0  0  0
   43.0039   12.8110   14.4558 C   0  0  2  0  0  0  0  0  0  0  0  0
   43.6348   13.4924   15.5551 O   0  0  0  0  0  0  0  0  0  0  0  0
   44.0174   11.8988   13.7185 C   0  0  2  0  0  0  0  0  0  0  0  0
   44.5937   10.9298   14.6582 O   0  0  0  0  0  0  0  0  0  0  0  0
   45.1378   12.7823   13.1384 C   0  0  1  0  0  0  0  0  0  0  0  0
   46.0882   11.9657   12.4439 O   0  0  0  0  0  0  0  0  0  0  0  0
   44.5024   13.7842   12.1617 C   0  0  2  0  0  0  0  0  0  0  0  0
   45.5323   14.6337   11.6115 O   0  0  0  0  0  0  0  0  0  0  0  0
   43.4679   14.6425   12.9409 C   0  0  2  0  0  0  0  0  0  0  0  0
   42.4367   13.7817   13.5143 O   0  0  0  0  0  0  0  0  0  0  0  0
   42.8024   15.6268   11.9620 C   0  0  0  0  0  0  0  0  0  0  0  0
   42.0989   16.6507   12.6759 O   0  0  0  0  0  0  0  0  0  0  0  0
  1  2  1  6  0  0  0
  1  3  1  0  0  0  0
  1  4  2  0  0  0  0
  1 16  1  0  0  0  0
  5  6  1  1  0  0  0
  5  7  1  0  0  0  0
  5 14  1  0  0  0  0
  7  8  1  1  0  0  0
  7  9  1  0  0  0  0
  9 10  1  6  0  0  0
  9 11  1  0  0  0  0
 11 12  1  1  0  0  0
 11 13  1  0  0  0  0
 13 14  1  0  0  0  0
 13 15  1  6  0  0  0
 15 16  1  0  0  0  0
M  CHG  1   3  -1
M  END
>  <CHROM.1>
-165.57609439,-179.86812798,75.92698449,43.12475951,14.92355171,12.66906718
2.19372693,0.60366453,-0.76869653

>  <Name>
ligand

>  <RI>
0

>  <Rbt.Current_Directory>
/home/itssahil/PROJECTS/Mol_Feturizer/New_Systems/rnas/2HO7

>  <Rbt.Executable>
rbdock ($Id: //depot/dev/client3/rdock/2013.1/src/exe/rbdock.cxx#4 $)

>  <Rbt.Library>
libRbt.so (2013.1, Build901 2013/11/27)

>  <Rbt.Parameter_File>
/export/apps/rDock/src/rDock_2013.1_src/data/scripts/dock_solv.prm

>  <Rbt.Receptor>
prm/pocket_docking_7.prm

>  <SCORE>
-10.3252

>  <SCORE.INTER>
-11.0185

>  <SCORE.INTER.CONST>
1

>  <SCORE.INTER.POLAR>
0

>  <SCORE.INTER.ROT>
3

>  <SCORE.INTER.SOLV>
13.0886

>  <SCORE.INTER.VDW>
-17.3086

>  <SCORE.INTER.norm>
-0.688659

>  <SCORE.INTRA>
0.693325

>  <SCORE.INTRA.DIHEDRAL>
1.10032

>  <SCORE.INTRA.DIHEDRAL.0>
0.00893466

>  <SCORE.INTRA.POLAR>
0

>  <SCORE.INTRA.POLAR.0>
0

>  <SCORE.INTRA.REPUL>
0

>  <SCORE.INTRA.REPUL.0>
0

>  <SCORE.INTRA.SOLV>
0.107561

>  <SCORE.INTRA.SOLV.lig_0>
-48.9722

>  <SCORE.INTRA.VDW>
0.0893843

>  <SCORE.INTRA.VDW.0>
-0.529409

>  <SCORE.INTRA.norm>
0.0433328

>  <SCORE.RESTR>
0

>  <SCORE.RESTR.CAVITY>
0

>  <SCORE.RESTR.norm>
0

>  <SCORE.SYSTEM>
0

>  <SCORE.SYSTEM.CONST>
0

>  <SCORE.SYSTEM.DIHEDRAL>
0

>  <SCORE.SYSTEM.SOLV>
0

>  <SCORE.SYSTEM.norm>
0

>  <SCORE.heavy>
16

>  <SCORE.norm>
-0.645326

>  <RMSD>
5.920

$$$$
ligand
 OpenBabel11021811433D
libRbt.so/2013.1/901 2013/11/27
 16 16  0  0  0  0  0  0  0  0999 V2000
   44.3040   12.2166   14.0549 P   0  0  2  0  0  0  0  0  0  0  0  0
   43.0703   11.3997   14.1677 O   0  0  0  0  0  0  0  0  0  0  0  0
   45.2344   11.6167   12.8868 O   0  5  0  0  0  0  0  0  0  0  0  0
   45.0985   12.1533   15.4543 O   0  0  0  0  0  0  0  0  0  0  0  0
   41.8953   17.3027   12.9461 C   0  0  2  0  0  0  0  0  0  0  0  0
   40.8560   17.3372   11.9515 O   0  0  0  0  0  0  0  0  0  0  0  0
   43.1592   18.0495   12.4483 C   0  0  2  0  0  0  0  0  0  0  0  0
   42.8198   19.4370   12.1109 O   0  0  0  0  0  0  0  0  0  0  0  0
   43.6897   17.3298   11.1942 C   0  0  1  0  0  0  0  0  0  0  0  0
   44.8642   17.9951   10.7141 O   0  0  0  0  0  0  0  0  0  0  0  0
   44.0340   15.8828   11.5802 C   0  0  2  0  0  0  0  0  0  0  0  0
   44.5238   15.1816   10.4169 O   0  0  0  0  0  0  0  0  0  0  0  0
   42.7454   15.1949   12.1098 C   0  0  2  0  0  0  0  0  0  0  0  0
   42.2384   15.9153   13.2748 O   0  0  0  0  0  0  0  0  0  0  0  0
   43.0892   13.7544   12.5302 C   0  0  0  0  0  0  0  0  0  0  0  0
   43.9242   13.7540   13.6946 O   0  0  0  0  0  0  0  0  0  0  0  0
  1  2  1  1  0  0  0
  1  3  1  0  0  0  0
  1  4  2  0  0  0  0
  1 16  1  0  0  0  0
  5  6  1  6  0  0  0
  5  7  1  0  0  0  0
  5 14  1  0  0  0  0
  7  8  1  6  0  0  0
  7  9  1  0  0  0  0
  9 10  1  1  0  0  0
  9 11  1  0  0  0  0
 11 12  1  6  0  0  0
 11 13  1  0  0  0  0
 13 14  1  0  0  0  0
 13 15  1  1  0  0  0
 15 16  1  0  0  0  0
M  CHG  1   3  -1
M  END
>  <CHROM.1>
68.85238091,-177.69192956,-53.38014924,43.54519215,15.02753865,12.71413718
1.30575471,-0.60416971,2.61468708

>  <Name>
ligand

>  <RI>
0

>  <Rbt.Current_Directory>
/home/itssahil/PROJECTS/Mol_Feturizer/New_Systems/rnas/2HO7

>  <Rbt.Executable>
rbdock ($Id: //depot/dev/client3/rdock/2013.1/src/exe/rbdock.cxx#4 $)

>  <Rbt.Library>
libRbt.so (2013.1, Build901 2013/11/27)

>  <Rbt.Parameter_File>
/export/apps/rDock/src/rDock_2013.1_src/data/scripts/dock_solv.prm

>  <Rbt.Receptor>
prm/pocket_docking_7.prm

>  <SCORE>
-7.14642

>  <SCORE.INTER>
-7.40639

>  <SCORE.INTER.CONST>
1

>  <SCORE.INTER.POLAR>
0

>  <SCORE.INTER.ROT>
3

>  <SCORE.INTER.SOLV>
14.3248

>  <SCORE.INTER.VDW>
-15.3125

>  <SCORE.INTER.norm>
-0.4629

>  <SCORE.INTRA>
0.259972

>  <SCORE.INTRA.DIHEDRAL>
0.366082

>  <SCORE.INTRA.DIHEDRAL.0>
0.00893466

>  <SCORE.INTRA.POLAR>
0

>  <SCORE.INTRA.POLAR.0>
0

>  <SCORE.INTRA.REPUL>
0

>  <SCORE.INTRA.REPUL.0>
0

>  <SCORE.INTRA.SOLV>
0.237538

>  <SCORE.INTRA.SOLV.lig_0>
-48.9722

>  <SCORE.INTRA.VDW>
-0.0418381

>  <SCORE.INTRA.VDW.0>
-0.529409

>  <SCORE.INTRA.norm>
0.0162482

>  <SCORE.RESTR>
0

>  <SCORE.RESTR.CAVITY>
0

>  <SCORE.RESTR.norm>
0

>  <SCORE.SYSTEM>
0

>  <SCORE.SYSTEM.CONST>
0

>  <SCORE.SYSTEM.DIHEDRAL>
0

>  <SCORE.SYSTEM.SOLV>
0

>  <SCORE.SYSTEM.norm>
0

>  <SCORE.heavy>
16

>  <SCORE.norm>
-0.446651

>  <RMSD>
5.925

$$$$
ligand
 OpenBabel11021811433D
libRbt.so/2013.1/901 2013/11/27
 16 16  0  0  0  0  0  0  0  0999 V2000
   41.1691   17.6285   11.7215 P   0  0  2  0  0  0  0  0  0  0  0  0
   39.6930   17.6355   11.5691 O   0  0  0  0  0  0  0  0  0  0  0  0
   41.5903   18.6741   12.8700 O   0  5  0  0  0  0  0  0  0  0  0  0
   41.8374   18.0729   10.3253 O   0  0  0  0  0  0  0  0  0  0  0  0
   43.0575   12.9551   14.4532 C   0  0  2  0  0  0  0  0  0  0  0  0
   44.3270   13.0519   15.1237 O   0  0  0  0  0  0  0  0  0  0  0  0
   43.1478   11.9967   13.2382 C   0  0  2  0  0  0  0  0  0  0  0  0
   43.5959   10.6706   13.6796 O   0  0  0  0  0  0  0  0  0  0  0  0
   44.1627   12.5751   12.2342 C   0  0  1  0  0  0  0  0  0  0  0  0
   44.2628   11.7121   11.0950 O   0  0  0  0  0  0  0  0  0  0  0  0
   43.6660   13.9609   11.7936 C   0  0  2  0  0  0  0  0  0  0  0  0
   44.6075   14.5309   10.8589 O   0  0  0  0  0  0  0  0  0  0  0  0
   43.5541   14.8663   13.0513 C   0  0  2  0  0  0  0  0  0  0  0  0
   42.6166   14.2802   14.0057 O   0  0  0  0  0  0  0  0  0  0  0  0
   43.0250   16.2471   12.6228 C   0  0  0  0  0  0  0  0  0  0  0  0
   41.6796   16.1448   12.1406 O   0  0  0  0  0  0  0  0  0  0  0  0
  1  2  1  6  0  0  0
  1  3  1  0  0  0  0
  1  4  2  0  0  0  0
  1 16  1  0  0  0  0
  5  6  1  6  0  0  0
  5  7  1  0  0  0  0
  5 14  1  0  0  0  0
  7  8  1  1  0  0  0
  7  9  1  0  0  0  0
  9 10  1  6  0  0  0
  9 11  1  0  0  0  0
 11 12  1  6  0  0  0
 11 13  1  0  0  0  0
 13 14  1  0  0  0  0
 13 15  1  6  0  0  0
 15 16  1  0  0  0  0
M  CHG  1   3  -1
M  END
>  <CHROM.1>
66.03797341,179.31836359,-164.74522027,42.73512447,14.93197636,12.47582387
2.50194218,1.02652996,-1.11471846

>  <Name>
ligand

>  <RI>
0

>  <Rbt.Current_Directory>
/home/itssahil/PROJECTS/Mol_Feturizer/New_Systems/rnas/2HO7

>  <Rbt.Executable>
rbdock ($Id: //depot/dev/client3/rdock/2013.1/src/exe/rbdock.cxx#4 $)

>  <Rbt.Library>
libRbt.so (2013.1, Build901 2013/11/27)

>  <Rbt.Parameter_File>
/export/apps/rDock/src/rDock_2013.1_src/data/scripts/dock_solv.prm

>  <Rbt.Receptor>
prm/pocket_docking_7.prm

>  <SCORE>
-10.0395

>  <SCORE.INTER>
-10.7039

>  <SCORE.INTER.CONST>
1

>  <SCORE.INTER.POLAR>
0

>  <SCORE.INTER.ROT>
3

>  <SCORE.INTER.SOLV>
13.168

>  <SCORE.INTER.VDW>
-17.1252

>  <SCORE.INTER.norm>
-0.668992

>  <SCORE.INTRA>
0.664362

>  <SCORE.INTRA.DIHEDRAL>
0.485466

>  <SCORE.INTRA.DIHEDRAL.0>
0.00893466

>  <SCORE.INTRA.POLAR>
0

>  <SCORE.INTRA.POLAR.0>
0

>  <SCORE.INTRA.REPUL>
0

>  <SCORE.INTRA.REPUL.0>
0

>  <SCORE.INTRA.SOLV>
0.887371

>  <SCORE.INTRA.SOLV.lig_0>
-48.9722

>  <SCORE.INTRA.VDW>
-0.0220572

>  <SCORE.INTRA.VDW.0>
-0.529409

>  <SCORE.INTRA.norm>
0.0415226

>  <SCORE.RESTR>
0

>  <SCORE.RESTR.CAVITY>
0

>  <SCORE.RESTR.norm>
0

>  <SCORE.SYSTEM>
0

>  <SCORE.SYSTEM.CONST>
0

>  <SCORE.SYSTEM.DIHEDRAL>
0

>  <SCORE.SYSTEM.SOLV>
0

>  <SCORE.SYSTEM.norm>
0

>  <SCORE.heavy>
16

>  <SCORE.norm>
-0.627469

>  <RMSD>
5.925

$$$$
ligand
 OpenBabel11021811433D
libRbt.so/2013.1/901 2013/11/27
 16 16  0  0  0  0  0  0  0  0999 V2000
   41.3987   17.6870   11.6294 P   0  0  2  0  0  0  0  0  0  0  0  0
   40.1554   17.1174   11.0531 O   0  0  0  0  0  0  0  0  0  0  0  0
   41.0495   19.0562   12.3995 O   0  5  0  0  0  0  0  0  0  0  0  0
   42.4311   17.9970   10.4329 O   0  0  0  0  0  0  0  0  0  0  0  0
   43.0121   12.7804   14.3733 C   0  0  2  0  0  0  0  0  0  0  0  0
   43.6472   13.4414   15.4825 O   0  0  0  0  0  0  0  0  0  0  0  0
   44.0249   11.8890   13.6099 C   0  0  2  0  0  0  0  0  0  0  0  0
   44.6124   10.9033   14.5249 O   0  0  0  0  0  0  0  0  0  0  0  0
   45.1370   12.7902   13.0411 C   0  0  1  0  0  0  0  0  0  0  0  0
   46.0866   11.9933   12.3230 O   0  0  0  0  0  0  0  0  0  0  0  0
   44.4901   13.8094   12.0902 C   0  0  2  0  0  0  0  0  0  0  0  0
   45.5120   14.6755   11.5513 O   0  0  0  0  0  0  0  0  0  0  0  0
   43.4569   14.6458   12.8945 C   0  0  2  0  0  0  0  0  0  0  0  0
   42.4337   13.7680   13.4564 O   0  0  0  0  0  0  0  0  0  0  0  0
   42.7799   15.6473   11.9412 C   0  0  0  0  0  0  0  0  0  0  0  0
   42.0572   16.6390   12.6810 O   0  0  0  0  0  0  0  0  0  0  0  0
  1  2  1  6  0  0  0
  1  3  1  0  0  0  0
  1  4  2  0  0  0  0
  1 16  1  0  0  0  0
  5  6  1  1  0  0  0
  5  7  1  0  0  0  0
  5 14  1  0  0  0  0
  7  8  1  1  0  0  0
  7  9  1  0  0  0  0
  9 10  1  6  0  0  0
  9 11  1  0  0  0  0
 11 12  1  1  0  0  0
 11 13  1  0  0  0  0
 13 14  1  0  0  0  0
 13 15  1  6  0  0  0
 15 16  1  0  0  0  0
M  CHG  1   3  -1
M  END
>  <CHROM.1>
-166.57269230,178.53603854,80.14794684,43.11707417,14.93500411,12.63124932
2.20039804,0.60757156,-0.75125206

>  <Name>
ligand

>  <RI>
0

>  <Rbt.Current_Directory>
/home/itssahil/PROJECTS/Mol_Feturizer/New_Systems/rnas/2HO7

>  <Rbt.Executable>
rbdock ($Id: //depot/dev/client3/rdock/2013.1/src/exe/rbdock.cxx#4 $)

>  <Rbt.Library>
libRbt.so (2013.1, Build901 2013/11/27)

>  <Rbt.Parameter_File>
/export/apps/rDock/src/rDock_2013.1_src/data/scripts/dock_solv.prm

>  <Rbt.Receptor>
prm/pocket_docking_8.prm

>  <SCORE>
-10.4223

>  <SCORE.INTER>
-11.2695

>  <SCORE.INTER.CONST>
1

>  <SCORE.INTER.POLAR>
0

>  <SCORE.INTER.ROT>
3

>  <SCORE.INTER.SOLV>
12.6401

>  <SCORE.INTER.VDW>
-17.3264

>  <SCORE.INTER.norm>
-0.704343

>  <SCORE.INTRA>
0.8472

>  <SCORE.INTRA.DIHEDRAL>
1.2333

>  <SCORE.INTRA.DIHEDRAL.0>
0.00893466

>  <SCORE.INTRA.POLAR>
0

>  <SCORE.INTRA.POLAR.0>
0

>  <SCORE.INTRA.REPUL>
0

>  <SCORE.INTRA.REPUL.0>
0

>  <SCORE.INTRA.SOLV>
0.150228

>  <SCORE.INTRA.SOLV.lig_0>
-48.9722

>  <SCORE.INTRA.VDW>
0.155434

>  <SCORE.INTRA.VDW.0>
-0.529409

>  <SCORE.INTRA.norm>
0.05295

>  <SCORE.RESTR>
0

>  <SCORE.RESTR.CAVITY>
0

>  <SCORE.RESTR.norm>
0

>  <SCORE.SYSTEM>
0

>  <SCORE.SYSTEM.CONST>
0

>  <SCORE.SYSTEM.DIHEDRAL>
0

>  <SCORE.SYSTEM.SOLV>
0

>  <SCORE.SYSTEM.norm>
0

>  <SCORE.heavy>
16

>  <SCORE.norm>
-0.651393

>  <RMSD>
5.930

$$$$
ligand
 OpenBabel11021811433D
libRbt.so/2013.1/901 2013/11/27
 16 16  0  0  0  0  0  0  0  0999 V2000
   41.3444   17.5891   11.6171 P   0  0  2  0  0  0  0  0  0  0  0  0
   40.1185   16.9910   11.0325 O   0  0  0  0  0  0  0  0  0  0  0  0
   40.9610   18.9586   12.3704 O   0  5  0  0  0  0  0  0  0  0  0  0
   42.3841   17.9075   10.4291 O   0  0  0  0  0  0  0  0  0  0  0  0
   43.0131   12.7334   14.4322 C   0  0  2  0  0  0  0  0  0  0  0  0
   43.6295   13.4208   15.5360 O   0  0  0  0  0  0  0  0  0  0  0  0
   44.0468   11.8520   13.6855 C   0  0  2  0  0  0  0  0  0  0  0  0
   44.6482   10.8896   14.6162 O   0  0  0  0  0  0  0  0  0  0  0  0
   45.1443   12.7670   13.1107 C   0  0  1  0  0  0  0  0  0  0  0  0
   46.1128   11.9793   12.4078 O   0  0  0  0  0  0  0  0  0  0  0  0
   44.4831   13.7613   12.1435 C   0  0  2  0  0  0  0  0  0  0  0  0
   45.4910   14.6398   11.5985 O   0  0  0  0  0  0  0  0  0  0  0  0
   43.4297   14.5879   12.9316 C   0  0  2  0  0  0  0  0  0  0  0  0
   42.4207   13.6978   13.4998 O   0  0  0  0  0  0  0  0  0  0  0  0
   42.7387   15.5638   11.9621 C   0  0  0  0  0  0  0  0  0  0  0  0
   42.0106   16.5635   12.6856 O   0  0  0  0  0  0  0  0  0  0  0  0
  1  2  1  6  0  0  0
  1  3  1  0  0  0  0
  1  4  2  0  0  0  0
  1 16  1  0  0  0  0
  5  6  1  1  0  0  0
  5  7  1  0  0  0  0
  5 14  1  0  0  0  0
  7  8  1  1  0  0  0
  7  9  1  0  0  0  0
  9 10  1  6  0  0  0
  9 11  1  0  0  0  0
 11 12  1  1  0  0  0
 11 13  1  0  0  0  0
 13 14  1  0  0  0  0
 13 15  1  6  0  0  0
 15 16  1  0  0  0  0
M  CHG  1   3  -1
M  END
>  <CHROM.1>
-165.65880714,178.20544446,79.05501638,43.09481269,14.87332852,12.66308804
2.20813205,0.59323503,-0.76821772

>  <Name>
ligand

>  <RI>
0

>  <Rbt.Current_Directory>
/home/itssahil/PROJECTS/Mol_Feturizer/New_Systems/rnas/2HO7

>  <Rbt.Executable>
rbdock ($Id: //depot/dev/client3/rdock/2013.1/src/exe/rbdock.cxx#4 $)

>  <Rbt.Library>
libRbt.so (2013.1, Build901 2013/11/27)

>  <Rbt.Parameter_File>
/export/apps/rDock/src/rDock_2013.1_src/data/scripts/dock_solv.prm

>  <Rbt.Receptor>
prm/pocket_docking_8.prm

>  <SCORE>
-10.4009

>  <SCORE.INTER>
-11.2325

>  <SCORE.INTER.CONST>
1

>  <SCORE.INTER.POLAR>
0

>  <SCORE.INTER.ROT>
3

>  <SCORE.INTER.SOLV>
13.3695

>  <SCORE.INTER.VDW>
-17.5449

>  <SCORE.INTER.norm>
-0.702034

>  <SCORE.INTRA>
0.831642

>  <SCORE.INTRA.DIHEDRAL>
1.26382

>  <SCORE.INTRA.DIHEDRAL.0>
0.00893466

>  <SCORE.INTRA.POLAR>
0

>  <SCORE.INTRA.POLAR.0>
0

>  <SCORE.INTRA.REPUL>
0

>  <SCORE.INTRA.REPUL.0>
0

>  <SCORE.INTRA.SOLV>
0.136491

>  <SCORE.INTRA.SOLV.lig_0>
-48.9722

>  <SCORE.INTRA.VDW>
0.131486

>  <SCORE.INTRA.VDW.0>
-0.529409

>  <SCORE.INTRA.norm>
0.0519776

>  <SCORE.RESTR>
0

>  <SCORE.RESTR.CAVITY>
0

>  <SCORE.RESTR.norm>
0

>  <SCORE.SYSTEM>
0

>  <SCORE.SYSTEM.CONST>
0

>  <SCORE.SYSTEM.DIHEDRAL>
0

>  <SCORE.SYSTEM.SOLV>
0

>  <SCORE.SYSTEM.norm>
0

>  <SCORE.heavy>
16

>  <SCORE.norm>
-0.650056

>  <RMSD>
5.933

$$$$
ligand
 OpenBabel11021811433D
libRbt.so/2013.1/901 2013/11/27
 16 16  0  0  0  0  0  0  0  0999 V2000
   41.3466   17.5926   11.5875 P   0  0  2  0  0  0  0  0  0  0  0  0
   40.1201   17.0111   10.9877 O   0  0  0  0  0  0  0  0  0  0  0  0
   40.9719   18.9654   12.3391 O   0  5  0  0  0  0  0  0  0  0  0  0
   42.4038   17.9000   10.4122 O   0  0  0  0  0  0  0  0  0  0  0  0
   43.0150   12.7422   14.4404 C   0  0  2  0  0  0  0  0  0  0  0  0
   43.6317   13.4450   15.5343 O   0  0  0  0  0  0  0  0  0  0  0  0
   44.0516   11.8614   13.6971 C   0  0  2  0  0  0  0  0  0  0  0  0
   44.6650   10.9127   14.6341 O   0  0  0  0  0  0  0  0  0  0  0  0
   45.1393   12.7790   13.1079 C   0  0  1  0  0  0  0  0  0  0  0  0
   46.1103   11.9918   12.4078 O   0  0  0  0  0  0  0  0  0  0  0  0
   44.4657   13.7587   12.1344 C   0  0  2  0  0  0  0  0  0  0  0  0
   45.4642   14.6395   11.5757 O   0  0  0  0  0  0  0  0  0  0  0  0
   43.4100   14.5850   12.9198 C   0  0  2  0  0  0  0  0  0  0  0  0
   42.4106   13.6929   13.5016 O   0  0  0  0  0  0  0  0  0  0  0  0
   42.7068   15.5462   11.9442 C   0  0  0  0  0  0  0  0  0  0  0  0
   41.9875   16.5566   12.6616 O   0  0  0  0  0  0  0  0  0  0  0  0
  1  2  1  6  0  0  0
  1  3  1  0  0  0  0
  1  4  2  0  0  0  0
  1 16  1  0  0  0  0
  5  6  1  1  0  0  0
  5  7  1  0  0  0  0
  5 14  1  0  0  0  0
  7  8  1  1  0  0  0
  7  9  1  0  0  0  0
  9 10  1  6  0  0  0
  9 11  1  0  0  0  0
 11 12  1  1  0  0  0
 11 13  1  0  0  0  0
 13 14  1  0  0  0  0
 13 15  1  6  0  0  0
 15 16  1  0  0  0  0
M  CHG  1   3  -1
M  END
>  <CHROM.1>
-164.98076114,176.45542960,78.82460694,43.09079659,14.87828341,12.65062531
2.20866706,0.59709143,-0.77737599

>  <Name>
ligand

>  <RI>
0

>  <Rbt.Current_Directory>
/home/itssahil/PROJECTS/Mol_Feturizer/New_Systems/rnas/2HO7

>  <Rbt.Executable>
rbdock ($Id: //depot/dev/client3/rdock/2013.1/src/exe/rbdock.cxx#4 $)

>  <Rbt.Library>
libRbt.so (2013.1, Build901 2013/11/27)

>  <Rbt.Parameter_File>
/export/apps/rDock/src/rDock_2013.1_src/data/scripts/dock_solv.prm

>  <Rbt.Receptor>
prm/pocket_docking_8.prm

>  <SCORE>
-10.3558

>  <SCORE.INTER>
-11.2293

>  <SCORE.INTER.CONST>
1

>  <SCORE.INTER.POLAR>
0

>  <SCORE.INTER.ROT>
3

>  <SCORE.INTER.SOLV>
13.3049

>  <SCORE.INTER.VDW>
-17.5212

>  <SCORE.INTER.norm>
-0.701832

>  <SCORE.INTRA>
0.873552

>  <SCORE.INTRA.DIHEDRAL>
1.36277

>  <SCORE.INTRA.DIHEDRAL.0>
0.00893466

>  <SCORE.INTRA.POLAR>
0

>  <SCORE.INTRA.POLAR.0>
0

>  <SCORE.INTRA.REPUL>
0

>  <SCORE.INTRA.REPUL.0>
0

>  <SCORE.INTRA.SOLV>
0.131089

>  <SCORE.INTRA.SOLV.lig_0>
-48.9722

>  <SCORE.INTRA.VDW>
0.126624

>  <SCORE.INTRA.VDW.0>
-0.529409

>  <SCORE.INTRA.norm>
0.054597

>  <SCORE.RESTR>
0

>  <SCORE.RESTR.CAVITY>
0

>  <SCORE.RESTR.norm>
0

>  <SCORE.SYSTEM>
0

>  <SCORE.SYSTEM.CONST>
0

>  <SCORE.SYSTEM.DIHEDRAL>
0

>  <SCORE.SYSTEM.SOLV>
0

>  <SCORE.SYSTEM.norm>
0

>  <SCORE.heavy>
16

>  <SCORE.norm>
-0.647235

>  <RMSD>
5.935

$$$$
ligand
 OpenBabel11021811433D
libRbt.so/2013.1/901 2013/11/27
 16 16  0  0  0  0  0  0  0  0999 V2000
   41.3223   17.4027   11.7994 P   0  0  2  0  0  0  0  0  0  0  0  0
   39.8385   17.4273   11.8088 O   0  0  0  0  0  0  0  0  0  0  0  0
   41.8768   18.2876   13.0238 O   0  5  0  0  0  0  0  0  0  0  0  0
   41.8432   18.0294   10.4103 O   0  0  0  0  0  0  0  0  0  0  0  0
   45.8364   13.1089   11.6868 C   0  0  2  0  0  0  0  0  0  0  0  0
   45.1205   12.1234   10.9207 O   0  0  0  0  0  0  0  0  0  0  0  0
   45.8465   12.7363   13.1915 C   0  0  2  0  0  0  0  0  0  0  0  0
   46.4482   11.4101   13.3741 O   0  0  0  0  0  0  0  0  0  0  0  0
   44.3926   12.7163   13.6997 C   0  0  1  0  0  0  0  0  0  0  0  0
   44.3707   12.3804   15.0922 O   0  0  0  0  0  0  0  0  0  0  0  0
   43.7924   14.1158   13.4936 C   0  0  2  0  0  0  0  0  0  0  0  0
   42.4234   14.1207   13.9524 O   0  0  0  0  0  0  0  0  0  0  0  0
   43.8447   14.4554   11.9784 C   0  0  2  0  0  0  0  0  0  0  0  0
   45.2277   14.4313   11.5093 O   0  0  0  0  0  0  0  0  0  0  0  0
   43.2756   15.8702   11.7674 C   0  0  0  0  0  0  0  0  0  0  0  0
   41.8560   15.8775   11.9617 O   0  0  0  0  0  0  0  0  0  0  0  0
  1  2  1  1  0  0  0
  1  3  1  0  0  0  0
  1  4  2  0  0  0  0
  1 16  1  0  0  0  0
  5  6  1  6  0  0  0
  5  7  1  0  0  0  0
  5 14  1  0  0  0  0
  7  8  1  6  0  0  0
  7  9  1  0  0  0  0
  9 10  1  1  0  0  0
  9 11  1  0  0  0  0
 11 12  1  6  0  0  0
 11 13  1  0  0  0  0
 13 14  1  0  0  0  0
 13 15  1  1  0  0  0
 15 16  1  0  0  0  0
M  CHG  1   3  -1
M  END
>  <CHROM.1>
-71.71823299,177.24676276,172.28590319,43.38336419,14.88038201,12.42543553
2.55303075,0.73449958,-1.02710895

>  <Name>
ligand

>  <RI>
0

>  <Rbt.Current_Directory>
/home/itssahil/PROJECTS/Mol_Feturizer/New_Systems/rnas/2HO7

>  <Rbt.Executable>
rbdock ($Id: //depot/dev/client3/rdock/2013.1/src/exe/rbdock.cxx#4 $)

>  <Rbt.Library>
libRbt.so (2013.1, Build901 2013/11/27)

>  <Rbt.Parameter_File>
/export/apps/rDock/src/rDock_2013.1_src/data/scripts/dock_solv.prm

>  <Rbt.Receptor>
prm/pocket_docking_8.prm

>  <SCORE>
-10.1371

>  <SCORE.INTER>
-10.9408

>  <SCORE.INTER.CONST>
1

>  <SCORE.INTER.POLAR>
0

>  <SCORE.INTER.ROT>
3

>  <SCORE.INTER.SOLV>
12.6964

>  <SCORE.INTER.VDW>
-17.126

>  <SCORE.INTER.norm>
-0.683802

>  <SCORE.INTRA>
0.803741

>  <SCORE.INTRA.DIHEDRAL>
0.60822

>  <SCORE.INTRA.DIHEDRAL.0>
0.00893466

>  <SCORE.INTRA.POLAR>
0

>  <SCORE.INTRA.POLAR.0>
0

>  <SCORE.INTRA.REPUL>
0

>  <SCORE.INTRA.REPUL.0>
0

>  <SCORE.INTRA.SOLV>
1.20149

>  <SCORE.INTRA.SOLV.lig_0>
-48.9722

>  <SCORE.INTRA.VDW>
-0.101112

>  <SCORE.INTRA.VDW.0>
-0.529409

>  <SCORE.INTRA.norm>
0.0502338

>  <SCORE.RESTR>
0

>  <SCORE.RESTR.CAVITY>
0

>  <SCORE.RESTR.norm>
0

>  <SCORE.SYSTEM>
0

>  <SCORE.SYSTEM.CONST>
0

>  <SCORE.SYSTEM.DIHEDRAL>
0

>  <SCORE.SYSTEM.SOLV>
0

>  <SCORE.SYSTEM.norm>
0

>  <SCORE.heavy>
16

>  <SCORE.norm>
-0.633569

>  <RMSD>
6.005

$$$$
ligand
 OpenBabel11021811433D
libRbt.so/2013.1/901 2013/11/27
 16 16  0  0  0  0  0  0  0  0999 V2000
   41.2706   17.4152   11.7047 P   0  0  2  0  0  0  0  0  0  0  0  0
   39.7867   17.4297   11.6897 O   0  0  0  0  0  0  0  0  0  0  0  0
   41.7991   18.3161   12.9289 O   0  5  0  0  0  0  0  0  0  0  0  0
   41.8099   18.0313   10.3179 O   0  0  0  0  0  0  0  0  0  0  0  0
   45.7920   13.1325   11.6633 C   0  0  2  0  0  0  0  0  0  0  0  0
   45.0533   12.1260   10.9477 O   0  0  0  0  0  0  0  0  0  0  0  0
   45.8461   12.8040   13.1773 C   0  0  2  0  0  0  0  0  0  0  0  0
   46.4521   11.4828   13.3809 O   0  0  0  0  0  0  0  0  0  0  0  0
   44.4078   12.8010   13.7283 C   0  0  1  0  0  0  0  0  0  0  0  0
   44.4266   12.5061   15.1302 O   0  0  0  0  0  0  0  0  0  0  0  0
   43.8027   14.1948   13.4991 C   0  0  2  0  0  0  0  0  0  0  0  0
   42.4477   14.2152   13.9975 O   0  0  0  0  0  0  0  0  0  0  0  0
   43.8106   14.4898   11.9737 C   0  0  2  0  0  0  0  0  0  0  0  0
   45.1791   14.4499   11.4651 O   0  0  0  0  0  0  0  0  0  0  0  0
   43.2364   15.8987   11.7382 C   0  0  0  0  0  0  0  0  0  0  0  0
   41.8117   15.8953   11.8912 O   0  0  0  0  0  0  0  0  0  0  0  0
  1  2  1  6  0  0  0
  1  3  1  0  0  0  0
  1  4  2  0  0  0  0
  1 16  1  0  0  0  0
  5  6  1  6  0  0  0
  5  7  1  0  0  0  0
  5 14  1  0  0  0  0
  7  8  1  6  0  0  0
  7  9  1  0  0  0  0
  9 10  1  1  0  0  0
  9 11  1  0  0  0  0
 11 12  1  6  0  0  0
 11 13  1  0  0  0  0
 13 14  1  0  0  0  0
 13 15  1  1  0  0  0
 15 16  1  0  0  0  0
M  CHG  1   3  -1
M  END
>  <CHROM.1>
-75.36553127,177.24987334,173.06240994,43.35711672,14.92127326,12.39270763
-2.57946927,-0.74341345,2.05692128

>  <Name>
ligand

>  <RI>
0

>  <Rbt.Current_Directory>
/home/itssahil/PROJECTS/Mol_Feturizer/New_Systems/rnas/2HO7

>  <Rbt.Executable>
rbdock ($Id: //depot/dev/client3/rdock/2013.1/src/exe/rbdock.cxx#4 $)

>  <Rbt.Library>
libRbt.so (2013.1, Build901 2013/11/27)

>  <Rbt.Parameter_File>
/export/apps/rDock/src/rDock_2013.1_src/data/scripts/dock_solv.prm

>  <Rbt.Receptor>
prm/pocket_docking_8.prm

>  <SCORE>
-10.1744

>  <SCORE.INTER>
-11.0568

>  <SCORE.INTER.CONST>
1

>  <SCORE.INTER.POLAR>
0

>  <SCORE.INTER.ROT>
3

>  <SCORE.INTER.SOLV>
13.0464

>  <SCORE.INTER.VDW>
-17.32

>  <SCORE.INTER.norm>
-0.691052

>  <SCORE.INTRA>
0.882384

>  <SCORE.INTRA.DIHEDRAL>
0.91779

>  <SCORE.INTRA.DIHEDRAL.0>
0.00893466

>  <SCORE.INTRA.POLAR>
0

>  <SCORE.INTRA.POLAR.0>
0

>  <SCORE.INTRA.REPUL>
0

>  <SCORE.INTRA.REPUL.0>
0

>  <SCORE.INTRA.SOLV>
1.17459

>  <SCORE.INTRA.SOLV.lig_0>
-48.9722

>  <SCORE.INTRA.VDW>
-0.163807

>  <SCORE.INTRA.VDW.0>
-0.529409

>  <SCORE.INTRA.norm>
0.055149

>  <SCORE.RESTR>
0

>  <SCORE.RESTR.CAVITY>
0

>  <SCORE.RESTR.norm>
0

>  <SCORE.SYSTEM>
0

>  <SCORE.SYSTEM.CONST>
0

>  <SCORE.SYSTEM.DIHEDRAL>
0

>  <SCORE.SYSTEM.SOLV>
0

>  <SCORE.SYSTEM.norm>
0

>  <SCORE.heavy>
16

>  <SCORE.norm>
-0.635903

>  <RMSD>
6.041

$$$$
ligand
 OpenBabel11021811433D
libRbt.so/2013.1/901 2013/11/27
 16 16  0  0  0  0  0  0  0  0999 V2000
   41.2452   17.3924   11.7642 P   0  0  2  0  0  0  0  0  0  0  0  0
   39.7616   17.3974   11.7986 O   0  0  0  0  0  0  0  0  0  0  0  0
   41.8078   18.3334   12.9422 O   0  5  0  0  0  0  0  0  0  0  0  0
   41.7336   17.9694   10.3422 O   0  0  0  0  0  0  0  0  0  0  0  0
   45.8086   13.1659   11.6858 C   0  0  2  0  0  0  0  0  0  0  0  0
   45.0885   12.1960   10.9038 O   0  0  0  0  0  0  0  0  0  0  0  0
   45.8416   12.7541   13.1800 C   0  0  2  0  0  0  0  0  0  0  0  0
   46.4540   11.4276   13.3195 O   0  0  0  0  0  0  0  0  0  0  0  0
   44.3949   12.7112   13.7069 C   0  0  1  0  0  0  0  0  0  0  0  0
   44.3941   12.3389   15.0904 O   0  0  0  0  0  0  0  0  0  0  0  0
   43.7832   14.1116   13.5458 C   0  0  2  0  0  0  0  0  0  0  0  0
   42.4205   14.0955   14.0229 O   0  0  0  0  0  0  0  0  0  0  0  0
   43.8127   14.4910   12.0394 C   0  0  2  0  0  0  0  0  0  0  0  0
   45.1893   14.4883   11.5513 O   0  0  0  0  0  0  0  0  0  0  0  0
   43.2319   15.9071   11.8733 C   0  0  0  0  0  0  0  0  0  0  0  0
   41.8032   15.8823   11.9782 O   0  0  0  0  0  0  0  0  0  0  0  0
  1  2  1  1  0  0  0
  1  3  1  0  0  0  0
  1  4  2  0  0  0  0
  1 16  1  0  0  0  0
  5  6  1  6  0  0  0
  5  7  1  0  0  0  0
  5 14  1  0  0  0  0
  7  8  1  6  0  0  0
  7  9  1  0  0  0  0
  9 10  1  1  0  0  0
  9 11  1  0  0  0  0
 11 12  1  6  0  0  0
 11 13  1  0  0  0  0
 13 14  1  0  0  0  0
 13 15  1  1  0  0  0
 15 16  1  0  0  0  0
M  CHG  1   3  -1
M  END
>  <CHROM.1>
-76.44809467,-178.80698343,177.19270799,43.34570398,14.88892792,12.42597806
-2.55224722,-0.72140913,2.11222026

>  <Name>
ligand

>  <RI>
0

>  <Rbt.Current_Directory>
/home/itssahil/PROJECTS/Mol_Feturizer/New_Systems/rnas/2HO7

>  <Rbt.Executable>
rbdock ($Id: //depot/dev/client3/rdock/2013.1/src/exe/rbdock.cxx#4 $)

>  <Rbt.Library>
libRbt.so (2013.1, Build901 2013/11/27)

>  <Rbt.Parameter_File>
/export/apps/rDock/src/rDock_2013.1_src/data/scripts/dock_solv.prm

>  <Rbt.Receptor>
prm/pocket_docking_7.prm

>  <SCORE>
-10.1491

>  <SCORE.INTER>
-10.9418

>  <SCORE.INTER.CONST>
1

>  <SCORE.INTER.POLAR>
0

>  <SCORE.INTER.ROT>
3

>  <SCORE.INTER.SOLV>
13.0354

>  <SCORE.INTER.VDW>
-17.2396

>  <SCORE.INTER.norm>
-0.683861

>  <SCORE.INTRA>
0.792678

>  <SCORE.INTRA.DIHEDRAL>
0.932577

>  <SCORE.INTRA.DIHEDRAL.0>
0.00893466

>  <SCORE.INTRA.POLAR>
0

>  <SCORE.INTRA.POLAR.0>
0

>  <SCORE.INTRA.REPUL>
0

>  <SCORE.INTRA.REPUL.0>
0

>  <SCORE.INTRA.SOLV>
1.01673

>  <SCORE.INTRA.SOLV.lig_0>
-48.9722

>  <SCORE.INTRA.VDW>
-0.181978

>  <SCORE.INTRA.VDW.0>
-0.529409

>  <SCORE.INTRA.norm>
0.0495424

>  <SCORE.RESTR>
0

>  <SCORE.RESTR.CAVITY>
0

>  <SCORE.RESTR.norm>
0

>  <SCORE.SYSTEM>
0

>  <SCORE.SYSTEM.CONST>
0

>  <SCORE.SYSTEM.DIHEDRAL>
0

>  <SCORE.SYSTEM.SOLV>
0

>  <SCORE.SYSTEM.norm>
0

>  <SCORE.heavy>
16

>  <SCORE.norm>
-0.634318

>  <RMSD>
6.049

$$$$
ligand
 OpenBabel11021811433D
libRbt.so/2013.1/901 2013/11/27
 16 16  0  0  0  0  0  0  0  0999 V2000
   44.5269   11.5124   14.1998 P   0  0  2  0  0  0  0  0  0  0  0  0
   45.0385   12.2366   15.3898 O   0  0  0  0  0  0  0  0  0  0  0  0
   42.9307   11.6959   14.1109 O   0  5  0  0  0  0  0  0  0  0  0  0
   44.8756    9.9478   14.3547 O   0  0  0  0  0  0  0  0  0  0  0  0
   47.5112   14.7056   10.5249 C   0  0  2  0  0  0  0  0  0  0  0  0
   47.1733   14.0586    9.2847 O   0  0  0  0  0  0  0  0  0  0  0  0
   49.0474   14.7342   10.7307 C   0  0  2  0  0  0  0  0  0  0  0  0
   49.6901   15.4206    9.6038 O   0  0  0  0  0  0  0  0  0  0  0  0
   49.5571   13.2828   10.8078 C   0  0  1  0  0  0  0  0  0  0  0  0
   50.9761   13.2775   11.0047 O   0  0  0  0  0  0  0  0  0  0  0  0
   48.8657   12.5932   11.9943 C   0  0  2  0  0  0  0  0  0  0  0  0
   49.3186   11.2250   12.0817 O   0  0  0  0  0  0  0  0  0  0  0  0
   47.3305   12.6290   11.7578 C   0  0  2  0  0  0  0  0  0  0  0  0
   46.8747   14.0124   11.6497 O   0  0  0  0  0  0  0  0  0  0  0  0
   46.6282   11.9695   12.9586 C   0  0  0  0  0  0  0  0  0  0  0  0
   45.2062   12.1074   12.8500 O   0  0  0  0  0  0  0  0  0  0  0  0
  1  2  1  1  0  0  0
  1  3  1  0  0  0  0
  1  4  2  0  0  0  0
  1 16  1  0  0  0  0
  5  6  1  6  0  0  0
  5  7  1  0  0  0  0
  5 14  1  0  0  0  0
  7  8  1  6  0  0  0
  7  9  1  0  0  0  0
  9 10  1  1  0  0  0
  9 11  1  0  0  0  0
 11 12  1  6  0  0  0
 11 13  1  0  0  0  0
 13 14  1  0  0  0  0
 13 15  1  1  0  0  0
 15 16  1  0  0  0  0
M  CHG  1   3  -1
M  END
>  <CHROM.1>
173.85416279,-175.10382185,58.55130953,46.99494054,12.72260482,12.25338937
2.40524470,-0.21673541,2.40845117

>  <Name>
ligand

>  <RI>
0

>  <Rbt.Current_Directory>
/home/itssahil/PROJECTS/Mol_Feturizer/New_Systems/rnas/2HO7

>  <Rbt.Executable>
rbdock ($Id: //depot/dev/client3/rdock/2013.1/src/exe/rbdock.cxx#4 $)

>  <Rbt.Library>
libRbt.so (2013.1, Build901 2013/11/27)

>  <Rbt.Parameter_File>
/export/apps/rDock/src/rDock_2013.1_src/data/scripts/dock_solv.prm

>  <Rbt.Receptor>
prm/pocket_docking_5.prm

>  <SCORE>
-8.94351

>  <SCORE.INTER>
-9.0756

>  <SCORE.INTER.CONST>
1

>  <SCORE.INTER.POLAR>
-1.03776

>  <SCORE.INTER.ROT>
3

>  <SCORE.INTER.SOLV>
18.5753

>  <SCORE.INTER.VDW>
-14.383

>  <SCORE.INTER.norm>
-0.567225

>  <SCORE.INTRA>
0.132093

>  <SCORE.INTRA.DIHEDRAL>
0.248456

>  <SCORE.INTRA.DIHEDRAL.0>
0.00893466

>  <SCORE.INTRA.POLAR>
0

>  <SCORE.INTRA.POLAR.0>
0

>  <SCORE.INTRA.REPUL>
0

>  <SCORE.INTRA.REPUL.0>
0

>  <SCORE.INTRA.SOLV>
0.00193891

>  <SCORE.INTRA.SOLV.lig_0>
-48.9722

>  <SCORE.INTRA.VDW>
0.00689575

>  <SCORE.INTRA.VDW.0>
-0.529409

>  <SCORE.INTRA.norm>
0.00825583

>  <SCORE.RESTR>
0

>  <SCORE.RESTR.CAVITY>
0

>  <SCORE.RESTR.norm>
0

>  <SCORE.SYSTEM>
0

>  <SCORE.SYSTEM.CONST>
0

>  <SCORE.SYSTEM.DIHEDRAL>
0

>  <SCORE.SYSTEM.SOLV>
0

>  <SCORE.SYSTEM.norm>
0

>  <SCORE.heavy>
16

>  <SCORE.norm>
-0.558969

>  <RMSD>
6.075

$$$$
ligand
 OpenBabel11021811433D
libRbt.so/2013.1/901 2013/11/27
 16 16  0  0  0  0  0  0  0  0999 V2000
   41.5062   17.5463   11.4748 P   0  0  2  0  0  0  0  0  0  0  0  0
   40.1045   17.2716   11.8773 O   0  0  0  0  0  0  0  0  0  0  0  0
   42.2061   18.4766   12.5858 O   0  5  0  0  0  0  0  0  0  0  0  0
   41.4987   18.3182   10.0614 O   0  0  0  0  0  0  0  0  0  0  0  0
   45.3915   13.3049   11.7711 C   0  0  2  0  0  0  0  0  0  0  0  0
   44.6518   12.2893   11.0695 O   0  0  0  0  0  0  0  0  0  0  0  0
   45.7758   12.8229   13.1935 C   0  0  2  0  0  0  0  0  0  0  0  0
   46.5607   11.5858   13.1071 O   0  0  0  0  0  0  0  0  0  0  0  0
   44.4818   12.5573   13.9855 C   0  0  1  0  0  0  0  0  0  0  0  0
   44.8060   12.1157   15.3093 O   0  0  0  0  0  0  0  0  0  0  0  0
   43.6842   13.8688   14.0565 C   0  0  2  0  0  0  0  0  0  0  0  0
   42.4584   13.6436   14.7856 O   0  0  0  0  0  0  0  0  0  0  0  0
   43.3620   14.3278   12.6075 C   0  0  2  0  0  0  0  0  0  0  0  0
   44.6014   14.5368   11.8635 O   0  0  0  0  0  0  0  0  0  0  0  0
   42.5916   15.6592   12.6689 C   0  0  0  0  0  0  0  0  0  0  0  0
   42.3337   16.1545   11.3493 O   0  0  0  0  0  0  0  0  0  0  0  0
  1  2  1  1  0  0  0
  1  3  1  0  0  0  0
  1  4  2  0  0  0  0
  1 16  1  0  0  0  0
  5  6  1  1  0  0  0
  5  7  1  0  0  0  0
  5 14  1  0  0  0  0
  7  8  1  6  0  0  0
  7  9  1  0  0  0  0
  9 10  1  1  0  0  0
  9 11  1  0  0  0  0
 11 12  1  1  0  0  0
 11 13  1  0  0  0  0
 13 14  1  0  0  0  0
 13 15  1  1  0  0  0
 15 16  1  0  0  0  0
M  CHG  1   3  -1
M  END
>  <CHROM.1>
177.03420780,179.33242301,-73.52732232,43.32951322,14.89255109,12.51297908
-2.46237398,-0.77548036,2.06666090

>  <Name>
ligand

>  <RI>
0

>  <Rbt.Current_Directory>
/home/itssahil/PROJECTS/Mol_Feturizer/New_Systems/rnas/2HO7

>  <Rbt.Executable>
rbdock ($Id: //depot/dev/client3/rdock/2013.1/src/exe/rbdock.cxx#4 $)

>  <Rbt.Library>
libRbt.so (2013.1, Build901 2013/11/27)

>  <Rbt.Parameter_File>
/export/apps/rDock/src/rDock_2013.1_src/data/scripts/dock_solv.prm

>  <Rbt.Receptor>
prm/pocket_docking_7.prm

>  <SCORE>
-11.0129

>  <SCORE.INTER>
-11.39

>  <SCORE.INTER.CONST>
1

>  <SCORE.INTER.POLAR>
0

>  <SCORE.INTER.ROT>
3

>  <SCORE.INTER.SOLV>
13.0386

>  <SCORE.INTER.VDW>
-17.5395

>  <SCORE.INTER.norm>
-0.711874

>  <SCORE.INTRA>
0.377038

>  <SCORE.INTRA.DIHEDRAL>
0.315195

>  <SCORE.INTRA.DIHEDRAL.0>
0.00893466

>  <SCORE.INTRA.POLAR>
0

>  <SCORE.INTRA.POLAR.0>
0

>  <SCORE.INTRA.REPUL>
0

>  <SCORE.INTRA.REPUL.0>
0

>  <SCORE.INTRA.SOLV>
0.15047

>  <SCORE.INTRA.SOLV.lig_0>
-48.9722

>  <SCORE.INTRA.VDW>
0.144206

>  <SCORE.INTRA.VDW.0>
-0.529409

>  <SCORE.INTRA.norm>
0.0235649

>  <SCORE.RESTR>
0

>  <SCORE.RESTR.CAVITY>
0

>  <SCORE.RESTR.norm>
0

>  <SCORE.SYSTEM>
0

>  <SCORE.SYSTEM.CONST>
0

>  <SCORE.SYSTEM.DIHEDRAL>
0

>  <SCORE.SYSTEM.SOLV>
0

>  <SCORE.SYSTEM.norm>
0

>  <SCORE.heavy>
16

>  <SCORE.norm>
-0.688309

>  <RMSD>
6.078

$$$$
ligand
 OpenBabel11021811433D
libRbt.so/2013.1/901 2013/11/27
 16 16  0  0  0  0  0  0  0  0999 V2000
   41.5111   17.5640   11.4435 P   0  0  2  0  0  0  0  0  0  0  0  0
   40.1169   17.2630   11.8531 O   0  0  0  0  0  0  0  0  0  0  0  0
   42.1955   18.5163   12.5455 O   0  5  0  0  0  0  0  0  0  0  0  0
   41.4824   18.3257   10.0248 O   0  0  0  0  0  0  0  0  0  0  0  0
   45.3961   13.3132   11.7606 C   0  0  2  0  0  0  0  0  0  0  0  0
   44.6508   12.3025   11.0580 O   0  0  0  0  0  0  0  0  0  0  0  0
   45.7720   12.8305   13.1849 C   0  0  2  0  0  0  0  0  0  0  0  0
   46.5474   11.5870   13.1030 O   0  0  0  0  0  0  0  0  0  0  0  0
   44.4733   12.5762   13.9731 C   0  0  1  0  0  0  0  0  0  0  0  0
   44.7897   12.1342   15.2986 O   0  0  0  0  0  0  0  0  0  0  0  0
   43.6858   13.8941   14.0394 C   0  0  2  0  0  0  0  0  0  0  0  0
   42.4559   13.6797   14.7649 O   0  0  0  0  0  0  0  0  0  0  0  0
   43.3721   14.3534   12.5887 C   0  0  2  0  0  0  0  0  0  0  0  0
   44.6154   14.5515   11.8484 O   0  0  0  0  0  0  0  0  0  0  0  0
   42.6119   15.6909   12.6455 C   0  0  0  0  0  0  0  0  0  0  0  0
   42.3669   16.1888   11.3245 O   0  0  0  0  0  0  0  0  0  0  0  0
  1  2  1  1  0  0  0
  1  3  1  0  0  0  0
  1  4  2  0  0  0  0
  1 16  1  0  0  0  0
  5  6  1  1  0  0  0
  5  7  1  0  0  0  0
  5 14  1  0  0  0  0
  7  8  1  6  0  0  0
  7  9  1  0  0  0  0
  9 10  1  1  0  0  0
  9 11  1  0  0  0  0
 11 12  1  1  0  0  0
 11 13  1  0  0  0  0
 13 14  1  0  0  0  0
 13 15  1  1  0  0  0
 15 16  1  0  0  0  0
M  CHG  1   3  -1
M  END
>  <CHROM.1>
176.80679941,177.65339638,-72.14483807,43.33141748,14.91071298,12.49258266
-2.46028311,-0.77720465,2.06488562

>  <Name>
ligand

>  <RI>
0

>  <Rbt.Current_Directory>
/home/itssahil/PROJECTS/Mol_Feturizer/New_Systems/rnas/2HO7

>  <Rbt.Executable>
rbdock ($Id: //depot/dev/client3/rdock/2013.1/src/exe/rbdock.cxx#4 $)

>  <Rbt.Library>
libRbt.so (2013.1, Build901 2013/11/27)

>  <Rbt.Parameter_File>
/export/apps/rDock/src/rDock_2013.1_src/data/scripts/dock_solv.prm

>  <Rbt.Receptor>
prm/pocket_docking_8.prm

>  <SCORE>
-11.0227

>  <SCORE.INTER>
-11.3531

>  <SCORE.INTER.CONST>
1

>  <SCORE.INTER.POLAR>
0

>  <SCORE.INTER.ROT>
3

>  <SCORE.INTER.SOLV>
12.9847

>  <SCORE.INTER.VDW>
-17.4969

>  <SCORE.INTER.norm>
-0.709568

>  <SCORE.INTRA>
0.330367

>  <SCORE.INTRA.DIHEDRAL>
0.291029

>  <SCORE.INTRA.DIHEDRAL.0>
0.00893466

>  <SCORE.INTRA.POLAR>
0

>  <SCORE.INTRA.POLAR.0>
0

>  <SCORE.INTRA.REPUL>
0

>  <SCORE.INTRA.REPUL.0>
0

>  <SCORE.INTRA.SOLV>
0.125442

>  <SCORE.INTRA.SOLV.lig_0>
-48.9722

>  <SCORE.INTRA.VDW>
0.122131

>  <SCORE.INTRA.VDW.0>
-0.529409

>  <SCORE.INTRA.norm>
0.0206479

>  <SCORE.RESTR>
0

>  <SCORE.RESTR.CAVITY>
0

>  <SCORE.RESTR.norm>
0

>  <SCORE.SYSTEM>
0

>  <SCORE.SYSTEM.CONST>
0

>  <SCORE.SYSTEM.DIHEDRAL>
0

>  <SCORE.SYSTEM.SOLV>
0

>  <SCORE.SYSTEM.norm>
0

>  <SCORE.heavy>
16

>  <SCORE.norm>
-0.68892

>  <RMSD>
6.078

$$$$
ligand
 OpenBabel11021811433D
libRbt.so/2013.1/901 2013/11/27
 16 16  0  0  0  0  0  0  0  0999 V2000
   41.5018   17.5490   11.5587 P   0  0  2  0  0  0  0  0  0  0  0  0
   40.0895   17.2393   11.8929 O   0  0  0  0  0  0  0  0  0  0  0  0
   42.1424   18.4440   12.7328 O   0  5  0  0  0  0  0  0  0  0  0  0
   41.5392   18.3763   10.1775 O   0  0  0  0  0  0  0  0  0  0  0  0
   45.3965   13.3081   11.7673 C   0  0  2  0  0  0  0  0  0  0  0  0
   44.6446   12.2980   11.0709 O   0  0  0  0  0  0  0  0  0  0  0  0
   45.8026   12.8165   13.1802 C   0  0  2  0  0  0  0  0  0  0  0  0
   46.5846   11.5791   13.0735 O   0  0  0  0  0  0  0  0  0  0  0  0
   44.5210   12.5472   13.9909 C   0  0  1  0  0  0  0  0  0  0  0  0
   44.8655   12.0967   15.3065 O   0  0  0  0  0  0  0  0  0  0  0  0
   43.7262   13.8591   14.0830 C   0  0  2  0  0  0  0  0  0  0  0  0
   42.5118   13.6306   14.8299 O   0  0  0  0  0  0  0  0  0  0  0  0
   43.3818   14.3279   12.6422 C   0  0  2  0  0  0  0  0  0  0  0  0
   44.6094   14.5403   11.8801 O   0  0  0  0  0  0  0  0  0  0  0  0
   42.6140   15.6597   12.7244 C   0  0  0  0  0  0  0  0  0  0  0  0
   42.3549   16.1748   11.4126 O   0  0  0  0  0  0  0  0  0  0  0  0
  1  2  1  1  0  0  0
  1  3  1  0  0  0  0
  1  4  2  0  0  0  0
  1 16  1  0  0  0  0
  5  6  1  1  0  0  0
  5  7  1  0  0  0  0
  5 14  1  0  0  0  0
  7  8  1  6  0  0  0
  7  9  1  0  0  0  0
  9 10  1  1  0  0  0
  9 11  1  0  0  0  0
 11 12  1  1  0  0  0
 11 13  1  0  0  0  0
 13 14  1  0  0  0  0
 13 15  1  1  0  0  0
 15 16  1  0  0  0  0
M  CHG  1   3  -1
M  END
>  <CHROM.1>
176.09640207,178.09379466,-75.84169793,43.34462084,14.89090891,12.55196935
-2.48323602,-0.78281602,2.05818231

>  <Name>
ligand

>  <RI>
0

>  <Rbt.Current_Directory>
/home/itssahil/PROJECTS/Mol_Feturizer/New_Systems/rnas/2HO7

>  <Rbt.Executable>
rbdock ($Id: //depot/dev/client3/rdock/2013.1/src/exe/rbdock.cxx#4 $)

>  <Rbt.Library>
libRbt.so (2013.1, Build901 2013/11/27)

>  <Rbt.Parameter_File>
/export/apps/rDock/src/rDock_2013.1_src/data/scripts/dock_solv.prm

>  <Rbt.Receptor>
prm/pocket_docking_7.prm

>  <SCORE>
-11.0093

>  <SCORE.INTER>
-11.5149

>  <SCORE.INTER.CONST>
1

>  <SCORE.INTER.POLAR>
0

>  <SCORE.INTER.ROT>
3

>  <SCORE.INTER.SOLV>
13.1253

>  <SCORE.INTER.VDW>
-17.6517

>  <SCORE.INTER.norm>
-0.719682

>  <SCORE.INTRA>
0.505651

>  <SCORE.INTRA.DIHEDRAL>
0.455375

>  <SCORE.INTRA.DIHEDRAL.0>
0.00893466

>  <SCORE.INTRA.POLAR>
0

>  <SCORE.INTRA.POLAR.0>
0

>  <SCORE.INTRA.REPUL>
0

>  <SCORE.INTRA.REPUL.0>
0

>  <SCORE.INTRA.SOLV>
0.168249

>  <SCORE.INTRA.SOLV.lig_0>
-48.9722

>  <SCORE.INTRA.VDW>
0.193839

>  <SCORE.INTRA.VDW.0>
-0.529409

>  <SCORE.INTRA.norm>
0.0316032

>  <SCORE.RESTR>
0

>  <SCORE.RESTR.CAVITY>
0

>  <SCORE.RESTR.norm>
0

>  <SCORE.SYSTEM>
0

>  <SCORE.SYSTEM.CONST>
0

>  <SCORE.SYSTEM.DIHEDRAL>
0

>  <SCORE.SYSTEM.SOLV>
0

>  <SCORE.SYSTEM.norm>
0

>  <SCORE.heavy>
16

>  <SCORE.norm>
-0.688078

>  <RMSD>
6.086

$$$$
ligand
 OpenBabel11021811433D
libRbt.so/2013.1/901 2013/11/27
 16 16  0  0  0  0  0  0  0  0999 V2000
   41.4931   17.5797   11.4155 P   0  0  2  0  0  0  0  0  0  0  0  0
   40.0952   17.2995   11.8273 O   0  0  0  0  0  0  0  0  0  0  0  0
   42.1916   18.5263   12.5136 O   0  5  0  0  0  0  0  0  0  0  0  0
   41.4738   18.3368    9.9942 O   0  0  0  0  0  0  0  0  0  0  0  0
   45.3470   13.3057   11.7272 C   0  0  2  0  0  0  0  0  0  0  0  0
   44.5873   12.2899   11.0476 O   0  0  0  0  0  0  0  0  0  0  0  0
   45.7414   12.8382   13.1517 C   0  0  2  0  0  0  0  0  0  0  0  0
   46.5103   11.5905   13.0734 O   0  0  0  0  0  0  0  0  0  0  0  0
   44.4532   12.5991   13.9615 C   0  0  1  0  0  0  0  0  0  0  0  0
   44.7868   12.1715   15.2874 O   0  0  0  0  0  0  0  0  0  0  0  0
   43.6724   13.9212   14.0234 C   0  0  2  0  0  0  0  0  0  0  0  0
   42.4522   13.7209   14.7690 O   0  0  0  0  0  0  0  0  0  0  0  0
   43.3396   14.3646   12.5720 C   0  0  2  0  0  0  0  0  0  0  0  0
   44.5730   14.5483   11.8115 O   0  0  0  0  0  0  0  0  0  0  0  0
   42.5861   15.7060   12.6237 C   0  0  0  0  0  0  0  0  0  0  0  0
   42.3296   16.1924   11.3006 O   0  0  0  0  0  0  0  0  0  0  0  0
  1  2  1  1  0  0  0
  1  3  1  0  0  0  0
  1  4  2  0  0  0  0
  1 16  1  0  0  0  0
  5  6  1  1  0  0  0
  5  7  1  0  0  0  0
  5 14  1  0  0  0  0
  7  8  1  6  0  0  0
  7  9  1  0  0  0  0
  9 10  1  1  0  0  0
  9 11  1  0  0  0  0
 11 12  1  1  0  0  0
 11 13  1  0  0  0  0
 13 14  1  0  0  0  0
 13 15  1  1  0  0  0
 15 16  1  0  0  0  0
M  CHG  1   3  -1
M  END
>  <CHROM.1>
176.53393873,178.16865390,-72.98854605,43.30640399,14.92462104,12.46992962
-2.47183773,-0.78960761,2.04564386

>  <Name>
ligand

>  <RI>
0

>  <Rbt.Current_Directory>
/home/itssahil/PROJECTS/Mol_Feturizer/New_Systems/rnas/2HO7

>  <Rbt.Executable>
rbdock ($Id: //depot/dev/client3/rdock/2013.1/src/exe/rbdock.cxx#4 $)

>  <Rbt.Library>
libRbt.so (2013.1, Build901 2013/11/27)

>  <Rbt.Parameter_File>
/export/apps/rDock/src/rDock_2013.1_src/data/scripts/dock_solv.prm

>  <Rbt.Receptor>
prm/pocket_docking_8.prm

>  <SCORE>
-11.1104

>  <SCORE.INTER>
-11.4762

>  <SCORE.INTER.CONST>
1

>  <SCORE.INTER.POLAR>
0

>  <SCORE.INTER.ROT>
3

>  <SCORE.INTER.SOLV>
12.9253

>  <SCORE.INTER.VDW>
-17.5592

>  <SCORE.INTER.norm>
-0.717263

>  <SCORE.INTRA>
0.365796

>  <SCORE.INTRA.DIHEDRAL>
0.319468

>  <SCORE.INTRA.DIHEDRAL.0>
0.00893466

>  <SCORE.INTRA.POLAR>
0

>  <SCORE.INTRA.POLAR.0>
0

>  <SCORE.INTRA.REPUL>
0

>  <SCORE.INTRA.REPUL.0>
0

>  <SCORE.INTRA.SOLV>
0.138449

>  <SCORE.INTRA.SOLV.lig_0>
-48.9722

>  <SCORE.INTRA.VDW>
0.136837

>  <SCORE.INTRA.VDW.0>
-0.529409

>  <SCORE.INTRA.norm>
0.0228622

>  <SCORE.RESTR>
0

>  <SCORE.RESTR.CAVITY>
0

>  <SCORE.RESTR.norm>
0

>  <SCORE.SYSTEM>
0

>  <SCORE.SYSTEM.CONST>
0

>  <SCORE.SYSTEM.DIHEDRAL>
0

>  <SCORE.SYSTEM.SOLV>
0

>  <SCORE.SYSTEM.norm>
0

>  <SCORE.heavy>
16

>  <SCORE.norm>
-0.694401

>  <RMSD>
6.091

$$$$
ligand
 OpenBabel11021811433D
libRbt.so/2013.1/901 2013/11/27
 16 16  0  0  0  0  0  0  0  0999 V2000
   41.5050   17.5905   11.4602 P   0  0  2  0  0  0  0  0  0  0  0  0
   40.1092   17.2930   11.8667 O   0  0  0  0  0  0  0  0  0  0  0  0
   42.1943   18.5285   12.5715 O   0  5  0  0  0  0  0  0  0  0  0  0
   41.4807   18.3662   10.0490 O   0  0  0  0  0  0  0  0  0  0  0  0
   45.3699   13.3276   11.7109 C   0  0  2  0  0  0  0  0  0  0  0  0
   44.6134   12.3148   11.0233 O   0  0  0  0  0  0  0  0  0  0  0  0
   45.7726   12.8470   13.1286 C   0  0  2  0  0  0  0  0  0  0  0  0
   46.5485   11.6048   13.0339 O   0  0  0  0  0  0  0  0  0  0  0  0
   44.4891   12.5916   13.9408 C   0  0  1  0  0  0  0  0  0  0  0  0
   44.8305   12.1516   15.2608 O   0  0  0  0  0  0  0  0  0  0  0  0
   43.7008   13.9083   14.0202 C   0  0  2  0  0  0  0  0  0  0  0  0
   42.4848   13.6928   14.7683 O   0  0  0  0  0  0  0  0  0  0  0  0
   43.3597   14.3655   12.5750 C   0  0  2  0  0  0  0  0  0  0  0  0
   44.5890   14.5647   11.8118 O   0  0  0  0  0  0  0  0  0  0  0  0
   42.5986   15.7018   12.6443 C   0  0  0  0  0  0  0  0  0  0  0  0
   42.3535   16.2120   11.3280 O   0  0  0  0  0  0  0  0  0  0  0  0
  1  2  1  1  0  0  0
  1  3  1  0  0  0  0
  1  4  2  0  0  0  0
  1 16  1  0  0  0  0
  5  6  1  1  0  0  0
  5  7  1  0  0  0  0
  5 14  1  0  0  0  0
  7  8  1  6  0  0  0
  7  9  1  0  0  0  0
  9 10  1  1  0  0  0
  9 11  1  0  0  0  0
 11 12  1  1  0  0  0
 11 13  1  0  0  0  0
 13 14  1  0  0  0  0
 13 15  1  1  0  0  0
 15 16  1  0  0  0  0
M  CHG  1   3  -1
M  END
>  <CHROM.1>
175.57720539,178.01865369,-72.28952158,43.32850779,14.92957478,12.47900348
-2.47743736,-0.78781234,2.05307637

>  <Name>
ligand

>  <RI>
0

>  <Rbt.Current_Directory>
/home/itssahil/PROJECTS/Mol_Feturizer/New_Systems/rnas/2HO7

>  <Rbt.Executable>
rbdock ($Id: //depot/dev/client3/rdock/2013.1/src/exe/rbdock.cxx#4 $)

>  <Rbt.Library>
libRbt.so (2013.1, Build901 2013/11/27)

>  <Rbt.Parameter_File>
/export/apps/rDock/src/rDock_2013.1_src/data/scripts/dock_solv.prm

>  <Rbt.Receptor>
prm/pocket_docking_7.prm

>  <SCORE>
-11.0835

>  <SCORE.INTER>
-11.4398

>  <SCORE.INTER.CONST>
1

>  <SCORE.INTER.POLAR>
0

>  <SCORE.INTER.ROT>
3

>  <SCORE.INTER.SOLV>
12.8082

>  <SCORE.INTER.VDW>
-17.4959

>  <SCORE.INTER.norm>
-0.714988

>  <SCORE.INTRA>
0.356301

>  <SCORE.INTRA.DIHEDRAL>
0.322438

>  <SCORE.INTRA.DIHEDRAL.0>
0.00893466

>  <SCORE.INTRA.POLAR>
0

>  <SCORE.INTRA.POLAR.0>
0

>  <SCORE.INTRA.REPUL>
0

>  <SCORE.INTRA.REPUL.0>
0

>  <SCORE.INTRA.SOLV>
0.13352

>  <SCORE.INTRA.SOLV.lig_0>
-48.9722

>  <SCORE.INTRA.VDW>
0.128322

>  <SCORE.INTRA.VDW.0>
-0.529409

>  <SCORE.INTRA.norm>
0.0222688

>  <SCORE.RESTR>
0

>  <SCORE.RESTR.CAVITY>
0

>  <SCORE.RESTR.norm>
0

>  <SCORE.SYSTEM>
0

>  <SCORE.SYSTEM.CONST>
0

>  <SCORE.SYSTEM.DIHEDRAL>
0

>  <SCORE.SYSTEM.SOLV>
0

>  <SCORE.SYSTEM.norm>
0

>  <SCORE.heavy>
16

>  <SCORE.norm>
-0.692719

>  <RMSD>
6.092

$$$$
ligand
 OpenBabel11021811433D
libRbt.so/2013.1/901 2013/11/27
 16 16  0  0  0  0  0  0  0  0999 V2000
   41.5022   17.5961   11.4373 P   0  0  2  0  0  0  0  0  0  0  0  0
   40.1122   17.2902   11.8575 O   0  0  0  0  0  0  0  0  0  0  0  0
   42.1899   18.5550   12.5316 O   0  5  0  0  0  0  0  0  0  0  0  0
   41.4605   18.3532   10.0165 O   0  0  0  0  0  0  0  0  0  0  0  0
   45.4110   13.3667   11.7735 C   0  0  2  0  0  0  0  0  0  0  0  0
   44.6840   12.3599   11.0465 O   0  0  0  0  0  0  0  0  0  0  0  0
   45.7648   12.8697   13.1985 C   0  0  2  0  0  0  0  0  0  0  0  0
   46.5488   11.6317   13.1160 O   0  0  0  0  0  0  0  0  0  0  0  0
   44.4541   12.5990   13.9609 C   0  0  1  0  0  0  0  0  0  0  0  0
   44.7498   12.1435   15.2866 O   0  0  0  0  0  0  0  0  0  0  0  0
   43.6578   13.9116   14.0285 C   0  0  2  0  0  0  0  0  0  0  0  0
   42.4167   13.6819   14.7298 O   0  0  0  0  0  0  0  0  0  0  0  0
   43.3668   14.3858   12.5779 C   0  0  2  0  0  0  0  0  0  0  0  0
   44.6217   14.5995   11.8618 O   0  0  0  0  0  0  0  0  0  0  0  0
   42.5979   15.7183   12.6366 C   0  0  0  0  0  0  0  0  0  0  0  0
   42.3633   16.2244   11.3168 O   0  0  0  0  0  0  0  0  0  0  0  0
  1  2  1  1  0  0  0
  1  3  1  0  0  0  0
  1  4  2  0  0  0  0
  1 16  1  0  0  0  0
  5  6  1  1  0  0  0
  5  7  1  0  0  0  0
  5 14  1  0  0  0  0
  7  8  1  6  0  0  0
  7  9  1  0  0  0  0
  9 10  1  1  0  0  0
  9 11  1  0  0  0  0
 11 12  1  1  0  0  0
 11 13  1  0  0  0  0
 13 14  1  0  0  0  0
 13 15  1  1  0  0  0
 15 16  1  0  0  0  0
M  CHG  1   3  -1
M  END
>  <CHROM.1>
177.28538637,177.83933468,-71.06419223,43.32261070,14.94291946,12.48732295
-2.44393120,-0.76318015,2.08751224

>  <Name>
ligand

>  <RI>
0

>  <Rbt.Current_Directory>
/home/itssahil/PROJECTS/Mol_Feturizer/New_Systems/rnas/2HO7

>  <Rbt.Executable>
rbdock ($Id: //depot/dev/client3/rdock/2013.1/src/exe/rbdock.cxx#4 $)

>  <Rbt.Library>
libRbt.so (2013.1, Build901 2013/11/27)

>  <Rbt.Parameter_File>
/export/apps/rDock/src/rDock_2013.1_src/data/scripts/dock_solv.prm

>  <Rbt.Receptor>
prm/pocket_docking_8.prm

>  <SCORE>
-11.0253

>  <SCORE.INTER>
-11.3054

>  <SCORE.INTER.CONST>
1

>  <SCORE.INTER.POLAR>
0

>  <SCORE.INTER.ROT>
3

>  <SCORE.INTER.SOLV>
12.9366

>  <SCORE.INTER.VDW>
-17.4491

>  <SCORE.INTER.norm>
-0.706587

>  <SCORE.INTRA>
0.280084

>  <SCORE.INTRA.DIHEDRAL>
0.237834

>  <SCORE.INTRA.DIHEDRAL.0>
0.00893466

>  <SCORE.INTRA.POLAR>
0

>  <SCORE.INTRA.POLAR.0>
0

>  <SCORE.INTRA.REPUL>
0

>  <SCORE.INTRA.REPUL.0>
0

>  <SCORE.INTRA.SOLV>
0.114092

>  <SCORE.INTRA.SOLV.lig_0>
-48.9722

>  <SCORE.INTRA.VDW>
0.104122

>  <SCORE.INTRA.VDW.0>
-0.529409

>  <SCORE.INTRA.norm>
0.0175053

>  <SCORE.RESTR>
0

>  <SCORE.RESTR.CAVITY>
0

>  <SCORE.RESTR.norm>
0

>  <SCORE.SYSTEM>
0

>  <SCORE.SYSTEM.CONST>
0

>  <SCORE.SYSTEM.DIHEDRAL>
0

>  <SCORE.SYSTEM.SOLV>
0

>  <SCORE.SYSTEM.norm>
0

>  <SCORE.heavy>
16

>  <SCORE.norm>
-0.689082

>  <RMSD>
6.092

$$$$
ligand
 OpenBabel11021811433D
libRbt.so/2013.1/901 2013/11/27
 16 16  0  0  0  0  0  0  0  0999 V2000
   41.4853   17.5750   11.4449 P   0  0  2  0  0  0  0  0  0  0  0  0
   40.0903   17.2822   11.8579 O   0  0  0  0  0  0  0  0  0  0  0  0
   42.1804   18.5169   12.5492 O   0  5  0  0  0  0  0  0  0  0  0  0
   41.4574   18.3438   10.0301 O   0  0  0  0  0  0  0  0  0  0  0  0
   45.3702   13.3219   11.7120 C   0  0  2  0  0  0  0  0  0  0  0  0
   44.6129   12.3085   11.0262 O   0  0  0  0  0  0  0  0  0  0  0  0
   45.7702   12.8446   13.1315 C   0  0  2  0  0  0  0  0  0  0  0  0
   46.5441   11.6008   13.0412 O   0  0  0  0  0  0  0  0  0  0  0  0
   44.4852   12.5936   13.9427 C   0  0  1  0  0  0  0  0  0  0  0  0
   44.8241   12.1567   15.2644 O   0  0  0  0  0  0  0  0  0  0  0  0
   43.6990   13.9118   14.0174 C   0  0  2  0  0  0  0  0  0  0  0  0
   42.4817   13.7005   14.7645 O   0  0  0  0  0  0  0  0  0  0  0  0
   43.3606   14.3655   12.5704 C   0  0  2  0  0  0  0  0  0  0  0  0
   44.5911   14.5606   11.8083 O   0  0  0  0  0  0  0  0  0  0  0  0
   42.6016   15.7034   12.6350 C   0  0  0  0  0  0  0  0  0  0  0  0
   42.3305   16.1941   11.3164 O   0  0  0  0  0  0  0  0  0  0  0  0
  1  2  1  1  0  0  0
  1  3  1  0  0  0  0
  1  4  2  0  0  0  0
  1 16  1  0  0  0  0
  5  6  1  1  0  0  0
  5  7  1  0  0  0  0
  5 14  1  0  0  0  0
  7  8  1  6  0  0  0
  7  9  1  0  0  0  0
  9 10  1  1  0  0  0
  9 11  1  0  0  0  0
 11 12  1  1  0  0  0
 11 13  1  0  0  0  0
 13 14  1  0  0  0  0
 13 15  1  1  0  0  0
 15 16  1  0  0  0  0
M  CHG  1   3  -1
M  END
>  <CHROM.1>
176.97890764,178.00870390,-73.38680006,43.32015862,14.92358481,12.47308920
-2.48046153,-0.78578930,2.04711004

>  <Name>
ligand

>  <RI>
0

>  <Rbt.Current_Directory>
/home/itssahil/PROJECTS/Mol_Feturizer/New_Systems/rnas/2HO7

>  <Rbt.Executable>
rbdock ($Id: //depot/dev/client3/rdock/2013.1/src/exe/rbdock.cxx#4 $)

>  <Rbt.Library>
libRbt.so (2013.1, Build901 2013/11/27)

>  <Rbt.Parameter_File>
/export/apps/rDock/src/rDock_2013.1_src/data/scripts/dock_solv.prm

>  <Rbt.Receptor>
prm/pocket_docking_8.prm

>  <SCORE>
-11.0935

>  <SCORE.INTER>
-11.47

>  <SCORE.INTER.CONST>
1

>  <SCORE.INTER.POLAR>
0

>  <SCORE.INTER.ROT>
3

>  <SCORE.INTER.SOLV>
12.9489

>  <SCORE.INTER.VDW>
-17.5629

>  <SCORE.INTER.norm>
-0.716873

>  <SCORE.INTRA>
0.376508

>  <SCORE.INTRA.DIHEDRAL>
0.328015

>  <SCORE.INTRA.DIHEDRAL.0>
0.00893466

>  <SCORE.INTRA.POLAR>
0

>  <SCORE.INTRA.POLAR.0>
0

>  <SCORE.INTRA.REPUL>
0

>  <SCORE.INTRA.REPUL.0>
0

>  <SCORE.INTRA.SOLV>
0.139892

>  <SCORE.INTRA.SOLV.lig_0>
-48.9722

>  <SCORE.INTRA.VDW>
0.142554

>  <SCORE.INTRA.VDW.0>
-0.529409

>  <SCORE.INTRA.norm>
0.0235317

>  <SCORE.RESTR>
0

>  <SCORE.RESTR.CAVITY>
0

>  <SCORE.RESTR.norm>
0

>  <SCORE.SYSTEM>
0

>  <SCORE.SYSTEM.CONST>
0

>  <SCORE.SYSTEM.DIHEDRAL>
0

>  <SCORE.SYSTEM.SOLV>
0

>  <SCORE.SYSTEM.norm>
0

>  <SCORE.heavy>
16

>  <SCORE.norm>
-0.693341

>  <RMSD>
6.095

$$$$
ligand
 OpenBabel11021811433D
libRbt.so/2013.1/901 2013/11/27
 16 16  0  0  0  0  0  0  0  0999 V2000
   48.8841   11.9543    9.1575 P   0  0  2  0  0  0  0  0  0  0  0  0
   49.9506   12.9055    8.7573 O   0  0  0  0  0  0  0  0  0  0  0  0
   48.9696   10.6397    8.2333 O   0  5  0  0  0  0  0  0  0  0  0  0
   47.4524   12.6611    8.9475 O   0  0  0  0  0  0  0  0  0  0  0  0
   50.7858   15.8505   12.0676 C   0  0  2  0  0  0  0  0  0  0  0  0
   51.3287   16.0378   10.7482 O   0  0  0  0  0  0  0  0  0  0  0  0
   51.8694   15.3157   13.0385 C   0  0  2  0  0  0  0  0  0  0  0  0
   53.0057   16.2438   13.0797 O   0  0  0  0  0  0  0  0  0  0  0  0
   52.3452   13.9417   12.5306 C   0  0  1  0  0  0  0  0  0  0  0  0
   53.3447   13.4183   13.4135 O   0  0  0  0  0  0  0  0  0  0  0  0
   51.1344   12.9959   12.4983 C   0  0  2  0  0  0  0  0  0  0  0  0
   51.5521   11.7015   12.0137 O   0  0  0  0  0  0  0  0  0  0  0  0
   50.0649   13.5983   11.5458 C   0  0  2  0  0  0  0  0  0  0  0  0
   49.6563   14.9162   12.0246 O   0  0  0  0  0  0  0  0  0  0  0  0
   48.8344   12.6732   11.5336 C   0  0  0  0  0  0  0  0  0  0  0  0
   49.0747   11.5242   10.7120 O   0  0  0  0  0  0  0  0  0  0  0  0
  1  2  1  6  0  0  0
  1  3  1  0  0  0  0
  1  4  2  0  0  0  0
  1 16  1  0  0  0  0
  5  6  1  6  0  0  0
  5  7  1  0  0  0  0
  5 14  1  0  0  0  0
  7  8  1  6  0  0  0
  7  9  1  0  0  0  0
  9 10  1  1  0  0  0
  9 11  1  0  0  0  0
 11 12  1  6  0  0  0
 11 13  1  0  0  0  0
 13 14  1  0  0  0  0
 13 15  1  1  0  0  0
 15 16  1  0  0  0  0
M  CHG  1   3  -1
M  END
>  <CHROM.1>
-77.72977766,-78.99868623,67.02579652,50.39023777,13.38982210,11.07977273
2.52067525,0.76535241,-3.06667980

>  <Name>
ligand

>  <RI>
0

>  <Rbt.Current_Directory>
/home/itssahil/PROJECTS/Mol_Feturizer/New_Systems/rnas/2HO7

>  <Rbt.Executable>
rbdock ($Id: //depot/dev/client3/rdock/2013.1/src/exe/rbdock.cxx#4 $)

>  <Rbt.Library>
libRbt.so (2013.1, Build901 2013/11/27)

>  <Rbt.Parameter_File>
/export/apps/rDock/src/rDock_2013.1_src/data/scripts/dock_solv.prm

>  <Rbt.Receptor>
prm/pocket_docking_5.prm

>  <SCORE>
-4.3669

>  <SCORE.INTER>
-6.29186

>  <SCORE.INTER.CONST>
1

>  <SCORE.INTER.POLAR>
-2.07809

>  <SCORE.INTER.ROT>
3

>  <SCORE.INTER.SOLV>
14.7955

>  <SCORE.INTER.VDW>
-7.79944

>  <SCORE.INTER.norm>
-0.393241

>  <SCORE.INTRA>
1.92496

>  <SCORE.INTRA.DIHEDRAL>
2.76934

>  <SCORE.INTRA.DIHEDRAL.0>
0.00893466

>  <SCORE.INTRA.POLAR>
0

>  <SCORE.INTRA.POLAR.0>
0

>  <SCORE.INTRA.REPUL>
0

>  <SCORE.INTRA.REPUL.0>
0

>  <SCORE.INTRA.SOLV>
1.47621

>  <SCORE.INTRA.SOLV.lig_0>
-48.9722

>  <SCORE.INTRA.VDW>
-0.197814

>  <SCORE.INTRA.VDW.0>
-0.529409

>  <SCORE.INTRA.norm>
0.12031

>  <SCORE.RESTR>
0

>  <SCORE.RESTR.CAVITY>
0

>  <SCORE.RESTR.norm>
0

>  <SCORE.SYSTEM>
0

>  <SCORE.SYSTEM.CONST>
0

>  <SCORE.SYSTEM.DIHEDRAL>
0

>  <SCORE.SYSTEM.SOLV>
0

>  <SCORE.SYSTEM.norm>
0

>  <SCORE.heavy>
16

>  <SCORE.norm>
-0.272931

>  <RMSD>
6.874

$$$$
ligand
 OpenBabel11021811433D
libRbt.so/2013.1/901 2013/11/27
 16 16  0  0  0  0  0  0  0  0999 V2000
   47.3498   12.1340   11.8037 P   0  0  2  0  0  0  0  0  0  0  0  0
   46.7158   11.0495   12.5938 O   0  0  0  0  0  0  0  0  0  0  0  0
   46.3377   13.3812   11.7044 O   0  5  0  0  0  0  0  0  0  0  0  0
   47.6630   11.5828   10.3233 O   0  0  0  0  0  0  0  0  0  0  0  0
   51.8004   15.4949   13.7682 C   0  0  2  0  0  0  0  0  0  0  0  0
   52.7079   15.9665   12.7559 O   0  0  0  0  0  0  0  0  0  0  0  0
   52.4326   14.3332   14.5768 C   0  0  2  0  0  0  0  0  0  0  0  0
   53.6929   14.7754   15.1853 O   0  0  0  0  0  0  0  0  0  0  0  0
   52.7083   13.1620   13.6153 C   0  0  1  0  0  0  0  0  0  0  0  0
   53.2880   12.0687   14.3371 O   0  0  0  0  0  0  0  0  0  0  0  0
   51.3719   12.7245   12.9956 C   0  0  2  0  0  0  0  0  0  0  0  0
   51.6047   11.6329   12.0795 O   0  0  0  0  0  0  0  0  0  0  0  0
   50.7631   13.9343   12.2342 C   0  0  2  0  0  0  0  0  0  0  0  0
   50.5456   15.0457   13.1565 O   0  0  0  0  0  0  0  0  0  0  0  0
   49.4074   13.5138   11.6382 C   0  0  0  0  0  0  0  0  0  0  0  0
   48.7223   12.6194   12.5235 O   0  0  0  0  0  0  0  0  0  0  0  0
  1  2  1  1  0  0  0
  1  3  1  0  0  0  0
  1  4  2  0  0  0  0
  1 16  1  0  0  0  0
  5  6  1  6  0  0  0
  5  7  1  0  0  0  0
  5 14  1  0  0  0  0
  7  8  1  6  0  0  0
  7  9  1  0  0  0  0
  9 10  1  1  0  0  0
  9 11  1  0  0  0  0
 11 12  1  6  0  0  0
 11 13  1  0  0  0  0
 13 14  1  0  0  0  0
 13 15  1  1  0  0  0
 15 16  1  0  0  0  0
M  CHG  1   3  -1
M  END
>  <CHROM.1>
36.20153020,-176.32919085,171.30881603,50.18972843,13.23165585,12.74381363
-2.77882418,-0.38585493,0.03269785

>  <Name>
ligand

>  <RI>
0

>  <Rbt.Current_Directory>
/home/itssahil/PROJECTS/Mol_Feturizer/New_Systems/rnas/2HO7

>  <Rbt.Executable>
rbdock ($Id: //depot/dev/client3/rdock/2013.1/src/exe/rbdock.cxx#4 $)

>  <Rbt.Library>
libRbt.so (2013.1, Build901 2013/11/27)

>  <Rbt.Parameter_File>
/export/apps/rDock/src/rDock_2013.1_src/data/scripts/dock_solv.prm

>  <Rbt.Receptor>
prm/pocket_docking_8.prm

>  <SCORE>
-4.22745

>  <SCORE.INTER>
-6.05971

>  <SCORE.INTER.CONST>
1

>  <SCORE.INTER.POLAR>
-1.03866

>  <SCORE.INTER.ROT>
3

>  <SCORE.INTER.SOLV>
13.2559

>  <SCORE.INTER.VDW>
-10.5962

>  <SCORE.INTER.norm>
-0.378732

>  <SCORE.INTRA>
1.83226

>  <SCORE.INTRA.DIHEDRAL>
1.97953

>  <SCORE.INTRA.DIHEDRAL.0>
0.00893466

>  <SCORE.INTRA.POLAR>
0

>  <SCORE.INTRA.POLAR.0>
0

>  <SCORE.INTRA.REPUL>
0

>  <SCORE.INTRA.REPUL.0>
0

>  <SCORE.INTRA.SOLV>
1.09983

>  <SCORE.INTRA.SOLV.lig_0>
-48.9722

>  <SCORE.INTRA.VDW>
0.292585

>  <SCORE.INTRA.VDW.0>
-0.529409

>  <SCORE.INTRA.norm>
0.114516

>  <SCORE.RESTR>
0

>  <SCORE.RESTR.CAVITY>
0

>  <SCORE.RESTR.norm>
0

>  <SCORE.SYSTEM>
0

>  <SCORE.SYSTEM.CONST>
0

>  <SCORE.SYSTEM.DIHEDRAL>
0

>  <SCORE.SYSTEM.SOLV>
0

>  <SCORE.SYSTEM.norm>
0

>  <SCORE.heavy>
16

>  <SCORE.norm>
-0.264215

>  <RMSD>
7.115

$$$$
ligand
 OpenBabel11021811433D
libRbt.so/2013.1/901 2013/11/27
 16 16  0  0  0  0  0  0  0  0999 V2000
   38.1303   11.3800   11.6623 P   0  0  2  0  0  0  0  0  0  0  0  0
   37.2253   12.1026   12.5903 O   0  0  0  0  0  0  0  0  0  0  0  0
   37.5924   11.5492   10.1551 O   0  5  0  0  0  0  0  0  0  0  0  0
   38.1358    9.8179   12.0539 O   0  0  0  0  0  0  0  0  0  0  0  0
   43.3662   13.4148   13.4624 C   0  0  2  0  0  0  0  0  0  0  0  0
   43.8852   13.5556   12.1277 O   0  0  0  0  0  0  0  0  0  0  0  0
   44.2099   12.4016   14.2776 C   0  0  2  0  0  0  0  0  0  0  0  0
   45.6115   12.8352   14.3167 O   0  0  0  0  0  0  0  0  0  0  0  0
   44.1158   11.0251   13.5930 C   0  0  1  0  0  0  0  0  0  0  0  0
   44.8822   10.0644   14.3293 O   0  0  0  0  0  0  0  0  0  0  0  0
   42.6390   10.6013   13.5671 C   0  0  2  0  0  0  0  0  0  0  0  0
   42.5219    9.3165   12.9188 O   0  0  0  0  0  0  0  0  0  0  0  0
   41.8344   11.6693   12.7759 C   0  0  2  0  0  0  0  0  0  0  0  0
   41.9685   12.9732   13.4203 O   0  0  0  0  0  0  0  0  0  0  0  0
   40.3478   11.2693   12.7739 C   0  0  0  0  0  0  0  0  0  0  0  0
   39.6328   11.9885   11.7617 O   0  0  0  0  0  0  0  0  0  0  0  0
  1  2  1  1  0  0  0
  1  3  1  0  0  0  0
  1  4  2  0  0  0  0
  1 16  1  0  0  0  0
  5  6  1  6  0  0  0
  5  7  1  0  0  0  0
  5 14  1  0  0  0  0
  7  8  1  6  0  0  0
  7  9  1  0  0  0  0
  9 10  1  1  0  0  0
  9 11  1  0  0  0  0
 11 12  1  6  0  0  0
 11 13  1  0  0  0  0
 13 14  1  0  0  0  0
 13 15  1  1  0  0  0
 15 16  1  0  0  0  0
M  CHG  1   3  -1
M  END
>  <CHROM.1>
-163.54306606,172.06762943,89.88251536,41.34086587,11.59950631,12.75210899
3.09999762,0.33889008,2.99680517

>  <Name>
ligand

>  <RI>
0

>  <Rbt.Current_Directory>
/home/itssahil/PROJECTS/Mol_Feturizer/New_Systems/rnas/2HO7

>  <Rbt.Executable>
rbdock ($Id: //depot/dev/client3/rdock/2013.1/src/exe/rbdock.cxx#4 $)

>  <Rbt.Library>
libRbt.so (2013.1, Build901 2013/11/27)

>  <Rbt.Parameter_File>
/export/apps/rDock/src/rDock_2013.1_src/data/scripts/dock_solv.prm

>  <Rbt.Receptor>
prm/pocket_docking_8.prm

>  <SCORE>
-6.45897

>  <SCORE.INTER>
-8.16808

>  <SCORE.INTER.CONST>
1

>  <SCORE.INTER.POLAR>
0

>  <SCORE.INTER.ROT>
3

>  <SCORE.INTER.SOLV>
20.5712

>  <SCORE.INTER.VDW>
-17.9025

>  <SCORE.INTER.norm>
-0.510505

>  <SCORE.INTRA>
1.70911

>  <SCORE.INTRA.DIHEDRAL>
2.40785

>  <SCORE.INTRA.DIHEDRAL.0>
0.00893466

>  <SCORE.INTRA.POLAR>
0

>  <SCORE.INTRA.POLAR.0>
0

>  <SCORE.INTRA.REPUL>
0

>  <SCORE.INTRA.REPUL.0>
0

>  <SCORE.INTRA.SOLV>
0.219766

>  <SCORE.INTRA.SOLV.lig_0>
-48.9722

>  <SCORE.INTRA.VDW>
0.395299

>  <SCORE.INTRA.VDW.0>
-0.529409

>  <SCORE.INTRA.norm>
0.106819

>  <SCORE.RESTR>
0

>  <SCORE.RESTR.CAVITY>
0

>  <SCORE.RESTR.norm>
0

>  <SCORE.SYSTEM>
0

>  <SCORE.SYSTEM.CONST>
0

>  <SCORE.SYSTEM.DIHEDRAL>
0

>  <SCORE.SYSTEM.SOLV>
0

>  <SCORE.SYSTEM.norm>
0

>  <SCORE.heavy>
16

>  <SCORE.norm>
-0.403686

>  <RMSD>
7.504

$$$$
ligand
 OpenBabel11021811433D
libRbt.so/2013.1/901 2013/11/27
 16 16  0  0  0  0  0  0  0  0999 V2000
   37.5481   10.3846   11.6296 P   0  0  2  0  0  0  0  0  0  0  0  0
   36.9313   10.5050   12.9739 O   0  0  0  0  0  0  0  0  0  0  0  0
   37.1530   11.6701   10.7459 O   0  5  0  0  0  0  0  0  0  0  0  0
   36.9848    9.0546   10.9171 O   0  0  0  0  0  0  0  0  0  0  0  0
   42.9956   12.6578   13.6226 C   0  0  2  0  0  0  0  0  0  0  0  0
   43.5342   12.9833   12.3286 O   0  0  0  0  0  0  0  0  0  0  0  0
   43.6115   11.3407   14.1603 C   0  0  2  0  0  0  0  0  0  0  0  0
   45.0723   11.4640   14.2303 O   0  0  0  0  0  0  0  0  0  0  0  0
   43.2369   10.1978   13.1982 C   0  0  1  0  0  0  0  0  0  0  0  0
   43.7881    8.9639   13.6738 O   0  0  0  0  0  0  0  0  0  0  0  0
   41.7045   10.0961   13.1466 C   0  0  2  0  0  0  0  0  0  0  0  0
   41.3261    9.0372   12.2407 O   0  0  0  0  0  0  0  0  0  0  0  0
   41.1381   11.4522   12.6424 C   0  0  2  0  0  0  0  0  0  0  0  0
   41.5369   12.5267   13.5477 O   0  0  0  0  0  0  0  0  0  0  0  0
   39.6009   11.3699   12.6196 C   0  0  0  0  0  0  0  0  0  0  0  0
   39.1649   10.3077   11.7624 O   0  0  0  0  0  0  0  0  0  0  0  0
  1  2  1  1  0  0  0
  1  3  1  0  0  0  0
  1  4  2  0  0  0  0
  1 16  1  0  0  0  0
  5  6  1  6  0  0  0
  5  7  1  0  0  0  0
  5 14  1  0  0  0  0
  7  8  1  6  0  0  0
  7  9  1  0  0  0  0
  9 10  1  1  0  0  0
  9 11  1  0  0  0  0
 11 12  1  6  0  0  0
 11 13  1  0  0  0  0
 13 14  1  0  0  0  0
 13 15  1  1  0  0  0
 15 16  1  0  0  0  0
M  CHG  1   3  -1
M  END
>  <CHROM.1>
-59.06787883,-172.99969301,-48.99218242,40.67490576,10.82692015,12.61428085
2.99874071,0.30808114,-3.12310242

>  <Name>
ligand

>  <RI>
0

>  <Rbt.Current_Directory>
/home/itssahil/PROJECTS/Mol_Feturizer/New_Systems/rnas/2HO7

>  <Rbt.Executable>
rbdock ($Id: //depot/dev/client3/rdock/2013.1/src/exe/rbdock.cxx#4 $)

>  <Rbt.Library>
libRbt.so (2013.1, Build901 2013/11/27)

>  <Rbt.Parameter_File>
/export/apps/rDock/src/rDock_2013.1_src/data/scripts/dock_solv.prm

>  <Rbt.Receptor>
prm/pocket_docking_7.prm

>  <SCORE>
-6.41816

>  <SCORE.INTER>
-7.35717

>  <SCORE.INTER.CONST>
1

>  <SCORE.INTER.POLAR>
0

>  <SCORE.INTER.ROT>
3

>  <SCORE.INTER.SOLV>
22.6408

>  <SCORE.INTER.VDW>
-18.0517

>  <SCORE.INTER.norm>
-0.459823

>  <SCORE.INTRA>
0.939008

>  <SCORE.INTRA.DIHEDRAL>
0.426325

>  <SCORE.INTRA.DIHEDRAL.0>
0.00893466

>  <SCORE.INTRA.POLAR>
0

>  <SCORE.INTRA.POLAR.0>
0

>  <SCORE.INTRA.REPUL>
0

>  <SCORE.INTRA.REPUL.0>
0

>  <SCORE.INTRA.SOLV>
0.399767

>  <SCORE.INTRA.SOLV.lig_0>
-48.9722

>  <SCORE.INTRA.VDW>
0.525962

>  <SCORE.INTRA.VDW.0>
-0.529409

>  <SCORE.INTRA.norm>
0.058688

>  <SCORE.RESTR>
0

>  <SCORE.RESTR.CAVITY>
0

>  <SCORE.RESTR.norm>
0

>  <SCORE.SYSTEM>
0

>  <SCORE.SYSTEM.CONST>
0

>  <SCORE.SYSTEM.DIHEDRAL>
0

>  <SCORE.SYSTEM.SOLV>
0

>  <SCORE.SYSTEM.norm>
0

>  <SCORE.heavy>
16

>  <SCORE.norm>
-0.401135

>  <RMSD>
7.955

$$$$
ligand
 OpenBabel11021811433D
libRbt.so/2013.1/901 2013/11/27
 16 16  0  0  0  0  0  0  0  0999 V2000
   53.5449    8.8815    8.5422 P   0  0  2  0  0  0  0  0  0  0  0  0
   53.9328    7.5932    9.1683 O   0  0  0  0  0  0  0  0  0  0  0  0
   51.9911    9.1729    8.8434 O   0  5  0  0  0  0  0  0  0  0  0  0
   53.7680    8.7735    6.9509 O   0  0  0  0  0  0  0  0  0  0  0  0
   51.6512   13.0570   10.3481 C   0  0  2  0  0  0  0  0  0  0  0  0
   50.5535   12.1348   10.2241 O   0  0  0  0  0  0  0  0  0  0  0  0
   51.4403   14.2907    9.4334 C   0  0  2  0  0  0  0  0  0  0  0  0
   50.1748   14.9530    9.7711 O   0  0  0  0  0  0  0  0  0  0  0  0
   51.3964   13.8120    7.9701 C   0  0  1  0  0  0  0  0  0  0  0  0
   51.2086   14.9337    7.0989 O   0  0  0  0  0  0  0  0  0  0  0  0
   52.7323   13.1236    7.6495 C   0  0  2  0  0  0  0  0  0  0  0  0
   52.7125   12.6545    6.2841 O   0  0  0  0  0  0  0  0  0  0  0  0
   52.9126   11.9233    8.6195 C   0  0  2  0  0  0  0  0  0  0  0  0
   52.9130   12.3949   10.0018 O   0  0  0  0  0  0  0  0  0  0  0  0
   54.2648   11.2481    8.3270 C   0  0  0  0  0  0  0  0  0  0  0  0
   54.4404   10.0908    9.1533 O   0  0  0  0  0  0  0  0  0  0  0  0
  1  2  1  1  0  0  0
  1  3  1  0  0  0  0
  1  4  2  0  0  0  0
  1 16  1  0  0  0  0
  5  6  1  6  0  0  0
  5  7  1  0  0  0  0
  5 14  1  0  0  0  0
  7  8  1  1  0  0  0
  7  9  1  0  0  0  0
  9 10  1  6  0  0  0
  9 11  1  0  0  0  0
 11 12  1  6  0  0  0
 11 13  1  0  0  0  0
 13 14  1  0  0  0  0
 13 15  1  6  0  0  0
 15 16  1  0  0  0  0
M  CHG  1   3  -1
M  END
>  <CHROM.1>
-176.94918667,77.11945426,166.93766877,52.55281244,11.56270541,8.63621229
0.64112559,-1.01445979,2.34652580

>  <Name>
ligand

>  <RI>
0

>  <Rbt.Current_Directory>
/home/itssahil/PROJECTS/Mol_Feturizer/New_Systems/rnas/2HO7

>  <Rbt.Executable>
rbdock ($Id: //depot/dev/client3/rdock/2013.1/src/exe/rbdock.cxx#4 $)

>  <Rbt.Library>
libRbt.so (2013.1, Build901 2013/11/27)

>  <Rbt.Parameter_File>
/export/apps/rDock/src/rDock_2013.1_src/data/scripts/dock_solv.prm

>  <Rbt.Receptor>
prm/pocket_docking_8.prm

>  <SCORE>
-9.30493

>  <SCORE.INTER>
-11.8867

>  <SCORE.INTER.CONST>
1

>  <SCORE.INTER.POLAR>
-2.33732

>  <SCORE.INTER.ROT>
3

>  <SCORE.INTER.SOLV>
11.1196

>  <SCORE.INTER.VDW>
-9.43995

>  <SCORE.INTER.norm>
-0.742921

>  <SCORE.INTRA>
2.5818

>  <SCORE.INTRA.DIHEDRAL>
1.64757

>  <SCORE.INTRA.DIHEDRAL.0>
0.00893466

>  <SCORE.INTRA.POLAR>
0

>  <SCORE.INTRA.POLAR.0>
0

>  <SCORE.INTRA.REPUL>
0

>  <SCORE.INTRA.REPUL.0>
0

>  <SCORE.INTRA.SOLV>
4.03465

>  <SCORE.INTRA.SOLV.lig_0>
-48.9722

>  <SCORE.INTRA.VDW>
-0.259309

>  <SCORE.INTRA.VDW.0>
-0.529409

>  <SCORE.INTRA.norm>
0.161363

>  <SCORE.RESTR>
0

>  <SCORE.RESTR.CAVITY>
0

>  <SCORE.RESTR.norm>
0

>  <SCORE.SYSTEM>
0

>  <SCORE.SYSTEM.CONST>
0

>  <SCORE.SYSTEM.DIHEDRAL>
0

>  <SCORE.SYSTEM.SOLV>
0

>  <SCORE.SYSTEM.norm>
0

>  <SCORE.heavy>
16

>  <SCORE.norm>
-0.581558

>  <RMSD>
8.084

$$$$
ligand
 OpenBabel11021811433D
libRbt.so/2013.1/901 2013/11/27
 16 16  0  0  0  0  0  0  0  0999 V2000
   53.6491   11.0618    9.1015 P   0  0  2  0  0  0  0  0  0  0  0  0
   55.0918   10.7162    9.1396 O   0  0  0  0  0  0  0  0  0  0  0  0
   52.7821    9.7737    9.5245 O   0  5  0  0  0  0  0  0  0  0  0  0
   53.2589   11.4974    7.6010 O   0  0  0  0  0  0  0  0  0  0  0  0
   53.5087   13.2475   14.8988 C   0  0  2  0  0  0  0  0  0  0  0  0
   52.1139   12.9481   15.0878 O   0  0  0  0  0  0  0  0  0  0  0  0
   53.7179   14.7630   14.6486 C   0  0  2  0  0  0  0  0  0  0  0  0
   53.1766   15.5349   15.7734 O   0  0  0  0  0  0  0  0  0  0  0  0
   52.9780   15.1511   13.3546 C   0  0  1  0  0  0  0  0  0  0  0  0
   53.1592   16.5481   13.0934 O   0  0  0  0  0  0  0  0  0  0  0  0
   53.5662   14.3264   12.1991 C   0  0  2  0  0  0  0  0  0  0  0  0
   52.8806   14.6638   10.9739 O   0  0  0  0  0  0  0  0  0  0  0  0
   53.3676   12.8191   12.5195 C   0  0  2  0  0  0  0  0  0  0  0  0
   54.0445   12.4815   13.7690 O   0  0  0  0  0  0  0  0  0  0  0  0
   53.9843   11.9849   11.3820 C   0  0  0  0  0  0  0  0  0  0  0  0
   53.3384   12.2745   10.1362 O   0  0  0  0  0  0  0  0  0  0  0  0
  1  2  1  1  0  0  0
  1  3  1  0  0  0  0
  1  4  2  0  0  0  0
  1 16  1  0  0  0  0
  5  6  1  6  0  0  0
  5  7  1  0  0  0  0
  5 14  1  0  0  0  0
  7  8  1  1  0  0  0
  7  9  1  0  0  0  0
  9 10  1  6  0  0  0
  9 11  1  0  0  0  0
 11 12  1  6  0  0  0
 11 13  1  0  0  0  0
 13 14  1  0  0  0  0
 13 15  1  6  0  0  0
 15 16  1  0  0  0  0
M  CHG  1   3  -1
M  END
>  <CHROM.1>
-60.87511792,-161.20358802,-46.21020238,53.42223359,12.94422786,11.82034106
-0.53042488,-1.48714692,2.01081362

>  <Name>
ligand

>  <RI>
0

>  <Rbt.Current_Directory>
/home/itssahil/PROJECTS/Mol_Feturizer/New_Systems/rnas/2HO7

>  <Rbt.Executable>
rbdock ($Id: //depot/dev/client3/rdock/2013.1/src/exe/rbdock.cxx#4 $)

>  <Rbt.Library>
libRbt.so (2013.1, Build901 2013/11/27)

>  <Rbt.Parameter_File>
/export/apps/rDock/src/rDock_2013.1_src/data/scripts/dock_solv.prm

>  <Rbt.Receptor>
prm/pocket_docking_8.prm

>  <SCORE>
-7.63067

>  <SCORE.INTER>
-9.30469

>  <SCORE.INTER.CONST>
1

>  <SCORE.INTER.POLAR>
-1.29601

>  <SCORE.INTER.ROT>
3

>  <SCORE.INTER.SOLV>
10.8842

>  <SCORE.INTER.VDW>
-11.1112

>  <SCORE.INTER.norm>
-0.581543

>  <SCORE.INTRA>
1.67402

>  <SCORE.INTRA.DIHEDRAL>
1.89957

>  <SCORE.INTRA.DIHEDRAL.0>
0.00893466

>  <SCORE.INTRA.POLAR>
0

>  <SCORE.INTRA.POLAR.0>
0

>  <SCORE.INTRA.REPUL>
0

>  <SCORE.INTRA.REPUL.0>
0

>  <SCORE.INTRA.SOLV>
0.366109

>  <SCORE.INTRA.SOLV.lig_0>
-48.9722

>  <SCORE.INTRA.VDW>
0.54118

>  <SCORE.INTRA.VDW.0>
-0.529409

>  <SCORE.INTRA.norm>
0.104626

>  <SCORE.RESTR>
0

>  <SCORE.RESTR.CAVITY>
0

>  <SCORE.RESTR.norm>
0

>  <SCORE.SYSTEM>
0

>  <SCORE.SYSTEM.CONST>
0

>  <SCORE.SYSTEM.DIHEDRAL>
0

>  <SCORE.SYSTEM.SOLV>
0

>  <SCORE.SYSTEM.norm>
0

>  <SCORE.heavy>
16

>  <SCORE.norm>
-0.476917

>  <RMSD>
8.204

$$$$
ligand
 OpenBabel11021811433D
libRbt.so/2013.1/901 2013/11/27
 16 16  0  0  0  0  0  0  0  0999 V2000
   48.3335   12.3574   11.3740 P   0  0  2  0  0  0  0  0  0  0  0  0
   47.1495   13.0136   10.7658 O   0  0  0  0  0  0  0  0  0  0  0  0
   48.7186   11.0526   10.5145 O   0  5  0  0  0  0  0  0  0  0  0  0
   47.9664   11.9153   12.8784 O   0  0  0  0  0  0  0  0  0  0  0  0
   53.7460   14.9510   11.7300 C   0  0  2  0  0  0  0  0  0  0  0  0
   53.5175   15.5955   10.4639 O   0  0  0  0  0  0  0  0  0  0  0  0
   54.8626   13.8824   11.6108 C   0  0  2  0  0  0  0  0  0  0  0  0
   56.0993   14.5039   11.1224 O   0  0  0  0  0  0  0  0  0  0  0  0
   54.4009   12.8024   10.6143 C   0  0  1  0  0  0  0  0  0  0  0  0
   55.4121   11.7955   10.4881 O   0  0  0  0  0  0  0  0  0  0  0  0
   53.1064   12.1736   11.1531 C   0  0  2  0  0  0  0  0  0  0  0  0
   52.6455   11.1638   10.2296 O   0  0  0  0  0  0  0  0  0  0  0  0
   52.0370   13.2920   11.2923 C   0  0  2  0  0  0  0  0  0  0  0  0
   52.5109   14.3236   12.2112 O   0  0  0  0  0  0  0  0  0  0  0  0
   50.7468   12.6760   11.8634 C   0  0  0  0  0  0  0  0  0  0  0  0
   49.5953   13.3799   11.3820 O   0  0  0  0  0  0  0  0  0  0  0  0
  1  2  1  6  0  0  0
  1  3  1  0  0  0  0
  1  4  2  0  0  0  0
  1 16  1  0  0  0  0
  5  6  1  6  0  0  0
  5  7  1  0  0  0  0
  5 14  1  0  0  0  0
  7  8  1  6  0  0  0
  7  9  1  0  0  0  0
  9 10  1  1  0  0  0
  9 11  1  0  0  0  0
 11 12  1  6  0  0  0
 11 13  1  0  0  0  0
 13 14  1  0  0  0  0
 13 15  1  1  0  0  0
 15 16  1  0  0  0  0
M  CHG  1   3  -1
M  END
>  <CHROM.1>
-149.47128747,152.80686714,-174.88377292,51.62548904,12.99531709,11.23148632
2.94718122,-0.11330456,-2.88564979

>  <Name>
ligand

>  <RI>
0

>  <Rbt.Current_Directory>
/home/itssahil/PROJECTS/Mol_Feturizer/New_Systems/rnas/2HO7

>  <Rbt.Executable>
rbdock ($Id: //depot/dev/client3/rdock/2013.1/src/exe/rbdock.cxx#4 $)

>  <Rbt.Library>
libRbt.so (2013.1, Build901 2013/11/27)

>  <Rbt.Parameter_File>
/export/apps/rDock/src/rDock_2013.1_src/data/scripts/dock_solv.prm

>  <Rbt.Receptor>
prm/pocket_docking_7.prm

>  <SCORE>
-5.87823

>  <SCORE.INTER>
-9.081

>  <SCORE.INTER.CONST>
1

>  <SCORE.INTER.POLAR>
-2.33827

>  <SCORE.INTER.ROT>
3

>  <SCORE.INTER.SOLV>
19.7741

>  <SCORE.INTER.VDW>
-10.4511

>  <SCORE.INTER.norm>
-0.567562

>  <SCORE.INTRA>
3.20277

>  <SCORE.INTRA.DIHEDRAL>
5.81773

>  <SCORE.INTRA.DIHEDRAL.0>
0.00893466

>  <SCORE.INTRA.POLAR>
0

>  <SCORE.INTRA.POLAR.0>
0

>  <SCORE.INTRA.REPUL>
0

>  <SCORE.INTRA.REPUL.0>
0

>  <SCORE.INTRA.SOLV>
1.00304

>  <SCORE.INTRA.SOLV.lig_0>
-48.9722

>  <SCORE.INTRA.VDW>
-0.207615

>  <SCORE.INTRA.VDW.0>
-0.529409

>  <SCORE.INTRA.norm>
0.200173

>  <SCORE.RESTR>
0

>  <SCORE.RESTR.CAVITY>
0

>  <SCORE.RESTR.norm>
0

>  <SCORE.SYSTEM>
0

>  <SCORE.SYSTEM.CONST>
0

>  <SCORE.SYSTEM.DIHEDRAL>
0

>  <SCORE.SYSTEM.SOLV>
0

>  <SCORE.SYSTEM.norm>
0

>  <SCORE.heavy>
16

>  <SCORE.norm>
-0.367389

>  <RMSD>
8.403

$$$$
ligand
 OpenBabel11021811433D
libRbt.so/2013.1/901 2013/11/27
 16 16  0  0  0  0  0  0  0  0999 V2000
   53.9253   11.4075    9.7452 P   0  0  2  0  0  0  0  0  0  0  0  0
   54.0521   11.6427   11.2050 O   0  0  0  0  0  0  0  0  0  0  0  0
   52.6150   10.5174    9.4616 O   0  5  0  0  0  0  0  0  0  0  0  0
   55.2296   10.6144    9.2319 O   0  0  0  0  0  0  0  0  0  0  0  0
   52.4953   16.0886    6.6854 C   0  0  2  0  0  0  0  0  0  0  0  0
   53.5461   16.9534    7.1529 O   0  0  0  0  0  0  0  0  0  0  0  0
   51.1033   16.7046    6.9786 C   0  0  2  0  0  0  0  0  0  0  0  0
   50.9980   18.0253    6.3471 O   0  0  0  0  0  0  0  0  0  0  0  0
   50.9445   16.8492    8.5038 C   0  0  1  0  0  0  0  0  0  0  0  0
   49.6619   17.4112    8.8062 O   0  0  0  0  0  0  0  0  0  0  0  0
   51.0607   15.4522    9.1335 C   0  0  2  0  0  0  0  0  0  0  0  0
   50.9264   15.5617   10.5669 O   0  0  0  0  0  0  0  0  0  0  0  0
   52.4539   14.8653    8.7751 C   0  0  2  0  0  0  0  0  0  0  0  0
   52.5979   14.7727    7.3246 O   0  0  0  0  0  0  0  0  0  0  0  0
   52.5655   13.4516    9.3743 C   0  0  0  0  0  0  0  0  0  0  0  0
   53.7855   12.8234    8.9621 O   0  0  0  0  0  0  0  0  0  0  0  0
  1  2  1  1  0  0  0
  1  3  1  0  0  0  0
  1  4  2  0  0  0  0
  1 16  1  0  0  0  0
  5  6  1  1  0  0  0
  5  7  1  0  0  0  0
  5 14  1  0  0  0  0
  7  8  1  6  0  0  0
  7  9  1  0  0  0  0
  9 10  1  6  0  0  0
  9 11  1  0  0  0  0
 11 12  1  1  0  0  0
 11 13  1  0  0  0  0
 13 14  1  0  0  0  0
 13 15  1  1  0  0  0
 15 16  1  0  0  0  0
M  CHG  1   3  -1
M  END
>  <CHROM.1>
174.56970154,174.05113412,-64.13609393,52.50721125,14.31023313,8.73696533
-0.99173791,0.71585056,-0.76168647

>  <Name>
ligand

>  <RI>
0

>  <Rbt.Current_Directory>
/home/itssahil/PROJECTS/Mol_Feturizer/New_Systems/rnas/2HO7

>  <Rbt.Executable>
rbdock ($Id: //depot/dev/client3/rdock/2013.1/src/exe/rbdock.cxx#4 $)

>  <Rbt.Library>
libRbt.so (2013.1, Build901 2013/11/27)

>  <Rbt.Parameter_File>
/export/apps/rDock/src/rDock_2013.1_src/data/scripts/dock_solv.prm

>  <Rbt.Receptor>
prm/pocket_docking_7.prm

>  <SCORE>
-6.41349

>  <SCORE.INTER>
-6.62971

>  <SCORE.INTER.CONST>
1

>  <SCORE.INTER.POLAR>
-1.29904

>  <SCORE.INTER.ROT>
3

>  <SCORE.INTER.SOLV>
12.6299

>  <SCORE.INTER.VDW>
-9.89964

>  <SCORE.INTER.norm>
-0.414357

>  <SCORE.INTRA>
0.21622

>  <SCORE.INTRA.DIHEDRAL>
0.299286

>  <SCORE.INTRA.DIHEDRAL.0>
0.00893466

>  <SCORE.INTRA.POLAR>
0

>  <SCORE.INTRA.POLAR.0>
0

>  <SCORE.INTRA.REPUL>
0

>  <SCORE.INTRA.REPUL.0>
0

>  <SCORE.INTRA.SOLV>
0.0284004

>  <SCORE.INTRA.SOLV.lig_0>
-48.9722

>  <SCORE.INTRA.VDW>
0.0523767

>  <SCORE.INTRA.VDW.0>
-0.529409

>  <SCORE.INTRA.norm>
0.0135137

>  <SCORE.RESTR>
0

>  <SCORE.RESTR.CAVITY>
0

>  <SCORE.RESTR.norm>
0

>  <SCORE.SYSTEM>
0

>  <SCORE.SYSTEM.CONST>
0

>  <SCORE.SYSTEM.DIHEDRAL>
0

>  <SCORE.SYSTEM.SOLV>
0

>  <SCORE.SYSTEM.norm>
0

>  <SCORE.heavy>
16

>  <SCORE.norm>
-0.400843

>  <RMSD>
8.625

$$$$
ligand
 OpenBabel11021811433D
libRbt.so/2013.1/901 2013/11/27
 16 16  0  0  0  0  0  0  0  0999 V2000
   50.9028   10.8424   18.9412 P   0  0  2  0  0  0  0  0  0  0  0  0
   52.0356    9.9235   19.2145 O   0  0  0  0  0  0  0  0  0  0  0  0
   50.5876   11.7059   20.2621 O   0  5  0  0  0  0  0  0  0  0  0  0
   49.6069    9.9682   18.5542 O   0  0  0  0  0  0  0  0  0  0  0  0
   53.7570   13.3224   14.5653 C   0  0  2  0  0  0  0  0  0  0  0  0
   52.9162   14.4817   14.4247 O   0  0  0  0  0  0  0  0  0  0  0  0
   53.8141   12.5193   13.2407 C   0  0  2  0  0  0  0  0  0  0  0  0
   54.3039   13.3781   12.1560 O   0  0  0  0  0  0  0  0  0  0  0  0
   52.3934   12.0272   12.9061 C   0  0  1  0  0  0  0  0  0  0  0  0
   52.4159   11.2744   11.6874 O   0  0  0  0  0  0  0  0  0  0  0  0
   51.9105   11.1338   14.0593 C   0  0  2  0  0  0  0  0  0  0  0  0
   50.5738   10.6677   13.7751 O   0  0  0  0  0  0  0  0  0  0  0  0
   51.9120   11.9738   15.3664 C   0  0  2  0  0  0  0  0  0  0  0  0
   53.2603   12.4619   15.6439 O   0  0  0  0  0  0  0  0  0  0  0  0
   51.4611   11.0763   16.5331 C   0  0  0  0  0  0  0  0  0  0  0  0
   51.2829   11.8503   17.7257 O   0  0  0  0  0  0  0  0  0  0  0  0
  1  2  1  1  0  0  0
  1  3  1  0  0  0  0
  1  4  2  0  0  0  0
  1 16  1  0  0  0  0
  5  6  1  6  0  0  0
  5  7  1  0  0  0  0
  5 14  1  0  0  0  0
  7  8  1  6  0  0  0
  7  9  1  0  0  0  0
  9 10  1  6  0  0  0
  9 11  1  0  0  0  0
 11 12  1  6  0  0  0
 11 13  1  0  0  0  0
 13 14  1  0  0  0  0
 13 15  1  1  0  0  0
 15 16  1  0  0  0  0
M  CHG  1   3  -1
M  END
>  <CHROM.1>
-172.60301326,-176.37462949,64.39959852,51.96649842,11.71383575,15.84761996
-2.12194706,-0.86081896,-1.72356427

>  <Name>
ligand

>  <RI>
0

>  <Rbt.Current_Directory>
/home/itssahil/PROJECTS/Mol_Feturizer/New_Systems/rnas/2HO7

>  <Rbt.Executable>
rbdock ($Id: //depot/dev/client3/rdock/2013.1/src/exe/rbdock.cxx#4 $)

>  <Rbt.Library>
libRbt.so (2013.1, Build901 2013/11/27)

>  <Rbt.Parameter_File>
/export/apps/rDock/src/rDock_2013.1_src/data/scripts/dock_solv.prm

>  <Rbt.Receptor>
prm/blind_docking_100.prm

>  <SCORE>
-9.23814

>  <SCORE.INTER>
-9.34904

>  <SCORE.INTER.CONST>
1

>  <SCORE.INTER.POLAR>
-1.03216

>  <SCORE.INTER.ROT>
3

>  <SCORE.INTER.SOLV>
19.9095

>  <SCORE.INTER.VDW>
-15.0287

>  <SCORE.INTER.norm>
-0.584315

>  <SCORE.INTRA>
0.110893

>  <SCORE.INTRA.DIHEDRAL>
0.282127

>  <SCORE.INTRA.DIHEDRAL.0>
0.00893466

>  <SCORE.INTRA.POLAR>
0

>  <SCORE.INTRA.POLAR.0>
0

>  <SCORE.INTRA.REPUL>
0

>  <SCORE.INTRA.REPUL.0>
0

>  <SCORE.INTRA.SOLV>
0.0183272

>  <SCORE.INTRA.SOLV.lig_0>
-48.9722

>  <SCORE.INTRA.VDW>
-0.0393342

>  <SCORE.INTRA.VDW.0>
-0.529409

>  <SCORE.INTRA.norm>
0.00693081

>  <SCORE.RESTR>
0

>  <SCORE.RESTR.CAVITY>
0

>  <SCORE.RESTR.norm>
0

>  <SCORE.SYSTEM>
0

>  <SCORE.SYSTEM.CONST>
0

>  <SCORE.SYSTEM.DIHEDRAL>
0

>  <SCORE.SYSTEM.SOLV>
0

>  <SCORE.SYSTEM.norm>
0

>  <SCORE.heavy>
16

>  <SCORE.norm>
-0.577384

>  <RMSD>
8.671

$$$$
ligand
 OpenBabel11021811433D
libRbt.so/2013.1/901 2013/11/27
 16 16  0  0  0  0  0  0  0  0999 V2000
   54.0968   11.7339   10.4651 P   0  0  2  0  0  0  0  0  0  0  0  0
   55.3971   11.1976    9.9921 O   0  0  0  0  0  0  0  0  0  0  0  0
   52.9957   10.5606   10.4377 O   0  5  0  0  0  0  0  0  0  0  0  0
   53.6353   12.9210    9.4795 O   0  0  0  0  0  0  0  0  0  0  0  0
   53.4046   12.5798   16.0906 C   0  0  2  0  0  0  0  0  0  0  0  0
   52.1419   13.1142   16.5273 O   0  0  0  0  0  0  0  0  0  0  0  0
   54.5438   13.6076   16.3112 C   0  0  2  0  0  0  0  0  0  0  0  0
   54.6100   13.9841   17.7283 O   0  0  0  0  0  0  0  0  0  0  0  0
   54.2465   14.8565   15.4602 C   0  0  1  0  0  0  0  0  0  0  0  0
   55.2881   15.8238   15.6390 O   0  0  0  0  0  0  0  0  0  0  0  0
   54.1826   14.4290   13.9856 C   0  0  2  0  0  0  0  0  0  0  0  0
   53.8932   15.5819   13.1660 O   0  0  0  0  0  0  0  0  0  0  0  0
   53.0557   13.3709   13.8285 C   0  0  2  0  0  0  0  0  0  0  0  0
   53.3380   12.2127   14.6724 O   0  0  0  0  0  0  0  0  0  0  0  0
   53.0073   12.9125   12.3596 C   0  0  0  0  0  0  0  0  0  0  0  0
   54.2423   12.2906   11.9839 O   0  0  0  0  0  0  0  0  0  0  0  0
  1  2  1  6  0  0  0
  1  3  1  0  0  0  0
  1  4  2  0  0  0  0
  1 16  1  0  0  0  0
  5  6  1  6  0  0  0
  5  7  1  0  0  0  0
  5 14  1  0  0  0  0
  7  8  1  1  0  0  0
  7  9  1  0  0  0  0
  9 10  1  6  0  0  0
  9 11  1  0  0  0  0
 11 12  1  6  0  0  0
 11 13  1  0  0  0  0
 13 14  1  0  0  0  0
 13 15  1  6  0  0  0
 15 16  1  0  0  0  0
M  CHG  1   3  -1
M  END
>  <CHROM.1>
61.95807212,175.99452069,174.61201036,53.89909259,13.08100044,13.36802097
1.58290542,-1.13333015,-1.94683573

>  <Name>
ligand

>  <RI>
0

>  <Rbt.Current_Directory>
/home/itssahil/PROJECTS/Mol_Feturizer/New_Systems/rnas/2HO7

>  <Rbt.Executable>
rbdock ($Id: //depot/dev/client3/rdock/2013.1/src/exe/rbdock.cxx#4 $)

>  <Rbt.Library>
libRbt.so (2013.1, Build901 2013/11/27)

>  <Rbt.Parameter_File>
/export/apps/rDock/src/rDock_2013.1_src/data/scripts/dock_solv.prm

>  <Rbt.Receptor>
prm/blind_docking_80.prm

>  <SCORE>
-11.3345

>  <SCORE.INTER>
-11.6659

>  <SCORE.INTER.CONST>
1

>  <SCORE.INTER.POLAR>
-1.29333

>  <SCORE.INTER.ROT>
3

>  <SCORE.INTER.SOLV>
14.7407

>  <SCORE.INTER.VDW>
-13.9797

>  <SCORE.INTER.norm>
-0.729121

>  <SCORE.INTRA>
0.331477

>  <SCORE.INTRA.DIHEDRAL>
0.131731

>  <SCORE.INTRA.DIHEDRAL.0>
0.00893466

>  <SCORE.INTRA.POLAR>
0

>  <SCORE.INTRA.POLAR.0>
0

>  <SCORE.INTRA.REPUL>
0

>  <SCORE.INTRA.REPUL.0>
0

>  <SCORE.INTRA.SOLV>
0.908611

>  <SCORE.INTRA.SOLV.lig_0>
-48.9722

>  <SCORE.INTRA.VDW>
-0.188694

>  <SCORE.INTRA.VDW.0>
-0.529409

>  <SCORE.INTRA.norm>
0.0207173

>  <SCORE.RESTR>
0

>  <SCORE.RESTR.CAVITY>
0

>  <SCORE.RESTR.norm>
0

>  <SCORE.SYSTEM>
0

>  <SCORE.SYSTEM.CONST>
0

>  <SCORE.SYSTEM.DIHEDRAL>
0

>  <SCORE.SYSTEM.SOLV>
0

>  <SCORE.SYSTEM.norm>
0

>  <SCORE.heavy>
16

>  <SCORE.norm>
-0.708404

>  <RMSD>
8.787

$$$$
ligand
 OpenBabel11021811433D
libRbt.so/2013.1/901 2013/11/27
 16 16  0  0  0  0  0  0  0  0999 V2000
   53.6508    9.0459    8.5282 P   0  0  2  0  0  0  0  0  0  0  0  0
   54.3247    7.7656    8.8587 O   0  0  0  0  0  0  0  0  0  0  0  0
   52.1166    8.9793    9.0095 O   0  5  0  0  0  0  0  0  0  0  0  0
   53.7000    9.2618    6.9331 O   0  0  0  0  0  0  0  0  0  0  0  0
   54.9187   13.6390   11.7539 C   0  0  2  0  0  0  0  0  0  0  0  0
   54.1221   13.0808   12.8144 O   0  0  0  0  0  0  0  0  0  0  0  0
   54.3453   15.0039   11.2941 C   0  0  2  0  0  0  0  0  0  0  0  0
   54.2858   15.9299   12.4312 O   0  0  0  0  0  0  0  0  0  0  0  0
   52.9260   14.7761   10.7409 C   0  0  1  0  0  0  0  0  0  0  0  0
   52.3717   16.0218   10.3011 O   0  0  0  0  0  0  0  0  0  0  0  0
   53.0228   13.8035    9.5552 C   0  0  2  0  0  0  0  0  0  0  0  0
   51.7015   13.5638    9.0247 O   0  0  0  0  0  0  0  0  0  0  0  0
   53.6404   12.4706   10.0612 C   0  0  2  0  0  0  0  0  0  0  0  0
   54.9691   12.7155   10.6159 O   0  0  0  0  0  0  0  0  0  0  0  0
   53.7718   11.5020    8.8719 C   0  0  0  0  0  0  0  0  0  0  0  0
   54.3918   10.2777    9.2841 O   0  0  0  0  0  0  0  0  0  0  0  0
  1  2  1  1  0  0  0
  1  3  1  0  0  0  0
  1  4  2  0  0  0  0
  1 16  1  0  0  0  0
  5  6  1  1  0  0  0
  5  7  1  0  0  0  0
  5 14  1  0  0  0  0
  7  8  1  1  0  0  0
  7  9  1  0  0  0  0
  9 10  1  6  0  0  0
  9 11  1  0  0  0  0
 11 12  1  1  0  0  0
 11 13  1  0  0  0  0
 13 14  1  0  0  0  0
 13 15  1  6  0  0  0
 15 16  1  0  0  0  0
M  CHG  1   3  -1
M  END
>  <CHROM.1>
177.51476776,140.62560475,176.18614963,53.63315371,12.08361631,9.88699979
-1.57692897,-0.82118234,0.44853273

>  <Name>
ligand

>  <RI>
0

>  <Rbt.Current_Directory>
/home/itssahil/PROJECTS/Mol_Feturizer/New_Systems/rnas/2HO7

>  <Rbt.Executable>
rbdock ($Id: //depot/dev/client3/rdock/2013.1/src/exe/rbdock.cxx#4 $)

>  <Rbt.Library>
libRbt.so (2013.1, Build901 2013/11/27)

>  <Rbt.Parameter_File>
/export/apps/rDock/src/rDock_2013.1_src/data/scripts/dock_solv.prm

>  <Rbt.Receptor>
prm/pocket_docking_8.prm

>  <SCORE>
-7.79975

>  <SCORE.INTER>
-10.721

>  <SCORE.INTER.CONST>
1

>  <SCORE.INTER.POLAR>
-1.29822

>  <SCORE.INTER.ROT>
3

>  <SCORE.INTER.SOLV>
10.4752

>  <SCORE.INTER.VDW>
-11.9117

>  <SCORE.INTER.norm>
-0.670065

>  <SCORE.INTRA>
2.92128

>  <SCORE.INTRA.DIHEDRAL>
5.33486

>  <SCORE.INTRA.DIHEDRAL.0>
0.00893466

>  <SCORE.INTRA.POLAR>
0

>  <SCORE.INTRA.POLAR.0>
0

>  <SCORE.INTRA.REPUL>
0

>  <SCORE.INTRA.REPUL.0>
0

>  <SCORE.INTRA.SOLV>
0.866474

>  <SCORE.INTRA.SOLV.lig_0>
-48.9722

>  <SCORE.INTRA.VDW>
-0.179385

>  <SCORE.INTRA.VDW.0>
-0.529409

>  <SCORE.INTRA.norm>
0.18258

>  <SCORE.RESTR>
0

>  <SCORE.RESTR.CAVITY>
0

>  <SCORE.RESTR.norm>
0

>  <SCORE.SYSTEM>
0

>  <SCORE.SYSTEM.CONST>
0

>  <SCORE.SYSTEM.DIHEDRAL>
0

>  <SCORE.SYSTEM.SOLV>
0

>  <SCORE.SYSTEM.norm>
0

>  <SCORE.heavy>
16

>  <SCORE.norm>
-0.487485

>  <RMSD>
8.879

$$$$
ligand
 OpenBabel11021811433D
libRbt.so/2013.1/901 2013/11/27
 16 16  0  0  0  0  0  0  0  0999 V2000
   52.8468   10.9255    7.9589 P   0  0  2  0  0  0  0  0  0  0  0  0
   51.8806   11.8531    7.3200 O   0  0  0  0  0  0  0  0  0  0  0  0
   53.7446   10.2260    6.8212 O   0  5  0  0  0  0  0  0  0  0  0  0
   52.0280    9.7948    8.7617 O   0  0  0  0  0  0  0  0  0  0  0  0
   54.8434   15.2385   11.2021 C   0  0  2  0  0  0  0  0  0  0  0  0
   56.1538   14.7073   11.4692 O   0  0  0  0  0  0  0  0  0  0  0  0
   54.0830   15.5197   12.5234 C   0  0  2  0  0  0  0  0  0  0  0  0
   54.8535   16.4520   13.3549 O   0  0  0  0  0  0  0  0  0  0  0  0
   53.9020   14.1880   13.2758 C   0  0  1  0  0  0  0  0  0  0  0  0
   53.1950   14.4158   14.5008 O   0  0  0  0  0  0  0  0  0  0  0  0
   53.0944   13.2359   12.3797 C   0  0  2  0  0  0  0  0  0  0  0  0
   52.9203   11.9736   13.0587 O   0  0  0  0  0  0  0  0  0  0  0  0
   53.8794   13.0218   11.0561 C   0  0  2  0  0  0  0  0  0  0  0  0
   54.0730   14.3011   10.3785 O   0  0  0  0  0  0  0  0  0  0  0  0
   53.0609   12.0952   10.1387 C   0  0  0  0  0  0  0  0  0  0  0  0
   53.8168   11.7423    8.9737 O   0  0  0  0  0  0  0  0  0  0  0  0
  1  2  1  6  0  0  0
  1  3  1  0  0  0  0
  1  4  2  0  0  0  0
  1 16  1  0  0  0  0
  5  6  1  1  0  0  0
  5  7  1  0  0  0  0
  5 14  1  0  0  0  0
  7  8  1  1  0  0  0
  7  9  1  0  0  0  0
  9 10  1  1  0  0  0
  9 11  1  0  0  0  0
 11 12  1  1  0  0  0
 11 13  1  0  0  0  0
 13 14  1  0  0  0  0
 13 15  1  6  0  0  0
 15 16  1  0  0  0  0
M  CHG  1   3  -1
M  END
>  <CHROM.1>
-173.12803625,-172.92805661,73.28709513,53.58747936,12.91844359,10.58571378
-1.92998538,0.90305578,1.17494286

>  <Name>
ligand

>  <RI>
0

>  <Rbt.Current_Directory>
/home/itssahil/PROJECTS/Mol_Feturizer/New_Systems/rnas/2HO7

>  <Rbt.Executable>
rbdock ($Id: //depot/dev/client3/rdock/2013.1/src/exe/rbdock.cxx#4 $)

>  <Rbt.Library>
libRbt.so (2013.1, Build901 2013/11/27)

>  <Rbt.Parameter_File>
/export/apps/rDock/src/rDock_2013.1_src/data/scripts/dock_solv.prm

>  <Rbt.Receptor>
prm/pocket_docking_8.prm

>  <SCORE>
-8.33404

>  <SCORE.INTER>
-8.80894

>  <SCORE.INTER.CONST>
1

>  <SCORE.INTER.POLAR>
-1.29891

>  <SCORE.INTER.ROT>
3

>  <SCORE.INTER.SOLV>
11.6034

>  <SCORE.INTER.VDW>
-11.0107

>  <SCORE.INTER.norm>
-0.550559

>  <SCORE.INTRA>
0.425077

>  <SCORE.INTRA.DIHEDRAL>
0.681472

>  <SCORE.INTRA.DIHEDRAL.0>
0.00893466

>  <SCORE.INTRA.POLAR>
0

>  <SCORE.INTRA.POLAR.0>
0

>  <SCORE.INTRA.REPUL>
0

>  <SCORE.INTRA.REPUL.0>
0

>  <SCORE.INTRA.SOLV>
0.119265

>  <SCORE.INTRA.SOLV.lig_0>
-48.9722

>  <SCORE.INTRA.VDW>
0.0247082

>  <SCORE.INTRA.VDW.0>
-0.529409

>  <SCORE.INTRA.norm>
0.0265673

>  <SCORE.RESTR>
0.0498326

>  <SCORE.RESTR.CAVITY>
0.0498326

>  <SCORE.RESTR.norm>
0.00311454

>  <SCORE.SYSTEM>
0

>  <SCORE.SYSTEM.CONST>
0

>  <SCORE.SYSTEM.DIHEDRAL>
0

>  <SCORE.SYSTEM.SOLV>
0

>  <SCORE.SYSTEM.norm>
0

>  <SCORE.heavy>
16

>  <SCORE.norm>
-0.520877

>  <RMSD>
9.043

$$$$
ligand
 OpenBabel11021811433D
libRbt.so/2013.1/901 2013/11/27
 16 16  0  0  0  0  0  0  0  0999 V2000
   50.4193   11.1267   18.2544 P   0  0  2  0  0  0  0  0  0  0  0  0
   49.9842    9.9555   17.4536 O   0  0  0  0  0  0  0  0  0  0  0  0
   51.7056   10.7224   19.1328 O   0  5  0  0  0  0  0  0  0  0  0  0
   49.2183   11.5595   19.2361 O   0  0  0  0  0  0  0  0  0  0  0  0
   53.4156   15.1495   15.3135 C   0  0  2  0  0  0  0  0  0  0  0  0
   52.2768   15.8261   14.7513 O   0  0  0  0  0  0  0  0  0  0  0  0
   54.3485   14.6187   14.1950 C   0  0  2  0  0  0  0  0  0  0  0  0
   54.7838   15.7283   13.3385 O   0  0  0  0  0  0  0  0  0  0  0  0
   53.5665   13.5939   13.3520 C   0  0  1  0  0  0  0  0  0  0  0  0
   54.4070   13.0800   12.3119 O   0  0  0  0  0  0  0  0  0  0  0  0
   53.1250   12.4485   14.2763 C   0  0  2  0  0  0  0  0  0  0  0  0
   52.3784   11.4779   13.5112 O   0  0  0  0  0  0  0  0  0  0  0  0
   52.2293   13.0401   15.3996 C   0  0  2  0  0  0  0  0  0  0  0  0
   52.9778   14.0362   16.1616 O   0  0  0  0  0  0  0  0  0  0  0  0
   51.8098   11.9036   16.3496 C   0  0  0  0  0  0  0  0  0  0  0  0
   50.8126   12.3589   17.2722 O   0  0  0  0  0  0  0  0  0  0  0  0
  1  2  1  6  0  0  0
  1  3  1  0  0  0  0
  1  4  2  0  0  0  0
  1 16  1  0  0  0  0
  5  6  1  6  0  0  0
  5  7  1  0  0  0  0
  5 14  1  0  0  0  0
  7  8  1  6  0  0  0
  7  9  1  0  0  0  0
  9 10  1  6  0  0  0
  9 11  1  0  0  0  0
 11 12  1  6  0  0  0
 11 13  1  0  0  0  0
 13 14  1  0  0  0  0
 13 15  1  1  0  0  0
 15 16  1  0  0  0  0
M  CHG  1   3  -1
M  END
>  <CHROM.1>
-170.66747340,-179.50241504,-55.61471370,52.17361541,12.76641463,15.85938431
3.03708092,-1.01756847,-2.64373324

>  <Name>
ligand

>  <RI>
0

>  <Rbt.Current_Directory>
/home/itssahil/PROJECTS/Mol_Feturizer/New_Systems/rnas/2HO7

>  <Rbt.Executable>
rbdock ($Id: //depot/dev/client3/rdock/2013.1/src/exe/rbdock.cxx#4 $)

>  <Rbt.Library>
libRbt.so (2013.1, Build901 2013/11/27)

>  <Rbt.Parameter_File>
/export/apps/rDock/src/rDock_2013.1_src/data/scripts/dock_solv.prm

>  <Rbt.Receptor>
prm/pocket_docking_8.prm

>  <SCORE>
-7.52222

>  <SCORE.INTER>
-7.71367

>  <SCORE.INTER.CONST>
1

>  <SCORE.INTER.POLAR>
0

>  <SCORE.INTER.ROT>
3

>  <SCORE.INTER.SOLV>
14.0797

>  <SCORE.INTER.VDW>
-15.4357

>  <SCORE.INTER.norm>
-0.482104

>  <SCORE.INTRA>
0.185892

>  <SCORE.INTRA.DIHEDRAL>
0.331752

>  <SCORE.INTRA.DIHEDRAL.0>
0.00893466

>  <SCORE.INTRA.POLAR>
0

>  <SCORE.INTRA.POLAR.0>
0

>  <SCORE.INTRA.REPUL>
0

>  <SCORE.INTRA.REPUL.0>
0

>  <SCORE.INTRA.SOLV>
-0.0582804

>  <SCORE.INTRA.SOLV.lig_0>
-48.9722

>  <SCORE.INTRA.VDW>
0.0491562

>  <SCORE.INTRA.VDW.0>
-0.529409

>  <SCORE.INTRA.norm>
0.0116183

>  <SCORE.RESTR>
0.00554853

>  <SCORE.RESTR.CAVITY>
0.00554853

>  <SCORE.RESTR.norm>
0.000346783

>  <SCORE.SYSTEM>
0

>  <SCORE.SYSTEM.CONST>
0

>  <SCORE.SYSTEM.DIHEDRAL>
0

>  <SCORE.SYSTEM.SOLV>
0

>  <SCORE.SYSTEM.norm>
0

>  <SCORE.heavy>
16

>  <SCORE.norm>
-0.470139

>  <RMSD>
9.056

$$$$
ligand
 OpenBabel11021811433D
libRbt.so/2013.1/901 2013/11/27
 16 16  0  0  0  0  0  0  0  0999 V2000
   53.5089   10.2763    8.4169 P   0  0  2  0  0  0  0  0  0  0  0  0
   54.0881    8.9916    8.8821 O   0  0  0  0  0  0  0  0  0  0  0  0
   51.9384   10.3094    8.7664 O   0  5  0  0  0  0  0  0  0  0  0  0
   53.7022   10.3857    6.8218 O   0  0  0  0  0  0  0  0  0  0  0  0
   54.7725   15.1880   11.1392 C   0  0  2  0  0  0  0  0  0  0  0  0
   56.1969   15.0147   11.2482 O   0  0  0  0  0  0  0  0  0  0  0  0
   54.1326   15.3832   12.5375 C   0  0  2  0  0  0  0  0  0  0  0  0
   54.7390   16.5395   13.2078 O   0  0  0  0  0  0  0  0  0  0  0  0
   54.3854   14.1135   13.3720 C   0  0  1  0  0  0  0  0  0  0  0  0
   53.7985   14.2623   14.6704 O   0  0  0  0  0  0  0  0  0  0  0  0
   53.7406   12.9238   12.6439 C   0  0  2  0  0  0  0  0  0  0  0  0
   53.9736   11.7169   13.4014 O   0  0  0  0  0  0  0  0  0  0  0  0
   54.3870   12.7992   11.2366 C   0  0  2  0  0  0  0  0  0  0  0  0
   54.1685   14.0273   10.4769 O   0  0  0  0  0  0  0  0  0  0  0  0
   53.7226   11.6297   10.4876 C   0  0  0  0  0  0  0  0  0  0  0  0
   54.2444   11.5205    9.1576 O   0  0  0  0  0  0  0  0  0  0  0  0
  1  2  1  1  0  0  0
  1  3  1  0  0  0  0
  1  4  2  0  0  0  0
  1 16  1  0  0  0  0
  5  6  1  1  0  0  0
  5  7  1  0  0  0  0
  5 14  1  0  0  0  0
  7  8  1  1  0  0  0
  7  9  1  0  0  0  0
  9 10  1  1  0  0  0
  9 11  1  0  0  0  0
 11 12  1  1  0  0  0
 11 13  1  0  0  0  0
 13 14  1  0  0  0  0
 13 15  1  6  0  0  0
 15 16  1  0  0  0  0
M  CHG  1   3  -1
M  END
>  <CHROM.1>
177.15872951,-179.92857013,-77.57227728,54.05097723,12.60292241,10.81156757
-1.99434753,1.17969722,1.17194318

>  <Name>
ligand

>  <RI>
0

>  <Rbt.Current_Directory>
/home/itssahil/PROJECTS/Mol_Feturizer/New_Systems/rnas/2HO7

>  <Rbt.Executable>
rbdock ($Id: //depot/dev/client3/rdock/2013.1/src/exe/rbdock.cxx#4 $)

>  <Rbt.Library>
libRbt.so (2013.1, Build901 2013/11/27)

>  <Rbt.Parameter_File>
/export/apps/rDock/src/rDock_2013.1_src/data/scripts/dock_solv.prm

>  <Rbt.Receptor>
prm/pocket_docking_8.prm

>  <SCORE>
-10.8161

>  <SCORE.INTER>
-11.3911

>  <SCORE.INTER.CONST>
1

>  <SCORE.INTER.POLAR>
-1.29904

>  <SCORE.INTER.ROT>
3

>  <SCORE.INTER.SOLV>
13.6219

>  <SCORE.INTER.VDW>
-13.4046

>  <SCORE.INTER.norm>
-0.711944

>  <SCORE.INTRA>
0.574332

>  <SCORE.INTRA.DIHEDRAL>
0.495125

>  <SCORE.INTRA.DIHEDRAL.0>
0.00893466

>  <SCORE.INTRA.POLAR>
0

>  <SCORE.INTRA.POLAR.0>
0

>  <SCORE.INTRA.REPUL>
0

>  <SCORE.INTRA.REPUL.0>
0

>  <SCORE.INTRA.SOLV>
0.195955

>  <SCORE.INTRA.SOLV.lig_0>
-48.9722

>  <SCORE.INTRA.VDW>
0.228792

>  <SCORE.INTRA.VDW.0>
-0.529409

>  <SCORE.INTRA.norm>
0.0358957

>  <SCORE.RESTR>
0.000661133

>  <SCORE.RESTR.CAVITY>
0.000661133

>  <SCORE.RESTR.norm>
4.13208e-05

>  <SCORE.SYSTEM>
0

>  <SCORE.SYSTEM.CONST>
0

>  <SCORE.SYSTEM.DIHEDRAL>
0

>  <SCORE.SYSTEM.SOLV>
0

>  <SCORE.SYSTEM.norm>
0

>  <SCORE.heavy>
16

>  <SCORE.norm>
-0.676007

>  <RMSD>
9.352

$$$$
ligand
 OpenBabel11021811433D
libRbt.so/2013.1/901 2013/11/27
 16 16  0  0  0  0  0  0  0  0999 V2000
   49.6639    7.5941    8.4077 P   0  0  2  0  0  0  0  0  0  0  0  0
   50.0005    7.7490    9.8447 O   0  0  0  0  0  0  0  0  0  0  0  0
   51.0201    7.5881    7.5414 O   0  5  0  0  0  0  0  0  0  0  0  0
   48.7464    8.8369    7.9525 O   0  0  0  0  0  0  0  0  0  0  0  0
   46.9380    2.6141    8.8526 C   0  0  2  0  0  0  0  0  0  0  0  0
   47.6206    1.5569    9.5505 O   0  0  0  0  0  0  0  0  0  0  0  0
   46.7571    2.2584    7.3547 C   0  0  2  0  0  0  0  0  0  0  0  0
   46.0158    0.9982    7.2261 O   0  0  0  0  0  0  0  0  0  0  0  0
   48.1509    2.1030    6.7178 C   0  0  1  0  0  0  0  0  0  0  0  0
   48.0154    1.7797    5.3287 O   0  0  0  0  0  0  0  0  0  0  0  0
   48.9000    3.4360    6.8700 C   0  0  2  0  0  0  0  0  0  0  0  0
   50.2165    3.3132    6.2899 O   0  0  0  0  0  0  0  0  0  0  0  0
   49.0167    3.7648    8.3840 C   0  0  2  0  0  0  0  0  0  0  0  0
   47.6855    3.8698    8.9756 O   0  0  0  0  0  0  0  0  0  0  0  0
   49.7369    5.1160    8.5439 C   0  0  0  0  0  0  0  0  0  0  0  0
   48.8737    6.1958    8.1673 O   0  0  0  0  0  0  0  0  0  0  0  0
  1  2  1  1  0  0  0
  1  3  1  0  0  0  0
  1  4  2  0  0  0  0
  1 16  1  0  0  0  0
  5  6  1  1  0  0  0
  5  7  1  0  0  0  0
  5 14  1  0  0  0  0
  7  8  1  1  0  0  0
  7  9  1  0  0  0  0
  9 10  1  6  0  0  0
  9 11  1  0  0  0  0
 11 12  1  1  0  0  0
 11 13  1  0  0  0  0
 13 14  1  0  0  0  0
 13 15  1  6  0  0  0
 15 16  1  0  0  0  0
M  CHG  1   3  -1
M  END
>  <CHROM.1>
73.24367364,177.92928124,-61.76863195,48.67660487,4.57206446,7.91569789,0.92237226
0.90315184,0.71361026

>  <Name>
ligand

>  <RI>
0

>  <Rbt.Current_Directory>
/home/itssahil/PROJECTS/Mol_Feturizer/New_Systems/rnas/2HO7

>  <Rbt.Executable>
rbdock ($Id: //depot/dev/client3/rdock/2013.1/src/exe/rbdock.cxx#4 $)

>  <Rbt.Library>
libRbt.so (2013.1, Build901 2013/11/27)

>  <Rbt.Parameter_File>
/export/apps/rDock/src/rDock_2013.1_src/data/scripts/dock_solv.prm

>  <Rbt.Receptor>
prm/blind_docking_60.prm

>  <SCORE>
-9.79081

>  <SCORE.INTER>
-10.1469

>  <SCORE.INTER.CONST>
1

>  <SCORE.INTER.POLAR>
-1.03521

>  <SCORE.INTER.ROT>
3

>  <SCORE.INTER.SOLV>
11.5119

>  <SCORE.INTER.VDW>
-12.7512

>  <SCORE.INTER.norm>
-0.634178

>  <SCORE.INTRA>
0.356038

>  <SCORE.INTRA.DIHEDRAL>
0.626329

>  <SCORE.INTRA.DIHEDRAL.0>
0.00893466

>  <SCORE.INTRA.POLAR>
0

>  <SCORE.INTRA.POLAR.0>
0

>  <SCORE.INTRA.REPUL>
0

>  <SCORE.INTRA.REPUL.0>
0

>  <SCORE.INTRA.SOLV>
0.245738

>  <SCORE.INTRA.SOLV.lig_0>
-48.9722

>  <SCORE.INTRA.VDW>
-0.0799954

>  <SCORE.INTRA.VDW.0>
-0.529409

>  <SCORE.INTRA.norm>
0.0222524

>  <SCORE.RESTR>
0

>  <SCORE.RESTR.CAVITY>
0

>  <SCORE.RESTR.norm>
0

>  <SCORE.SYSTEM>
0

>  <SCORE.SYSTEM.CONST>
0

>  <SCORE.SYSTEM.DIHEDRAL>
0

>  <SCORE.SYSTEM.SOLV>
0

>  <SCORE.SYSTEM.norm>
0

>  <SCORE.heavy>
16

>  <SCORE.norm>
-0.611926

>  <RMSD>
10.167

$$$$
ligand
 OpenBabel11021811433D
libRbt.so/2013.1/901 2013/11/27
 16 16  0  0  0  0  0  0  0  0999 V2000
   55.1751   10.1840   22.1152 P   0  0  2  0  0  0  0  0  0  0  0  0
   55.8992   11.1847   21.2927 O   0  0  0  0  0  0  0  0  0  0  0  0
   55.0303   10.7365   23.6197 O   0  5  0  0  0  0  0  0  0  0  0  0
   56.0213    8.8138   22.1299 O   0  0  0  0  0  0  0  0  0  0  0  0
   49.5935   12.2198   20.2518 C   0  0  2  0  0  0  0  0  0  0  0  0
   48.7535   11.1988   20.8198 O   0  0  0  0  0  0  0  0  0  0  0  0
   49.8341   11.9588   18.7428 C   0  0  2  0  0  0  0  0  0  0  0  0
   48.5500   11.9000   18.0345 O   0  0  0  0  0  0  0  0  0  0  0  0
   50.5680   10.6132   18.5907 C   0  0  1  0  0  0  0  0  0  0  0  0
   50.8105   10.3476   17.2040 O   0  0  0  0  0  0  0  0  0  0  0  0
   51.9047   10.7073   19.3428 C   0  0  2  0  0  0  0  0  0  0  0  0
   52.6084    9.4520   19.2251 O   0  0  0  0  0  0  0  0  0  0  0  0
   51.6080   11.0103   20.8375 C   0  0  2  0  0  0  0  0  0  0  0  0
   50.8789   12.2703   20.9557 O   0  0  0  0  0  0  0  0  0  0  0  0
   52.9438   11.1393   21.5919 C   0  0  0  0  0  0  0  0  0  0  0  0
   53.6948    9.9225   21.5004 O   0  0  0  0  0  0  0  0  0  0  0  0
  1  2  1  6  0  0  0
  1  3  1  0  0  0  0
  1  4  2  0  0  0  0
  1 16  1  0  0  0  0
  5  6  1  1  0  0  0
  5  7  1  0  0  0  0
  5 14  1  0  0  0  0
  7  8  1  6  0  0  0
  7  9  1  0  0  0  0
  9 10  1  6  0  0  0
  9 11  1  0  0  0  0
 11 12  1  1  0  0  0
 11 13  1  0  0  0  0
 13 14  1  0  0  0  0
 13 15  1  1  0  0  0
 15 16  1  0  0  0  0
M  CHG  1   3  -1
M  END
>  <CHROM.1>
-60.18014162,171.63521195,-64.00729017,52.37394757,10.78570008,20.53234774
-0.39339239,0.40356511,-1.94984597

>  <Name>
ligand

>  <RI>
0

>  <Rbt.Current_Directory>
/home/itssahil/PROJECTS/Mol_Feturizer/New_Systems/rnas/2HO7

>  <Rbt.Executable>
rbdock ($Id: //depot/dev/client3/rdock/2013.1/src/exe/rbdock.cxx#4 $)

>  <Rbt.Library>
libRbt.so (2013.1, Build901 2013/11/27)

>  <Rbt.Parameter_File>
/export/apps/rDock/src/rDock_2013.1_src/data/scripts/dock_solv.prm

>  <Rbt.Receptor>
prm/blind_docking_100.prm

>  <SCORE>
-7.94568

>  <SCORE.INTER>
-8.71227

>  <SCORE.INTER.CONST>
1

>  <SCORE.INTER.POLAR>
0

>  <SCORE.INTER.ROT>
3

>  <SCORE.INTER.SOLV>
18.2222

>  <SCORE.INTER.VDW>
-17.4823

>  <SCORE.INTER.norm>
-0.544517

>  <SCORE.INTRA>
0.766591

>  <SCORE.INTRA.DIHEDRAL>
0.357838

>  <SCORE.INTRA.DIHEDRAL.0>
0.00893466

>  <SCORE.INTRA.POLAR>
0

>  <SCORE.INTRA.POLAR.0>
0

>  <SCORE.INTRA.REPUL>
0

>  <SCORE.INTRA.REPUL.0>
0

>  <SCORE.INTRA.SOLV>
0.621884

>  <SCORE.INTRA.SOLV.lig_0>
-48.9722

>  <SCORE.INTRA.VDW>
0.27673

>  <SCORE.INTRA.VDW.0>
-0.529409

>  <SCORE.INTRA.norm>
0.0479119

>  <SCORE.RESTR>
0

>  <SCORE.RESTR.CAVITY>
0

>  <SCORE.RESTR.norm>
0

>  <SCORE.SYSTEM>
0

>  <SCORE.SYSTEM.CONST>
0

>  <SCORE.SYSTEM.DIHEDRAL>
0

>  <SCORE.SYSTEM.SOLV>
0

>  <SCORE.SYSTEM.norm>
0

>  <SCORE.heavy>
16

>  <SCORE.norm>
-0.496605

>  <RMSD>
10.696

$$$$
ligand
 OpenBabel11021811433D
libRbt.so/2013.1/901 2013/11/27
 16 16  0  0  0  0  0  0  0  0999 V2000
   54.1691   11.3239   23.5693 P   0  0  2  0  0  0  0  0  0  0  0  0
   54.8358   12.5419   23.0457 O   0  0  0  0  0  0  0  0  0  0  0  0
   53.9595   11.4733   25.1578 O   0  5  0  0  0  0  0  0  0  0  0  0
   55.1086   10.0498   23.2733 O   0  0  0  0  0  0  0  0  0  0  0  0
   49.5920   12.1943   20.2647 C   0  0  2  0  0  0  0  0  0  0  0  0
   48.7350   11.1393   20.7374 O   0  0  0  0  0  0  0  0  0  0  0  0
   49.8146   12.0794   18.7349 C   0  0  2  0  0  0  0  0  0  0  0  0
   48.5237   12.1174   18.0375 O   0  0  0  0  0  0  0  0  0  0  0  0
   50.5182   10.7407   18.4428 C   0  0  1  0  0  0  0  0  0  0  0  0
   50.7435   10.6091   17.0341 O   0  0  0  0  0  0  0  0  0  0  0  0
   51.8628   10.7324   19.1866 C   0  0  2  0  0  0  0  0  0  0  0  0
   52.5385    9.4808   18.9381 O   0  0  0  0  0  0  0  0  0  0  0  0
   51.5850   10.8916   20.7070 C   0  0  2  0  0  0  0  0  0  0  0  0
   50.8839   12.1484   20.9569 O   0  0  0  0  0  0  0  0  0  0  0  0
   52.9294   10.9178   21.4566 C   0  0  0  0  0  0  0  0  0  0  0  0
   52.7218   11.1307   22.8583 O   0  0  0  0  0  0  0  0  0  0  0  0
  1  2  1  6  0  0  0
  1  3  1  0  0  0  0
  1  4  2  0  0  0  0
  1 16  1  0  0  0  0
  5  6  1  1  0  0  0
  5  7  1  0  0  0  0
  5 14  1  0  0  0  0
  7  8  1  6  0  0  0
  7  9  1  0  0  0  0
  9 10  1  6  0  0  0
  9 11  1  0  0  0  0
 11 12  1  1  0  0  0
 11 13  1  0  0  0  0
 13 14  1  0  0  0  0
 13 15  1  1  0  0  0
 15 16  1  0  0  0  0
M  CHG  1   3  -1
M  END
>  <CHROM.1>
177.12080241,-173.41793287,63.52161797,51.97931784,11.22533995,21.01115389
0.78004813,-0.39530502,1.20723947

>  <Name>
ligand

>  <RI>
0

>  <Rbt.Current_Directory>
/home/itssahil/PROJECTS/Mol_Feturizer/New_Systems/rnas/2HO7

>  <Rbt.Executable>
rbdock ($Id: //depot/dev/client3/rdock/2013.1/src/exe/rbdock.cxx#4 $)

>  <Rbt.Library>
libRbt.so (2013.1, Build901 2013/11/27)

>  <Rbt.Parameter_File>
/export/apps/rDock/src/rDock_2013.1_src/data/scripts/dock_solv.prm

>  <Rbt.Receptor>
prm/blind_docking_80.prm

>  <SCORE>
-8.33541

>  <SCORE.INTER>
-8.45917

>  <SCORE.INTER.CONST>
1

>  <SCORE.INTER.POLAR>
0

>  <SCORE.INTER.ROT>
3

>  <SCORE.INTER.SOLV>
15.5275

>  <SCORE.INTER.VDW>
-16.4153

>  <SCORE.INTER.norm>
-0.528698

>  <SCORE.INTRA>
0.123761

>  <SCORE.INTRA.DIHEDRAL>
0.253102

>  <SCORE.INTRA.DIHEDRAL.0>
0.00893466

>  <SCORE.INTRA.POLAR>
0

>  <SCORE.INTRA.POLAR.0>
0

>  <SCORE.INTRA.REPUL>
0

>  <SCORE.INTRA.REPUL.0>
0

>  <SCORE.INTRA.SOLV>
0.0456922

>  <SCORE.INTRA.SOLV.lig_0>
-48.9722

>  <SCORE.INTRA.VDW>
-0.0256363

>  <SCORE.INTRA.VDW.0>
-0.529409

>  <SCORE.INTRA.norm>
0.00773504

>  <SCORE.RESTR>
0

>  <SCORE.RESTR.CAVITY>
0

>  <SCORE.RESTR.norm>
0

>  <SCORE.SYSTEM>
0

>  <SCORE.SYSTEM.CONST>
0

>  <SCORE.SYSTEM.DIHEDRAL>
0

>  <SCORE.SYSTEM.SOLV>
0

>  <SCORE.SYSTEM.norm>
0

>  <SCORE.heavy>
16

>  <SCORE.norm>
-0.520963

>  <RMSD>
10.881

$$$$
ligand
 OpenBabel11021811433D
libRbt.so/2013.1/901 2013/11/27
 16 16  0  0  0  0  0  0  0  0999 V2000
   49.5423   11.1630   19.4063 P   0  0  2  0  0  0  0  0  0  0  0  0
   48.1760   11.5811   19.8073 O   0  0  0  0  0  0  0  0  0  0  0  0
   49.9868   11.9843   18.0957 O   0  5  0  0  0  0  0  0  0  0  0  0
   49.5251    9.5885   19.0680 O   0  0  0  0  0  0  0  0  0  0  0  0
   53.6510   10.6661   23.5448 C   0  0  2  0  0  0  0  0  0  0  0  0
   53.5627   12.0315   23.9905 O   0  0  0  0  0  0  0  0  0  0  0  0
   55.0785   10.3448   23.0331 C   0  0  2  0  0  0  0  0  0  0  0  0
   56.0595   10.6010   24.0943 O   0  0  0  0  0  0  0  0  0  0  0  0
   55.3796   11.2504   21.8242 C   0  0  1  0  0  0  0  0  0  0  0  0
   56.6928   10.9709   21.3245 O   0  0  0  0  0  0  0  0  0  0  0  0
   54.3365   10.9590   20.7341 C   0  0  2  0  0  0  0  0  0  0  0  0
   54.5900   11.8051   19.5918 O   0  0  0  0  0  0  0  0  0  0  0  0
   52.9251   11.2571   21.3113 C   0  0  2  0  0  0  0  0  0  0  0  0
   52.6758   10.4154   22.4786 O   0  0  0  0  0  0  0  0  0  0  0  0
   51.8715   10.9356   20.2358 C   0  0  0  0  0  0  0  0  0  0  0  0
   50.5936   11.4674   20.6062 O   0  0  0  0  0  0  0  0  0  0  0  0
  1  2  1  1  0  0  0
  1  3  1  0  0  0  0
  1  4  2  0  0  0  0
  1 16  1  0  0  0  0
  5  6  1  6  0  0  0
  5  7  1  0  0  0  0
  5 14  1  0  0  0  0
  7  8  1  1  0  0  0
  7  9  1  0  0  0  0
  9 10  1  6  0  0  0
  9 11  1  0  0  0  0
 11 12  1  6  0  0  0
 11 13  1  0  0  0  0
 13 14  1  0  0  0  0
 13 15  1  6  0  0  0
 15 16  1  0  0  0  0
M  CHG  1   3  -1
M  END
>  <CHROM.1>
-167.18222023,177.26336211,174.51837344,52.51911161,11.08053405,21.04622596
2.61001072,-0.02129866,-1.47652801

>  <Name>
ligand

>  <RI>
0

>  <Rbt.Current_Directory>
/home/itssahil/PROJECTS/Mol_Feturizer/New_Systems/rnas/2HO7

>  <Rbt.Executable>
rbdock ($Id: //depot/dev/client3/rdock/2013.1/src/exe/rbdock.cxx#4 $)

>  <Rbt.Library>
libRbt.so (2013.1, Build901 2013/11/27)

>  <Rbt.Parameter_File>
/export/apps/rDock/src/rDock_2013.1_src/data/scripts/dock_solv.prm

>  <Rbt.Receptor>
prm/blind_docking_80.prm

>  <SCORE>
-12.93

>  <SCORE.INTER>
-13.4805

>  <SCORE.INTER.CONST>
1

>  <SCORE.INTER.POLAR>
0

>  <SCORE.INTER.ROT>
3

>  <SCORE.INTER.SOLV>
20.6979

>  <SCORE.INTER.VDW>
-21.4863

>  <SCORE.INTER.norm>
-0.842534

>  <SCORE.INTRA>
0.550572

>  <SCORE.INTRA.DIHEDRAL>
0.649273

>  <SCORE.INTRA.DIHEDRAL.0>
0.00893466

>  <SCORE.INTRA.POLAR>
0

>  <SCORE.INTRA.POLAR.0>
0

>  <SCORE.INTRA.REPUL>
0

>  <SCORE.INTRA.REPUL.0>
0

>  <SCORE.INTRA.SOLV>
0.613557

>  <SCORE.INTRA.SOLV.lig_0>
-48.9722

>  <SCORE.INTRA.VDW>
-0.0808434

>  <SCORE.INTRA.VDW.0>
-0.529409

>  <SCORE.INTRA.norm>
0.0344107

>  <SCORE.RESTR>
0

>  <SCORE.RESTR.CAVITY>
0

>  <SCORE.RESTR.norm>
0

>  <SCORE.SYSTEM>
0

>  <SCORE.SYSTEM.CONST>
0

>  <SCORE.SYSTEM.DIHEDRAL>
0

>  <SCORE.SYSTEM.SOLV>
0

>  <SCORE.SYSTEM.norm>
0

>  <SCORE.heavy>
16

>  <SCORE.norm>
-0.808123

>  <RMSD>
12.474

$$$$
ligand
 OpenBabel11021811433D
libRbt.so/2013.1/901 2013/11/27
 16 16  0  0  0  0  0  0  0  0999 V2000
   49.9687   11.2453   19.4926 P   0  0  2  0  0  0  0  0  0  0  0  0
   48.6615   11.9331   19.6351 O   0  0  0  0  0  0  0  0  0  0  0  0
   50.6917   11.7504   18.1466 O   0  5  0  0  0  0  0  0  0  0  0  0
   49.7126    9.6582   19.3964 O   0  0  0  0  0  0  0  0  0  0  0  0
   53.3946   10.8345   24.1555 C   0  0  2  0  0  0  0  0  0  0  0  0
   53.5262   12.2459   24.4028 O   0  0  0  0  0  0  0  0  0  0  0  0
   54.7828   10.1834   23.9270 C   0  0  2  0  0  0  0  0  0  0  0  0
   55.6441   10.4208   25.0914 O   0  0  0  0  0  0  0  0  0  0  0  0
   55.4204   10.8186   22.6770 C   0  0  1  0  0  0  0  0  0  0  0  0
   56.7046   10.2308   22.4364 O   0  0  0  0  0  0  0  0  0  0  0  0
   54.4956   10.5538   21.4787 C   0  0  2  0  0  0  0  0  0  0  0  0
   55.0661   11.1502   20.2939 O   0  0  0  0  0  0  0  0  0  0  0  0
   53.1096   11.1896   21.7770 C   0  0  2  0  0  0  0  0  0  0  0  0
   52.5407   10.6007   22.9864 O   0  0  0  0  0  0  0  0  0  0  0  0
   52.1665   10.8999   20.5951 C   0  0  0  0  0  0  0  0  0  0  0  0
   50.9190   11.5839   20.7653 O   0  0  0  0  0  0  0  0  0  0  0  0
  1  2  1  1  0  0  0
  1  3  1  0  0  0  0
  1  4  2  0  0  0  0
  1 16  1  0  0  0  0
  5  6  1  6  0  0  0
  5  7  1  0  0  0  0
  5 14  1  0  0  0  0
  7  8  1  1  0  0  0
  7  9  1  0  0  0  0
  9 10  1  6  0  0  0
  9 11  1  0  0  0  0
 11 12  1  6  0  0  0
 11 13  1  0  0  0  0
 13 14  1  0  0  0  0
 13 15  1  6  0  0  0
 15 16  1  0  0  0  0
M  CHG  1   3  -1
M  END
>  <CHROM.1>
-174.08629287,179.89189184,179.77369245,52.67981067,10.98774973,21.51739514
2.47894666,0.14300220,-1.62292833

>  <Name>
ligand

>  <RI>
0

>  <Rbt.Current_Directory>
/home/itssahil/PROJECTS/Mol_Feturizer/New_Systems/rnas/2HO7

>  <Rbt.Executable>
rbdock ($Id: //depot/dev/client3/rdock/2013.1/src/exe/rbdock.cxx#4 $)

>  <Rbt.Library>
libRbt.so (2013.1, Build901 2013/11/27)

>  <Rbt.Parameter_File>
/export/apps/rDock/src/rDock_2013.1_src/data/scripts/dock_solv.prm

>  <Rbt.Receptor>
prm/blind_docking_100.prm

>  <SCORE>
-11.702

>  <SCORE.INTER>
-11.9953

>  <SCORE.INTER.CONST>
1

>  <SCORE.INTER.POLAR>
0

>  <SCORE.INTER.ROT>
3

>  <SCORE.INTER.SOLV>
16.488

>  <SCORE.INTER.VDW>
-19.0929

>  <SCORE.INTER.norm>
-0.749706

>  <SCORE.INTRA>
0.293323

>  <SCORE.INTRA.DIHEDRAL>
0.11645

>  <SCORE.INTRA.DIHEDRAL.0>
0.00893466

>  <SCORE.INTRA.POLAR>
0

>  <SCORE.INTRA.POLAR.0>
0

>  <SCORE.INTRA.REPUL>
0

>  <SCORE.INTRA.REPUL.0>
0

>  <SCORE.INTRA.SOLV>
0.646552

>  <SCORE.INTRA.SOLV.lig_0>
-48.9722

>  <SCORE.INTRA.VDW>
-0.0881776

>  <SCORE.INTRA.VDW.0>
-0.529409

>  <SCORE.INTRA.norm>
0.0183327

>  <SCORE.RESTR>
0

>  <SCORE.RESTR.CAVITY>
0

>  <SCORE.RESTR.norm>
0

>  <SCORE.SYSTEM>
0

>  <SCORE.SYSTEM.CONST>
0

>  <SCORE.SYSTEM.DIHEDRAL>
0

>  <SCORE.SYSTEM.SOLV>
0

>  <SCORE.SYSTEM.norm>
0

>  <SCORE.heavy>
16

>  <SCORE.norm>
-0.731374

>  <RMSD>
12.871

$$$$
ligand
 OpenBabel11021811433D
libRbt.so/2013.1/901 2013/11/27
 16 16  0  0  0  0  0  0  0  0999 V2000
   50.9606   10.5749   18.9047 P   0  0  2  0  0  0  0  0  0  0  0  0
   51.1146   10.3150   17.4518 O   0  0  0  0  0  0  0  0  0  0  0  0
   49.8448    9.5840   19.5070 O   0  5  0  0  0  0  0  0  0  0  0  0
   50.4866   12.1000   19.1119 O   0  0  0  0  0  0  0  0  0  0  0  0
   55.8409   10.6173   22.1085 C   0  0  2  0  0  0  0  0  0  0  0  0
   56.0855    9.2039   21.9939 O   0  0  0  0  0  0  0  0  0  0  0  0
   55.6705   11.0283   23.5935 C   0  0  2  0  0  0  0  0  0  0  0  0
   56.8664   10.6524   24.3567 O   0  0  0  0  0  0  0  0  0  0  0  0
   54.4430   10.2946   24.1656 C   0  0  1  0  0  0  0  0  0  0  0  0
   54.2560   10.6606   25.5381 O   0  0  0  0  0  0  0  0  0  0  0  0
   53.2109   10.7080   23.3457 C   0  0  2  0  0  0  0  0  0  0  0  0
   52.0461   10.0238   23.8556 O   0  0  0  0  0  0  0  0  0  0  0  0
   53.4512   10.3118   21.8627 C   0  0  2  0  0  0  0  0  0  0  0  0
   54.6406   10.9884   21.3521 O   0  0  0  0  0  0  0  0  0  0  0  0
   52.2349   10.7528   21.0282 C   0  0  0  0  0  0  0  0  0  0  0  0
   52.3695   10.3165   19.6701 O   0  0  0  0  0  0  0  0  0  0  0  0
  1  2  1  6  0  0  0
  1  3  1  0  0  0  0
  1  4  2  0  0  0  0
  1 16  1  0  0  0  0
  5  6  1  1  0  0  0
  5  7  1  0  0  0  0
  5 14  1  0  0  0  0
  7  8  1  1  0  0  0
  7  9  1  0  0  0  0
  9 10  1  1  0  0  0
  9 11  1  0  0  0  0
 11 12  1  1  0  0  0
 11 13  1  0  0  0  0
 13 14  1  0  0  0  0
 13 15  1  6  0  0  0
 15 16  1  0  0  0  0
M  CHG  1   3  -1
M  END
>  <CHROM.1>
-175.63083307,170.21776793,172.07666744,53.14411525,10.50536785,21.50401472
-2.29893956,-0.03701591,1.56182072

>  <Name>
ligand

>  <RI>
0

>  <Rbt.Current_Directory>
/home/itssahil/PROJECTS/Mol_Feturizer/New_Systems/rnas/2HO7

>  <Rbt.Executable>
rbdock ($Id: //depot/dev/client3/rdock/2013.1/src/exe/rbdock.cxx#4 $)

>  <Rbt.Library>
libRbt.so (2013.1, Build901 2013/11/27)

>  <Rbt.Parameter_File>
/export/apps/rDock/src/rDock_2013.1_src/data/scripts/dock_solv.prm

>  <Rbt.Receptor>
prm/blind_docking_80.prm

>  <SCORE>
-10.2229

>  <SCORE.INTER>
-10.795

>  <SCORE.INTER.CONST>
1

>  <SCORE.INTER.POLAR>
0

>  <SCORE.INTER.ROT>
3

>  <SCORE.INTER.SOLV>
16.3281

>  <SCORE.INTER.VDW>
-18.2394

>  <SCORE.INTER.norm>
-0.674687

>  <SCORE.INTRA>
0.572103

>  <SCORE.INTRA.DIHEDRAL>
0.624133

>  <SCORE.INTRA.DIHEDRAL.0>
0.00893466

>  <SCORE.INTRA.POLAR>
0

>  <SCORE.INTRA.POLAR.0>
0

>  <SCORE.INTRA.REPUL>
0

>  <SCORE.INTRA.REPUL.0>
0

>  <SCORE.INTRA.SOLV>
0.630359

>  <SCORE.INTRA.SOLV.lig_0>
-48.9722

>  <SCORE.INTRA.VDW>
-0.0551432

>  <SCORE.INTRA.VDW.0>
-0.529409

>  <SCORE.INTRA.norm>
0.0357564

>  <SCORE.RESTR>
0

>  <SCORE.RESTR.CAVITY>
0

>  <SCORE.RESTR.norm>
0

>  <SCORE.SYSTEM>
0

>  <SCORE.SYSTEM.CONST>
0

>  <SCORE.SYSTEM.DIHEDRAL>
0

>  <SCORE.SYSTEM.SOLV>
0

>  <SCORE.SYSTEM.norm>
0

>  <SCORE.heavy>
16

>  <SCORE.norm>
-0.63893

>  <RMSD>
13.155

$$$$
ligand
 OpenBabel11021811433D
libRbt.so/2013.1/901 2013/11/27
 16 16  0  0  0  0  0  0  0  0999 V2000
   49.1293   11.8495   25.6123 P   0  0  2  0  0  0  0  0  0  0  0  0
   47.7484   12.0731   25.1169 O   0  0  0  0  0  0  0  0  0  0  0  0
   49.1099   10.7057   26.7441 O   0  5  0  0  0  0  0  0  0  0  0  0
   49.6804   13.2215   26.2507 O   0  0  0  0  0  0  0  0  0  0  0  0
   52.9970   11.0053   21.4127 C   0  0  2  0  0  0  0  0  0  0  0  0
   52.7915    9.5910   21.2440 O   0  0  0  0  0  0  0  0  0  0  0  0
   54.4756   11.3090   21.7654 C   0  0  2  0  0  0  0  0  0  0  0  0
   55.3577   10.7853   20.7157 O   0  0  0  0  0  0  0  0  0  0  0  0
   54.8084   10.6262   23.1053 C   0  0  1  0  0  0  0  0  0  0  0  0
   56.1698   10.8953   23.4612 O   0  0  0  0  0  0  0  0  0  0  0  0
   53.8687   11.1944   24.1803 C   0  0  2  0  0  0  0  0  0  0  0  0
   54.1530   10.5611   25.4464 O   0  0  0  0  0  0  0  0  0  0  0  0
   52.4028   10.9000   23.7580 C   0  0  2  0  0  0  0  0  0  0  0  0
   52.1206   11.5239   22.4679 O   0  0  0  0  0  0  0  0  0  0  0  0
   51.4535   11.4956   24.8135 C   0  0  0  0  0  0  0  0  0  0  0  0
   50.0895   11.3733   24.3921 O   0  0  0  0  0  0  0  0  0  0  0  0
  1  2  1  6  0  0  0
  1  3  1  0  0  0  0
  1  4  2  0  0  0  0
  1 16  1  0  0  0  0
  5  6  1  1  0  0  0
  5  7  1  0  0  0  0
  5 14  1  0  0  0  0
  7  8  1  6  0  0  0
  7  9  1  0  0  0  0
  9 10  1  1  0  0  0
  9 11  1  0  0  0  0
 11 12  1  1  0  0  0
 11 13  1  0  0  0  0
 13 14  1  0  0  0  0
 13 15  1  1  0  0  0
 15 16  1  0  0  0  0
M  CHG  1   3  -1
M  END
>  <CHROM.1>
173.79290773,173.24862807,165.47878204,52.00903448,11.24164648,23.93525638
2.57231080,-0.12272305,1.45033989

>  <Name>
ligand

>  <RI>
0

>  <Rbt.Current_Directory>
/home/itssahil/PROJECTS/Mol_Feturizer/New_Systems/rnas/2HO7

>  <Rbt.Executable>
rbdock ($Id: //depot/dev/client3/rdock/2013.1/src/exe/rbdock.cxx#4 $)

>  <Rbt.Library>
libRbt.so (2013.1, Build901 2013/11/27)

>  <Rbt.Parameter_File>
/export/apps/rDock/src/rDock_2013.1_src/data/scripts/dock_solv.prm

>  <Rbt.Receptor>
prm/blind_docking_100.prm

>  <SCORE>
-13.1408

>  <SCORE.INTER>
-13.8741

>  <SCORE.INTER.CONST>
1

>  <SCORE.INTER.POLAR>
-1.52971

>  <SCORE.INTER.ROT>
3

>  <SCORE.INTER.SOLV>
13.5773

>  <SCORE.INTER.VDW>
-14.2761

>  <SCORE.INTER.norm>
-0.86713

>  <SCORE.INTRA>
0.733328

>  <SCORE.INTRA.DIHEDRAL>
0.684193

>  <SCORE.INTRA.DIHEDRAL.0>
0.00893466

>  <SCORE.INTRA.POLAR>
0

>  <SCORE.INTRA.POLAR.0>
0

>  <SCORE.INTRA.REPUL>
0

>  <SCORE.INTRA.REPUL.0>
0

>  <SCORE.INTRA.SOLV>
0.658652

>  <SCORE.INTRA.SOLV.lig_0>
-48.9722

>  <SCORE.INTRA.VDW>
0.0619054

>  <SCORE.INTRA.VDW.0>
-0.529409

>  <SCORE.INTRA.norm>
0.045833

>  <SCORE.RESTR>
0

>  <SCORE.RESTR.CAVITY>
0

>  <SCORE.RESTR.norm>
0

>  <SCORE.SYSTEM>
0

>  <SCORE.SYSTEM.CONST>
0

>  <SCORE.SYSTEM.DIHEDRAL>
0

>  <SCORE.SYSTEM.SOLV>
0

>  <SCORE.SYSTEM.norm>
0

>  <SCORE.heavy>
16

>  <SCORE.norm>
-0.821297

>  <RMSD>
14.405

$$$$
ligand
 OpenBabel11021811433D
libRbt.so/2013.1/901 2013/11/27
 16 16  0  0  0  0  0  0  0  0999 V2000
   49.1348   11.8514   25.6084 P   0  0  2  0  0  0  0  0  0  0  0  0
   47.7514   12.0752   25.1201 O   0  0  0  0  0  0  0  0  0  0  0  0
   49.1215   10.7046   26.7373 O   0  5  0  0  0  0  0  0  0  0  0  0
   49.6879   13.2221   26.2478 O   0  0  0  0  0  0  0  0  0  0  0  0
   53.0172   11.0262   21.4317 C   0  0  2  0  0  0  0  0  0  0  0  0
   52.7464    9.6366   21.1740 O   0  0  0  0  0  0  0  0  0  0  0  0
   54.5033   11.2351   21.8201 C   0  0  2  0  0  0  0  0  0  0  0  0
   55.3748   10.7336   20.7509 O   0  0  0  0  0  0  0  0  0  0  0  0
   54.7826   10.4567   23.1195 C   0  0  1  0  0  0  0  0  0  0  0  0
   56.1499   10.6365   23.5076 O   0  0  0  0  0  0  0  0  0  0  0  0
   53.8554   11.0038   24.2160 C   0  0  2  0  0  0  0  0  0  0  0  0
   54.0898   10.2815   25.4441 O   0  0  0  0  0  0  0  0  0  0  0  0
   52.3835   10.8078   23.7588 C   0  0  2  0  0  0  0  0  0  0  0  0
   52.1511   11.5221   22.5062 O   0  0  0  0  0  0  0  0  0  0  0  0
   51.4483   11.3839   24.8374 C   0  0  0  0  0  0  0  0  0  0  0  0
   50.0896   11.3791   24.3825 O   0  0  0  0  0  0  0  0  0  0  0  0
  1  2  1  6  0  0  0
  1  3  1  0  0  0  0
  1  4  2  0  0  0  0
  1 16  1  0  0  0  0
  5  6  1  1  0  0  0
  5  7  1  0  0  0  0
  5 14  1  0  0  0  0
  7  8  1  6  0  0  0
  7  9  1  0  0  0  0
  9 10  1  1  0  0  0
  9 11  1  0  0  0  0
 11 12  1  1  0  0  0
 11 13  1  0  0  0  0
 13 14  1  0  0  0  0
 13 15  1  1  0  0  0
 15 16  1  0  0  0  0
M  CHG  1   3  -1
M  END
>  <CHROM.1>
172.64232031,174.27250511,170.71054260,52.00519541,11.17587910,23.94446026
2.58442402,-0.18100751,1.51132516

>  <Name>
ligand

>  <RI>
0

>  <Rbt.Current_Directory>
/home/itssahil/PROJECTS/Mol_Feturizer/New_Systems/rnas/2HO7

>  <Rbt.Executable>
rbdock ($Id: //depot/dev/client3/rdock/2013.1/src/exe/rbdock.cxx#4 $)

>  <Rbt.Library>
libRbt.so (2013.1, Build901 2013/11/27)

>  <Rbt.Parameter_File>
/export/apps/rDock/src/rDock_2013.1_src/data/scripts/dock_solv.prm

>  <Rbt.Receptor>
prm/blind_docking_100.prm

>  <SCORE>
-13.1863

>  <SCORE.INTER>
-13.7556

>  <SCORE.INTER.CONST>
1

>  <SCORE.INTER.POLAR>
-1.5228

>  <SCORE.INTER.ROT>
3

>  <SCORE.INTER.SOLV>
13.4142

>  <SCORE.INTER.VDW>
-14.1658

>  <SCORE.INTER.norm>
-0.859727

>  <SCORE.INTRA>
0.569289

>  <SCORE.INTRA.DIHEDRAL>
0.485957

>  <SCORE.INTRA.DIHEDRAL.0>
0.00893466

>  <SCORE.INTRA.POLAR>
0

>  <SCORE.INTRA.POLAR.0>
0

>  <SCORE.INTRA.REPUL>
0

>  <SCORE.INTRA.REPUL.0>
0

>  <SCORE.INTRA.SOLV>
0.670156

>  <SCORE.INTRA.SOLV.lig_0>
-48.9722

>  <SCORE.INTRA.VDW>
-0.00876695

>  <SCORE.INTRA.VDW.0>
-0.529409

>  <SCORE.INTRA.norm>
0.0355806

>  <SCORE.RESTR>
0

>  <SCORE.RESTR.CAVITY>
0

>  <SCORE.RESTR.norm>
0

>  <SCORE.SYSTEM>
0

>  <SCORE.SYSTEM.CONST>
0

>  <SCORE.SYSTEM.DIHEDRAL>
0

>  <SCORE.SYSTEM.SOLV>
0

>  <SCORE.SYSTEM.norm>
0

>  <SCORE.heavy>
16

>  <SCORE.norm>
-0.824147

>  <RMSD>
14.419

$$$$
ligand
 OpenBabel11021811433D
libRbt.so/2013.1/901 2013/11/27
 16 16  0  0  0  0  0  0  0  0999 V2000
   30.5861    4.4975    7.2333 P   0  0  2  0  0  0  0  0  0  0  0  0
   32.0683    4.5101    7.1610 O   0  0  0  0  0  0  0  0  0  0  0  0
   30.1120    3.3274    8.2312 O   0  5  0  0  0  0  0  0  0  0  0  0
   29.9968    4.2140    5.7616 O   0  0  0  0  0  0  0  0  0  0  0  0
   30.3380    8.9651   11.5739 C   0  0  2  0  0  0  0  0  0  0  0  0
   28.9094    9.0341   11.7323 O   0  0  0  0  0  0  0  0  0  0  0  0
   30.8500   10.1245   10.6813 C   0  0  2  0  0  0  0  0  0  0  0  0
   30.4616   11.4139   11.2650 O   0  0  0  0  0  0  0  0  0  0  0  0
   30.2183    9.9808    9.2839 C   0  0  1  0  0  0  0  0  0  0  0  0
   30.6792   11.0372    8.4330 O   0  0  0  0  0  0  0  0  0  0  0  0
   30.6424    8.6232    8.7023 C   0  0  2  0  0  0  0  0  0  0  0  0
   30.0529    8.4585    7.3946 O   0  0  0  0  0  0  0  0  0  0  0  0
   30.1416    7.5020    9.6542 C   0  0  2  0  0  0  0  0  0  0  0  0
   30.7223    7.6793   10.9826 O   0  0  0  0  0  0  0  0  0  0  0  0
   30.5915    6.1397    9.0957 C   0  0  0  0  0  0  0  0  0  0  0  0
   30.0426    5.9232    7.7900 O   0  0  0  0  0  0  0  0  0  0  0  0
  1  2  1  6  0  0  0
  1  3  1  0  0  0  0
  1  4  2  0  0  0  0
  1 16  1  0  0  0  0
  5  6  1  6  0  0  0
  5  7  1  0  0  0  0
  5 14  1  0  0  0  0
  7  8  1  1  0  0  0
  7  9  1  0  0  0  0
  9 10  1  6  0  0  0
  9 11  1  0  0  0  0
 11 12  1  6  0  0  0
 11 13  1  0  0  0  0
 13 14  1  0  0  0  0
 13 15  1  6  0  0  0
 15 16  1  0  0  0  0
M  CHG  1   3  -1
M  END
>  <CHROM.1>
-60.28084158,178.25343598,-59.77957851,30.40807104,7.33340829,8.89916933
-1.21472618,1.44521970,0.17880899

>  <Name>
ligand

>  <RI>
0

>  <Rbt.Current_Directory>
/home/itssahil/PROJECTS/Mol_Feturizer/New_Systems/rnas/2HO7

>  <Rbt.Executable>
rbdock ($Id: //depot/dev/client3/rdock/2013.1/src/exe/rbdock.cxx#4 $)

>  <Rbt.Library>
libRbt.so (2013.1, Build901 2013/11/27)

>  <Rbt.Parameter_File>
/export/apps/rDock/src/rDock_2013.1_src/data/scripts/dock_solv.prm

>  <Rbt.Receptor>
prm/blind_docking_40.prm

>  <SCORE>
-5.96267

>  <SCORE.INTER>
-6.53332

>  <SCORE.INTER.CONST>
1

>  <SCORE.INTER.POLAR>
0

>  <SCORE.INTER.ROT>
3

>  <SCORE.INTER.SOLV>
7.7947

>  <SCORE.INTER.VDW>
-12.5538

>  <SCORE.INTER.norm>
-0.408333

>  <SCORE.INTRA>
0.570656

>  <SCORE.INTRA.DIHEDRAL>
0.00663092

>  <SCORE.INTRA.DIHEDRAL.0>
0.00893466

>  <SCORE.INTRA.POLAR>
0

>  <SCORE.INTRA.POLAR.0>
0

>  <SCORE.INTRA.REPUL>
0

>  <SCORE.INTRA.REPUL.0>
0

>  <SCORE.INTRA.SOLV>
0.529799

>  <SCORE.INTRA.SOLV.lig_0>
-48.9722

>  <SCORE.INTRA.VDW>
0.302441

>  <SCORE.INTRA.VDW.0>
-0.529409

>  <SCORE.INTRA.norm>
0.035666

>  <SCORE.RESTR>
0

>  <SCORE.RESTR.CAVITY>
0

>  <SCORE.RESTR.norm>
0

>  <SCORE.SYSTEM>
0

>  <SCORE.SYSTEM.CONST>
0

>  <SCORE.SYSTEM.DIHEDRAL>
0

>  <SCORE.SYSTEM.SOLV>
0

>  <SCORE.SYSTEM.norm>
0

>  <SCORE.heavy>
16

>  <SCORE.norm>
-0.372667

>  <RMSD>
17.337

$$$$
ligand
 OpenBabel11021811433D
libRbt.so/2013.1/901 2013/11/27
 16 16  0  0  0  0  0  0  0  0999 V2000
   32.9245    2.9069    5.8820 P   0  0  2  0  0  0  0  0  0  0  0  0
   34.1959    3.5589    6.2829 O   0  0  0  0  0  0  0  0  0  0  0  0
   33.1575    1.3196    5.7553 O   0  5  0  0  0  0  0  0  0  0  0  0
   32.4677    3.4941    4.4537 O   0  0  0  0  0  0  0  0  0  0  0  0
   29.5415    4.5177   10.3114 C   0  0  2  0  0  0  0  0  0  0  0  0
   28.2971    4.0862    9.7317 O   0  0  0  0  0  0  0  0  0  0  0  0
   29.5046    6.0344   10.6293 C   0  0  2  0  0  0  0  0  0  0  0  0
   28.3886    6.3283   11.5360 O   0  0  0  0  0  0  0  0  0  0  0  0
   29.3126    6.8056    9.3098 C   0  0  1  0  0  0  0  0  0  0  0  0
   29.2812    8.2137    9.5718 O   0  0  0  0  0  0  0  0  0  0  0  0
   30.4942    6.4759    8.3844 C   0  0  2  0  0  0  0  0  0  0  0  0
   30.3320    7.1788    7.1336 O   0  0  0  0  0  0  0  0  0  0  0  0
   30.5092    4.9429    8.1325 C   0  0  2  0  0  0  0  0  0  0  0  0
   30.6535    4.2307    9.3995 O   0  0  0  0  0  0  0  0  0  0  0  0
   31.7104    4.5999    7.2328 C   0  0  0  0  0  0  0  0  0  0  0  0
   31.7775    3.1882    6.9968 O   0  0  0  0  0  0  0  0  0  0  0  0
  1  2  1  1  0  0  0
  1  3  1  0  0  0  0
  1  4  2  0  0  0  0
  1 16  1  0  0  0  0
  5  6  1  6  0  0  0
  5  7  1  0  0  0  0
  5 14  1  0  0  0  0
  7  8  1  1  0  0  0
  7  9  1  0  0  0  0
  9 10  1  1  0  0  0
  9 11  1  0  0  0  0
 11 12  1  6  0  0  0
 11 13  1  0  0  0  0
 13 14  1  0  0  0  0
 13 15  1  6  0  0  0
 15 16  1  0  0  0  0
M  CHG  1   3  -1
M  END
>  <CHROM.1>
178.83722355,172.08064044,52.19371713,30.95667723,4.70206384,7.97449462,0.31238380
-0.92391670,2.84589751

>  <Name>
ligand

>  <RI>
0

>  <Rbt.Current_Directory>
/home/itssahil/PROJECTS/Mol_Feturizer/New_Systems/rnas/2HO7

>  <Rbt.Executable>
rbdock ($Id: //depot/dev/client3/rdock/2013.1/src/exe/rbdock.cxx#4 $)

>  <Rbt.Library>
libRbt.so (2013.1, Build901 2013/11/27)

>  <Rbt.Parameter_File>
/export/apps/rDock/src/rDock_2013.1_src/data/scripts/dock_solv.prm

>  <Rbt.Receptor>
prm/blind_docking_80.prm

>  <SCORE>
-9.23684

>  <SCORE.INTER>
-9.49655

>  <SCORE.INTER.CONST>
1

>  <SCORE.INTER.POLAR>
0

>  <SCORE.INTER.ROT>
3

>  <SCORE.INTER.SOLV>
11.6554

>  <SCORE.INTER.VDW>
-15.8162

>  <SCORE.INTER.norm>
-0.593534

>  <SCORE.INTRA>
0.25971

>  <SCORE.INTRA.DIHEDRAL>
0.400838

>  <SCORE.INTRA.DIHEDRAL.0>
0.00893466

>  <SCORE.INTRA.POLAR>
0

>  <SCORE.INTRA.POLAR.0>
0

>  <SCORE.INTRA.REPUL>
0

>  <SCORE.INTRA.REPUL.0>
0

>  <SCORE.INTRA.SOLV>
-0.0716372

>  <SCORE.INTRA.SOLV.lig_0>
-48.9722

>  <SCORE.INTRA.VDW>
0.0951099

>  <SCORE.INTRA.VDW.0>
-0.529409

>  <SCORE.INTRA.norm>
0.0162319

>  <SCORE.RESTR>
0

>  <SCORE.RESTR.CAVITY>
0

>  <SCORE.RESTR.norm>
0

>  <SCORE.SYSTEM>
0

>  <SCORE.SYSTEM.CONST>
0

>  <SCORE.SYSTEM.DIHEDRAL>
0

>  <SCORE.SYSTEM.SOLV>
0

>  <SCORE.SYSTEM.norm>
0

>  <SCORE.heavy>
16

>  <SCORE.norm>
-0.577303

>  <RMSD>
17.870

$$$$
ligand
 OpenBabel11021811433D
libRbt.so/2013.1/901 2013/11/27
 16 16  0  0  0  0  0  0  0  0999 V2000
   29.4002    2.2385    5.5927 P   0  0  2  0  0  0  0  0  0  0  0  0
   28.3754    1.2645    6.0435 O   0  0  0  0  0  0  0  0  0  0  0  0
   29.1747    2.5643    4.0329 O   0  5  0  0  0  0  0  0  0  0  0  0
   30.8595    1.5882    5.7957 O   0  0  0  0  0  0  0  0  0  0  0  0
   29.1917    5.2552   11.0219 C   0  0  2  0  0  0  0  0  0  0  0  0
   27.8072    5.6308   10.9087 O   0  0  0  0  0  0  0  0  0  0  0  0
   30.1165    6.4610   10.7156 C   0  0  2  0  0  0  0  0  0  0  0  0
   29.8109    7.5697   11.6274 O   0  0  0  0  0  0  0  0  0  0  0  0
   29.8717    6.9075    9.2619 C   0  0  1  0  0  0  0  0  0  0  0  0
   30.7192    8.0189    8.9473 O   0  0  0  0  0  0  0  0  0  0  0  0
   30.1989    5.7264    8.3350 C   0  0  2  0  0  0  0  0  0  0  0  0
   29.9662    6.1160    6.9643 O   0  0  0  0  0  0  0  0  0  0  0  0
   29.2752    4.5350    8.7112 C   0  0  2  0  0  0  0  0  0  0  0  0
   29.4961    4.1531   10.1035 O   0  0  0  0  0  0  0  0  0  0  0  0
   29.6198    3.3362    7.8090 C   0  0  0  0  0  0  0  0  0  0  0  0
   29.2757    3.6146    6.4462 O   0  0  0  0  0  0  0  0  0  0  0  0
  1  2  1  1  0  0  0
  1  3  1  0  0  0  0
  1  4  2  0  0  0  0
  1 16  1  0  0  0  0
  5  6  1  6  0  0  0
  5  7  1  0  0  0  0
  5 14  1  0  0  0  0
  7  8  1  1  0  0  0
  7  9  1  0  0  0  0
  9 10  1  6  0  0  0
  9 11  1  0  0  0  0
 11 12  1  6  0  0  0
 11 13  1  0  0  0  0
 13 14  1  0  0  0  0
 13 15  1  6  0  0  0
 15 16  1  0  0  0  0
M  CHG  1   3  -1
M  END
>  <CHROM.1>
-66.73277233,-169.70110352,66.20043077,29.55264584,4.48848970,8.03703716
1.64988323,-1.13053978,-2.23644788

>  <Name>
ligand

>  <RI>
0

>  <Rbt.Current_Directory>
/home/itssahil/PROJECTS/Mol_Feturizer/New_Systems/rnas/2HO7

>  <Rbt.Executable>
rbdock ($Id: //depot/dev/client3/rdock/2013.1/src/exe/rbdock.cxx#4 $)

>  <Rbt.Library>
libRbt.so (2013.1, Build901 2013/11/27)

>  <Rbt.Parameter_File>
/export/apps/rDock/src/rDock_2013.1_src/data/scripts/dock_solv.prm

>  <Rbt.Receptor>
prm/blind_docking_80.prm

>  <SCORE>
-7.85816

>  <SCORE.INTER>
-8.5338

>  <SCORE.INTER.CONST>
1

>  <SCORE.INTER.POLAR>
0

>  <SCORE.INTER.ROT>
3

>  <SCORE.INTER.SOLV>
11.3708

>  <SCORE.INTER.VDW>
-15.0795

>  <SCORE.INTER.norm>
-0.533362

>  <SCORE.INTRA>
0.67564

>  <SCORE.INTRA.DIHEDRAL>
0.727087

>  <SCORE.INTRA.DIHEDRAL.0>
0.00893466

>  <SCORE.INTRA.POLAR>
0

>  <SCORE.INTRA.POLAR.0>
0

>  <SCORE.INTRA.REPUL>
0

>  <SCORE.INTRA.REPUL.0>
0

>  <SCORE.INTRA.SOLV>
0.392476

>  <SCORE.INTRA.SOLV.lig_0>
-48.9722

>  <SCORE.INTRA.VDW>
0.115858

>  <SCORE.INTRA.VDW.0>
-0.529409

>  <SCORE.INTRA.norm>
0.0422275

>  <SCORE.RESTR>
0

>  <SCORE.RESTR.CAVITY>
0

>  <SCORE.RESTR.norm>
0

>  <SCORE.SYSTEM>
0

>  <SCORE.SYSTEM.CONST>
0

>  <SCORE.SYSTEM.DIHEDRAL>
0

>  <SCORE.SYSTEM.SOLV>
0

>  <SCORE.SYSTEM.norm>
0

>  <SCORE.heavy>
16

>  <SCORE.norm>
-0.491135

>  <RMSD>
19.264

$$$$
ligand
 OpenBabel11021811433D
libRbt.so/2013.1/901 2013/11/27
 16 16  0  0  0  0  0  0  0  0999 V2000
    9.2732    0.0999    0.9409 P   0  0  2  0  0  0  0  0  0  0  0  0
    9.0148    0.3675    2.3775 O   0  0  0  0  0  0  0  0  0  0  0  0
    9.5729    1.4894    0.1864 O   0  5  0  0  0  0  0  0  0  0  0  0
    7.9656   -0.5849    0.2968 O   0  0  0  0  0  0  0  0  0  0  0  0
   13.9451   -3.0473    2.1546 C   0  0  2  0  0  0  0  0  0  0  0  0
   15.1492   -2.3371    2.4957 O   0  0  0  0  0  0  0  0  0  0  0  0
   14.0835   -3.7338    0.7716 C   0  0  2  0  0  0  0  0  0  0  0  0
   15.2318   -4.6478    0.7798 O   0  0  0  0  0  0  0  0  0  0  0  0
   14.3004   -2.6442   -0.2952 C   0  0  1  0  0  0  0  0  0  0  0  0
   14.4255   -3.2495   -1.5876 O   0  0  0  0  0  0  0  0  0  0  0  0
   13.0840   -1.7054   -0.2772 C   0  0  2  0  0  0  0  0  0  0  0  0
   13.2680   -0.6660   -1.2624 O   0  0  0  0  0  0  0  0  0  0  0  0
   12.9676   -1.0779    1.1394 C   0  0  2  0  0  0  0  0  0  0  0  0
   12.8010   -2.1300    2.1387 O   0  0  0  0  0  0  0  0  0  0  0  0
   11.7312   -0.1613    1.1757 C   0  0  0  0  0  0  0  0  0  0  0  0
   10.5575   -0.8808    0.7783 O   0  0  0  0  0  0  0  0  0  0  0  0
  1  2  1  1  0  0  0
  1  3  1  0  0  0  0
  1  4  2  0  0  0  0
  1 16  1  0  0  0  0
  5  6  1  6  0  0  0
  5  7  1  0  0  0  0
  5 14  1  0  0  0  0
  7  8  1  1  0  0  0
  7  9  1  0  0  0  0
  9 10  1  6  0  0  0
  9 11  1  0  0  0  0
 11 12  1  6  0  0  0
 11 13  1  0  0  0  0
 13 14  1  0  0  0  0
 13 15  1  6  0  0  0
 15 16  1  0  0  0  0
M  CHG  1   3  -1
M  END
>  <CHROM.1>
55.03146276,175.84999621,-68.58588771,12.08130007,-1.41812846,0.74919101
3.12233806,0.57221698,-1.44872152

>  <Name>
ligand

>  <RI>
0

>  <Rbt.Current_Directory>
/home/itssahil/PROJECTS/Mol_Feturizer/New_Systems/rnas/2HO7

>  <Rbt.Executable>
rbdock ($Id: //depot/dev/client3/rdock/2013.1/src/exe/rbdock.cxx#4 $)

>  <Rbt.Library>
libRbt.so (2013.1, Build901 2013/11/27)

>  <Rbt.Parameter_File>
/export/apps/rDock/src/rDock_2013.1_src/data/scripts/dock_solv.prm

>  <Rbt.Receptor>
prm/blind_docking_100.prm

>  <SCORE>
-9.12489

>  <SCORE.INTER>
-9.43456

>  <SCORE.INTER.CONST>
1

>  <SCORE.INTER.POLAR>
-1.58661

>  <SCORE.INTER.ROT>
3

>  <SCORE.INTER.SOLV>
11.7013

>  <SCORE.INTER.VDW>
-10.5014

>  <SCORE.INTER.norm>
-0.58966

>  <SCORE.INTRA>
0.309674

>  <SCORE.INTRA.DIHEDRAL>
0.2851

>  <SCORE.INTRA.DIHEDRAL.0>
0.00893466

>  <SCORE.INTRA.POLAR>
0

>  <SCORE.INTRA.POLAR.0>
0

>  <SCORE.INTRA.REPUL>
0

>  <SCORE.INTRA.REPUL.0>
0

>  <SCORE.INTRA.SOLV>
0.332364

>  <SCORE.INTRA.SOLV.lig_0>
-48.9722

>  <SCORE.INTRA.VDW>
0.00094157

>  <SCORE.INTRA.VDW.0>
-0.529409

>  <SCORE.INTRA.norm>
0.0193546

>  <SCORE.RESTR>
0

>  <SCORE.RESTR.CAVITY>
0

>  <SCORE.RESTR.norm>
0

>  <SCORE.SYSTEM>
0

>  <SCORE.SYSTEM.CONST>
0

>  <SCORE.SYSTEM.DIHEDRAL>
0

>  <SCORE.SYSTEM.SOLV>
0

>  <SCORE.SYSTEM.norm>
0

>  <SCORE.heavy>
16

>  <SCORE.norm>
-0.570306

>  <RMSD>
38.769

$$$$
ligand
 OpenBabel11021811433D
libRbt.so/2013.1/901 2013/11/27
 16 16  0  0  0  0  0  0  0  0999 V2000
    9.8913    1.8495   -0.9481 P   0  0  2  0  0  0  0  0  0  0  0  0
   10.1206    2.8397   -2.0293 O   0  0  0  0  0  0  0  0  0  0  0  0
    8.7780    0.7897   -1.4247 O   0  5  0  0  0  0  0  0  0  0  0  0
    9.3637    2.6238    0.3617 O   0  0  0  0  0  0  0  0  0  0  0  0
   14.3945   -1.5057    0.5652 C   0  0  2  0  0  0  0  0  0  0  0  0
   14.2694   -2.3182   -0.6158 O   0  0  0  0  0  0  0  0  0  0  0  0
   14.2170   -2.3626    1.8448 C   0  0  2  0  0  0  0  0  0  0  0  0
   15.2065   -3.4464    1.8620 O   0  0  0  0  0  0  0  0  0  0  0  0
   12.7979   -2.9613    1.8388 C   0  0  1  0  0  0  0  0  0  0  0  0
   12.6018   -3.7549    3.0153 O   0  0  0  0  0  0  0  0  0  0  0  0
   11.7880   -1.8032    1.8195 C   0  0  2  0  0  0  0  0  0  0  0  0
   10.4472   -2.3387    1.8019 O   0  0  0  0  0  0  0  0  0  0  0  0
   12.0364   -0.9549    0.5417 C   0  0  2  0  0  0  0  0  0  0  0  0
   13.3990   -0.4291    0.5494 O   0  0  0  0  0  0  0  0  0  0  0  0
   11.0503    0.2272    0.5318 C   0  0  0  0  0  0  0  0  0  0  0  0
   11.2698    1.0582   -0.6147 O   0  0  0  0  0  0  0  0  0  0  0  0
  1  2  1  6  0  0  0
  1  3  1  0  0  0  0
  1  4  2  0  0  0  0
  1 16  1  0  0  0  0
  5  6  1  6  0  0  0
  5  7  1  0  0  0  0
  5 14  1  0  0  0  0
  7  8  1  6  0  0  0
  7  9  1  0  0  0  0
  9 10  1  1  0  0  0
  9 11  1  0  0  0  0
 11 12  1  6  0  0  0
 11 13  1  0  0  0  0
 13 14  1  0  0  0  0
 13 15  1  1  0  0  0
 15 16  1  0  0  0  0
M  CHG  1   3  -1
M  END
>  <CHROM.1>
178.43189330,155.47008417,173.36151066,11.79849292,-0.56658135,0.43543258
-2.22813507,-0.28346096,2.42542445

>  <Name>
ligand

>  <RI>
0

>  <Rbt.Current_Directory>
/home/itssahil/PROJECTS/Mol_Feturizer/New_Systems/rnas/2HO7

>  <Rbt.Executable>
rbdock ($Id: //depot/dev/client3/rdock/2013.1/src/exe/rbdock.cxx#4 $)

>  <Rbt.Library>
libRbt.so (2013.1, Build901 2013/11/27)

>  <Rbt.Parameter_File>
/export/apps/rDock/src/rDock_2013.1_src/data/scripts/dock_solv.prm

>  <Rbt.Receptor>
prm/blind_docking_20.prm

>  <SCORE>
-11.4176

>  <SCORE.INTER>
-13.0168

>  <SCORE.INTER.CONST>
1

>  <SCORE.INTER.POLAR>
-1.59099

>  <SCORE.INTER.ROT>
3

>  <SCORE.INTER.SOLV>
15.5374

>  <SCORE.INTER.VDW>
-14.1537

>  <SCORE.INTER.norm>
-0.813549

>  <SCORE.INTRA>
1.59917

>  <SCORE.INTRA.DIHEDRAL>
2.65556

>  <SCORE.INTRA.DIHEDRAL.0>
0.00893466

>  <SCORE.INTRA.POLAR>
0

>  <SCORE.INTRA.POLAR.0>
0

>  <SCORE.INTRA.REPUL>
0

>  <SCORE.INTRA.REPUL.0>
0

>  <SCORE.INTRA.SOLV>
0.710058

>  <SCORE.INTRA.SOLV.lig_0>
-48.9722

>  <SCORE.INTRA.VDW>
-0.0836412

>  <SCORE.INTRA.VDW.0>
-0.529409

>  <SCORE.INTRA.norm>
0.0999479

>  <SCORE.RESTR>
0

>  <SCORE.RESTR.CAVITY>
0

>  <SCORE.RESTR.norm>
0

>  <SCORE.SYSTEM>
0

>  <SCORE.SYSTEM.CONST>
0

>  <SCORE.SYSTEM.DIHEDRAL>
0

>  <SCORE.SYSTEM.SOLV>
0

>  <SCORE.SYSTEM.norm>
0

>  <SCORE.heavy>
16

>  <SCORE.norm>
-0.713601

>  <RMSD>
38.839

$$$$
ligand
 OpenBabel11021811433D
libRbt.so/2013.1/901 2013/11/27
 16 16  0  0  0  0  0  0  0  0999 V2000
    9.4582    1.1368    0.4250 P   0  0  2  0  0  0  0  0  0  0  0  0
    8.2670    1.2616    1.3012 O   0  0  0  0  0  0  0  0  0  0  0  0
    9.9765    2.6053    0.0194 O   0  5  0  0  0  0  0  0  0  0  0  0
    9.0414    0.3324   -0.9065 O   0  0  0  0  0  0  0  0  0  0  0  0
   12.2292   -4.0999    2.3621 C   0  0  2  0  0  0  0  0  0  0  0  0
   12.3102   -3.8046    3.7681 O   0  0  0  0  0  0  0  0  0  0  0  0
   13.5923   -3.8505    1.6673 C   0  0  2  0  0  0  0  0  0  0  0  0
   14.6339   -4.6665    2.3023 O   0  0  0  0  0  0  0  0  0  0  0  0
   13.9481   -2.3588    1.8109 C   0  0  1  0  0  0  0  0  0  0  0  0
   15.2029   -2.0962    1.1712 O   0  0  0  0  0  0  0  0  0  0  0  0
   12.8399   -1.5337    1.1384 C   0  0  2  0  0  0  0  0  0  0  0  0
   13.1443   -0.1283    1.2694 O   0  0  0  0  0  0  0  0  0  0  0  0
   11.4926   -1.8519    1.8439 C   0  0  2  0  0  0  0  0  0  0  0  0
   11.1938   -3.2769    1.7287 O   0  0  0  0  0  0  0  0  0  0  0  0
   10.3711   -1.0541    1.1541 C   0  0  0  0  0  0  0  0  0  0  0  0
   10.6456    0.3512    1.2063 O   0  0  0  0  0  0  0  0  0  0  0  0
  1  2  1  1  0  0  0
  1  3  1  0  0  0  0
  1  4  2  0  0  0  0
  1 16  1  0  0  0  0
  5  6  1  1  0  0  0
  5  7  1  0  0  0  0
  5 14  1  0  0  0  0
  7  8  1  1  0  0  0
  7  9  1  0  0  0  0
  9 10  1  6  0  0  0
  9 11  1  0  0  0  0
 11 12  1  1  0  0  0
 11 13  1  0  0  0  0
 13 14  1  0  0  0  0
 13 15  1  6  0  0  0
 15 16  1  0  0  0  0
M  CHG  1   3  -1
M  END
>  <CHROM.1>
-58.42342251,178.21162442,79.74346255,11.58471869,-1.21457487,1.31436269
2.26960037,0.09649916,-0.44034195

>  <Name>
ligand

>  <RI>
0

>  <Rbt.Current_Directory>
/home/itssahil/PROJECTS/Mol_Feturizer/New_Systems/rnas/2HO7

>  <Rbt.Executable>
rbdock ($Id: //depot/dev/client3/rdock/2013.1/src/exe/rbdock.cxx#4 $)

>  <Rbt.Library>
libRbt.so (2013.1, Build901 2013/11/27)

>  <Rbt.Parameter_File>
/export/apps/rDock/src/rDock_2013.1_src/data/scripts/dock_solv.prm

>  <Rbt.Receptor>
prm/blind_docking_20.prm

>  <SCORE>
-11.4522

>  <SCORE.INTER>
-12.685

>  <SCORE.INTER.CONST>
1

>  <SCORE.INTER.POLAR>
-1.59099

>  <SCORE.INTER.ROT>
3

>  <SCORE.INTER.SOLV>
13.8758

>  <SCORE.INTER.VDW>
-13.3786

>  <SCORE.INTER.norm>
-0.79281

>  <SCORE.INTRA>
1.23214

>  <SCORE.INTRA.DIHEDRAL>
0.600438

>  <SCORE.INTRA.DIHEDRAL.0>
0.00893466

>  <SCORE.INTRA.POLAR>
0

>  <SCORE.INTRA.POLAR.0>
0

>  <SCORE.INTRA.REPUL>
0

>  <SCORE.INTRA.REPUL.0>
0

>  <SCORE.INTRA.SOLV>
0.765905

>  <SCORE.INTRA.SOLV.lig_0>
-48.9722

>  <SCORE.INTRA.VDW>
0.548968

>  <SCORE.INTRA.VDW.0>
-0.529409

>  <SCORE.INTRA.norm>
0.0770087

>  <SCORE.RESTR>
0.000598554

>  <SCORE.RESTR.CAVITY>
0.000598554

>  <SCORE.RESTR.norm>
3.74096e-05

>  <SCORE.SYSTEM>
0

>  <SCORE.SYSTEM.CONST>
0

>  <SCORE.SYSTEM.DIHEDRAL>
0

>  <SCORE.SYSTEM.SOLV>
0

>  <SCORE.SYSTEM.norm>
0

>  <SCORE.heavy>
16

>  <SCORE.norm>
-0.715764

>  <RMSD>
39.004

$$$$
ligand
 OpenBabel11021811433D
libRbt.so/2013.1/901 2013/11/27
 16 16  0  0  0  0  0  0  0  0999 V2000
   12.8194   -1.4984    1.3581 P   0  0  2  0  0  0  0  0  0  0  0  0
   13.1709   -0.0569    1.3321 O   0  0  0  0  0  0  0  0  0  0  0  0
   11.4700   -1.7017    2.2110 O   0  5  0  0  0  0  0  0  0  0  0  0
   14.0197   -2.3129    2.0577 O   0  0  0  0  0  0  0  0  0  0  0  0
    9.9367    1.3295   -0.4856 C   0  0  2  0  0  0  0  0  0  0  0  0
    8.8493    0.4459   -0.8134 O   0  0  0  0  0  0  0  0  0  0  0  0
   10.1876    2.3429   -1.6315 C   0  0  2  0  0  0  0  0  0  0  0  0
    8.9655    3.1115   -1.8958 O   0  0  0  0  0  0  0  0  0  0  0  0
   10.5875    1.5606   -2.8966 C   0  0  1  0  0  0  0  0  0  0  0  0
   10.8327    2.4733   -3.9734 O   0  0  0  0  0  0  0  0  0  0  0  0
   11.8667    0.7676   -2.5868 C   0  0  2  0  0  0  0  0  0  0  0  0
   12.2570    0.0149   -3.7556 O   0  0  0  0  0  0  0  0  0  0  0  0
   11.5722   -0.2001   -1.4075 C   0  0  2  0  0  0  0  0  0  0  0  0
   11.1583    0.5594   -0.2306 O   0  0  0  0  0  0  0  0  0  0  0  0
   12.8587   -0.9749   -1.0687 C   0  0  0  0  0  0  0  0  0  0  0  0
   12.5795   -2.0415   -0.1536 O   0  0  0  0  0  0  0  0  0  0  0  0
  1  2  1  6  0  0  0
  1  3  1  0  0  0  0
  1  4  2  0  0  0  0
  1 16  1  0  0  0  0
  5  6  1  6  0  0  0
  5  7  1  0  0  0  0
  5 14  1  0  0  0  0
  7  8  1  6  0  0  0
  7  9  1  0  0  0  0
  9 10  1  6  0  0  0
  9 11  1  0  0  0  0
 11 12  1  6  0  0  0
 11 13  1  0  0  0  0
 13 14  1  0  0  0  0
 13 15  1  1  0  0  0
 15 16  1  0  0  0  0
M  CHG  1   3  -1
M  END
>  <CHROM.1>
-169.75600715,-93.12487385,3.37404057,11.55182417,0.09170758,-0.68378305
0.98546221,-0.63145544,1.92584019

>  <Name>
ligand

>  <RI>
0

>  <Rbt.Current_Directory>
/home/itssahil/PROJECTS/Mol_Feturizer/New_Systems/rnas/2HO7

>  <Rbt.Executable>
rbdock ($Id: //depot/dev/client3/rdock/2013.1/src/exe/rbdock.cxx#4 $)

>  <Rbt.Library>
libRbt.so (2013.1, Build901 2013/11/27)

>  <Rbt.Parameter_File>
/export/apps/rDock/src/rDock_2013.1_src/data/scripts/dock_solv.prm

>  <Rbt.Receptor>
prm/blind_docking_40.prm

>  <SCORE>
-7.74165

>  <SCORE.INTER>
-13.2588

>  <SCORE.INTER.CONST>
1

>  <SCORE.INTER.POLAR>
-1.27016

>  <SCORE.INTER.ROT>
3

>  <SCORE.INTER.SOLV>
12.1064

>  <SCORE.INTER.VDW>
-14.2408

>  <SCORE.INTER.norm>
-0.828673

>  <SCORE.INTRA>
5.51712

>  <SCORE.INTRA.DIHEDRAL>
6.92917

>  <SCORE.INTRA.DIHEDRAL.0>
0.00893466

>  <SCORE.INTRA.POLAR>
0

>  <SCORE.INTRA.POLAR.0>
0

>  <SCORE.INTRA.REPUL>
0

>  <SCORE.INTRA.REPUL.0>
0

>  <SCORE.INTRA.SOLV>
1.71666

>  <SCORE.INTRA.SOLV.lig_0>
-48.9722

>  <SCORE.INTRA.VDW>
1.19421

>  <SCORE.INTRA.VDW.0>
-0.529409

>  <SCORE.INTRA.norm>
0.34482

>  <SCORE.RESTR>
0

>  <SCORE.RESTR.CAVITY>
0

>  <SCORE.RESTR.norm>
0

>  <SCORE.SYSTEM>
0

>  <SCORE.SYSTEM.CONST>
0

>  <SCORE.SYSTEM.DIHEDRAL>
0

>  <SCORE.SYSTEM.SOLV>
0

>  <SCORE.SYSTEM.norm>
0

>  <SCORE.heavy>
16

>  <SCORE.norm>
-0.483853

>  <RMSD>
39.280

$$$$
ligand
 OpenBabel11021811433D
libRbt.so/2013.1/901 2013/11/27
 16 16  0  0  0  0  0  0  0  0999 V2000
   13.6028   -1.4967    0.8077 P   0  0  2  0  0  0  0  0  0  0  0  0
   13.6797   -1.0849    2.2314 O   0  0  0  0  0  0  0  0  0  0  0  0
   12.8780   -2.9300    0.7069 O   0  5  0  0  0  0  0  0  0  0  0  0
   15.0975   -1.6129    0.2194 O   0  0  0  0  0  0  0  0  0  0  0  0
   10.3909    3.0018   -0.9509 C   0  0  2  0  0  0  0  0  0  0  0  0
    9.0675    3.1171   -0.3976 O   0  0  0  0  0  0  0  0  0  0  0  0
   10.3300    2.5846   -2.4426 C   0  0  2  0  0  0  0  0  0  0  0  0
    9.5407    3.5607   -3.2030 O   0  0  0  0  0  0  0  0  0  0  0  0
    9.6633    1.1992   -2.5355 C   0  0  1  0  0  0  0  0  0  0  0  0
    9.5988    0.7834   -3.9050 O   0  0  0  0  0  0  0  0  0  0  0  0
   10.5116    0.2029   -1.7299 C   0  0  2  0  0  0  0  0  0  0  0  0
    9.9006   -1.1040   -1.7915 O   0  0  0  0  0  0  0  0  0  0  0  0
   10.5742    0.6894   -0.2556 C   0  0  2  0  0  0  0  0  0  0  0  0
   11.1742    2.0196   -0.1945 O   0  0  0  0  0  0  0  0  0  0  0  0
   11.4504   -0.2858    0.5515 C   0  0  0  0  0  0  0  0  0  0  0  0
   12.7485   -0.4083   -0.0426 O   0  0  0  0  0  0  0  0  0  0  0  0
  1  2  1  1  0  0  0
  1  3  1  0  0  0  0
  1  4  2  0  0  0  0
  1 16  1  0  0  0  0
  5  6  1  1  0  0  0
  5  7  1  0  0  0  0
  5 14  1  0  0  0  0
  7  8  1  6  0  0  0
  7  9  1  0  0  0  0
  9 10  1  6  0  0  0
  9 11  1  0  0  0  0
 11 12  1  1  0  0  0
 11 13  1  0  0  0  0
 13 14  1  0  0  0  0
 13 15  1  1  0  0  0
 15 16  1  0  0  0  0
M  CHG  1   3  -1
M  END
>  <CHROM.1>
55.86767735,-177.43294165,-57.13451416,11.45631470,0.34256170,-0.67812093
-0.26442797,-0.87840398,0.55708244

>  <Name>
ligand

>  <RI>
0

>  <Rbt.Current_Directory>
/home/itssahil/PROJECTS/Mol_Feturizer/New_Systems/rnas/2HO7

>  <Rbt.Executable>
rbdock ($Id: //depot/dev/client3/rdock/2013.1/src/exe/rbdock.cxx#4 $)

>  <Rbt.Library>
libRbt.so (2013.1, Build901 2013/11/27)

>  <Rbt.Parameter_File>
/export/apps/rDock/src/rDock_2013.1_src/data/scripts/dock_solv.prm

>  <Rbt.Receptor>
prm/blind_docking_40.prm

>  <SCORE>
-10.554

>  <SCORE.INTER>
-10.7549

>  <SCORE.INTER.CONST>
1

>  <SCORE.INTER.POLAR>
-1.03765

>  <SCORE.INTER.ROT>
3

>  <SCORE.INTER.SOLV>
16.1721

>  <SCORE.INTER.VDW>
-14.7018

>  <SCORE.INTER.norm>
-0.672181

>  <SCORE.INTRA>
0.195151

>  <SCORE.INTRA.DIHEDRAL>
0.0987959

>  <SCORE.INTRA.DIHEDRAL.0>
0.00893466

>  <SCORE.INTRA.POLAR>
0

>  <SCORE.INTRA.POLAR.0>
0

>  <SCORE.INTRA.REPUL>
0

>  <SCORE.INTRA.REPUL.0>
0

>  <SCORE.INTRA.SOLV>
0.336772

>  <SCORE.INTRA.SOLV.lig_0>
-48.9722

>  <SCORE.INTRA.VDW>
-0.0226331

>  <SCORE.INTRA.VDW.0>
-0.529409

>  <SCORE.INTRA.norm>
0.0121969

>  <SCORE.RESTR>
0.00571436

>  <SCORE.RESTR.CAVITY>
0.00571436

>  <SCORE.RESTR.norm>
0.000357148

>  <SCORE.SYSTEM>
0

>  <SCORE.SYSTEM.CONST>
0

>  <SCORE.SYSTEM.DIHEDRAL>
0

>  <SCORE.SYSTEM.SOLV>
0

>  <SCORE.SYSTEM.norm>
0

>  <SCORE.heavy>
16

>  <SCORE.norm>
-0.659627

>  <RMSD>
39.338

$$$$
ligand
 OpenBabel11021811433D
libRbt.so/2013.1/901 2013/11/27
 16 16  0  0  0  0  0  0  0  0999 V2000
   12.5197   -3.6420    2.1365 P   0  0  2  0  0  0  0  0  0  0  0  0
   12.0002   -4.3496    3.3330 O   0  0  0  0  0  0  0  0  0  0  0  0
   12.7493   -4.7034    0.9488 O   0  5  0  0  0  0  0  0  0  0  0  0
   13.9246   -2.9500    2.5116 O   0  0  0  0  0  0  0  0  0  0  0  0
    9.4204    0.9629    0.4284 C   0  0  2  0  0  0  0  0  0  0  0  0
    8.3829    0.2117   -0.2273 O   0  0  0  0  0  0  0  0  0  0  0  0
   10.1160    1.9264   -0.5669 C   0  0  2  0  0  0  0  0  0  0  0  0
    9.1256    2.8324   -1.1607 O   0  0  0  0  0  0  0  0  0  0  0  0
   10.7775    1.0882   -1.6769 C   0  0  1  0  0  0  0  0  0  0  0  0
   11.4354    1.9532   -2.6104 O   0  0  0  0  0  0  0  0  0  0  0  0
   11.8057    0.1516   -1.0234 C   0  0  2  0  0  0  0  0  0  0  0  0
   12.4332   -0.6550   -2.0434 O   0  0  0  0  0  0  0  0  0  0  0  0
   11.0643   -0.7610   -0.0079 C   0  0  2  0  0  0  0  0  0  0  0  0
   10.4129    0.0553    1.0131 O   0  0  0  0  0  0  0  0  0  0  0  0
   12.0929   -1.6800    0.6759 C   0  0  0  0  0  0  0  0  0  0  0  0
   11.4542   -2.5185    1.6464 O   0  0  0  0  0  0  0  0  0  0  0  0
  1  2  1  1  0  0  0
  1  3  1  0  0  0  0
  1  4  2  0  0  0  0
  1 16  1  0  0  0  0
  5  6  1  6  0  0  0
  5  7  1  0  0  0  0
  5 14  1  0  0  0  0
  7  8  1  6  0  0  0
  7  9  1  0  0  0  0
  9 10  1  6  0  0  0
  9 11  1  0  0  0  0
 11 12  1  6  0  0  0
 11 13  1  0  0  0  0
 13 14  1  0  0  0  0
 13 15  1  1  0  0  0
 15 16  1  0  0  0  0
M  CHG  1   3  -1
M  END
>  <CHROM.1>
178.60861637,169.81234131,168.34028853,11.33629167,-1.00161409,0.36667576
1.11740127,-0.57580459,2.31683106

>  <Name>
ligand

>  <RI>
0

>  <Rbt.Current_Directory>
/home/itssahil/PROJECTS/Mol_Feturizer/New_Systems/rnas/2HO7

>  <Rbt.Executable>
rbdock ($Id: //depot/dev/client3/rdock/2013.1/src/exe/rbdock.cxx#4 $)

>  <Rbt.Library>
libRbt.so (2013.1, Build901 2013/11/27)

>  <Rbt.Parameter_File>
/export/apps/rDock/src/rDock_2013.1_src/data/scripts/dock_solv.prm

>  <Rbt.Receptor>
prm/blind_docking_100.prm

>  <SCORE>
-10.3276

>  <SCORE.INTER>
-11.0095

>  <SCORE.INTER.CONST>
1

>  <SCORE.INTER.POLAR>
-1.27279

>  <SCORE.INTER.ROT>
3

>  <SCORE.INTER.SOLV>
9.01931

>  <SCORE.INTER.VDW>
-11.7034

>  <SCORE.INTER.norm>
-0.688092

>  <SCORE.INTRA>
0.681853

>  <SCORE.INTRA.DIHEDRAL>
0.716254

>  <SCORE.INTRA.DIHEDRAL.0>
0.00893466

>  <SCORE.INTRA.POLAR>
0

>  <SCORE.INTRA.POLAR.0>
0

>  <SCORE.INTRA.REPUL>
0

>  <SCORE.INTRA.REPUL.0>
0

>  <SCORE.INTRA.SOLV>
0.647081

>  <SCORE.INTRA.SOLV.lig_0>
-48.9722

>  <SCORE.INTRA.VDW>
0.000185438

>  <SCORE.INTRA.VDW.0>
-0.529409

>  <SCORE.INTRA.norm>
0.0426158

>  <SCORE.RESTR>
0

>  <SCORE.RESTR.CAVITY>
0

>  <SCORE.RESTR.norm>
0

>  <SCORE.SYSTEM>
0

>  <SCORE.SYSTEM.CONST>
0

>  <SCORE.SYSTEM.DIHEDRAL>
0

>  <SCORE.SYSTEM.SOLV>
0

>  <SCORE.SYSTEM.norm>
0

>  <SCORE.heavy>
16

>  <SCORE.norm>
-0.645476

>  <RMSD>
39.492

$$$$
ligand
 OpenBabel11021811433D
libRbt.so/2013.1/901 2013/11/27
 16 16  0  0  0  0  0  0  0  0999 V2000
   10.2764    1.0759   -1.0724 P   0  0  2  0  0  0  0  0  0  0  0  0
   10.5492    1.9370    0.1049 O   0  0  0  0  0  0  0  0  0  0  0  0
   10.6608    1.8741   -2.4159 O   0  5  0  0  0  0  0  0  0  0  0  0
    8.7074    0.7137   -1.0984 O   0  0  0  0  0  0  0  0  0  0  0  0
   11.8211   -4.4573   -0.9833 C   0  0  2  0  0  0  0  0  0  0  0  0
   11.3973   -5.2437    0.1448 O   0  0  0  0  0  0  0  0  0  0  0  0
   13.3572   -4.2495   -0.9641 C   0  0  2  0  0  0  0  0  0  0  0  0
   14.0376   -5.5500   -0.9622 O   0  0  0  0  0  0  0  0  0  0  0  0
   13.7291   -3.4721    0.3124 C   0  0  1  0  0  0  0  0  0  0  0  0
   15.1451   -3.2589    0.3546 O   0  0  0  0  0  0  0  0  0  0  0  0
   13.0011   -2.1192    0.2802 C   0  0  2  0  0  0  0  0  0  0  0  0
   13.3245   -1.3741    1.4740 O   0  0  0  0  0  0  0  0  0  0  0  0
   11.4715   -2.3848    0.2196 C   0  0  2  0  0  0  0  0  0  0  0  0
   11.1462   -3.1554   -0.9777 O   0  0  0  0  0  0  0  0  0  0  0  0
   10.7359   -1.0340    0.1533 C   0  0  0  0  0  0  0  0  0  0  0  0
   11.1640   -0.2815   -0.9885 O   0  0  0  0  0  0  0  0  0  0  0  0
  1  2  1  1  0  0  0
  1  3  1  0  0  0  0
  1  4  2  0  0  0  0
  1 16  1  0  0  0  0
  5  6  1  1  0  0  0
  5  7  1  0  0  0  0
  5 14  1  0  0  0  0
  7  8  1  1  0  0  0
  7  9  1  0  0  0  0
  9 10  1  6  0  0  0
  9 11  1  0  0  0  0
 11 12  1  1  0  0  0
 11 13  1  0  0  0  0
 13 14  1  0  0  0  0
 13 15  1  6  0  0  0
 15 16  1  0  0  0  0
M  CHG  1   3  -1
M  END
>  <CHROM.1>
58.24073467,175.65142743,64.65086514,11.77566133,-1.68358951,-0.45525532
2.14068964,-0.42208449,0.11109352

>  <Name>
ligand

>  <RI>
0

>  <Rbt.Current_Directory>
/home/itssahil/PROJECTS/Mol_Feturizer/New_Systems/rnas/2HO7

>  <Rbt.Executable>
rbdock ($Id: //depot/dev/client3/rdock/2013.1/src/exe/rbdock.cxx#4 $)

>  <Rbt.Library>
libRbt.so (2013.1, Build901 2013/11/27)

>  <Rbt.Parameter_File>
/export/apps/rDock/src/rDock_2013.1_src/data/scripts/dock_solv.prm

>  <Rbt.Receptor>
prm/blind_docking_60.prm

>  <SCORE>
-7.78323

>  <SCORE.INTER>
-7.91794

>  <SCORE.INTER.CONST>
1

>  <SCORE.INTER.POLAR>
-1.59099

>  <SCORE.INTER.ROT>
3

>  <SCORE.INTER.SOLV>
9.44757

>  <SCORE.INTER.VDW>
-8.72452

>  <SCORE.INTER.norm>
-0.494871

>  <SCORE.INTRA>
0.134714

>  <SCORE.INTRA.DIHEDRAL>
0.130452

>  <SCORE.INTRA.DIHEDRAL.0>
0.00893466

>  <SCORE.INTRA.POLAR>
0

>  <SCORE.INTRA.POLAR.0>
0

>  <SCORE.INTRA.REPUL>
0

>  <SCORE.INTRA.REPUL.0>
0

>  <SCORE.INTRA.SOLV>
0.303417

>  <SCORE.INTRA.SOLV.lig_0>
-48.9722

>  <SCORE.INTRA.VDW>
-0.0822205

>  <SCORE.INTRA.VDW.0>
-0.529409

>  <SCORE.INTRA.norm>
0.00841965

>  <SCORE.RESTR>
0

>  <SCORE.RESTR.CAVITY>
0

>  <SCORE.RESTR.norm>
0

>  <SCORE.SYSTEM>
0

>  <SCORE.SYSTEM.CONST>
0

>  <SCORE.SYSTEM.DIHEDRAL>
0

>  <SCORE.SYSTEM.SOLV>
0

>  <SCORE.SYSTEM.norm>
0

>  <SCORE.heavy>
16

>  <SCORE.norm>
-0.486452

>  <RMSD>
39.588

$$$$
ligand
 OpenBabel11021811433D
libRbt.so/2013.1/901 2013/11/27
 16 16  0  0  0  0  0  0  0  0999 V2000
   10.6311    2.6650   -2.9520 P   0  0  2  0  0  0  0  0  0  0  0  0
   11.8441    3.4875   -2.7189 O   0  0  0  0  0  0  0  0  0  0  0  0
   11.0368    1.1077   -2.9544 O   0  5  0  0  0  0  0  0  0  0  0  0
   10.0065    3.0551   -4.3842 O   0  0  0  0  0  0  0  0  0  0  0  0
   11.9840    0.4214    1.5958 C   0  0  2  0  0  0  0  0  0  0  0  0
   12.7153   -0.2873    0.5791 O   0  0  0  0  0  0  0  0  0  0  0  0
   10.7508   -0.3962    2.0583 C   0  0  2  0  0  0  0  0  0  0  0  0
   11.1792   -1.7084    2.5568 O   0  0  0  0  0  0  0  0  0  0  0  0
    9.8102   -0.5853    0.8534 C   0  0  1  0  0  0  0  0  0  0  0  0
    8.6556   -1.3336    1.2528 O   0  0  0  0  0  0  0  0  0  0  0  0
    9.3818    0.8040    0.3556 C   0  0  2  0  0  0  0  0  0  0  0  0
    8.5067    0.6546   -0.7832 O   0  0  0  0  0  0  0  0  0  0  0  0
   10.6552    1.5939   -0.0548 C   0  0  2  0  0  0  0  0  0  0  0  0
   11.5498    1.7283    1.0919 O   0  0  0  0  0  0  0  0  0  0  0  0
   10.2373    2.9995   -0.5234 C   0  0  0  0  0  0  0  0  0  0  0  0
    9.5435    2.9289   -1.7751 O   0  0  0  0  0  0  0  0  0  0  0  0
  1  2  1  1  0  0  0
  1  3  1  0  0  0  0
  1  4  2  0  0  0  0
  1 16  1  0  0  0  0
  5  6  1  6  0  0  0
  5  7  1  0  0  0  0
  5 14  1  0  0  0  0
  7  8  1  6  0  0  0
  7  9  1  0  0  0  0
  9 10  1  1  0  0  0
  9 11  1  0  0  0  0
 11 12  1  6  0  0  0
 11 13  1  0  0  0  0
 13 14  1  0  0  0  0
 13 15  1  1  0  0  0
 15 16  1  0  0  0  0
M  CHG  1   3  -1
M  END
>  <CHROM.1>
-69.88694982,-75.57147785,-41.30871859,10.53954015,1.19115456,-0.59166209
-1.59363820,0.28952709,2.21840200

>  <Name>
ligand

>  <RI>
0

>  <Rbt.Current_Directory>
/home/itssahil/PROJECTS/Mol_Feturizer/New_Systems/rnas/2HO7

>  <Rbt.Executable>
rbdock ($Id: //depot/dev/client3/rdock/2013.1/src/exe/rbdock.cxx#4 $)

>  <Rbt.Library>
libRbt.so (2013.1, Build901 2013/11/27)

>  <Rbt.Parameter_File>
/export/apps/rDock/src/rDock_2013.1_src/data/scripts/dock_solv.prm

>  <Rbt.Receptor>
prm/blind_docking_60.prm

>  <SCORE>
-18.9002

>  <SCORE.INTER>
-21.6847

>  <SCORE.INTER.CONST>
1

>  <SCORE.INTER.POLAR>
-1.27231

>  <SCORE.INTER.ROT>
3

>  <SCORE.INTER.SOLV>
17.5678

>  <SCORE.INTER.VDW>
-21.6714

>  <SCORE.INTER.norm>
-1.3553

>  <SCORE.INTRA>
2.78455

>  <SCORE.INTRA.DIHEDRAL>
1.9984

>  <SCORE.INTRA.DIHEDRAL.0>
0.00893466

>  <SCORE.INTRA.POLAR>
0

>  <SCORE.INTRA.POLAR.0>
0

>  <SCORE.INTRA.REPUL>
0

>  <SCORE.INTRA.REPUL.0>
0

>  <SCORE.INTRA.SOLV>
3.30099

>  <SCORE.INTRA.SOLV.lig_0>
-48.9722

>  <SCORE.INTRA.VDW>
0.134856

>  <SCORE.INTRA.VDW.0>
-0.529409

>  <SCORE.INTRA.norm>
0.174035

>  <SCORE.RESTR>
0

>  <SCORE.RESTR.CAVITY>
0

>  <SCORE.RESTR.norm>
0

>  <SCORE.SYSTEM>
0

>  <SCORE.SYSTEM.CONST>
0

>  <SCORE.SYSTEM.DIHEDRAL>
0

>  <SCORE.SYSTEM.SOLV>
0

>  <SCORE.SYSTEM.norm>
0

>  <SCORE.heavy>
16

>  <SCORE.norm>
-1.18126

>  <RMSD>
39.644

$$$$
ligand
 OpenBabel11021811433D
libRbt.so/2013.1/901 2013/11/27
 16 16  0  0  0  0  0  0  0  0999 V2000
   12.2578    0.1340    1.7718 P   0  0  2  0  0  0  0  0  0  0  0  0
   12.6435    1.3213    2.5741 O   0  0  0  0  0  0  0  0  0  0  0  0
   10.9417   -0.5357    2.4115 O   0  5  0  0  0  0  0  0  0  0  0  0
   13.4665   -0.9297    1.8043 O   0  0  0  0  0  0  0  0  0  0  0  0
   10.7680    3.1767   -3.1190 C   0  0  2  0  0  0  0  0  0  0  0  0
    9.4041    3.6350   -3.1412 O   0  0  0  0  0  0  0  0  0  0  0  0
   10.9444    1.9280   -4.0204 C   0  0  2  0  0  0  0  0  0  0  0  0
   10.5318    2.2404   -5.3938 O   0  0  0  0  0  0  0  0  0  0  0  0
   10.0626    0.7948   -3.4632 C   0  0  1  0  0  0  0  0  0  0  0  0
   10.2101   -0.3772   -4.2739 O   0  0  0  0  0  0  0  0  0  0  0  0
   10.5184    0.4933   -2.0270 C   0  0  2  0  0  0  0  0  0  0  0  0
    9.6983   -0.5600   -1.4766 O   0  0  0  0  0  0  0  0  0  0  0  0
   10.3604    1.7856   -1.1791 C   0  0  2  0  0  0  0  0  0  0  0  0
   11.1746    2.8571   -1.7467 O   0  0  0  0  0  0  0  0  0  0  0  0
   10.8467    1.5012    0.2537 C   0  0  0  0  0  0  0  0  0  0  0  0
   11.9393    0.5744    0.2413 O   0  0  0  0  0  0  0  0  0  0  0  0
  1  2  1  1  0  0  0
  1  3  1  0  0  0  0
  1  4  2  0  0  0  0
  1 16  1  0  0  0  0
  5  6  1  1  0  0  0
  5  7  1  0  0  0  0
  5 14  1  0  0  0  0
  7  8  1  6  0  0  0
  7  9  1  0  0  0  0
  9 10  1  6  0  0  0
  9 11  1  0  0  0  0
 11 12  1  1  0  0  0
 11 13  1  0  0  0  0
 13 14  1  0  0  0  0
 13 15  1  1  0  0  0
 15 16  1  0  0  0  0
M  CHG  1   3  -1
M  END
>  <CHROM.1>
34.09345134,-171.27832355,-60.93459538,11.08824357,1.03619664,-1.04429695
-0.37460718,-1.23584008,-0.08386761

>  <Name>
ligand

>  <RI>
0

>  <Rbt.Current_Directory>
/home/itssahil/PROJECTS/Mol_Feturizer/New_Systems/rnas/2HO7

>  <Rbt.Executable>
rbdock ($Id: //depot/dev/client3/rdock/2013.1/src/exe/rbdock.cxx#4 $)

>  <Rbt.Library>
libRbt.so (2013.1, Build901 2013/11/27)

>  <Rbt.Parameter_File>
/export/apps/rDock/src/rDock_2013.1_src/data/scripts/dock_solv.prm

>  <Rbt.Receptor>
prm/blind_docking_80.prm

>  <SCORE>
-16.0741

>  <SCORE.INTER>
-18.1054

>  <SCORE.INTER.CONST>
1

>  <SCORE.INTER.POLAR>
-1.25673

>  <SCORE.INTER.ROT>
3

>  <SCORE.INTER.SOLV>
19.6935

>  <SCORE.INTER.VDW>
-20.0457

>  <SCORE.INTER.norm>
-1.13159

>  <SCORE.INTRA>
2.02716

>  <SCORE.INTRA.DIHEDRAL>
2.44153

>  <SCORE.INTRA.DIHEDRAL.0>
0.00893466

>  <SCORE.INTRA.POLAR>
0

>  <SCORE.INTRA.POLAR.0>
0

>  <SCORE.INTRA.REPUL>
0

>  <SCORE.INTRA.REPUL.0>
0

>  <SCORE.INTRA.SOLV>
0.756375

>  <SCORE.INTRA.SOLV.lig_0>
-48.9722

>  <SCORE.INTRA.VDW>
0.428209

>  <SCORE.INTRA.VDW.0>
-0.529409

>  <SCORE.INTRA.norm>
0.126698

>  <SCORE.RESTR>
0.0041778

>  <SCORE.RESTR.CAVITY>
0.0041778

>  <SCORE.RESTR.norm>
0.000261113

>  <SCORE.SYSTEM>
0

>  <SCORE.SYSTEM.CONST>
0

>  <SCORE.SYSTEM.DIHEDRAL>
0

>  <SCORE.SYSTEM.SOLV>
0

>  <SCORE.SYSTEM.norm>
0

>  <SCORE.heavy>
16

>  <SCORE.norm>
-1.00463

>  <RMSD>
39.646

$$$$
ligand
 OpenBabel11021811433D
libRbt.so/2013.1/901 2013/11/27
 16 16  0  0  0  0  0  0  0  0999 V2000
   10.1657   -0.6218    2.8541 P   0  0  2  0  0  0  0  0  0  0  0  0
    9.0790   -0.1381    1.9667 O   0  0  0  0  0  0  0  0  0  0  0  0
   10.4360   -2.1812    2.5628 O   0  5  0  0  0  0  0  0  0  0  0  0
    9.7054   -0.4379    4.3864 O   0  0  0  0  0  0  0  0  0  0  0  0
   10.3168    2.9373   -0.4307 C   0  0  2  0  0  0  0  0  0  0  0  0
    8.9301    2.5964   -0.2533 O   0  0  0  0  0  0  0  0  0  0  0  0
   10.7643    2.6818   -1.8928 C   0  0  2  0  0  0  0  0  0  0  0  0
    9.9250    3.4559   -2.8150 O   0  0  0  0  0  0  0  0  0  0  0  0
   10.6109    1.1793   -2.1951 C   0  0  1  0  0  0  0  0  0  0  0  0
   11.0240    0.9112   -3.5405 O   0  0  0  0  0  0  0  0  0  0  0  0
   11.4992    0.3987   -1.2139 C   0  0  2  0  0  0  0  0  0  0  0  0
   11.3645   -1.0160   -1.4693 O   0  0  0  0  0  0  0  0  0  0  0  0
   11.0361    0.7223    0.2334 C   0  0  2  0  0  0  0  0  0  0  0  0
   11.1536    2.1561    0.4858 O   0  0  0  0  0  0  0  0  0  0  0  0
   11.9429   -0.0302    1.2241 C   0  0  0  0  0  0  0  0  0  0  0  0
   11.5290    0.2152    2.5738 O   0  0  0  0  0  0  0  0  0  0  0  0
  1  2  1  6  0  0  0
  1  3  1  0  0  0  0
  1  4  2  0  0  0  0
  1 16  1  0  0  0  0
  5  6  1  6  0  0  0
  5  7  1  0  0  0  0
  5 14  1  0  0  0  0
  7  8  1  6  0  0  0
  7  9  1  0  0  0  0
  9 10  1  6  0  0  0
  9 11  1  0  0  0  0
 11 12  1  6  0  0  0
 11 13  1  0  0  0  0
 13 14  1  0  0  0  0
 13 15  1  1  0  0  0
 15 16  1  0  0  0  0
M  CHG  1   3  -1
M  END
>  <CHROM.1>
-178.59472146,74.10375015,-62.97516387,10.54218284,0.67851106,0.37914245
1.67722806,-1.11120884,2.15647170

>  <Name>
ligand

>  <RI>
0

>  <Rbt.Current_Directory>
/home/itssahil/PROJECTS/Mol_Feturizer/New_Systems/rnas/2HO7

>  <Rbt.Executable>
rbdock ($Id: //depot/dev/client3/rdock/2013.1/src/exe/rbdock.cxx#4 $)

>  <Rbt.Library>
libRbt.so (2013.1, Build901 2013/11/27)

>  <Rbt.Parameter_File>
/export/apps/rDock/src/rDock_2013.1_src/data/scripts/dock_solv.prm

>  <Rbt.Receptor>
prm/blind_docking_80.prm

>  <SCORE>
-10.9962

>  <SCORE.INTER>
-12.2025

>  <SCORE.INTER.CONST>
1

>  <SCORE.INTER.POLAR>
0

>  <SCORE.INTER.ROT>
3

>  <SCORE.INTER.SOLV>
15.868

>  <SCORE.INTER.VDW>
-19.0243

>  <SCORE.INTER.norm>
-0.762657

>  <SCORE.INTRA>
1.20632

>  <SCORE.INTRA.DIHEDRAL>
0.950855

>  <SCORE.INTRA.DIHEDRAL.0>
0.00893466

>  <SCORE.INTRA.POLAR>
0

>  <SCORE.INTRA.POLAR.0>
0

>  <SCORE.INTRA.REPUL>
0

>  <SCORE.INTRA.REPUL.0>
0

>  <SCORE.INTRA.SOLV>
1.23362

>  <SCORE.INTRA.SOLV.lig_0>
-48.9722

>  <SCORE.INTRA.VDW>
0.114087

>  <SCORE.INTRA.VDW.0>
-0.529409

>  <SCORE.INTRA.norm>
0.0753953

>  <SCORE.RESTR>
0

>  <SCORE.RESTR.CAVITY>
0

>  <SCORE.RESTR.norm>
0

>  <SCORE.SYSTEM>
0

>  <SCORE.SYSTEM.CONST>
0

>  <SCORE.SYSTEM.DIHEDRAL>
0

>  <SCORE.SYSTEM.SOLV>
0

>  <SCORE.SYSTEM.norm>
0

>  <SCORE.heavy>
16

>  <SCORE.norm>
-0.687261

>  <RMSD>
39.657

$$$$
ligand
 OpenBabel11021811433D
libRbt.so/2013.1/901 2013/11/27
 16 16  0  0  0  0  0  0  0  0999 V2000
    9.7727    1.7754   -1.0902 P   0  0  2  0  0  0  0  0  0  0  0  0
    9.2068    2.9342   -0.3558 O   0  0  0  0  0  0  0  0  0  0  0  0
    9.8288    2.1175   -2.6617 O   0  5  0  0  0  0  0  0  0  0  0  0
    8.8207    0.4976   -0.8567 O   0  0  0  0  0  0  0  0  0  0  0  0
   12.2913   -2.4975    0.7639 C   0  0  2  0  0  0  0  0  0  0  0  0
   11.2869   -3.0490   -0.1066 O   0  0  0  0  0  0  0  0  0  0  0  0
   12.0040   -2.8687    2.2413 C   0  0  2  0  0  0  0  0  0  0  0  0
   11.9448   -4.3278    2.3879 O   0  0  0  0  0  0  0  0  0  0  0  0
   10.6497   -2.2556    2.6445 C   0  0  1  0  0  0  0  0  0  0  0  0
   10.3597   -2.5771    4.0101 O   0  0  0  0  0  0  0  0  0  0  0  0
   10.7444   -0.7308    2.4789 C   0  0  2  0  0  0  0  0  0  0  0  0
    9.4813   -0.1317    2.8403 O   0  0  0  0  0  0  0  0  0  0  0  0
   11.0741   -0.4166    0.9935 C   0  0  2  0  0  0  0  0  0  0  0  0
   12.3421   -1.0389    0.6217 O   0  0  0  0  0  0  0  0  0  0  0  0
   11.2037    1.1082    0.8260 C   0  0  0  0  0  0  0  0  0  0  0  0
   11.2753    1.4595   -0.5612 O   0  0  0  0  0  0  0  0  0  0  0  0
  1  2  1  1  0  0  0
  1  3  1  0  0  0  0
  1  4  2  0  0  0  0
  1 16  1  0  0  0  0
  5  6  1  6  0  0  0
  5  7  1  0  0  0  0
  5 14  1  0  0  0  0
  7  8  1  6  0  0  0
  7  9  1  0  0  0  0
  9 10  1  1  0  0  0
  9 11  1  0  0  0  0
 11 12  1  6  0  0  0
 11 13  1  0  0  0  0
 13 14  1  0  0  0  0
 13 15  1  1  0  0  0
 15 16  1  0  0  0  0
M  CHG  1   3  -1
M  END
>  <CHROM.1>
-169.93432730,92.48995010,62.19066720,10.67155795,-0.43086042,0.71495207
-2.04749957,-0.96839060,2.10844781

>  <Name>
ligand

>  <RI>
0

>  <Rbt.Current_Directory>
/home/itssahil/PROJECTS/Mol_Feturizer/New_Systems/rnas/2HO7

>  <Rbt.Executable>
rbdock ($Id: //depot/dev/client3/rdock/2013.1/src/exe/rbdock.cxx#4 $)

>  <Rbt.Library>
libRbt.so (2013.1, Build901 2013/11/27)

>  <Rbt.Parameter_File>
/export/apps/rDock/src/rDock_2013.1_src/data/scripts/dock_solv.prm

>  <Rbt.Receptor>
prm/blind_docking_40.prm

>  <SCORE>
-11.8607

>  <SCORE.INTER>
-14.6482

>  <SCORE.INTER.CONST>
1

>  <SCORE.INTER.POLAR>
-1.59099

>  <SCORE.INTER.ROT>
3

>  <SCORE.INTER.SOLV>
13.8763

>  <SCORE.INTER.VDW>
-14.6876

>  <SCORE.INTER.norm>
-0.91551

>  <SCORE.INTRA>
2.78745

>  <SCORE.INTRA.DIHEDRAL>
4.42436

>  <SCORE.INTRA.DIHEDRAL.0>
0.00893466

>  <SCORE.INTRA.POLAR>
0

>  <SCORE.INTRA.POLAR.0>
0

>  <SCORE.INTRA.REPUL>
0

>  <SCORE.INTRA.REPUL.0>
0

>  <SCORE.INTRA.SOLV>
2.0337

>  <SCORE.INTRA.SOLV.lig_0>
-48.9722

>  <SCORE.INTRA.VDW>
-0.44158

>  <SCORE.INTRA.VDW.0>
-0.529409

>  <SCORE.INTRA.norm>
0.174215

>  <SCORE.RESTR>
0

>  <SCORE.RESTR.CAVITY>
0

>  <SCORE.RESTR.norm>
0

>  <SCORE.SYSTEM>
0

>  <SCORE.SYSTEM.CONST>
0

>  <SCORE.SYSTEM.DIHEDRAL>
0

>  <SCORE.SYSTEM.SOLV>
0

>  <SCORE.SYSTEM.norm>
0

>  <SCORE.heavy>
16

>  <SCORE.norm>
-0.741295

>  <RMSD>
39.668

$$$$
ligand
 OpenBabel11021811433D
libRbt.so/2013.1/901 2013/11/27
 16 16  0  0  0  0  0  0  0  0999 V2000
   10.2726    2.4065   -2.7485 P   0  0  2  0  0  0  0  0  0  0  0  0
    9.4892    2.7811   -3.9519 O   0  0  0  0  0  0  0  0  0  0  0  0
   11.6733    3.1987   -2.7577 O   0  5  0  0  0  0  0  0  0  0  0  0
   10.5564    0.8217   -2.7862 O   0  0  0  0  0  0  0  0  0  0  0  0
   12.0422    0.1810    1.7721 C   0  0  2  0  0  0  0  0  0  0  0  0
   12.8007   -0.4952    0.7531 O   0  0  0  0  0  0  0  0  0  0  0  0
   10.7925   -0.6461    2.1687 C   0  0  2  0  0  0  0  0  0  0  0  0
   11.2006   -1.9772    2.6331 O   0  0  0  0  0  0  0  0  0  0  0  0
    9.8875   -0.7880    0.9305 C   0  0  1  0  0  0  0  0  0  0  0  0
    8.7185   -1.5440    1.2688 O   0  0  0  0  0  0  0  0  0  0  0  0
    9.4797    0.6200    0.4695 C   0  0  2  0  0  0  0  0  0  0  0  0
    8.6384    0.5152   -0.6993 O   0  0  0  0  0  0  0  0  0  0  0  0
   10.7679    1.4174    0.1252 C   0  0  2  0  0  0  0  0  0  0  0  0
   11.6284    1.5070    1.3020 O   0  0  0  0  0  0  0  0  0  0  0  0
   10.3698    2.8407   -0.3057 C   0  0  0  0  0  0  0  0  0  0  0  0
    9.4502    2.7971   -1.4036 O   0  0  0  0  0  0  0  0  0  0  0  0
  1  2  1  6  0  0  0
  1  3  1  0  0  0  0
  1  4  2  0  0  0  0
  1 16  1  0  0  0  0
  5  6  1  6  0  0  0
  5  7  1  0  0  0  0
  5 14  1  0  0  0  0
  7  8  1  6  0  0  0
  7  9  1  0  0  0  0
  9 10  1  1  0  0  0
  9 11  1  0  0  0  0
 11 12  1  6  0  0  0
 11 13  1  0  0  0  0
 13 14  1  0  0  0  0
 13 15  1  1  0  0  0
 15 16  1  0  0  0  0
M  CHG  1   3  -1
M  END
>  <CHROM.1>
-56.30865483,-74.77243959,-161.28675056,10.46748076,0.96918139,-0.42709829
1.68976454,-0.38815467,-0.87756077

>  <Name>
ligand

>  <RI>
0

>  <Rbt.Current_Directory>
/home/itssahil/PROJECTS/Mol_Feturizer/New_Systems/rnas/2HO7

>  <Rbt.Executable>
rbdock ($Id: //depot/dev/client3/rdock/2013.1/src/exe/rbdock.cxx#4 $)

>  <Rbt.Library>
libRbt.so (2013.1, Build901 2013/11/27)

>  <Rbt.Parameter_File>
/export/apps/rDock/src/rDock_2013.1_src/data/scripts/dock_solv.prm

>  <Rbt.Receptor>
prm/blind_docking_80.prm

>  <SCORE>
-16.4933

>  <SCORE.INTER>
-20.1522

>  <SCORE.INTER.CONST>
1

>  <SCORE.INTER.POLAR>
-1.27279

>  <SCORE.INTER.ROT>
3

>  <SCORE.INTER.SOLV>
16.9745

>  <SCORE.INTER.VDW>
-20.4503

>  <SCORE.INTER.norm>
-1.25951

>  <SCORE.INTRA>
3.65886

>  <SCORE.INTRA.DIHEDRAL>
1.59428

>  <SCORE.INTRA.DIHEDRAL.0>
0.00893466

>  <SCORE.INTRA.POLAR>
0

>  <SCORE.INTRA.POLAR.0>
0

>  <SCORE.INTRA.REPUL>
0

>  <SCORE.INTRA.REPUL.0>
0

>  <SCORE.INTRA.SOLV>
5.04749

>  <SCORE.INTRA.SOLV.lig_0>
-48.9722

>  <SCORE.INTRA.VDW>
0.337978

>  <SCORE.INTRA.VDW.0>
-0.529409

>  <SCORE.INTRA.norm>
0.228679

>  <SCORE.RESTR>
0

>  <SCORE.RESTR.CAVITY>
0

>  <SCORE.RESTR.norm>
0

>  <SCORE.SYSTEM>
0

>  <SCORE.SYSTEM.CONST>
0

>  <SCORE.SYSTEM.DIHEDRAL>
0

>  <SCORE.SYSTEM.SOLV>
0

>  <SCORE.SYSTEM.norm>
0

>  <SCORE.heavy>
16

>  <SCORE.norm>
-1.03083

>  <RMSD>
39.714

$$$$
ligand
 OpenBabel11021811433D
libRbt.so/2013.1/901 2013/11/27
 16 16  0  0  0  0  0  0  0  0999 V2000
   10.4776    2.7298   -2.8830 P   0  0  2  0  0  0  0  0  0  0  0  0
   11.6569    3.5928   -2.6244 O   0  0  0  0  0  0  0  0  0  0  0  0
   10.9459    1.1911   -2.9367 O   0  5  0  0  0  0  0  0  0  0  0  0
    9.8344    3.1409   -4.3011 O   0  0  0  0  0  0  0  0  0  0  0  0
   11.9759    0.3643    1.5178 C   0  0  2  0  0  0  0  0  0  0  0  0
   12.6341   -0.3316    0.4439 O   0  0  0  0  0  0  0  0  0  0  0  0
   10.7811   -0.4618    2.0591 C   0  0  2  0  0  0  0  0  0  0  0  0
   11.2474   -1.7777    2.5119 O   0  0  0  0  0  0  0  0  0  0  0  0
    9.7568   -0.6416    0.9229 C   0  0  1  0  0  0  0  0  0  0  0  0
    8.6357   -1.3975    1.3963 O   0  0  0  0  0  0  0  0  0  0  0  0
    9.2905    0.7514    0.4717 C   0  0  2  0  0  0  0  0  0  0  0  0
    8.3363    0.6109   -0.6029 O   0  0  0  0  0  0  0  0  0  0  0  0
   10.5292    1.5494   -0.0208 C   0  0  2  0  0  0  0  0  0  0  0  0
   11.5035    1.6750    1.0601 O   0  0  0  0  0  0  0  0  0  0  0  0
   10.0754    2.9584   -0.4435 C   0  0  0  0  0  0  0  0  0  0  0  0
    9.3829    2.9109   -1.6970 O   0  0  0  0  0  0  0  0  0  0  0  0
  1  2  1  1  0  0  0
  1  3  1  0  0  0  0
  1  4  2  0  0  0  0
  1 16  1  0  0  0  0
  5  6  1  6  0  0  0
  5  7  1  0  0  0  0
  5 14  1  0  0  0  0
  7  8  1  6  0  0  0
  7  9  1  0  0  0  0
  9 10  1  1  0  0  0
  9 11  1  0  0  0  0
 11 12  1  6  0  0  0
 11 13  1  0  0  0  0
 13 14  1  0  0  0  0
 13 15  1  1  0  0  0
 15 16  1  0  0  0  0
M  CHG  1   3  -1
M  END
>  <CHROM.1>
-74.38065237,-76.19155499,-41.74515464,10.44496153,1.18150603,-0.54728582
-1.61223249,0.22021247,2.24748925

>  <Name>
ligand

>  <RI>
0

>  <Rbt.Current_Directory>
/home/itssahil/PROJECTS/Mol_Feturizer/New_Systems/rnas/2HO7

>  <Rbt.Executable>
rbdock ($Id: //depot/dev/client3/rdock/2013.1/src/exe/rbdock.cxx#4 $)

>  <Rbt.Library>
libRbt.so (2013.1, Build901 2013/11/27)

>  <Rbt.Parameter_File>
/export/apps/rDock/src/rDock_2013.1_src/data/scripts/dock_solv.prm

>  <Rbt.Receptor>
prm/blind_docking_100.prm

>  <SCORE>
-18.6783

>  <SCORE.INTER>
-21.5218

>  <SCORE.INTER.CONST>
1

>  <SCORE.INTER.POLAR>
-1.27167

>  <SCORE.INTER.ROT>
3

>  <SCORE.INTER.SOLV>
17.8709

>  <SCORE.INTER.VDW>
-21.6659

>  <SCORE.INTER.norm>
-1.34511

>  <SCORE.INTRA>
2.84355

>  <SCORE.INTRA.DIHEDRAL>
2.43026

>  <SCORE.INTRA.DIHEDRAL.0>
0.00893466

>  <SCORE.INTRA.POLAR>
0

>  <SCORE.INTRA.POLAR.0>
0

>  <SCORE.INTRA.REPUL>
0

>  <SCORE.INTRA.REPUL.0>
0

>  <SCORE.INTRA.SOLV>
3.12404

>  <SCORE.INTRA.SOLV.lig_0>
-48.9722

>  <SCORE.INTRA.VDW>
0.0664014

>  <SCORE.INTRA.VDW.0>
-0.529409

>  <SCORE.INTRA.norm>
0.177722

>  <SCORE.RESTR>
0

>  <SCORE.RESTR.CAVITY>
0

>  <SCORE.RESTR.norm>
0

>  <SCORE.SYSTEM>
0

>  <SCORE.SYSTEM.CONST>
0

>  <SCORE.SYSTEM.DIHEDRAL>
0

>  <SCORE.SYSTEM.SOLV>
0

>  <SCORE.SYSTEM.norm>
0

>  <SCORE.heavy>
16

>  <SCORE.norm>
-1.16739

>  <RMSD>
39.721

$$$$
ligand
 OpenBabel11021811433D
libRbt.so/2013.1/901 2013/11/27
 16 16  0  0  0  0  0  0  0  0999 V2000
    9.5511    0.4315    0.9095 P   0  0  2  0  0  0  0  0  0  0  0  0
    8.4076    1.1239    1.5537 O   0  0  0  0  0  0  0  0  0  0  0  0
   10.4721    1.5142    0.1551 O   0  5  0  0  0  0  0  0  0  0  0  0
    8.9807   -0.6239   -0.1649 O   0  0  0  0  0  0  0  0  0  0  0  0
   10.3618   -4.0490    5.1644 C   0  0  2  0  0  0  0  0  0  0  0  0
   11.0529   -3.2713    6.1585 O   0  0  0  0  0  0  0  0  0  0  0  0
   11.3590   -4.9091    4.3466 C   0  0  2  0  0  0  0  0  0  0  0  0
   12.1174   -5.7863    5.2463 O   0  0  0  0  0  0  0  0  0  0  0  0
   12.3282   -3.9655    3.6099 C   0  0  1  0  0  0  0  0  0  0  0  0
   13.2598   -4.7336    2.8387 O   0  0  0  0  0  0  0  0  0  0  0  0
   11.5045   -3.0619    2.6792 C   0  0  2  0  0  0  0  0  0  0  0  0
   12.3902   -2.1581    1.9839 O   0  0  0  0  0  0  0  0  0  0  0  0
   10.4957   -2.2552    3.5429 C   0  0  2  0  0  0  0  0  0  0  0  0
    9.6121   -3.1694    4.2617 O   0  0  0  0  0  0  0  0  0  0  0  0
    9.6433   -1.3716    2.6141 C   0  0  0  0  0  0  0  0  0  0  0  0
   10.4421   -0.3352    2.0302 O   0  0  0  0  0  0  0  0  0  0  0  0
  1  2  1  1  0  0  0
  1  3  1  0  0  0  0
  1  4  2  0  0  0  0
  1 16  1  0  0  0  0
  5  6  1  1  0  0  0
  5  7  1  0  0  0  0
  5 14  1  0  0  0  0
  7  8  1  1  0  0  0
  7  9  1  0  0  0  0
  9 10  1  6  0  0  0
  9 11  1  0  0  0  0
 11 12  1  1  0  0  0
 11 13  1  0  0  0  0
 13 14  1  0  0  0  0
 13 15  1  6  0  0  0
 15 16  1  0  0  0  0
M  CHG  1   3  -1
M  END
>  <CHROM.1>
-68.38001716,172.18071635,64.90178796,10.65962582,-2.05585549,2.76145992
1.98888920,0.62806858,-0.89811193

>  <Name>
ligand

>  <RI>
0

>  <Rbt.Current_Directory>
/home/itssahil/PROJECTS/Mol_Feturizer/New_Systems/rnas/2HO7

>  <Rbt.Executable>
rbdock ($Id: //depot/dev/client3/rdock/2013.1/src/exe/rbdock.cxx#4 $)

>  <Rbt.Library>
libRbt.so (2013.1, Build901 2013/11/27)

>  <Rbt.Parameter_File>
/export/apps/rDock/src/rDock_2013.1_src/data/scripts/dock_solv.prm

>  <Rbt.Receptor>
prm/blind_docking_60.prm

>  <SCORE>
-13.004

>  <SCORE.INTER>
-13.6429

>  <SCORE.INTER.CONST>
1

>  <SCORE.INTER.POLAR>
-1.59099

>  <SCORE.INTER.ROT>
3

>  <SCORE.INTER.SOLV>
13.7839

>  <SCORE.INTER.VDW>
-13.9866

>  <SCORE.INTER.norm>
-0.852683

>  <SCORE.INTRA>
0.638938

>  <SCORE.INTRA.DIHEDRAL>
0.578341

>  <SCORE.INTRA.DIHEDRAL.0>
0.00893466

>  <SCORE.INTRA.POLAR>
0

>  <SCORE.INTRA.POLAR.0>
0

>  <SCORE.INTRA.REPUL>
0

>  <SCORE.INTRA.REPUL.0>
0

>  <SCORE.INTRA.SOLV>
0.743425

>  <SCORE.INTRA.SOLV.lig_0>
-48.9722

>  <SCORE.INTRA.VDW>
-0.0219444

>  <SCORE.INTRA.VDW.0>
-0.529409

>  <SCORE.INTRA.norm>
0.0399336

>  <SCORE.RESTR>
0

>  <SCORE.RESTR.CAVITY>
0

>  <SCORE.RESTR.norm>
0

>  <SCORE.SYSTEM>
0

>  <SCORE.SYSTEM.CONST>
0

>  <SCORE.SYSTEM.DIHEDRAL>
0

>  <SCORE.SYSTEM.SOLV>
0

>  <SCORE.SYSTEM.norm>
0

>  <SCORE.heavy>
16

>  <SCORE.norm>
-0.812749

>  <RMSD>
39.754

$$$$
ligand
 OpenBabel11021811433D
libRbt.so/2013.1/901 2013/11/27
 16 16  0  0  0  0  0  0  0  0999 V2000
   10.2615    2.5904   -2.8173 P   0  0  2  0  0  0  0  0  0  0  0  0
    9.6131    3.0100   -4.0844 O   0  0  0  0  0  0  0  0  0  0  0  0
   11.6082    3.4443   -2.6005 O   0  5  0  0  0  0  0  0  0  0  0  0
   10.6326    1.0264   -2.9170 O   0  0  0  0  0  0  0  0  0  0  0  0
   12.0742    0.3037    1.4619 C   0  0  2  0  0  0  0  0  0  0  0  0
   12.6973   -0.3588    0.3468 O   0  0  0  0  0  0  0  0  0  0  0  0
   10.9208   -0.5563    2.0393 C   0  0  2  0  0  0  0  0  0  0  0  0
   11.4322   -1.8707    2.4455 O   0  0  0  0  0  0  0  0  0  0  0  0
    9.8508   -0.7357    0.9460 C   0  0  1  0  0  0  0  0  0  0  0  0
    8.7667   -1.5227    1.4537 O   0  0  0  0  0  0  0  0  0  0  0  0
    9.3379    0.6556    0.5429 C   0  0  2  0  0  0  0  0  0  0  0  0
    8.3398    0.5158   -0.4911 O   0  0  0  0  0  0  0  0  0  0  0  0
   10.5379    1.4875    0.0118 C   0  0  2  0  0  0  0  0  0  0  0  0
   11.5566    1.6127    1.0509 O   0  0  0  0  0  0  0  0  0  0  0  0
   10.0385    2.8947   -0.3631 C   0  0  0  0  0  0  0  0  0  0  0  0
    9.2602    2.8504   -1.5653 O   0  0  0  0  0  0  0  0  0  0  0  0
  1  2  1  6  0  0  0
  1  3  1  0  0  0  0
  1  4  2  0  0  0  0
  1 16  1  0  0  0  0
  5  6  1  6  0  0  0
  5  7  1  0  0  0  0
  5 14  1  0  0  0  0
  7  8  1  6  0  0  0
  7  9  1  0  0  0  0
  9 10  1  1  0  0  0
  9 11  1  0  0  0  0
 11 12  1  6  0  0  0
 11 13  1  0  0  0  0
 13 14  1  0  0  0  0
 13 15  1  1  0  0  0
 15 16  1  0  0  0  0
M  CHG  1   3  -1
M  END
>  <CHROM.1>
-72.74648979,-72.27510803,-159.84319852,10.41945973,1.08302516,-0.50775767
-1.67225152,0.22409653,2.26907725

>  <Name>
ligand

>  <RI>
0

>  <Rbt.Current_Directory>
/home/itssahil/PROJECTS/Mol_Feturizer/New_Systems/rnas/2HO7

>  <Rbt.Executable>
rbdock ($Id: //depot/dev/client3/rdock/2013.1/src/exe/rbdock.cxx#4 $)

>  <Rbt.Library>
libRbt.so (2013.1, Build901 2013/11/27)

>  <Rbt.Parameter_File>
/export/apps/rDock/src/rDock_2013.1_src/data/scripts/dock_solv.prm

>  <Rbt.Receptor>
prm/blind_docking_60.prm

>  <SCORE>
-17.8114

>  <SCORE.INTER>
-21.122

>  <SCORE.INTER.CONST>
1

>  <SCORE.INTER.POLAR>
-1.27279

>  <SCORE.INTER.ROT>
3

>  <SCORE.INTER.SOLV>
18.2021

>  <SCORE.INTER.VDW>
-21.5061

>  <SCORE.INTER.norm>
-1.32013

>  <SCORE.INTRA>
3.31057

>  <SCORE.INTRA.DIHEDRAL>
1.88396

>  <SCORE.INTRA.DIHEDRAL.0>
0.00893466

>  <SCORE.INTRA.POLAR>
0

>  <SCORE.INTRA.POLAR.0>
0

>  <SCORE.INTRA.REPUL>
0

>  <SCORE.INTRA.REPUL.0>
0

>  <SCORE.INTRA.SOLV>
4.74548

>  <SCORE.INTRA.SOLV.lig_0>
-48.9722

>  <SCORE.INTRA.VDW>
-0.00414439

>  <SCORE.INTRA.VDW.0>
-0.529409

>  <SCORE.INTRA.norm>
0.206911

>  <SCORE.RESTR>
0

>  <SCORE.RESTR.CAVITY>
0

>  <SCORE.RESTR.norm>
0

>  <SCORE.SYSTEM>
0

>  <SCORE.SYSTEM.CONST>
0

>  <SCORE.SYSTEM.DIHEDRAL>
0

>  <SCORE.SYSTEM.SOLV>
0

>  <SCORE.SYSTEM.norm>
0

>  <SCORE.heavy>
16

>  <SCORE.norm>
-1.11321

>  <RMSD>
39.761

$$$$
ligand
 OpenBabel11021811433D
libRbt.so/2013.1/901 2013/11/27
 16 16  0  0  0  0  0  0  0  0999 V2000
   10.3340   -0.8642    2.6690 P   0  0  2  0  0  0  0  0  0  0  0  0
    9.2762   -0.7927    1.6307 O   0  0  0  0  0  0  0  0  0  0  0  0
   11.0479   -2.3049    2.6029 O   0  5  0  0  0  0  0  0  0  0  0  0
    9.6546   -0.6721    4.1165 O   0  0  0  0  0  0  0  0  0  0  0  0
    9.7417    1.7076   -1.1098 C   0  0  2  0  0  0  0  0  0  0  0  0
    8.6706    0.7467   -1.1201 O   0  0  0  0  0  0  0  0  0  0  0  0
   10.5621    1.6323   -2.4230 C   0  0  2  0  0  0  0  0  0  0  0  0
    9.6824    1.8588   -3.5758 O   0  0  0  0  0  0  0  0  0  0  0  0
   11.1935    0.2311   -2.5248 C   0  0  1  0  0  0  0  0  0  0  0  0
   11.9649    0.1335   -3.7281 O   0  0  0  0  0  0  0  0  0  0  0  0
   12.1055    0.0253   -1.3053 C   0  0  2  0  0  0  0  0  0  0  0  0
   12.7020   -1.2880   -1.3710 O   0  0  0  0  0  0  0  0  0  0  0  0
   11.2432    0.1519   -0.0191 C   0  0  2  0  0  0  0  0  0  0  0  0
   10.6238    1.4733    0.0380 O   0  0  0  0  0  0  0  0  0  0  0  0
   12.1560   -0.0198    1.2087 C   0  0  0  0  0  0  0  0  0  0  0  0
   11.4457    0.2919    2.4134 O   0  0  0  0  0  0  0  0  0  0  0  0
  1  2  1  6  0  0  0
  1  3  1  0  0  0  0
  1  4  2  0  0  0  0
  1 16  1  0  0  0  0
  5  6  1  6  0  0  0
  5  7  1  0  0  0  0
  5 14  1  0  0  0  0
  7  8  1  6  0  0  0
  7  9  1  0  0  0  0
  9 10  1  6  0  0  0
  9 11  1  0  0  0  0
 11 12  1  6  0  0  0
 11 13  1  0  0  0  0
 13 14  1  0  0  0  0
 13 15  1  1  0  0  0
 15 16  1  0  0  0  0
M  CHG  1   3  -1
M  END
>  <CHROM.1>
171.13435396,69.38596584,-68.03146495,10.72714644,0.05077172,0.07723644,1.64921700
-0.56115890,1.92343833

>  <Name>
ligand

>  <RI>
0

>  <Rbt.Current_Directory>
/home/itssahil/PROJECTS/Mol_Feturizer/New_Systems/rnas/2HO7

>  <Rbt.Executable>
rbdock ($Id: //depot/dev/client3/rdock/2013.1/src/exe/rbdock.cxx#4 $)

>  <Rbt.Library>
libRbt.so (2013.1, Build901 2013/11/27)

>  <Rbt.Parameter_File>
/export/apps/rDock/src/rDock_2013.1_src/data/scripts/dock_solv.prm

>  <Rbt.Receptor>
prm/blind_docking_60.prm

>  <SCORE>
-12.3548

>  <SCORE.INTER>
-13.8302

>  <SCORE.INTER.CONST>
1

>  <SCORE.INTER.POLAR>
-1.27234

>  <SCORE.INTER.ROT>
3

>  <SCORE.INTER.SOLV>
14.7488

>  <SCORE.INTER.VDW>
-15.4953

>  <SCORE.INTER.norm>
-0.864388

>  <SCORE.INTRA>
1.47536

>  <SCORE.INTRA.DIHEDRAL>
0.802598

>  <SCORE.INTRA.DIHEDRAL.0>
0.00893466

>  <SCORE.INTRA.POLAR>
0

>  <SCORE.INTRA.POLAR.0>
0

>  <SCORE.INTRA.REPUL>
0

>  <SCORE.INTRA.REPUL.0>
0

>  <SCORE.INTRA.SOLV>
1.54756

>  <SCORE.INTRA.SOLV.lig_0>
-48.9722

>  <SCORE.INTRA.VDW>
0.300281

>  <SCORE.INTRA.VDW.0>
-0.529409

>  <SCORE.INTRA.norm>
0.0922101

>  <SCORE.RESTR>
0

>  <SCORE.RESTR.CAVITY>
0

>  <SCORE.RESTR.norm>
0

>  <SCORE.SYSTEM>
0

>  <SCORE.SYSTEM.CONST>
0

>  <SCORE.SYSTEM.DIHEDRAL>
0

>  <SCORE.SYSTEM.SOLV>
0

>  <SCORE.SYSTEM.norm>
0

>  <SCORE.heavy>
16

>  <SCORE.norm>
-0.772178

>  <RMSD>
39.788

$$$$
ligand
 OpenBabel11021811433D
libRbt.so/2013.1/901 2013/11/27
 16 16  0  0  0  0  0  0  0  0999 V2000
    9.4054    0.4824    0.4490 P   0  0  2  0  0  0  0  0  0  0  0  0
    8.4216    0.9905    1.4370 O   0  0  0  0  0  0  0  0  0  0  0  0
   10.7553    1.3530    0.5465 O   0  5  0  0  0  0  0  0  0  0  0  0
    8.7815    0.6303   -1.0282 O   0  0  0  0  0  0  0  0  0  0  0  0
   12.6503   -3.9527    2.1988 C   0  0  2  0  0  0  0  0  0  0  0  0
   11.9192   -4.9923    1.5238 O   0  0  0  0  0  0  0  0  0  0  0  0
   12.7002   -4.2165    3.7256 C   0  0  2  0  0  0  0  0  0  0  0  0
   13.3117   -5.5248    3.9872 O   0  0  0  0  0  0  0  0  0  0  0  0
   11.2597   -4.2033    4.2709 C   0  0  1  0  0  0  0  0  0  0  0  0
   11.2746   -4.4384    5.6841 O   0  0  0  0  0  0  0  0  0  0  0  0
   10.6488   -2.8235    3.9806 C   0  0  2  0  0  0  0  0  0  0  0  0
    9.2918   -2.7887    4.4727 O   0  0  0  0  0  0  0  0  0  0  0  0
   10.6612   -2.5933    2.4441 C   0  0  2  0  0  0  0  0  0  0  0  0
   12.0319   -2.6479    1.9427 O   0  0  0  0  0  0  0  0  0  0  0  0
   10.0812   -1.1986    2.1469 C   0  0  0  0  0  0  0  0  0  0  0  0
    9.7533   -1.0737    0.7577 O   0  0  0  0  0  0  0  0  0  0  0  0
  1  2  1  1  0  0  0
  1  3  1  0  0  0  0
  1  4  2  0  0  0  0
  1 16  1  0  0  0  0
  5  6  1  6  0  0  0
  5  7  1  0  0  0  0
  5 14  1  0  0  0  0
  7  8  1  6  0  0  0
  7  9  1  0  0  0  0
  9 10  1  1  0  0  0
  9 11  1  0  0  0  0
 11 12  1  6  0  0  0
 11 13  1  0  0  0  0
 13 14  1  0  0  0  0
 13 15  1  1  0  0  0
 15 16  1  0  0  0  0
M  CHG  1   3  -1
M  END
>  <CHROM.1>
-165.15656442,-169.85912725,-49.98360241,10.68669724,-2.08325172,2.24157672
-2.15437035,-0.76541535,2.10871240

>  <Name>
ligand

>  <RI>
0

>  <Rbt.Current_Directory>
/home/itssahil/PROJECTS/Mol_Feturizer/New_Systems/rnas/2HO7

>  <Rbt.Executable>
rbdock ($Id: //depot/dev/client3/rdock/2013.1/src/exe/rbdock.cxx#4 $)

>  <Rbt.Library>
libRbt.so (2013.1, Build901 2013/11/27)

>  <Rbt.Parameter_File>
/export/apps/rDock/src/rDock_2013.1_src/data/scripts/dock_solv.prm

>  <Rbt.Receptor>
prm/blind_docking_100.prm

>  <SCORE>
-11.7866

>  <SCORE.INTER>
-12.5705

>  <SCORE.INTER.CONST>
1

>  <SCORE.INTER.POLAR>
-1.58941

>  <SCORE.INTER.ROT>
3

>  <SCORE.INTER.SOLV>
15.8897

>  <SCORE.INTER.VDW>
-13.9789

>  <SCORE.INTER.norm>
-0.785656

>  <SCORE.INTRA>
0.783914

>  <SCORE.INTRA.DIHEDRAL>
1.40416

>  <SCORE.INTRA.DIHEDRAL.0>
0.00893466

>  <SCORE.INTRA.POLAR>
0

>  <SCORE.INTRA.POLAR.0>
0

>  <SCORE.INTRA.REPUL>
0

>  <SCORE.INTRA.REPUL.0>
0

>  <SCORE.INTRA.SOLV>
-0.0314178

>  <SCORE.INTRA.SOLV.lig_0>
-48.9722

>  <SCORE.INTRA.VDW>
0.097545

>  <SCORE.INTRA.VDW.0>
-0.529409

>  <SCORE.INTRA.norm>
0.0489946

>  <SCORE.RESTR>
0

>  <SCORE.RESTR.CAVITY>
0

>  <SCORE.RESTR.norm>
0

>  <SCORE.SYSTEM>
0

>  <SCORE.SYSTEM.CONST>
0

>  <SCORE.SYSTEM.DIHEDRAL>
0

>  <SCORE.SYSTEM.SOLV>
0

>  <SCORE.SYSTEM.norm>
0

>  <SCORE.heavy>
16

>  <SCORE.norm>
-0.736662

>  <RMSD>
39.860

$$$$
ligand
 OpenBabel11021811433D
libRbt.so/2013.1/901 2013/11/27
 16 16  0  0  0  0  0  0  0  0999 V2000
   10.1785    1.6239   -1.1593 P   0  0  2  0  0  0  0  0  0  0  0  0
    9.7931    3.0567   -1.1307 O   0  0  0  0  0  0  0  0  0  0  0  0
   11.2329    1.3803   -2.3504 O   0  5  0  0  0  0  0  0  0  0  0  0
    8.8607    0.7369   -1.4245 O   0  0  0  0  0  0  0  0  0  0  0  0
   13.5399   -2.1718   -0.4956 C   0  0  2  0  0  0  0  0  0  0  0  0
   13.7504   -1.6517   -1.8207 O   0  0  0  0  0  0  0  0  0  0  0  0
   12.8921   -3.5790   -0.5525 C   0  0  2  0  0  0  0  0  0  0  0  0
   13.7409   -4.4890   -1.3306 O   0  0  0  0  0  0  0  0  0  0  0  0
   11.5141   -3.4553   -1.2294 C   0  0  1  0  0  0  0  0  0  0  0  0
   10.8871   -4.7420   -1.2905 O   0  0  0  0  0  0  0  0  0  0  0  0
   10.6521   -2.4971   -0.3927 C   0  0  2  0  0  0  0  0  0  0  0  0
    9.3562   -2.3547   -1.0134 O   0  0  0  0  0  0  0  0  0  0  0  0
   11.3655   -1.1181   -0.3334 C   0  0  2  0  0  0  0  0  0  0  0  0
   12.6845   -1.2648    0.2765 O   0  0  0  0  0  0  0  0  0  0  0  0
   10.5245   -0.1615    0.5312 C   0  0  0  0  0  0  0  0  0  0  0  0
   10.8638    1.2022    0.2514 O   0  0  0  0  0  0  0  0  0  0  0  0
  1  2  1  1  0  0  0
  1  3  1  0  0  0  0
  1  4  2  0  0  0  0
  1 16  1  0  0  0  0
  5  6  1  6  0  0  0
  5  7  1  0  0  0  0
  5 14  1  0  0  0  0
  7  8  1  6  0  0  0
  7  9  1  0  0  0  0
  9 10  1  1  0  0  0
  9 11  1  0  0  0  0
 11 12  1  6  0  0  0
 11 13  1  0  0  0  0
 13 14  1  0  0  0  0
 13 15  1  1  0  0  0
 15 16  1  0  0  0  0
M  CHG  1   3  -1
M  END
>  <CHROM.1>
-159.98449422,76.47168337,146.73250186,11.26455440,-0.97956846,-0.88505350
-2.00178282,0.00826646,3.13487314

>  <Name>
ligand

>  <RI>
0

>  <Rbt.Current_Directory>
/home/itssahil/PROJECTS/Mol_Feturizer/New_Systems/rnas/2HO7

>  <Rbt.Executable>
rbdock ($Id: //depot/dev/client3/rdock/2013.1/src/exe/rbdock.cxx#4 $)

>  <Rbt.Library>
libRbt.so (2013.1, Build901 2013/11/27)

>  <Rbt.Parameter_File>
/export/apps/rDock/src/rDock_2013.1_src/data/scripts/dock_solv.prm

>  <Rbt.Receptor>
prm/blind_docking_60.prm

>  <SCORE>
-12.0647

>  <SCORE.INTER>
-16.2374

>  <SCORE.INTER.CONST>
1

>  <SCORE.INTER.POLAR>
-2.85955

>  <SCORE.INTER.ROT>
3

>  <SCORE.INTER.SOLV>
11.0249

>  <SCORE.INTER.VDW>
-10.5681

>  <SCORE.INTER.norm>
-1.01484

>  <SCORE.INTRA>
4.17273

>  <SCORE.INTRA.DIHEDRAL>
3.97561

>  <SCORE.INTRA.DIHEDRAL.0>
0.00893466

>  <SCORE.INTRA.POLAR>
0

>  <SCORE.INTRA.POLAR.0>
0

>  <SCORE.INTRA.REPUL>
0

>  <SCORE.INTRA.REPUL.0>
0

>  <SCORE.INTRA.SOLV>
4.34896

>  <SCORE.INTRA.SOLV.lig_0>
-48.9722

>  <SCORE.INTRA.VDW>
0.0104452

>  <SCORE.INTRA.VDW.0>
-0.529409

>  <SCORE.INTRA.norm>
0.260795

>  <SCORE.RESTR>
0

>  <SCORE.RESTR.CAVITY>
0

>  <SCORE.RESTR.norm>
0

>  <SCORE.SYSTEM>
0

>  <SCORE.SYSTEM.CONST>
0

>  <SCORE.SYSTEM.DIHEDRAL>
0

>  <SCORE.SYSTEM.SOLV>
0

>  <SCORE.SYSTEM.norm>
0

>  <SCORE.heavy>
16

>  <SCORE.norm>
-0.754044

>  <RMSD>
39.898

$$$$
ligand
 OpenBabel11021811433D
libRbt.so/2013.1/901 2013/11/27
 16 16  0  0  0  0  0  0  0  0999 V2000
    9.6967    1.9784   -1.5261 P   0  0  2  0  0  0  0  0  0  0  0  0
    9.5513    3.0617   -0.5223 O   0  0  0  0  0  0  0  0  0  0  0  0
   11.2164    1.4491   -1.5213 O   0  5  0  0  0  0  0  0  0  0  0  0
    9.3426    2.5687   -2.9820 O   0  0  0  0  0  0  0  0  0  0  0  0
   11.9100   -0.7516    2.1108 C   0  0  2  0  0  0  0  0  0  0  0  0
   12.9495   -0.2598    1.2458 O   0  0  0  0  0  0  0  0  0  0  0  0
   11.7315   -2.2823    1.9426 C   0  0  2  0  0  0  0  0  0  0  0  0
   12.9986   -2.9673    2.2244 O   0  0  0  0  0  0  0  0  0  0  0  0
   11.3039   -2.5676    0.4907 C   0  0  1  0  0  0  0  0  0  0  0  0
   11.1246   -3.9769    0.3065 O   0  0  0  0  0  0  0  0  0  0  0  0
    9.9779   -1.8368    0.2280 C   0  0  2  0  0  0  0  0  0  0  0  0
    9.5603   -2.0792   -1.1328 O   0  0  0  0  0  0  0  0  0  0  0  0
   10.2020   -0.3155    0.4503 C   0  0  2  0  0  0  0  0  0  0  0  0
   10.6434   -0.0716    1.8211 O   0  0  0  0  0  0  0  0  0  0  0  0
    8.8694    0.4207    0.2216 C   0  0  0  0  0  0  0  0  0  0  0  0
    8.7035    0.7454   -1.1641 O   0  0  0  0  0  0  0  0  0  0  0  0
  1  2  1  1  0  0  0
  1  3  1  0  0  0  0
  1  4  2  0  0  0  0
  1 16  1  0  0  0  0
  5  6  1  6  0  0  0
  5  7  1  0  0  0  0
  5 14  1  0  0  0  0
  7  8  1  6  0  0  0
  7  9  1  0  0  0  0
  9 10  1  1  0  0  0
  9 11  1  0  0  0  0
 11 12  1  6  0  0  0
 11 13  1  0  0  0  0
 13 14  1  0  0  0  0
 13 15  1  1  0  0  0
 15 16  1  0  0  0  0
M  CHG  1   3  -1
M  END
>  <CHROM.1>
-86.97913221,-73.99112432,-48.84970900,10.54670712,-0.22922916,-0.01481646
-2.17987997,0.82102180,3.03239607

>  <Name>
ligand

>  <RI>
0

>  <Rbt.Current_Directory>
/home/itssahil/PROJECTS/Mol_Feturizer/New_Systems/rnas/2HO7

>  <Rbt.Executable>
rbdock ($Id: //depot/dev/client3/rdock/2013.1/src/exe/rbdock.cxx#4 $)

>  <Rbt.Library>
libRbt.so (2013.1, Build901 2013/11/27)

>  <Rbt.Parameter_File>
/export/apps/rDock/src/rDock_2013.1_src/data/scripts/dock_solv.prm

>  <Rbt.Receptor>
prm/blind_docking_60.prm

>  <SCORE>
-15.5168

>  <SCORE.INTER>
-18.8499

>  <SCORE.INTER.CONST>
1

>  <SCORE.INTER.POLAR>
-2.54558

>  <SCORE.INTER.ROT>
3

>  <SCORE.INTER.SOLV>
16.471

>  <SCORE.INTER.VDW>
-15.1716

>  <SCORE.INTER.norm>
-1.17812

>  <SCORE.INTRA>
3.33308

>  <SCORE.INTRA.DIHEDRAL>
3.33816

>  <SCORE.INTRA.DIHEDRAL.0>
0.00893466

>  <SCORE.INTRA.POLAR>
0

>  <SCORE.INTRA.POLAR.0>
0

>  <SCORE.INTRA.REPUL>
0

>  <SCORE.INTRA.REPUL.0>
0

>  <SCORE.INTRA.SOLV>
3.31723

>  <SCORE.INTRA.SOLV.lig_0>
-48.9722

>  <SCORE.INTRA.VDW>
0.00538242

>  <SCORE.INTRA.VDW.0>
-0.529409

>  <SCORE.INTRA.norm>
0.208317

>  <SCORE.RESTR>
0

>  <SCORE.RESTR.CAVITY>
0

>  <SCORE.RESTR.norm>
0

>  <SCORE.SYSTEM>
0

>  <SCORE.SYSTEM.CONST>
0

>  <SCORE.SYSTEM.DIHEDRAL>
0

>  <SCORE.SYSTEM.SOLV>
0

>  <SCORE.SYSTEM.norm>
0

>  <SCORE.heavy>
16

>  <SCORE.norm>
-0.9698

>  <RMSD>
39.954

$$$$
ligand
 OpenBabel11021811433D
libRbt.so/2013.1/901 2013/11/27
 16 16  0  0  0  0  0  0  0  0999 V2000
    9.7417    1.9048   -1.5415 P   0  0  2  0  0  0  0  0  0  0  0  0
   11.1470    1.4317   -1.4811 O   0  0  0  0  0  0  0  0  0  0  0  0
    9.4019    2.3723   -3.0434 O   0  5  0  0  0  0  0  0  0  0  0  0
    9.5718    3.1564   -0.5425 O   0  0  0  0  0  0  0  0  0  0  0  0
   11.9541   -0.8365    2.1306 C   0  0  2  0  0  0  0  0  0  0  0  0
   12.9977   -0.3689    1.2571 O   0  0  0  0  0  0  0  0  0  0  0  0
   11.7348   -2.3616    1.9598 C   0  0  2  0  0  0  0  0  0  0  0  0
   12.9864   -3.0797    2.2278 O   0  0  0  0  0  0  0  0  0  0  0  0
   11.2864   -2.6315    0.5112 C   0  0  1  0  0  0  0  0  0  0  0  0
   11.0692   -4.0352    0.3249 O   0  0  0  0  0  0  0  0  0  0  0  0
    9.9772   -1.8661    0.2631 C   0  0  2  0  0  0  0  0  0  0  0  0
    9.5407   -2.0937   -1.0943 O   0  0  0  0  0  0  0  0  0  0  0  0
   10.2424   -0.3518    0.4875 C   0  0  2  0  0  0  0  0  0  0  0  0
   10.7028   -0.1233    1.8547 O   0  0  0  0  0  0  0  0  0  0  0  0
    8.9270    0.4190    0.2734 C   0  0  0  0  0  0  0  0  0  0  0  0
    8.7310    0.7067   -1.1165 O   0  0  0  0  0  0  0  0  0  0  0  0
  1  2  1  1  0  0  0
  1  3  1  0  0  0  0
  1  4  2  0  0  0  0
  1 16  1  0  0  0  0
  5  6  1  6  0  0  0
  5  7  1  0  0  0  0
  5 14  1  0  0  0  0
  7  8  1  6  0  0  0
  7  9  1  0  0  0  0
  9 10  1  1  0  0  0
  9 11  1  0  0  0  0
 11 12  1  6  0  0  0
 11 13  1  0  0  0  0
 13 14  1  0  0  0  0
 13 15  1  1  0  0  0
 15 16  1  0  0  0  0
M  CHG  1   3  -1
M  END
>  <CHROM.1>
-84.73666101,-74.47568803,67.42928248,10.56260729,-0.28505194,-0.00015764
-2.17680005,0.83273484,3.03217606

>  <Name>
ligand

>  <RI>
0

>  <Rbt.Current_Directory>
/home/itssahil/PROJECTS/Mol_Feturizer/New_Systems/rnas/2HO7

>  <Rbt.Executable>
rbdock ($Id: //depot/dev/client3/rdock/2013.1/src/exe/rbdock.cxx#4 $)

>  <Rbt.Library>
libRbt.so (2013.1, Build901 2013/11/27)

>  <Rbt.Parameter_File>
/export/apps/rDock/src/rDock_2013.1_src/data/scripts/dock_solv.prm

>  <Rbt.Receptor>
prm/blind_docking_60.prm

>  <SCORE>
-14.4164

>  <SCORE.INTER>
-16.65

>  <SCORE.INTER.CONST>
1

>  <SCORE.INTER.POLAR>
-2.54558

>  <SCORE.INTER.ROT>
3

>  <SCORE.INTER.SOLV>
19.9083

>  <SCORE.INTER.VDW>
-14.8508

>  <SCORE.INTER.norm>
-1.04062

>  <SCORE.INTRA>
2.23361

>  <SCORE.INTRA.DIHEDRAL>
2.98872

>  <SCORE.INTRA.DIHEDRAL.0>
0.00893466

>  <SCORE.INTRA.POLAR>
0

>  <SCORE.INTRA.POLAR.0>
0

>  <SCORE.INTRA.REPUL>
0

>  <SCORE.INTRA.REPUL.0>
0

>  <SCORE.INTRA.SOLV>
1.61293

>  <SCORE.INTRA.SOLV.lig_0>
-48.9722

>  <SCORE.INTRA.VDW>
-0.0672171

>  <SCORE.INTRA.VDW.0>
-0.529409

>  <SCORE.INTRA.norm>
0.1396

>  <SCORE.RESTR>
0

>  <SCORE.RESTR.CAVITY>
0

>  <SCORE.RESTR.norm>
0

>  <SCORE.SYSTEM>
0

>  <SCORE.SYSTEM.CONST>
0

>  <SCORE.SYSTEM.DIHEDRAL>
0

>  <SCORE.SYSTEM.SOLV>
0

>  <SCORE.SYSTEM.norm>
0

>  <SCORE.heavy>
16

>  <SCORE.norm>
-0.901024

>  <RMSD>
39.963

$$$$
ligand
 OpenBabel11021811433D
libRbt.so/2013.1/901 2013/11/27
 16 16  0  0  0  0  0  0  0  0999 V2000
    9.9656    1.8672   -2.3510 P   0  0  2  0  0  0  0  0  0  0  0  0
    8.8737    2.8594   -2.5104 O   0  0  0  0  0  0  0  0  0  0  0  0
   10.8706    1.8537   -3.6817 O   0  5  0  0  0  0  0  0  0  0  0  0
    9.3154    0.4099   -2.1341 O   0  0  0  0  0  0  0  0  0  0  0  0
   12.0559   -0.7751    2.0348 C   0  0  2  0  0  0  0  0  0  0  0  0
   12.6068   -1.5336    0.9430 O   0  0  0  0  0  0  0  0  0  0  0  0
   10.8465   -1.5133    2.6635 C   0  0  2  0  0  0  0  0  0  0  0  0
   11.2572   -2.8457    3.1219 O   0  0  0  0  0  0  0  0  0  0  0  0
    9.7488   -1.6532    1.5921 C   0  0  1  0  0  0  0  0  0  0  0  0
    8.6131   -2.3275    2.1472 O   0  0  0  0  0  0  0  0  0  0  0  0
    9.3428   -0.2440    1.1334 C   0  0  2  0  0  0  0  0  0  0  0  0
    8.3209   -0.3477    0.1186 O   0  0  0  0  0  0  0  0  0  0  0  0
   10.5972    0.4646    0.5516 C   0  0  2  0  0  0  0  0  0  0  0  0
   11.6385    0.5523    1.5719 O   0  0  0  0  0  0  0  0  0  0  0  0
   10.2063    1.8897    0.1201 C   0  0  0  0  0  0  0  0  0  0  0  0
   10.8961    2.2611   -1.0796 O   0  0  0  0  0  0  0  0  0  0  0  0
  1  2  1  6  0  0  0
  1  3  1  0  0  0  0
  1  4  2  0  0  0  0
  1 16  1  0  0  0  0
  5  6  1  6  0  0  0
  5  7  1  0  0  0  0
  5 14  1  0  0  0  0
  7  8  1  6  0  0  0
  7  9  1  0  0  0  0
  9 10  1  1  0  0  0
  9 11  1  0  0  0  0
 11 12  1  6  0  0  0
 11 13  1  0  0  0  0
 13 14  1  0  0  0  0
 13 15  1  1  0  0  0
 15 16  1  0  0  0  0
M  CHG  1   3  -1
M  END
>  <CHROM.1>
-142.92919872,91.85631554,77.03415764,10.29059795,0.19681833,0.03402177,-1.70824726
0.20889468,2.27999918

>  <Name>
ligand

>  <RI>
0

>  <Rbt.Current_Directory>
/home/itssahil/PROJECTS/Mol_Feturizer/New_Systems/rnas/2HO7

>  <Rbt.Executable>
rbdock ($Id: //depot/dev/client3/rdock/2013.1/src/exe/rbdock.cxx#4 $)

>  <Rbt.Library>
libRbt.so (2013.1, Build901 2013/11/27)

>  <Rbt.Parameter_File>
/export/apps/rDock/src/rDock_2013.1_src/data/scripts/dock_solv.prm

>  <Rbt.Receptor>
prm/blind_docking_80.prm

>  <SCORE>
-16.4853

>  <SCORE.INTER>
-22.1716

>  <SCORE.INTER.CONST>
1

>  <SCORE.INTER.POLAR>
-2.75452

>  <SCORE.INTER.ROT>
3

>  <SCORE.INTER.SOLV>
16.0579

>  <SCORE.INTER.VDW>
-16.552

>  <SCORE.INTER.norm>
-1.38573

>  <SCORE.INTRA>
5.68636

>  <SCORE.INTRA.DIHEDRAL>
7.97925

>  <SCORE.INTRA.DIHEDRAL.0>
0.00893466

>  <SCORE.INTRA.POLAR>
0

>  <SCORE.INTRA.POLAR.0>
0

>  <SCORE.INTRA.REPUL>
0

>  <SCORE.INTRA.REPUL.0>
0

>  <SCORE.INTRA.SOLV>
3.58242

>  <SCORE.INTRA.SOLV.lig_0>
-48.9722

>  <SCORE.INTRA.VDW>
-0.0944835

>  <SCORE.INTRA.VDW.0>
-0.529409

>  <SCORE.INTRA.norm>
0.355397

>  <SCORE.RESTR>
0

>  <SCORE.RESTR.CAVITY>
0

>  <SCORE.RESTR.norm>
0

>  <SCORE.SYSTEM>
0

>  <SCORE.SYSTEM.CONST>
0

>  <SCORE.SYSTEM.DIHEDRAL>
0

>  <SCORE.SYSTEM.SOLV>
0

>  <SCORE.SYSTEM.norm>
0

>  <SCORE.heavy>
16

>  <SCORE.norm>
-1.03033

>  <RMSD>
39.975

$$$$
ligand
 OpenBabel11021811433D
libRbt.so/2013.1/901 2013/11/27
 16 16  0  0  0  0  0  0  0  0999 V2000
    9.9505    1.8935   -2.4020 P   0  0  2  0  0  0  0  0  0  0  0  0
    8.8764    2.9083   -2.5385 O   0  0  0  0  0  0  0  0  0  0  0  0
   10.8329    1.8685   -3.7475 O   0  5  0  0  0  0  0  0  0  0  0  0
    9.2745    0.4485   -2.1812 O   0  0  0  0  0  0  0  0  0  0  0  0
   12.0644   -0.7815    1.9629 C   0  0  2  0  0  0  0  0  0  0  0  0
   12.5860   -1.5534    0.8661 O   0  0  0  0  0  0  0  0  0  0  0  0
   10.8528   -1.4973    2.6133 C   0  0  2  0  0  0  0  0  0  0  0  0
   11.2488   -2.8343    3.0711 O   0  0  0  0  0  0  0  0  0  0  0  0
    9.7367   -1.6236    1.5594 C   0  0  1  0  0  0  0  0  0  0  0  0
    8.5988   -2.2769    2.1347 O   0  0  0  0  0  0  0  0  0  0  0  0
    9.3467   -0.2097    1.1008 C   0  0  2  0  0  0  0  0  0  0  0  0
    8.3078   -0.3009    0.1022 O   0  0  0  0  0  0  0  0  0  0  0  0
   10.6034    0.4758    0.4968 C   0  0  2  0  0  0  0  0  0  0  0  0
   11.6616    0.5507    1.5007 O   0  0  0  0  0  0  0  0  0  0  0  0
   10.2292    1.9054    0.0653 C   0  0  0  0  0  0  0  0  0  0  0  0
   10.9096    2.2620   -1.1442 O   0  0  0  0  0  0  0  0  0  0  0  0
  1  2  1  6  0  0  0
  1  3  1  0  0  0  0
  1  4  2  0  0  0  0
  1 16  1  0  0  0  0
  5  6  1  6  0  0  0
  5  7  1  0  0  0  0
  5 14  1  0  0  0  0
  7  8  1  6  0  0  0
  7  9  1  0  0  0  0
  9 10  1  1  0  0  0
  9 11  1  0  0  0  0
 11 12  1  6  0  0  0
 11 13  1  0  0  0  0
 13 14  1  0  0  0  0
 13 15  1  1  0  0  0
 15 16  1  0  0  0  0
M  CHG  1   3  -1
M  END
>  <CHROM.1>
-143.10351237,92.47268216,76.71771264,10.28463906,0.21722450,-0.01490751
-1.70887352,0.18604243,2.27800116

>  <Name>
ligand

>  <RI>
0

>  <Rbt.Current_Directory>
/home/itssahil/PROJECTS/Mol_Feturizer/New_Systems/rnas/2HO7

>  <Rbt.Executable>
rbdock ($Id: //depot/dev/client3/rdock/2013.1/src/exe/rbdock.cxx#4 $)

>  <Rbt.Library>
libRbt.so (2013.1, Build901 2013/11/27)

>  <Rbt.Parameter_File>
/export/apps/rDock/src/rDock_2013.1_src/data/scripts/dock_solv.prm

>  <Rbt.Receptor>
prm/blind_docking_60.prm

>  <SCORE>
-16.497

>  <SCORE.INTER>
-22.1466

>  <SCORE.INTER.CONST>
1

>  <SCORE.INTER.POLAR>
-2.7223

>  <SCORE.INTER.ROT>
3

>  <SCORE.INTER.SOLV>
16.3277

>  <SCORE.INTER.VDW>
-16.7326

>  <SCORE.INTER.norm>
-1.38416

>  <SCORE.INTRA>
5.64964

>  <SCORE.INTRA.DIHEDRAL>
8.05683

>  <SCORE.INTRA.DIHEDRAL.0>
0.00893466

>  <SCORE.INTRA.POLAR>
0

>  <SCORE.INTRA.POLAR.0>
0

>  <SCORE.INTRA.REPUL>
0

>  <SCORE.INTRA.REPUL.0>
0

>  <SCORE.INTRA.SOLV>
3.5295

>  <SCORE.INTRA.SOLV.lig_0>
-48.9722

>  <SCORE.INTRA.VDW>
-0.143524

>  <SCORE.INTRA.VDW.0>
-0.529409

>  <SCORE.INTRA.norm>
0.353103

>  <SCORE.RESTR>
0

>  <SCORE.RESTR.CAVITY>
0

>  <SCORE.RESTR.norm>
0

>  <SCORE.SYSTEM>
0

>  <SCORE.SYSTEM.CONST>
0

>  <SCORE.SYSTEM.DIHEDRAL>
0

>  <SCORE.SYSTEM.SOLV>
0

>  <SCORE.SYSTEM.norm>
0

>  <SCORE.heavy>
16

>  <SCORE.norm>
-1.03106

>  <RMSD>
39.988

$$$$
ligand
 OpenBabel11021811433D
libRbt.so/2013.1/901 2013/11/27
 16 16  0  0  0  0  0  0  0  0999 V2000
   11.2256   -0.2213    2.0802 P   0  0  2  0  0  0  0  0  0  0  0  0
   12.1411    0.8043    2.6389 O   0  0  0  0  0  0  0  0  0  0  0  0
   10.2790   -0.7850    3.2533 O   0  5  0  0  0  0  0  0  0  0  0  0
   12.1044   -1.4290    1.4780 O   0  0  0  0  0  0  0  0  0  0  0  0
   10.6384    3.1291   -3.1131 C   0  0  2  0  0  0  0  0  0  0  0  0
    9.2728    3.5656   -2.9892 O   0  0  0  0  0  0  0  0  0  0  0  0
   10.7408    1.8993   -4.0513 C   0  0  2  0  0  0  0  0  0  0  0  0
   10.1873    2.2291   -5.3700 O   0  0  0  0  0  0  0  0  0  0  0  0
    9.9359    0.7425   -3.4298 C   0  0  1  0  0  0  0  0  0  0  0  0
   10.0176   -0.4126   -4.2734 O   0  0  0  0  0  0  0  0  0  0  0  0
   10.5386    0.4233   -2.0528 C   0  0  2  0  0  0  0  0  0  0  0  0
    9.7933   -0.6526   -1.4429 O   0  0  0  0  0  0  0  0  0  0  0  0
   10.4485    1.6978   -1.1689 C   0  0  2  0  0  0  0  0  0  0  0  0
   11.1859    2.7921   -1.7950 O   0  0  0  0  0  0  0  0  0  0  0  0
   11.0808    1.3962    0.2020 C   0  0  0  0  0  0  0  0  0  0  0  0
   10.2989    0.4321    0.9175 O   0  0  0  0  0  0  0  0  0  0  0  0
  1  2  1  1  0  0  0
  1  3  1  0  0  0  0
  1  4  2  0  0  0  0
  1 16  1  0  0  0  0
  5  6  1  1  0  0  0
  5  7  1  0  0  0  0
  5 14  1  0  0  0  0
  7  8  1  6  0  0  0
  7  9  1  0  0  0  0
  9 10  1  6  0  0  0
  9 11  1  0  0  0  0
 11 12  1  1  0  0  0
 11 13  1  0  0  0  0
 13 14  1  0  0  0  0
 13 15  1  1  0  0  0
 15 16  1  0  0  0  0
M  CHG  1   3  -1
M  END
>  <CHROM.1>
-66.74614286,160.95238698,35.78539022,10.65951762,0.86652504,-0.92062487
-0.66073161,-1.36557956,-0.32105100

>  <Name>
ligand

>  <RI>
0

>  <Rbt.Current_Directory>
/home/itssahil/PROJECTS/Mol_Feturizer/New_Systems/rnas/2HO7

>  <Rbt.Executable>
rbdock ($Id: //depot/dev/client3/rdock/2013.1/src/exe/rbdock.cxx#4 $)

>  <Rbt.Library>
libRbt.so (2013.1, Build901 2013/11/27)

>  <Rbt.Parameter_File>
/export/apps/rDock/src/rDock_2013.1_src/data/scripts/dock_solv.prm

>  <Rbt.Receptor>
prm/blind_docking_80.prm

>  <SCORE>
-14.6386

>  <SCORE.INTER>
-16.9951

>  <SCORE.INTER.CONST>
1

>  <SCORE.INTER.POLAR>
-1.2657

>  <SCORE.INTER.ROT>
3

>  <SCORE.INTER.SOLV>
17.8796

>  <SCORE.INTER.VDW>
-18.6709

>  <SCORE.INTER.norm>
-1.06219

>  <SCORE.INTRA>
2.35644

>  <SCORE.INTRA.DIHEDRAL>
2.64527

>  <SCORE.INTRA.DIHEDRAL.0>
0.00893466

>  <SCORE.INTRA.POLAR>
0

>  <SCORE.INTRA.POLAR.0>
0

>  <SCORE.INTRA.REPUL>
0

>  <SCORE.INTRA.REPUL.0>
0

>  <SCORE.INTRA.SOLV>
1.07245

>  <SCORE.INTRA.SOLV.lig_0>
-48.9722

>  <SCORE.INTRA.VDW>
0.497579

>  <SCORE.INTRA.VDW.0>
-0.529409

>  <SCORE.INTRA.norm>
0.147278

>  <SCORE.RESTR>
0

>  <SCORE.RESTR.CAVITY>
0

>  <SCORE.RESTR.norm>
0

>  <SCORE.SYSTEM>
0

>  <SCORE.SYSTEM.CONST>
0

>  <SCORE.SYSTEM.DIHEDRAL>
0

>  <SCORE.SYSTEM.SOLV>
0

>  <SCORE.SYSTEM.norm>
0

>  <SCORE.heavy>
16

>  <SCORE.norm>
-0.914914

>  <RMSD>
40.007

$$$$
ligand
 OpenBabel11021811433D
libRbt.so/2013.1/901 2013/11/27
 16 16  0  0  0  0  0  0  0  0999 V2000
   11.0938   -0.3104    2.1147 P   0  0  2  0  0  0  0  0  0  0  0  0
   11.9940    0.7076    2.7109 O   0  0  0  0  0  0  0  0  0  0  0  0
   10.0706   -0.8392    3.2385 O   0  5  0  0  0  0  0  0  0  0  0  0
   11.9838   -1.5424    1.5822 O   0  0  0  0  0  0  0  0  0  0  0  0
   10.7235    3.1336   -3.0556 C   0  0  2  0  0  0  0  0  0  0  0  0
    9.3616    3.5815   -2.9321 O   0  0  0  0  0  0  0  0  0  0  0  0
   10.8246    1.9435   -4.0438 C   0  0  2  0  0  0  0  0  0  0  0  0
   10.2940    2.3357   -5.3548 O   0  0  0  0  0  0  0  0  0  0  0  0
    9.9973    0.7715   -3.4832 C   0  0  1  0  0  0  0  0  0  0  0  0
   10.0773   -0.3477   -4.3740 O   0  0  0  0  0  0  0  0  0  0  0  0
   10.5764    0.3867   -2.1129 C   0  0  2  0  0  0  0  0  0  0  0  0
    9.8098   -0.7046   -1.5595 O   0  0  0  0  0  0  0  0  0  0  0  0
   10.4890    1.6237   -1.1768 C   0  0  2  0  0  0  0  0  0  0  0  0
   11.2481    2.7343   -1.7457 O   0  0  0  0  0  0  0  0  0  0  0  0
   11.0980    1.2565    0.1885 C   0  0  0  0  0  0  0  0  0  0  0  0
   10.2483    0.3410    0.8905 O   0  0  0  0  0  0  0  0  0  0  0  0
  1  2  1  1  0  0  0
  1  3  1  0  0  0  0
  1  4  2  0  0  0  0
  1 16  1  0  0  0  0
  5  6  1  1  0  0  0
  5  7  1  0  0  0  0
  5 14  1  0  0  0  0
  7  8  1  6  0  0  0
  7  9  1  0  0  0  0
  9 10  1  6  0  0  0
  9 11  1  0  0  0  0
 11 12  1  1  0  0  0
 11 13  1  0  0  0  0
 13 14  1  0  0  0  0
 13 15  1  1  0  0  0
 15 16  1  0  0  0  0
M  CHG  1   3  -1
M  END
>  <CHROM.1>
-70.64449059,165.27131885,37.14360778,10.64807557,0.82876361,-0.91762644
-0.79652736,-1.38813542,-0.44094362

>  <Name>
ligand

>  <RI>
0

>  <Rbt.Current_Directory>
/home/itssahil/PROJECTS/Mol_Feturizer/New_Systems/rnas/2HO7

>  <Rbt.Executable>
rbdock ($Id: //depot/dev/client3/rdock/2013.1/src/exe/rbdock.cxx#4 $)

>  <Rbt.Library>
libRbt.so (2013.1, Build901 2013/11/27)

>  <Rbt.Parameter_File>
/export/apps/rDock/src/rDock_2013.1_src/data/scripts/dock_solv.prm

>  <Rbt.Receptor>
prm/blind_docking_40.prm

>  <SCORE>
-14.6679

>  <SCORE.INTER>
-16.59

>  <SCORE.INTER.CONST>
1

>  <SCORE.INTER.POLAR>
-1.18893

>  <SCORE.INTER.ROT>
3

>  <SCORE.INTER.SOLV>
17.37

>  <SCORE.INTER.VDW>
-18.4869

>  <SCORE.INTER.norm>
-1.03687

>  <SCORE.INTRA>
1.92205

>  <SCORE.INTRA.DIHEDRAL>
2.17324

>  <SCORE.INTRA.DIHEDRAL.0>
0.00893466

>  <SCORE.INTRA.POLAR>
0

>  <SCORE.INTRA.POLAR.0>
0

>  <SCORE.INTRA.REPUL>
0

>  <SCORE.INTRA.REPUL.0>
0

>  <SCORE.INTRA.SOLV>
0.859208

>  <SCORE.INTRA.SOLV.lig_0>
-48.9722

>  <SCORE.INTRA.VDW>
0.405826

>  <SCORE.INTRA.VDW.0>
-0.529409

>  <SCORE.INTRA.norm>
0.120128

>  <SCORE.RESTR>
0

>  <SCORE.RESTR.CAVITY>
0

>  <SCORE.RESTR.norm>
0

>  <SCORE.SYSTEM>
0

>  <SCORE.SYSTEM.CONST>
0

>  <SCORE.SYSTEM.DIHEDRAL>
0

>  <SCORE.SYSTEM.SOLV>
0

>  <SCORE.SYSTEM.norm>
0

>  <SCORE.heavy>
16

>  <SCORE.norm>
-0.916744

>  <RMSD>
40.025

$$$$
ligand
 OpenBabel11021811433D
libRbt.so/2013.1/901 2013/11/27
 16 16  0  0  0  0  0  0  0  0999 V2000
   11.0858   -0.3099    2.0983 P   0  0  2  0  0  0  0  0  0  0  0  0
   12.0173    0.6944    2.6693 O   0  0  0  0  0  0  0  0  0  0  0  0
   10.0591   -0.7926    3.2395 O   0  5  0  0  0  0  0  0  0  0  0  0
   11.9390   -1.5736    1.5799 O   0  0  0  0  0  0  0  0  0  0  0  0
   10.7248    3.1459   -3.0664 C   0  0  2  0  0  0  0  0  0  0  0  0
    9.3604    3.5858   -2.9420 O   0  0  0  0  0  0  0  0  0  0  0  0
   10.8337    1.9629   -4.0623 C   0  0  2  0  0  0  0  0  0  0  0  0
   10.3031    2.3611   -5.3715 O   0  0  0  0  0  0  0  0  0  0  0  0
   10.0115    0.7829   -3.5109 C   0  0  1  0  0  0  0  0  0  0  0  0
   10.0987   -0.3299   -4.4090 O   0  0  0  0  0  0  0  0  0  0  0  0
   10.5905    0.3920   -2.1422 C   0  0  2  0  0  0  0  0  0  0  0  0
    9.8286   -0.7069   -1.5974 O   0  0  0  0  0  0  0  0  0  0  0  0
   10.4951    1.6223   -1.1981 C   0  0  2  0  0  0  0  0  0  0  0  0
   11.2494    2.7405   -1.7583 O   0  0  0  0  0  0  0  0  0  0  0  0
   11.1039    1.2491    0.1658 C   0  0  0  0  0  0  0  0  0  0  0  0
   10.2468    0.3422    0.8701 O   0  0  0  0  0  0  0  0  0  0  0  0
  1  2  1  1  0  0  0
  1  3  1  0  0  0  0
  1  4  2  0  0  0  0
  1 16  1  0  0  0  0
  5  6  1  1  0  0  0
  5  7  1  0  0  0  0
  5 14  1  0  0  0  0
  7  8  1  6  0  0  0
  7  9  1  0  0  0  0
  9 10  1  6  0  0  0
  9 11  1  0  0  0  0
 11 12  1  1  0  0  0
 11 13  1  0  0  0  0
 13 14  1  0  0  0  0
 13 15  1  1  0  0  0
 15 16  1  0  0  0  0
M  CHG  1   3  -1
M  END
>  <CHROM.1>
-71.62680863,165.65098209,35.68793243,10.65065361,0.83427852,-0.93741668
-0.78257695,-1.39464424,-0.42506601

>  <Name>
ligand

>  <RI>
0

>  <Rbt.Current_Directory>
/home/itssahil/PROJECTS/Mol_Feturizer/New_Systems/rnas/2HO7

>  <Rbt.Executable>
rbdock ($Id: //depot/dev/client3/rdock/2013.1/src/exe/rbdock.cxx#4 $)

>  <Rbt.Library>
libRbt.so (2013.1, Build901 2013/11/27)

>  <Rbt.Parameter_File>
/export/apps/rDock/src/rDock_2013.1_src/data/scripts/dock_solv.prm

>  <Rbt.Receptor>
prm/blind_docking_60.prm

>  <SCORE>
-14.6689

>  <SCORE.INTER>
-16.6666

>  <SCORE.INTER.CONST>
1

>  <SCORE.INTER.POLAR>
-1.15863

>  <SCORE.INTER.ROT>
3

>  <SCORE.INTER.SOLV>
17.242

>  <SCORE.INTER.VDW>
-18.5963

>  <SCORE.INTER.norm>
-1.04167

>  <SCORE.INTRA>
1.99771

>  <SCORE.INTRA.DIHEDRAL>
2.28506

>  <SCORE.INTRA.DIHEDRAL.0>
0.00893466

>  <SCORE.INTRA.POLAR>
0

>  <SCORE.INTRA.POLAR.0>
0

>  <SCORE.INTRA.REPUL>
0

>  <SCORE.INTRA.REPUL.0>
0

>  <SCORE.INTRA.SOLV>
0.822802

>  <SCORE.INTRA.SOLV.lig_0>
-48.9722

>  <SCORE.INTRA.VDW>
0.443774

>  <SCORE.INTRA.VDW.0>
-0.529409

>  <SCORE.INTRA.norm>
0.124857

>  <SCORE.RESTR>
0

>  <SCORE.RESTR.CAVITY>
0

>  <SCORE.RESTR.norm>
0

>  <SCORE.SYSTEM>
0

>  <SCORE.SYSTEM.CONST>
0

>  <SCORE.SYSTEM.DIHEDRAL>
0

>  <SCORE.SYSTEM.SOLV>
0

>  <SCORE.SYSTEM.norm>
0

>  <SCORE.heavy>
16

>  <SCORE.norm>
-0.916809

>  <RMSD>
40.027

$$$$
ligand
 OpenBabel11021811433D
libRbt.so/2013.1/901 2013/11/27
 16 16  0  0  0  0  0  0  0  0999 V2000
   11.0955   -0.2774    2.1192 P   0  0  2  0  0  0  0  0  0  0  0  0
   12.0447    0.7131    2.6852 O   0  0  0  0  0  0  0  0  0  0  0  0
   10.0871   -0.7677    3.2736 O   0  5  0  0  0  0  0  0  0  0  0  0
   11.9297   -1.5402    1.5687 O   0  0  0  0  0  0  0  0  0  0  0  0
   10.6815    3.1288   -3.0716 C   0  0  2  0  0  0  0  0  0  0  0  0
    9.3151    3.5607   -2.9408 O   0  0  0  0  0  0  0  0  0  0  0  0
   10.7903    1.9355   -4.0551 C   0  0  2  0  0  0  0  0  0  0  0  0
   10.2461    2.3152   -5.3642 O   0  0  0  0  0  0  0  0  0  0  0  0
    9.9810    0.7561   -3.4836 C   0  0  1  0  0  0  0  0  0  0  0  0
   10.0685   -0.3661   -4.3699 O   0  0  0  0  0  0  0  0  0  0  0  0
   10.5740    0.3847   -2.1155 C   0  0  2  0  0  0  0  0  0  0  0  0
    9.8243   -0.7133   -1.5521 O   0  0  0  0  0  0  0  0  0  0  0  0
   10.4778    1.6248   -1.1845 C   0  0  2  0  0  0  0  0  0  0  0  0
   11.2197    2.7418   -1.7635 O   0  0  0  0  0  0  0  0  0  0  0  0
   11.1005    1.2712    0.1783 C   0  0  0  0  0  0  0  0  0  0  0  0
   10.2380    0.3962    0.9156 O   0  0  0  0  0  0  0  0  0  0  0  0
  1  2  1  1  0  0  0
  1  3  1  0  0  0  0
  1  4  2  0  0  0  0
  1 16  1  0  0  0  0
  5  6  1  1  0  0  0
  5  7  1  0  0  0  0
  5 14  1  0  0  0  0
  7  8  1  6  0  0  0
  7  9  1  0  0  0  0
  9 10  1  6  0  0  0
  9 11  1  0  0  0  0
 11 12  1  1  0  0  0
 11 13  1  0  0  0  0
 13 14  1  0  0  0  0
 13 15  1  1  0  0  0
 15 16  1  0  0  0  0
M  CHG  1   3  -1
M  END
>  <CHROM.1>
-73.25009159,163.99129431,37.65898804,10.63577339,0.83673486,-0.91978439
-0.73644763,-1.39134058,-0.38836188

>  <Name>
ligand

>  <RI>
0

>  <Rbt.Current_Directory>
/home/itssahil/PROJECTS/Mol_Feturizer/New_Systems/rnas/2HO7

>  <Rbt.Executable>
rbdock ($Id: //depot/dev/client3/rdock/2013.1/src/exe/rbdock.cxx#4 $)

>  <Rbt.Library>
libRbt.so (2013.1, Build901 2013/11/27)

>  <Rbt.Parameter_File>
/export/apps/rDock/src/rDock_2013.1_src/data/scripts/dock_solv.prm

>  <Rbt.Receptor>
prm/blind_docking_20.prm

>  <SCORE>
-14.6393

>  <SCORE.INTER>
-16.6898

>  <SCORE.INTER.CONST>
1

>  <SCORE.INTER.POLAR>
-1.17299

>  <SCORE.INTER.ROT>
3

>  <SCORE.INTER.SOLV>
17.5086

>  <SCORE.INTER.VDW>
-18.6528

>  <SCORE.INTER.norm>
-1.04311

>  <SCORE.INTRA>
2.05047

>  <SCORE.INTRA.DIHEDRAL>
2.52798

>  <SCORE.INTRA.DIHEDRAL.0>
0.00893466

>  <SCORE.INTRA.POLAR>
0

>  <SCORE.INTRA.POLAR.0>
0

>  <SCORE.INTRA.REPUL>
0

>  <SCORE.INTRA.REPUL.0>
0

>  <SCORE.INTRA.SOLV>
0.911748

>  <SCORE.INTRA.SOLV.lig_0>
-48.9722

>  <SCORE.INTRA.VDW>
0.330604

>  <SCORE.INTRA.VDW.0>
-0.529409

>  <SCORE.INTRA.norm>
0.128154

>  <SCORE.RESTR>
0

>  <SCORE.RESTR.CAVITY>
0

>  <SCORE.RESTR.norm>
0

>  <SCORE.SYSTEM>
0

>  <SCORE.SYSTEM.CONST>
0

>  <SCORE.SYSTEM.DIHEDRAL>
0

>  <SCORE.SYSTEM.SOLV>
0

>  <SCORE.SYSTEM.norm>
0

>  <SCORE.heavy>
16

>  <SCORE.norm>
-0.914958

>  <RMSD>
40.035

$$$$
ligand
 OpenBabel11021811433D
libRbt.so/2013.1/901 2013/11/27
 16 16  0  0  0  0  0  0  0  0999 V2000
   10.0163    1.9131   -1.7052 P   0  0  2  0  0  0  0  0  0  0  0  0
   11.4072    1.7131   -2.1823 O   0  0  0  0  0  0  0  0  0  0  0  0
    9.1660    0.5722   -1.9673 O   0  5  0  0  0  0  0  0  0  0  0  0
    9.3561    3.1316   -2.5255 O   0  0  0  0  0  0  0  0  0  0  0  0
   10.8392   -2.0649   -0.8922 C   0  0  2  0  0  0  0  0  0  0  0  0
    9.4129   -2.2351   -0.9771 O   0  0  0  0  0  0  0  0  0  0  0  0
   11.4166   -2.8483    0.3145 C   0  0  2  0  0  0  0  0  0  0  0  0
   11.0771   -4.2712    0.1955 O   0  0  0  0  0  0  0  0  0  0  0  0
   10.8012   -2.2785    1.6064 C   0  0  1  0  0  0  0  0  0  0  0  0
   11.3222   -2.9802    2.7417 O   0  0  0  0  0  0  0  0  0  0  0  0
   11.1732   -0.7906    1.7002 C   0  0  2  0  0  0  0  0  0  0  0  0
   10.5975   -0.2288    2.8993 O   0  0  0  0  0  0  0  0  0  0  0  0
   10.6078   -0.0623    0.4496 C   0  0  2  0  0  0  0  0  0  0  0  0
   11.1749   -0.6431   -0.7646 O   0  0  0  0  0  0  0  0  0  0  0  0
   11.0051    1.4235    0.5192 C   0  0  0  0  0  0  0  0  0  0  0  0
   10.0138    2.2413   -0.1146 O   0  0  0  0  0  0  0  0  0  0  0  0
  1  2  1  6  0  0  0
  1  3  1  0  0  0  0
  1  4  2  0  0  0  0
  1 16  1  0  0  0  0
  5  6  1  1  0  0  0
  5  7  1  0  0  0  0
  5 14  1  0  0  0  0
  7  8  1  6  0  0  0
  7  9  1  0  0  0  0
  9 10  1  1  0  0  0
  9 11  1  0  0  0  0
 11 12  1  1  0  0  0
 11 13  1  0  0  0  0
 13 14  1  0  0  0  0
 13 15  1  1  0  0  0
 15 16  1  0  0  0  0
M  CHG  1   3  -1
M  END
>  <CHROM.1>
-149.29891555,-66.74085177,-39.03328870,10.52748591,-0.27042532,-0.18603024
2.52170094,-1.35519695,0.38113236

>  <Name>
ligand

>  <RI>
0

>  <Rbt.Current_Directory>
/home/itssahil/PROJECTS/Mol_Feturizer/New_Systems/rnas/2HO7

>  <Rbt.Executable>
rbdock ($Id: //depot/dev/client3/rdock/2013.1/src/exe/rbdock.cxx#4 $)

>  <Rbt.Library>
libRbt.so (2013.1, Build901 2013/11/27)

>  <Rbt.Parameter_File>
/export/apps/rDock/src/rDock_2013.1_src/data/scripts/dock_solv.prm

>  <Rbt.Receptor>
prm/blind_docking_100.prm

>  <SCORE>
-13.0601

>  <SCORE.INTER>
-17.6961

>  <SCORE.INTER.CONST>
1

>  <SCORE.INTER.POLAR>
-2.85535

>  <SCORE.INTER.ROT>
3

>  <SCORE.INTER.SOLV>
17.2674

>  <SCORE.INTER.VDW>
-13.6354

>  <SCORE.INTER.norm>
-1.10601

>  <SCORE.INTRA>
4.63608

>  <SCORE.INTRA.DIHEDRAL>
3.60009

>  <SCORE.INTRA.DIHEDRAL.0>
0.00893466

>  <SCORE.INTRA.POLAR>
0

>  <SCORE.INTRA.POLAR.0>
0

>  <SCORE.INTRA.REPUL>
0

>  <SCORE.INTRA.REPUL.0>
0

>  <SCORE.INTRA.SOLV>
4.41829

>  <SCORE.INTRA.SOLV.lig_0>
-48.9722

>  <SCORE.INTRA.VDW>
0.626892

>  <SCORE.INTRA.VDW.0>
-0.529409

>  <SCORE.INTRA.norm>
0.289755

>  <SCORE.RESTR>
0

>  <SCORE.RESTR.CAVITY>
0

>  <SCORE.RESTR.norm>
0

>  <SCORE.SYSTEM>
0

>  <SCORE.SYSTEM.CONST>
0

>  <SCORE.SYSTEM.DIHEDRAL>
0

>  <SCORE.SYSTEM.SOLV>
0

>  <SCORE.SYSTEM.norm>
0

>  <SCORE.heavy>
16

>  <SCORE.norm>
-0.816253

>  <RMSD>
40.046

$$$$
ligand
 OpenBabel11021811433D
libRbt.so/2013.1/901 2013/11/27
 16 16  0  0  0  0  0  0  0  0999 V2000
   10.6251    0.4750   -2.9345 P   0  0  2  0  0  0  0  0  0  0  0  0
   11.3795    1.7232   -2.6605 O   0  0  0  0  0  0  0  0  0  0  0  0
   11.3966   -0.7701   -2.2680 O   0  5  0  0  0  0  0  0  0  0  0  0
   10.5409    0.2583   -4.5281 O   0  0  0  0  0  0  0  0  0  0  0  0
    9.6232   -2.0921    0.6421 C   0  0  2  0  0  0  0  0  0  0  0  0
    8.8185   -1.8822    1.8164 O   0  0  0  0  0  0  0  0  0  0  0  0
   11.1325   -2.0143    0.9873 C   0  0  2  0  0  0  0  0  0  0  0  0
   11.4616   -3.0067    2.0173 O   0  0  0  0  0  0  0  0  0  0  0  0
   11.4402   -0.6011    1.5171 C   0  0  1  0  0  0  0  0  0  0  0  0
   12.8322   -0.4968    1.8391 O   0  0  0  0  0  0  0  0  0  0  0  0
   11.0843    0.4121    0.4179 C   0  0  2  0  0  0  0  0  0  0  0  0
   11.3532    1.7482    0.8946 O   0  0  0  0  0  0  0  0  0  0  0  0
    9.5747    0.2634    0.0817 C   0  0  2  0  0  0  0  0  0  0  0  0
    9.2983   -1.0938   -0.3818 O   0  0  0  0  0  0  0  0  0  0  0  0
    9.2173    1.2523   -1.0427 C   0  0  0  0  0  0  0  0  0  0  0  0
    9.1324    0.5751   -2.3025 O   0  0  0  0  0  0  0  0  0  0  0  0
  1  2  1  1  0  0  0
  1  3  1  0  0  0  0
  1  4  2  0  0  0  0
  1 16  1  0  0  0  0
  5  6  1  1  0  0  0
  5  7  1  0  0  0  0
  5 14  1  0  0  0  0
  7  8  1  1  0  0  0
  7  9  1  0  0  0  0
  9 10  1  6  0  0  0
  9 11  1  0  0  0  0
 11 12  1  1  0  0  0
 11 13  1  0  0  0  0
 13 14  1  0  0  0  0
 13 15  1  6  0  0  0
 15 16  1  0  0  0  0
M  CHG  1   3  -1
M  END
>  <CHROM.1>
101.69659713,-84.80638605,-38.31921407,10.57049577,-0.26498889,-0.57941301
1.67286609,-0.71695120,-1.05157169

>  <Name>
ligand

>  <RI>
0

>  <Rbt.Current_Directory>
/home/itssahil/PROJECTS/Mol_Feturizer/New_Systems/rnas/2HO7

>  <Rbt.Executable>
rbdock ($Id: //depot/dev/client3/rdock/2013.1/src/exe/rbdock.cxx#4 $)

>  <Rbt.Library>
libRbt.so (2013.1, Build901 2013/11/27)

>  <Rbt.Parameter_File>
/export/apps/rDock/src/rDock_2013.1_src/data/scripts/dock_solv.prm

>  <Rbt.Receptor>
prm/blind_docking_80.prm

>  <SCORE>
-10.0915

>  <SCORE.INTER>
-16.0057

>  <SCORE.INTER.CONST>
1

>  <SCORE.INTER.POLAR>
-2.53788

>  <SCORE.INTER.ROT>
3

>  <SCORE.INTER.SOLV>
13.1595

>  <SCORE.INTER.VDW>
-12.1973

>  <SCORE.INTER.norm>
-1.00035

>  <SCORE.INTRA>
5.9142

>  <SCORE.INTRA.DIHEDRAL>
7.47245

>  <SCORE.INTRA.DIHEDRAL.0>
0.00893466

>  <SCORE.INTRA.POLAR>
0

>  <SCORE.INTRA.POLAR.0>
0

>  <SCORE.INTRA.REPUL>
0

>  <SCORE.INTRA.REPUL.0>
0

>  <SCORE.INTRA.SOLV>
5.20148

>  <SCORE.INTRA.SOLV.lig_0>
-48.9722

>  <SCORE.INTRA.VDW>
-0.422764

>  <SCORE.INTRA.VDW.0>
-0.529409

>  <SCORE.INTRA.norm>
0.369637

>  <SCORE.RESTR>
0

>  <SCORE.RESTR.CAVITY>
0

>  <SCORE.RESTR.norm>
0

>  <SCORE.SYSTEM>
0

>  <SCORE.SYSTEM.CONST>
0

>  <SCORE.SYSTEM.DIHEDRAL>
0

>  <SCORE.SYSTEM.SOLV>
0

>  <SCORE.SYSTEM.norm>
0

>  <SCORE.heavy>
16

>  <SCORE.norm>
-0.630717

>  <RMSD>
40.078

$$$$
ligand
 OpenBabel11021811433D
libRbt.so/2013.1/901 2013/11/27
 16 16  0  0  0  0  0  0  0  0999 V2000
    9.4804   -1.1217    1.4958 P   0  0  2  0  0  0  0  0  0  0  0  0
    9.1997   -2.3932    2.2076 O   0  0  0  0  0  0  0  0  0  0  0  0
    9.0959    0.1172    2.4482 O   0  5  0  0  0  0  0  0  0  0  0  0
    8.5829   -1.0654    0.1599 O   0  0  0  0  0  0  0  0  0  0  0  0
   10.3221    3.1440   -1.2473 C   0  0  2  0  0  0  0  0  0  0  0  0
    8.9141    2.8595   -1.3324 O   0  0  0  0  0  0  0  0  0  0  0  0
   11.0513    2.7094   -2.5444 C   0  0  2  0  0  0  0  0  0  0  0  0
   10.4606    3.3908   -3.7024 O   0  0  0  0  0  0  0  0  0  0  0  0
   10.8923    1.1861   -2.7072 C   0  0  1  0  0  0  0  0  0  0  0  0
   11.5631    0.7533   -3.8968 O   0  0  0  0  0  0  0  0  0  0  0  0
   11.5184    0.5039   -1.4808 C   0  0  2  0  0  0  0  0  0  0  0  0
   11.3721   -0.9273   -1.6035 O   0  0  0  0  0  0  0  0  0  0  0  0
   10.7801    1.0048   -0.2087 C   0  0  2  0  0  0  0  0  0  0  0  0
   10.9112    2.4550   -0.0946 O   0  0  0  0  0  0  0  0  0  0  0  0
   11.4236    0.3514    1.0278 C   0  0  0  0  0  0  0  0  0  0  0  0
   11.0570   -1.0309    1.1166 O   0  0  0  0  0  0  0  0  0  0  0  0
  1  2  1  1  0  0  0
  1  3  1  0  0  0  0
  1  4  2  0  0  0  0
  1 16  1  0  0  0  0
  5  6  1  6  0  0  0
  5  7  1  0  0  0  0
  5 14  1  0  0  0  0
  7  8  1  6  0  0  0
  7  9  1  0  0  0  0
  9 10  1  6  0  0  0
  9 11  1  0  0  0  0
 11 12  1  6  0  0  0
 11 13  1  0  0  0  0
 13 14  1  0  0  0  0
 13 15  1  1  0  0  0
 15 16  1  0  0  0  0
M  CHG  1   3  -1
M  END
>  <CHROM.1>
-73.46624098,-69.82719769,-153.31954474,10.32192847,0.58254038,-0.47624804
2.00236951,-1.05339409,2.63145718

>  <Name>
ligand

>  <RI>
0

>  <Rbt.Current_Directory>
/home/itssahil/PROJECTS/Mol_Feturizer/New_Systems/rnas/2HO7

>  <Rbt.Executable>
rbdock ($Id: //depot/dev/client3/rdock/2013.1/src/exe/rbdock.cxx#4 $)

>  <Rbt.Library>
libRbt.so (2013.1, Build901 2013/11/27)

>  <Rbt.Parameter_File>
/export/apps/rDock/src/rDock_2013.1_src/data/scripts/dock_solv.prm

>  <Rbt.Receptor>
prm/blind_docking_80.prm

>  <SCORE>
-13.545

>  <SCORE.INTER>
-17.2445

>  <SCORE.INTER.CONST>
1

>  <SCORE.INTER.POLAR>
-1.59099

>  <SCORE.INTER.ROT>
3

>  <SCORE.INTER.SOLV>
14.6977

>  <SCORE.INTER.VDW>
-16.6922

>  <SCORE.INTER.norm>
-1.07778

>  <SCORE.INTRA>
3.69942

>  <SCORE.INTRA.DIHEDRAL>
2.07859

>  <SCORE.INTRA.DIHEDRAL.0>
0.00893466

>  <SCORE.INTRA.POLAR>
0

>  <SCORE.INTRA.POLAR.0>
0

>  <SCORE.INTRA.REPUL>
0

>  <SCORE.INTRA.REPUL.0>
0

>  <SCORE.INTRA.SOLV>
4.8683

>  <SCORE.INTRA.SOLV.lig_0>
-48.9722

>  <SCORE.INTRA.VDW>
0.225973

>  <SCORE.INTRA.VDW.0>
-0.529409

>  <SCORE.INTRA.norm>
0.231214

>  <SCORE.RESTR>
0

>  <SCORE.RESTR.CAVITY>
0

>  <SCORE.RESTR.norm>
0

>  <SCORE.SYSTEM>
0

>  <SCORE.SYSTEM.CONST>
0

>  <SCORE.SYSTEM.DIHEDRAL>
0

>  <SCORE.SYSTEM.SOLV>
0

>  <SCORE.SYSTEM.norm>
0

>  <SCORE.heavy>
16

>  <SCORE.norm>
-0.846565

>  <RMSD>
40.103

$$$$
ligand
 OpenBabel11021811433D
libRbt.so/2013.1/901 2013/11/27
 16 16  0  0  0  0  0  0  0  0999 V2000
   10.3470    2.2619   -2.2517 P   0  0  2  0  0  0  0  0  0  0  0  0
    9.5868    1.6881   -3.3897 O   0  0  0  0  0  0  0  0  0  0  0  0
    9.3776    3.2157   -1.3913 O   0  5  0  0  0  0  0  0  0  0  0  0
   11.5723    3.1313   -2.8316 O   0  0  0  0  0  0  0  0  0  0  0  0
   11.2725   -0.4674    2.6385 C   0  0  2  0  0  0  0  0  0  0  0  0
   12.3008   -1.3870    2.2290 O   0  0  0  0  0  0  0  0  0  0  0  0
   10.0694   -1.2254    3.2556 C   0  0  2  0  0  0  0  0  0  0  0  0
   10.5186   -2.0319    4.3966 O   0  0  0  0  0  0  0  0  0  0  0  0
    9.4684   -2.1475    2.1783 C   0  0  1  0  0  0  0  0  0  0  0  0
    8.3479   -2.8580    2.7188 O   0  0  0  0  0  0  0  0  0  0  0  0
    9.0100   -1.2744    0.9998 C   0  0  2  0  0  0  0  0  0  0  0  0
    8.4519   -2.1176   -0.0309 O   0  0  0  0  0  0  0  0  0  0  0  0
   10.2429   -0.5073    0.4470 C   0  0  2  0  0  0  0  0  0  0  0  0
   10.8197    0.3309    1.4948 O   0  0  0  0  0  0  0  0  0  0  0  0
    9.7858    0.3956   -0.7131 C   0  0  0  0  0  0  0  0  0  0  0  0
   10.9055    1.0723   -1.2975 O   0  0  0  0  0  0  0  0  0  0  0  0
  1  2  1  6  0  0  0
  1  3  1  0  0  0  0
  1  4  2  0  0  0  0
  1 16  1  0  0  0  0
  5  6  1  6  0  0  0
  5  7  1  0  0  0  0
  5 14  1  0  0  0  0
  7  8  1  1  0  0  0
  7  9  1  0  0  0  0
  9 10  1  1  0  0  0
  9 11  1  0  0  0  0
 11 12  1  6  0  0  0
 11 13  1  0  0  0  0
 13 14  1  0  0  0  0
 13 15  1  6  0  0  0
 15 16  1  0  0  0  0
M  CHG  1   3  -1
M  END
>  <CHROM.1>
-177.09234644,-166.41763099,-64.82041847,10.15215858,0.07524165,0.29340071
-1.50593541,0.60724639,2.21688489

>  <Name>
ligand

>  <RI>
0

>  <Rbt.Current_Directory>
/home/itssahil/PROJECTS/Mol_Feturizer/New_Systems/rnas/2HO7

>  <Rbt.Executable>
rbdock ($Id: //depot/dev/client3/rdock/2013.1/src/exe/rbdock.cxx#4 $)

>  <Rbt.Library>
libRbt.so (2013.1, Build901 2013/11/27)

>  <Rbt.Parameter_File>
/export/apps/rDock/src/rDock_2013.1_src/data/scripts/dock_solv.prm

>  <Rbt.Receptor>
prm/blind_docking_80.prm

>  <SCORE>
-9.4729

>  <SCORE.INTER>
-10.0414

>  <SCORE.INTER.CONST>
1

>  <SCORE.INTER.POLAR>
-1.27279

>  <SCORE.INTER.ROT>
3

>  <SCORE.INTER.SOLV>
25.3272

>  <SCORE.INTER.VDW>
-16.494

>  <SCORE.INTER.norm>
-0.627585

>  <SCORE.INTRA>
0.568464

>  <SCORE.INTRA.DIHEDRAL>
0.932623

>  <SCORE.INTRA.DIHEDRAL.0>
0.00893466

>  <SCORE.INTRA.POLAR>
0

>  <SCORE.INTRA.POLAR.0>
0

>  <SCORE.INTRA.REPUL>
0

>  <SCORE.INTRA.REPUL.0>
0

>  <SCORE.INTRA.SOLV>
0.228258

>  <SCORE.INTRA.SOLV.lig_0>
-48.9722

>  <SCORE.INTRA.VDW>
-0.0119765

>  <SCORE.INTRA.VDW.0>
-0.529409

>  <SCORE.INTRA.norm>
0.035529

>  <SCORE.RESTR>
0

>  <SCORE.RESTR.CAVITY>
0

>  <SCORE.RESTR.norm>
0

>  <SCORE.SYSTEM>
0

>  <SCORE.SYSTEM.CONST>
0

>  <SCORE.SYSTEM.DIHEDRAL>
0

>  <SCORE.SYSTEM.SOLV>
0

>  <SCORE.SYSTEM.norm>
0

>  <SCORE.heavy>
16

>  <SCORE.norm>
-0.592056

>  <RMSD>
40.113

$$$$
ligand
 OpenBabel11021811433D
libRbt.so/2013.1/901 2013/11/27
 16 16  0  0  0  0  0  0  0  0999 V2000
    9.6255   -1.6127    1.3467 P   0  0  2  0  0  0  0  0  0  0  0  0
    8.8156   -2.1274    2.4787 O   0  0  0  0  0  0  0  0  0  0  0  0
    8.6497   -1.2268    0.1266 O   0  5  0  0  0  0  0  0  0  0  0  0
   10.6438   -2.7658    0.8703 O   0  0  0  0  0  0  0  0  0  0  0  0
   10.3117    3.0257   -1.1328 C   0  0  2  0  0  0  0  0  0  0  0  0
    8.9183    2.7111   -1.3062 O   0  0  0  0  0  0  0  0  0  0  0  0
   11.0986    2.7844   -2.4465 C   0  0  2  0  0  0  0  0  0  0  0  0
   10.5228    3.5904   -3.5295 O   0  0  0  0  0  0  0  0  0  0  0  0
   10.9993    1.2904   -2.8080 C   0  0  1  0  0  0  0  0  0  0  0  0
   11.7241    1.0353   -4.0171 O   0  0  0  0  0  0  0  0  0  0  0  0
   11.6081    0.4759   -1.6559 C   0  0  2  0  0  0  0  0  0  0  0  0
   11.5168   -0.9315   -1.9655 O   0  0  0  0  0  0  0  0  0  0  0  0
   10.8107    0.7859   -0.3590 C   0  0  2  0  0  0  0  0  0  0  0  0
   10.8863    2.2127   -0.0561 O   0  0  0  0  0  0  0  0  0  0  0  0
   11.4356   -0.0010    0.8074 C   0  0  0  0  0  0  0  0  0  0  0  0
   10.4500   -0.2910    1.8061 O   0  0  0  0  0  0  0  0  0  0  0  0
  1  2  1  1  0  0  0
  1  3  1  0  0  0  0
  1  4  2  0  0  0  0
  1 16  1  0  0  0  0
  5  6  1  6  0  0  0
  5  7  1  0  0  0  0
  5 14  1  0  0  0  0
  7  8  1  6  0  0  0
  7  9  1  0  0  0  0
  9 10  1  6  0  0  0
  9 11  1  0  0  0  0
 11 12  1  6  0  0  0
 11 13  1  0  0  0  0
 13 14  1  0  0  0  0
 13 15  1  1  0  0  0
 15 16  1  0  0  0  0
M  CHG  1   3  -1
M  END
>  <CHROM.1>
-151.82025731,82.48875239,167.15573460,10.41495005,0.37078447,-0.57392469
1.93683629,-1.02389709,2.66991493

>  <Name>
ligand

>  <RI>
0

>  <Rbt.Current_Directory>
/home/itssahil/PROJECTS/Mol_Feturizer/New_Systems/rnas/2HO7

>  <Rbt.Executable>
rbdock ($Id: //depot/dev/client3/rdock/2013.1/src/exe/rbdock.cxx#4 $)

>  <Rbt.Library>
libRbt.so (2013.1, Build901 2013/11/27)

>  <Rbt.Parameter_File>
/export/apps/rDock/src/rDock_2013.1_src/data/scripts/dock_solv.prm

>  <Rbt.Receptor>
prm/blind_docking_60.prm

>  <SCORE>
-13.9507

>  <SCORE.INTER>
-18.1048

>  <SCORE.INTER.CONST>
1

>  <SCORE.INTER.POLAR>
-1.59099

>  <SCORE.INTER.ROT>
3

>  <SCORE.INTER.SOLV>
11.8666

>  <SCORE.INTER.VDW>
-16.3221

>  <SCORE.INTER.norm>
-1.13155

>  <SCORE.INTRA>
4.15415

>  <SCORE.INTRA.DIHEDRAL>
4.86107

>  <SCORE.INTRA.DIHEDRAL.0>
0.00893466

>  <SCORE.INTRA.POLAR>
0

>  <SCORE.INTRA.POLAR.0>
0

>  <SCORE.INTRA.REPUL>
0

>  <SCORE.INTRA.REPUL.0>
0

>  <SCORE.INTRA.SOLV>
4.47895

>  <SCORE.INTRA.SOLV.lig_0>
-48.9722

>  <SCORE.INTRA.VDW>
-0.515862

>  <SCORE.INTRA.VDW.0>
-0.529409

>  <SCORE.INTRA.norm>
0.259634

>  <SCORE.RESTR>
0

>  <SCORE.RESTR.CAVITY>
0

>  <SCORE.RESTR.norm>
0

>  <SCORE.SYSTEM>
0

>  <SCORE.SYSTEM.CONST>
0

>  <SCORE.SYSTEM.DIHEDRAL>
0

>  <SCORE.SYSTEM.SOLV>
0

>  <SCORE.SYSTEM.norm>
0

>  <SCORE.heavy>
16

>  <SCORE.norm>
-0.871918

>  <RMSD>
40.120

$$$$
ligand
 OpenBabel11021811433D
libRbt.so/2013.1/901 2013/11/27
 16 16  0  0  0  0  0  0  0  0999 V2000
    9.9924   -1.6512    3.1366 P   0  0  2  0  0  0  0  0  0  0  0  0
    8.8546   -2.3284    2.4665 O   0  0  0  0  0  0  0  0  0  0  0  0
   11.3055   -2.5740    3.0179 O   0  5  0  0  0  0  0  0  0  0  0  0
    9.6283   -1.4400    4.6911 O   0  0  0  0  0  0  0  0  0  0  0  0
   10.5047    2.9014   -0.5579 C   0  0  2  0  0  0  0  0  0  0  0  0
    9.0979    3.1460   -0.3792 O   0  0  0  0  0  0  0  0  0  0  0  0
   10.8093    2.4788   -2.0179 C   0  0  2  0  0  0  0  0  0  0  0  0
   10.3488    3.5185   -2.9458 O   0  0  0  0  0  0  0  0  0  0  0  0
   10.0661    1.1618   -2.3105 C   0  0  1  0  0  0  0  0  0  0  0  0
   10.3345    0.7422   -3.6538 O   0  0  0  0  0  0  0  0  0  0  0  0
   10.5691    0.0969   -1.3236 C   0  0  2  0  0  0  0  0  0  0  0  0
    9.8782   -1.1469   -1.5697 O   0  0  0  0  0  0  0  0  0  0  0  0
   10.2773    0.5880    0.1213 C   0  0  2  0  0  0  0  0  0  0  0  0
   10.9601    1.8561    0.3643 O   0  0  0  0  0  0  0  0  0  0  0  0
   10.8086   -0.4585    1.1176 C   0  0  0  0  0  0  0  0  0  0  0  0
   10.2841   -0.2186    2.4293 O   0  0  0  0  0  0  0  0  0  0  0  0
  1  2  1  6  0  0  0
  1  3  1  0  0  0  0
  1  4  2  0  0  0  0
  1 16  1  0  0  0  0
  5  6  1  6  0  0  0
  5  7  1  0  0  0  0
  5 14  1  0  0  0  0
  7  8  1  6  0  0  0
  7  9  1  0  0  0  0
  9 10  1  6  0  0  0
  9 11  1  0  0  0  0
 11 12  1  6  0  0  0
 11 13  1  0  0  0  0
 13 14  1  0  0  0  0
 13 15  1  1  0  0  0
 15 16  1  0  0  0  0
M  CHG  1   3  -1
M  END
>  <CHROM.1>
-165.94257391,142.88945783,-69.08608848,10.20137852,0.24160910,0.41044154
2.42125061,-1.52103668,3.04363312

>  <Name>
ligand

>  <RI>
0

>  <Rbt.Current_Directory>
/home/itssahil/PROJECTS/Mol_Feturizer/New_Systems/rnas/2HO7

>  <Rbt.Executable>
rbdock ($Id: //depot/dev/client3/rdock/2013.1/src/exe/rbdock.cxx#4 $)

>  <Rbt.Library>
libRbt.so (2013.1, Build901 2013/11/27)

>  <Rbt.Parameter_File>
/export/apps/rDock/src/rDock_2013.1_src/data/scripts/dock_solv.prm

>  <Rbt.Receptor>
prm/blind_docking_40.prm

>  <SCORE>
-10.3947

>  <SCORE.INTER>
-13.1914

>  <SCORE.INTER.CONST>
1

>  <SCORE.INTER.POLAR>
-0.765162

>  <SCORE.INTER.ROT>
3

>  <SCORE.INTER.SOLV>
18.734

>  <SCORE.INTER.VDW>
-18.0884

>  <SCORE.INTER.norm>
-0.824464

>  <SCORE.INTRA>
2.7927

>  <SCORE.INTRA.DIHEDRAL>
5.71717

>  <SCORE.INTRA.DIHEDRAL.0>
0.00893466

>  <SCORE.INTRA.POLAR>
0

>  <SCORE.INTRA.POLAR.0>
0

>  <SCORE.INTRA.REPUL>
0

>  <SCORE.INTRA.REPUL.0>
0

>  <SCORE.INTRA.SOLV>
0.011065

>  <SCORE.INTRA.SOLV.lig_0>
-48.9722

>  <SCORE.INTRA.VDW>
-0.0714177

>  <SCORE.INTRA.VDW.0>
-0.529409

>  <SCORE.INTRA.norm>
0.174544

>  <SCORE.RESTR>
0.00400518

>  <SCORE.RESTR.CAVITY>
0.00400518

>  <SCORE.RESTR.norm>
0.000250324

>  <SCORE.SYSTEM>
0

>  <SCORE.SYSTEM.CONST>
0

>  <SCORE.SYSTEM.DIHEDRAL>
0

>  <SCORE.SYSTEM.SOLV>
0

>  <SCORE.SYSTEM.norm>
0

>  <SCORE.heavy>
16

>  <SCORE.norm>
-0.64967

>  <RMSD>
40.122

$$$$
ligand
 OpenBabel11021811433D
libRbt.so/2013.1/901 2013/11/27
 16 16  0  0  0  0  0  0  0  0999 V2000
    9.6134   -1.6223    1.3569 P   0  0  2  0  0  0  0  0  0  0  0  0
    8.8165   -2.1287    2.5018 O   0  0  0  0  0  0  0  0  0  0  0  0
    8.6250   -1.2587    0.1401 O   0  5  0  0  0  0  0  0  0  0  0  0
   10.6362   -2.7740    0.8865 O   0  0  0  0  0  0  0  0  0  0  0  0
   10.2851    3.0167   -1.1461 C   0  0  2  0  0  0  0  0  0  0  0  0
    8.8939    2.6961   -1.3262 O   0  0  0  0  0  0  0  0  0  0  0  0
   11.0785    2.7835   -2.4573 C   0  0  2  0  0  0  0  0  0  0  0  0
   10.5033    3.5905   -3.5399 O   0  0  0  0  0  0  0  0  0  0  0  0
   10.9876    1.2903   -2.8242 C   0  0  1  0  0  0  0  0  0  0  0  0
   11.7187    1.0426   -4.0311 O   0  0  0  0  0  0  0  0  0  0  0  0
   11.5956    0.4748   -1.6724 C   0  0  2  0  0  0  0  0  0  0  0  0
   11.5122   -0.9320   -1.9870 O   0  0  0  0  0  0  0  0  0  0  0  0
   10.7914    0.7767   -0.3777 C   0  0  2  0  0  0  0  0  0  0  0  0
   10.8591    2.2028   -0.0697 O   0  0  0  0  0  0  0  0  0  0  0  0
   11.4152   -0.0112    0.7886 C   0  0  0  0  0  0  0  0  0  0  0  0
   10.4320   -0.2892    1.7931 O   0  0  0  0  0  0  0  0  0  0  0  0
  1  2  1  1  0  0  0
  1  3  1  0  0  0  0
  1  4  2  0  0  0  0
  1 16  1  0  0  0  0
  5  6  1  6  0  0  0
  5  7  1  0  0  0  0
  5 14  1  0  0  0  0
  7  8  1  6  0  0  0
  7  9  1  0  0  0  0
  9 10  1  6  0  0  0
  9 11  1  0  0  0  0
 11 12  1  6  0  0  0
 11 13  1  0  0  0  0
 13 14  1  0  0  0  0
 13 15  1  1  0  0  0
 15 16  1  0  0  0  0
M  CHG  1   3  -1
M  END
>  <CHROM.1>
-152.82005591,83.58239543,166.65785403,10.39951622,0.36438426,-0.58009526
1.93089904,-1.01698943,2.66056732

>  <Name>
ligand

>  <RI>
0

>  <Rbt.Current_Directory>
/home/itssahil/PROJECTS/Mol_Feturizer/New_Systems/rnas/2HO7

>  <Rbt.Executable>
rbdock ($Id: //depot/dev/client3/rdock/2013.1/src/exe/rbdock.cxx#4 $)

>  <Rbt.Library>
libRbt.so (2013.1, Build901 2013/11/27)

>  <Rbt.Parameter_File>
/export/apps/rDock/src/rDock_2013.1_src/data/scripts/dock_solv.prm

>  <Rbt.Receptor>
prm/blind_docking_60.prm

>  <SCORE>
-13.9434

>  <SCORE.INTER>
-18.0559

>  <SCORE.INTER.CONST>
1

>  <SCORE.INTER.POLAR>
-1.5876

>  <SCORE.INTER.ROT>
3

>  <SCORE.INTER.SOLV>
11.9455

>  <SCORE.INTER.VDW>
-16.3271

>  <SCORE.INTER.norm>
-1.12849

>  <SCORE.INTRA>
4.11245

>  <SCORE.INTRA.DIHEDRAL>
4.93632

>  <SCORE.INTRA.DIHEDRAL.0>
0.00893466

>  <SCORE.INTRA.POLAR>
0

>  <SCORE.INTRA.POLAR.0>
0

>  <SCORE.INTRA.REPUL>
0

>  <SCORE.INTRA.REPUL.0>
0

>  <SCORE.INTRA.SOLV>
4.32673

>  <SCORE.INTRA.SOLV.lig_0>
-48.9722

>  <SCORE.INTRA.VDW>
-0.519081

>  <SCORE.INTRA.VDW.0>
-0.529409

>  <SCORE.INTRA.norm>
0.257028

>  <SCORE.RESTR>
0

>  <SCORE.RESTR.CAVITY>
0

>  <SCORE.RESTR.norm>
0

>  <SCORE.SYSTEM>
0

>  <SCORE.SYSTEM.CONST>
0

>  <SCORE.SYSTEM.DIHEDRAL>
0

>  <SCORE.SYSTEM.SOLV>
0

>  <SCORE.SYSTEM.norm>
0

>  <SCORE.heavy>
16

>  <SCORE.norm>
-0.871465

>  <RMSD>
40.139

$$$$
ligand
 OpenBabel11021811433D
libRbt.so/2013.1/901 2013/11/27
 16 16  0  0  0  0  0  0  0  0999 V2000
   13.2284   -3.7101   -2.8059 P   0  0  2  0  0  0  0  0  0  0  0  0
   13.3104   -4.1876   -4.2086 O   0  0  0  0  0  0  0  0  0  0  0  0
   14.5962   -4.0729   -2.0396 O   0  5  0  0  0  0  0  0  0  0  0  0
   11.9971   -4.4490   -2.0770 O   0  0  0  0  0  0  0  0  0  0  0  0
   10.0228    1.4360   -4.2442 C   0  0  2  0  0  0  0  0  0  0  0  0
   11.1254    2.1802   -4.7928 O   0  0  0  0  0  0  0  0  0  0  0  0
    9.6915    1.9195   -2.8090 C   0  0  2  0  0  0  0  0  0  0  0  0
    9.3837    3.3545   -2.8234 O   0  0  0  0  0  0  0  0  0  0  0  0
   10.9179    1.6650   -1.9126 C   0  0  1  0  0  0  0  0  0  0  0  0
   10.6385    2.0968   -0.5754 O   0  0  0  0  0  0  0  0  0  0  0  0
   11.2138    0.1571   -1.9200 C   0  0  2  0  0  0  0  0  0  0  0  0
   12.3685   -0.1072   -1.0945 O   0  0  0  0  0  0  0  0  0  0  0  0
   11.4971   -0.2815   -3.3834 C   0  0  2  0  0  0  0  0  0  0  0  0
   10.3366    0.0037   -4.2230 O   0  0  0  0  0  0  0  0  0  0  0  0
   11.7618   -1.7979   -3.4041 C   0  0  0  0  0  0  0  0  0  0  0  0
   13.0137   -2.1005   -2.7762 O   0  0  0  0  0  0  0  0  0  0  0  0
  1  2  1  6  0  0  0
  1  3  1  0  0  0  0
  1  4  2  0  0  0  0
  1 16  1  0  0  0  0
  5  6  1  1  0  0  0
  5  7  1  0  0  0  0
  5 14  1  0  0  0  0
  7  8  1  6  0  0  0
  7  9  1  0  0  0  0
  9 10  1  1  0  0  0
  9 11  1  0  0  0  0
 11 12  1  1  0  0  0
 11 13  1  0  0  0  0
 13 14  1  0  0  0  0
 13 15  1  1  0  0  0
 15 16  1  0  0  0  0
M  CHG  1   3  -1
M  END
>  <CHROM.1>
-69.70749210,179.10994321,62.82669743,11.71807753,-0.75918482,-2.81072935
0.36225862,1.06106596,-1.99340544

>  <Name>
ligand

>  <RI>
0

>  <Rbt.Current_Directory>
/home/itssahil/PROJECTS/Mol_Feturizer/New_Systems/rnas/2HO7

>  <Rbt.Executable>
rbdock ($Id: //depot/dev/client3/rdock/2013.1/src/exe/rbdock.cxx#4 $)

>  <Rbt.Library>
libRbt.so (2013.1, Build901 2013/11/27)

>  <Rbt.Parameter_File>
/export/apps/rDock/src/rDock_2013.1_src/data/scripts/dock_solv.prm

>  <Rbt.Receptor>
prm/blind_docking_80.prm

>  <SCORE>
-7.35809

>  <SCORE.INTER>
-7.76192

>  <SCORE.INTER.CONST>
1

>  <SCORE.INTER.POLAR>
0

>  <SCORE.INTER.ROT>
3

>  <SCORE.INTER.SOLV>
11.6504

>  <SCORE.INTER.VDW>
-14.6581

>  <SCORE.INTER.norm>
-0.48512

>  <SCORE.INTRA>
0.403838

>  <SCORE.INTRA.DIHEDRAL>
0.342475

>  <SCORE.INTRA.DIHEDRAL.0>
0.00893466

>  <SCORE.INTRA.POLAR>
0

>  <SCORE.INTRA.POLAR.0>
0

>  <SCORE.INTRA.REPUL>
0

>  <SCORE.INTRA.REPUL.0>
0

>  <SCORE.INTRA.SOLV>
0.474883

>  <SCORE.INTRA.SOLV.lig_0>
-48.9722

>  <SCORE.INTRA.VDW>
-0.00484059

>  <SCORE.INTRA.VDW.0>
-0.529409

>  <SCORE.INTRA.norm>
0.0252399

>  <SCORE.RESTR>
0

>  <SCORE.RESTR.CAVITY>
0

>  <SCORE.RESTR.norm>
0

>  <SCORE.SYSTEM>
0

>  <SCORE.SYSTEM.CONST>
0

>  <SCORE.SYSTEM.DIHEDRAL>
0

>  <SCORE.SYSTEM.SOLV>
0

>  <SCORE.SYSTEM.norm>
0

>  <SCORE.heavy>
16

>  <SCORE.norm>
-0.45988

>  <RMSD>
40.145

$$$$
ligand
 OpenBabel11021811433D
libRbt.so/2013.1/901 2013/11/27
 16 16  0  0  0  0  0  0  0  0999 V2000
    9.7578   -1.6254    1.2015 P   0  0  2  0  0  0  0  0  0  0  0  0
   10.4709   -2.8113    0.6654 O   0  0  0  0  0  0  0  0  0  0  0  0
    8.9969   -2.0314    2.5601 O   0  5  0  0  0  0  0  0  0  0  0  0
    8.6781   -1.1328    0.1129 O   0  0  0  0  0  0  0  0  0  0  0  0
   10.3502    2.8883   -1.2684 C   0  0  2  0  0  0  0  0  0  0  0  0
    8.9491    2.5702   -1.3478 O   0  0  0  0  0  0  0  0  0  0  0  0
   11.0277    2.7424   -2.6550 C   0  0  2  0  0  0  0  0  0  0  0  0
   10.3602    3.6112   -3.6316 O   0  0  0  0  0  0  0  0  0  0  0  0
   10.9076    1.2743   -3.1053 C   0  0  1  0  0  0  0  0  0  0  0  0
   11.5320    1.1071   -4.3838 O   0  0  0  0  0  0  0  0  0  0  0  0
   11.6138    0.3929   -2.0634 C   0  0  2  0  0  0  0  0  0  0  0  0
   11.5054   -0.9921   -2.4570 O   0  0  0  0  0  0  0  0  0  0  0  0
   10.9240    0.6083   -0.6879 C   0  0  2  0  0  0  0  0  0  0  0  0
   11.0161    2.0130   -0.2984 O   0  0  0  0  0  0  0  0  0  0  0  0
   11.6472   -0.2463    0.3688 C   0  0  0  0  0  0  0  0  0  0  0  0
   10.8159   -0.4353    1.5204 O   0  0  0  0  0  0  0  0  0  0  0  0
  1  2  1  6  0  0  0
  1  3  1  0  0  0  0
  1  4  2  0  0  0  0
  1 16  1  0  0  0  0
  5  6  1  6  0  0  0
  5  7  1  0  0  0  0
  5 14  1  0  0  0  0
  7  8  1  6  0  0  0
  7  9  1  0  0  0  0
  9 10  1  6  0  0  0
  9 11  1  0  0  0  0
 11 12  1  6  0  0  0
 11 13  1  0  0  0  0
 13 14  1  0  0  0  0
 13 15  1  1  0  0  0
 15 16  1  0  0  0  0
M  CHG  1   3  -1
M  END
>  <CHROM.1>
-160.91877660,80.55726063,50.00033212,10.45491165,0.31290946,-0.79141474
1.90104841,-1.05181852,2.61186831

>  <Name>
ligand

>  <RI>
0

>  <Rbt.Current_Directory>
/home/itssahil/PROJECTS/Mol_Feturizer/New_Systems/rnas/2HO7

>  <Rbt.Executable>
rbdock ($Id: //depot/dev/client3/rdock/2013.1/src/exe/rbdock.cxx#4 $)

>  <Rbt.Library>
libRbt.so (2013.1, Build901 2013/11/27)

>  <Rbt.Parameter_File>
/export/apps/rDock/src/rDock_2013.1_src/data/scripts/dock_solv.prm

>  <Rbt.Receptor>
prm/blind_docking_80.prm

>  <SCORE>
-13.083

>  <SCORE.INTER>
-15.772

>  <SCORE.INTER.CONST>
1

>  <SCORE.INTER.POLAR>
-1.59004

>  <SCORE.INTER.ROT>
3

>  <SCORE.INTER.SOLV>
14.3842

>  <SCORE.INTER.VDW>
-15.6093

>  <SCORE.INTER.norm>
-0.985751

>  <SCORE.INTRA>
2.68906

>  <SCORE.INTRA.DIHEDRAL>
3.25478

>  <SCORE.INTRA.DIHEDRAL.0>
0.00893466

>  <SCORE.INTRA.POLAR>
0

>  <SCORE.INTRA.POLAR.0>
0

>  <SCORE.INTRA.REPUL>
0

>  <SCORE.INTRA.REPUL.0>
0

>  <SCORE.INTRA.SOLV>
2.73851

>  <SCORE.INTRA.SOLV.lig_0>
-48.9722

>  <SCORE.INTRA.VDW>
-0.307588

>  <SCORE.INTRA.VDW.0>
-0.529409

>  <SCORE.INTRA.norm>
0.168066

>  <SCORE.RESTR>
0

>  <SCORE.RESTR.CAVITY>
0

>  <SCORE.RESTR.norm>
0

>  <SCORE.SYSTEM>
0

>  <SCORE.SYSTEM.CONST>
0

>  <SCORE.SYSTEM.DIHEDRAL>
0

>  <SCORE.SYSTEM.SOLV>
0

>  <SCORE.SYSTEM.norm>
0

>  <SCORE.heavy>
16

>  <SCORE.norm>
-0.817685

>  <RMSD>
40.170

$$$$
ligand
 OpenBabel11021811433D
libRbt.so/2013.1/901 2013/11/27
 16 16  0  0  0  0  0  0  0  0999 V2000
    9.8194   -1.6210    1.2161 P   0  0  2  0  0  0  0  0  0  0  0  0
   10.6273   -2.7822    0.7676 O   0  0  0  0  0  0  0  0  0  0  0  0
    9.0560   -1.9995    2.5812 O   0  5  0  0  0  0  0  0  0  0  0  0
    8.7347   -1.2725    0.0779 O   0  0  0  0  0  0  0  0  0  0  0  0
   10.3081    2.9279   -1.3767 C   0  0  2  0  0  0  0  0  0  0  0  0
    8.9096    2.5976   -1.4528 O   0  0  0  0  0  0  0  0  0  0  0  0
   10.9910    2.7545   -2.7575 C   0  0  2  0  0  0  0  0  0  0  0  0
   10.3202    3.5953   -3.7562 O   0  0  0  0  0  0  0  0  0  0  0  0
   10.8830    1.2755   -3.1737 C   0  0  1  0  0  0  0  0  0  0  0  0
   11.5127    1.0830   -4.4461 O   0  0  0  0  0  0  0  0  0  0  0  0
   11.5924    0.4239   -2.1093 C   0  0  2  0  0  0  0  0  0  0  0  0
   11.4954   -0.9706   -2.4707 O   0  0  0  0  0  0  0  0  0  0  0  0
   10.8967    0.6664   -0.7414 C   0  0  2  0  0  0  0  0  0  0  0  0
   10.9773    2.0804   -0.3846 O   0  0  0  0  0  0  0  0  0  0  0  0
   11.6228   -0.1579    0.3372 C   0  0  0  0  0  0  0  0  0  0  0  0
   10.7828   -0.3410    1.4834 O   0  0  0  0  0  0  0  0  0  0  0  0
  1  2  1  6  0  0  0
  1  3  1  0  0  0  0
  1  4  2  0  0  0  0
  1 16  1  0  0  0  0
  5  6  1  6  0  0  0
  5  7  1  0  0  0  0
  5 14  1  0  0  0  0
  7  8  1  6  0  0  0
  7  9  1  0  0  0  0
  9 10  1  6  0  0  0
  9 11  1  0  0  0  0
 11 12  1  6  0  0  0
 11 13  1  0  0  0  0
 13 14  1  0  0  0  0
 13 15  1  1  0  0  0
 15 16  1  0  0  0  0
M  CHG  1   3  -1
M  END
>  <CHROM.1>
-160.15766881,84.52262674,50.23451388,10.45904370,0.33139220,-0.83221691
1.86690646,-1.06100517,2.57296793

>  <Name>
ligand

>  <RI>
0

>  <Rbt.Current_Directory>
/home/itssahil/PROJECTS/Mol_Feturizer/New_Systems/rnas/2HO7

>  <Rbt.Executable>
rbdock ($Id: //depot/dev/client3/rdock/2013.1/src/exe/rbdock.cxx#4 $)

>  <Rbt.Library>
libRbt.so (2013.1, Build901 2013/11/27)

>  <Rbt.Parameter_File>
/export/apps/rDock/src/rDock_2013.1_src/data/scripts/dock_solv.prm

>  <Rbt.Receptor>
prm/blind_docking_60.prm

>  <SCORE>
-12.9091

>  <SCORE.INTER>
-15.7831

>  <SCORE.INTER.CONST>
1

>  <SCORE.INTER.POLAR>
-1.59099

>  <SCORE.INTER.ROT>
3

>  <SCORE.INTER.SOLV>
14.1614

>  <SCORE.INTER.VDW>
-15.5392

>  <SCORE.INTER.norm>
-0.986444

>  <SCORE.INTRA>
2.87402

>  <SCORE.INTRA.DIHEDRAL>
4.02694

>  <SCORE.INTRA.DIHEDRAL.0>
0.00893466

>  <SCORE.INTRA.POLAR>
0

>  <SCORE.INTRA.POLAR.0>
0

>  <SCORE.INTRA.REPUL>
0

>  <SCORE.INTRA.REPUL.0>
0

>  <SCORE.INTRA.SOLV>
2.44705

>  <SCORE.INTRA.SOLV.lig_0>
-48.9722

>  <SCORE.INTRA.VDW>
-0.362971

>  <SCORE.INTRA.VDW.0>
-0.529409

>  <SCORE.INTRA.norm>
0.179627

>  <SCORE.RESTR>
0

>  <SCORE.RESTR.CAVITY>
0

>  <SCORE.RESTR.norm>
0

>  <SCORE.SYSTEM>
0

>  <SCORE.SYSTEM.CONST>
0

>  <SCORE.SYSTEM.DIHEDRAL>
0

>  <SCORE.SYSTEM.SOLV>
0

>  <SCORE.SYSTEM.norm>
0

>  <SCORE.heavy>
16

>  <SCORE.norm>
-0.806817

>  <RMSD>
40.180

$$$$
ligand
 OpenBabel11021811433D
libRbt.so/2013.1/901 2013/11/27
 16 16  0  0  0  0  0  0  0  0999 V2000
    9.6354    2.1695   -1.3735 P   0  0  2  0  0  0  0  0  0  0  0  0
    8.9614    3.0583   -0.3947 O   0  0  0  0  0  0  0  0  0  0  0  0
    9.7112    2.9100   -2.8003 O   0  5  0  0  0  0  0  0  0  0  0  0
    8.7773    0.8147   -1.5213 O   0  0  0  0  0  0  0  0  0  0  0  0
   10.8341   -2.2526   -0.9204 C   0  0  2  0  0  0  0  0  0  0  0  0
    9.4129   -2.3520   -1.1227 O   0  0  0  0  0  0  0  0  0  0  0  0
   11.2669   -3.0377    0.3443 C   0  0  2  0  0  0  0  0  0  0  0  0
   10.8644   -4.4438    0.2219 O   0  0  0  0  0  0  0  0  0  0  0  0
   10.5764   -2.4094    1.5693 C   0  0  1  0  0  0  0  0  0  0  0  0
   10.9632   -3.1116    2.7567 O   0  0  0  0  0  0  0  0  0  0  0  0
   11.0167   -0.9405    1.6681 C   0  0  2  0  0  0  0  0  0  0  0  0
   10.3731   -0.3242    2.8043 O   0  0  0  0  0  0  0  0  0  0  0  0
   10.5967   -0.2119    0.3617 C   0  0  2  0  0  0  0  0  0  0  0  0
   11.2320   -0.8472   -0.7899 O   0  0  0  0  0  0  0  0  0  0  0  0
   11.0641    1.2529    0.4386 C   0  0  0  0  0  0  0  0  0  0  0  0
   11.1416    1.8275   -0.8717 O   0  0  0  0  0  0  0  0  0  0  0  0
  1  2  1  1  0  0  0
  1  3  1  0  0  0  0
  1  4  2  0  0  0  0
  1 16  1  0  0  0  0
  5  6  1  1  0  0  0
  5  7  1  0  0  0  0
  5 14  1  0  0  0  0
  7  8  1  6  0  0  0
  7  9  1  0  0  0  0
  9 10  1  1  0  0  0
  9 11  1  0  0  0  0
 11 12  1  1  0  0  0
 11 13  1  0  0  0  0
 13 14  1  0  0  0  0
 13 15  1  1  0  0  0
 15 16  1  0  0  0  0
M  CHG  1   3  -1
M  END
>  <CHROM.1>
159.31148540,76.43309507,56.13129605,10.32464915,-0.27535258,-0.09650534
2.58844077,-1.34217290,0.55701966

>  <Name>
ligand

>  <RI>
0

>  <Rbt.Current_Directory>
/home/itssahil/PROJECTS/Mol_Feturizer/New_Systems/rnas/2HO7

>  <Rbt.Executable>
rbdock ($Id: //depot/dev/client3/rdock/2013.1/src/exe/rbdock.cxx#4 $)

>  <Rbt.Library>
libRbt.so (2013.1, Build901 2013/11/27)

>  <Rbt.Parameter_File>
/export/apps/rDock/src/rDock_2013.1_src/data/scripts/dock_solv.prm

>  <Rbt.Receptor>
prm/blind_docking_100.prm

>  <SCORE>
-15.0308

>  <SCORE.INTER>
-18.0651

>  <SCORE.INTER.CONST>
1

>  <SCORE.INTER.POLAR>
-2.86378

>  <SCORE.INTER.ROT>
3

>  <SCORE.INTER.SOLV>
17.753

>  <SCORE.INTER.VDW>
-14.0151

>  <SCORE.INTER.norm>
-1.12907

>  <SCORE.INTRA>
3.029

>  <SCORE.INTRA.DIHEDRAL>
2.67308

>  <SCORE.INTRA.DIHEDRAL.0>
0.00893466

>  <SCORE.INTRA.POLAR>
0

>  <SCORE.INTRA.POLAR.0>
0

>  <SCORE.INTRA.REPUL>
0

>  <SCORE.INTRA.REPUL.0>
0

>  <SCORE.INTRA.SOLV>
3.50318

>  <SCORE.INTRA.SOLV.lig_0>
-48.9722

>  <SCORE.INTRA.VDW>
-0.0591275

>  <SCORE.INTRA.VDW.0>
-0.529409

>  <SCORE.INTRA.norm>
0.189313

>  <SCORE.RESTR>
0.00529259

>  <SCORE.RESTR.CAVITY>
0.00529259

>  <SCORE.RESTR.norm>
0.000330787

>  <SCORE.SYSTEM>
0

>  <SCORE.SYSTEM.CONST>
0

>  <SCORE.SYSTEM.DIHEDRAL>
0

>  <SCORE.SYSTEM.SOLV>
0

>  <SCORE.SYSTEM.norm>
0

>  <SCORE.heavy>
16

>  <SCORE.norm>
-0.939426

>  <RMSD>
40.212

$$$$
ligand
 OpenBabel11021811433D
libRbt.so/2013.1/901 2013/11/27
 16 16  0  0  0  0  0  0  0  0999 V2000
    9.9634    1.7956   -1.2113 P   0  0  2  0  0  0  0  0  0  0  0  0
    9.1535    3.0290   -1.3689 O   0  0  0  0  0  0  0  0  0  0  0  0
   11.3759    1.9877   -1.9580 O   0  5  0  0  0  0  0  0  0  0  0  0
    9.1700    0.5643   -1.8806 O   0  0  0  0  0  0  0  0  0  0  0  0
   10.5688   -2.5410   -1.4935 C   0  0  2  0  0  0  0  0  0  0  0  0
    9.1728   -2.7026   -1.1844 O   0  0  0  0  0  0  0  0  0  0  0  0
   11.4306   -3.5519   -0.6945 C   0  0  2  0  0  0  0  0  0  0  0  0
   10.9964   -4.9224   -0.9901 O   0  0  0  0  0  0  0  0  0  0  0  0
   11.2497   -3.2674    0.8084 C   0  0  1  0  0  0  0  0  0  0  0  0
   12.0412   -4.1841    1.5737 O   0  0  0  0  0  0  0  0  0  0  0  0
   11.7112   -1.8278    1.0837 C   0  0  2  0  0  0  0  0  0  0  0  0
   11.5407   -1.5315    2.4866 O   0  0  0  0  0  0  0  0  0  0  0  0
   10.8451   -0.8615    0.2292 C   0  0  2  0  0  0  0  0  0  0  0  0
   11.0019   -1.1734   -1.1890 O   0  0  0  0  0  0  0  0  0  0  0  0
   11.3235    0.5811    0.4741 C   0  0  0  0  0  0  0  0  0  0  0  0
   10.2306    1.5011    0.3634 O   0  0  0  0  0  0  0  0  0  0  0  0
  1  2  1  6  0  0  0
  1  3  1  0  0  0  0
  1  4  2  0  0  0  0
  1 16  1  0  0  0  0
  5  6  1  1  0  0  0
  5  7  1  0  0  0  0
  5 14  1  0  0  0  0
  7  8  1  1  0  0  0
  7  9  1  0  0  0  0
  9 10  1  1  0  0  0
  9 11  1  0  0  0  0
 11 12  1  1  0  0  0
 11 13  1  0  0  0  0
 13 14  1  0  0  0  0
 13 15  1  6  0  0  0
 15 16  1  0  0  0  0
M  CHG  1   3  -1
M  END
>  <CHROM.1>
-148.25748620,-80.46750699,-162.45331331,10.66093079,-0.83438311,-0.38605621
2.08910328,-1.11017293,0.20687201

>  <Name>
ligand

>  <RI>
0

>  <Rbt.Current_Directory>
/home/itssahil/PROJECTS/Mol_Feturizer/New_Systems/rnas/2HO7

>  <Rbt.Executable>
rbdock ($Id: //depot/dev/client3/rdock/2013.1/src/exe/rbdock.cxx#4 $)

>  <Rbt.Library>
libRbt.so (2013.1, Build901 2013/11/27)

>  <Rbt.Parameter_File>
/export/apps/rDock/src/rDock_2013.1_src/data/scripts/dock_solv.prm

>  <Rbt.Receptor>
prm/blind_docking_40.prm

>  <SCORE>
-12.9008

>  <SCORE.INTER>
-17.9358

>  <SCORE.INTER.CONST>
1

>  <SCORE.INTER.POLAR>
-2.86257

>  <SCORE.INTER.ROT>
3

>  <SCORE.INTER.SOLV>
13.3328

>  <SCORE.INTER.VDW>
-12.4596

>  <SCORE.INTER.norm>
-1.12099

>  <SCORE.INTRA>
5.03504

>  <SCORE.INTRA.DIHEDRAL>
5.2173

>  <SCORE.INTRA.DIHEDRAL.0>
0.00893466

>  <SCORE.INTRA.POLAR>
0

>  <SCORE.INTRA.POLAR.0>
0

>  <SCORE.INTRA.REPUL>
0

>  <SCORE.INTRA.REPUL.0>
0

>  <SCORE.INTRA.SOLV>
5.31438

>  <SCORE.INTRA.SOLV.lig_0>
-48.9722

>  <SCORE.INTRA.VDW>
-0.230799

>  <SCORE.INTRA.VDW.0>
-0.529409

>  <SCORE.INTRA.norm>
0.31469

>  <SCORE.RESTR>
0

>  <SCORE.RESTR.CAVITY>
0

>  <SCORE.RESTR.norm>
0

>  <SCORE.SYSTEM>
0

>  <SCORE.SYSTEM.CONST>
0

>  <SCORE.SYSTEM.DIHEDRAL>
0

>  <SCORE.SYSTEM.SOLV>
0

>  <SCORE.SYSTEM.norm>
0

>  <SCORE.heavy>
16

>  <SCORE.norm>
-0.8063

>  <RMSD>
40.215

$$$$
ligand
 OpenBabel11021811433D
libRbt.so/2013.1/901 2013/11/27
 16 16  0  0  0  0  0  0  0  0999 V2000
   10.7471    2.1774   -3.2320 P   0  0  2  0  0  0  0  0  0  0  0  0
    9.3914    1.9439   -2.6756 O   0  0  0  0  0  0  0  0  0  0  0  0
   11.4702    3.3482   -2.3976 O   0  5  0  0  0  0  0  0  0  0  0  0
   10.6058    2.6293   -4.7713 O   0  0  0  0  0  0  0  0  0  0  0  0
   13.6761   -2.8487   -3.5270 C   0  0  2  0  0  0  0  0  0  0  0  0
   13.2112   -3.8230   -4.4784 O   0  0  0  0  0  0  0  0  0  0  0  0
   13.2976   -3.2649   -2.0825 C   0  0  2  0  0  0  0  0  0  0  0  0
   13.8607   -4.5859   -1.7790 O   0  0  0  0  0  0  0  0  0  0  0  0
   11.7620   -3.3234   -1.9775 C   0  0  1  0  0  0  0  0  0  0  0  0
   11.3812   -3.7001   -0.6488 O   0  0  0  0  0  0  0  0  0  0  0  0
   11.2049   -1.9285   -2.3016 C   0  0  2  0  0  0  0  0  0  0  0  0
    9.7635   -1.9592   -2.2212 O   0  0  0  0  0  0  0  0  0  0  0  0
   11.6472   -1.5440   -3.7405 C   0  0  2  0  0  0  0  0  0  0  0  0
   13.1051   -1.5319   -3.8276 O   0  0  0  0  0  0  0  0  0  0  0  0
   11.1209   -0.1331   -4.0607 C   0  0  0  0  0  0  0  0  0  0  0  0
   11.6354    0.8220   -3.1247 O   0  0  0  0  0  0  0  0  0  0  0  0
  1  2  1  1  0  0  0
  1  3  1  0  0  0  0
  1  4  2  0  0  0  0
  1 16  1  0  0  0  0
  5  6  1  6  0  0  0
  5  7  1  0  0  0  0
  5 14  1  0  0  0  0
  7  8  1  6  0  0  0
  7  9  1  0  0  0  0
  9 10  1  1  0  0  0
  9 11  1  0  0  0  0
 11 12  1  6  0  0  0
 11 13  1  0  0  0  0
 13 14  1  0  0  0  0
 13 15  1  1  0  0  0
 15 16  1  0  0  0  0
M  CHG  1   3  -1
M  END
>  <CHROM.1>
59.37652358,-164.15086981,70.53868531,11.65494796,-0.83510979,-2.94885709
2.04331500,0.73825449,-0.47760568

>  <Name>
ligand

>  <RI>
0

>  <Rbt.Current_Directory>
/home/itssahil/PROJECTS/Mol_Feturizer/New_Systems/rnas/2HO7

>  <Rbt.Executable>
rbdock ($Id: //depot/dev/client3/rdock/2013.1/src/exe/rbdock.cxx#4 $)

>  <Rbt.Library>
libRbt.so (2013.1, Build901 2013/11/27)

>  <Rbt.Parameter_File>
/export/apps/rDock/src/rDock_2013.1_src/data/scripts/dock_solv.prm

>  <Rbt.Receptor>
prm/blind_docking_40.prm

>  <SCORE>
-10.9206

>  <SCORE.INTER>
-11.6679

>  <SCORE.INTER.CONST>
1

>  <SCORE.INTER.POLAR>
-1.27279

>  <SCORE.INTER.ROT>
3

>  <SCORE.INTER.SOLV>
20.556

>  <SCORE.INTER.VDW>
-15.9879

>  <SCORE.INTER.norm>
-0.729242

>  <SCORE.INTRA>
0.747259

>  <SCORE.INTRA.DIHEDRAL>
1.33993

>  <SCORE.INTRA.DIHEDRAL.0>
0.00893466

>  <SCORE.INTRA.POLAR>
0

>  <SCORE.INTRA.POLAR.0>
0

>  <SCORE.INTRA.REPUL>
0

>  <SCORE.INTRA.REPUL.0>
0

>  <SCORE.INTRA.SOLV>
0.425036

>  <SCORE.INTRA.SOLV.lig_0>
-48.9722

>  <SCORE.INTRA.VDW>
-0.135225

>  <SCORE.INTRA.VDW.0>
-0.529409

>  <SCORE.INTRA.norm>
0.0467037

>  <SCORE.RESTR>
0

>  <SCORE.RESTR.CAVITY>
0

>  <SCORE.RESTR.norm>
0

>  <SCORE.SYSTEM>
0

>  <SCORE.SYSTEM.CONST>
0

>  <SCORE.SYSTEM.DIHEDRAL>
0

>  <SCORE.SYSTEM.SOLV>
0

>  <SCORE.SYSTEM.norm>
0

>  <SCORE.heavy>
16

>  <SCORE.norm>
-0.682538

>  <RMSD>
40.263

$$$$
ligand
 OpenBabel11021811433D
libRbt.so/2013.1/901 2013/11/27
 16 16  0  0  0  0  0  0  0  0999 V2000
    9.6851    1.6805   -0.5114 P   0  0  2  0  0  0  0  0  0  0  0  0
    8.8726    2.3360    0.5434 O   0  0  0  0  0  0  0  0  0  0  0  0
   10.4563    2.8057   -1.3651 O   0  5  0  0  0  0  0  0  0  0  0  0
    8.7036    0.8532   -1.4839 O   0  0  0  0  0  0  0  0  0  0  0  0
   12.6988   -3.2075    1.0939 C   0  0  2  0  0  0  0  0  0  0  0  0
   13.5615   -2.9595   -0.0308 O   0  0  0  0  0  0  0  0  0  0  0  0
   11.8164   -4.4578    0.8463 C   0  0  2  0  0  0  0  0  0  0  0  0
   12.6662   -5.6258    0.5858 O   0  0  0  0  0  0  0  0  0  0  0  0
   10.9212   -4.1892   -0.3780 C   0  0  1  0  0  0  0  0  0  0  0  0
   10.0878   -5.3274   -0.6279 O   0  0  0  0  0  0  0  0  0  0  0  0
   10.0471   -2.9625   -0.0740 C   0  0  2  0  0  0  0  0  0  0  0  0
    9.2048   -2.6820   -1.2128 O   0  0  0  0  0  0  0  0  0  0  0  0
   10.9791   -1.7515    0.2066 C   0  0  2  0  0  0  0  0  0  0  0  0
   11.8450   -2.0423    1.3463 O   0  0  0  0  0  0  0  0  0  0  0  0
   10.1113   -0.5258    0.5450 C   0  0  0  0  0  0  0  0  0  0  0  0
   10.7763    0.6846    0.1632 O   0  0  0  0  0  0  0  0  0  0  0  0
  1  2  1  1  0  0  0
  1  3  1  0  0  0  0
  1  4  2  0  0  0  0
  1 16  1  0  0  0  0
  5  6  1  6  0  0  0
  5  7  1  0  0  0  0
  5 14  1  0  0  0  0
  7  8  1  6  0  0  0
  7  9  1  0  0  0  0
  9 10  1  1  0  0  0
  9 11  1  0  0  0  0
 11 12  1  6  0  0  0
 11 13  1  0  0  0  0
 13 14  1  0  0  0  0
 13 15  1  1  0  0  0
 15 16  1  0  0  0  0
M  CHG  1   3  -1
M  END
>  <CHROM.1>
-151.04174992,138.42681669,78.39248343,10.68766021,-1.42604635,-0.07650153
-1.94409044,0.45629148,-3.09706458

>  <Name>
ligand

>  <RI>
0

>  <Rbt.Current_Directory>
/home/itssahil/PROJECTS/Mol_Feturizer/New_Systems/rnas/2HO7

>  <Rbt.Executable>
rbdock ($Id: //depot/dev/client3/rdock/2013.1/src/exe/rbdock.cxx#4 $)

>  <Rbt.Library>
libRbt.so (2013.1, Build901 2013/11/27)

>  <Rbt.Parameter_File>
/export/apps/rDock/src/rDock_2013.1_src/data/scripts/dock_solv.prm

>  <Rbt.Receptor>
prm/blind_docking_60.prm

>  <SCORE>
-12.3247

>  <SCORE.INTER>
-17.1033

>  <SCORE.INTER.CONST>
1

>  <SCORE.INTER.POLAR>
-2.86113

>  <SCORE.INTER.ROT>
3

>  <SCORE.INTER.SOLV>
16.8658

>  <SCORE.INTER.VDW>
-13.087

>  <SCORE.INTER.norm>
-1.06896

>  <SCORE.INTRA>
4.77858

>  <SCORE.INTRA.DIHEDRAL>
8.64932

>  <SCORE.INTRA.DIHEDRAL.0>
0.00893466

>  <SCORE.INTRA.POLAR>
0

>  <SCORE.INTRA.POLAR.0>
0

>  <SCORE.INTRA.REPUL>
0

>  <SCORE.INTRA.REPUL.0>
0

>  <SCORE.INTRA.SOLV>
1.08997

>  <SCORE.INTRA.SOLV.lig_0>
-48.9722

>  <SCORE.INTRA.VDW>
-0.0910662

>  <SCORE.INTRA.VDW.0>
-0.529409

>  <SCORE.INTRA.norm>
0.298661

>  <SCORE.RESTR>
0

>  <SCORE.RESTR.CAVITY>
0

>  <SCORE.RESTR.norm>
0

>  <SCORE.SYSTEM>
0

>  <SCORE.SYSTEM.CONST>
0

>  <SCORE.SYSTEM.DIHEDRAL>
0

>  <SCORE.SYSTEM.SOLV>
0

>  <SCORE.SYSTEM.norm>
0

>  <SCORE.heavy>
16

>  <SCORE.norm>
-0.770295

>  <RMSD>
40.314

$$$$
ligand
 OpenBabel11021811433D
libRbt.so/2013.1/901 2013/11/27
 16 16  0  0  0  0  0  0  0  0999 V2000
    9.3132   -1.6430    0.9738 P   0  0  2  0  0  0  0  0  0  0  0  0
    9.0876   -1.5171    2.4352 O   0  0  0  0  0  0  0  0  0  0  0  0
    8.3464   -0.6182    0.1960 O   0  5  0  0  0  0  0  0  0  0  0  0
    8.9662   -3.1495    0.5227 O   0  0  0  0  0  0  0  0  0  0  0  0
   10.2565    3.1482   -1.2748 C   0  0  2  0  0  0  0  0  0  0  0  0
    8.8620    2.9107   -1.5390 O   0  0  0  0  0  0  0  0  0  0  0  0
   11.1164    2.8268   -2.5240 C   0  0  2  0  0  0  0  0  0  0  0  0
   10.6662    3.6361   -3.6626 O   0  0  0  0  0  0  0  0  0  0  0  0
   10.9529    1.3321   -2.8581 C   0  0  1  0  0  0  0  0  0  0  0  0
   11.7430    1.0033   -4.0071 O   0  0  0  0  0  0  0  0  0  0  0  0
   11.4308    0.5143   -1.6481 C   0  0  2  0  0  0  0  0  0  0  0  0
   11.2769   -0.8931   -1.9318 O   0  0  0  0  0  0  0  0  0  0  0  0
   10.5657    0.9044   -0.4179 C   0  0  2  0  0  0  0  0  0  0  0  0
   10.7056    2.3319   -0.1424 O   0  0  0  0  0  0  0  0  0  0  0  0
   11.0602    0.1136    0.8069 C   0  0  0  0  0  0  0  0  0  0  0  0
   10.8579   -1.2920    0.6156 O   0  0  0  0  0  0  0  0  0  0  0  0
  1  2  1  1  0  0  0
  1  3  1  0  0  0  0
  1  4  2  0  0  0  0
  1 16  1  0  0  0  0
  5  6  1  6  0  0  0
  5  7  1  0  0  0  0
  5 14  1  0  0  0  0
  7  8  1  6  0  0  0
  7  9  1  0  0  0  0
  9 10  1  6  0  0  0
  9 11  1  0  0  0  0
 11 12  1  6  0  0  0
 11 13  1  0  0  0  0
 13 14  1  0  0  0  0
 13 15  1  1  0  0  0
 15 16  1  0  0  0  0
M  CHG  1   3  -1
M  END
>  <CHROM.1>
-64.10689428,-81.53889578,-70.17911390,10.22849830,0.40495957,-0.75678569
2.03922748,-1.01064330,2.82112818

>  <Name>
ligand

>  <RI>
0

>  <Rbt.Current_Directory>
/home/itssahil/PROJECTS/Mol_Feturizer/New_Systems/rnas/2HO7

>  <Rbt.Executable>
rbdock ($Id: //depot/dev/client3/rdock/2013.1/src/exe/rbdock.cxx#4 $)

>  <Rbt.Library>
libRbt.so (2013.1, Build901 2013/11/27)

>  <Rbt.Parameter_File>
/export/apps/rDock/src/rDock_2013.1_src/data/scripts/dock_solv.prm

>  <Rbt.Receptor>
prm/blind_docking_20.prm

>  <SCORE>
-13.7457

>  <SCORE.INTER>
-17.0857

>  <SCORE.INTER.CONST>
1

>  <SCORE.INTER.POLAR>
-1.59099

>  <SCORE.INTER.ROT>
3

>  <SCORE.INTER.SOLV>
15.7064

>  <SCORE.INTER.VDW>
-16.9226

>  <SCORE.INTER.norm>
-1.06786

>  <SCORE.INTRA>
3.34002

>  <SCORE.INTRA.DIHEDRAL>
2.27647

>  <SCORE.INTRA.DIHEDRAL.0>
0.00893466

>  <SCORE.INTRA.POLAR>
0

>  <SCORE.INTRA.POLAR.0>
0

>  <SCORE.INTRA.REPUL>
0

>  <SCORE.INTRA.REPUL.0>
0

>  <SCORE.INTRA.SOLV>
3.89439

>  <SCORE.INTRA.SOLV.lig_0>
-48.9722

>  <SCORE.INTRA.VDW>
0.254593

>  <SCORE.INTRA.VDW.0>
-0.529409

>  <SCORE.INTRA.norm>
0.208751

>  <SCORE.RESTR>
0

>  <SCORE.RESTR.CAVITY>
0

>  <SCORE.RESTR.norm>
0

>  <SCORE.SYSTEM>
0

>  <SCORE.SYSTEM.CONST>
0

>  <SCORE.SYSTEM.DIHEDRAL>
0

>  <SCORE.SYSTEM.SOLV>
0

>  <SCORE.SYSTEM.norm>
0

>  <SCORE.heavy>
16

>  <SCORE.norm>
-0.859104

>  <RMSD>
40.324

$$$$
ligand
 OpenBabel11021811433D
libRbt.so/2013.1/901 2013/11/27
 16 16  0  0  0  0  0  0  0  0999 V2000
   10.8723    2.1493   -3.2173 P   0  0  2  0  0  0  0  0  0  0  0  0
   11.6901    3.2354   -2.6225 O   0  0  0  0  0  0  0  0  0  0  0  0
   10.6255    2.4620   -4.7765 O   0  5  0  0  0  0  0  0  0  0  0  0
    9.4550    2.0896   -2.4550 O   0  0  0  0  0  0  0  0  0  0  0  0
   13.6336   -2.8857   -3.4944 C   0  0  2  0  0  0  0  0  0  0  0  0
   13.2389   -3.8037   -4.5299 O   0  0  0  0  0  0  0  0  0  0  0  0
   13.2172   -3.4170   -2.0990 C   0  0  2  0  0  0  0  0  0  0  0  0
   13.8154   -4.7371   -1.8677 O   0  0  0  0  0  0  0  0  0  0  0  0
   11.6819   -3.5333   -2.0587 C   0  0  1  0  0  0  0  0  0  0  0  0
   11.2661   -4.0168   -0.7758 O   0  0  0  0  0  0  0  0  0  0  0  0
   11.0878   -2.1377   -2.3049 C   0  0  2  0  0  0  0  0  0  0  0  0
    9.6465   -2.2214   -2.2836 O   0  0  0  0  0  0  0  0  0  0  0  0
   11.5688   -1.6363   -3.6947 C   0  0  2  0  0  0  0  0  0  0  0  0
   13.0276   -1.5701   -3.7234 O   0  0  0  0  0  0  0  0  0  0  0  0
   11.0049   -0.2241   -3.9348 C   0  0  0  0  0  0  0  0  0  0  0  0
   11.6452    0.7279   -3.0764 O   0  0  0  0  0  0  0  0  0  0  0  0
  1  2  1  1  0  0  0
  1  3  1  0  0  0  0
  1  4  2  0  0  0  0
  1 16  1  0  0  0  0
  5  6  1  6  0  0  0
  5  7  1  0  0  0  0
  5 14  1  0  0  0  0
  7  8  1  6  0  0  0
  7  9  1  0  0  0  0
  9 10  1  1  0  0  0
  9 11  1  0  0  0  0
 11 12  1  6  0  0  0
 11 13  1  0  0  0  0
 13 14  1  0  0  0  0
 13 15  1  1  0  0  0
 15 16  1  0  0  0  0
M  CHG  1   3  -1
M  END
>  <CHROM.1>
70.44342466,-172.02782210,-165.86756129,11.64251346,-0.94102139,-2.95301480
-1.95909019,-0.64478218,2.75992339

>  <Name>
ligand

>  <RI>
0

>  <Rbt.Current_Directory>
/home/itssahil/PROJECTS/Mol_Feturizer/New_Systems/rnas/2HO7

>  <Rbt.Executable>
rbdock ($Id: //depot/dev/client3/rdock/2013.1/src/exe/rbdock.cxx#4 $)

>  <Rbt.Library>
libRbt.so (2013.1, Build901 2013/11/27)

>  <Rbt.Parameter_File>
/export/apps/rDock/src/rDock_2013.1_src/data/scripts/dock_solv.prm

>  <Rbt.Receptor>
prm/blind_docking_100.prm

>  <SCORE>
-12.143

>  <SCORE.INTER>
-13.1096

>  <SCORE.INTER.CONST>
1

>  <SCORE.INTER.POLAR>
-1.27279

>  <SCORE.INTER.ROT>
3

>  <SCORE.INTER.SOLV>
18.2801

>  <SCORE.INTER.VDW>
-16.1905

>  <SCORE.INTER.norm>
-0.81935

>  <SCORE.INTRA>
0.96656

>  <SCORE.INTRA.DIHEDRAL>
0.997078

>  <SCORE.INTRA.DIHEDRAL.0>
0.00893466

>  <SCORE.INTRA.POLAR>
0

>  <SCORE.INTRA.POLAR.0>
0

>  <SCORE.INTRA.REPUL>
0

>  <SCORE.INTRA.REPUL.0>
0

>  <SCORE.INTRA.SOLV>
1.04106

>  <SCORE.INTRA.SOLV.lig_0>
-48.9722

>  <SCORE.INTRA.VDW>
-0.052507

>  <SCORE.INTRA.VDW.0>
-0.529409

>  <SCORE.INTRA.norm>
0.06041

>  <SCORE.RESTR>
0

>  <SCORE.RESTR.CAVITY>
0

>  <SCORE.RESTR.norm>
0

>  <SCORE.SYSTEM>
0

>  <SCORE.SYSTEM.CONST>
0

>  <SCORE.SYSTEM.DIHEDRAL>
0

>  <SCORE.SYSTEM.SOLV>
0

>  <SCORE.SYSTEM.norm>
0

>  <SCORE.heavy>
16

>  <SCORE.norm>
-0.75894

>  <RMSD>
40.327

$$$$
ligand
 OpenBabel11021811433D
libRbt.so/2013.1/901 2013/11/27
 16 16  0  0  0  0  0  0  0  0999 V2000
   10.8616    2.1543   -3.2311 P   0  0  2  0  0  0  0  0  0  0  0  0
   11.6878    3.2327   -2.6338 O   0  0  0  0  0  0  0  0  0  0  0  0
   10.6454    2.4552   -4.7971 O   0  5  0  0  0  0  0  0  0  0  0  0
    9.4313    2.1259   -2.4915 O   0  0  0  0  0  0  0  0  0  0  0  0
   13.6159   -2.8902   -3.5531 C   0  0  2  0  0  0  0  0  0  0  0  0
   13.2002   -3.8073   -4.5811 O   0  0  0  0  0  0  0  0  0  0  0  0
   13.2211   -3.4191   -2.1504 C   0  0  2  0  0  0  0  0  0  0  0  0
   13.8180   -4.7414   -1.9285 O   0  0  0  0  0  0  0  0  0  0  0  0
   11.6862   -3.5294   -2.0842 C   0  0  1  0  0  0  0  0  0  0  0  0
   11.2903   -4.0107   -0.7941 O   0  0  0  0  0  0  0  0  0  0  0  0
   11.0934   -2.1317   -2.3212 C   0  0  2  0  0  0  0  0  0  0  0  0
    9.6524   -2.2098   -2.2754 O   0  0  0  0  0  0  0  0  0  0  0  0
   11.5528   -1.6330   -3.7191 C   0  0  2  0  0  0  0  0  0  0  0  0
   13.0111   -1.5724   -3.7726 O   0  0  0  0  0  0  0  0  0  0  0  0
   10.9903   -0.2187   -3.9505 C   0  0  0  0  0  0  0  0  0  0  0  0
   11.6082    0.7217   -3.0635 O   0  0  0  0  0  0  0  0  0  0  0  0
  1  2  1  1  0  0  0
  1  3  1  0  0  0  0
  1  4  2  0  0  0  0
  1 16  1  0  0  0  0
  5  6  1  6  0  0  0
  5  7  1  0  0  0  0
  5 14  1  0  0  0  0
  7  8  1  6  0  0  0
  7  9  1  0  0  0  0
  9 10  1  1  0  0  0
  9 11  1  0  0  0  0
 11 12  1  6  0  0  0
 11 13  1  0  0  0  0
 13 14  1  0  0  0  0
 13 15  1  1  0  0  0
 15 16  1  0  0  0  0
M  CHG  1   3  -1
M  END
>  <CHROM.1>
67.96806384,-173.60766307,-164.25892194,11.63525144,-0.93798947,-2.97887775
-1.96666227,-0.66255634,2.75460474

>  <Name>
ligand

>  <RI>
0

>  <Rbt.Current_Directory>
/home/itssahil/PROJECTS/Mol_Feturizer/New_Systems/rnas/2HO7

>  <Rbt.Executable>
rbdock ($Id: //depot/dev/client3/rdock/2013.1/src/exe/rbdock.cxx#4 $)

>  <Rbt.Library>
libRbt.so (2013.1, Build901 2013/11/27)

>  <Rbt.Parameter_File>
/export/apps/rDock/src/rDock_2013.1_src/data/scripts/dock_solv.prm

>  <Rbt.Receptor>
prm/blind_docking_60.prm

>  <SCORE>
-12.0521

>  <SCORE.INTER>
-12.9393

>  <SCORE.INTER.CONST>
1

>  <SCORE.INTER.POLAR>
-1.27279

>  <SCORE.INTER.ROT>
3

>  <SCORE.INTER.SOLV>
18.5897

>  <SCORE.INTER.VDW>
-16.1801

>  <SCORE.INTER.norm>
-0.808709

>  <SCORE.INTRA>
0.887211

>  <SCORE.INTRA.DIHEDRAL>
0.800531

>  <SCORE.INTRA.DIHEDRAL.0>
0.00893466

>  <SCORE.INTRA.POLAR>
0

>  <SCORE.INTRA.POLAR.0>
0

>  <SCORE.INTRA.REPUL>
0

>  <SCORE.INTRA.REPUL.0>
0

>  <SCORE.INTRA.SOLV>
0.99991

>  <SCORE.INTRA.SOLV.lig_0>
-48.9722

>  <SCORE.INTRA.VDW>
-0.0130095

>  <SCORE.INTRA.VDW.0>
-0.529409

>  <SCORE.INTRA.norm>
0.0554507

>  <SCORE.RESTR>
0

>  <SCORE.RESTR.CAVITY>
0

>  <SCORE.RESTR.norm>
0

>  <SCORE.SYSTEM>
0

>  <SCORE.SYSTEM.CONST>
0

>  <SCORE.SYSTEM.DIHEDRAL>
0

>  <SCORE.SYSTEM.SOLV>
0

>  <SCORE.SYSTEM.norm>
0

>  <SCORE.heavy>
16

>  <SCORE.norm>
-0.753258

>  <RMSD>
40.343

$$$$
ligand
 OpenBabel11021811433D
libRbt.so/2013.1/901 2013/11/27
 16 16  0  0  0  0  0  0  0  0999 V2000
   10.2685    0.7677   -3.2346 P   0  0  2  0  0  0  0  0  0  0  0  0
   11.3241    0.7199   -4.2765 O   0  0  0  0  0  0  0  0  0  0  0  0
    9.2024   -0.4075   -3.5032 O   0  5  0  0  0  0  0  0  0  0  0  0
    9.5226    2.1927   -3.3161 O   0  0  0  0  0  0  0  0  0  0  0  0
   11.2774   -0.3157    2.6035 C   0  0  2  0  0  0  0  0  0  0  0  0
   12.3303   -1.2277    2.2425 O   0  0  0  0  0  0  0  0  0  0  0  0
   10.0700   -1.0789    3.2058 C   0  0  2  0  0  0  0  0  0  0  0  0
   10.5008   -1.8523    4.3764 O   0  0  0  0  0  0  0  0  0  0  0  0
    9.5123   -2.0345    2.1342 C   0  0  1  0  0  0  0  0  0  0  0  0
    8.3888   -2.7505    2.6611 O   0  0  0  0  0  0  0  0  0  0  0  0
    9.0723   -1.1954    0.9244 C   0  0  2  0  0  0  0  0  0  0  0  0
    8.5552   -2.0704   -0.1012 O   0  0  0  0  0  0  0  0  0  0  0  0
   10.3076   -0.4214    0.3870 C   0  0  2  0  0  0  0  0  0  0  0  0
   10.8431    0.4494    1.4302 O   0  0  0  0  0  0  0  0  0  0  0  0
    9.8679    0.4479   -0.8051 C   0  0  0  0  0  0  0  0  0  0  0  0
   10.9264    0.5623   -1.7640 O   0  0  0  0  0  0  0  0  0  0  0  0
  1  2  1  6  0  0  0
  1  3  1  0  0  0  0
  1  4  2  0  0  0  0
  1 16  1  0  0  0  0
  5  6  1  6  0  0  0
  5  7  1  0  0  0  0
  5 14  1  0  0  0  0
  7  8  1  1  0  0  0
  7  9  1  0  0  0  0
  9 10  1  1  0  0  0
  9 11  1  0  0  0  0
 11 12  1  6  0  0  0
 11 13  1  0  0  0  0
 13 14  1  0  0  0  0
 13 15  1  6  0  0  0
 15 16  1  0  0  0  0
M  CHG  1   3  -1
M  END
>  <CHROM.1>
-147.24601208,151.03584359,-172.92261578,10.13806809,-0.41628705,-0.10628518
-1.55942897,0.60369637,1.93516139

>  <Name>
ligand

>  <RI>
0

>  <Rbt.Current_Directory>
/home/itssahil/PROJECTS/Mol_Feturizer/New_Systems/rnas/2HO7

>  <Rbt.Executable>
rbdock ($Id: //depot/dev/client3/rdock/2013.1/src/exe/rbdock.cxx#4 $)

>  <Rbt.Library>
libRbt.so (2013.1, Build901 2013/11/27)

>  <Rbt.Parameter_File>
/export/apps/rDock/src/rDock_2013.1_src/data/scripts/dock_solv.prm

>  <Rbt.Receptor>
prm/blind_docking_40.prm

>  <SCORE>
-10.4734

>  <SCORE.INTER>
-14.0725

>  <SCORE.INTER.CONST>
1

>  <SCORE.INTER.POLAR>
-2.86341

>  <SCORE.INTER.ROT>
3

>  <SCORE.INTER.SOLV>
22.9507

>  <SCORE.INTER.VDW>
-13.0872

>  <SCORE.INTER.norm>
-0.879532

>  <SCORE.INTRA>
3.59915

>  <SCORE.INTRA.DIHEDRAL>
6.49453

>  <SCORE.INTRA.DIHEDRAL.0>
0.00893466

>  <SCORE.INTRA.POLAR>
0

>  <SCORE.INTRA.POLAR.0>
0

>  <SCORE.INTRA.REPUL>
0

>  <SCORE.INTRA.REPUL.0>
0

>  <SCORE.INTRA.SOLV>
1.11111

>  <SCORE.INTRA.SOLV.lig_0>
-48.9722

>  <SCORE.INTRA.VDW>
-0.203672

>  <SCORE.INTRA.VDW.0>
-0.529409

>  <SCORE.INTRA.norm>
0.224947

>  <SCORE.RESTR>
0

>  <SCORE.RESTR.CAVITY>
0

>  <SCORE.RESTR.norm>
0

>  <SCORE.SYSTEM>
0

>  <SCORE.SYSTEM.CONST>
0

>  <SCORE.SYSTEM.DIHEDRAL>
0

>  <SCORE.SYSTEM.SOLV>
0

>  <SCORE.SYSTEM.norm>
0

>  <SCORE.heavy>
16

>  <SCORE.norm>
-0.654585

>  <RMSD>
40.356

$$$$
ligand
 OpenBabel11021811433D
libRbt.so/2013.1/901 2013/11/27
 16 16  0  0  0  0  0  0  0  0999 V2000
    9.2839   -0.8316    1.1627 P   0  0  2  0  0  0  0  0  0  0  0  0
    8.4145   -0.3259    0.0715 O   0  0  0  0  0  0  0  0  0  0  0  0
    8.8595   -2.3411    1.5248 O   0  5  0  0  0  0  0  0  0  0  0  0
    9.0866    0.1030    2.4592 O   0  0  0  0  0  0  0  0  0  0  0  0
   10.2080    3.2630   -1.8593 C   0  0  2  0  0  0  0  0  0  0  0  0
    8.7979    2.9910   -1.9506 O   0  0  0  0  0  0  0  0  0  0  0  0
   10.9474    2.7709   -3.1298 C   0  0  2  0  0  0  0  0  0  0  0  0
   10.3782    3.4137   -4.3201 O   0  0  0  0  0  0  0  0  0  0  0  0
   10.7728    1.2442   -3.2360 C   0  0  1  0  0  0  0  0  0  0  0  0
   11.4526    0.7587   -4.3999 O   0  0  0  0  0  0  0  0  0  0  0  0
   11.3765    0.6029   -1.9769 C   0  0  2  0  0  0  0  0  0  0  0  0
   11.2152   -0.8303   -2.0465 O   0  0  0  0  0  0  0  0  0  0  0  0
   10.6291    1.1604   -0.7341 C   0  0  2  0  0  0  0  0  0  0  0  0
   10.7755    2.6123   -0.6740 O   0  0  0  0  0  0  0  0  0  0  0  0
   11.2505    0.5478    0.5343 C   0  0  0  0  0  0  0  0  0  0  0  0
   10.8379   -0.8154    0.6908 O   0  0  0  0  0  0  0  0  0  0  0  0
  1  2  1  6  0  0  0
  1  3  1  0  0  0  0
  1  4  2  0  0  0  0
  1 16  1  0  0  0  0
  5  6  1  6  0  0  0
  5  7  1  0  0  0  0
  5 14  1  0  0  0  0
  7  8  1  6  0  0  0
  7  9  1  0  0  0  0
  9 10  1  6  0  0  0
  9 11  1  0  0  0  0
 11 12  1  6  0  0  0
 11 13  1  0  0  0  0
 13 14  1  0  0  0  0
 13 15  1  1  0  0  0
 15 16  1  0  0  0  0
M  CHG  1   3  -1
M  END
>  <CHROM.1>
-75.02334216,-73.34297071,67.23716996,10.17182827,0.74258730,-0.93345093
2.03230002,-1.04825633,2.59759106

>  <Name>
ligand

>  <RI>
0

>  <Rbt.Current_Directory>
/home/itssahil/PROJECTS/Mol_Feturizer/New_Systems/rnas/2HO7

>  <Rbt.Executable>
rbdock ($Id: //depot/dev/client3/rdock/2013.1/src/exe/rbdock.cxx#4 $)

>  <Rbt.Library>
libRbt.so (2013.1, Build901 2013/11/27)

>  <Rbt.Parameter_File>
/export/apps/rDock/src/rDock_2013.1_src/data/scripts/dock_solv.prm

>  <Rbt.Receptor>
prm/blind_docking_60.prm

>  <SCORE>
-13.7862

>  <SCORE.INTER>
-15.5277

>  <SCORE.INTER.CONST>
1

>  <SCORE.INTER.POLAR>
-1.27279

>  <SCORE.INTER.ROT>
3

>  <SCORE.INTER.SOLV>
16.4327

>  <SCORE.INTER.VDW>
-17.1867

>  <SCORE.INTER.norm>
-0.970481

>  <SCORE.INTRA>
1.74148

>  <SCORE.INTRA.DIHEDRAL>
1.69569

>  <SCORE.INTRA.DIHEDRAL.0>
0.00893466

>  <SCORE.INTRA.POLAR>
0

>  <SCORE.INTRA.POLAR.0>
0

>  <SCORE.INTRA.REPUL>
0

>  <SCORE.INTRA.REPUL.0>
0

>  <SCORE.INTRA.SOLV>
1.74286

>  <SCORE.INTRA.SOLV.lig_0>
-48.9722

>  <SCORE.INTRA.VDW>
0.0222072

>  <SCORE.INTRA.VDW.0>
-0.529409

>  <SCORE.INTRA.norm>
0.108843

>  <SCORE.RESTR>
0

>  <SCORE.RESTR.CAVITY>
0

>  <SCORE.RESTR.norm>
0

>  <SCORE.SYSTEM>
0

>  <SCORE.SYSTEM.CONST>
0

>  <SCORE.SYSTEM.DIHEDRAL>
0

>  <SCORE.SYSTEM.SOLV>
0

>  <SCORE.SYSTEM.norm>
0

>  <SCORE.heavy>
16

>  <SCORE.norm>
-0.861638

>  <RMSD>
40.359

$$$$
ligand
 OpenBabel11021811433D
libRbt.so/2013.1/901 2013/11/27
 16 16  0  0  0  0  0  0  0  0999 V2000
    9.4999    1.1975    0.3237 P   0  0  2  0  0  0  0  0  0  0  0  0
    8.2850    1.5154    1.1144 O   0  0  0  0  0  0  0  0  0  0  0  0
   10.2139    2.5670   -0.1284 O   0  5  0  0  0  0  0  0  0  0  0  0
    9.0648    0.3661   -0.9851 O   0  0  0  0  0  0  0  0  0  0  0  0
   13.0224   -3.1929    0.2786 C   0  0  2  0  0  0  0  0  0  0  0  0
   13.5160   -2.4573   -0.8554 O   0  0  0  0  0  0  0  0  0  0  0  0
   12.2566   -4.4610   -0.1782 C   0  0  2  0  0  0  0  0  0  0  0  0
   13.1340   -5.3078   -0.9950 O   0  0  0  0  0  0  0  0  0  0  0  0
   11.0402   -4.0222   -1.0149 C   0  0  1  0  0  0  0  0  0  0  0  0
   10.3077   -5.1752   -1.4466 O   0  0  0  0  0  0  0  0  0  0  0  0
   10.1443   -3.1382   -0.1332 C   0  0  2  0  0  0  0  0  0  0  0  0
    9.0002   -2.7033   -0.8991 O   0  0  0  0  0  0  0  0  0  0  0  0
   10.9710   -1.9069    0.3298 C   0  0  2  0  0  0  0  0  0  0  0  0
   12.1392   -2.3470    1.0880 O   0  0  0  0  0  0  0  0  0  0  0  0
   10.0905   -1.0328    1.2413 C   0  0  0  0  0  0  0  0  0  0  0  0
   10.5378    0.3283    1.2209 O   0  0  0  0  0  0  0  0  0  0  0  0
  1  2  1  1  0  0  0
  1  3  1  0  0  0  0
  1  4  2  0  0  0  0
  1 16  1  0  0  0  0
  5  6  1  6  0  0  0
  5  7  1  0  0  0  0
  5 14  1  0  0  0  0
  7  8  1  6  0  0  0
  7  9  1  0  0  0  0
  9 10  1  1  0  0  0
  9 11  1  0  0  0  0
 11 12  1  6  0  0  0
 11 13  1  0  0  0  0
 13 14  1  0  0  0  0
 13 15  1  1  0  0  0
 15 16  1  0  0  0  0
M  CHG  1   3  -1
M  END
>  <CHROM.1>
-154.72319805,105.06074333,79.09687813,10.71526764,-1.59983550,-0.04758956
-2.01720770,0.22363028,-2.84971503

>  <Name>
ligand

>  <RI>
0

>  <Rbt.Current_Directory>
/home/itssahil/PROJECTS/Mol_Feturizer/New_Systems/rnas/2HO7

>  <Rbt.Executable>
rbdock ($Id: //depot/dev/client3/rdock/2013.1/src/exe/rbdock.cxx#4 $)

>  <Rbt.Library>
libRbt.so (2013.1, Build901 2013/11/27)

>  <Rbt.Parameter_File>
/export/apps/rDock/src/rDock_2013.1_src/data/scripts/dock_solv.prm

>  <Rbt.Receptor>
prm/blind_docking_40.prm

>  <SCORE>
-11.6822

>  <SCORE.INTER>
-16.9315

>  <SCORE.INTER.CONST>
1

>  <SCORE.INTER.POLAR>
-2.86349

>  <SCORE.INTER.ROT>
3

>  <SCORE.INTER.SOLV>
13.7671

>  <SCORE.INTER.VDW>
-11.9318

>  <SCORE.INTER.norm>
-1.05822

>  <SCORE.INTRA>
5.24931

>  <SCORE.INTRA.DIHEDRAL>
8.68707

>  <SCORE.INTRA.DIHEDRAL.0>
0.00893466

>  <SCORE.INTRA.POLAR>
0

>  <SCORE.INTRA.POLAR.0>
0

>  <SCORE.INTRA.REPUL>
0

>  <SCORE.INTRA.REPUL.0>
0

>  <SCORE.INTRA.SOLV>
2.38829

>  <SCORE.INTRA.SOLV.lig_0>
-48.9722

>  <SCORE.INTRA.VDW>
-0.288376

>  <SCORE.INTRA.VDW.0>
-0.529409

>  <SCORE.INTRA.norm>
0.328082

>  <SCORE.RESTR>
0

>  <SCORE.RESTR.CAVITY>
0

>  <SCORE.RESTR.norm>
0

>  <SCORE.SYSTEM>
0

>  <SCORE.SYSTEM.CONST>
0

>  <SCORE.SYSTEM.DIHEDRAL>
0

>  <SCORE.SYSTEM.SOLV>
0

>  <SCORE.SYSTEM.norm>
0

>  <SCORE.heavy>
16

>  <SCORE.norm>
-0.730138

>  <RMSD>
40.363

$$$$
ligand
 OpenBabel11021811433D
libRbt.so/2013.1/901 2013/11/27
 16 16  0  0  0  0  0  0  0  0999 V2000
   10.7800    1.8454   -2.0647 P   0  0  2  0  0  0  0  0  0  0  0  0
   10.7902    2.4742   -0.7206 O   0  0  0  0  0  0  0  0  0  0  0  0
   11.7892    2.6422   -3.0324 O   0  5  0  0  0  0  0  0  0  0  0  0
    9.2882    1.9290   -2.6657 O   0  0  0  0  0  0  0  0  0  0  0  0
   13.5410   -3.1169   -2.9042 C   0  0  2  0  0  0  0  0  0  0  0  0
   13.3685   -3.7612   -4.1793 O   0  0  0  0  0  0  0  0  0  0  0  0
   12.8653   -3.9379   -1.7762 C   0  0  2  0  0  0  0  0  0  0  0  0
   13.4225   -5.2953   -1.7432 O   0  0  0  0  0  0  0  0  0  0  0  0
   11.3535   -4.0089   -2.0622 C   0  0  1  0  0  0  0  0  0  0  0  0
   10.6999   -4.7579   -1.0305 O   0  0  0  0  0  0  0  0  0  0  0  0
   10.8022   -2.5749   -2.0913 C   0  0  2  0  0  0  0  0  0  0  0  0
    9.3858   -2.6130   -2.3696 O   0  0  0  0  0  0  0  0  0  0  0  0
   11.5405   -1.7865   -3.2081 C   0  0  2  0  0  0  0  0  0  0  0  0
   12.9756   -1.7643   -2.9375 O   0  0  0  0  0  0  0  0  0  0  0  0
   11.0174   -0.3386   -3.2217 C   0  0  0  0  0  0  0  0  0  0  0  0
   11.2564    0.2964   -1.9597 O   0  0  0  0  0  0  0  0  0  0  0  0
  1  2  1  1  0  0  0
  1  3  1  0  0  0  0
  1  4  2  0  0  0  0
  1 16  1  0  0  0  0
  5  6  1  6  0  0  0
  5  7  1  0  0  0  0
  5 14  1  0  0  0  0
  7  8  1  6  0  0  0
  7  9  1  0  0  0  0
  9 10  1  1  0  0  0
  9 11  1  0  0  0  0
 11 12  1  6  0  0  0
 11 13  1  0  0  0  0
 13 14  1  0  0  0  0
 13 15  1  1  0  0  0
 15 16  1  0  0  0  0
M  CHG  1   3  -1
M  END
>  <CHROM.1>
60.04117885,176.13857011,170.23750468,11.48594770,-1.26726772,-2.34609082
-1.86832450,-0.43076340,3.03592263

>  <Name>
ligand

>  <RI>
0

>  <Rbt.Current_Directory>
/home/itssahil/PROJECTS/Mol_Feturizer/New_Systems/rnas/2HO7

>  <Rbt.Executable>
rbdock ($Id: //depot/dev/client3/rdock/2013.1/src/exe/rbdock.cxx#4 $)

>  <Rbt.Library>
libRbt.so (2013.1, Build901 2013/11/27)

>  <Rbt.Parameter_File>
/export/apps/rDock/src/rDock_2013.1_src/data/scripts/dock_solv.prm

>  <Rbt.Receptor>
prm/blind_docking_60.prm

>  <SCORE>
-10.7448

>  <SCORE.INTER>
-11.1878

>  <SCORE.INTER.CONST>
1

>  <SCORE.INTER.POLAR>
-1.27273

>  <SCORE.INTER.ROT>
3

>  <SCORE.INTER.SOLV>
17.636

>  <SCORE.INTER.VDW>
-14.6947

>  <SCORE.INTER.norm>
-0.699235

>  <SCORE.INTRA>
0.44295

>  <SCORE.INTRA.DIHEDRAL>
0.2188

>  <SCORE.INTRA.DIHEDRAL.0>
0.00893466

>  <SCORE.INTRA.POLAR>
0

>  <SCORE.INTRA.POLAR.0>
0

>  <SCORE.INTRA.REPUL>
0

>  <SCORE.INTRA.REPUL.0>
0

>  <SCORE.INTRA.SOLV>
0.9065

>  <SCORE.INTRA.SOLV.lig_0>
-48.9722

>  <SCORE.INTRA.VDW>
-0.1197

>  <SCORE.INTRA.VDW.0>
-0.529409

>  <SCORE.INTRA.norm>
0.0276843

>  <SCORE.RESTR>
0

>  <SCORE.RESTR.CAVITY>
0

>  <SCORE.RESTR.norm>
0

>  <SCORE.SYSTEM>
0

>  <SCORE.SYSTEM.CONST>
0

>  <SCORE.SYSTEM.DIHEDRAL>
0

>  <SCORE.SYSTEM.SOLV>
0

>  <SCORE.SYSTEM.norm>
0

>  <SCORE.heavy>
16

>  <SCORE.norm>
-0.67155

>  <RMSD>
40.364

$$$$
ligand
 OpenBabel11021811433D
libRbt.so/2013.1/901 2013/11/27
 16 16  0  0  0  0  0  0  0  0999 V2000
    9.2838   -0.8564    1.2213 P   0  0  2  0  0  0  0  0  0  0  0  0
    8.8568   -2.2344    1.5693 O   0  0  0  0  0  0  0  0  0  0  0  0
    9.2121    0.0705    2.5348 O   0  5  0  0  0  0  0  0  0  0  0  0
    8.2860   -0.2710    0.1009 O   0  0  0  0  0  0  0  0  0  0  0  0
   10.2587    3.2171   -1.8965 C   0  0  2  0  0  0  0  0  0  0  0  0
    8.8392    2.9914   -1.9657 O   0  0  0  0  0  0  0  0  0  0  0  0
   10.9631    2.6916   -3.1734 C   0  0  2  0  0  0  0  0  0  0  0  0
   10.3984    3.3444   -4.3605 O   0  0  0  0  0  0  0  0  0  0  0  0
   10.7366    1.1708   -3.2655 C   0  0  1  0  0  0  0  0  0  0  0  0
   11.3831    0.6546   -4.4351 O   0  0  0  0  0  0  0  0  0  0  0  0
   11.3368    0.5189   -2.0101 C   0  0  2  0  0  0  0  0  0  0  0  0
   11.1271   -0.9086   -2.0665 O   0  0  0  0  0  0  0  0  0  0  0  0
   10.6262    1.1098   -0.7612 C   0  0  2  0  0  0  0  0  0  0  0  0
   10.8214    2.5565   -0.7143 O   0  0  0  0  0  0  0  0  0  0  0  0
   11.2451    0.4861    0.5029 C   0  0  0  0  0  0  0  0  0  0  0  0
   10.8087   -0.8693    0.6626 O   0  0  0  0  0  0  0  0  0  0  0  0
  1  2  1  1  0  0  0
  1  3  1  0  0  0  0
  1  4  2  0  0  0  0
  1 16  1  0  0  0  0
  5  6  1  6  0  0  0
  5  7  1  0  0  0  0
  5 14  1  0  0  0  0
  7  8  1  6  0  0  0
  7  9  1  0  0  0  0
  9 10  1  6  0  0  0
  9 11  1  0  0  0  0
 11 12  1  6  0  0  0
 11 13  1  0  0  0  0
 13 14  1  0  0  0  0
 13 15  1  1  0  0  0
 15 16  1  0  0  0  0
M  CHG  1   3  -1
M  END
>  <CHROM.1>
-73.98666222,-76.32394367,-172.57764545,10.16552852,0.70449733,-0.93865783
2.05331032,-1.07634603,2.60172828

>  <Name>
ligand

>  <RI>
0

>  <Rbt.Current_Directory>
/home/itssahil/PROJECTS/Mol_Feturizer/New_Systems/rnas/2HO7

>  <Rbt.Executable>
rbdock ($Id: //depot/dev/client3/rdock/2013.1/src/exe/rbdock.cxx#4 $)

>  <Rbt.Library>
libRbt.so (2013.1, Build901 2013/11/27)

>  <Rbt.Parameter_File>
/export/apps/rDock/src/rDock_2013.1_src/data/scripts/dock_solv.prm

>  <Rbt.Receptor>
prm/blind_docking_40.prm

>  <SCORE>
-14.1409

>  <SCORE.INTER>
-17.21

>  <SCORE.INTER.CONST>
1

>  <SCORE.INTER.POLAR>
-1.59099

>  <SCORE.INTER.ROT>
3

>  <SCORE.INTER.SOLV>
16.1751

>  <SCORE.INTER.VDW>
-17.1618

>  <SCORE.INTER.norm>
-1.07563

>  <SCORE.INTRA>
3.06913

>  <SCORE.INTRA.DIHEDRAL>
1.99476

>  <SCORE.INTRA.DIHEDRAL.0>
0.00893466

>  <SCORE.INTRA.POLAR>
0

>  <SCORE.INTRA.POLAR.0>
0

>  <SCORE.INTRA.REPUL>
0

>  <SCORE.INTRA.REPUL.0>
0

>  <SCORE.INTRA.SOLV>
4.47038

>  <SCORE.INTRA.SOLV.lig_0>
-48.9722

>  <SCORE.INTRA.VDW>
-0.163436

>  <SCORE.INTRA.VDW.0>
-0.529409

>  <SCORE.INTRA.norm>
0.191821

>  <SCORE.RESTR>
0

>  <SCORE.RESTR.CAVITY>
0

>  <SCORE.RESTR.norm>
0

>  <SCORE.SYSTEM>
0

>  <SCORE.SYSTEM.CONST>
0

>  <SCORE.SYSTEM.DIHEDRAL>
0

>  <SCORE.SYSTEM.SOLV>
0

>  <SCORE.SYSTEM.norm>
0

>  <SCORE.heavy>
16

>  <SCORE.norm>
-0.883806

>  <RMSD>
40.372

$$$$
ligand
 OpenBabel11021811433D
libRbt.so/2013.1/901 2013/11/27
 16 16  0  0  0  0  0  0  0  0999 V2000
   10.2542   -1.7794    2.3737 P   0  0  2  0  0  0  0  0  0  0  0  0
   11.1245   -2.8770    2.8638 O   0  0  0  0  0  0  0  0  0  0  0  0
   10.3811   -0.5174    3.3641 O   0  5  0  0  0  0  0  0  0  0  0  0
    8.7282   -2.2939    2.3589 O   0  0  0  0  0  0  0  0  0  0  0  0
   10.1791    0.0083   -3.2344 C   0  0  2  0  0  0  0  0  0  0  0  0
   11.5985   -0.1359   -3.4219 O   0  0  0  0  0  0  0  0  0  0  0  0
    9.7423    1.4807   -3.4453 C   0  0  2  0  0  0  0  0  0  0  0  0
   10.1293    1.9296   -4.7880 O   0  0  0  0  0  0  0  0  0  0  0  0
   10.4435    2.3544   -2.3883 C   0  0  1  0  0  0  0  0  0  0  0  0
   10.0531    3.7228   -2.5545 O   0  0  0  0  0  0  0  0  0  0  0  0
   10.0191    1.8588   -0.9970 C   0  0  2  0  0  0  0  0  0  0  0  0
   10.6730    2.6557    0.0140 O   0  0  0  0  0  0  0  0  0  0  0  0
   10.4425    0.3707   -0.8545 C   0  0  2  0  0  0  0  0  0  0  0  0
    9.7967   -0.4328   -1.8892 O   0  0  0  0  0  0  0  0  0  0  0  0
    9.9910   -0.1434    0.5246 C   0  0  0  0  0  0  0  0  0  0  0  0
   10.7094   -1.3309    0.8806 O   0  0  0  0  0  0  0  0  0  0  0  0
  1  2  1  1  0  0  0
  1  3  1  0  0  0  0
  1  4  2  0  0  0  0
  1 16  1  0  0  0  0
  5  6  1  1  0  0  0
  5  7  1  0  0  0  0
  5 14  1  0  0  0  0
  7  8  1  6  0  0  0
  7  9  1  0  0  0  0
  9 10  1  6  0  0  0
  9 11  1  0  0  0  0
 11 12  1  1  0  0  0
 11 13  1  0  0  0  0
 13 14  1  0  0  0  0
 13 15  1  1  0  0  0
 15 16  1  0  0  0  0
M  CHG  1   3  -1
M  END
>  <CHROM.1>
-161.39948420,176.87354372,-171.18155127,10.27395405,0.13168731,-0.44091412
-1.73991917,1.51349223,-0.83089684

>  <Name>
ligand

>  <RI>
0

>  <Rbt.Current_Directory>
/home/itssahil/PROJECTS/Mol_Feturizer/New_Systems/rnas/2HO7

>  <Rbt.Executable>
rbdock ($Id: //depot/dev/client3/rdock/2013.1/src/exe/rbdock.cxx#4 $)

>  <Rbt.Library>
libRbt.so (2013.1, Build901 2013/11/27)

>  <Rbt.Parameter_File>
/export/apps/rDock/src/rDock_2013.1_src/data/scripts/dock_solv.prm

>  <Rbt.Receptor>
prm/blind_docking_60.prm

>  <SCORE>
-12.2528

>  <SCORE.INTER>
-13.1687

>  <SCORE.INTER.CONST>
1

>  <SCORE.INTER.POLAR>
-1.27279

>  <SCORE.INTER.ROT>
3

>  <SCORE.INTER.SOLV>
19.7757

>  <SCORE.INTER.VDW>
-16.7284

>  <SCORE.INTER.norm>
-0.823044

>  <SCORE.INTRA>
0.915883

>  <SCORE.INTRA.DIHEDRAL>
1.31903

>  <SCORE.INTRA.DIHEDRAL.0>
0.00893466

>  <SCORE.INTRA.POLAR>
0

>  <SCORE.INTRA.POLAR.0>
0

>  <SCORE.INTRA.REPUL>
0

>  <SCORE.INTRA.REPUL.0>
0

>  <SCORE.INTRA.SOLV>
0.590112

>  <SCORE.INTRA.SOLV.lig_0>
-48.9722

>  <SCORE.INTRA.VDW>
-0.0386876

>  <SCORE.INTRA.VDW.0>
-0.529409

>  <SCORE.INTRA.norm>
0.0572427

>  <SCORE.RESTR>
0

>  <SCORE.RESTR.CAVITY>
0

>  <SCORE.RESTR.norm>
0

>  <SCORE.SYSTEM>
0

>  <SCORE.SYSTEM.CONST>
0

>  <SCORE.SYSTEM.DIHEDRAL>
0

>  <SCORE.SYSTEM.SOLV>
0

>  <SCORE.SYSTEM.norm>
0

>  <SCORE.heavy>
16

>  <SCORE.norm>
-0.765801

>  <RMSD>
40.377

$$$$
ligand
 OpenBabel11021811433D
libRbt.so/2013.1/901 2013/11/27
 16 16  0  0  0  0  0  0  0  0999 V2000
    9.8535   -1.0597    2.2609 P   0  0  2  0  0  0  0  0  0  0  0  0
   10.8002   -1.5344    3.3004 O   0  0  0  0  0  0  0  0  0  0  0  0
    9.0041    0.1783    2.8403 O   0  5  0  0  0  0  0  0  0  0  0  0
    8.8517   -2.2627    1.8827 O   0  0  0  0  0  0  0  0  0  0  0  0
   10.1552    0.4256   -3.7764 C   0  0  2  0  0  0  0  0  0  0  0  0
   11.5459    0.1276   -3.9951 O   0  0  0  0  0  0  0  0  0  0  0  0
    9.9409    1.9496   -3.5905 C   0  0  2  0  0  0  0  0  0  0  0  0
   10.4403    2.6718   -4.7666 O   0  0  0  0  0  0  0  0  0  0  0  0
   10.7173    2.4031   -2.3399 C   0  0  1  0  0  0  0  0  0  0  0  0
   10.5325    3.8094   -2.1384 O   0  0  0  0  0  0  0  0  0  0  0  0
   10.1725    1.6292   -1.1294 C   0  0  2  0  0  0  0  0  0  0  0  0
   10.8930    2.0284    0.0565 O   0  0  0  0  0  0  0  0  0  0  0  0
   10.3739    0.1100   -1.3854 C   0  0  2  0  0  0  0  0  0  0  0  0
    9.6614   -0.2905   -2.5958 O   0  0  0  0  0  0  0  0  0  0  0  0
    9.8001   -0.6744   -0.1914 C   0  0  0  0  0  0  0  0  0  0  0  0
   10.6693   -0.5740    0.9432 O   0  0  0  0  0  0  0  0  0  0  0  0
  1  2  1  1  0  0  0
  1  3  1  0  0  0  0
  1  4  2  0  0  0  0
  1 16  1  0  0  0  0
  5  6  1  1  0  0  0
  5  7  1  0  0  0  0
  5 14  1  0  0  0  0
  7  8  1  6  0  0  0
  7  9  1  0  0  0  0
  9 10  1  1  0  0  0
  9 11  1  0  0  0  0
 11 12  1  1  0  0  0
 11 13  1  0  0  0  0
 13 14  1  0  0  0  0
 13 15  1  1  0  0  0
 15 16  1  0  0  0  0
M  CHG  1   3  -1
M  END
>  <CHROM.1>
-74.69390060,164.94543476,155.48499147,10.19179546,0.42908706,-0.64279922
-2.58049437,-1.44538997,-2.10327502

>  <Name>
ligand

>  <RI>
0

>  <Rbt.Current_Directory>
/home/itssahil/PROJECTS/Mol_Feturizer/New_Systems/rnas/2HO7

>  <Rbt.Executable>
rbdock ($Id: //depot/dev/client3/rdock/2013.1/src/exe/rbdock.cxx#4 $)

>  <Rbt.Library>
libRbt.so (2013.1, Build901 2013/11/27)

>  <Rbt.Parameter_File>
/export/apps/rDock/src/rDock_2013.1_src/data/scripts/dock_solv.prm

>  <Rbt.Receptor>
prm/blind_docking_20.prm

>  <SCORE>
-11.0702

>  <SCORE.INTER>
-13.3514

>  <SCORE.INTER.CONST>
1

>  <SCORE.INTER.POLAR>
-1.27133

>  <SCORE.INTER.ROT>
3

>  <SCORE.INTER.SOLV>
19.9608

>  <SCORE.INTER.VDW>
-16.9168

>  <SCORE.INTER.norm>
-0.834464

>  <SCORE.INTRA>
2.28098

>  <SCORE.INTRA.DIHEDRAL>
2.65929

>  <SCORE.INTRA.DIHEDRAL.0>
0.00893466

>  <SCORE.INTRA.POLAR>
0

>  <SCORE.INTRA.POLAR.0>
0

>  <SCORE.INTRA.REPUL>
0

>  <SCORE.INTRA.REPUL.0>
0

>  <SCORE.INTRA.SOLV>
1.69379

>  <SCORE.INTRA.SOLV.lig_0>
-48.9722

>  <SCORE.INTRA.VDW>
0.104441

>  <SCORE.INTRA.VDW.0>
-0.529409

>  <SCORE.INTRA.norm>
0.142561

>  <SCORE.RESTR>
0.000226112

>  <SCORE.RESTR.CAVITY>
0.000226112

>  <SCORE.RESTR.norm>
1.4132e-05

>  <SCORE.SYSTEM>
0

>  <SCORE.SYSTEM.CONST>
0

>  <SCORE.SYSTEM.DIHEDRAL>
0

>  <SCORE.SYSTEM.SOLV>
0

>  <SCORE.SYSTEM.norm>
0

>  <SCORE.heavy>
16

>  <SCORE.norm>
-0.691889

>  <RMSD>
40.436

$$$$
ligand
 OpenBabel11021811433D
libRbt.so/2013.1/901 2013/11/27
 16 16  0  0  0  0  0  0  0  0999 V2000
   10.3954    1.4658   -2.2110 P   0  0  2  0  0  0  0  0  0  0  0  0
   10.8931    2.2655   -1.0642 O   0  0  0  0  0  0  0  0  0  0  0  0
    9.8270    2.4571   -3.3441 O   0  5  0  0  0  0  0  0  0  0  0  0
    9.2080    0.5061   -1.6983 O   0  0  0  0  0  0  0  0  0  0  0  0
   10.3664   -3.3851   -2.1239 C   0  0  2  0  0  0  0  0  0  0  0  0
    9.0605   -2.9717   -1.6831 O   0  0  0  0  0  0  0  0  0  0  0  0
   11.0851   -4.2063   -1.0229 C   0  0  2  0  0  0  0  0  0  0  0  0
   10.2737   -5.3743   -0.6604 O   0  0  0  0  0  0  0  0  0  0  0  0
   11.2733   -3.3066    0.2130 C   0  0  1  0  0  0  0  0  0  0  0  0
   11.9423   -4.0380    1.2473 O   0  0  0  0  0  0  0  0  0  0  0  0
   12.1238   -2.0952   -0.1996 C   0  0  2  0  0  0  0  0  0  0  0  0
   12.3056   -1.2283    0.9408 O   0  0  0  0  0  0  0  0  0  0  0  0
   11.3792   -1.3334   -1.3307 C   0  0  2  0  0  0  0  0  0  0  0  0
   11.1776   -2.2156   -2.4771 O   0  0  0  0  0  0  0  0  0  0  0  0
   12.2407   -0.1367   -1.7731 C   0  0  0  0  0  0  0  0  0  0  0  0
   11.6024    0.5785   -2.8381 O   0  0  0  0  0  0  0  0  0  0  0  0
  1  2  1  1  0  0  0
  1  3  1  0  0  0  0
  1  4  2  0  0  0  0
  1 16  1  0  0  0  0
  5  6  1  1  0  0  0
  5  7  1  0  0  0  0
  5 14  1  0  0  0  0
  7  8  1  1  0  0  0
  7  9  1  0  0  0  0
  9 10  1  1  0  0  0
  9 11  1  0  0  0  0
 11 12  1  1  0  0  0
 11 13  1  0  0  0  0
 13 14  1  0  0  0  0
 13 15  1  6  0  0  0
 15 16  1  0  0  0  0
M  CHG  1   3  -1
M  END
>  <CHROM.1>
178.74591281,76.06026071,50.75322015,10.88706487,-1.19390794,-1.32512665
1.71885943,-0.84850854,-0.23037819

>  <Name>
ligand

>  <RI>
0

>  <Rbt.Current_Directory>
/home/itssahil/PROJECTS/Mol_Feturizer/New_Systems/rnas/2HO7

>  <Rbt.Executable>
rbdock ($Id: //depot/dev/client3/rdock/2013.1/src/exe/rbdock.cxx#4 $)

>  <Rbt.Library>
libRbt.so (2013.1, Build901 2013/11/27)

>  <Rbt.Parameter_File>
/export/apps/rDock/src/rDock_2013.1_src/data/scripts/dock_solv.prm

>  <Rbt.Receptor>
prm/blind_docking_20.prm

>  <SCORE>
-14.9122

>  <SCORE.INTER>
-16.9398

>  <SCORE.INTER.CONST>
1

>  <SCORE.INTER.POLAR>
-2.86378

>  <SCORE.INTER.ROT>
3

>  <SCORE.INTER.SOLV>
14.5825

>  <SCORE.INTER.VDW>
-12.2081

>  <SCORE.INTER.norm>
-1.05874

>  <SCORE.INTRA>
2.0276

>  <SCORE.INTRA.DIHEDRAL>
1.33533

>  <SCORE.INTRA.DIHEDRAL.0>
0.00893466

>  <SCORE.INTRA.POLAR>
0

>  <SCORE.INTRA.POLAR.0>
0

>  <SCORE.INTRA.REPUL>
0

>  <SCORE.INTRA.REPUL.0>
0

>  <SCORE.INTRA.SOLV>
2.8819

>  <SCORE.INTRA.SOLV.lig_0>
-48.9722

>  <SCORE.INTRA.VDW>
-0.0810114

>  <SCORE.INTRA.VDW.0>
-0.529409

>  <SCORE.INTRA.norm>
0.126725

>  <SCORE.RESTR>
0

>  <SCORE.RESTR.CAVITY>
0

>  <SCORE.RESTR.norm>
0

>  <SCORE.SYSTEM>
0

>  <SCORE.SYSTEM.CONST>
0

>  <SCORE.SYSTEM.DIHEDRAL>
0

>  <SCORE.SYSTEM.SOLV>
0

>  <SCORE.SYSTEM.norm>
0

>  <SCORE.heavy>
16

>  <SCORE.norm>
-0.932013

>  <RMSD>
40.442

$$$$
ligand
 OpenBabel11021811433D
libRbt.so/2013.1/901 2013/11/27
 16 16  0  0  0  0  0  0  0  0999 V2000
   10.2685    0.5603   -3.8125 P   0  0  2  0  0  0  0  0  0  0  0  0
    9.8771    1.1112   -5.1337 O   0  0  0  0  0  0  0  0  0  0  0  0
   11.8024    0.0771   -3.8708 O   0  5  0  0  0  0  0  0  0  0  0  0
    9.3251   -0.7006   -3.4756 O   0  0  0  0  0  0  0  0  0  0  0  0
    8.7236   -1.0420    0.2345 C   0  0  2  0  0  0  0  0  0  0  0  0
    7.6967   -0.1381    0.6807 O   0  0  0  0  0  0  0  0  0  0  0  0
    9.6624   -1.4304    1.4054 C   0  0  2  0  0  0  0  0  0  0  0  0
    8.8831   -2.0369    2.4911 O   0  0  0  0  0  0  0  0  0  0  0  0
   10.3554   -0.1545    1.9197 C   0  0  1  0  0  0  0  0  0  0  0  0
   11.2364   -0.4838    3.0003 O   0  0  0  0  0  0  0  0  0  0  0  0
   11.1600    0.4554    0.7613 C   0  0  2  0  0  0  0  0  0  0  0  0
   11.8115    1.6614    1.2150 O   0  0  0  0  0  0  0  0  0  0  0  0
   10.1799    0.7866   -0.3979 C   0  0  2  0  0  0  0  0  0  0  0  0
    9.5061   -0.4299   -0.8442 O   0  0  0  0  0  0  0  0  0  0  0  0
   10.9832    1.3674   -1.5758 C   0  0  0  0  0  0  0  0  0  0  0  0
   10.1135    1.6992   -2.6651 O   0  0  0  0  0  0  0  0  0  0  0  0
  1  2  1  6  0  0  0
  1  3  1  0  0  0  0
  1  4  2  0  0  0  0
  1 16  1  0  0  0  0
  5  6  1  1  0  0  0
  5  7  1  0  0  0  0
  5 14  1  0  0  0  0
  7  8  1  1  0  0  0
  7  9  1  0  0  0  0
  9 10  1  1  0  0  0
  9 11  1  0  0  0  0
 11 12  1  1  0  0  0
 11 13  1  0  0  0  0
 13 14  1  0  0  0  0
 13 15  1  6  0  0  0
 15 16  1  0  0  0  0
M  CHG  1   3  -1
M  END
>  <CHROM.1>
-179.46801002,-103.96078994,-156.04727335,10.10704567,0.12066730,-0.89239833
1.49351968,-0.63014866,-1.40159916

>  <Name>
ligand

>  <RI>
0

>  <Rbt.Current_Directory>
/home/itssahil/PROJECTS/Mol_Feturizer/New_Systems/rnas/2HO7

>  <Rbt.Executable>
rbdock ($Id: //depot/dev/client3/rdock/2013.1/src/exe/rbdock.cxx#4 $)

>  <Rbt.Library>
libRbt.so (2013.1, Build901 2013/11/27)

>  <Rbt.Parameter_File>
/export/apps/rDock/src/rDock_2013.1_src/data/scripts/dock_solv.prm

>  <Rbt.Receptor>
prm/blind_docking_80.prm

>  <SCORE>
-9.46958

>  <SCORE.INTER>
-14.6128

>  <SCORE.INTER.CONST>
1

>  <SCORE.INTER.POLAR>
-2.82127

>  <SCORE.INTER.ROT>
3

>  <SCORE.INTER.SOLV>
19.9328

>  <SCORE.INTER.VDW>
-12.5819

>  <SCORE.INTER.norm>
-0.913299

>  <SCORE.INTRA>
5.1432

>  <SCORE.INTRA.DIHEDRAL>
6.82026

>  <SCORE.INTRA.DIHEDRAL.0>
0.00893466

>  <SCORE.INTRA.POLAR>
0

>  <SCORE.INTRA.POLAR.0>
0

>  <SCORE.INTRA.REPUL>
0

>  <SCORE.INTRA.REPUL.0>
0

>  <SCORE.INTRA.SOLV>
3.69783

>  <SCORE.INTRA.SOLV.lig_0>
-48.9722

>  <SCORE.INTRA.VDW>
-0.115847

>  <SCORE.INTRA.VDW.0>
-0.529409

>  <SCORE.INTRA.norm>
0.32145

>  <SCORE.RESTR>
0

>  <SCORE.RESTR.CAVITY>
0

>  <SCORE.RESTR.norm>
0

>  <SCORE.SYSTEM>
0

>  <SCORE.SYSTEM.CONST>
0

>  <SCORE.SYSTEM.DIHEDRAL>
0

>  <SCORE.SYSTEM.SOLV>
0

>  <SCORE.SYSTEM.norm>
0

>  <SCORE.heavy>
16

>  <SCORE.norm>
-0.591849

>  <RMSD>
40.445

$$$$
ligand
 OpenBabel11021811433D
libRbt.so/2013.1/901 2013/11/27
 16 16  0  0  0  0  0  0  0  0999 V2000
   11.6802   -4.1044   -0.4839 P   0  0  2  0  0  0  0  0  0  0  0  0
   11.1032   -3.9202    0.8709 O   0  0  0  0  0  0  0  0  0  0  0  0
   10.6786   -4.9980   -1.3717 O   0  5  0  0  0  0  0  0  0  0  0  0
   13.0934   -4.8645   -0.3474 O   0  0  0  0  0  0  0  0  0  0  0  0
    9.6354    0.9952   -3.3993 C   0  0  2  0  0  0  0  0  0  0  0  0
   10.8271    1.1990   -4.1797 O   0  0  0  0  0  0  0  0  0  0  0  0
    9.5795    1.9876   -2.2097 C   0  0  2  0  0  0  0  0  0  0  0  0
    9.6361    3.3675   -2.7066 O   0  0  0  0  0  0  0  0  0  0  0  0
   10.7884    1.7204   -1.2935 C   0  0  1  0  0  0  0  0  0  0  0  0
   10.7599    2.6203   -0.1791 O   0  0  0  0  0  0  0  0  0  0  0  0
   10.7001    0.2705   -0.7922 C   0  0  2  0  0  0  0  0  0  0  0  0
   11.8304   -0.0095    0.0615 O   0  0  0  0  0  0  0  0  0  0  0  0
   10.7181   -0.6776   -2.0230 C   0  0  2  0  0  0  0  0  0  0  0  0
    9.5859   -0.3816   -2.8970 O   0  0  0  0  0  0  0  0  0  0  0  0
   10.5962   -2.1312   -1.5311 C   0  0  0  0  0  0  0  0  0  0  0  0
   11.8857   -2.6631   -1.2035 O   0  0  0  0  0  0  0  0  0  0  0  0
  1  2  1  1  0  0  0
  1  3  1  0  0  0  0
  1  4  2  0  0  0  0
  1 16  1  0  0  0  0
  5  6  1  1  0  0  0
  5  7  1  0  0  0  0
  5 14  1  0  0  0  0
  7  8  1  6  0  0  0
  7  9  1  0  0  0  0
  9 10  1  1  0  0  0
  9 11  1  0  0  0  0
 11 12  1  1  0  0  0
 11 13  1  0  0  0  0
 13 14  1  0  0  0  0
 13 15  1  1  0  0  0
 15 16  1  0  0  0  0
M  CHG  1   3  -1
M  END
>  <CHROM.1>
-86.26684717,171.54194759,-70.58302203,10.90246524,-1.00550793,-1.39404983
-0.91561071,-1.17859644,0.33147849

>  <Name>
ligand

>  <RI>
0

>  <Rbt.Current_Directory>
/home/itssahil/PROJECTS/Mol_Feturizer/New_Systems/rnas/2HO7

>  <Rbt.Executable>
rbdock ($Id: //depot/dev/client3/rdock/2013.1/src/exe/rbdock.cxx#4 $)

>  <Rbt.Library>
libRbt.so (2013.1, Build901 2013/11/27)

>  <Rbt.Parameter_File>
/export/apps/rDock/src/rDock_2013.1_src/data/scripts/dock_solv.prm

>  <Rbt.Receptor>
prm/blind_docking_100.prm

>  <SCORE>
-8.71086

>  <SCORE.INTER>
-10.1526

>  <SCORE.INTER.CONST>
1

>  <SCORE.INTER.POLAR>
-1.27279

>  <SCORE.INTER.ROT>
3

>  <SCORE.INTER.SOLV>
14.7925

>  <SCORE.INTER.VDW>
-13.0566

>  <SCORE.INTER.norm>
-0.634539

>  <SCORE.INTRA>
1.44176

>  <SCORE.INTRA.DIHEDRAL>
2.64766

>  <SCORE.INTRA.DIHEDRAL.0>
0.00893466

>  <SCORE.INTRA.POLAR>
0

>  <SCORE.INTRA.POLAR.0>
0

>  <SCORE.INTRA.REPUL>
0

>  <SCORE.INTRA.REPUL.0>
0

>  <SCORE.INTRA.SOLV>
0.473497

>  <SCORE.INTRA.SOLV.lig_0>
-48.9722

>  <SCORE.INTRA.VDW>
-0.118815

>  <SCORE.INTRA.VDW.0>
-0.529409

>  <SCORE.INTRA.norm>
0.0901102

>  <SCORE.RESTR>
0

>  <SCORE.RESTR.CAVITY>
0

>  <SCORE.RESTR.norm>
0

>  <SCORE.SYSTEM>
0

>  <SCORE.SYSTEM.CONST>
0

>  <SCORE.SYSTEM.DIHEDRAL>
0

>  <SCORE.SYSTEM.SOLV>
0

>  <SCORE.SYSTEM.norm>
0

>  <SCORE.heavy>
16

>  <SCORE.norm>
-0.544429

>  <RMSD>
40.446

$$$$
ligand
 OpenBabel11021811433D
libRbt.so/2013.1/901 2013/11/27
 16 16  0  0  0  0  0  0  0  0999 V2000
    9.5862    1.9525   -1.0127 P   0  0  2  0  0  0  0  0  0  0  0  0
    8.9959    2.7381   -2.1247 O   0  0  0  0  0  0  0  0  0  0  0  0
    9.1171    2.5829    0.3917 O   0  5  0  0  0  0  0  0  0  0  0  0
   11.1914    2.0259   -1.1200 O   0  0  0  0  0  0  0  0  0  0  0  0
   10.1527   -3.5453   -1.4869 C   0  0  2  0  0  0  0  0  0  0  0  0
   10.1085   -4.4097   -0.3373 O   0  0  0  0  0  0  0  0  0  0  0  0
   11.6171   -3.2806   -1.9211 C   0  0  2  0  0  0  0  0  0  0  0  0
   12.2904   -4.5521   -2.2107 O   0  0  0  0  0  0  0  0  0  0  0  0
   12.3459   -2.5628   -0.7695 C   0  0  1  0  0  0  0  0  0  0  0  0
   13.7029   -2.2985   -1.1450 O   0  0  0  0  0  0  0  0  0  0  0  0
   11.6171   -1.2389   -0.4909 C   0  0  2  0  0  0  0  0  0  0  0  0
   12.2750   -0.5506    0.5945 O   0  0  0  0  0  0  0  0  0  0  0  0
   10.1473   -1.5588   -0.1019 C   0  0  2  0  0  0  0  0  0  0  0  0
    9.4870   -2.2725   -1.1918 O   0  0  0  0  0  0  0  0  0  0  0  0
    9.4008   -0.2355    0.1465 C   0  0  0  0  0  0  0  0  0  0  0  0
    9.0886    0.4087   -1.0948 O   0  0  0  0  0  0  0  0  0  0  0  0
  1  2  1  6  0  0  0
  1  3  1  0  0  0  0
  1  4  2  0  0  0  0
  1 16  1  0  0  0  0
  5  6  1  1  0  0  0
  5  7  1  0  0  0  0
  5 14  1  0  0  0  0
  7  8  1  1  0  0  0
  7  9  1  0  0  0  0
  9 10  1  6  0  0  0
  9 11  1  0  0  0  0
 11 12  1  1  0  0  0
 11 13  1  0  0  0  0
 13 14  1  0  0  0  0
 13 15  1  6  0  0  0
 15 16  1  0  0  0  0
M  CHG  1   3  -1
M  END
>  <CHROM.1>
75.83448785,-129.53749555,-166.17443972,10.61175402,-0.79784313,-0.87850966
1.93265846,-0.02925826,0.07717489

>  <Name>
ligand

>  <RI>
0

>  <Rbt.Current_Directory>
/home/itssahil/PROJECTS/Mol_Feturizer/New_Systems/rnas/2HO7

>  <Rbt.Executable>
rbdock ($Id: //depot/dev/client3/rdock/2013.1/src/exe/rbdock.cxx#4 $)

>  <Rbt.Library>
libRbt.so (2013.1, Build901 2013/11/27)

>  <Rbt.Parameter_File>
/export/apps/rDock/src/rDock_2013.1_src/data/scripts/dock_solv.prm

>  <Rbt.Receptor>
prm/blind_docking_60.prm

>  <SCORE>
-11.6311

>  <SCORE.INTER>
-16.6256

>  <SCORE.INTER.CONST>
1

>  <SCORE.INTER.POLAR>
-2.54558

>  <SCORE.INTER.ROT>
3

>  <SCORE.INTER.SOLV>
17.6198

>  <SCORE.INTER.VDW>
-14.0717

>  <SCORE.INTER.norm>
-1.0391

>  <SCORE.INTRA>
4.99454

>  <SCORE.INTRA.DIHEDRAL>
7.90671

>  <SCORE.INTRA.DIHEDRAL.0>
0.00893466

>  <SCORE.INTRA.POLAR>
0

>  <SCORE.INTRA.POLAR.0>
0

>  <SCORE.INTRA.REPUL>
0

>  <SCORE.INTRA.REPUL.0>
0

>  <SCORE.INTRA.SOLV>
3.12509

>  <SCORE.INTRA.SOLV.lig_0>
-48.9722

>  <SCORE.INTRA.VDW>
-0.521362

>  <SCORE.INTRA.VDW.0>
-0.529409

>  <SCORE.INTRA.norm>
0.312159

>  <SCORE.RESTR>
0

>  <SCORE.RESTR.CAVITY>
0

>  <SCORE.RESTR.norm>
0

>  <SCORE.SYSTEM>
0

>  <SCORE.SYSTEM.CONST>
0

>  <SCORE.SYSTEM.DIHEDRAL>
0

>  <SCORE.SYSTEM.SOLV>
0

>  <SCORE.SYSTEM.norm>
0

>  <SCORE.heavy>
16

>  <SCORE.norm>
-0.726943

>  <RMSD>
40.453

$$$$
ligand
 OpenBabel11021811433D
libRbt.so/2013.1/901 2013/11/27
 16 16  0  0  0  0  0  0  0  0999 V2000
    9.6571    1.8606   -1.5546 P   0  0  2  0  0  0  0  0  0  0  0  0
    9.1833    2.2479   -2.9065 O   0  0  0  0  0  0  0  0  0  0  0  0
    9.4971    3.1123   -0.5559 O   0  5  0  0  0  0  0  0  0  0  0  0
   11.2112    1.4483   -1.6474 O   0  0  0  0  0  0  0  0  0  0  0  0
   10.8128   -2.8805   -0.1142 C   0  0  2  0  0  0  0  0  0  0  0  0
    9.6682   -3.7464   -0.2183 O   0  0  0  0  0  0  0  0  0  0  0  0
   11.4883   -3.0247    1.2736 C   0  0  2  0  0  0  0  0  0  0  0  0
   11.8812   -4.4213    1.4957 O   0  0  0  0  0  0  0  0  0  0  0  0
   10.4790   -2.5958    2.3552 C   0  0  1  0  0  0  0  0  0  0  0  0
   11.0786   -2.7125    3.6510 O   0  0  0  0  0  0  0  0  0  0  0  0
   10.0878   -1.1329    2.0940 C   0  0  2  0  0  0  0  0  0  0  0  0
    9.1316   -0.7090    3.0895 O   0  0  0  0  0  0  0  0  0  0  0  0
    9.4556   -1.0379    0.6779 C   0  0  2  0  0  0  0  0  0  0  0  0
   10.4157   -1.4851   -0.3278 O   0  0  0  0  0  0  0  0  0  0  0  0
    9.0913    0.4309    0.3951 C   0  0  0  0  0  0  0  0  0  0  0  0
    8.7793    0.6157   -0.9912 O   0  0  0  0  0  0  0  0  0  0  0  0
  1  2  1  6  0  0  0
  1  3  1  0  0  0  0
  1  4  2  0  0  0  0
  1 16  1  0  0  0  0
  5  6  1  1  0  0  0
  5  7  1  0  0  0  0
  5 14  1  0  0  0  0
  7  8  1  1  0  0  0
  7  9  1  0  0  0  0
  9 10  1  1  0  0  0
  9 11  1  0  0  0  0
 11 12  1  1  0  0  0
 11 13  1  0  0  0  0
 13 14  1  0  0  0  0
 13 15  1  6  0  0  0
 15 16  1  0  0  0  0
M  CHG  1   3  -1
M  END
>  <CHROM.1>
167.42792842,-128.73860845,-169.44753394,10.08037802,-0.65197888,0.25447620
-2.22375508,-1.23784901,1.91800384

>  <Name>
ligand

>  <RI>
0

>  <Rbt.Current_Directory>
/home/itssahil/PROJECTS/Mol_Feturizer/New_Systems/rnas/2HO7

>  <Rbt.Executable>
rbdock ($Id: //depot/dev/client3/rdock/2013.1/src/exe/rbdock.cxx#4 $)

>  <Rbt.Library>
libRbt.so (2013.1, Build901 2013/11/27)

>  <Rbt.Parameter_File>
/export/apps/rDock/src/rDock_2013.1_src/data/scripts/dock_solv.prm

>  <Rbt.Receptor>
prm/blind_docking_80.prm

>  <SCORE>
-7.60895

>  <SCORE.INTER>
-12.0931

>  <SCORE.INTER.CONST>
1

>  <SCORE.INTER.POLAR>
-1.26058

>  <SCORE.INTER.ROT>
3

>  <SCORE.INTER.SOLV>
17.1561

>  <SCORE.INTER.VDW>
-15.1788

>  <SCORE.INTER.norm>
-0.755818

>  <SCORE.INTRA>
4.48414

>  <SCORE.INTRA.DIHEDRAL>
7.5511

>  <SCORE.INTRA.DIHEDRAL.0>
0.00893466

>  <SCORE.INTRA.POLAR>
0

>  <SCORE.INTRA.POLAR.0>
0

>  <SCORE.INTRA.REPUL>
0

>  <SCORE.INTRA.REPUL.0>
0

>  <SCORE.INTRA.SOLV>
2.02836

>  <SCORE.INTRA.SOLV.lig_0>
-48.9722

>  <SCORE.INTRA.VDW>
-0.305589

>  <SCORE.INTRA.VDW.0>
-0.529409

>  <SCORE.INTRA.norm>
0.280259

>  <SCORE.RESTR>
0

>  <SCORE.RESTR.CAVITY>
0

>  <SCORE.RESTR.norm>
0

>  <SCORE.SYSTEM>
0

>  <SCORE.SYSTEM.CONST>
0

>  <SCORE.SYSTEM.DIHEDRAL>
0

>  <SCORE.SYSTEM.SOLV>
0

>  <SCORE.SYSTEM.norm>
0

>  <SCORE.heavy>
16

>  <SCORE.norm>
-0.475559

>  <RMSD>
40.465

$$$$
ligand
 OpenBabel11021811433D
libRbt.so/2013.1/901 2013/11/27
 16 16  0  0  0  0  0  0  0  0999 V2000
    9.1485   -1.2963    1.0160 P   0  0  2  0  0  0  0  0  0  0  0  0
    8.2409   -0.4633    0.1886 O   0  0  0  0  0  0  0  0  0  0  0  0
    8.6164   -2.8150    1.0249 O   0  5  0  0  0  0  0  0  0  0  0  0
    9.1508   -0.7237    2.5213 O   0  0  0  0  0  0  0  0  0  0  0  0
   10.3013    3.1669   -1.5514 C   0  0  2  0  0  0  0  0  0  0  0  0
    8.8749    3.0156   -1.6667 O   0  0  0  0  0  0  0  0  0  0  0  0
   11.0041    2.7953   -2.8822 C   0  0  2  0  0  0  0  0  0  0  0  0
   10.4872    3.6324   -3.9713 O   0  0  0  0  0  0  0  0  0  0  0  0
   10.7155    1.3140   -3.1901 C   0  0  1  0  0  0  0  0  0  0  0  0
   11.3591    0.9392   -4.4139 O   0  0  0  0  0  0  0  0  0  0  0  0
   11.2669    0.4666   -2.0329 C   0  0  2  0  0  0  0  0  0  0  0  0
   10.9984   -0.9283   -2.2920 O   0  0  0  0  0  0  0  0  0  0  0  0
   10.5611    0.9070   -0.7207 C   0  0  2  0  0  0  0  0  0  0  0  0
   10.8160    2.3228   -0.4683 O   0  0  0  0  0  0  0  0  0  0  0  0
   11.1321    0.0855    0.4494 C   0  0  0  0  0  0  0  0  0  0  0  0
   10.6513   -1.2634    0.4012 O   0  0  0  0  0  0  0  0  0  0  0  0
  1  2  1  6  0  0  0
  1  3  1  0  0  0  0
  1  4  2  0  0  0  0
  1 16  1  0  0  0  0
  5  6  1  6  0  0  0
  5  7  1  0  0  0  0
  5 14  1  0  0  0  0
  7  8  1  6  0  0  0
  7  9  1  0  0  0  0
  9 10  1  6  0  0  0
  9 11  1  0  0  0  0
 11 12  1  6  0  0  0
 11 13  1  0  0  0  0
 13 14  1  0  0  0  0
 13 15  1  1  0  0  0
 15 16  1  0  0  0  0
M  CHG  1   3  -1
M  END
>  <CHROM.1>
-73.18305572,-79.85497493,62.35603767,10.10521608,0.52390779,-0.92935828
2.14740758,-1.10117925,2.83367566

>  <Name>
ligand

>  <RI>
0

>  <Rbt.Current_Directory>
/home/itssahil/PROJECTS/Mol_Feturizer/New_Systems/rnas/2HO7

>  <Rbt.Executable>
rbdock ($Id: //depot/dev/client3/rdock/2013.1/src/exe/rbdock.cxx#4 $)

>  <Rbt.Library>
libRbt.so (2013.1, Build901 2013/11/27)

>  <Rbt.Parameter_File>
/export/apps/rDock/src/rDock_2013.1_src/data/scripts/dock_solv.prm

>  <Rbt.Receptor>
prm/blind_docking_60.prm

>  <SCORE>
-13.6859

>  <SCORE.INTER>
-15.4816

>  <SCORE.INTER.CONST>
1

>  <SCORE.INTER.POLAR>
-1.27279

>  <SCORE.INTER.ROT>
3

>  <SCORE.INTER.SOLV>
16.4449

>  <SCORE.INTER.VDW>
-17.16

>  <SCORE.INTER.norm>
-0.967599

>  <SCORE.INTRA>
1.79568

>  <SCORE.INTRA.DIHEDRAL>
2.38181

>  <SCORE.INTRA.DIHEDRAL.0>
0.00893466

>  <SCORE.INTRA.POLAR>
0

>  <SCORE.INTRA.POLAR.0>
0

>  <SCORE.INTRA.REPUL>
0

>  <SCORE.INTRA.REPUL.0>
0

>  <SCORE.INTRA.SOLV>
1.46182

>  <SCORE.INTRA.SOLV.lig_0>
-48.9722

>  <SCORE.INTRA.VDW>
-0.12614

>  <SCORE.INTRA.VDW.0>
-0.529409

>  <SCORE.INTRA.norm>
0.11223

>  <SCORE.RESTR>
0

>  <SCORE.RESTR.CAVITY>
0

>  <SCORE.RESTR.norm>
0

>  <SCORE.SYSTEM>
0

>  <SCORE.SYSTEM.CONST>
0

>  <SCORE.SYSTEM.DIHEDRAL>
0

>  <SCORE.SYSTEM.SOLV>
0

>  <SCORE.SYSTEM.norm>
0

>  <SCORE.heavy>
16

>  <SCORE.norm>
-0.855369

>  <RMSD>
40.468

$$$$
ligand
 OpenBabel11021811433D
libRbt.so/2013.1/901 2013/11/27
 16 16  0  0  0  0  0  0  0  0999 V2000
    9.8248    2.4183   -1.3730 P   0  0  2  0  0  0  0  0  0  0  0  0
    9.9967    3.5670   -0.4493 O   0  0  0  0  0  0  0  0  0  0  0  0
   11.2631    1.7680   -1.6866 O   0  5  0  0  0  0  0  0  0  0  0  0
    9.1694    2.9490   -2.7451 O   0  0  0  0  0  0  0  0  0  0  0  0
    9.5390   -2.6742   -0.5770 C   0  0  2  0  0  0  0  0  0  0  0  0
    8.3677   -3.1822    0.0869 O   0  0  0  0  0  0  0  0  0  0  0  0
   10.8279   -3.1314    0.1529 C   0  0  2  0  0  0  0  0  0  0  0  0
   10.8721   -4.5969    0.2186 O   0  0  0  0  0  0  0  0  0  0  0  0
   10.8127   -2.5523    1.5800 C   0  0  1  0  0  0  0  0  0  0  0  0
   11.9974   -2.9536    2.2784 O   0  0  0  0  0  0  0  0  0  0  0  0
   10.7651   -1.0199    1.4762 C   0  0  2  0  0  0  0  0  0  0  0  0
   10.7385   -0.4517    2.8034 O   0  0  0  0  0  0  0  0  0  0  0  0
    9.4790   -0.6188    0.7022 C   0  0  2  0  0  0  0  0  0  0  0  0
    9.4962   -1.2094   -0.6335 O   0  0  0  0  0  0  0  0  0  0  0  0
    9.4408    0.9141    0.5647 C   0  0  0  0  0  0  0  0  0  0  0  0
    8.8701    1.2939   -0.6935 O   0  0  0  0  0  0  0  0  0  0  0  0
  1  2  1  1  0  0  0
  1  3  1  0  0  0  0
  1  4  2  0  0  0  0
  1 16  1  0  0  0  0
  5  6  1  1  0  0  0
  5  7  1  0  0  0  0
  5 14  1  0  0  0  0
  7  8  1  1  0  0  0
  7  9  1  0  0  0  0
  9 10  1  6  0  0  0
  9 11  1  0  0  0  0
 11 12  1  1  0  0  0
 11 13  1  0  0  0  0
 13 14  1  0  0  0  0
 13 15  1  6  0  0  0
 15 16  1  0  0  0  0
M  CHG  1   3  -1
M  END
>  <CHROM.1>
144.58557968,-132.57271844,-56.13668893,10.06927582,-0.34425800,-0.01704176
1.85305176,-1.07360555,-0.14713736

>  <Name>
ligand

>  <RI>
0

>  <Rbt.Current_Directory>
/home/itssahil/PROJECTS/Mol_Feturizer/New_Systems/rnas/2HO7

>  <Rbt.Executable>
rbdock ($Id: //depot/dev/client3/rdock/2013.1/src/exe/rbdock.cxx#4 $)

>  <Rbt.Library>
libRbt.so (2013.1, Build901 2013/11/27)

>  <Rbt.Parameter_File>
/export/apps/rDock/src/rDock_2013.1_src/data/scripts/dock_solv.prm

>  <Rbt.Receptor>
prm/blind_docking_60.prm

>  <SCORE>
-9.34442

>  <SCORE.INTER>
-14.9277

>  <SCORE.INTER.CONST>
1

>  <SCORE.INTER.POLAR>
-1.27268

>  <SCORE.INTER.ROT>
3

>  <SCORE.INTER.SOLV>
19.5691

>  <SCORE.INTER.VDW>
-17.8326

>  <SCORE.INTER.norm>
-0.932981

>  <SCORE.INTRA>
5.58328

>  <SCORE.INTRA.DIHEDRAL>
9.8428

>  <SCORE.INTRA.DIHEDRAL.0>
0.00893466

>  <SCORE.INTRA.POLAR>
0

>  <SCORE.INTRA.POLAR.0>
0

>  <SCORE.INTRA.REPUL>
0

>  <SCORE.INTRA.REPUL.0>
0

>  <SCORE.INTRA.SOLV>
1.35765

>  <SCORE.INTRA.SOLV.lig_0>
-48.9722

>  <SCORE.INTRA.VDW>
-0.0169482

>  <SCORE.INTRA.VDW.0>
-0.529409

>  <SCORE.INTRA.norm>
0.348955

>  <SCORE.RESTR>
0

>  <SCORE.RESTR.CAVITY>
0

>  <SCORE.RESTR.norm>
0

>  <SCORE.SYSTEM>
0

>  <SCORE.SYSTEM.CONST>
0

>  <SCORE.SYSTEM.DIHEDRAL>
0

>  <SCORE.SYSTEM.SOLV>
0

>  <SCORE.SYSTEM.norm>
0

>  <SCORE.heavy>
16

>  <SCORE.norm>
-0.584026

>  <RMSD>
40.478

$$$$
ligand
 OpenBabel11021811433D
libRbt.so/2013.1/901 2013/11/27
 16 16  0  0  0  0  0  0  0  0999 V2000
   10.4724    1.2341   -2.5027 P   0  0  2  0  0  0  0  0  0  0  0  0
    9.3484    0.3686   -2.0672 O   0  0  0  0  0  0  0  0  0  0  0  0
   11.0332    2.0548   -1.2371 O   0  5  0  0  0  0  0  0  0  0  0  0
    9.9313    2.2691   -3.6116 O   0  0  0  0  0  0  0  0  0  0  0  0
   10.2262   -3.4554   -2.1492 C   0  0  2  0  0  0  0  0  0  0  0  0
    9.0254   -2.9686   -1.5232 O   0  0  0  0  0  0  0  0  0  0  0  0
   11.0389   -4.3397   -1.1691 C   0  0  2  0  0  0  0  0  0  0  0  0
   10.2131   -5.4608   -0.7050 O   0  0  0  0  0  0  0  0  0  0  0  0
   11.4581   -3.4759    0.0352 C   0  0  1  0  0  0  0  0  0  0  0  0
   12.2181   -4.2663    0.9572 O   0  0  0  0  0  0  0  0  0  0  0  0
   12.3183   -2.3131   -0.4837 C   0  0  2  0  0  0  0  0  0  0  0  0
   12.7155   -1.4801    0.6267 O   0  0  0  0  0  0  0  0  0  0  0  0
   11.4719   -1.4860   -1.4904 C   0  0  2  0  0  0  0  0  0  0  0  0
   11.0532   -2.3331   -2.6041 O   0  0  0  0  0  0  0  0  0  0  0  0
   12.3378   -0.3381   -2.0405 C   0  0  0  0  0  0  0  0  0  0  0  0
   11.6691    0.3260   -3.1198 O   0  0  0  0  0  0  0  0  0  0  0  0
  1  2  1  1  0  0  0
  1  3  1  0  0  0  0
  1  4  2  0  0  0  0
  1 16  1  0  0  0  0
  5  6  1  1  0  0  0
  5  7  1  0  0  0  0
  5 14  1  0  0  0  0
  7  8  1  1  0  0  0
  7  9  1  0  0  0  0
  9 10  1  1  0  0  0
  9 11  1  0  0  0  0
 11 12  1  1  0  0  0
 11 13  1  0  0  0  0
 13 14  1  0  0  0  0
 13 15  1  6  0  0  0
 15 16  1  0  0  0  0
M  CHG  1   3  -1
M  END
>  <CHROM.1>
171.18863440,73.98349379,-73.91619892,10.97421117,-1.36390019,-1.52356899
1.70534938,-0.70347285,-0.29017190

>  <Name>
ligand

>  <RI>
0

>  <Rbt.Current_Directory>
/home/itssahil/PROJECTS/Mol_Feturizer/New_Systems/rnas/2HO7

>  <Rbt.Executable>
rbdock ($Id: //depot/dev/client3/rdock/2013.1/src/exe/rbdock.cxx#4 $)

>  <Rbt.Library>
libRbt.so (2013.1, Build901 2013/11/27)

>  <Rbt.Parameter_File>
/export/apps/rDock/src/rDock_2013.1_src/data/scripts/dock_solv.prm

>  <Rbt.Receptor>
prm/blind_docking_100.prm

>  <SCORE>
-13.7297

>  <SCORE.INTER>
-15.2104

>  <SCORE.INTER.CONST>
1

>  <SCORE.INTER.POLAR>
-2.54528

>  <SCORE.INTER.ROT>
3

>  <SCORE.INTER.SOLV>
14.0166

>  <SCORE.INTER.VDW>
-11.9282

>  <SCORE.INTER.norm>
-0.950647

>  <SCORE.INTRA>
1.48061

>  <SCORE.INTRA.DIHEDRAL>
1.4964

>  <SCORE.INTRA.DIHEDRAL.0>
0.00893466

>  <SCORE.INTRA.POLAR>
0

>  <SCORE.INTRA.POLAR.0>
0

>  <SCORE.INTRA.REPUL>
0

>  <SCORE.INTRA.REPUL.0>
0

>  <SCORE.INTRA.SOLV>
1.46988

>  <SCORE.INTRA.SOLV.lig_0>
-48.9722

>  <SCORE.INTRA.VDW>
-0.00252296

>  <SCORE.INTRA.VDW.0>
-0.529409

>  <SCORE.INTRA.norm>
0.0925383

>  <SCORE.RESTR>
0

>  <SCORE.RESTR.CAVITY>
0

>  <SCORE.RESTR.norm>
0

>  <SCORE.SYSTEM>
0

>  <SCORE.SYSTEM.CONST>
0

>  <SCORE.SYSTEM.DIHEDRAL>
0

>  <SCORE.SYSTEM.SOLV>
0

>  <SCORE.SYSTEM.norm>
0

>  <SCORE.heavy>
16

>  <SCORE.norm>
-0.858109

>  <RMSD>
40.481

$$$$
ligand
 OpenBabel11021811433D
libRbt.so/2013.1/901 2013/11/27
 16 16  0  0  0  0  0  0  0  0999 V2000
    9.9691    1.8325   -1.5650 P   0  0  2  0  0  0  0  0  0  0  0  0
    9.7103    2.3628   -2.9267 O   0  0  0  0  0  0  0  0  0  0  0  0
    8.9682    0.6068   -1.2724 O   0  5  0  0  0  0  0  0  0  0  0  0
    9.7044    3.0043   -0.4925 O   0  0  0  0  0  0  0  0  0  0  0  0
   10.1042   -3.2266   -2.2641 C   0  0  2  0  0  0  0  0  0  0  0  0
    8.9764   -2.9682   -1.4085 O   0  0  0  0  0  0  0  0  0  0  0  0
   11.2154   -3.9872   -1.4962 C   0  0  2  0  0  0  0  0  0  0  0  0
   10.6814   -5.2446   -0.9595 O   0  0  0  0  0  0  0  0  0  0  0  0
   11.7036   -3.0987   -0.3366 C   0  0  1  0  0  0  0  0  0  0  0  0
   12.7379   -3.7741    0.3890 O   0  0  0  0  0  0  0  0  0  0  0  0
   12.2541   -1.7929   -0.9308 C   0  0  2  0  0  0  0  0  0  0  0  0
   12.7088   -0.9358    0.1385 O   0  0  0  0  0  0  0  0  0  0  0  0
   11.1146   -1.0936   -1.7222 C   0  0  2  0  0  0  0  0  0  0  0  0
   10.6408   -1.9681   -2.7918 O   0  0  0  0  0  0  0  0  0  0  0  0
   11.6673    0.1994   -2.3490 C   0  0  0  0  0  0  0  0  0  0  0  0
   11.5012    1.3055   -1.4534 O   0  0  0  0  0  0  0  0  0  0  0  0
  1  2  1  6  0  0  0
  1  3  1  0  0  0  0
  1  4  2  0  0  0  0
  1 16  1  0  0  0  0
  5  6  1  1  0  0  0
  5  7  1  0  0  0  0
  5 14  1  0  0  0  0
  7  8  1  1  0  0  0
  7  9  1  0  0  0  0
  9 10  1  6  0  0  0
  9 11  1  0  0  0  0
 11 12  1  1  0  0  0
 11 13  1  0  0  0  0
 13 14  1  0  0  0  0
 13 15  1  6  0  0  0
 15 16  1  0  0  0  0
M  CHG  1   3  -1
M  END
>  <CHROM.1>
-90.03799907,-80.28390510,-64.30455025,10.77024877,-0.92115681,-1.34491978
1.81870799,-0.55784811,0.01210921

>  <Name>
ligand

>  <RI>
0

>  <Rbt.Current_Directory>
/home/itssahil/PROJECTS/Mol_Feturizer/New_Systems/rnas/2HO7

>  <Rbt.Executable>
rbdock ($Id: //depot/dev/client3/rdock/2013.1/src/exe/rbdock.cxx#4 $)

>  <Rbt.Library>
libRbt.so (2013.1, Build901 2013/11/27)

>  <Rbt.Parameter_File>
/export/apps/rDock/src/rDock_2013.1_src/data/scripts/dock_solv.prm

>  <Rbt.Receptor>
prm/blind_docking_40.prm

>  <SCORE>
-14.2899

>  <SCORE.INTER>
-18.0598

>  <SCORE.INTER.CONST>
1

>  <SCORE.INTER.POLAR>
-2.84192

>  <SCORE.INTER.ROT>
3

>  <SCORE.INTER.SOLV>
17.4708

>  <SCORE.INTER.VDW>
-13.9904

>  <SCORE.INTER.norm>
-1.12874

>  <SCORE.INTRA>
3.76987

>  <SCORE.INTRA.DIHEDRAL>
4.51517

>  <SCORE.INTRA.DIHEDRAL.0>
0.00893466

>  <SCORE.INTRA.POLAR>
0

>  <SCORE.INTRA.POLAR.0>
0

>  <SCORE.INTRA.REPUL>
0

>  <SCORE.INTRA.REPUL.0>
0

>  <SCORE.INTRA.SOLV>
3.20404

>  <SCORE.INTRA.SOLV.lig_0>
-48.9722

>  <SCORE.INTRA.VDW>
-0.0897382

>  <SCORE.INTRA.VDW.0>
-0.529409

>  <SCORE.INTRA.norm>
0.235617

>  <SCORE.RESTR>
0

>  <SCORE.RESTR.CAVITY>
0

>  <SCORE.RESTR.norm>
0

>  <SCORE.SYSTEM>
0

>  <SCORE.SYSTEM.CONST>
0

>  <SCORE.SYSTEM.DIHEDRAL>
0

>  <SCORE.SYSTEM.SOLV>
0

>  <SCORE.SYSTEM.norm>
0

>  <SCORE.heavy>
16

>  <SCORE.norm>
-0.893122

>  <RMSD>
40.489

$$$$
ligand
 OpenBabel11021811433D
libRbt.so/2013.1/901 2013/11/27
 16 16  0  0  0  0  0  0  0  0999 V2000
    9.7646   -1.7461    2.3926 P   0  0  2  0  0  0  0  0  0  0  0  0
    9.4642   -0.6351    3.3294 O   0  0  0  0  0  0  0  0  0  0  0  0
    8.3906   -2.4629    1.9592 O   0  5  0  0  0  0  0  0  0  0  0  0
   10.7101   -2.8143    3.1401 O   0  0  0  0  0  0  0  0  0  0  0  0
   10.2678    0.0610   -3.1462 C   0  0  2  0  0  0  0  0  0  0  0  0
   11.6956   -0.1053   -3.2136 O   0  0  0  0  0  0  0  0  0  0  0  0
    9.8721    1.5367   -3.4084 C   0  0  2  0  0  0  0  0  0  0  0  0
   10.3758    1.9641   -4.7190 O   0  0  0  0  0  0  0  0  0  0  0  0
   10.4963    2.4131   -2.3062 C   0  0  1  0  0  0  0  0  0  0  0  0
   10.1416    3.7847   -2.5189 O   0  0  0  0  0  0  0  0  0  0  0  0
    9.9507    1.9401   -0.9498 C   0  0  2  0  0  0  0  0  0  0  0  0
   10.5304    2.7397    0.1034 O   0  0  0  0  0  0  0  0  0  0  0  0
   10.3384    0.4480   -0.7567 C   0  0  2  0  0  0  0  0  0  0  0  0
    9.7686   -0.3586   -1.8328 O   0  0  0  0  0  0  0  0  0  0  0  0
    9.7666   -0.0433    0.5856 C   0  0  0  0  0  0  0  0  0  0  0  0
   10.5060   -1.1725    1.0663 O   0  0  0  0  0  0  0  0  0  0  0  0
  1  2  1  1  0  0  0
  1  3  1  0  0  0  0
  1  4  2  0  0  0  0
  1 16  1  0  0  0  0
  5  6  1  1  0  0  0
  5  7  1  0  0  0  0
  5 14  1  0  0  0  0
  7  8  1  6  0  0  0
  7  9  1  0  0  0  0
  9 10  1  6  0  0  0
  9 11  1  0  0  0  0
 11 12  1  1  0  0  0
 11 13  1  0  0  0  0
 13 14  1  0  0  0  0
 13 15  1  1  0  0  0
 15 16  1  0  0  0  0
M  CHG  1   3  -1
M  END
>  <CHROM.1>
-156.71824647,-173.90919338,-48.39168494,10.10549563,0.17180636,-0.38658260
-2.38197466,1.43694017,-0.17637047

>  <Name>
ligand

>  <RI>
0

>  <Rbt.Current_Directory>
/home/itssahil/PROJECTS/Mol_Feturizer/New_Systems/rnas/2HO7

>  <Rbt.Executable>
rbdock ($Id: //depot/dev/client3/rdock/2013.1/src/exe/rbdock.cxx#4 $)

>  <Rbt.Library>
libRbt.so (2013.1, Build901 2013/11/27)

>  <Rbt.Parameter_File>
/export/apps/rDock/src/rDock_2013.1_src/data/scripts/dock_solv.prm

>  <Rbt.Receptor>
prm/blind_docking_20.prm

>  <SCORE>
-13.611

>  <SCORE.INTER>
-14.769

>  <SCORE.INTER.CONST>
1

>  <SCORE.INTER.POLAR>
-1.27279

>  <SCORE.INTER.ROT>
3

>  <SCORE.INTER.SOLV>
19.5157

>  <SCORE.INTER.VDW>
-17.7086

>  <SCORE.INTER.norm>
-0.923061

>  <SCORE.INTRA>
1.158

>  <SCORE.INTRA.DIHEDRAL>
2.11547

>  <SCORE.INTRA.DIHEDRAL.0>
0.00893466

>  <SCORE.INTRA.POLAR>
0

>  <SCORE.INTRA.POLAR.0>
0

>  <SCORE.INTRA.REPUL>
0

>  <SCORE.INTRA.REPUL.0>
0

>  <SCORE.INTRA.SOLV>
-0.116951

>  <SCORE.INTRA.SOLV.lig_0>
-48.9722

>  <SCORE.INTRA.VDW>
0.158746

>  <SCORE.INTRA.VDW.0>
-0.529409

>  <SCORE.INTRA.norm>
0.0723752

>  <SCORE.RESTR>
0

>  <SCORE.RESTR.CAVITY>
0

>  <SCORE.RESTR.norm>
0

>  <SCORE.SYSTEM>
0

>  <SCORE.SYSTEM.CONST>
0

>  <SCORE.SYSTEM.DIHEDRAL>
0

>  <SCORE.SYSTEM.SOLV>
0

>  <SCORE.SYSTEM.norm>
0

>  <SCORE.heavy>
16

>  <SCORE.norm>
-0.850686

>  <RMSD>
40.494

$$$$
ligand
 OpenBabel11021811433D
libRbt.so/2013.1/901 2013/11/27
 16 16  0  0  0  0  0  0  0  0999 V2000
   11.5981   -3.6467   -0.4848 P   0  0  2  0  0  0  0  0  0  0  0  0
   11.5146   -3.9659    0.9620 O   0  0  0  0  0  0  0  0  0  0  0  0
   12.1914   -4.9161   -1.2762 O   0  5  0  0  0  0  0  0  0  0  0  0
   12.5827   -2.3877   -0.6828 O   0  0  0  0  0  0  0  0  0  0  0  0
   10.3533    0.6038   -2.5381 C   0  0  2  0  0  0  0  0  0  0  0  0
   11.7701    0.7139   -2.3118 O   0  0  0  0  0  0  0  0  0  0  0  0
    9.5880    1.7312   -1.7989 C   0  0  2  0  0  0  0  0  0  0  0  0
   10.0769    3.0418   -2.2432 O   0  0  0  0  0  0  0  0  0  0  0  0
    9.8320    1.5766   -0.2860 C   0  0  1  0  0  0  0  0  0  0  0  0
    9.1303    2.6032    0.4254 O   0  0  0  0  0  0  0  0  0  0  0  0
    9.3114    0.1969    0.1461 C   0  0  2  0  0  0  0  0  0  0  0  0
    9.5392    0.0220    1.5611 O   0  0  0  0  0  0  0  0  0  0  0  0
   10.0804   -0.8915   -0.6528 C   0  0  2  0  0  0  0  0  0  0  0  0
    9.8662   -0.7032   -2.0853 O   0  0  0  0  0  0  0  0  0  0  0  0
    9.5411   -2.2760   -0.2500 C   0  0  0  0  0  0  0  0  0  0  0  0
   10.1216   -3.3008   -1.0660 O   0  0  0  0  0  0  0  0  0  0  0  0
  1  2  1  1  0  0  0
  1  3  1  0  0  0  0
  1  4  2  0  0  0  0
  1 16  1  0  0  0  0
  5  6  1  1  0  0  0
  5  7  1  0  0  0  0
  5 14  1  0  0  0  0
  7  8  1  6  0  0  0
  7  9  1  0  0  0  0
  9 10  1  1  0  0  0
  9 11  1  0  0  0  0
 11 12  1  1  0  0  0
 11 13  1  0  0  0  0
 13 14  1  0  0  0  0
 13 15  1  1  0  0  0
 15 16  1  0  0  0  0
M  CHG  1   3  -1
M  END
>  <CHROM.1>
173.81600105,80.60547797,53.24114962,10.55443895,-0.96529968,-0.75867928
-0.97025699,1.02180929,-0.63273461

>  <Name>
ligand

>  <RI>
0

>  <Rbt.Current_Directory>
/home/itssahil/PROJECTS/Mol_Feturizer/New_Systems/rnas/2HO7

>  <Rbt.Executable>
rbdock ($Id: //depot/dev/client3/rdock/2013.1/src/exe/rbdock.cxx#4 $)

>  <Rbt.Library>
libRbt.so (2013.1, Build901 2013/11/27)

>  <Rbt.Parameter_File>
/export/apps/rDock/src/rDock_2013.1_src/data/scripts/dock_solv.prm

>  <Rbt.Receptor>
prm/blind_docking_100.prm

>  <SCORE>
-9.15801

>  <SCORE.INTER>
-11.3275

>  <SCORE.INTER.CONST>
1

>  <SCORE.INTER.POLAR>
-1.27279

>  <SCORE.INTER.ROT>
3

>  <SCORE.INTER.SOLV>
11.6939

>  <SCORE.INTER.VDW>
-12.807

>  <SCORE.INTER.norm>
-0.70797

>  <SCORE.INTRA>
2.1695

>  <SCORE.INTRA.DIHEDRAL>
2.10359

>  <SCORE.INTRA.DIHEDRAL.0>
0.00893466

>  <SCORE.INTRA.POLAR>
0

>  <SCORE.INTRA.POLAR.0>
0

>  <SCORE.INTRA.REPUL>
0

>  <SCORE.INTRA.REPUL.0>
0

>  <SCORE.INTRA.SOLV>
2.67622

>  <SCORE.INTRA.SOLV.lig_0>
-48.9722

>  <SCORE.INTRA.VDW>
-0.220403

>  <SCORE.INTRA.VDW.0>
-0.529409

>  <SCORE.INTRA.norm>
0.135594

>  <SCORE.RESTR>
0

>  <SCORE.RESTR.CAVITY>
0

>  <SCORE.RESTR.norm>
0

>  <SCORE.SYSTEM>
0

>  <SCORE.SYSTEM.CONST>
0

>  <SCORE.SYSTEM.DIHEDRAL>
0

>  <SCORE.SYSTEM.SOLV>
0

>  <SCORE.SYSTEM.norm>
0

>  <SCORE.heavy>
16

>  <SCORE.norm>
-0.572376

>  <RMSD>
40.498

$$$$
ligand
 OpenBabel11021811433D
libRbt.so/2013.1/901 2013/11/27
 16 16  0  0  0  0  0  0  0  0999 V2000
    9.9866    1.4737   -1.2328 P   0  0  2  0  0  0  0  0  0  0  0  0
    8.9597    0.4410   -0.9474 O   0  0  0  0  0  0  0  0  0  0  0  0
   10.6312    1.9799    0.1521 O   0  5  0  0  0  0  0  0  0  0  0  0
    9.2813    2.7153   -1.9775 O   0  0  0  0  0  0  0  0  0  0  0  0
   10.2050   -3.2688   -2.1131 C   0  0  2  0  0  0  0  0  0  0  0  0
    8.9393   -3.0226   -1.4744 O   0  0  0  0  0  0  0  0  0  0  0  0
   11.0764   -4.2249   -1.2591 C   0  0  2  0  0  0  0  0  0  0  0  0
   10.3618   -5.4873   -1.0357 O   0  0  0  0  0  0  0  0  0  0  0  0
   11.3611   -3.5480    0.0949 C   0  0  1  0  0  0  0  0  0  0  0  0
   12.1720   -4.4073    0.9051 O   0  0  0  0  0  0  0  0  0  0  0  0
   12.1072   -2.2317   -0.1736 C   0  0  2  0  0  0  0  0  0  0  0  0
   12.3764   -1.5706    1.0815 O   0  0  0  0  0  0  0  0  0  0  0  0
   11.2093   -1.3302   -1.0653 C   0  0  2  0  0  0  0  0  0  0  0  0
   10.9204   -2.0066   -2.3271 O   0  0  0  0  0  0  0  0  0  0  0  0
   11.9636   -0.0224   -1.3667 C   0  0  0  0  0  0  0  0  0  0  0  0
   11.1590    0.8511   -2.1684 O   0  0  0  0  0  0  0  0  0  0  0  0
  1  2  1  1  0  0  0
  1  3  1  0  0  0  0
  1  4  2  0  0  0  0
  1 16  1  0  0  0  0
  5  6  1  1  0  0  0
  5  7  1  0  0  0  0
  5 14  1  0  0  0  0
  7  8  1  1  0  0  0
  7  9  1  0  0  0  0
  9 10  1  1  0  0  0
  9 11  1  0  0  0  0
 11 12  1  1  0  0  0
 11 13  1  0  0  0  0
 13 14  1  0  0  0  0
 13 15  1  6  0  0  0
 15 16  1  0  0  0  0
M  CHG  1   3  -1
M  END
>  <CHROM.1>
-178.92152819,73.47731283,-73.55638403,10.71439043,-1.23143962,-0.94775515
1.81544010,-0.75776331,0.04193078

>  <Name>
ligand

>  <RI>
0

>  <Rbt.Current_Directory>
/home/itssahil/PROJECTS/Mol_Feturizer/New_Systems/rnas/2HO7

>  <Rbt.Executable>
rbdock ($Id: //depot/dev/client3/rdock/2013.1/src/exe/rbdock.cxx#4 $)

>  <Rbt.Library>
libRbt.so (2013.1, Build901 2013/11/27)

>  <Rbt.Parameter_File>
/export/apps/rDock/src/rDock_2013.1_src/data/scripts/dock_solv.prm

>  <Rbt.Receptor>
prm/blind_docking_40.prm

>  <SCORE>
-14.0369

>  <SCORE.INTER>
-15.3766

>  <SCORE.INTER.CONST>
1

>  <SCORE.INTER.POLAR>
-2.54558

>  <SCORE.INTER.ROT>
3

>  <SCORE.INTER.SOLV>
16.693

>  <SCORE.INTER.VDW>
-12.9301

>  <SCORE.INTER.norm>
-0.961039

>  <SCORE.INTRA>
1.33977

>  <SCORE.INTRA.DIHEDRAL>
1.14606

>  <SCORE.INTRA.DIHEDRAL.0>
0.00893466

>  <SCORE.INTRA.POLAR>
0

>  <SCORE.INTRA.POLAR.0>
0

>  <SCORE.INTRA.REPUL>
0

>  <SCORE.INTRA.REPUL.0>
0

>  <SCORE.INTRA.SOLV>
1.59782

>  <SCORE.INTRA.SOLV.lig_0>
-48.9722

>  <SCORE.INTRA.VDW>
-0.0321695

>  <SCORE.INTRA.VDW.0>
-0.529409

>  <SCORE.INTRA.norm>
0.0837356

>  <SCORE.RESTR>
0

>  <SCORE.RESTR.CAVITY>
0

>  <SCORE.RESTR.norm>
0

>  <SCORE.SYSTEM>
0

>  <SCORE.SYSTEM.CONST>
0

>  <SCORE.SYSTEM.DIHEDRAL>
0

>  <SCORE.SYSTEM.SOLV>
0

>  <SCORE.SYSTEM.norm>
0

>  <SCORE.heavy>
16

>  <SCORE.norm>
-0.877304

>  <RMSD>
40.500

$$$$
ligand
 OpenBabel11021811433D
libRbt.so/2013.1/901 2013/11/27
 16 16  0  0  0  0  0  0  0  0999 V2000
    9.8958    1.7999   -1.4546 P   0  0  2  0  0  0  0  0  0  0  0  0
    8.9364    2.9313   -1.4136 O   0  0  0  0  0  0  0  0  0  0  0  0
   11.1909    2.2311   -2.3070 O   0  5  0  0  0  0  0  0  0  0  0  0
    9.1848    0.5418   -2.1654 O   0  0  0  0  0  0  0  0  0  0  0  0
    9.5072   -2.7268   -0.4076 C   0  0  2  0  0  0  0  0  0  0  0  0
    8.4065   -3.3088    0.3138 O   0  0  0  0  0  0  0  0  0  0  0  0
   10.8583   -3.0971    0.2560 C   0  0  2  0  0  0  0  0  0  0  0  0
   11.0015   -4.5565    0.3180 O   0  0  0  0  0  0  0  0  0  0  0  0
   10.8769   -2.5171    1.6828 C   0  0  1  0  0  0  0  0  0  0  0  0
   12.1190   -2.8384    2.3202 O   0  0  0  0  0  0  0  0  0  0  0  0
   10.7241   -0.9913    1.5831 C   0  0  2  0  0  0  0  0  0  0  0  0
   10.7270   -0.4231    2.9105 O   0  0  0  0  0  0  0  0  0  0  0  0
    9.3772   -0.6769    0.8752 C   0  0  2  0  0  0  0  0  0  0  0  0
    9.3659   -1.2681   -0.4603 O   0  0  0  0  0  0  0  0  0  0  0  0
    9.2319    0.8499    0.7413 C   0  0  0  0  0  0  0  0  0  0  0  0
   10.3582    1.4056    0.0515 O   0  0  0  0  0  0  0  0  0  0  0  0
  1  2  1  1  0  0  0
  1  3  1  0  0  0  0
  1  4  2  0  0  0  0
  1 16  1  0  0  0  0
  5  6  1  1  0  0  0
  5  7  1  0  0  0  0
  5 14  1  0  0  0  0
  7  8  1  1  0  0  0
  7  9  1  0  0  0  0
  9 10  1  6  0  0  0
  9 11  1  0  0  0  0
 11 12  1  1  0  0  0
 11 13  1  0  0  0  0
 13 14  1  0  0  0  0
 13 15  1  6  0  0  0
 15 16  1  0  0  0  0
M  CHG  1   3  -1
M  END
>  <CHROM.1>
55.87374857,105.46293651,67.93853857,10.09499871,-0.57930861,0.04079779,1.91138173
-1.12397679,-0.16693297

>  <Name>
ligand

>  <RI>
0

>  <Rbt.Current_Directory>
/home/itssahil/PROJECTS/Mol_Feturizer/New_Systems/rnas/2HO7

>  <Rbt.Executable>
rbdock ($Id: //depot/dev/client3/rdock/2013.1/src/exe/rbdock.cxx#4 $)

>  <Rbt.Library>
libRbt.so (2013.1, Build901 2013/11/27)

>  <Rbt.Parameter_File>
/export/apps/rDock/src/rDock_2013.1_src/data/scripts/dock_solv.prm

>  <Rbt.Receptor>
prm/blind_docking_40.prm

>  <SCORE>
-16.0557

>  <SCORE.INTER>
-20.7641

>  <SCORE.INTER.CONST>
1

>  <SCORE.INTER.POLAR>
-2.86362

>  <SCORE.INTER.ROT>
3

>  <SCORE.INTER.SOLV>
15.9159

>  <SCORE.INTER.VDW>
-15.2026

>  <SCORE.INTER.norm>
-1.29776

>  <SCORE.INTRA>
4.70846

>  <SCORE.INTRA.DIHEDRAL>
6.36093

>  <SCORE.INTRA.DIHEDRAL.0>
0.00893466

>  <SCORE.INTRA.POLAR>
0

>  <SCORE.INTRA.POLAR.0>
0

>  <SCORE.INTRA.REPUL>
0

>  <SCORE.INTRA.REPUL.0>
0

>  <SCORE.INTRA.SOLV>
3.16252

>  <SCORE.INTRA.SOLV.lig_0>
-48.9722

>  <SCORE.INTRA.VDW>
-0.0532691

>  <SCORE.INTRA.VDW.0>
-0.529409

>  <SCORE.INTRA.norm>
0.294278

>  <SCORE.RESTR>
0

>  <SCORE.RESTR.CAVITY>
0

>  <SCORE.RESTR.norm>
0

>  <SCORE.SYSTEM>
0

>  <SCORE.SYSTEM.CONST>
0

>  <SCORE.SYSTEM.DIHEDRAL>
0

>  <SCORE.SYSTEM.SOLV>
0

>  <SCORE.SYSTEM.norm>
0

>  <SCORE.heavy>
16

>  <SCORE.norm>
-1.00348

>  <RMSD>
40.503

$$$$
ligand
 OpenBabel11021811433D
libRbt.so/2013.1/901 2013/11/27
 16 16  0  0  0  0  0  0  0  0999 V2000
    9.8368    1.7109   -0.9219 P   0  0  2  0  0  0  0  0  0  0  0  0
    9.3962    2.8888   -0.1340 O   0  0  0  0  0  0  0  0  0  0  0  0
   10.0453    2.1456   -2.4572 O   0  5  0  0  0  0  0  0  0  0  0  0
    8.6975    0.5756   -0.8396 O   0  0  0  0  0  0  0  0  0  0  0  0
   10.1076   -3.2821   -1.8040 C   0  0  2  0  0  0  0  0  0  0  0  0
    8.7995   -3.0504   -1.2508 O   0  0  0  0  0  0  0  0  0  0  0  0
   10.9681   -4.1412   -0.8425 C   0  0  2  0  0  0  0  0  0  0  0  0
   10.2936   -5.4164   -0.5722 O   0  0  0  0  0  0  0  0  0  0  0  0
   11.1499   -3.3654    0.4756 C   0  0  1  0  0  0  0  0  0  0  0  0
   11.9485   -4.1336    1.3837 O   0  0  0  0  0  0  0  0  0  0  0  0
   11.8562   -2.0381    0.1583 C   0  0  2  0  0  0  0  0  0  0  0  0
   12.0287   -1.2851    1.3782 O   0  0  0  0  0  0  0  0  0  0  0  0
   10.9735   -1.2370   -0.8383 C   0  0  2  0  0  0  0  0  0  0  0  0
   10.7824   -2.0065   -2.0650 O   0  0  0  0  0  0  0  0  0  0  0  0
   11.6901    0.0800   -1.1875 C   0  0  0  0  0  0  0  0  0  0  0  0
   11.2400    1.1408   -0.3358 O   0  0  0  0  0  0  0  0  0  0  0  0
  1  2  1  1  0  0  0
  1  3  1  0  0  0  0
  1  4  2  0  0  0  0
  1 16  1  0  0  0  0
  5  6  1  1  0  0  0
  5  7  1  0  0  0  0
  5 14  1  0  0  0  0
  7  8  1  1  0  0  0
  7  9  1  0  0  0  0
  9 10  1  1  0  0  0
  9 11  1  0  0  0  0
 11 12  1  1  0  0  0
 11 13  1  0  0  0  0
 13 14  1  0  0  0  0
 13 15  1  6  0  0  0
 15 16  1  0  0  0  0
M  CHG  1   3  -1
M  END
>  <CHROM.1>
-94.23168069,-81.47071469,-175.15004413,10.53590635,-1.08321210,-0.63208941
1.81170911,-0.82100046,0.04427642

>  <Name>
ligand

>  <RI>
0

>  <Rbt.Current_Directory>
/home/itssahil/PROJECTS/Mol_Feturizer/New_Systems/rnas/2HO7

>  <Rbt.Executable>
rbdock ($Id: //depot/dev/client3/rdock/2013.1/src/exe/rbdock.cxx#4 $)

>  <Rbt.Library>
libRbt.so (2013.1, Build901 2013/11/27)

>  <Rbt.Parameter_File>
/export/apps/rDock/src/rDock_2013.1_src/data/scripts/dock_solv.prm

>  <Rbt.Receptor>
prm/blind_docking_40.prm

>  <SCORE>
-14.8754

>  <SCORE.INTER>
-18.999

>  <SCORE.INTER.CONST>
1

>  <SCORE.INTER.POLAR>
-2.86378

>  <SCORE.INTER.ROT>
3

>  <SCORE.INTER.SOLV>
14.578

>  <SCORE.INTER.VDW>
-13.5794

>  <SCORE.INTER.norm>
-1.18744

>  <SCORE.INTRA>
4.12364

>  <SCORE.INTRA.DIHEDRAL>
5.29595

>  <SCORE.INTRA.DIHEDRAL.0>
0.00893466

>  <SCORE.INTRA.POLAR>
0

>  <SCORE.INTRA.POLAR.0>
0

>  <SCORE.INTRA.REPUL>
0

>  <SCORE.INTRA.REPUL.0>
0

>  <SCORE.INTRA.SOLV>
3.74274

>  <SCORE.INTRA.SOLV.lig_0>
-48.9722

>  <SCORE.INTRA.VDW>
-0.395705

>  <SCORE.INTRA.VDW.0>
-0.529409

>  <SCORE.INTRA.norm>
0.257728

>  <SCORE.RESTR>
0

>  <SCORE.RESTR.CAVITY>
0

>  <SCORE.RESTR.norm>
0

>  <SCORE.SYSTEM>
0

>  <SCORE.SYSTEM.CONST>
0

>  <SCORE.SYSTEM.DIHEDRAL>
0

>  <SCORE.SYSTEM.SOLV>
0

>  <SCORE.SYSTEM.norm>
0

>  <SCORE.heavy>
16

>  <SCORE.norm>
-0.929711

>  <RMSD>
40.509

$$$$
ligand
 OpenBabel11021811433D
libRbt.so/2013.1/901 2013/11/27
 16 16  0  0  0  0  0  0  0  0999 V2000
    9.9175    1.7187   -1.4354 P   0  0  2  0  0  0  0  0  0  0  0  0
    9.1410    0.5942   -2.0141 O   0  0  0  0  0  0  0  0  0  0  0  0
    9.0206    3.0546   -1.4637 O   0  5  0  0  0  0  0  0  0  0  0  0
   11.2414    1.9469   -2.3235 O   0  0  0  0  0  0  0  0  0  0  0  0
    9.5220   -2.7554   -0.4219 C   0  0  2  0  0  0  0  0  0  0  0  0
    8.4173   -3.3569    0.2772 O   0  0  0  0  0  0  0  0  0  0  0  0
   10.8670   -3.1161    0.2591 C   0  0  2  0  0  0  0  0  0  0  0  0
   11.0265   -4.5743    0.3097 O   0  0  0  0  0  0  0  0  0  0  0  0
   10.8570   -2.5493    1.6912 C   0  0  1  0  0  0  0  0  0  0  0  0
   12.0930   -2.8622    2.3447 O   0  0  0  0  0  0  0  0  0  0  0  0
   10.6878   -1.0246    1.6032 C   0  0  2  0  0  0  0  0  0  0  0  0
   10.6637   -0.4688    2.9357 O   0  0  0  0  0  0  0  0  0  0  0  0
    9.3483   -0.7192    0.8776 C   0  0  2  0  0  0  0  0  0  0  0  0
    9.3643   -1.2980   -0.4633 O   0  0  0  0  0  0  0  0  0  0  0  0
    9.1870    0.8069    0.7555 C   0  0  0  0  0  0  0  0  0  0  0  0
   10.3236    1.3839    0.1010 O   0  0  0  0  0  0  0  0  0  0  0  0
  1  2  1  6  0  0  0
  1  3  1  0  0  0  0
  1  4  2  0  0  0  0
  1 16  1  0  0  0  0
  5  6  1  1  0  0  0
  5  7  1  0  0  0  0
  5 14  1  0  0  0  0
  7  8  1  1  0  0  0
  7  9  1  0  0  0  0
  9 10  1  6  0  0  0
  9 11  1  0  0  0  0
 11 12  1  1  0  0  0
 11 13  1  0  0  0  0
 13 14  1  0  0  0  0
 13 15  1  6  0  0  0
 15 16  1  0  0  0  0
M  CHG  1   3  -1
M  END
>  <CHROM.1>
55.25945879,102.62132892,-43.05998099,10.09206691,-0.61814714,0.05349992
1.94111279,-1.16036406,-0.13136304

>  <Name>
ligand

>  <RI>
0

>  <Rbt.Current_Directory>
/home/itssahil/PROJECTS/Mol_Feturizer/New_Systems/rnas/2HO7

>  <Rbt.Executable>
rbdock ($Id: //depot/dev/client3/rdock/2013.1/src/exe/rbdock.cxx#4 $)

>  <Rbt.Library>
libRbt.so (2013.1, Build901 2013/11/27)

>  <Rbt.Parameter_File>
/export/apps/rDock/src/rDock_2013.1_src/data/scripts/dock_solv.prm

>  <Rbt.Receptor>
prm/blind_docking_40.prm

>  <SCORE>
-13.3435

>  <SCORE.INTER>
-17.4706

>  <SCORE.INTER.CONST>
1

>  <SCORE.INTER.POLAR>
-2.54383

>  <SCORE.INTER.ROT>
3

>  <SCORE.INTER.SOLV>
18.7875

>  <SCORE.INTER.VDW>
-15.0301

>  <SCORE.INTER.norm>
-1.09191

>  <SCORE.INTRA>
4.1271

>  <SCORE.INTRA.DIHEDRAL>
6.32268

>  <SCORE.INTRA.DIHEDRAL.0>
0.00893466

>  <SCORE.INTRA.POLAR>
0

>  <SCORE.INTRA.POLAR.0>
0

>  <SCORE.INTRA.REPUL>
0

>  <SCORE.INTRA.REPUL.0>
0

>  <SCORE.INTRA.SOLV>
1.15215

>  <SCORE.INTRA.SOLV.lig_0>
-48.9722

>  <SCORE.INTRA.VDW>
0.389684

>  <SCORE.INTRA.VDW.0>
-0.529409

>  <SCORE.INTRA.norm>
0.257944

>  <SCORE.RESTR>
0

>  <SCORE.RESTR.CAVITY>
0

>  <SCORE.RESTR.norm>
0

>  <SCORE.SYSTEM>
0

>  <SCORE.SYSTEM.CONST>
0

>  <SCORE.SYSTEM.DIHEDRAL>
0

>  <SCORE.SYSTEM.SOLV>
0

>  <SCORE.SYSTEM.norm>
0

>  <SCORE.heavy>
16

>  <SCORE.norm>
-0.833971

>  <RMSD>
40.516

$$$$
ligand
 OpenBabel11021811433D
libRbt.so/2013.1/901 2013/11/27
 16 16  0  0  0  0  0  0  0  0999 V2000
    9.8174    1.6097   -1.2463 P   0  0  2  0  0  0  0  0  0  0  0  0
    9.0750    2.7012   -1.9244 O   0  0  0  0  0  0  0  0  0  0  0  0
    8.7801    0.4725   -0.7768 O   0  5  0  0  0  0  0  0  0  0  0  0
   10.5652    2.2149    0.0453 O   0  0  0  0  0  0  0  0  0  0  0  0
   10.1651   -3.2114   -2.1327 C   0  0  2  0  0  0  0  0  0  0  0  0
    8.9243   -3.0229   -1.4288 O   0  0  0  0  0  0  0  0  0  0  0  0
   11.1287   -4.1129   -1.3191 C   0  0  2  0  0  0  0  0  0  0  0  0
   10.4927   -5.4074   -1.0475 O   0  0  0  0  0  0  0  0  0  0  0  0
   11.4501   -3.4078    0.0120 C   0  0  1  0  0  0  0  0  0  0  0  0
   12.3460   -4.2161    0.7844 O   0  0  0  0  0  0  0  0  0  0  0  0
   12.1124   -2.0583   -0.3068 C   0  0  2  0  0  0  0  0  0  0  0  0
   12.4140   -1.3709    0.9267 O   0  0  0  0  0  0  0  0  0  0  0  0
   11.1232   -1.2132   -1.1561 C   0  0  2  0  0  0  0  0  0  0  0  0
   10.8024   -1.9170   -2.3950 O   0  0  0  0  0  0  0  0  0  0  0  0
   11.7923    0.1278   -1.5082 C   0  0  0  0  0  0  0  0  0  0  0  0
   10.8993    0.9543   -2.2648 O   0  0  0  0  0  0  0  0  0  0  0  0
  1  2  1  6  0  0  0
  1  3  1  0  0  0  0
  1  4  2  0  0  0  0
  1 16  1  0  0  0  0
  5  6  1  1  0  0  0
  5  7  1  0  0  0  0
  5 14  1  0  0  0  0
  7  8  1  1  0  0  0
  7  9  1  0  0  0  0
  9 10  1  1  0  0  0
  9 11  1  0  0  0  0
 11 12  1  1  0  0  0
 11 13  1  0  0  0  0
 13 14  1  0  0  0  0
 13 15  1  6  0  0  0
 15 16  1  0  0  0  0
M  CHG  1   3  -1
M  END
>  <CHROM.1>
-178.54042814,77.44150775,167.16011989,10.65375581,-1.11817993,-0.99520728
1.85539747,-0.70322041,0.07333545

>  <Name>
ligand

>  <RI>
0

>  <Rbt.Current_Directory>
/home/itssahil/PROJECTS/Mol_Feturizer/New_Systems/rnas/2HO7

>  <Rbt.Executable>
rbdock ($Id: //depot/dev/client3/rdock/2013.1/src/exe/rbdock.cxx#4 $)

>  <Rbt.Library>
libRbt.so (2013.1, Build901 2013/11/27)

>  <Rbt.Parameter_File>
/export/apps/rDock/src/rDock_2013.1_src/data/scripts/dock_solv.prm

>  <Rbt.Receptor>
prm/blind_docking_40.prm

>  <SCORE>
-16.407

>  <SCORE.INTER>
-18.9523

>  <SCORE.INTER.CONST>
1

>  <SCORE.INTER.POLAR>
-2.86323

>  <SCORE.INTER.ROT>
3

>  <SCORE.INTER.SOLV>
14.5902

>  <SCORE.INTER.VDW>
-13.5542

>  <SCORE.INTER.norm>
-1.18452

>  <SCORE.INTRA>
2.54526

>  <SCORE.INTRA.DIHEDRAL>
1.66075

>  <SCORE.INTRA.DIHEDRAL.0>
0.00893466

>  <SCORE.INTRA.POLAR>
0

>  <SCORE.INTRA.POLAR.0>
0

>  <SCORE.INTRA.REPUL>
0

>  <SCORE.INTRA.REPUL.0>
0

>  <SCORE.INTRA.SOLV>
3.96465

>  <SCORE.INTRA.SOLV.lig_0>
-48.9722

>  <SCORE.INTRA.VDW>
-0.267441

>  <SCORE.INTRA.VDW.0>
-0.529409

>  <SCORE.INTRA.norm>
0.159079

>  <SCORE.RESTR>
0

>  <SCORE.RESTR.CAVITY>
0

>  <SCORE.RESTR.norm>
0

>  <SCORE.SYSTEM>
0

>  <SCORE.SYSTEM.CONST>
0

>  <SCORE.SYSTEM.DIHEDRAL>
0

>  <SCORE.SYSTEM.SOLV>
0

>  <SCORE.SYSTEM.norm>
0

>  <SCORE.heavy>
16

>  <SCORE.norm>
-1.02544

>  <RMSD>
40.535

$$$$
ligand
 OpenBabel11021811433D
libRbt.so/2013.1/901 2013/11/27
 16 16  0  0  0  0  0  0  0  0999 V2000
   10.0686    1.6560   -1.3876 P   0  0  2  0  0  0  0  0  0  0  0  0
   11.3000    1.9633   -2.1566 O   0  0  0  0  0  0  0  0  0  0  0  0
    9.2835    0.4462   -2.1015 O   0  5  0  0  0  0  0  0  0  0  0  0
    9.1285    2.9635   -1.3686 O   0  0  0  0  0  0  0  0  0  0  0  0
    9.4815   -2.8863   -0.4712 C   0  0  2  0  0  0  0  0  0  0  0  0
    8.3634   -3.4572    0.2321 O   0  0  0  0  0  0  0  0  0  0  0  0
   10.8198   -3.3026    0.1912 C   0  0  2  0  0  0  0  0  0  0  0  0
   10.9282   -4.7659    0.2227 O   0  0  0  0  0  0  0  0  0  0  0  0
   10.8442   -2.7535    1.6301 C   0  0  1  0  0  0  0  0  0  0  0  0
   12.0748   -3.1177    2.2668 O   0  0  0  0  0  0  0  0  0  0  0  0
   10.7280   -1.2228    1.5622 C   0  0  2  0  0  0  0  0  0  0  0  0
   10.7370   -0.6831    2.9014 O   0  0  0  0  0  0  0  0  0  0  0  0
    9.3929   -0.8616    0.8544 C   0  0  2  0  0  0  0  0  0  0  0  0
    9.3750   -1.4239   -0.4935 O   0  0  0  0  0  0  0  0  0  0  0  0
    9.2845    0.6707    0.7524 C   0  0  0  0  0  0  0  0  0  0  0  0
   10.4522    1.2191    0.1288 O   0  0  0  0  0  0  0  0  0  0  0  0
  1  2  1  6  0  0  0
  1  3  1  0  0  0  0
  1  4  2  0  0  0  0
  1 16  1  0  0  0  0
  5  6  1  1  0  0  0
  5  7  1  0  0  0  0
  5 14  1  0  0  0  0
  7  8  1  1  0  0  0
  7  9  1  0  0  0  0
  9 10  1  6  0  0  0
  9 11  1  0  0  0  0
 11 12  1  1  0  0  0
 11 13  1  0  0  0  0
 13 14  1  0  0  0  0
 13 15  1  6  0  0  0
 15 16  1  0  0  0  0
M  CHG  1   3  -1
M  END
>  <CHROM.1>
53.53551219,105.33064733,-168.27591931,10.13717560,-0.75777875,0.04218893
1.83484760,-1.12344519,-0.20207840

>  <Name>
ligand

>  <RI>
0

>  <Rbt.Current_Directory>
/home/itssahil/PROJECTS/Mol_Feturizer/New_Systems/rnas/2HO7

>  <Rbt.Executable>
rbdock ($Id: //depot/dev/client3/rdock/2013.1/src/exe/rbdock.cxx#4 $)

>  <Rbt.Library>
libRbt.so (2013.1, Build901 2013/11/27)

>  <Rbt.Parameter_File>
/export/apps/rDock/src/rDock_2013.1_src/data/scripts/dock_solv.prm

>  <Rbt.Receptor>
prm/blind_docking_80.prm

>  <SCORE>
-13.4397

>  <SCORE.INTER>
-18.6807

>  <SCORE.INTER.CONST>
1

>  <SCORE.INTER.POLAR>
-2.86378

>  <SCORE.INTER.ROT>
3

>  <SCORE.INTER.SOLV>
18.1716

>  <SCORE.INTER.VDW>
-14.5651

>  <SCORE.INTER.norm>
-1.16755

>  <SCORE.INTRA>
5.24102

>  <SCORE.INTRA.DIHEDRAL>
6.54887

>  <SCORE.INTRA.DIHEDRAL.0>
0.00893466

>  <SCORE.INTRA.POLAR>
0

>  <SCORE.INTRA.POLAR.0>
0

>  <SCORE.INTRA.REPUL>
0

>  <SCORE.INTRA.REPUL.0>
0

>  <SCORE.INTRA.SOLV>
3.79801

>  <SCORE.INTRA.SOLV.lig_0>
-48.9722

>  <SCORE.INTRA.VDW>
0.0675814

>  <SCORE.INTRA.VDW.0>
-0.529409

>  <SCORE.INTRA.norm>
0.327564

>  <SCORE.RESTR>
0

>  <SCORE.RESTR.CAVITY>
0

>  <SCORE.RESTR.norm>
0

>  <SCORE.SYSTEM>
0

>  <SCORE.SYSTEM.CONST>
0

>  <SCORE.SYSTEM.DIHEDRAL>
0

>  <SCORE.SYSTEM.SOLV>
0

>  <SCORE.SYSTEM.norm>
0

>  <SCORE.heavy>
16

>  <SCORE.norm>
-0.839982

>  <RMSD>
40.539

$$$$
ligand
 OpenBabel11021811433D
libRbt.so/2013.1/901 2013/11/27
 16 16  0  0  0  0  0  0  0  0999 V2000
    9.4658   -1.2893    1.1415 P   0  0  2  0  0  0  0  0  0  0  0  0
    9.3853   -1.9718    2.4568 O   0  0  0  0  0  0  0  0  0  0  0  0
    8.1717   -1.6705    0.2642 O   0  5  0  0  0  0  0  0  0  0  0  0
   10.7930   -1.7885    0.3780 O   0  0  0  0  0  0  0  0  0  0  0  0
   10.3405    0.2957   -3.2088 C   0  0  2  0  0  0  0  0  0  0  0  0
   11.6362   -0.2142   -2.8453 O   0  0  0  0  0  0  0  0  0  0  0  0
   10.4457    1.7574   -3.7142 C   0  0  2  0  0  0  0  0  0  0  0  0
   11.3621    1.8260   -4.8586 O   0  0  0  0  0  0  0  0  0  0  0  0
   10.9867    2.6328   -2.5683 C   0  0  1  0  0  0  0  0  0  0  0  0
   11.0888    3.9935   -3.0048 O   0  0  0  0  0  0  0  0  0  0  0  0
   10.0073    2.5383   -1.3880 C   0  0  2  0  0  0  0  0  0  0  0  0
   10.4984    3.3427   -0.2940 O   0  0  0  0  0  0  0  0  0  0  0  0
    9.9078    1.0512   -0.9490 C   0  0  2  0  0  0  0  0  0  0  0  0
    9.4297    0.2339   -2.0611 O   0  0  0  0  0  0  0  0  0  0  0  0
    8.9025    0.9431    0.2120 C   0  0  0  0  0  0  0  0  0  0  0  0
    9.5109    0.3206    1.3502 O   0  0  0  0  0  0  0  0  0  0  0  0
  1  2  1  1  0  0  0
  1  3  1  0  0  0  0
  1  4  2  0  0  0  0
  1 16  1  0  0  0  0
  5  6  1  1  0  0  0
  5  7  1  0  0  0  0
  5 14  1  0  0  0  0
  7  8  1  6  0  0  0
  7  9  1  0  0  0  0
  9 10  1  6  0  0  0
  9 11  1  0  0  0  0
 11 12  1  1  0  0  0
 11 13  1  0  0  0  0
 13 14  1  0  0  0  0
 13 15  1  1  0  0  0
 15 16  1  0  0  0  0
M  CHG  1   3  -1
M  END
>  <CHROM.1>
-124.31760865,-82.17973432,-150.06825678,10.07892189,0.57528351,-0.99764523
-2.61981585,1.26902087,0.14151739

>  <Name>
ligand

>  <RI>
0

>  <Rbt.Current_Directory>
/home/itssahil/PROJECTS/Mol_Feturizer/New_Systems/rnas/2HO7

>  <Rbt.Executable>
rbdock ($Id: //depot/dev/client3/rdock/2013.1/src/exe/rbdock.cxx#4 $)

>  <Rbt.Library>
libRbt.so (2013.1, Build901 2013/11/27)

>  <Rbt.Parameter_File>
/export/apps/rDock/src/rDock_2013.1_src/data/scripts/dock_solv.prm

>  <Rbt.Receptor>
prm/blind_docking_100.prm

>  <SCORE>
-18.0471

>  <SCORE.INTER>
-24.4017

>  <SCORE.INTER.CONST>
1

>  <SCORE.INTER.POLAR>
-2.86378

>  <SCORE.INTER.ROT>
3

>  <SCORE.INTER.SOLV>
16.8414

>  <SCORE.INTER.VDW>
-17.9357

>  <SCORE.INTER.norm>
-1.52511

>  <SCORE.INTRA>
6.31329

>  <SCORE.INTRA.DIHEDRAL>
8.56411

>  <SCORE.INTRA.DIHEDRAL.0>
0.00893466

>  <SCORE.INTRA.POLAR>
0

>  <SCORE.INTRA.POLAR.0>
0

>  <SCORE.INTRA.REPUL>
0

>  <SCORE.INTRA.REPUL.0>
0

>  <SCORE.INTRA.SOLV>
4.14059

>  <SCORE.INTRA.SOLV.lig_0>
-48.9722

>  <SCORE.INTRA.VDW>
-0.0390655

>  <SCORE.INTRA.VDW.0>
-0.529409

>  <SCORE.INTRA.norm>
0.39458

>  <SCORE.RESTR>
0.041368

>  <SCORE.RESTR.CAVITY>
0.041368

>  <SCORE.RESTR.norm>
0.0025855

>  <SCORE.SYSTEM>
0

>  <SCORE.SYSTEM.CONST>
0

>  <SCORE.SYSTEM.DIHEDRAL>
0

>  <SCORE.SYSTEM.SOLV>
0

>  <SCORE.SYSTEM.norm>
0

>  <SCORE.heavy>
16

>  <SCORE.norm>
-1.12794

>  <RMSD>
40.547

$$$$
ligand
 OpenBabel11021811433D
libRbt.so/2013.1/901 2013/11/27
 16 16  0  0  0  0  0  0  0  0999 V2000
    9.5567   -1.3799    0.8452 P   0  0  2  0  0  0  0  0  0  0  0  0
   10.6255   -1.5661   -0.1674 O   0  0  0  0  0  0  0  0  0  0  0  0
    9.8906   -2.2729    2.1416 O   0  5  0  0  0  0  0  0  0  0  0  0
    8.1547   -1.8594    0.2145 O   0  0  0  0  0  0  0  0  0  0  0  0
   10.4012    0.2631   -3.2018 C   0  0  2  0  0  0  0  0  0  0  0  0
   11.7043   -0.2115   -2.8180 O   0  0  0  0  0  0  0  0  0  0  0  0
   10.4782    1.7191   -3.7284 C   0  0  2  0  0  0  0  0  0  0  0  0
   11.4044    1.7915   -4.8646 O   0  0  0  0  0  0  0  0  0  0  0  0
   10.9876    2.6237   -2.5906 C   0  0  1  0  0  0  0  0  0  0  0  0
   11.0632    3.9797   -3.0467 O   0  0  0  0  0  0  0  0  0  0  0  0
    9.9987    2.5245   -1.4186 C   0  0  2  0  0  0  0  0  0  0  0  0
   10.4603    3.3562   -0.3323 O   0  0  0  0  0  0  0  0  0  0  0  0
    9.9285    1.0423   -0.9582 C   0  0  2  0  0  0  0  0  0  0  0  0
    9.4805    0.1977   -2.0623 O   0  0  0  0  0  0  0  0  0  0  0  0
    8.9143    0.9286    0.1944 C   0  0  0  0  0  0  0  0  0  0  0  0
    9.4696    0.1815    1.2837 O   0  0  0  0  0  0  0  0  0  0  0  0
  1  2  1  6  0  0  0
  1  3  1  0  0  0  0
  1  4  2  0  0  0  0
  1 16  1  0  0  0  0
  5  6  1  1  0  0  0
  5  7  1  0  0  0  0
  5 14  1  0  0  0  0
  7  8  1  6  0  0  0
  7  9  1  0  0  0  0
  9 10  1  6  0  0  0
  9 11  1  0  0  0  0
 11 12  1  1  0  0  0
 11 13  1  0  0  0  0
 13 14  1  0  0  0  0
 13 15  1  1  0  0  0
 15 16  1  0  0  0  0
M  CHG  1   3  -1
M  END
>  <CHROM.1>
-131.90379764,-71.74186985,71.47799953,10.11984036,0.52827397,-1.10357291
-2.51200370,1.25505314,0.07982901

>  <Name>
ligand

>  <RI>
0

>  <Rbt.Current_Directory>
/home/itssahil/PROJECTS/Mol_Feturizer/New_Systems/rnas/2HO7

>  <Rbt.Executable>
rbdock ($Id: //depot/dev/client3/rdock/2013.1/src/exe/rbdock.cxx#4 $)

>  <Rbt.Library>
libRbt.so (2013.1, Build901 2013/11/27)

>  <Rbt.Parameter_File>
/export/apps/rDock/src/rDock_2013.1_src/data/scripts/dock_solv.prm

>  <Rbt.Receptor>
prm/blind_docking_60.prm

>  <SCORE>
-19.3025

>  <SCORE.INTER>
-23.1427

>  <SCORE.INTER.CONST>
1

>  <SCORE.INTER.POLAR>
-2.86378

>  <SCORE.INTER.ROT>
3

>  <SCORE.INTER.SOLV>
18.132

>  <SCORE.INTER.VDW>
-17.5266

>  <SCORE.INTER.norm>
-1.44642

>  <SCORE.INTRA>
3.81693

>  <SCORE.INTRA.DIHEDRAL>
5.64211

>  <SCORE.INTRA.DIHEDRAL.0>
0.00893466

>  <SCORE.INTRA.POLAR>
0

>  <SCORE.INTRA.POLAR.0>
0

>  <SCORE.INTRA.REPUL>
0

>  <SCORE.INTRA.REPUL.0>
0

>  <SCORE.INTRA.SOLV>
2.23168

>  <SCORE.INTRA.SOLV.lig_0>
-48.9722

>  <SCORE.INTRA.VDW>
-0.119965

>  <SCORE.INTRA.VDW.0>
-0.529409

>  <SCORE.INTRA.norm>
0.238558

>  <SCORE.RESTR>
0.0232945

>  <SCORE.RESTR.CAVITY>
0.0232945

>  <SCORE.RESTR.norm>
0.00145591

>  <SCORE.SYSTEM>
0

>  <SCORE.SYSTEM.CONST>
0

>  <SCORE.SYSTEM.DIHEDRAL>
0

>  <SCORE.SYSTEM.SOLV>
0

>  <SCORE.SYSTEM.norm>
0

>  <SCORE.heavy>
16

>  <SCORE.norm>
-1.20641

>  <RMSD>
40.548

$$$$
ligand
 OpenBabel11021811433D
libRbt.so/2013.1/901 2013/11/27
 16 16  0  0  0  0  0  0  0  0999 V2000
   10.7355   -3.3481   -1.1291 P   0  0  2  0  0  0  0  0  0  0  0  0
   10.7995   -3.2264    0.3485 O   0  0  0  0  0  0  0  0  0  0  0  0
    9.4547   -2.5406   -1.6744 O   0  5  0  0  0  0  0  0  0  0  0  0
   10.5884   -4.9045   -1.5160 O   0  0  0  0  0  0  0  0  0  0  0  0
    9.9294    1.4990   -1.0839 C   0  0  2  0  0  0  0  0  0  0  0  0
    8.6882    0.8342   -1.3807 O   0  0  0  0  0  0  0  0  0  0  0  0
   10.4343    2.2975   -2.3129 C   0  0  2  0  0  0  0  0  0  0  0  0
    9.4182    3.2719   -2.7279 O   0  0  0  0  0  0  0  0  0  0  0  0
   10.6987    1.3080   -3.4633 C   0  0  1  0  0  0  0  0  0  0  0  0
   11.1738    2.0178   -4.6134 O   0  0  0  0  0  0  0  0  0  0  0  0
   11.7636    0.3029   -2.9972 C   0  0  2  0  0  0  0  0  0  0  0  0
   12.0218   -0.6448   -4.0555 O   0  0  0  0  0  0  0  0  0  0  0  0
   11.2249   -0.4381   -1.7423 C   0  0  2  0  0  0  0  0  0  0  0  0
   10.9449    0.5221   -0.6780 O   0  0  0  0  0  0  0  0  0  0  0  0
   12.2998   -1.4237   -1.2489 C   0  0  0  0  0  0  0  0  0  0  0  0
   12.0790   -2.7283   -1.7986 O   0  0  0  0  0  0  0  0  0  0  0  0
  1  2  1  1  0  0  0
  1  3  1  0  0  0  0
  1  4  2  0  0  0  0
  1 16  1  0  0  0  0
  5  6  1  6  0  0  0
  5  7  1  0  0  0  0
  5 14  1  0  0  0  0
  7  8  1  6  0  0  0
  7  9  1  0  0  0  0
  9 10  1  6  0  0  0
  9 11  1  0  0  0  0
 11 12  1  6  0  0  0
 11 13  1  0  0  0  0
 13 14  1  0  0  0  0
 13 15  1  1  0  0  0
 15 16  1  0  0  0  0
M  CHG  1   3  -1
M  END
>  <CHROM.1>
-94.16220176,-69.36930280,-50.03280560,10.74961310,-0.69798939,-1.94036294
1.43054727,-0.87387969,2.71898912

>  <Name>
ligand

>  <RI>
0

>  <Rbt.Current_Directory>
/home/itssahil/PROJECTS/Mol_Feturizer/New_Systems/rnas/2HO7

>  <Rbt.Executable>
rbdock ($Id: //depot/dev/client3/rdock/2013.1/src/exe/rbdock.cxx#4 $)

>  <Rbt.Library>
libRbt.so (2013.1, Build901 2013/11/27)

>  <Rbt.Parameter_File>
/export/apps/rDock/src/rDock_2013.1_src/data/scripts/dock_solv.prm

>  <Rbt.Receptor>
prm/blind_docking_80.prm

>  <SCORE>
-12.6416

>  <SCORE.INTER>
-16.6273

>  <SCORE.INTER.CONST>
1

>  <SCORE.INTER.POLAR>
-2.53364

>  <SCORE.INTER.ROT>
3

>  <SCORE.INTER.SOLV>
16.7212

>  <SCORE.INTER.VDW>
-13.8131

>  <SCORE.INTER.norm>
-1.03921

>  <SCORE.INTRA>
3.98569

>  <SCORE.INTRA.DIHEDRAL>
3.7868

>  <SCORE.INTRA.DIHEDRAL.0>
0.00893466

>  <SCORE.INTRA.POLAR>
0

>  <SCORE.INTRA.POLAR.0>
0

>  <SCORE.INTRA.REPUL>
0

>  <SCORE.INTRA.REPUL.0>
0

>  <SCORE.INTRA.SOLV>
3.63621

>  <SCORE.INTRA.SOLV.lig_0>
-48.9722

>  <SCORE.INTRA.VDW>
0.274188

>  <SCORE.INTRA.VDW.0>
-0.529409

>  <SCORE.INTRA.norm>
0.249106

>  <SCORE.RESTR>
0

>  <SCORE.RESTR.CAVITY>
0

>  <SCORE.RESTR.norm>
0

>  <SCORE.SYSTEM>
0

>  <SCORE.SYSTEM.CONST>
0

>  <SCORE.SYSTEM.DIHEDRAL>
0

>  <SCORE.SYSTEM.SOLV>
0

>  <SCORE.SYSTEM.norm>
0

>  <SCORE.heavy>
16

>  <SCORE.norm>
-0.7901

>  <RMSD>
40.548

$$$$
ligand
 OpenBabel11021811433D
libRbt.so/2013.1/901 2013/11/27
 16 16  0  0  0  0  0  0  0  0999 V2000
   10.6959    2.5062   -2.5016 P   0  0  2  0  0  0  0  0  0  0  0  0
   11.7990    3.4900   -2.6342 O   0  0  0  0  0  0  0  0  0  0  0  0
    9.9418    2.3587   -3.9156 O   0  5  0  0  0  0  0  0  0  0  0  0
    9.6543    3.0400   -1.3954 O   0  0  0  0  0  0  0  0  0  0  0  0
    9.9486   -3.3660   -0.5767 C   0  0  2  0  0  0  0  0  0  0  0  0
   10.7910   -3.2527    0.5844 O   0  0  0  0  0  0  0  0  0  0  0  0
   10.6809   -4.1181   -1.7175 C   0  0  2  0  0  0  0  0  0  0  0  0
   11.0954   -5.4476   -1.2542 O   0  0  0  0  0  0  0  0  0  0  0  0
   11.9239   -3.3028   -2.1208 C   0  0  1  0  0  0  0  0  0  0  0  0
   12.6190   -3.9714   -3.1802 O   0  0  0  0  0  0  0  0  0  0  0  0
   11.4565   -1.9191   -2.5987 C   0  0  2  0  0  0  0  0  0  0  0  0
   12.6060   -1.1294   -2.9726 O   0  0  0  0  0  0  0  0  0  0  0  0
   10.6949   -1.2278   -1.4343 C   0  0  2  0  0  0  0  0  0  0  0  0
    9.5431   -2.0359   -1.0424 O   0  0  0  0  0  0  0  0  0  0  0  0
   10.1942    0.1461   -1.9158 C   0  0  0  0  0  0  0  0  0  0  0  0
   11.2885    1.0594   -2.0621 O   0  0  0  0  0  0  0  0  0  0  0  0
  1  2  1  6  0  0  0
  1  3  1  0  0  0  0
  1  4  2  0  0  0  0
  1 16  1  0  0  0  0
  5  6  1  1  0  0  0
  5  7  1  0  0  0  0
  5 14  1  0  0  0  0
  7  8  1  1  0  0  0
  7  9  1  0  0  0  0
  9 10  1  6  0  0  0
  9 11  1  0  0  0  0
 11 12  1  1  0  0  0
 11 13  1  0  0  0  0
 13 14  1  0  0  0  0
 13 15  1  6  0  0  0
 15 16  1  0  0  0  0
M  CHG  1   3  -1
M  END
>  <CHROM.1>
-71.52728705,-177.33085534,178.74318254,10.92461344,-0.77117217,-1.96894690
1.68101229,0.82494244,-0.24782723

>  <Name>
ligand

>  <RI>
0

>  <Rbt.Current_Directory>
/home/itssahil/PROJECTS/Mol_Feturizer/New_Systems/rnas/2HO7

>  <Rbt.Executable>
rbdock ($Id: //depot/dev/client3/rdock/2013.1/src/exe/rbdock.cxx#4 $)

>  <Rbt.Library>
libRbt.so (2013.1, Build901 2013/11/27)

>  <Rbt.Parameter_File>
/export/apps/rDock/src/rDock_2013.1_src/data/scripts/dock_solv.prm

>  <Rbt.Receptor>
prm/blind_docking_100.prm

>  <SCORE>
-12.7447

>  <SCORE.INTER>
-13.4121

>  <SCORE.INTER.CONST>
1

>  <SCORE.INTER.POLAR>
-1.27231

>  <SCORE.INTER.ROT>
3

>  <SCORE.INTER.SOLV>
19.0958

>  <SCORE.INTER.VDW>
-16.6656

>  <SCORE.INTER.norm>
-0.838254

>  <SCORE.INTRA>
0.667353

>  <SCORE.INTRA.DIHEDRAL>
0.496337

>  <SCORE.INTRA.DIHEDRAL.0>
0.00893466

>  <SCORE.INTRA.POLAR>
0

>  <SCORE.INTRA.POLAR.0>
0

>  <SCORE.INTRA.REPUL>
0

>  <SCORE.INTRA.REPUL.0>
0

>  <SCORE.INTRA.SOLV>
1.05003

>  <SCORE.INTRA.SOLV.lig_0>
-48.9722

>  <SCORE.INTRA.VDW>
-0.10583

>  <SCORE.INTRA.VDW.0>
-0.529409

>  <SCORE.INTRA.norm>
0.0417096

>  <SCORE.RESTR>
0

>  <SCORE.RESTR.CAVITY>
0

>  <SCORE.RESTR.norm>
0

>  <SCORE.SYSTEM>
0

>  <SCORE.SYSTEM.CONST>
0

>  <SCORE.SYSTEM.DIHEDRAL>
0

>  <SCORE.SYSTEM.SOLV>
0

>  <SCORE.SYSTEM.norm>
0

>  <SCORE.heavy>
16

>  <SCORE.norm>
-0.796544

>  <RMSD>
40.551

$$$$
ligand
 OpenBabel11021811433D
libRbt.so/2013.1/901 2013/11/27
 16 16  0  0  0  0  0  0  0  0999 V2000
    9.1322   -1.6920    1.0645 P   0  0  2  0  0  0  0  0  0  0  0  0
    8.9171   -2.1469    2.4606 O   0  0  0  0  0  0  0  0  0  0  0  0
    7.8977   -2.1741    0.1517 O   0  5  0  0  0  0  0  0  0  0  0  0
   10.4940   -2.3479    0.5087 O   0  0  0  0  0  0  0  0  0  0  0  0
   10.9569   -0.0788   -2.8128 C   0  0  2  0  0  0  0  0  0  0  0  0
   12.3622    0.1911   -2.9640 O   0  0  0  0  0  0  0  0  0  0  0  0
   10.1103    1.1386   -3.2646 C   0  0  2  0  0  0  0  0  0  0  0  0
   10.4199    1.4728   -4.6598 O   0  0  0  0  0  0  0  0  0  0  0  0
   10.4551    2.3364   -2.3596 C   0  0  1  0  0  0  0  0  0  0  0  0
    9.6815    3.4772   -2.7501 O   0  0  0  0  0  0  0  0  0  0  0  0
   10.1212    1.9544   -0.9092 C   0  0  2  0  0  0  0  0  0  0  0  0
   10.4468    3.0584   -0.0373 O   0  0  0  0  0  0  0  0  0  0  0  0
   10.9636    0.7075   -0.5223 C   0  0  2  0  0  0  0  0  0  0  0  0
   10.6491   -0.4038   -1.4163 O   0  0  0  0  0  0  0  0  0  0  0  0
   10.6101    0.2980    0.9190 C   0  0  0  0  0  0  0  0  0  0  0  0
    9.2290   -0.0715    1.0145 O   0  0  0  0  0  0  0  0  0  0  0  0
  1  2  1  1  0  0  0
  1  3  1  0  0  0  0
  1  4  2  0  0  0  0
  1 16  1  0  0  0  0
  5  6  1  1  0  0  0
  5  7  1  0  0  0  0
  5 14  1  0  0  0  0
  7  8  1  6  0  0  0
  7  9  1  0  0  0  0
  9 10  1  6  0  0  0
  9 11  1  0  0  0  0
 11 12  1  1  0  0  0
 11 13  1  0  0  0  0
 13 14  1  0  0  0  0
 13 15  1  1  0  0  0
 15 16  1  0  0  0  0
M  CHG  1   3  -1
M  END
>  <CHROM.1>
62.24981099,102.77731085,101.17664402,10.06760919,0.18704624,-0.80946782
-2.46028042,1.24757829,0.01043817

>  <Name>
ligand

>  <RI>
0

>  <Rbt.Current_Directory>
/home/itssahil/PROJECTS/Mol_Feturizer/New_Systems/rnas/2HO7

>  <Rbt.Executable>
rbdock ($Id: //depot/dev/client3/rdock/2013.1/src/exe/rbdock.cxx#4 $)

>  <Rbt.Library>
libRbt.so (2013.1, Build901 2013/11/27)

>  <Rbt.Parameter_File>
/export/apps/rDock/src/rDock_2013.1_src/data/scripts/dock_solv.prm

>  <Rbt.Receptor>
prm/blind_docking_40.prm

>  <SCORE>
-11.8113

>  <SCORE.INTER>
-17.7149

>  <SCORE.INTER.CONST>
1

>  <SCORE.INTER.POLAR>
-1.59099

>  <SCORE.INTER.ROT>
3

>  <SCORE.INTER.SOLV>
14.3969

>  <SCORE.INTER.VDW>
-16.9056

>  <SCORE.INTER.norm>
-1.10718

>  <SCORE.INTRA>
5.9036

>  <SCORE.INTRA.DIHEDRAL>
7.70349

>  <SCORE.INTRA.DIHEDRAL.0>
0.00893466

>  <SCORE.INTRA.POLAR>
0

>  <SCORE.INTRA.POLAR.0>
0

>  <SCORE.INTRA.REPUL>
0

>  <SCORE.INTRA.REPUL.0>
0

>  <SCORE.INTRA.SOLV>
3.66168

>  <SCORE.INTRA.SOLV.lig_0>
-48.9722

>  <SCORE.INTRA.VDW>
0.221012

>  <SCORE.INTRA.VDW.0>
-0.529409

>  <SCORE.INTRA.norm>
0.368975

>  <SCORE.RESTR>
0

>  <SCORE.RESTR.CAVITY>
0

>  <SCORE.RESTR.norm>
0

>  <SCORE.SYSTEM>
0

>  <SCORE.SYSTEM.CONST>
0

>  <SCORE.SYSTEM.DIHEDRAL>
0

>  <SCORE.SYSTEM.SOLV>
0

>  <SCORE.SYSTEM.norm>
0

>  <SCORE.heavy>
16

>  <SCORE.norm>
-0.738209

>  <RMSD>
40.554

$$$$
ligand
 OpenBabel11021811433D
libRbt.so/2013.1/901 2013/11/27
 16 16  0  0  0  0  0  0  0  0999 V2000
   10.8135    0.7124   -3.2394 P   0  0  2  0  0  0  0  0  0  0  0  0
   11.3935    0.1239   -4.4721 O   0  0  0  0  0  0  0  0  0  0  0  0
    9.5116   -0.1300   -2.8092 O   0  5  0  0  0  0  0  0  0  0  0  0
   10.3866    2.2354   -3.5423 O   0  0  0  0  0  0  0  0  0  0  0  0
   10.0248   -3.4137   -2.0508 C   0  0  2  0  0  0  0  0  0  0  0  0
    9.0228   -2.8491   -1.1862 O   0  0  0  0  0  0  0  0  0  0  0  0
   10.8523   -4.4916   -1.3048 C   0  0  2  0  0  0  0  0  0  0  0  0
    9.9625   -5.5429   -0.7979 O   0  0  0  0  0  0  0  0  0  0  0  0
   11.5794   -3.8195   -0.1250 C   0  0  1  0  0  0  0  0  0  0  0  0
   12.3592   -4.7920    0.5810 O   0  0  0  0  0  0  0  0  0  0  0  0
   12.4998   -2.7255   -0.6883 C   0  0  2  0  0  0  0  0  0  0  0  0
   13.1859   -2.0709    0.4006 O   0  0  0  0  0  0  0  0  0  0  0  0
   11.6271   -1.6969   -1.4592 C   0  0  2  0  0  0  0  0  0  0  0  0
   10.9176   -2.3623   -2.5488 O   0  0  0  0  0  0  0  0  0  0  0  0
   12.5459   -0.6150   -2.0553 C   0  0  0  0  0  0  0  0  0  0  0  0
   11.9002    0.6639   -2.0333 O   0  0  0  0  0  0  0  0  0  0  0  0
  1  2  1  6  0  0  0
  1  3  1  0  0  0  0
  1  4  2  0  0  0  0
  1 16  1  0  0  0  0
  5  6  1  1  0  0  0
  5  7  1  0  0  0  0
  5 14  1  0  0  0  0
  7  8  1  1  0  0  0
  7  9  1  0  0  0  0
  9 10  1  6  0  0  0
  9 11  1  0  0  0  0
 11 12  1  1  0  0  0
 11 13  1  0  0  0  0
 13 14  1  0  0  0  0
 13 15  1  6  0  0  0
 15 16  1  0  0  0  0
M  CHG  1   3  -1
M  END
>  <CHROM.1>
-144.68106416,-76.82057321,-42.98025484,11.12105953,-1.70159151,-1.82989336
1.64798530,-0.52734956,-0.47265328

>  <Name>
ligand

>  <RI>
0

>  <Rbt.Current_Directory>
/home/itssahil/PROJECTS/Mol_Feturizer/New_Systems/rnas/2HO7

>  <Rbt.Executable>
rbdock ($Id: //depot/dev/client3/rdock/2013.1/src/exe/rbdock.cxx#4 $)

>  <Rbt.Library>
libRbt.so (2013.1, Build901 2013/11/27)

>  <Rbt.Parameter_File>
/export/apps/rDock/src/rDock_2013.1_src/data/scripts/dock_solv.prm

>  <Rbt.Receptor>
prm/blind_docking_100.prm

>  <SCORE>
-12.8661

>  <SCORE.INTER>
-17.2944

>  <SCORE.INTER.CONST>
1

>  <SCORE.INTER.POLAR>
-2.86378

>  <SCORE.INTER.ROT>
3

>  <SCORE.INTER.SOLV>
13.4895

>  <SCORE.INTER.VDW>
-12.0801

>  <SCORE.INTER.norm>
-1.0809

>  <SCORE.INTRA>
4.42829

>  <SCORE.INTRA.DIHEDRAL>
5.10797

>  <SCORE.INTRA.DIHEDRAL.0>
0.00893466

>  <SCORE.INTRA.POLAR>
0

>  <SCORE.INTRA.POLAR.0>
0

>  <SCORE.INTRA.REPUL>
0

>  <SCORE.INTRA.REPUL.0>
0

>  <SCORE.INTRA.SOLV>
3.82298

>  <SCORE.INTRA.SOLV.lig_0>
-48.9722

>  <SCORE.INTRA.VDW>
-0.0371861

>  <SCORE.INTRA.VDW.0>
-0.529409

>  <SCORE.INTRA.norm>
0.276768

>  <SCORE.RESTR>
0

>  <SCORE.RESTR.CAVITY>
0

>  <SCORE.RESTR.norm>
0

>  <SCORE.SYSTEM>
0

>  <SCORE.SYSTEM.CONST>
0

>  <SCORE.SYSTEM.DIHEDRAL>
0

>  <SCORE.SYSTEM.SOLV>
0

>  <SCORE.SYSTEM.norm>
0

>  <SCORE.heavy>
16

>  <SCORE.norm>
-0.804129

>  <RMSD>
40.567

$$$$
ligand
 OpenBabel11021811433D
libRbt.so/2013.1/901 2013/11/27
 16 16  0  0  0  0  0  0  0  0999 V2000
    9.7419   -1.3059    0.9004 P   0  0  2  0  0  0  0  0  0  0  0  0
   11.0362   -0.9424    0.2718 O   0  0  0  0  0  0  0  0  0  0  0  0
    9.7408   -0.8207    2.4348 O   0  5  0  0  0  0  0  0  0  0  0  0
    9.5704   -2.9063    0.8474 O   0  0  0  0  0  0  0  0  0  0  0  0
   10.2332    0.4493   -3.5249 C   0  0  2  0  0  0  0  0  0  0  0  0
   11.5244   -0.1091   -3.2225 O   0  0  0  0  0  0  0  0  0  0  0  0
   10.3550    1.9492   -3.8971 C   0  0  2  0  0  0  0  0  0  0  0  0
   11.2619    2.1087   -5.0400 O   0  0  0  0  0  0  0  0  0  0  0  0
   10.9191    2.7097   -2.6823 C   0  0  1  0  0  0  0  0  0  0  0  0
   11.0370    4.1029   -2.9949 O   0  0  0  0  0  0  0  0  0  0  0  0
    9.9492    2.5221   -1.5053 C   0  0  2  0  0  0  0  0  0  0  0  0
   10.4618    3.2172   -0.3482 O   0  0  0  0  0  0  0  0  0  0  0  0
    9.8319    1.0028   -1.2017 C   0  0  2  0  0  0  0  0  0  0  0  0
    9.3320    0.2963   -2.3782 O   0  0  0  0  0  0  0  0  0  0  0  0
    8.8358    0.8037   -0.0449 C   0  0  0  0  0  0  0  0  0  0  0  0
    8.5177   -0.5843    0.1141 O   0  0  0  0  0  0  0  0  0  0  0  0
  1  2  1  6  0  0  0
  1  3  1  0  0  0  0
  1  4  2  0  0  0  0
  1 16  1  0  0  0  0
  5  6  1  1  0  0  0
  5  7  1  0  0  0  0
  5 14  1  0  0  0  0
  7  8  1  6  0  0  0
  7  9  1  0  0  0  0
  9 10  1  6  0  0  0
  9 11  1  0  0  0  0
 11 12  1  1  0  0  0
 11 13  1  0  0  0  0
 13 14  1  0  0  0  0
 13 15  1  1  0  0  0
 15 16  1  0  0  0  0
M  CHG  1   3  -1
M  END
>  <CHROM.1>
169.86464089,78.42451602,-48.80110824,10.12658608,0.60221037,-1.19868957
-2.59885284,1.33832015,0.14630266

>  <Name>
ligand

>  <RI>
0

>  <Rbt.Current_Directory>
/home/itssahil/PROJECTS/Mol_Feturizer/New_Systems/rnas/2HO7

>  <Rbt.Executable>
rbdock ($Id: //depot/dev/client3/rdock/2013.1/src/exe/rbdock.cxx#4 $)

>  <Rbt.Library>
libRbt.so (2013.1, Build901 2013/11/27)

>  <Rbt.Parameter_File>
/export/apps/rDock/src/rDock_2013.1_src/data/scripts/dock_solv.prm

>  <Rbt.Receptor>
prm/blind_docking_60.prm

>  <SCORE>
-18.5897

>  <SCORE.INTER>
-20.5289

>  <SCORE.INTER.CONST>
1

>  <SCORE.INTER.POLAR>
-2.54558

>  <SCORE.INTER.ROT>
3

>  <SCORE.INTER.SOLV>
18.2297

>  <SCORE.INTER.VDW>
-16.8772

>  <SCORE.INTER.norm>
-1.28306

>  <SCORE.INTRA>
1.89957

>  <SCORE.INTRA.DIHEDRAL>
2.10381

>  <SCORE.INTRA.DIHEDRAL.0>
0.00893466

>  <SCORE.INTRA.POLAR>
0

>  <SCORE.INTRA.POLAR.0>
0

>  <SCORE.INTRA.REPUL>
0

>  <SCORE.INTRA.REPUL.0>
0

>  <SCORE.INTRA.SOLV>
0.95419

>  <SCORE.INTRA.SOLV.lig_0>
-48.9722

>  <SCORE.INTRA.VDW>
0.370571

>  <SCORE.INTRA.VDW.0>
-0.529409

>  <SCORE.INTRA.norm>
0.118723

>  <SCORE.RESTR>
0.0396288

>  <SCORE.RESTR.CAVITY>
0.0396288

>  <SCORE.RESTR.norm>
0.0024768

>  <SCORE.SYSTEM>
0

>  <SCORE.SYSTEM.CONST>
0

>  <SCORE.SYSTEM.DIHEDRAL>
0

>  <SCORE.SYSTEM.SOLV>
0

>  <SCORE.SYSTEM.norm>
0

>  <SCORE.heavy>
16

>  <SCORE.norm>
-1.16186

>  <RMSD>
40.569

$$$$
ligand
 OpenBabel11021811433D
libRbt.so/2013.1/901 2013/11/27
 16 16  0  0  0  0  0  0  0  0999 V2000
    9.2650   -1.8731    1.2392 P   0  0  2  0  0  0  0  0  0  0  0  0
    8.5263   -2.5279    2.3473 O   0  0  0  0  0  0  0  0  0  0  0  0
    8.2250   -1.0779    0.3034 O   0  5  0  0  0  0  0  0  0  0  0  0
   10.0064   -3.0068    0.3682 O   0  0  0  0  0  0  0  0  0  0  0  0
   10.4290    2.9541   -0.8063 C   0  0  2  0  0  0  0  0  0  0  0  0
    9.0544    3.1101   -0.4103 O   0  0  0  0  0  0  0  0  0  0  0  0
   10.5299    2.5540   -2.3005 C   0  0  2  0  0  0  0  0  0  0  0  0
    9.8687    3.5646   -3.1345 O   0  0  0  0  0  0  0  0  0  0  0  0
    9.8327    1.1937   -2.4902 C   0  0  1  0  0  0  0  0  0  0  0  0
    9.9156    0.7940   -3.8634 O   0  0  0  0  0  0  0  0  0  0  0  0
   10.5465    0.1604   -1.6047 C   0  0  2  0  0  0  0  0  0  0  0  0
    9.9035   -1.1236   -1.7557 O   0  0  0  0  0  0  0  0  0  0  0  0
   10.4517    0.6298   -0.1266 C   0  0  2  0  0  0  0  0  0  0  0  0
   11.0847    1.9376    0.0229 O   0  0  0  0  0  0  0  0  0  0  0  0
   11.1937   -0.3833    0.7640 C   0  0  0  0  0  0  0  0  0  0  0  0
   10.3518   -0.8244    1.8363 O   0  0  0  0  0  0  0  0  0  0  0  0
  1  2  1  1  0  0  0
  1  3  1  0  0  0  0
  1  4  2  0  0  0  0
  1 16  1  0  0  0  0
  5  6  1  1  0  0  0
  5  7  1  0  0  0  0
  5 14  1  0  0  0  0
  7  8  1  6  0  0  0
  7  9  1  0  0  0  0
  9 10  1  6  0  0  0
  9 11  1  0  0  0  0
 11 12  1  1  0  0  0
 11 13  1  0  0  0  0
 13 14  1  0  0  0  0
 13 15  1  1  0  0  0
 15 16  1  0  0  0  0
M  CHG  1   3  -1
M  END
>  <CHROM.1>
-127.65837817,75.52796079,170.37958396,9.87510640,0.18761760,-0.45210657
-2.47889038,-1.41367164,-1.57209447

>  <Name>
ligand

>  <RI>
0

>  <Rbt.Current_Directory>
/home/itssahil/PROJECTS/Mol_Feturizer/New_Systems/rnas/2HO7

>  <Rbt.Executable>
rbdock ($Id: //depot/dev/client3/rdock/2013.1/src/exe/rbdock.cxx#4 $)

>  <Rbt.Library>
libRbt.so (2013.1, Build901 2013/11/27)

>  <Rbt.Parameter_File>
/export/apps/rDock/src/rDock_2013.1_src/data/scripts/dock_solv.prm

>  <Rbt.Receptor>
prm/blind_docking_100.prm

>  <SCORE>
-14.2959

>  <SCORE.INTER>
-20.3831

>  <SCORE.INTER.CONST>
1

>  <SCORE.INTER.POLAR>
-2.45843

>  <SCORE.INTER.ROT>
3

>  <SCORE.INTER.SOLV>
16.3234

>  <SCORE.INTER.VDW>
-16.4351

>  <SCORE.INTER.norm>
-1.27394

>  <SCORE.INTRA>
6.08716

>  <SCORE.INTRA.DIHEDRAL>
6.33654

>  <SCORE.INTRA.DIHEDRAL.0>
0.00893466

>  <SCORE.INTRA.POLAR>
0

>  <SCORE.INTRA.POLAR.0>
0

>  <SCORE.INTRA.REPUL>
0

>  <SCORE.INTRA.REPUL.0>
0

>  <SCORE.INTRA.SOLV>
6.44437

>  <SCORE.INTRA.SOLV.lig_0>
-48.9722

>  <SCORE.INTRA.VDW>
-0.303296

>  <SCORE.INTRA.VDW.0>
-0.529409

>  <SCORE.INTRA.norm>
0.380448

>  <SCORE.RESTR>
0

>  <SCORE.RESTR.CAVITY>
0

>  <SCORE.RESTR.norm>
0

>  <SCORE.SYSTEM>
0

>  <SCORE.SYSTEM.CONST>
0

>  <SCORE.SYSTEM.DIHEDRAL>
0

>  <SCORE.SYSTEM.SOLV>
0

>  <SCORE.SYSTEM.norm>
0

>  <SCORE.heavy>
16

>  <SCORE.norm>
-0.893495

>  <RMSD>
40.595

$$$$
ligand
 OpenBabel11021811433D
libRbt.so/2013.1/901 2013/11/27
 16 16  0  0  0  0  0  0  0  0999 V2000
   10.6063    1.9968   -3.5970 P   0  0  2  0  0  0  0  0  0  0  0  0
    9.3025    1.9569   -2.8894 O   0  0  0  0  0  0  0  0  0  0  0  0
   11.6855    2.7622   -2.6809 O   0  5  0  0  0  0  0  0  0  0  0  0
   10.4209    2.7965   -4.9826 O   0  0  0  0  0  0  0  0  0  0  0  0
   13.3715   -3.0865   -3.0979 C   0  0  2  0  0  0  0  0  0  0  0  0
   12.9902   -3.6141   -4.3812 O   0  0  0  0  0  0  0  0  0  0  0  0
   12.8881   -4.0151   -1.9547 C   0  0  2  0  0  0  0  0  0  0  0  0
   13.4395   -5.3629   -2.1382 O   0  0  0  0  0  0  0  0  0  0  0  0
   11.3496   -4.0786   -1.9944 C   0  0  1  0  0  0  0  0  0  0  0  0
   10.8724   -4.9265   -0.9428 O   0  0  0  0  0  0  0  0  0  0  0  0
   10.8049   -2.6548   -1.8010 C   0  0  2  0  0  0  0  0  0  0  0  0
    9.3620   -2.6852   -1.8458 O   0  0  0  0  0  0  0  0  0  0  0  0
   11.3518   -1.7589   -2.9465 C   0  0  2  0  0  0  0  0  0  0  0  0
   12.8119   -1.7436   -2.9138 O   0  0  0  0  0  0  0  0  0  0  0  0
   10.8375   -0.3225   -2.7412 C   0  0  0  0  0  0  0  0  0  0  0  0
   11.1304    0.4872   -3.8865 O   0  0  0  0  0  0  0  0  0  0  0  0
  1  2  1  1  0  0  0
  1  3  1  0  0  0  0
  1  4  2  0  0  0  0
  1 16  1  0  0  0  0
  5  6  1  6  0  0  0
  5  7  1  0  0  0  0
  5 14  1  0  0  0  0
  7  8  1  6  0  0  0
  7  9  1  0  0  0  0
  9 10  1  1  0  0  0
  9 11  1  0  0  0  0
 11 12  1  6  0  0  0
 11 13  1  0  0  0  0
 13 14  1  0  0  0  0
 13 15  1  1  0  0  0
 15 16  1  0  0  0  0
M  CHG  1   3  -1
M  END
>  <CHROM.1>
-170.41437152,-178.35051791,-39.76280436,11.37710483,-1.22380141,-2.87291354
-1.85499493,-0.49991695,2.78160444

>  <Name>
ligand

>  <RI>
0

>  <Rbt.Current_Directory>
/home/itssahil/PROJECTS/Mol_Feturizer/New_Systems/rnas/2HO7

>  <Rbt.Executable>
rbdock ($Id: //depot/dev/client3/rdock/2013.1/src/exe/rbdock.cxx#4 $)

>  <Rbt.Library>
libRbt.so (2013.1, Build901 2013/11/27)

>  <Rbt.Parameter_File>
/export/apps/rDock/src/rDock_2013.1_src/data/scripts/dock_solv.prm

>  <Rbt.Receptor>
prm/blind_docking_60.prm

>  <SCORE>
-10.7367

>  <SCORE.INTER>
-11.4903

>  <SCORE.INTER.CONST>
1

>  <SCORE.INTER.POLAR>
-1.27279

>  <SCORE.INTER.ROT>
3

>  <SCORE.INTER.SOLV>
20.8105

>  <SCORE.INTER.VDW>
-15.9544

>  <SCORE.INTER.norm>
-0.718147

>  <SCORE.INTRA>
0.75367

>  <SCORE.INTRA.DIHEDRAL>
0.940883

>  <SCORE.INTRA.DIHEDRAL.0>
0.00893466

>  <SCORE.INTRA.POLAR>
0

>  <SCORE.INTRA.POLAR.0>
0

>  <SCORE.INTRA.REPUL>
0

>  <SCORE.INTRA.REPUL.0>
0

>  <SCORE.INTRA.SOLV>
-0.197332

>  <SCORE.INTRA.SOLV.lig_0>
-48.9722

>  <SCORE.INTRA.VDW>
0.381895

>  <SCORE.INTRA.VDW.0>
-0.529409

>  <SCORE.INTRA.norm>
0.0471044

>  <SCORE.RESTR>
0

>  <SCORE.RESTR.CAVITY>
0

>  <SCORE.RESTR.norm>
0

>  <SCORE.SYSTEM>
0

>  <SCORE.SYSTEM.CONST>
0

>  <SCORE.SYSTEM.DIHEDRAL>
0

>  <SCORE.SYSTEM.SOLV>
0

>  <SCORE.SYSTEM.norm>
0

>  <SCORE.heavy>
16

>  <SCORE.norm>
-0.671042

>  <RMSD>
40.605

$$$$
ligand
 OpenBabel11021811433D
libRbt.so/2013.1/901 2013/11/27
 16 16  0  0  0  0  0  0  0  0999 V2000
   10.0014    1.4313   -1.4450 P   0  0  2  0  0  0  0  0  0  0  0  0
    8.6308    0.8665   -1.3772 O   0  0  0  0  0  0  0  0  0  0  0  0
   10.3575    2.1335   -0.0415 O   0  5  0  0  0  0  0  0  0  0  0  0
   10.0520    2.5319   -2.6196 O   0  0  0  0  0  0  0  0  0  0  0  0
   13.4463   -2.9919   -2.9659 C   0  0  2  0  0  0  0  0  0  0  0  0
   13.2470   -3.5704   -4.2683 O   0  0  0  0  0  0  0  0  0  0  0  0
   12.8691   -3.9123   -1.8601 C   0  0  2  0  0  0  0  0  0  0  0  0
   13.4976   -5.2366   -1.9334 O   0  0  0  0  0  0  0  0  0  0  0  0
   11.3512   -4.0498   -2.0821 C   0  0  1  0  0  0  0  0  0  0  0  0
   10.7877   -4.8916   -1.0690 O   0  0  0  0  0  0  0  0  0  0  0  0
   10.7248   -2.6489   -2.0006 C   0  0  2  0  0  0  0  0  0  0  0  0
    9.3008   -2.7490   -2.2172 O   0  0  0  0  0  0  0  0  0  0  0  0
   11.3667   -1.7583   -3.1000 C   0  0  2  0  0  0  0  0  0  0  0  0
   12.8099   -1.6727   -2.8929 O   0  0  0  0  0  0  0  0  0  0  0  0
   10.7685   -0.3430   -3.0034 C   0  0  0  0  0  0  0  0  0  0  0  0
   11.0776    0.2503   -1.7364 O   0  0  0  0  0  0  0  0  0  0  0  0
  1  2  1  1  0  0  0
  1  3  1  0  0  0  0
  1  4  2  0  0  0  0
  1 16  1  0  0  0  0
  5  6  1  6  0  0  0
  5  7  1  0  0  0  0
  5 14  1  0  0  0  0
  7  8  1  6  0  0  0
  7  9  1  0  0  0  0
  9 10  1  1  0  0  0
  9 11  1  0  0  0  0
 11 12  1  6  0  0  0
 11 13  1  0  0  0  0
 13 14  1  0  0  0  0
 13 15  1  1  0  0  0
 15 16  1  0  0  0  0
M  CHG  1   3  -1
M  END
>  <CHROM.1>
62.23698637,-158.43753711,61.48402797,11.15719814,-1.40840987,-2.10045487
2.07039492,0.55308485,-0.11789590

>  <Name>
ligand

>  <RI>
0

>  <Rbt.Current_Directory>
/home/itssahil/PROJECTS/Mol_Feturizer/New_Systems/rnas/2HO7

>  <Rbt.Executable>
rbdock ($Id: //depot/dev/client3/rdock/2013.1/src/exe/rbdock.cxx#4 $)

>  <Rbt.Library>
libRbt.so (2013.1, Build901 2013/11/27)

>  <Rbt.Parameter_File>
/export/apps/rDock/src/rDock_2013.1_src/data/scripts/dock_solv.prm

>  <Rbt.Receptor>
prm/blind_docking_60.prm

>  <SCORE>
-14.9406

>  <SCORE.INTER>
-15.945

>  <SCORE.INTER.CONST>
1

>  <SCORE.INTER.POLAR>
-2.53476

>  <SCORE.INTER.ROT>
3

>  <SCORE.INTER.SOLV>
16.3844

>  <SCORE.INTER.VDW>
-13.2423

>  <SCORE.INTER.norm>
-0.996562

>  <SCORE.INTRA>
1.00442

>  <SCORE.INTRA.DIHEDRAL>
2.0734

>  <SCORE.INTRA.DIHEDRAL.0>
0.00893466

>  <SCORE.INTRA.POLAR>
0

>  <SCORE.INTRA.POLAR.0>
0

>  <SCORE.INTRA.REPUL>
0

>  <SCORE.INTRA.REPUL.0>
0

>  <SCORE.INTRA.SOLV>
0.389136

>  <SCORE.INTRA.SOLV.lig_0>
-48.9722

>  <SCORE.INTRA.VDW>
-0.226849

>  <SCORE.INTRA.VDW.0>
-0.529409

>  <SCORE.INTRA.norm>
0.0627763

>  <SCORE.RESTR>
0

>  <SCORE.RESTR.CAVITY>
0

>  <SCORE.RESTR.norm>
0

>  <SCORE.SYSTEM>
0

>  <SCORE.SYSTEM.CONST>
0

>  <SCORE.SYSTEM.DIHEDRAL>
0

>  <SCORE.SYSTEM.SOLV>
0

>  <SCORE.SYSTEM.norm>
0

>  <SCORE.heavy>
16

>  <SCORE.norm>
-0.933785

>  <RMSD>
40.605

$$$$
ligand
 OpenBabel11021811433D
libRbt.so/2013.1/901 2013/11/27
 16 16  0  0  0  0  0  0  0  0999 V2000
   10.6327   -3.5971   -1.3569 P   0  0  2  0  0  0  0  0  0  0  0  0
   10.3257   -5.0028   -1.7199 O   0  0  0  0  0  0  0  0  0  0  0  0
   11.0151   -3.5221    0.2045 O   0  5  0  0  0  0  0  0  0  0  0  0
    9.3279   -2.6934   -1.6299 O   0  0  0  0  0  0  0  0  0  0  0  0
   10.1819    1.2603   -1.1291 C   0  0  2  0  0  0  0  0  0  0  0  0
    8.8809    0.7208   -1.4239 O   0  0  0  0  0  0  0  0  0  0  0  0
   10.6924    2.1385   -2.3001 C   0  0  2  0  0  0  0  0  0  0  0  0
    9.7378    3.2211   -2.5663 O   0  0  0  0  0  0  0  0  0  0  0  0
   10.8278    1.2521   -3.5525 C   0  0  1  0  0  0  0  0  0  0  0  0
   11.3051    2.0368   -4.6520 O   0  0  0  0  0  0  0  0  0  0  0  0
   11.8309    0.1305   -3.2410 C   0  0  2  0  0  0  0  0  0  0  0  0
   11.9675   -0.7230   -4.3976 O   0  0  0  0  0  0  0  0  0  0  0  0
   11.2925   -0.6908   -2.0371 C   0  0  2  0  0  0  0  0  0  0  0  0
   11.1355    0.1762   -0.8722 O   0  0  0  0  0  0  0  0  0  0  0  0
   12.3083   -1.7965   -1.6971 C   0  0  0  0  0  0  0  0  0  0  0  0
   11.8850   -3.0544   -2.2373 O   0  0  0  0  0  0  0  0  0  0  0  0
  1  2  1  6  0  0  0
  1  3  1  0  0  0  0
  1  4  2  0  0  0  0
  1 16  1  0  0  0  0
  5  6  1  6  0  0  0
  5  7  1  0  0  0  0
  5 14  1  0  0  0  0
  7  8  1  6  0  0  0
  7  9  1  0  0  0  0
  9 10  1  6  0  0  0
  9 11  1  0  0  0  0
 11 12  1  6  0  0  0
 11 13  1  0  0  0  0
 13 14  1  0  0  0  0
 13 15  1  1  0  0  0
 15 16  1  0  0  0  0
M  CHG  1   3  -1
M  END
>  <CHROM.1>
-100.46047966,-72.92056198,-169.58075673,10.80319420,-0.88476253,-2.10220358
1.52050045,-0.93546315,2.81386773

>  <Name>
ligand

>  <RI>
0

>  <Rbt.Current_Directory>
/home/itssahil/PROJECTS/Mol_Feturizer/New_Systems/rnas/2HO7

>  <Rbt.Executable>
rbdock ($Id: //depot/dev/client3/rdock/2013.1/src/exe/rbdock.cxx#4 $)

>  <Rbt.Library>
libRbt.so (2013.1, Build901 2013/11/27)

>  <Rbt.Parameter_File>
/export/apps/rDock/src/rDock_2013.1_src/data/scripts/dock_solv.prm

>  <Rbt.Receptor>
prm/blind_docking_40.prm

>  <SCORE>
-14.1816

>  <SCORE.INTER>
-18.785

>  <SCORE.INTER.CONST>
1

>  <SCORE.INTER.POLAR>
-2.57042

>  <SCORE.INTER.ROT>
3

>  <SCORE.INTER.SOLV>
13.7114

>  <SCORE.INTER.VDW>
-14.1258

>  <SCORE.INTER.norm>
-1.17406

>  <SCORE.INTRA>
4.60345

>  <SCORE.INTRA.DIHEDRAL>
4.97321

>  <SCORE.INTRA.DIHEDRAL.0>
0.00893466

>  <SCORE.INTRA.POLAR>
0

>  <SCORE.INTRA.POLAR.0>
0

>  <SCORE.INTRA.REPUL>
0

>  <SCORE.INTRA.REPUL.0>
0

>  <SCORE.INTRA.SOLV>
4.48368

>  <SCORE.INTRA.SOLV.lig_0>
-48.9722

>  <SCORE.INTRA.VDW>
-0.124996

>  <SCORE.INTRA.VDW.0>
-0.529409

>  <SCORE.INTRA.norm>
0.287715

>  <SCORE.RESTR>
0

>  <SCORE.RESTR.CAVITY>
0

>  <SCORE.RESTR.norm>
0

>  <SCORE.SYSTEM>
0

>  <SCORE.SYSTEM.CONST>
0

>  <SCORE.SYSTEM.DIHEDRAL>
0

>  <SCORE.SYSTEM.SOLV>
0

>  <SCORE.SYSTEM.norm>
0

>  <SCORE.heavy>
16

>  <SCORE.norm>
-0.886349

>  <RMSD>
40.608

$$$$
ligand
 OpenBabel11021811433D
libRbt.so/2013.1/901 2013/11/27
 16 16  0  0  0  0  0  0  0  0999 V2000
    9.9927    2.3007   -1.5195 P   0  0  2  0  0  0  0  0  0  0  0  0
    8.8543    3.0106   -2.1537 O   0  0  0  0  0  0  0  0  0  0  0  0
   10.4609    3.1097   -0.2095 O   0  5  0  0  0  0  0  0  0  0  0  0
   11.2125    2.2340   -2.5688 O   0  0  0  0  0  0  0  0  0  0  0  0
    9.3067   -3.3655   -1.0297 C   0  0  2  0  0  0  0  0  0  0  0  0
    8.3741   -3.4052    0.0654 O   0  0  0  0  0  0  0  0  0  0  0  0
   10.5802   -4.1851   -0.6989 C   0  0  2  0  0  0  0  0  0  0  0  0
   10.2152   -5.5722   -0.3876 O   0  0  0  0  0  0  0  0  0  0  0  0
   11.2680   -3.5473    0.5228 C   0  0  1  0  0  0  0  0  0  0  0  0
   12.4544   -4.2812    0.8489 O   0  0  0  0  0  0  0  0  0  0  0  0
   11.6355   -2.0987    0.1653 C   0  0  2  0  0  0  0  0  0  0  0  0
   12.2727   -1.4735    1.3002 O   0  0  0  0  0  0  0  0  0  0  0  0
   10.3316   -1.3354   -0.1971 C   0  0  2  0  0  0  0  0  0  0  0  0
    9.6762   -1.9790   -1.3327 O   0  0  0  0  0  0  0  0  0  0  0  0
   10.6948    0.1084   -0.5890 C   0  0  0  0  0  0  0  0  0  0  0  0
    9.5434    0.8015   -1.0858 O   0  0  0  0  0  0  0  0  0  0  0  0
  1  2  1  6  0  0  0
  1  3  1  0  0  0  0
  1  4  2  0  0  0  0
  1 16  1  0  0  0  0
  5  6  1  1  0  0  0
  5  7  1  0  0  0  0
  5 14  1  0  0  0  0
  7  8  1  1  0  0  0
  7  9  1  0  0  0  0
  9 10  1  6  0  0  0
  9 11  1  0  0  0  0
 11 12  1  1  0  0  0
 11 13  1  0  0  0  0
 13 14  1  0  0  0  0
 13 15  1  6  0  0  0
 15 16  1  0  0  0  0
M  CHG  1   3  -1
M  END
>  <CHROM.1>
173.01318399,-178.49683989,174.89545301,10.39034569,-0.93388811,-0.62895049
1.68754768,-0.52984331,-0.17704788

>  <Name>
ligand

>  <RI>
0

>  <Rbt.Current_Directory>
/home/itssahil/PROJECTS/Mol_Feturizer/New_Systems/rnas/2HO7

>  <Rbt.Executable>
rbdock ($Id: //depot/dev/client3/rdock/2013.1/src/exe/rbdock.cxx#4 $)

>  <Rbt.Library>
libRbt.so (2013.1, Build901 2013/11/27)

>  <Rbt.Parameter_File>
/export/apps/rDock/src/rDock_2013.1_src/data/scripts/dock_solv.prm

>  <Rbt.Receptor>
prm/blind_docking_60.prm

>  <SCORE>
-12.8644

>  <SCORE.INTER>
-13.2724

>  <SCORE.INTER.CONST>
1

>  <SCORE.INTER.POLAR>
-1.27269

>  <SCORE.INTER.ROT>
3

>  <SCORE.INTER.SOLV>
19.3917

>  <SCORE.INTER.VDW>
-16.6699

>  <SCORE.INTER.norm>
-0.829524

>  <SCORE.INTRA>
0.408023

>  <SCORE.INTRA.DIHEDRAL>
0.220678

>  <SCORE.INTRA.DIHEDRAL.0>
0.00893466

>  <SCORE.INTRA.POLAR>
0

>  <SCORE.INTRA.POLAR.0>
0

>  <SCORE.INTRA.REPUL>
0

>  <SCORE.INTRA.REPUL.0>
0

>  <SCORE.INTRA.SOLV>
0.690925

>  <SCORE.INTRA.SOLV.lig_0>
-48.9722

>  <SCORE.INTRA.VDW>
-0.0477784

>  <SCORE.INTRA.VDW.0>
-0.529409

>  <SCORE.INTRA.norm>
0.0255014

>  <SCORE.RESTR>
0

>  <SCORE.RESTR.CAVITY>
0

>  <SCORE.RESTR.norm>
0

>  <SCORE.SYSTEM>
0

>  <SCORE.SYSTEM.CONST>
0

>  <SCORE.SYSTEM.DIHEDRAL>
0

>  <SCORE.SYSTEM.SOLV>
0

>  <SCORE.SYSTEM.norm>
0

>  <SCORE.heavy>
16

>  <SCORE.norm>
-0.804023

>  <RMSD>
40.609

$$$$
ligand
 OpenBabel11021811433D
libRbt.so/2013.1/901 2013/11/27
 16 16  0  0  0  0  0  0  0  0999 V2000
    9.2538   -1.8908    1.1572 P   0  0  2  0  0  0  0  0  0  0  0  0
    8.3020   -1.1626    0.2819 O   0  0  0  0  0  0  0  0  0  0  0  0
   10.0447   -2.9885    0.2858 O   0  5  0  0  0  0  0  0  0  0  0  0
    8.4251   -2.6316    2.3224 O   0  0  0  0  0  0  0  0  0  0  0  0
   10.4344    2.9487   -0.8293 C   0  0  2  0  0  0  0  0  0  0  0  0
    9.0588    3.1096   -0.4390 O   0  0  0  0  0  0  0  0  0  0  0  0
   10.5398    2.5413   -2.3213 C   0  0  2  0  0  0  0  0  0  0  0  0
    9.8838    3.5494   -3.1624 O   0  0  0  0  0  0  0  0  0  0  0  0
    9.8403    1.1817   -2.5070 C   0  0  1  0  0  0  0  0  0  0  0  0
    9.9273    0.7754   -3.8781 O   0  0  0  0  0  0  0  0  0  0  0  0
   10.5486    0.1510   -1.6141 C   0  0  2  0  0  0  0  0  0  0  0  0
    9.9033   -1.1323   -1.7613 O   0  0  0  0  0  0  0  0  0  0  0  0
   10.4495    0.6276   -0.1386 C   0  0  2  0  0  0  0  0  0  0  0  0
   11.0848    1.9347    0.0070 O   0  0  0  0  0  0  0  0  0  0  0  0
   11.1860   -0.3829    0.7594 C   0  0  0  0  0  0  0  0  0  0  0  0
   10.3238   -0.8533    1.8026 O   0  0  0  0  0  0  0  0  0  0  0  0
  1  2  1  6  0  0  0
  1  3  1  0  0  0  0
  1  4  2  0  0  0  0
  1 16  1  0  0  0  0
  5  6  1  1  0  0  0
  5  7  1  0  0  0  0
  5 14  1  0  0  0  0
  7  8  1  6  0  0  0
  7  9  1  0  0  0  0
  9 10  1  6  0  0  0
  9 11  1  0  0  0  0
 11 12  1  1  0  0  0
 11 13  1  0  0  0  0
 13 14  1  0  0  0  0
 13 15  1  1  0  0  0
 15 16  1  0  0  0  0
M  CHG  1   3  -1
M  END
>  <CHROM.1>
-125.58623240,74.35890315,-69.40282219,9.87555492,0.16793832,-0.48263436
-2.51626736,-1.40965311,-1.60032621

>  <Name>
ligand

>  <RI>
0

>  <Rbt.Current_Directory>
/home/itssahil/PROJECTS/Mol_Feturizer/New_Systems/rnas/2HO7

>  <Rbt.Executable>
rbdock ($Id: //depot/dev/client3/rdock/2013.1/src/exe/rbdock.cxx#4 $)

>  <Rbt.Library>
libRbt.so (2013.1, Build901 2013/11/27)

>  <Rbt.Parameter_File>
/export/apps/rDock/src/rDock_2013.1_src/data/scripts/dock_solv.prm

>  <Rbt.Receptor>
prm/blind_docking_20.prm

>  <SCORE>
-12.2937

>  <SCORE.INTER>
-17.1388

>  <SCORE.INTER.CONST>
1

>  <SCORE.INTER.POLAR>
-2.1236

>  <SCORE.INTER.ROT>
3

>  <SCORE.INTER.SOLV>
18.8875

>  <SCORE.INTER.VDW>
-16.243

>  <SCORE.INTER.norm>
-1.07118

>  <SCORE.INTRA>
4.84515

>  <SCORE.INTRA.DIHEDRAL>
6.27211

>  <SCORE.INTRA.DIHEDRAL.0>
0.00893466

>  <SCORE.INTRA.POLAR>
0

>  <SCORE.INTRA.POLAR.0>
0

>  <SCORE.INTRA.REPUL>
0

>  <SCORE.INTRA.REPUL.0>
0

>  <SCORE.INTRA.SOLV>
3.29663

>  <SCORE.INTRA.SOLV.lig_0>
-48.9722

>  <SCORE.INTRA.VDW>
0.0607815

>  <SCORE.INTRA.VDW.0>
-0.529409

>  <SCORE.INTRA.norm>
0.302822

>  <SCORE.RESTR>
0

>  <SCORE.RESTR.CAVITY>
0

>  <SCORE.RESTR.norm>
0

>  <SCORE.SYSTEM>
0

>  <SCORE.SYSTEM.CONST>
0

>  <SCORE.SYSTEM.DIHEDRAL>
0

>  <SCORE.SYSTEM.SOLV>
0

>  <SCORE.SYSTEM.norm>
0

>  <SCORE.heavy>
16

>  <SCORE.norm>
-0.768355

>  <RMSD>
40.611

$$$$
ligand
 OpenBabel11021811433D
libRbt.so/2013.1/901 2013/11/27
 16 16  0  0  0  0  0  0  0  0999 V2000
    9.1542    0.2696    0.7670 P   0  0  2  0  0  0  0  0  0  0  0  0
    9.0158    0.3707    2.2411 O   0  0  0  0  0  0  0  0  0  0  0  0
    9.6788    1.6749    0.1842 O   0  5  0  0  0  0  0  0  0  0  0  0
    7.7127   -0.0658    0.1319 O   0  0  0  0  0  0  0  0  0  0  0  0
   10.8439   -4.5678   -1.6553 C   0  0  2  0  0  0  0  0  0  0  0  0
   10.4773   -5.8043   -1.0170 O   0  0  0  0  0  0  0  0  0  0  0  0
   12.3783   -4.3538   -1.6017 C   0  0  2  0  0  0  0  0  0  0  0  0
   13.0633   -5.4829   -2.2419 O   0  0  0  0  0  0  0  0  0  0  0  0
   12.8073   -4.2616   -0.1252 C   0  0  1  0  0  0  0  0  0  0  0  0
   14.2229   -4.0568   -0.0439 O   0  0  0  0  0  0  0  0  0  0  0  0
   12.0732   -3.0731    0.5150 C   0  0  2  0  0  0  0  0  0  0  0  0
   12.4500   -2.9716    1.9052 O   0  0  0  0  0  0  0  0  0  0  0  0
   10.5435   -3.3183    0.3973 C   0  0  2  0  0  0  0  0  0  0  0  0
   10.1648   -3.4407   -1.0080 O   0  0  0  0  0  0  0  0  0  0  0  0
    9.8001   -2.1159    1.0068 C   0  0  0  0  0  0  0  0  0  0  0  0
   10.2199   -0.8950    0.3853 O   0  0  0  0  0  0  0  0  0  0  0  0
  1  2  1  1  0  0  0
  1  3  1  0  0  0  0
  1  4  2  0  0  0  0
  1 16  1  0  0  0  0
  5  6  1  1  0  0  0
  5  7  1  0  0  0  0
  5 14  1  0  0  0  0
  7  8  1  1  0  0  0
  7  9  1  0  0  0  0
  9 10  1  6  0  0  0
  9 11  1  0  0  0  0
 11 12  1  1  0  0  0
 11 13  1  0  0  0  0
 13 14  1  0  0  0  0
 13 15  1  6  0  0  0
 15 16  1  0  0  0  0
M  CHG  1   3  -1
M  END
>  <CHROM.1>
55.36505347,165.23516730,55.15612496,10.76999424,-2.38852014,0.05633782,2.17888874
-0.40210309,0.60691573

>  <Name>
ligand

>  <RI>
0

>  <Rbt.Current_Directory>
/home/itssahil/PROJECTS/Mol_Feturizer/New_Systems/rnas/2HO7

>  <Rbt.Executable>
rbdock ($Id: //depot/dev/client3/rdock/2013.1/src/exe/rbdock.cxx#4 $)

>  <Rbt.Library>
libRbt.so (2013.1, Build901 2013/11/27)

>  <Rbt.Parameter_File>
/export/apps/rDock/src/rDock_2013.1_src/data/scripts/dock_solv.prm

>  <Rbt.Receptor>
prm/blind_docking_40.prm

>  <SCORE>
-9.74119

>  <SCORE.INTER>
-10.4728

>  <SCORE.INTER.CONST>
1

>  <SCORE.INTER.POLAR>
-1.59099

>  <SCORE.INTER.ROT>
3

>  <SCORE.INTER.SOLV>
13.9393

>  <SCORE.INTER.VDW>
-11.925

>  <SCORE.INTER.norm>
-0.654547

>  <SCORE.INTRA>
0.731567

>  <SCORE.INTRA.DIHEDRAL>
1.13105

>  <SCORE.INTRA.DIHEDRAL.0>
0.00893466

>  <SCORE.INTRA.POLAR>
0

>  <SCORE.INTRA.POLAR.0>
0

>  <SCORE.INTRA.REPUL>
0

>  <SCORE.INTRA.REPUL.0>
0

>  <SCORE.INTRA.SOLV>
0.343268

>  <SCORE.INTRA.SOLV.lig_0>
-48.9722

>  <SCORE.INTRA.VDW>
-0.00559012

>  <SCORE.INTRA.VDW.0>
-0.529409

>  <SCORE.INTRA.norm>
0.045723

>  <SCORE.RESTR>
0

>  <SCORE.RESTR.CAVITY>
0

>  <SCORE.RESTR.norm>
0

>  <SCORE.SYSTEM>
0

>  <SCORE.SYSTEM.CONST>
0

>  <SCORE.SYSTEM.DIHEDRAL>
0

>  <SCORE.SYSTEM.SOLV>
0

>  <SCORE.SYSTEM.norm>
0

>  <SCORE.heavy>
16

>  <SCORE.norm>
-0.608824

>  <RMSD>
40.618

$$$$
ligand
 OpenBabel11021811433D
libRbt.so/2013.1/901 2013/11/27
 16 16  0  0  0  0  0  0  0  0999 V2000
   10.7836   -2.8055   -0.6291 P   0  0  2  0  0  0  0  0  0  0  0  0
   11.3604   -2.6716    0.7317 O   0  0  0  0  0  0  0  0  0  0  0  0
   10.5161   -4.3611   -0.9428 O   0  5  0  0  0  0  0  0  0  0  0  0
   11.8352   -2.2195   -1.6987 O   0  0  0  0  0  0  0  0  0  0  0  0
   10.0975    0.5716   -3.8558 C   0  0  2  0  0  0  0  0  0  0  0  0
   11.4819    0.2307   -4.0504 O   0  0  0  0  0  0  0  0  0  0  0  0
    9.9329    2.0950   -3.6208 C   0  0  2  0  0  0  0  0  0  0  0  0
   10.4883    2.8391   -4.7575 O   0  0  0  0  0  0  0  0  0  0  0  0
   10.6921    2.4759   -2.3359 C   0  0  1  0  0  0  0  0  0  0  0  0
   10.5524    3.8801   -2.0889 O   0  0  0  0  0  0  0  0  0  0  0  0
   10.0886    1.6807   -1.1677 C   0  0  2  0  0  0  0  0  0  0  0  0
   10.7917    2.0116    0.0492 O   0  0  0  0  0  0  0  0  0  0  0  0
   10.2423    0.1650   -1.4729 C   0  0  2  0  0  0  0  0  0  0  0  0
    9.5478   -0.1667   -2.7142 O   0  0  0  0  0  0  0  0  0  0  0  0
    9.6099   -0.6391   -0.3224 C   0  0  0  0  0  0  0  0  0  0  0  0
    9.3790   -1.9956   -0.7218 O   0  0  0  0  0  0  0  0  0  0  0  0
  1  2  1  1  0  0  0
  1  3  1  0  0  0  0
  1  4  2  0  0  0  0
  1 16  1  0  0  0  0
  5  6  1  1  0  0  0
  5  7  1  0  0  0  0
  5 14  1  0  0  0  0
  7  8  1  6  0  0  0
  7  9  1  0  0  0  0
  9 10  1  1  0  0  0
  9 11  1  0  0  0  0
 11 12  1  1  0  0  0
 11 13  1  0  0  0  0
 13 14  1  0  0  0  0
 13 15  1  1  0  0  0
 15 16  1  0  0  0  0
M  CHG  1   3  -1
M  END
>  <CHROM.1>
163.35550887,79.37140323,54.87297612,10.50278930,-0.17368608,-1.75219617
-0.89912581,1.49768986,-1.10668333

>  <Name>
ligand

>  <RI>
0

>  <Rbt.Current_Directory>
/home/itssahil/PROJECTS/Mol_Feturizer/New_Systems/rnas/2HO7

>  <Rbt.Executable>
rbdock ($Id: //depot/dev/client3/rdock/2013.1/src/exe/rbdock.cxx#4 $)

>  <Rbt.Library>
libRbt.so (2013.1, Build901 2013/11/27)

>  <Rbt.Parameter_File>
/export/apps/rDock/src/rDock_2013.1_src/data/scripts/dock_solv.prm

>  <Rbt.Receptor>
prm/blind_docking_100.prm

>  <SCORE>
-14.7708

>  <SCORE.INTER>
-17.5123

>  <SCORE.INTER.CONST>
1

>  <SCORE.INTER.POLAR>
-2.54558

>  <SCORE.INTER.ROT>
3

>  <SCORE.INTER.SOLV>
15.7629

>  <SCORE.INTER.VDW>
-14.0439

>  <SCORE.INTER.norm>
-1.09452

>  <SCORE.INTRA>
2.74126

>  <SCORE.INTRA.DIHEDRAL>
2.67488

>  <SCORE.INTRA.DIHEDRAL.0>
0.00893466

>  <SCORE.INTRA.POLAR>
0

>  <SCORE.INTRA.POLAR.0>
0

>  <SCORE.INTRA.REPUL>
0

>  <SCORE.INTRA.REPUL.0>
0

>  <SCORE.INTRA.SOLV>
3.08423

>  <SCORE.INTRA.SOLV.lig_0>
-48.9722

>  <SCORE.INTRA.VDW>
-0.138294

>  <SCORE.INTRA.VDW.0>
-0.529409

>  <SCORE.INTRA.norm>
0.171329

>  <SCORE.RESTR>
0.000290235

>  <SCORE.RESTR.CAVITY>
0.000290235

>  <SCORE.RESTR.norm>
1.81397e-05

>  <SCORE.SYSTEM>
0

>  <SCORE.SYSTEM.CONST>
0

>  <SCORE.SYSTEM.DIHEDRAL>
0

>  <SCORE.SYSTEM.SOLV>
0

>  <SCORE.SYSTEM.norm>
0

>  <SCORE.heavy>
16

>  <SCORE.norm>
-0.923174

>  <RMSD>
40.625

$$$$
ligand
 OpenBabel11021811433D
libRbt.so/2013.1/901 2013/11/27
 16 16  0  0  0  0  0  0  0  0999 V2000
    9.1126   -1.3291    1.1074 P   0  0  2  0  0  0  0  0  0  0  0  0
    7.8286   -1.4479    0.3728 O   0  0  0  0  0  0  0  0  0  0  0  0
   10.3181   -1.8008    0.1514 O   0  5  0  0  0  0  0  0  0  0  0  0
    9.0581   -2.2810    2.4053 O   0  0  0  0  0  0  0  0  0  0  0  0
   10.4876   -0.0186   -2.7596 C   0  0  2  0  0  0  0  0  0  0  0  0
   11.8116   -0.3499   -2.3034 O   0  0  0  0  0  0  0  0  0  0  0  0
   10.4854    1.3417   -3.5030 C   0  0  2  0  0  0  0  0  0  0  0  0
   11.4195    1.2948   -4.6341 O   0  0  0  0  0  0  0  0  0  0  0  0
   10.9267    2.4386   -2.5160 C   0  0  1  0  0  0  0  0  0  0  0  0
   10.9280    3.7110   -3.1745 O   0  0  0  0  0  0  0  0  0  0  0  0
    9.9310    2.4608   -1.3457 C   0  0  2  0  0  0  0  0  0  0  0  0
   10.3296    3.4750   -0.3985 O   0  0  0  0  0  0  0  0  0  0  0  0
    9.9425    1.0649   -0.6635 C   0  0  2  0  0  0  0  0  0  0  0  0
    9.5584    0.0361   -1.6264 O   0  0  0  0  0  0  0  0  0  0  0  0
    8.9226    1.0683    0.4897 C   0  0  0  0  0  0  0  0  0  0  0  0
    9.3599    0.2130    1.5529 O   0  0  0  0  0  0  0  0  0  0  0  0
  1  2  1  6  0  0  0
  1  3  1  0  0  0  0
  1  4  2  0  0  0  0
  1 16  1  0  0  0  0
  5  6  1  1  0  0  0
  5  7  1  0  0  0  0
  5 14  1  0  0  0  0
  7  8  1  6  0  0  0
  7  9  1  0  0  0  0
  9 10  1  6  0  0  0
  9 11  1  0  0  0  0
 11 12  1  1  0  0  0
 11 13  1  0  0  0  0
 13 14  1  0  0  0  0
 13 15  1  1  0  0  0
 15 16  1  0  0  0  0
M  CHG  1   3  -1
M  END
>  <CHROM.1>
-147.93568259,-75.76697250,-38.98203754,9.96171918,0.44981685,-0.87268399
-2.49359586,1.16071964,-0.00423404

>  <Name>
ligand

>  <RI>
0

>  <Rbt.Current_Directory>
/home/itssahil/PROJECTS/Mol_Feturizer/New_Systems/rnas/2HO7

>  <Rbt.Executable>
rbdock ($Id: //depot/dev/client3/rdock/2013.1/src/exe/rbdock.cxx#4 $)

>  <Rbt.Library>
libRbt.so (2013.1, Build901 2013/11/27)

>  <Rbt.Parameter_File>
/export/apps/rDock/src/rDock_2013.1_src/data/scripts/dock_solv.prm

>  <Rbt.Receptor>
prm/blind_docking_60.prm

>  <SCORE>
-18.5616

>  <SCORE.INTER>
-22.9035

>  <SCORE.INTER.CONST>
1

>  <SCORE.INTER.POLAR>
-2.54558

>  <SCORE.INTER.ROT>
3

>  <SCORE.INTER.SOLV>
17.1633

>  <SCORE.INTER.VDW>
-18.1048

>  <SCORE.INTER.norm>
-1.43147

>  <SCORE.INTRA>
4.34188

>  <SCORE.INTRA.DIHEDRAL>
4.72761

>  <SCORE.INTRA.DIHEDRAL.0>
0.00893466

>  <SCORE.INTRA.POLAR>
0

>  <SCORE.INTRA.POLAR.0>
0

>  <SCORE.INTRA.REPUL>
0

>  <SCORE.INTRA.REPUL.0>
0

>  <SCORE.INTRA.SOLV>
3.8173

>  <SCORE.INTRA.SOLV.lig_0>
-48.9722

>  <SCORE.INTRA.VDW>
0.0694271

>  <SCORE.INTRA.VDW.0>
-0.529409

>  <SCORE.INTRA.norm>
0.271368

>  <SCORE.RESTR>
0

>  <SCORE.RESTR.CAVITY>
0

>  <SCORE.RESTR.norm>
0

>  <SCORE.SYSTEM>
0

>  <SCORE.SYSTEM.CONST>
0

>  <SCORE.SYSTEM.DIHEDRAL>
0

>  <SCORE.SYSTEM.SOLV>
0

>  <SCORE.SYSTEM.norm>
0

>  <SCORE.heavy>
16

>  <SCORE.norm>
-1.1601

>  <RMSD>
40.626

$$$$
ligand
 OpenBabel11021811433D
libRbt.so/2013.1/901 2013/11/27
 16 16  0  0  0  0  0  0  0  0999 V2000
    9.9553    1.4434   -1.3806 P   0  0  2  0  0  0  0  0  0  0  0  0
    9.7720    2.5175   -2.3880 O   0  0  0  0  0  0  0  0  0  0  0  0
    8.5266    0.7873   -1.0365 O   0  5  0  0  0  0  0  0  0  0  0  0
   10.5821    2.0866   -0.0439 O   0  0  0  0  0  0  0  0  0  0  0  0
   13.2662   -3.3320   -2.6111 C   0  0  2  0  0  0  0  0  0  0  0  0
   12.7393   -3.3872   -3.9490 O   0  0  0  0  0  0  0  0  0  0  0  0
   12.8536   -4.5896   -1.8042 C   0  0  2  0  0  0  0  0  0  0  0  0
   13.3229   -5.7996   -2.4895 O   0  0  0  0  0  0  0  0  0  0  0  0
   11.3172   -4.6205   -1.6994 C   0  0  1  0  0  0  0  0  0  0  0  0
   10.9056   -5.7710   -0.9515 O   0  0  0  0  0  0  0  0  0  0  0  0
   10.8590   -3.3423   -0.9799 C   0  0  2  0  0  0  0  0  0  0  0  0
    9.4186   -3.3412   -0.8789 O   0  0  0  0  0  0  0  0  0  0  0  0
   11.3330   -2.1153   -1.8068 C   0  0  2  0  0  0  0  0  0  0  0  0
   12.7886   -2.1265   -1.9261 O   0  0  0  0  0  0  0  0  0  0  0  0
   10.9067   -0.8296   -1.0751 C   0  0  0  0  0  0  0  0  0  0  0  0
   10.9413    0.2928   -1.9650 O   0  0  0  0  0  0  0  0  0  0  0  0
  1  2  1  6  0  0  0
  1  3  1  0  0  0  0
  1  4  2  0  0  0  0
  1 16  1  0  0  0  0
  5  6  1  6  0  0  0
  5  7  1  0  0  0  0
  5 14  1  0  0  0  0
  7  8  1  6  0  0  0
  7  9  1  0  0  0  0
  9 10  1  1  0  0  0
  9 11  1  0  0  0  0
 11 12  1  6  0  0  0
 11 13  1  0  0  0  0
 13 14  1  0  0  0  0
 13 15  1  1  0  0  0
 15 16  1  0  0  0  0
M  CHG  1   3  -1
M  END
>  <CHROM.1>
-162.09470972,157.34110178,-169.84908261,11.10448367,-1.72033154,-1.66782249
-2.00300474,-0.57983873,3.01255817

>  <Name>
ligand

>  <RI>
0

>  <Rbt.Current_Directory>
/home/itssahil/PROJECTS/Mol_Feturizer/New_Systems/rnas/2HO7

>  <Rbt.Executable>
rbdock ($Id: //depot/dev/client3/rdock/2013.1/src/exe/rbdock.cxx#4 $)

>  <Rbt.Library>
libRbt.so (2013.1, Build901 2013/11/27)

>  <Rbt.Parameter_File>
/export/apps/rDock/src/rDock_2013.1_src/data/scripts/dock_solv.prm

>  <Rbt.Receptor>
prm/blind_docking_100.prm

>  <SCORE>
-9.19693

>  <SCORE.INTER>
-11.1846

>  <SCORE.INTER.CONST>
1

>  <SCORE.INTER.POLAR>
-1.59099

>  <SCORE.INTER.ROT>
3

>  <SCORE.INTER.SOLV>
16.1627

>  <SCORE.INTER.VDW>
-13.1407

>  <SCORE.INTER.norm>
-0.699035

>  <SCORE.INTRA>
1.98763

>  <SCORE.INTRA.DIHEDRAL>
3.48229

>  <SCORE.INTRA.DIHEDRAL.0>
0.00893466

>  <SCORE.INTRA.POLAR>
0

>  <SCORE.INTRA.POLAR.0>
0

>  <SCORE.INTRA.REPUL>
0

>  <SCORE.INTRA.REPUL.0>
0

>  <SCORE.INTRA.SOLV>
0.739045

>  <SCORE.INTRA.SOLV.lig_0>
-48.9722

>  <SCORE.INTRA.VDW>
-0.123037

>  <SCORE.INTRA.VDW.0>
-0.529409

>  <SCORE.INTRA.norm>
0.124227

>  <SCORE.RESTR>
0

>  <SCORE.RESTR.CAVITY>
0

>  <SCORE.RESTR.norm>
0

>  <SCORE.SYSTEM>
0

>  <SCORE.SYSTEM.CONST>
0

>  <SCORE.SYSTEM.DIHEDRAL>
0

>  <SCORE.SYSTEM.SOLV>
0

>  <SCORE.SYSTEM.norm>
0

>  <SCORE.heavy>
16

>  <SCORE.norm>
-0.574808

>  <RMSD>
40.629

$$$$
ligand
 OpenBabel11021811433D
libRbt.so/2013.1/901 2013/11/27
 16 16  0  0  0  0  0  0  0  0999 V2000
   10.6844   -2.8592   -0.6014 P   0  0  2  0  0  0  0  0  0  0  0  0
   11.3181   -2.7719    0.7377 O   0  0  0  0  0  0  0  0  0  0  0  0
   10.3398   -4.3969   -0.9276 O   0  5  0  0  0  0  0  0  0  0  0  0
   11.7180   -2.2996   -1.7023 O   0  0  0  0  0  0  0  0  0  0  0  0
   10.2144    0.4500   -3.7773 C   0  0  2  0  0  0  0  0  0  0  0  0
   11.6106    0.1276   -3.9097 O   0  0  0  0  0  0  0  0  0  0  0  0
   10.0160    1.9773   -3.6010 C   0  0  2  0  0  0  0  0  0  0  0  0
   10.6005    2.6924   -4.7417 O   0  0  0  0  0  0  0  0  0  0  0  0
   10.7208    2.4149   -2.3032 C   0  0  1  0  0  0  0  0  0  0  0  0
   10.5487    3.8239   -2.1098 O   0  0  0  0  0  0  0  0  0  0  0  0
   10.0879    1.6488   -1.1311 C   0  0  2  0  0  0  0  0  0  0  0  0
   10.7400    2.0332    0.0985 O   0  0  0  0  0  0  0  0  0  0  0  0
   10.2780    0.1267   -1.3782 C   0  0  2  0  0  0  0  0  0  0  0  0
    9.6354   -0.2591   -2.6318 O   0  0  0  0  0  0  0  0  0  0  0  0
    9.6170   -0.6493   -0.2245 C   0  0  0  0  0  0  0  0  0  0  0  0
    9.3126   -1.9902   -0.6271 O   0  0  0  0  0  0  0  0  0  0  0  0
  1  2  1  1  0  0  0
  1  3  1  0  0  0  0
  1  4  2  0  0  0  0
  1 16  1  0  0  0  0
  5  6  1  1  0  0  0
  5  7  1  0  0  0  0
  5 14  1  0  0  0  0
  7  8  1  6  0  0  0
  7  9  1  0  0  0  0
  9 10  1  1  0  0  0
  9 11  1  0  0  0  0
 11 12  1  1  0  0  0
 11 13  1  0  0  0  0
 13 14  1  0  0  0  0
 13 15  1  1  0  0  0
 15 16  1  0  0  0  0
M  CHG  1   3  -1
M  END
>  <CHROM.1>
158.10129312,77.46434854,55.21446015,10.49648222,-0.23675887,-1.70608485
-1.39032842,1.47093625,-0.61107034

>  <Name>
ligand

>  <RI>
0

>  <Rbt.Current_Directory>
/home/itssahil/PROJECTS/Mol_Feturizer/New_Systems/rnas/2HO7

>  <Rbt.Executable>
rbdock ($Id: //depot/dev/client3/rdock/2013.1/src/exe/rbdock.cxx#4 $)

>  <Rbt.Library>
libRbt.so (2013.1, Build901 2013/11/27)

>  <Rbt.Parameter_File>
/export/apps/rDock/src/rDock_2013.1_src/data/scripts/dock_solv.prm

>  <Rbt.Receptor>
prm/blind_docking_100.prm

>  <SCORE>
-14.8409

>  <SCORE.INTER>
-17.9378

>  <SCORE.INTER.CONST>
1

>  <SCORE.INTER.POLAR>
-2.54558

>  <SCORE.INTER.ROT>
3

>  <SCORE.INTER.SOLV>
15.6505

>  <SCORE.INTER.VDW>
-14.2901

>  <SCORE.INTER.norm>
-1.12111

>  <SCORE.INTRA>
3.09691

>  <SCORE.INTRA.DIHEDRAL>
2.98703

>  <SCORE.INTRA.DIHEDRAL.0>
0.00893466

>  <SCORE.INTRA.POLAR>
0

>  <SCORE.INTRA.POLAR.0>
0

>  <SCORE.INTRA.REPUL>
0

>  <SCORE.INTRA.REPUL.0>
0

>  <SCORE.INTRA.SOLV>
3.42868

>  <SCORE.INTRA.SOLV.lig_0>
-48.9722

>  <SCORE.INTRA.VDW>
-0.110952

>  <SCORE.INTRA.VDW.0>
-0.529409

>  <SCORE.INTRA.norm>
0.193557

>  <SCORE.RESTR>
0

>  <SCORE.RESTR.CAVITY>
0

>  <SCORE.RESTR.norm>
0

>  <SCORE.SYSTEM>
0

>  <SCORE.SYSTEM.CONST>
0

>  <SCORE.SYSTEM.DIHEDRAL>
0

>  <SCORE.SYSTEM.SOLV>
0

>  <SCORE.SYSTEM.norm>
0

>  <SCORE.heavy>
16

>  <SCORE.norm>
-0.927557

>  <RMSD>
40.629

$$$$
ligand
 OpenBabel11021811433D
libRbt.so/2013.1/901 2013/11/27
 16 16  0  0  0  0  0  0  0  0999 V2000
    9.1164   -1.3308    1.1265 P   0  0  2  0  0  0  0  0  0  0  0  0
   10.1885   -1.7647    0.1967 O   0  0  0  0  0  0  0  0  0  0  0  0
    9.1310   -2.2721    2.4317 O   0  5  0  0  0  0  0  0  0  0  0  0
    7.6951   -1.4731    0.3828 O   0  0  0  0  0  0  0  0  0  0  0  0
   10.4878   -0.0410   -2.7236 C   0  0  2  0  0  0  0  0  0  0  0  0
   11.8155   -0.3580   -2.2684 O   0  0  0  0  0  0  0  0  0  0  0  0
   10.4733    1.3112   -3.4815 C   0  0  2  0  0  0  0  0  0  0  0  0
   11.4042    1.2590   -4.6150 O   0  0  0  0  0  0  0  0  0  0  0  0
   10.9100    2.4218   -2.5076 C   0  0  1  0  0  0  0  0  0  0  0  0
   10.9000    3.6870   -3.1796 O   0  0  0  0  0  0  0  0  0  0  0  0
    9.9180    2.4492   -1.3344 C   0  0  2  0  0  0  0  0  0  0  0  0
   10.3123    3.4763   -0.3992 O   0  0  0  0  0  0  0  0  0  0  0  0
    9.9416    1.0608   -0.6374 C   0  0  2  0  0  0  0  0  0  0  0  0
    9.5618    0.0190   -1.5881 O   0  0  0  0  0  0  0  0  0  0  0  0
    8.9255    1.0691    0.5191 C   0  0  0  0  0  0  0  0  0  0  0  0
    9.3606    0.2096    1.5797 O   0  0  0  0  0  0  0  0  0  0  0  0
  1  2  1  6  0  0  0
  1  3  1  0  0  0  0
  1  4  2  0  0  0  0
  1 16  1  0  0  0  0
  5  6  1  1  0  0  0
  5  7  1  0  0  0  0
  5 14  1  0  0  0  0
  7  8  1  6  0  0  0
  7  9  1  0  0  0  0
  9 10  1  6  0  0  0
  9 11  1  0  0  0  0
 11 12  1  1  0  0  0
 11 13  1  0  0  0  0
 13 14  1  0  0  0  0
 13 15  1  1  0  0  0
 15 16  1  0  0  0  0
M  CHG  1   3  -1
M  END
>  <CHROM.1>
-148.97533934,-75.17719814,78.48892521,9.94488518,0.44105046,-0.85115929
-2.50771779,1.16390861,0.00750630

>  <Name>
ligand

>  <RI>
0

>  <Rbt.Current_Directory>
/home/itssahil/PROJECTS/Mol_Feturizer/New_Systems/rnas/2HO7

>  <Rbt.Executable>
rbdock ($Id: //depot/dev/client3/rdock/2013.1/src/exe/rbdock.cxx#4 $)

>  <Rbt.Library>
libRbt.so (2013.1, Build901 2013/11/27)

>  <Rbt.Parameter_File>
/export/apps/rDock/src/rDock_2013.1_src/data/scripts/dock_solv.prm

>  <Rbt.Receptor>
prm/blind_docking_40.prm

>  <SCORE>
-19.5488

>  <SCORE.INTER>
-22.9973

>  <SCORE.INTER.CONST>
1

>  <SCORE.INTER.POLAR>
-2.86378

>  <SCORE.INTER.ROT>
3

>  <SCORE.INTER.SOLV>
20.4093

>  <SCORE.INTER.VDW>
-18.1887

>  <SCORE.INTER.norm>
-1.43733

>  <SCORE.INTRA>
3.44853

>  <SCORE.INTRA.DIHEDRAL>
4.36751

>  <SCORE.INTRA.DIHEDRAL.0>
0.00893466

>  <SCORE.INTRA.POLAR>
0

>  <SCORE.INTRA.POLAR.0>
0

>  <SCORE.INTRA.REPUL>
0

>  <SCORE.INTRA.REPUL.0>
0

>  <SCORE.INTRA.SOLV>
2.57411

>  <SCORE.INTRA.SOLV.lig_0>
-48.9722

>  <SCORE.INTRA.VDW>
-0.0222838

>  <SCORE.INTRA.VDW.0>
-0.529409

>  <SCORE.INTRA.norm>
0.215533

>  <SCORE.RESTR>
0

>  <SCORE.RESTR.CAVITY>
0

>  <SCORE.RESTR.norm>
0

>  <SCORE.SYSTEM>
0

>  <SCORE.SYSTEM.CONST>
0

>  <SCORE.SYSTEM.DIHEDRAL>
0

>  <SCORE.SYSTEM.SOLV>
0

>  <SCORE.SYSTEM.norm>
0

>  <SCORE.heavy>
16

>  <SCORE.norm>
-1.2218

>  <RMSD>
40.631

$$$$
ligand
 OpenBabel11021811433D
libRbt.so/2013.1/901 2013/11/27
 16 16  0  0  0  0  0  0  0  0999 V2000
    9.1107   -1.3568    1.1563 P   0  0  2  0  0  0  0  0  0  0  0  0
    9.0732   -2.2211    2.3621 O   0  0  0  0  0  0  0  0  0  0  0  0
    7.7069   -1.4691    0.3775 O   0  5  0  0  0  0  0  0  0  0  0  0
   10.2971   -1.8625    0.1918 O   0  0  0  0  0  0  0  0  0  0  0  0
   10.5078   -0.0497   -2.7179 C   0  0  2  0  0  0  0  0  0  0  0  0
   11.8358   -0.3538   -2.2547 O   0  0  0  0  0  0  0  0  0  0  0  0
   10.4840    1.3045   -3.4720 C   0  0  2  0  0  0  0  0  0  0  0  0
   11.4228    1.2655   -4.5995 O   0  0  0  0  0  0  0  0  0  0  0  0
   10.9023    2.4168   -2.4921 C   0  0  1  0  0  0  0  0  0  0  0  0
   10.8832    3.6838   -3.1605 O   0  0  0  0  0  0  0  0  0  0  0  0
    9.9023    2.4303   -1.3254 C   0  0  2  0  0  0  0  0  0  0  0  0
   10.2794    3.4588   -0.3848 O   0  0  0  0  0  0  0  0  0  0  0  0
    9.9361    1.0402   -0.6322 C   0  0  2  0  0  0  0  0  0  0  0  0
    9.5738   -0.0028   -1.5883 O   0  0  0  0  0  0  0  0  0  0  0  0
    8.9123    1.0343    0.5175 C   0  0  0  0  0  0  0  0  0  0  0  0
    9.3578    0.1898    1.5859 O   0  0  0  0  0  0  0  0  0  0  0  0
  1  2  1  1  0  0  0
  1  3  1  0  0  0  0
  1  4  2  0  0  0  0
  1 16  1  0  0  0  0
  5  6  1  1  0  0  0
  5  7  1  0  0  0  0
  5 14  1  0  0  0  0
  7  8  1  6  0  0  0
  7  9  1  0  0  0  0
  9 10  1  6  0  0  0
  9 11  1  0  0  0  0
 11 12  1  1  0  0  0
 11 13  1  0  0  0  0
 13 14  1  0  0  0  0
 13 15  1  1  0  0  0
 15 16  1  0  0  0  0
M  CHG  1   3  -1
M  END
>  <CHROM.1>
-148.23506667,-76.69059381,-159.14348150,9.94738426,0.42693089,-0.84600845
-2.47199511,1.15015947,-0.02949797

>  <Name>
ligand

>  <RI>
0

>  <Rbt.Current_Directory>
/home/itssahil/PROJECTS/Mol_Feturizer/New_Systems/rnas/2HO7

>  <Rbt.Executable>
rbdock ($Id: //depot/dev/client3/rdock/2013.1/src/exe/rbdock.cxx#4 $)

>  <Rbt.Library>
libRbt.so (2013.1, Build901 2013/11/27)

>  <Rbt.Parameter_File>
/export/apps/rDock/src/rDock_2013.1_src/data/scripts/dock_solv.prm

>  <Rbt.Receptor>
prm/blind_docking_80.prm

>  <SCORE>
-19.445

>  <SCORE.INTER>
-24.5185

>  <SCORE.INTER.CONST>
1

>  <SCORE.INTER.POLAR>
-2.86378

>  <SCORE.INTER.ROT>
3

>  <SCORE.INTER.SOLV>
17.0608

>  <SCORE.INTER.VDW>
-18.0867

>  <SCORE.INTER.norm>
-1.53241

>  <SCORE.INTRA>
5.06352

>  <SCORE.INTRA.DIHEDRAL>
4.80818

>  <SCORE.INTRA.DIHEDRAL.0>
0.00893466

>  <SCORE.INTRA.POLAR>
0

>  <SCORE.INTRA.POLAR.0>
0

>  <SCORE.INTRA.REPUL>
0

>  <SCORE.INTRA.REPUL.0>
0

>  <SCORE.INTRA.SOLV>
5.67108

>  <SCORE.INTRA.SOLV.lig_0>
-48.9722

>  <SCORE.INTRA.VDW>
-0.176104

>  <SCORE.INTRA.VDW.0>
-0.529409

>  <SCORE.INTRA.norm>
0.31647

>  <SCORE.RESTR>
0.00992681

>  <SCORE.RESTR.CAVITY>
0.00992681

>  <SCORE.RESTR.norm>
0.000620425

>  <SCORE.SYSTEM>
0

>  <SCORE.SYSTEM.CONST>
0

>  <SCORE.SYSTEM.DIHEDRAL>
0

>  <SCORE.SYSTEM.SOLV>
0

>  <SCORE.SYSTEM.norm>
0

>  <SCORE.heavy>
16

>  <SCORE.norm>
-1.21531

>  <RMSD>
40.632

$$$$
ligand
 OpenBabel11021811433D
libRbt.so/2013.1/901 2013/11/27
 16 16  0  0  0  0  0  0  0  0999 V2000
    9.0377   -1.2993    1.1265 P   0  0  2  0  0  0  0  0  0  0  0  0
    7.7659   -1.4595    0.3788 O   0  0  0  0  0  0  0  0  0  0  0  0
   10.2651   -1.7600    0.1932 O   0  5  0  0  0  0  0  0  0  0  0  0
    8.9886   -2.2297    2.4400 O   0  0  0  0  0  0  0  0  0  0  0  0
   10.5208    0.0075   -2.7322 C   0  0  2  0  0  0  0  0  0  0  0  0
   11.8304   -0.3092   -2.2268 O   0  0  0  0  0  0  0  0  0  0  0  0
   10.5317    1.3667   -3.4775 C   0  0  2  0  0  0  0  0  0  0  0  0
   11.5075    1.3283   -4.5732 O   0  0  0  0  0  0  0  0  0  0  0  0
   10.9246    2.4695   -2.4767 C   0  0  1  0  0  0  0  0  0  0  0  0
   10.9368    3.7409   -3.1368 O   0  0  0  0  0  0  0  0  0  0  0  0
    9.8861    2.4826   -1.3441 C   0  0  2  0  0  0  0  0  0  0  0  0
   10.2386    3.5022   -0.3844 O   0  0  0  0  0  0  0  0  0  0  0  0
    9.8870    1.0878   -0.6596 C   0  0  2  0  0  0  0  0  0  0  0  0
    9.5498    0.0537   -1.6343 O   0  0  0  0  0  0  0  0  0  0  0  0
    8.8252    1.0818    0.4552 C   0  0  0  0  0  0  0  0  0  0  0  0
    9.2451    0.2554    1.5478 O   0  0  0  0  0  0  0  0  0  0  0  0
  1  2  1  6  0  0  0
  1  3  1  0  0  0  0
  1  4  2  0  0  0  0
  1 16  1  0  0  0  0
  5  6  1  1  0  0  0
  5  7  1  0  0  0  0
  5 14  1  0  0  0  0
  7  8  1  6  0  0  0
  7  9  1  0  0  0  0
  9 10  1  6  0  0  0
  9 11  1  0  0  0  0
 11 12  1  1  0  0  0
 11 13  1  0  0  0  0
 13 14  1  0  0  0  0
 13 15  1  1  0  0  0
 15 16  1  0  0  0  0
M  CHG  1   3  -1
M  END
>  <CHROM.1>
-146.68467317,-76.46885778,-40.04918005,9.92815908,0.47779590,-0.85097155
-2.46483512,1.12801742,-0.03966293

>  <Name>
ligand

>  <RI>
0

>  <Rbt.Current_Directory>
/home/itssahil/PROJECTS/Mol_Feturizer/New_Systems/rnas/2HO7

>  <Rbt.Executable>
rbdock ($Id: //depot/dev/client3/rdock/2013.1/src/exe/rbdock.cxx#4 $)

>  <Rbt.Library>
libRbt.so (2013.1, Build901 2013/11/27)

>  <Rbt.Parameter_File>
/export/apps/rDock/src/rDock_2013.1_src/data/scripts/dock_solv.prm

>  <Rbt.Receptor>
prm/blind_docking_80.prm

>  <SCORE>
-18.7177

>  <SCORE.INTER>
-23.0987

>  <SCORE.INTER.CONST>
1

>  <SCORE.INTER.POLAR>
-2.54558

>  <SCORE.INTER.ROT>
3

>  <SCORE.INTER.SOLV>
17.6656

>  <SCORE.INTER.VDW>
-18.4024

>  <SCORE.INTER.norm>
-1.44367

>  <SCORE.INTRA>
4.36452

>  <SCORE.INTRA.DIHEDRAL>
4.93882

>  <SCORE.INTRA.DIHEDRAL.0>
0.00893466

>  <SCORE.INTRA.POLAR>
0

>  <SCORE.INTRA.POLAR.0>
0

>  <SCORE.INTRA.REPUL>
0

>  <SCORE.INTRA.REPUL.0>
0

>  <SCORE.INTRA.SOLV>
3.77974

>  <SCORE.INTRA.SOLV.lig_0>
-48.9722

>  <SCORE.INTRA.VDW>
0.00524682

>  <SCORE.INTRA.VDW.0>
-0.529409

>  <SCORE.INTRA.norm>
0.272783

>  <SCORE.RESTR>
0.0164722

>  <SCORE.RESTR.CAVITY>
0.0164722

>  <SCORE.RESTR.norm>
0.00102951

>  <SCORE.SYSTEM>
0

>  <SCORE.SYSTEM.CONST>
0

>  <SCORE.SYSTEM.DIHEDRAL>
0

>  <SCORE.SYSTEM.SOLV>
0

>  <SCORE.SYSTEM.norm>
0

>  <SCORE.heavy>
16

>  <SCORE.norm>
-1.16985

>  <RMSD>
40.640

$$$$
ligand
 OpenBabel11021811433D
libRbt.so/2013.1/901 2013/11/27
 16 16  0  0  0  0  0  0  0  0999 V2000
    9.0556   -1.3482    1.0893 P   0  0  2  0  0  0  0  0  0  0  0  0
    7.7523   -1.4266    0.3839 O   0  0  0  0  0  0  0  0  0  0  0  0
   10.2268   -1.8345    0.0986 O   0  5  0  0  0  0  0  0  0  0  0  0
    9.0090   -2.3168    2.3751 O   0  0  0  0  0  0  0  0  0  0  0  0
   10.4911   -0.0261   -2.7471 C   0  0  2  0  0  0  0  0  0  0  0  0
   11.8179   -0.3472   -2.2921 O   0  0  0  0  0  0  0  0  0  0  0  0
   10.4785    1.3317   -3.4948 C   0  0  2  0  0  0  0  0  0  0  0  0
   11.4111    1.2875   -4.6273 O   0  0  0  0  0  0  0  0  0  0  0  0
   10.9142    2.4347   -2.5120 C   0  0  1  0  0  0  0  0  0  0  0  0
   10.9059    3.7049   -3.1745 O   0  0  0  0  0  0  0  0  0  0  0  0
    9.9203    2.4539   -1.3401 C   0  0  2  0  0  0  0  0  0  0  0  0
   10.3137    3.4738   -0.3968 O   0  0  0  0  0  0  0  0  0  0  0  0
    9.9422    1.0603   -0.6535 C   0  0  2  0  0  0  0  0  0  0  0  0
    9.5634    0.0259   -1.6125 O   0  0  0  0  0  0  0  0  0  0  0  0
    8.9242    1.0605    0.5014 C   0  0  0  0  0  0  0  0  0  0  0  0
    9.3498    0.1812    1.5496 O   0  0  0  0  0  0  0  0  0  0  0  0
  1  2  1  6  0  0  0
  1  3  1  0  0  0  0
  1  4  2  0  0  0  0
  1 16  1  0  0  0  0
  5  6  1  1  0  0  0
  5  7  1  0  0  0  0
  5 14  1  0  0  0  0
  7  8  1  6  0  0  0
  7  9  1  0  0  0  0
  9 10  1  6  0  0  0
  9 11  1  0  0  0  0
 11 12  1  1  0  0  0
 11 13  1  0  0  0  0
 13 14  1  0  0  0  0
 13 15  1  1  0  0  0
 15 16  1  0  0  0  0
M  CHG  1   3  -1
M  END
>  <CHROM.1>
-149.63083647,-76.67572894,-39.73233760,9.93700126,0.43894324,-0.87480631
-2.50167406,1.15288402,0.00794837

>  <Name>
ligand

>  <RI>
0

>  <Rbt.Current_Directory>
/home/itssahil/PROJECTS/Mol_Feturizer/New_Systems/rnas/2HO7

>  <Rbt.Executable>
rbdock ($Id: //depot/dev/client3/rdock/2013.1/src/exe/rbdock.cxx#4 $)

>  <Rbt.Library>
libRbt.so (2013.1, Build901 2013/11/27)

>  <Rbt.Parameter_File>
/export/apps/rDock/src/rDock_2013.1_src/data/scripts/dock_solv.prm

>  <Rbt.Receptor>
prm/blind_docking_20.prm

>  <SCORE>
-18.7388

>  <SCORE.INTER>
-23.0658

>  <SCORE.INTER.CONST>
1

>  <SCORE.INTER.POLAR>
-2.54366

>  <SCORE.INTER.ROT>
3

>  <SCORE.INTER.SOLV>
17.4695

>  <SCORE.INTER.VDW>
-18.3215

>  <SCORE.INTER.norm>
-1.44161

>  <SCORE.INTRA>
4.32695

>  <SCORE.INTRA.DIHEDRAL>
4.58089

>  <SCORE.INTRA.DIHEDRAL.0>
0.00893466

>  <SCORE.INTRA.POLAR>
0

>  <SCORE.INTRA.POLAR.0>
0

>  <SCORE.INTRA.REPUL>
0

>  <SCORE.INTRA.REPUL.0>
0

>  <SCORE.INTRA.SOLV>
3.83766

>  <SCORE.INTRA.SOLV.lig_0>
-48.9722

>  <SCORE.INTRA.VDW>
0.117674

>  <SCORE.INTRA.VDW.0>
-0.529409

>  <SCORE.INTRA.norm>
0.270434

>  <SCORE.RESTR>
0

>  <SCORE.RESTR.CAVITY>
0

>  <SCORE.RESTR.norm>
0

>  <SCORE.SYSTEM>
0

>  <SCORE.SYSTEM.CONST>
0

>  <SCORE.SYSTEM.DIHEDRAL>
0

>  <SCORE.SYSTEM.SOLV>
0

>  <SCORE.SYSTEM.norm>
0

>  <SCORE.heavy>
16

>  <SCORE.norm>
-1.17118

>  <RMSD>
40.649

$$$$
ligand
 OpenBabel11021811433D
libRbt.so/2013.1/901 2013/11/27
 16 16  0  0  0  0  0  0  0  0999 V2000
    9.9631    1.4429   -1.3420 P   0  0  2  0  0  0  0  0  0  0  0  0
    9.7316    2.3774   -2.4713 O   0  0  0  0  0  0  0  0  0  0  0  0
    8.5786    0.7171   -0.9598 O   0  5  0  0  0  0  0  0  0  0  0  0
   10.4926    2.2822   -0.0737 O   0  0  0  0  0  0  0  0  0  0  0  0
   13.3489   -2.9173   -2.9499 C   0  0  2  0  0  0  0  0  0  0  0  0
   13.1362   -3.5080   -4.2447 O   0  0  0  0  0  0  0  0  0  0  0  0
   12.8424   -3.8570   -1.8257 C   0  0  2  0  0  0  0  0  0  0  0  0
   13.5227   -5.1544   -1.9143 O   0  0  0  0  0  0  0  0  0  0  0  0
   11.3257   -4.0578   -2.0033 C   0  0  1  0  0  0  0  0  0  0  0  0
   10.8270   -4.9186   -0.9724 O   0  0  0  0  0  0  0  0  0  0  0  0
   10.6446   -2.6837   -1.9068 C   0  0  2  0  0  0  0  0  0  0  0  0
    9.2202   -2.8431   -2.0817 O   0  0  0  0  0  0  0  0  0  0  0  0
   11.2170   -1.7711   -3.0263 C   0  0  2  0  0  0  0  0  0  0  0  0
   12.6609   -1.6253   -2.8614 O   0  0  0  0  0  0  0  0  0  0  0  0
   10.5639   -0.3814   -2.9156 C   0  0  0  0  0  0  0  0  0  0  0  0
   11.0544    0.3167   -1.7645 O   0  0  0  0  0  0  0  0  0  0  0  0
  1  2  1  6  0  0  0
  1  3  1  0  0  0  0
  1  4  2  0  0  0  0
  1 16  1  0  0  0  0
  5  6  1  6  0  0  0
  5  7  1  0  0  0  0
  5 14  1  0  0  0  0
  7  8  1  6  0  0  0
  7  9  1  0  0  0  0
  9 10  1  1  0  0  0
  9 11  1  0  0  0  0
 11 12  1  6  0  0  0
 11 13  1  0  0  0  0
 13 14  1  0  0  0  0
 13 15  1  1  0  0  0
 15 16  1  0  0  0  0
M  CHG  1   3  -1
M  END
>  <CHROM.1>
71.57025221,-157.16392087,-58.39877310,11.08797848,-1.40646860,-2.01673237
-2.07180945,-0.54914438,3.03886786

>  <Name>
ligand

>  <RI>
0

>  <Rbt.Current_Directory>
/home/itssahil/PROJECTS/Mol_Feturizer/New_Systems/rnas/2HO7

>  <Rbt.Executable>
rbdock ($Id: //depot/dev/client3/rdock/2013.1/src/exe/rbdock.cxx#4 $)

>  <Rbt.Library>
libRbt.so (2013.1, Build901 2013/11/27)

>  <Rbt.Parameter_File>
/export/apps/rDock/src/rDock_2013.1_src/data/scripts/dock_solv.prm

>  <Rbt.Receptor>
prm/blind_docking_80.prm

>  <SCORE>
-15.7159

>  <SCORE.INTER>
-17.4405

>  <SCORE.INTER.CONST>
1

>  <SCORE.INTER.POLAR>
-2.86378

>  <SCORE.INTER.ROT>
3

>  <SCORE.INTER.SOLV>
17.7043

>  <SCORE.INTER.VDW>
-13.5825

>  <SCORE.INTER.norm>
-1.09003

>  <SCORE.INTRA>
1.72464

>  <SCORE.INTRA.DIHEDRAL>
2.74527

>  <SCORE.INTRA.DIHEDRAL.0>
0.00893466

>  <SCORE.INTRA.POLAR>
0

>  <SCORE.INTRA.POLAR.0>
0

>  <SCORE.INTRA.REPUL>
0

>  <SCORE.INTRA.REPUL.0>
0

>  <SCORE.INTRA.SOLV>
1.0948

>  <SCORE.INTRA.SOLV.lig_0>
-48.9722

>  <SCORE.INTRA.VDW>
-0.195392

>  <SCORE.INTRA.VDW.0>
-0.529409

>  <SCORE.INTRA.norm>
0.10779

>  <SCORE.RESTR>
0

>  <SCORE.RESTR.CAVITY>
0

>  <SCORE.RESTR.norm>
0

>  <SCORE.SYSTEM>
0

>  <SCORE.SYSTEM.CONST>
0

>  <SCORE.SYSTEM.DIHEDRAL>
0

>  <SCORE.SYSTEM.SOLV>
0

>  <SCORE.SYSTEM.norm>
0

>  <SCORE.heavy>
16

>  <SCORE.norm>
-0.982241

>  <RMSD>
40.649

$$$$
ligand
 OpenBabel11021811433D
libRbt.so/2013.1/901 2013/11/27
 16 16  0  0  0  0  0  0  0  0999 V2000
    9.9802   -3.5930   -1.1912 P   0  0  2  0  0  0  0  0  0  0  0  0
   10.3583   -4.9053   -1.7717 O   0  0  0  0  0  0  0  0  0  0  0  0
    8.8926   -3.8197   -0.0270 O   0  5  0  0  0  0  0  0  0  0  0  0
    9.3372   -2.6784   -2.3504 O   0  0  0  0  0  0  0  0  0  0  0  0
    9.8632    1.0083   -0.3761 C   0  0  2  0  0  0  0  0  0  0  0  0
    8.5993    0.7416   -1.0102 O   0  0  0  0  0  0  0  0  0  0  0  0
   10.6328    2.1237   -1.1288 C   0  0  2  0  0  0  0  0  0  0  0  0
    9.8192    3.3442   -1.1817 O   0  0  0  0  0  0  0  0  0  0  0  0
   10.9231    1.6361   -2.5607 C   0  0  1  0  0  0  0  0  0  0  0  0
   11.6408    2.6458   -3.2802 O   0  0  0  0  0  0  0  0  0  0  0  0
   11.7735    0.3594   -2.4703 C   0  0  2  0  0  0  0  0  0  0  0  0
   12.0504   -0.1255   -3.8018 O   0  0  0  0  0  0  0  0  0  0  0  0
   10.9747   -0.7084   -1.6730 C   0  0  2  0  0  0  0  0  0  0  0  0
   10.6772   -0.2107   -0.3325 O   0  0  0  0  0  0  0  0  0  0  0  0
   11.8337   -1.9800   -1.5490 C   0  0  0  0  0  0  0  0  0  0  0  0
   11.2879   -2.8637   -0.5621 O   0  0  0  0  0  0  0  0  0  0  0  0
  1  2  1  6  0  0  0
  1  3  1  0  0  0  0
  1  4  2  0  0  0  0
  1 16  1  0  0  0  0
  5  6  1  6  0  0  0
  5  7  1  0  0  0  0
  5 14  1  0  0  0  0
  7  8  1  6  0  0  0
  7  9  1  0  0  0  0
  9 10  1  6  0  0  0
  9 11  1  0  0  0  0
 11 12  1  6  0  0  0
 11 13  1  0  0  0  0
 13 14  1  0  0  0  0
 13 15  1  1  0  0  0
 15 16  1  0  0  0  0
M  CHG  1   3  -1
M  END
>  <CHROM.1>
166.01065953,75.56829041,94.51556072,10.47999652,-0.81652412,-1.55286678
1.73003219,-0.78585422,3.11393092

>  <Name>
ligand

>  <RI>
0

>  <Rbt.Current_Directory>
/home/itssahil/PROJECTS/Mol_Feturizer/New_Systems/rnas/2HO7

>  <Rbt.Executable>
rbdock ($Id: //depot/dev/client3/rdock/2013.1/src/exe/rbdock.cxx#4 $)

>  <Rbt.Library>
libRbt.so (2013.1, Build901 2013/11/27)

>  <Rbt.Parameter_File>
/export/apps/rDock/src/rDock_2013.1_src/data/scripts/dock_solv.prm

>  <Rbt.Receptor>
prm/blind_docking_60.prm

>  <SCORE>
-12.4902

>  <SCORE.INTER>
-17.2704

>  <SCORE.INTER.CONST>
1

>  <SCORE.INTER.POLAR>
-2.34277

>  <SCORE.INTER.ROT>
3

>  <SCORE.INTER.SOLV>
17.622

>  <SCORE.INTER.VDW>
-15.1784

>  <SCORE.INTER.norm>
-1.0794

>  <SCORE.INTRA>
4.78023

>  <SCORE.INTRA.DIHEDRAL>
3.27999

>  <SCORE.INTRA.DIHEDRAL.0>
0.00893466

>  <SCORE.INTRA.POLAR>
0

>  <SCORE.INTRA.POLAR.0>
0

>  <SCORE.INTRA.REPUL>
0

>  <SCORE.INTRA.REPUL.0>
0

>  <SCORE.INTRA.SOLV>
3.95921

>  <SCORE.INTRA.SOLV.lig_0>
-48.9722

>  <SCORE.INTRA.VDW>
1.16063

>  <SCORE.INTRA.VDW.0>
-0.529409

>  <SCORE.INTRA.norm>
0.298764

>  <SCORE.RESTR>
0

>  <SCORE.RESTR.CAVITY>
0

>  <SCORE.RESTR.norm>
0

>  <SCORE.SYSTEM>
0

>  <SCORE.SYSTEM.CONST>
0

>  <SCORE.SYSTEM.DIHEDRAL>
0

>  <SCORE.SYSTEM.SOLV>
0

>  <SCORE.SYSTEM.norm>
0

>  <SCORE.heavy>
16

>  <SCORE.norm>
-0.780637

>  <RMSD>
40.650

$$$$
ligand
 OpenBabel11021811433D
libRbt.so/2013.1/901 2013/11/27
 16 16  0  0  0  0  0  0  0  0999 V2000
    9.1039   -1.4127    1.0016 P   0  0  2  0  0  0  0  0  0  0  0  0
    7.7556   -1.4260    0.3819 O   0  0  0  0  0  0  0  0  0  0  0  0
   10.1839   -1.9524   -0.0624 O   0  5  0  0  0  0  0  0  0  0  0  0
    9.0935   -2.3813    2.2882 O   0  0  0  0  0  0  0  0  0  0  0  0
   10.4140    0.0957   -2.9440 C   0  0  2  0  0  0  0  0  0  0  0  0
   11.7437   -0.3078   -2.5701 O   0  0  0  0  0  0  0  0  0  0  0  0
   10.4274    1.5035   -3.5929 C   0  0  2  0  0  0  0  0  0  0  0  0
   11.3113    1.5056   -4.7645 O   0  0  0  0  0  0  0  0  0  0  0  0
   10.9471    2.5151   -2.5542 C   0  0  1  0  0  0  0  0  0  0  0  0
   10.9645    3.8293   -3.1245 O   0  0  0  0  0  0  0  0  0  0  0  0
   10.0026    2.4876   -1.3424 C   0  0  2  0  0  0  0  0  0  0  0  0
   10.4750    3.4209   -0.3471 O   0  0  0  0  0  0  0  0  0  0  0  0
    9.9945    1.0483   -0.7574 C   0  0  2  0  0  0  0  0  0  0  0  0
    9.5354    0.1010   -1.7699 O   0  0  0  0  0  0  0  0  0  0  0  0
    9.0245    1.0040    0.4372 C   0  0  0  0  0  0  0  0  0  0  0  0
    9.5010    0.0995    1.4412 O   0  0  0  0  0  0  0  0  0  0  0  0
  1  2  1  6  0  0  0
  1  3  1  0  0  0  0
  1  4  2  0  0  0  0
  1 16  1  0  0  0  0
  5  6  1  1  0  0  0
  5  7  1  0  0  0  0
  5 14  1  0  0  0  0
  7  8  1  6  0  0  0
  7  9  1  0  0  0  0
  9 10  1  6  0  0  0
  9 11  1  0  0  0  0
 11 12  1  1  0  0  0
 11 13  1  0  0  0  0
 13 14  1  0  0  0  0
 13 15  1  1  0  0  0
 15 16  1  0  0  0  0
M  CHG  1   3  -1
M  END
>  <CHROM.1>
-145.86832285,-80.87492211,-38.41252285,9.96391212,0.45707976,-0.96410205
-2.61520606,1.20104404,0.15814194

>  <Name>
ligand

>  <RI>
0

>  <Rbt.Current_Directory>
/home/itssahil/PROJECTS/Mol_Feturizer/New_Systems/rnas/2HO7

>  <Rbt.Executable>
rbdock ($Id: //depot/dev/client3/rdock/2013.1/src/exe/rbdock.cxx#4 $)

>  <Rbt.Library>
libRbt.so (2013.1, Build901 2013/11/27)

>  <Rbt.Parameter_File>
/export/apps/rDock/src/rDock_2013.1_src/data/scripts/dock_solv.prm

>  <Rbt.Receptor>
prm/blind_docking_20.prm

>  <SCORE>
-18.6924

>  <SCORE.INTER>
-23.1969

>  <SCORE.INTER.CONST>
1

>  <SCORE.INTER.POLAR>
-2.54558

>  <SCORE.INTER.ROT>
3

>  <SCORE.INTER.SOLV>
17.7299

>  <SCORE.INTER.VDW>
-18.4892

>  <SCORE.INTER.norm>
-1.4498

>  <SCORE.INTRA>
4.47454

>  <SCORE.INTRA.DIHEDRAL>
5.82761

>  <SCORE.INTRA.DIHEDRAL.0>
0.00893466

>  <SCORE.INTRA.POLAR>
0

>  <SCORE.INTRA.POLAR.0>
0

>  <SCORE.INTRA.REPUL>
0

>  <SCORE.INTRA.REPUL.0>
0

>  <SCORE.INTRA.SOLV>
3.40233

>  <SCORE.INTRA.SOLV.lig_0>
-48.9722

>  <SCORE.INTRA.VDW>
-0.140428

>  <SCORE.INTRA.VDW.0>
-0.529409

>  <SCORE.INTRA.norm>
0.279659

>  <SCORE.RESTR>
0.0299025

>  <SCORE.RESTR.CAVITY>
0.0299025

>  <SCORE.RESTR.norm>
0.00186891

>  <SCORE.SYSTEM>
0

>  <SCORE.SYSTEM.CONST>
0

>  <SCORE.SYSTEM.DIHEDRAL>
0

>  <SCORE.SYSTEM.SOLV>
0

>  <SCORE.SYSTEM.norm>
0

>  <SCORE.heavy>
16

>  <SCORE.norm>
-1.16828

>  <RMSD>
40.652

$$$$
ligand
 OpenBabel11021811433D
libRbt.so/2013.1/901 2013/11/27
 16 16  0  0  0  0  0  0  0  0999 V2000
    9.1230   -1.3620    1.1770 P   0  0  2  0  0  0  0  0  0  0  0  0
   10.2491   -1.7838    0.3074 O   0  0  0  0  0  0  0  0  0  0  0  0
    9.0910   -2.2881    2.4927 O   0  5  0  0  0  0  0  0  0  0  0  0
    7.7441   -1.5423    0.3648 O   0  0  0  0  0  0  0  0  0  0  0  0
   10.5258   -0.0907   -2.6423 C   0  0  2  0  0  0  0  0  0  0  0  0
   11.8612   -0.3299   -2.1624 O   0  0  0  0  0  0  0  0  0  0  0  0
   10.4557    1.2387   -3.4367 C   0  0  2  0  0  0  0  0  0  0  0  0
   11.4032    1.2022   -4.5569 O   0  0  0  0  0  0  0  0  0  0  0  0
   10.8244    2.3947   -2.4880 C   0  0  1  0  0  0  0  0  0  0  0  0
   10.7618    3.6396   -3.1941 O   0  0  0  0  0  0  0  0  0  0  0  0
    9.8165    2.4044   -1.3281 C   0  0  2  0  0  0  0  0  0  0  0  0
   10.1475    3.4741   -0.4164 O   0  0  0  0  0  0  0  0  0  0  0  0
    9.8984    1.0378   -0.5935 C   0  0  2  0  0  0  0  0  0  0  0  0
    9.5828   -0.0462   -1.5202 O   0  0  0  0  0  0  0  0  0  0  0  0
    8.8675    1.0268    0.5498 C   0  0  0  0  0  0  0  0  0  0  0  0
    9.3127    0.1881    1.6229 O   0  0  0  0  0  0  0  0  0  0  0  0
  1  2  1  6  0  0  0
  1  3  1  0  0  0  0
  1  4  2  0  0  0  0
  1 16  1  0  0  0  0
  5  6  1  1  0  0  0
  5  7  1  0  0  0  0
  5 14  1  0  0  0  0
  7  8  1  6  0  0  0
  7  9  1  0  0  0  0
  9 10  1  6  0  0  0
  9 11  1  0  0  0  0
 11 12  1  1  0  0  0
 11 13  1  0  0  0  0
 13 14  1  0  0  0  0
 13 15  1  1  0  0  0
 15 16  1  0  0  0  0
M  CHG  1   3  -1
M  END
>  <CHROM.1>
-150.59312654,-74.94962614,80.59814649,9.91815822,0.40682469,-0.80827603
-2.40301064,1.14185142,-0.10601507

>  <Name>
ligand

>  <RI>
0

>  <Rbt.Current_Directory>
/home/itssahil/PROJECTS/Mol_Feturizer/New_Systems/rnas/2HO7

>  <Rbt.Executable>
rbdock ($Id: //depot/dev/client3/rdock/2013.1/src/exe/rbdock.cxx#4 $)

>  <Rbt.Library>
libRbt.so (2013.1, Build901 2013/11/27)

>  <Rbt.Parameter_File>
/export/apps/rDock/src/rDock_2013.1_src/data/scripts/dock_solv.prm

>  <Rbt.Receptor>
prm/blind_docking_40.prm

>  <SCORE>
-19.6084

>  <SCORE.INTER>
-23.0742

>  <SCORE.INTER.CONST>
1

>  <SCORE.INTER.POLAR>
-2.86378

>  <SCORE.INTER.ROT>
3

>  <SCORE.INTER.SOLV>
20.3035

>  <SCORE.INTER.VDW>
-18.2047

>  <SCORE.INTER.norm>
-1.44214

>  <SCORE.INTRA>
3.46587

>  <SCORE.INTRA.DIHEDRAL>
4.22654

>  <SCORE.INTRA.DIHEDRAL.0>
0.00893466

>  <SCORE.INTRA.POLAR>
0

>  <SCORE.INTRA.POLAR.0>
0

>  <SCORE.INTRA.REPUL>
0

>  <SCORE.INTRA.REPUL.0>
0

>  <SCORE.INTRA.SOLV>
2.69217

>  <SCORE.INTRA.SOLV.lig_0>
-48.9722

>  <SCORE.INTRA.VDW>
0.00651956

>  <SCORE.INTRA.VDW.0>
-0.529409

>  <SCORE.INTRA.norm>
0.216617

>  <SCORE.RESTR>
0

>  <SCORE.RESTR.CAVITY>
0

>  <SCORE.RESTR.norm>
0

>  <SCORE.SYSTEM>
0

>  <SCORE.SYSTEM.CONST>
0

>  <SCORE.SYSTEM.DIHEDRAL>
0

>  <SCORE.SYSTEM.SOLV>
0

>  <SCORE.SYSTEM.norm>
0

>  <SCORE.heavy>
16

>  <SCORE.norm>
-1.22552

>  <RMSD>
40.652

$$$$
ligand
 OpenBabel11021811433D
libRbt.so/2013.1/901 2013/11/27
 16 16  0  0  0  0  0  0  0  0999 V2000
    9.0430   -1.3670    1.1547 P   0  0  2  0  0  0  0  0  0  0  0  0
    8.9823   -2.2339    2.3577 O   0  0  0  0  0  0  0  0  0  0  0  0
    7.6254   -1.4122    0.3943 O   0  5  0  0  0  0  0  0  0  0  0  0
   10.1924   -1.9217    0.1726 O   0  0  0  0  0  0  0  0  0  0  0  0
   10.5012   -0.0617   -2.7091 C   0  0  2  0  0  0  0  0  0  0  0  0
   11.8324   -0.3654   -2.2546 O   0  0  0  0  0  0  0  0  0  0  0  0
   10.4729    1.2900   -3.4675 C   0  0  2  0  0  0  0  0  0  0  0  0
   11.4034    1.2464   -4.6018 O   0  0  0  0  0  0  0  0  0  0  0  0
   10.8994    2.4052   -2.4945 C   0  0  1  0  0  0  0  0  0  0  0  0
   10.8765    3.6699   -3.1670 O   0  0  0  0  0  0  0  0  0  0  0  0
    9.9080    2.4234   -1.3205 C   0  0  2  0  0  0  0  0  0  0  0  0
   10.2929    3.4548   -0.3862 O   0  0  0  0  0  0  0  0  0  0  0  0
    9.9458    1.0356   -0.6229 C   0  0  2  0  0  0  0  0  0  0  0  0
    9.5756   -0.0102   -1.5728 O   0  0  0  0  0  0  0  0  0  0  0  0
    8.9305    1.0345    0.5343 C   0  0  0  0  0  0  0  0  0  0  0  0
    9.3656    0.1649    1.5867 O   0  0  0  0  0  0  0  0  0  0  0  0
  1  2  1  1  0  0  0
  1  3  1  0  0  0  0
  1  4  2  0  0  0  0
  1 16  1  0  0  0  0
  5  6  1  1  0  0  0
  5  7  1  0  0  0  0
  5 14  1  0  0  0  0
  7  8  1  6  0  0  0
  7  9  1  0  0  0  0
  9 10  1  6  0  0  0
  9 11  1  0  0  0  0
 11 12  1  1  0  0  0
 11 13  1  0  0  0  0
 13 14  1  0  0  0  0
 13 15  1  1  0  0  0
 15 16  1  0  0  0  0
M  CHG  1   3  -1
M  END
>  <CHROM.1>
-149.80365590,-78.30754883,-158.47700439,9.92202746,0.41710993,-0.84403704
-2.50198170,1.14704829,0.00026592

>  <Name>
ligand

>  <RI>
0

>  <Rbt.Current_Directory>
/home/itssahil/PROJECTS/Mol_Feturizer/New_Systems/rnas/2HO7

>  <Rbt.Executable>
rbdock ($Id: //depot/dev/client3/rdock/2013.1/src/exe/rbdock.cxx#4 $)

>  <Rbt.Library>
libRbt.so (2013.1, Build901 2013/11/27)

>  <Rbt.Parameter_File>
/export/apps/rDock/src/rDock_2013.1_src/data/scripts/dock_solv.prm

>  <Rbt.Receptor>
prm/blind_docking_100.prm

>  <SCORE>
-19.5147

>  <SCORE.INTER>
-24.5513

>  <SCORE.INTER.CONST>
1

>  <SCORE.INTER.POLAR>
-2.86378

>  <SCORE.INTER.ROT>
3

>  <SCORE.INTER.SOLV>
17.4241

>  <SCORE.INTER.VDW>
-18.2297

>  <SCORE.INTER.norm>
-1.53446

>  <SCORE.INTRA>
5.02887

>  <SCORE.INTRA.DIHEDRAL>
4.8709

>  <SCORE.INTRA.DIHEDRAL.0>
0.00893466

>  <SCORE.INTRA.POLAR>
0

>  <SCORE.INTRA.POLAR.0>
0

>  <SCORE.INTRA.REPUL>
0

>  <SCORE.INTRA.REPUL.0>
0

>  <SCORE.INTRA.SOLV>
5.54921

>  <SCORE.INTRA.SOLV.lig_0>
-48.9722

>  <SCORE.INTRA.VDW>
-0.181186

>  <SCORE.INTRA.VDW.0>
-0.529409

>  <SCORE.INTRA.norm>
0.314304

>  <SCORE.RESTR>
0.00779756

>  <SCORE.RESTR.CAVITY>
0.00779756

>  <SCORE.RESTR.norm>
0.000487347

>  <SCORE.SYSTEM>
0

>  <SCORE.SYSTEM.CONST>
0

>  <SCORE.SYSTEM.DIHEDRAL>
0

>  <SCORE.SYSTEM.SOLV>
0

>  <SCORE.SYSTEM.norm>
0

>  <SCORE.heavy>
16

>  <SCORE.norm>
-1.21967

>  <RMSD>
40.655

$$$$
ligand
 OpenBabel11021811433D
libRbt.so/2013.1/901 2013/11/27
 16 16  0  0  0  0  0  0  0  0999 V2000
    9.9942    1.5646   -1.1517 P   0  0  2  0  0  0  0  0  0  0  0  0
    8.7488    0.8228   -1.4693 O   0  0  0  0  0  0  0  0  0  0  0  0
    9.6271    2.8818   -0.3032 O   0  5  0  0  0  0  0  0  0  0  0  0
   10.7053    1.9995   -2.5297 O   0  0  0  0  0  0  0  0  0  0  0  0
    9.1002   -3.0707   -0.7113 C   0  0  2  0  0  0  0  0  0  0  0  0
    8.2286   -3.5562    0.3256 O   0  0  0  0  0  0  0  0  0  0  0  0
   10.4404   -3.8498   -0.7141 C   0  0  2  0  0  0  0  0  0  0  0  0
   10.1845   -5.2842   -0.8906 O   0  0  0  0  0  0  0  0  0  0  0  0
   11.1448   -3.6148    0.6354 C   0  0  1  0  0  0  0  0  0  0  0  0
   12.3923   -4.3189    0.6598 O   0  0  0  0  0  0  0  0  0  0  0  0
   11.3968   -2.1068    0.7896 C   0  0  2  0  0  0  0  0  0  0  0  0
   12.0473   -1.8580    2.0544 O   0  0  0  0  0  0  0  0  0  0  0  0
   10.0285   -1.3722    0.7440 C   0  0  2  0  0  0  0  0  0  0  0  0
    9.3611   -1.6394   -0.5273 O   0  0  0  0  0  0  0  0  0  0  0  0
   10.2747    0.1427    0.8644 C   0  0  0  0  0  0  0  0  0  0  0  0
   10.9926    0.6297   -0.2760 O   0  0  0  0  0  0  0  0  0  0  0  0
  1  2  1  6  0  0  0
  1  3  1  0  0  0  0
  1  4  2  0  0  0  0
  1 16  1  0  0  0  0
  5  6  1  1  0  0  0
  5  7  1  0  0  0  0
  5 14  1  0  0  0  0
  7  8  1  1  0  0  0
  7  9  1  0  0  0  0
  9 10  1  6  0  0  0
  9 11  1  0  0  0  0
 11 12  1  1  0  0  0
 11 13  1  0  0  0  0
 13 14  1  0  0  0  0
 13 15  1  6  0  0  0
 15 16  1  0  0  0  0
M  CHG  1   3  -1
M  END
>  <CHROM.1>
65.26928936,110.74017636,-53.58250587,10.26663807,-1.16945092,-0.24071907
1.71543045,-0.67475387,-0.12743266

>  <Name>
ligand

>  <RI>
0

>  <Rbt.Current_Directory>
/home/itssahil/PROJECTS/Mol_Feturizer/New_Systems/rnas/2HO7

>  <Rbt.Executable>
rbdock ($Id: //depot/dev/client3/rdock/2013.1/src/exe/rbdock.cxx#4 $)

>  <Rbt.Library>
libRbt.so (2013.1, Build901 2013/11/27)

>  <Rbt.Parameter_File>
/export/apps/rDock/src/rDock_2013.1_src/data/scripts/dock_solv.prm

>  <Rbt.Receptor>
prm/blind_docking_40.prm

>  <SCORE>
-14.0159

>  <SCORE.INTER>
-17.539

>  <SCORE.INTER.CONST>
1

>  <SCORE.INTER.POLAR>
-2.54249

>  <SCORE.INTER.ROT>
3

>  <SCORE.INTER.SOLV>
15.704

>  <SCORE.INTER.VDW>
-14.0524

>  <SCORE.INTER.norm>
-1.09619

>  <SCORE.INTRA>
3.52311

>  <SCORE.INTRA.DIHEDRAL>
6.94226

>  <SCORE.INTRA.DIHEDRAL.0>
0.00893466

>  <SCORE.INTRA.POLAR>
0

>  <SCORE.INTRA.POLAR.0>
0

>  <SCORE.INTRA.REPUL>
0

>  <SCORE.INTRA.REPUL.0>
0

>  <SCORE.INTRA.SOLV>
0.862868

>  <SCORE.INTRA.SOLV.lig_0>
-48.9722

>  <SCORE.INTRA.VDW>
-0.379456

>  <SCORE.INTRA.VDW.0>
-0.529409

>  <SCORE.INTRA.norm>
0.220194

>  <SCORE.RESTR>
0

>  <SCORE.RESTR.CAVITY>
0

>  <SCORE.RESTR.norm>
0

>  <SCORE.SYSTEM>
0

>  <SCORE.SYSTEM.CONST>
0

>  <SCORE.SYSTEM.DIHEDRAL>
0

>  <SCORE.SYSTEM.SOLV>
0

>  <SCORE.SYSTEM.norm>
0

>  <SCORE.heavy>
16

>  <SCORE.norm>
-0.875993

>  <RMSD>
40.660

$$$$
ligand
 OpenBabel11021811433D
libRbt.so/2013.1/901 2013/11/27
 16 16  0  0  0  0  0  0  0  0999 V2000
    9.0481   -1.4799    1.1563 P   0  0  2  0  0  0  0  0  0  0  0  0
    8.9467   -2.3453    2.3576 O   0  0  0  0  0  0  0  0  0  0  0  0
    7.6354   -1.4719    0.3857 O   0  5  0  0  0  0  0  0  0  0  0  0
   10.1834   -2.0755    0.1816 O   0  0  0  0  0  0  0  0  0  0  0  0
   10.5234   -0.0973   -2.7093 C   0  0  2  0  0  0  0  0  0  0  0  0
   11.8643   -0.3859   -2.2740 O   0  0  0  0  0  0  0  0  0  0  0  0
   10.4652    1.2637   -3.4491 C   0  0  2  0  0  0  0  0  0  0  0  0
   11.3831    1.2499   -4.5943 O   0  0  0  0  0  0  0  0  0  0  0  0
   10.8852    2.3725   -2.4660 C   0  0  1  0  0  0  0  0  0  0  0  0
   10.8348    3.6455   -3.1212 O   0  0  0  0  0  0  0  0  0  0  0  0
    9.9073    2.3594   -1.2808 C   0  0  2  0  0  0  0  0  0  0  0  0
   10.2867    3.3843   -0.3370 O   0  0  0  0  0  0  0  0  0  0  0  0
    9.9749    0.9633   -0.6024 C   0  0  2  0  0  0  0  0  0  0  0  0
    9.6102   -0.0756   -1.5620 O   0  0  0  0  0  0  0  0  0  0  0  0
    8.9731    0.9307    0.5661 C   0  0  0  0  0  0  0  0  0  0  0  0
    9.4238    0.0386    1.5928 O   0  0  0  0  0  0  0  0  0  0  0  0
  1  2  1  1  0  0  0
  1  3  1  0  0  0  0
  1  4  2  0  0  0  0
  1 16  1  0  0  0  0
  5  6  1  1  0  0  0
  5  7  1  0  0  0  0
  5 14  1  0  0  0  0
  7  8  1  6  0  0  0
  7  9  1  0  0  0  0
  9 10  1  6  0  0  0
  9 11  1  0  0  0  0
 11 12  1  1  0  0  0
 11 13  1  0  0  0  0
 13 14  1  0  0  0  0
 13 15  1  1  0  0  0
 15 16  1  0  0  0  0
M  CHG  1   3  -1
M  END
>  <CHROM.1>
-150.68213271,-80.57952076,-155.84472460,9.92783619,0.34620786,-0.83028849
-2.49012509,1.15000694,0.00342141

>  <Name>
ligand

>  <RI>
0

>  <Rbt.Current_Directory>
/home/itssahil/PROJECTS/Mol_Feturizer/New_Systems/rnas/2HO7

>  <Rbt.Executable>
rbdock ($Id: //depot/dev/client3/rdock/2013.1/src/exe/rbdock.cxx#4 $)

>  <Rbt.Library>
libRbt.so (2013.1, Build901 2013/11/27)

>  <Rbt.Parameter_File>
/export/apps/rDock/src/rDock_2013.1_src/data/scripts/dock_solv.prm

>  <Rbt.Receptor>
prm/blind_docking_40.prm

>  <SCORE>
-19.58

>  <SCORE.INTER>
-24.7239

>  <SCORE.INTER.CONST>
1

>  <SCORE.INTER.POLAR>
-2.86105

>  <SCORE.INTER.ROT>
3

>  <SCORE.INTER.SOLV>
17.1358

>  <SCORE.INTER.VDW>
-18.2577

>  <SCORE.INTER.norm>
-1.54524

>  <SCORE.INTRA>
5.10254

>  <SCORE.INTRA.DIHEDRAL>
5.26745

>  <SCORE.INTRA.DIHEDRAL.0>
0.00893466

>  <SCORE.INTRA.POLAR>
0

>  <SCORE.INTRA.POLAR.0>
0

>  <SCORE.INTRA.REPUL>
0

>  <SCORE.INTRA.REPUL.0>
0

>  <SCORE.INTRA.SOLV>
5.33826

>  <SCORE.INTRA.SOLV.lig_0>
-48.9722

>  <SCORE.INTRA.VDW>
-0.200317

>  <SCORE.INTRA.VDW.0>
-0.529409

>  <SCORE.INTRA.norm>
0.318909

>  <SCORE.RESTR>
0.0413385

>  <SCORE.RESTR.CAVITY>
0.0413385

>  <SCORE.RESTR.norm>
0.00258365

>  <SCORE.SYSTEM>
0

>  <SCORE.SYSTEM.CONST>
0

>  <SCORE.SYSTEM.DIHEDRAL>
0

>  <SCORE.SYSTEM.SOLV>
0

>  <SCORE.SYSTEM.norm>
0

>  <SCORE.heavy>
16

>  <SCORE.norm>
-1.22375

>  <RMSD>
40.666

$$$$
ligand
 OpenBabel11021811433D
libRbt.so/2013.1/901 2013/11/27
 16 16  0  0  0  0  0  0  0  0999 V2000
    9.9388    1.7479   -1.3712 P   0  0  2  0  0  0  0  0  0  0  0  0
   10.2048    2.4830   -0.1098 O   0  0  0  0  0  0  0  0  0  0  0  0
    9.2481    2.7425   -2.4311 O   0  5  0  0  0  0  0  0  0  0  0  0
    8.9389    0.5248   -1.0584 O   0  0  0  0  0  0  0  0  0  0  0  0
    9.6166   -3.2020   -1.5729 C   0  0  2  0  0  0  0  0  0  0  0  0
    9.5193   -2.9122   -0.1668 O   0  0  0  0  0  0  0  0  0  0  0  0
   10.8270   -4.1262   -1.8625 C   0  0  2  0  0  0  0  0  0  0  0  0
   10.7030   -5.3688   -1.0913 O   0  0  0  0  0  0  0  0  0  0  0  0
   12.1145   -3.3894   -1.4479 C   0  0  1  0  0  0  0  0  0  0  0  0
   13.2530   -4.2184   -1.7105 O   0  0  0  0  0  0  0  0  0  0  0  0
   12.2136   -2.0954   -2.2707 C   0  0  2  0  0  0  0  0  0  0  0  0
   13.4086   -1.3789   -1.8921 O   0  0  0  0  0  0  0  0  0  0  0  0
   10.9594   -1.2272   -1.9755 C   0  0  2  0  0  0  0  0  0  0  0  0
    9.7492   -1.9592   -2.3400 O   0  0  0  0  0  0  0  0  0  0  0  0
   11.0346    0.0566   -2.8217 C   0  0  0  0  0  0  0  0  0  0  0  0
   11.3302    1.1893   -1.9955 O   0  0  0  0  0  0  0  0  0  0  0  0
  1  2  1  1  0  0  0
  1  3  1  0  0  0  0
  1  4  2  0  0  0  0
  1 16  1  0  0  0  0
  5  6  1  1  0  0  0
  5  7  1  0  0  0  0
  5 14  1  0  0  0  0
  7  8  1  1  0  0  0
  7  9  1  0  0  0  0
  9 10  1  6  0  0  0
  9 11  1  0  0  0  0
 11 12  1  1  0  0  0
 11 13  1  0  0  0  0
 13 14  1  0  0  0  0
 13 15  1  6  0  0  0
 15 16  1  0  0  0  0
M  CHG  1   3  -1
M  END
>  <CHROM.1>
-107.82896773,-84.96440716,155.39634753,10.74346210,-1.06347528,-1.59639157
1.84021662,0.26856229,-0.06835731

>  <Name>
ligand

>  <RI>
0

>  <Rbt.Current_Directory>
/home/itssahil/PROJECTS/Mol_Feturizer/New_Systems/rnas/2HO7

>  <Rbt.Executable>
rbdock ($Id: //depot/dev/client3/rdock/2013.1/src/exe/rbdock.cxx#4 $)

>  <Rbt.Library>
libRbt.so (2013.1, Build901 2013/11/27)

>  <Rbt.Parameter_File>
/export/apps/rDock/src/rDock_2013.1_src/data/scripts/dock_solv.prm

>  <Rbt.Receptor>
prm/blind_docking_80.prm

>  <SCORE>
-12.839

>  <SCORE.INTER>
-18.8709

>  <SCORE.INTER.CONST>
1

>  <SCORE.INTER.POLAR>
-2.86378

>  <SCORE.INTER.ROT>
3

>  <SCORE.INTER.SOLV>
18.2364

>  <SCORE.INTER.VDW>
-14.7135

>  <SCORE.INTER.norm>
-1.17943

>  <SCORE.INTRA>
6.03197

>  <SCORE.INTRA.DIHEDRAL>
8.28258

>  <SCORE.INTRA.DIHEDRAL.0>
0.00893466

>  <SCORE.INTRA.POLAR>
0

>  <SCORE.INTRA.POLAR.0>
0

>  <SCORE.INTRA.REPUL>
0

>  <SCORE.INTRA.REPUL.0>
0

>  <SCORE.INTRA.SOLV>
3.6712

>  <SCORE.INTRA.SOLV.lig_0>
-48.9722

>  <SCORE.INTRA.VDW>
0.0550756

>  <SCORE.INTRA.VDW.0>
-0.529409

>  <SCORE.INTRA.norm>
0.376998

>  <SCORE.RESTR>
0

>  <SCORE.RESTR.CAVITY>
0

>  <SCORE.RESTR.norm>
0

>  <SCORE.SYSTEM>
0

>  <SCORE.SYSTEM.CONST>
0

>  <SCORE.SYSTEM.DIHEDRAL>
0

>  <SCORE.SYSTEM.SOLV>
0

>  <SCORE.SYSTEM.norm>
0

>  <SCORE.heavy>
16

>  <SCORE.norm>
-0.802435

>  <RMSD>
40.666

$$$$
ligand
 OpenBabel11021811433D
libRbt.so/2013.1/901 2013/11/27
 16 16  0  0  0  0  0  0  0  0999 V2000
    9.0547   -1.3857    1.2253 P   0  0  2  0  0  0  0  0  0  0  0  0
    8.4637   -2.7251    1.4681 O   0  0  0  0  0  0  0  0  0  0  0  0
    9.2103   -0.6108    2.6271 O   0  5  0  0  0  0  0  0  0  0  0  0
    8.0708   -0.5511    0.2615 O   0  0  0  0  0  0  0  0  0  0  0  0
   10.4798    2.9691   -1.2910 C   0  0  2  0  0  0  0  0  0  0  0  0
    9.0981    3.1713   -0.9436 O   0  0  0  0  0  0  0  0  0  0  0  0
   10.6125    2.4598   -2.7491 C   0  0  2  0  0  0  0  0  0  0  0  0
    9.9875    3.4154   -3.6713 O   0  0  0  0  0  0  0  0  0  0  0  0
    9.9002    1.0985   -2.8578 C   0  0  1  0  0  0  0  0  0  0  0  0
   10.0119    0.5987   -4.1958 O   0  0  0  0  0  0  0  0  0  0  0  0
   10.5760    0.1234   -1.8812 C   0  0  2  0  0  0  0  0  0  0  0  0
    9.9182   -1.1598   -1.9555 O   0  0  0  0  0  0  0  0  0  0  0  0
   10.4509    0.7005   -0.4441 C   0  0  2  0  0  0  0  0  0  0  0  0
   11.0991    2.0074   -0.3733 O   0  0  0  0  0  0  0  0  0  0  0  0
   11.1550   -0.2545    0.5368 C   0  0  0  0  0  0  0  0  0  0  0  0
   10.5178   -1.5379    0.5371 O   0  0  0  0  0  0  0  0  0  0  0  0
  1  2  1  1  0  0  0
  1  3  1  0  0  0  0
  1  4  2  0  0  0  0
  1 16  1  0  0  0  0
  5  6  1  1  0  0  0
  5  7  1  0  0  0  0
  5 14  1  0  0  0  0
  7  8  1  6  0  0  0
  7  9  1  0  0  0  0
  9 10  1  6  0  0  0
  9 11  1  0  0  0  0
 11 12  1  1  0  0  0
 11 13  1  0  0  0  0
 13 14  1  0  0  0  0
 13 15  1  1  0  0  0
 15 16  1  0  0  0  0
M  CHG  1   3  -1
M  END
>  <CHROM.1>
-62.42170861,-69.43554010,-169.80762317,9.82389453,0.35790220,-0.68685381
-2.90916778,-1.38725282,-2.15551639

>  <Name>
ligand

>  <RI>
0

>  <Rbt.Current_Directory>
/home/itssahil/PROJECTS/Mol_Feturizer/New_Systems/rnas/2HO7

>  <Rbt.Executable>
rbdock ($Id: //depot/dev/client3/rdock/2013.1/src/exe/rbdock.cxx#4 $)

>  <Rbt.Library>
libRbt.so (2013.1, Build901 2013/11/27)

>  <Rbt.Parameter_File>
/export/apps/rDock/src/rDock_2013.1_src/data/scripts/dock_solv.prm

>  <Rbt.Receptor>
prm/blind_docking_40.prm

>  <SCORE>
-15.1493

>  <SCORE.INTER>
-18.5098

>  <SCORE.INTER.CONST>
1

>  <SCORE.INTER.POLAR>
-2.26108

>  <SCORE.INTER.ROT>
3

>  <SCORE.INTER.SOLV>
18.3401

>  <SCORE.INTER.VDW>
-16.5163

>  <SCORE.INTER.norm>
-1.15686

>  <SCORE.INTRA>
3.36048

>  <SCORE.INTRA.DIHEDRAL>
0.609063

>  <SCORE.INTRA.DIHEDRAL.0>
0.00893466

>  <SCORE.INTRA.POLAR>
0

>  <SCORE.INTRA.POLAR.0>
0

>  <SCORE.INTRA.REPUL>
0

>  <SCORE.INTRA.REPUL.0>
0

>  <SCORE.INTRA.SOLV>
5.47477

>  <SCORE.INTRA.SOLV.lig_0>
-48.9722

>  <SCORE.INTRA.VDW>
0.318566

>  <SCORE.INTRA.VDW.0>
-0.529409

>  <SCORE.INTRA.norm>
0.21003

>  <SCORE.RESTR>
0

>  <SCORE.RESTR.CAVITY>
0

>  <SCORE.RESTR.norm>
0

>  <SCORE.SYSTEM>
0

>  <SCORE.SYSTEM.CONST>
0

>  <SCORE.SYSTEM.DIHEDRAL>
0

>  <SCORE.SYSTEM.SOLV>
0

>  <SCORE.SYSTEM.norm>
0

>  <SCORE.heavy>
16

>  <SCORE.norm>
-0.946832

>  <RMSD>
40.672

$$$$
ligand
 OpenBabel11021811433D
libRbt.so/2013.1/901 2013/11/27
 16 16  0  0  0  0  0  0  0  0999 V2000
    9.6418    1.8861   -1.2585 P   0  0  2  0  0  0  0  0  0  0  0  0
    9.2887    3.0929   -0.4703 O   0  0  0  0  0  0  0  0  0  0  0  0
   11.1382    1.4263   -0.8856 O   0  5  0  0  0  0  0  0  0  0  0  0
    9.5713    2.2505   -2.8256 O   0  0  0  0  0  0  0  0  0  0  0  0
    9.8652   -3.1014   -0.6581 C   0  0  2  0  0  0  0  0  0  0  0  0
    8.7750   -3.8929   -0.1525 O   0  0  0  0  0  0  0  0  0  0  0  0
   11.1233   -3.2632    0.2331 C   0  0  2  0  0  0  0  0  0  0  0  0
   11.5076   -4.6779    0.3033 O   0  0  0  0  0  0  0  0  0  0  0  0
   10.7901   -2.7495    1.6464 C   0  0  1  0  0  0  0  0  0  0  0  0
   11.9385   -2.8807    2.4928 O   0  0  0  0  0  0  0  0  0  0  0  0
   10.3914   -1.2694    1.5380 C   0  0  2  0  0  0  0  0  0  0  0  0
   10.0625   -0.7659    2.8507 O   0  0  0  0  0  0  0  0  0  0  0  0
    9.1550   -1.1601    0.6035 C   0  0  2  0  0  0  0  0  0  0  0  0
    9.4812   -1.6874   -0.7189 O   0  0  0  0  0  0  0  0  0  0  0  0
    8.7694    0.3237    0.4629 C   0  0  0  0  0  0  0  0  0  0  0  0
    8.6136    0.6762   -0.9172 O   0  0  0  0  0  0  0  0  0  0  0  0
  1  2  1  1  0  0  0
  1  3  1  0  0  0  0
  1  4  2  0  0  0  0
  1 16  1  0  0  0  0
  5  6  1  1  0  0  0
  5  7  1  0  0  0  0
  5 14  1  0  0  0  0
  7  8  1  1  0  0  0
  7  9  1  0  0  0  0
  9 10  1  1  0  0  0
  9 11  1  0  0  0  0
 11 12  1  1  0  0  0
 11 13  1  0  0  0  0
 13 14  1  0  0  0  0
 13 15  1  6  0  0  0
 15 16  1  0  0  0  0
M  CHG  1   3  -1
M  END
>  <CHROM.1>
130.01735214,-121.74345132,-63.71489253,9.98000740,-0.75037083,0.02410509
2.20930021,-1.23032431,0.21384311

>  <Name>
ligand

>  <RI>
0

>  <Rbt.Current_Directory>
/home/itssahil/PROJECTS/Mol_Feturizer/New_Systems/rnas/2HO7

>  <Rbt.Executable>
rbdock ($Id: //depot/dev/client3/rdock/2013.1/src/exe/rbdock.cxx#4 $)

>  <Rbt.Library>
libRbt.so (2013.1, Build901 2013/11/27)

>  <Rbt.Parameter_File>
/export/apps/rDock/src/rDock_2013.1_src/data/scripts/dock_solv.prm

>  <Rbt.Receptor>
prm/blind_docking_60.prm

>  <SCORE>
-12.835

>  <SCORE.INTER>
-19.7318

>  <SCORE.INTER.CONST>
1

>  <SCORE.INTER.POLAR>
-2.54558

>  <SCORE.INTER.ROT>
3

>  <SCORE.INTER.SOLV>
17.0774

>  <SCORE.INTER.VDW>
-15.9617

>  <SCORE.INTER.norm>
-1.23324

>  <SCORE.INTRA>
6.89682

>  <SCORE.INTRA.DIHEDRAL>
12.1248

>  <SCORE.INTRA.DIHEDRAL.0>
0.00893466

>  <SCORE.INTRA.POLAR>
0

>  <SCORE.INTRA.POLAR.0>
0

>  <SCORE.INTRA.REPUL>
0

>  <SCORE.INTRA.REPUL.0>
0

>  <SCORE.INTRA.SOLV>
2.01208

>  <SCORE.INTRA.SOLV.lig_0>
-48.9722

>  <SCORE.INTRA.VDW>
-0.171618

>  <SCORE.INTRA.VDW.0>
-0.529409

>  <SCORE.INTRA.norm>
0.431051

>  <SCORE.RESTR>
0

>  <SCORE.RESTR.CAVITY>
0

>  <SCORE.RESTR.norm>
0

>  <SCORE.SYSTEM>
0

>  <SCORE.SYSTEM.CONST>
0

>  <SCORE.SYSTEM.DIHEDRAL>
0

>  <SCORE.SYSTEM.SOLV>
0

>  <SCORE.SYSTEM.norm>
0

>  <SCORE.heavy>
16

>  <SCORE.norm>
-0.802186

>  <RMSD>
40.677

$$$$
ligand
 OpenBabel11021811433D
libRbt.so/2013.1/901 2013/11/27
 16 16  0  0  0  0  0  0  0  0999 V2000
    9.2521   -1.2955    1.0405 P   0  0  2  0  0  0  0  0  0  0  0  0
    8.9344    0.1535    1.0839 O   0  0  0  0  0  0  0  0  0  0  0  0
    8.1513   -2.0549    0.1454 O   0  5  0  0  0  0  0  0  0  0  0  0
    9.2148   -1.8803    2.5406 O   0  0  0  0  0  0  0  0  0  0  0  0
   10.8554    2.3020   -1.1266 C   0  0  2  0  0  0  0  0  0  0  0  0
    9.4932    2.6554   -0.8261 O   0  0  0  0  0  0  0  0  0  0  0  0
   11.1547    2.4954   -2.6353 C   0  0  2  0  0  0  0  0  0  0  0  0
   10.8892    3.8857   -3.0235 O   0  0  0  0  0  0  0  0  0  0  0  0
   10.2400    1.5526   -3.4396 C   0  0  1  0  0  0  0  0  0  0  0  0
   10.4991    1.7047   -4.8404 O   0  0  0  0  0  0  0  0  0  0  0  0
   10.5415    0.1085   -3.0097 C   0  0  2  0  0  0  0  0  0  0  0  0
    9.6872   -0.7962   -3.7422 O   0  0  0  0  0  0  0  0  0  0  0  0
   10.2654   -0.0191   -1.4860 C   0  0  2  0  0  0  0  0  0  0  0  0
   11.1153    0.9099   -0.7457 O   0  0  0  0  0  0  0  0  0  0  0  0
   10.5971   -1.4549   -1.0405 C   0  0  0  0  0  0  0  0  0  0  0  0
   10.7203   -1.5254    0.3853 O   0  0  0  0  0  0  0  0  0  0  0  0
  1  2  1  1  0  0  0
  1  3  1  0  0  0  0
  1  4  2  0  0  0  0
  1 16  1  0  0  0  0
  5  6  1  6  0  0  0
  5  7  1  0  0  0  0
  5 14  1  0  0  0  0
  7  8  1  6  0  0  0
  7  9  1  0  0  0  0
  9 10  1  6  0  0  0
  9 11  1  0  0  0  0
 11 12  1  6  0  0  0
 11 13  1  0  0  0  0
 13 14  1  0  0  0  0
 13 15  1  1  0  0  0
 15 16  1  0  0  0  0
M  CHG  1   3  -1
M  END
>  <CHROM.1>
163.87145480,68.75600070,-80.55677240,10.01687360,0.28389414,-1.09807998
-2.89384657,-1.33349691,-2.19466241

>  <Name>
ligand

>  <RI>
0

>  <Rbt.Current_Directory>
/home/itssahil/PROJECTS/Mol_Feturizer/New_Systems/rnas/2HO7

>  <Rbt.Executable>
rbdock ($Id: //depot/dev/client3/rdock/2013.1/src/exe/rbdock.cxx#4 $)

>  <Rbt.Library>
libRbt.so (2013.1, Build901 2013/11/27)

>  <Rbt.Parameter_File>
/export/apps/rDock/src/rDock_2013.1_src/data/scripts/dock_solv.prm

>  <Rbt.Receptor>
prm/blind_docking_100.prm

>  <SCORE>
-12.6134

>  <SCORE.INTER>
-14.7681

>  <SCORE.INTER.CONST>
1

>  <SCORE.INTER.POLAR>
-1.58882

>  <SCORE.INTER.ROT>
3

>  <SCORE.INTER.SOLV>
18.5844

>  <SCORE.INTER.VDW>
-16.3441

>  <SCORE.INTER.norm>
-0.923006

>  <SCORE.INTRA>
2.15466

>  <SCORE.INTRA.DIHEDRAL>
1.88292

>  <SCORE.INTRA.DIHEDRAL.0>
0.00893466

>  <SCORE.INTRA.POLAR>
0

>  <SCORE.INTRA.POLAR.0>
0

>  <SCORE.INTRA.REPUL>
0

>  <SCORE.INTRA.REPUL.0>
0

>  <SCORE.INTRA.SOLV>
2.0249

>  <SCORE.INTRA.SOLV.lig_0>
-48.9722

>  <SCORE.INTRA.VDW>
0.20075

>  <SCORE.INTRA.VDW.0>
-0.529409

>  <SCORE.INTRA.norm>
0.134667

>  <SCORE.RESTR>
0

>  <SCORE.RESTR.CAVITY>
0

>  <SCORE.RESTR.norm>
0

>  <SCORE.SYSTEM>
0

>  <SCORE.SYSTEM.CONST>
0

>  <SCORE.SYSTEM.DIHEDRAL>
0

>  <SCORE.SYSTEM.SOLV>
0

>  <SCORE.SYSTEM.norm>
0

>  <SCORE.heavy>
16

>  <SCORE.norm>
-0.788339

>  <RMSD>
40.683

$$$$
ligand
 OpenBabel11021811433D
libRbt.so/2013.1/901 2013/11/27
 16 16  0  0  0  0  0  0  0  0999 V2000
    9.7102    1.8293   -1.3177 P   0  0  2  0  0  0  0  0  0  0  0  0
   11.0910    1.3349   -1.0913 O   0  0  0  0  0  0  0  0  0  0  0  0
    9.5332    2.2214   -2.8684 O   0  5  0  0  0  0  0  0  0  0  0  0
    9.4707    3.1358   -0.4070 O   0  0  0  0  0  0  0  0  0  0  0  0
    9.8579   -3.1135   -0.6717 C   0  0  2  0  0  0  0  0  0  0  0  0
    8.7600   -3.8897   -0.1592 O   0  0  0  0  0  0  0  0  0  0  0  0
   11.1176   -3.2887    0.2146 C   0  0  2  0  0  0  0  0  0  0  0  0
   11.4843   -4.7079    0.2874 O   0  0  0  0  0  0  0  0  0  0  0  0
   10.7970   -2.7667    1.6278 C   0  0  1  0  0  0  0  0  0  0  0  0
   11.9473   -2.9100    2.4697 O   0  0  0  0  0  0  0  0  0  0  0  0
   10.4166   -1.2820    1.5168 C   0  0  2  0  0  0  0  0  0  0  0  0
   10.0997   -0.7706    2.8293 O   0  0  0  0  0  0  0  0  0  0  0  0
    9.1778   -1.1597    0.5871 C   0  0  2  0  0  0  0  0  0  0  0  0
    9.4916   -1.6949   -0.7351 O   0  0  0  0  0  0  0  0  0  0  0  0
    8.8104    0.3284    0.4438 C   0  0  0  0  0  0  0  0  0  0  0  0
    8.6343    0.6743   -0.9355 O   0  0  0  0  0  0  0  0  0  0  0  0
  1  2  1  1  0  0  0
  1  3  1  0  0  0  0
  1  4  2  0  0  0  0
  1 16  1  0  0  0  0
  5  6  1  1  0  0  0
  5  7  1  0  0  0  0
  5 14  1  0  0  0  0
  7  8  1  1  0  0  0
  7  9  1  0  0  0  0
  9 10  1  1  0  0  0
  9 11  1  0  0  0  0
 11 12  1  1  0  0  0
 11 13  1  0  0  0  0
 13 14  1  0  0  0  0
 13 15  1  6  0  0  0
 15 16  1  0  0  0  0
M  CHG  1   3  -1
M  END
>  <CHROM.1>
130.84547112,-119.68830445,59.62089932,10.00129982,-0.76977265,-0.00676305
2.20174358,-1.24259668,0.20283934

>  <Name>
ligand

>  <RI>
0

>  <Rbt.Current_Directory>
/home/itssahil/PROJECTS/Mol_Feturizer/New_Systems/rnas/2HO7

>  <Rbt.Executable>
rbdock ($Id: //depot/dev/client3/rdock/2013.1/src/exe/rbdock.cxx#4 $)

>  <Rbt.Library>
libRbt.so (2013.1, Build901 2013/11/27)

>  <Rbt.Parameter_File>
/export/apps/rDock/src/rDock_2013.1_src/data/scripts/dock_solv.prm

>  <Rbt.Receptor>
prm/blind_docking_100.prm

>  <SCORE>
-11.4116

>  <SCORE.INTER>
-17.5722

>  <SCORE.INTER.CONST>
1

>  <SCORE.INTER.POLAR>
-2.54558

>  <SCORE.INTER.ROT>
3

>  <SCORE.INTER.SOLV>
21.2401

>  <SCORE.INTER.VDW>
-15.9096

>  <SCORE.INTER.norm>
-1.09826

>  <SCORE.INTRA>
6.16057

>  <SCORE.INTRA.DIHEDRAL>
12.0572

>  <SCORE.INTRA.DIHEDRAL.0>
0.00893466

>  <SCORE.INTRA.POLAR>
0

>  <SCORE.INTRA.POLAR.0>
0

>  <SCORE.INTRA.REPUL>
0

>  <SCORE.INTRA.REPUL.0>
0

>  <SCORE.INTRA.SOLV>
0.702315

>  <SCORE.INTRA.SOLV.lig_0>
-48.9722

>  <SCORE.INTRA.VDW>
-0.2192

>  <SCORE.INTRA.VDW.0>
-0.529409

>  <SCORE.INTRA.norm>
0.385036

>  <SCORE.RESTR>
0

>  <SCORE.RESTR.CAVITY>
0

>  <SCORE.RESTR.norm>
0

>  <SCORE.SYSTEM>
0

>  <SCORE.SYSTEM.CONST>
0

>  <SCORE.SYSTEM.DIHEDRAL>
0

>  <SCORE.SYSTEM.SOLV>
0

>  <SCORE.SYSTEM.norm>
0

>  <SCORE.heavy>
16

>  <SCORE.norm>
-0.713228

>  <RMSD>
40.684

$$$$
ligand
 OpenBabel11021811433D
libRbt.so/2013.1/901 2013/11/27
 16 16  0  0  0  0  0  0  0  0999 V2000
    9.7289    1.8512   -1.2591 P   0  0  2  0  0  0  0  0  0  0  0  0
    9.5091    2.9601   -0.2977 O   0  0  0  0  0  0  0  0  0  0  0  0
    9.5553    2.4058   -2.7597 O   0  5  0  0  0  0  0  0  0  0  0  0
    8.6340    0.7023   -0.9856 O   0  0  0  0  0  0  0  0  0  0  0  0
    9.6027   -2.8606   -0.9894 C   0  0  2  0  0  0  0  0  0  0  0  0
    9.9830   -2.9016    0.3979 O   0  0  0  0  0  0  0  0  0  0  0  0
   10.3911   -3.9147   -1.8081 C   0  0  2  0  0  0  0  0  0  0  0  0
   10.1599   -5.2537   -1.2535 O   0  0  0  0  0  0  0  0  0  0  0  0
   11.8912   -3.5752   -1.7256 C   0  0  1  0  0  0  0  0  0  0  0  0
   12.6464   -4.5307   -2.4800 O   0  0  0  0  0  0  0  0  0  0  0  0
   12.0988   -2.1700   -2.3117 C   0  0  2  0  0  0  0  0  0  0  0  0
   13.4981   -1.8225   -2.2354 O   0  0  0  0  0  0  0  0  0  0  0  0
   11.2565   -1.1616   -1.4824 C   0  0  2  0  0  0  0  0  0  0  0  0
    9.8429   -1.5241   -1.5430 O   0  0  0  0  0  0  0  0  0  0  0  0
   11.4327    0.2444   -2.0841 C   0  0  0  0  0  0  0  0  0  0  0  0
   11.2277    1.2505   -1.0847 O   0  0  0  0  0  0  0  0  0  0  0  0
  1  2  1  1  0  0  0
  1  3  1  0  0  0  0
  1  4  2  0  0  0  0
  1 16  1  0  0  0  0
  5  6  1  1  0  0  0
  5  7  1  0  0  0  0
  5 14  1  0  0  0  0
  7  8  1  1  0  0  0
  7  9  1  0  0  0  0
  9 10  1  6  0  0  0
  9 11  1  0  0  0  0
 11 12  1  1  0  0  0
 11 13  1  0  0  0  0
 13 14  1  0  0  0  0
 13 15  1  6  0  0  0
 15 16  1  0  0  0  0
M  CHG  1   3  -1
M  END
>  <CHROM.1>
-153.37874623,-100.54794626,-176.29202056,10.63293142,-1.01056340,-1.46551268
1.86635468,0.45548189,-0.07389291

>  <Name>
ligand

>  <RI>
0

>  <Rbt.Current_Directory>
/home/itssahil/PROJECTS/Mol_Feturizer/New_Systems/rnas/2HO7

>  <Rbt.Executable>
rbdock ($Id: //depot/dev/client3/rdock/2013.1/src/exe/rbdock.cxx#4 $)

>  <Rbt.Library>
libRbt.so (2013.1, Build901 2013/11/27)

>  <Rbt.Parameter_File>
/export/apps/rDock/src/rDock_2013.1_src/data/scripts/dock_solv.prm

>  <Rbt.Receptor>
prm/blind_docking_40.prm

>  <SCORE>
-14.4765

>  <SCORE.INTER>
-19.7578

>  <SCORE.INTER.CONST>
1

>  <SCORE.INTER.POLAR>
-2.86378

>  <SCORE.INTER.ROT>
3

>  <SCORE.INTER.SOLV>
17.6944

>  <SCORE.INTER.VDW>
-15.1241

>  <SCORE.INTER.norm>
-1.23486

>  <SCORE.INTRA>
5.28135

>  <SCORE.INTRA.DIHEDRAL>
7.67585

>  <SCORE.INTRA.DIHEDRAL.0>
0.00893466

>  <SCORE.INTRA.POLAR>
0

>  <SCORE.INTRA.POLAR.0>
0

>  <SCORE.INTRA.REPUL>
0

>  <SCORE.INTRA.REPUL.0>
0

>  <SCORE.INTRA.SOLV>
3.6312

>  <SCORE.INTRA.SOLV.lig_0>
-48.9722

>  <SCORE.INTRA.VDW>
-0.372167

>  <SCORE.INTRA.VDW.0>
-0.529409

>  <SCORE.INTRA.norm>
0.330085

>  <SCORE.RESTR>
0

>  <SCORE.RESTR.CAVITY>
0

>  <SCORE.RESTR.norm>
0

>  <SCORE.SYSTEM>
0

>  <SCORE.SYSTEM.CONST>
0

>  <SCORE.SYSTEM.DIHEDRAL>
0

>  <SCORE.SYSTEM.SOLV>
0

>  <SCORE.SYSTEM.norm>
0

>  <SCORE.heavy>
16

>  <SCORE.norm>
-0.904779

>  <RMSD>
40.684

$$$$
ligand
 OpenBabel11021811433D
libRbt.so/2013.1/901 2013/11/27
 16 16  0  0  0  0  0  0  0  0999 V2000
    9.4859   -1.5727    0.7494 P   0  0  2  0  0  0  0  0  0  0  0  0
    9.4544   -1.7871   -0.7187 O   0  0  0  0  0  0  0  0  0  0  0  0
   10.7545   -2.3423    1.3724 O   0  5  0  0  0  0  0  0  0  0  0  0
    8.1338   -2.1685    1.3902 O   0  0  0  0  0  0  0  0  0  0  0  0
   10.1936    0.4208   -3.5014 C   0  0  2  0  0  0  0  0  0  0  0  0
   11.4982   -0.1369   -3.2610 O   0  0  0  0  0  0  0  0  0  0  0  0
   10.2958    1.9237   -3.8673 C   0  0  2  0  0  0  0  0  0  0  0  0
   11.1506    2.0937   -5.0482 O   0  0  0  0  0  0  0  0  0  0  0  0
   10.9120    2.6764   -2.6731 C   0  0  1  0  0  0  0  0  0  0  0  0
   11.0132    4.0721   -2.9801 O   0  0  0  0  0  0  0  0  0  0  0  0
    9.9958    2.4778   -1.4555 C   0  0  2  0  0  0  0  0  0  0  0  0
   10.5582    3.1655   -0.3172 O   0  0  0  0  0  0  0  0  0  0  0  0
    9.8952    0.9561   -1.1585 C   0  0  2  0  0  0  0  0  0  0  0  0
    9.3447    0.2572   -2.3168 O   0  0  0  0  0  0  0  0  0  0  0  0
    8.9520    0.7461    0.0400 C   0  0  0  0  0  0  0  0  0  0  0  0
    9.6116    0.0126    1.0791 O   0  0  0  0  0  0  0  0  0  0  0  0
  1  2  1  6  0  0  0
  1  3  1  0  0  0  0
  1  4  2  0  0  0  0
  1 16  1  0  0  0  0
  5  6  1  1  0  0  0
  5  7  1  0  0  0  0
  5 14  1  0  0  0  0
  7  8  1  6  0  0  0
  7  9  1  0  0  0  0
  9 10  1  6  0  0  0
  9 11  1  0  0  0  0
 11 12  1  1  0  0  0
 11 13  1  0  0  0  0
 13 14  1  0  0  0  0
 13 15  1  1  0  0  0
 15 16  1  0  0  0  0
M  CHG  1   3  -1
M  END
>  <CHROM.1>
-124.10058487,-84.24111775,31.18222094,10.04136084,0.48203251,-1.23495715
-2.73946201,1.31717247,0.34777592

>  <Name>
ligand

>  <RI>
0

>  <Rbt.Current_Directory>
/home/itssahil/PROJECTS/Mol_Feturizer/New_Systems/rnas/2HO7

>  <Rbt.Executable>
rbdock ($Id: //depot/dev/client3/rdock/2013.1/src/exe/rbdock.cxx#4 $)

>  <Rbt.Library>
libRbt.so (2013.1, Build901 2013/11/27)

>  <Rbt.Parameter_File>
/export/apps/rDock/src/rDock_2013.1_src/data/scripts/dock_solv.prm

>  <Rbt.Receptor>
prm/blind_docking_80.prm

>  <SCORE>
-15.6033

>  <SCORE.INTER>
-21.2317

>  <SCORE.INTER.CONST>
1

>  <SCORE.INTER.POLAR>
-2.54558

>  <SCORE.INTER.ROT>
3

>  <SCORE.INTER.SOLV>
19.4183

>  <SCORE.INTER.VDW>
-17.7419

>  <SCORE.INTER.norm>
-1.32698

>  <SCORE.INTRA>
5.62646

>  <SCORE.INTRA.DIHEDRAL>
8.86834

>  <SCORE.INTRA.DIHEDRAL.0>
0.00893466

>  <SCORE.INTRA.POLAR>
0

>  <SCORE.INTRA.POLAR.0>
0

>  <SCORE.INTRA.REPUL>
0

>  <SCORE.INTRA.REPUL.0>
0

>  <SCORE.INTRA.SOLV>
0.80407

>  <SCORE.INTRA.SOLV.lig_0>
-48.9722

>  <SCORE.INTRA.VDW>
0.790259

>  <SCORE.INTRA.VDW.0>
-0.529409

>  <SCORE.INTRA.norm>
0.351654

>  <SCORE.RESTR>
0.00188899

>  <SCORE.RESTR.CAVITY>
0.00188899

>  <SCORE.RESTR.norm>
0.000118062

>  <SCORE.SYSTEM>
0

>  <SCORE.SYSTEM.CONST>
0

>  <SCORE.SYSTEM.DIHEDRAL>
0

>  <SCORE.SYSTEM.SOLV>
0

>  <SCORE.SYSTEM.norm>
0

>  <SCORE.heavy>
16

>  <SCORE.norm>
-0.975208

>  <RMSD>
40.684

$$$$
ligand
 OpenBabel11021811433D
libRbt.so/2013.1/901 2013/11/27
 16 16  0  0  0  0  0  0  0  0999 V2000
    9.0669   -1.4494    1.1369 P   0  0  2  0  0  0  0  0  0  0  0  0
    8.9749   -2.3335    2.3253 O   0  0  0  0  0  0  0  0  0  0  0  0
    7.6420   -1.4121    0.3900 O   0  5  0  0  0  0  0  0  0  0  0  0
   10.1789   -2.0419    0.1339 O   0  0  0  0  0  0  0  0  0  0  0  0
   10.4724   -0.0992   -2.7136 C   0  0  2  0  0  0  0  0  0  0  0  0
   11.8273   -0.3720   -2.3128 O   0  0  0  0  0  0  0  0  0  0  0  0
   10.3835    1.2493   -3.4731 C   0  0  2  0  0  0  0  0  0  0  0  0
   11.2681    1.2230   -4.6439 O   0  0  0  0  0  0  0  0  0  0  0  0
   10.8240    2.3765   -2.5203 C   0  0  1  0  0  0  0  0  0  0  0  0
   10.7458    3.6385   -3.1940 O   0  0  0  0  0  0  0  0  0  0  0  0
    9.8806    2.3763   -1.3073 C   0  0  2  0  0  0  0  0  0  0  0  0
   10.2799    3.4187   -0.3914 O   0  0  0  0  0  0  0  0  0  0  0  0
    9.9775    0.9917   -0.6090 C   0  0  2  0  0  0  0  0  0  0  0  0
    9.5925   -0.0649   -1.5410 O   0  0  0  0  0  0  0  0  0  0  0  0
    9.0100    0.9715    0.5884 C   0  0  0  0  0  0  0  0  0  0  0  0
    9.4679    0.0571    1.5920 O   0  0  0  0  0  0  0  0  0  0  0  0
  1  2  1  1  0  0  0
  1  3  1  0  0  0  0
  1  4  2  0  0  0  0
  1 16  1  0  0  0  0
  5  6  1  1  0  0  0
  5  7  1  0  0  0  0
  5 14  1  0  0  0  0
  7  8  1  6  0  0  0
  7  9  1  0  0  0  0
  9 10  1  6  0  0  0
  9 11  1  0  0  0  0
 11 12  1  1  0  0  0
 11 13  1  0  0  0  0
 13 14  1  0  0  0  0
 13 15  1  1  0  0  0
 15 16  1  0  0  0  0
M  CHG  1   3  -1
M  END
>  <CHROM.1>
-153.07315980,-79.46740508,-155.79098035,9.90897977,0.36325309,-0.85443554
-2.48862427,1.17001850,-0.00041866

>  <Name>
ligand

>  <RI>
0

>  <Rbt.Current_Directory>
/home/itssahil/PROJECTS/Mol_Feturizer/New_Systems/rnas/2HO7

>  <Rbt.Executable>
rbdock ($Id: //depot/dev/client3/rdock/2013.1/src/exe/rbdock.cxx#4 $)

>  <Rbt.Library>
libRbt.so (2013.1, Build901 2013/11/27)

>  <Rbt.Parameter_File>
/export/apps/rDock/src/rDock_2013.1_src/data/scripts/dock_solv.prm

>  <Rbt.Receptor>
prm/blind_docking_80.prm

>  <SCORE>
-19.5305

>  <SCORE.INTER>
-24.5619

>  <SCORE.INTER.CONST>
1

>  <SCORE.INTER.POLAR>
-2.86378

>  <SCORE.INTER.ROT>
3

>  <SCORE.INTER.SOLV>
17.2048

>  <SCORE.INTER.VDW>
-18.1636

>  <SCORE.INTER.norm>
-1.53512

>  <SCORE.INTRA>
5.0314

>  <SCORE.INTRA.DIHEDRAL>
4.76036

>  <SCORE.INTRA.DIHEDRAL.0>
0.00893466

>  <SCORE.INTRA.POLAR>
0

>  <SCORE.INTRA.POLAR.0>
0

>  <SCORE.INTRA.REPUL>
0

>  <SCORE.INTRA.REPUL.0>
0

>  <SCORE.INTRA.SOLV>
5.52238

>  <SCORE.INTRA.SOLV.lig_0>
-48.9722

>  <SCORE.INTRA.VDW>
-0.109975

>  <SCORE.INTRA.VDW.0>
-0.529409

>  <SCORE.INTRA.norm>
0.314462

>  <SCORE.RESTR>
0

>  <SCORE.RESTR.CAVITY>
0

>  <SCORE.RESTR.norm>
0

>  <SCORE.SYSTEM>
0

>  <SCORE.SYSTEM.CONST>
0

>  <SCORE.SYSTEM.DIHEDRAL>
0

>  <SCORE.SYSTEM.SOLV>
0

>  <SCORE.SYSTEM.norm>
0

>  <SCORE.heavy>
16

>  <SCORE.norm>
-1.22066

>  <RMSD>
40.685

$$$$
ligand
 OpenBabel11021811433D
libRbt.so/2013.1/901 2013/11/27
 16 16  0  0  0  0  0  0  0  0999 V2000
    9.0780   -1.3987    1.2005 P   0  0  2  0  0  0  0  0  0  0  0  0
   10.2359   -1.7863    0.3572 O   0  0  0  0  0  0  0  0  0  0  0  0
    9.0425   -2.3269    2.5146 O   0  5  0  0  0  0  0  0  0  0  0  0
    7.7242   -1.6182    0.3563 O   0  0  0  0  0  0  0  0  0  0  0  0
   10.5636   -0.0930   -2.5636 C   0  0  2  0  0  0  0  0  0  0  0  0
   11.8954   -0.2621   -2.0455 O   0  0  0  0  0  0  0  0  0  0  0  0
   10.4518    1.2217   -3.3773 C   0  0  2  0  0  0  0  0  0  0  0  0
   11.4299    1.2171   -4.4716 O   0  0  0  0  0  0  0  0  0  0  0  0
   10.7394    2.4055   -2.4348 C   0  0  1  0  0  0  0  0  0  0  0  0
   10.6367    3.6374   -3.1590 O   0  0  0  0  0  0  0  0  0  0  0  0
    9.7012    2.3810   -1.3022 C   0  0  2  0  0  0  0  0  0  0  0  0
    9.9562    3.4763   -0.3966 O   0  0  0  0  0  0  0  0  0  0  0  0
    9.8282    1.0289   -0.5474 C   0  0  2  0  0  0  0  0  0  0  0  0
    9.5896   -0.0801   -1.4674 O   0  0  0  0  0  0  0  0  0  0  0  0
    8.7685    0.9825    0.5684 C   0  0  0  0  0  0  0  0  0  0  0  0
    9.2118    0.1558    1.6515 O   0  0  0  0  0  0  0  0  0  0  0  0
  1  2  1  6  0  0  0
  1  3  1  0  0  0  0
  1  4  2  0  0  0  0
  1 16  1  0  0  0  0
  5  6  1  1  0  0  0
  5  7  1  0  0  0  0
  5 14  1  0  0  0  0
  7  8  1  6  0  0  0
  7  9  1  0  0  0  0
  9 10  1  6  0  0  0
  9 11  1  0  0  0  0
 11 12  1  1  0  0  0
 11 13  1  0  0  0  0
 13 14  1  0  0  0  0
 13 15  1  1  0  0  0
 15 16  1  0  0  0  0
M  CHG  1   3  -1
M  END
>  <CHROM.1>
-151.83547373,-75.16722613,80.54960130,9.86793374,0.39148376,-0.76560011
-2.31688995,1.10297413,-0.18984395

>  <Name>
ligand

>  <RI>
0

>  <Rbt.Current_Directory>
/home/itssahil/PROJECTS/Mol_Feturizer/New_Systems/rnas/2HO7

>  <Rbt.Executable>
rbdock ($Id: //depot/dev/client3/rdock/2013.1/src/exe/rbdock.cxx#4 $)

>  <Rbt.Library>
libRbt.so (2013.1, Build901 2013/11/27)

>  <Rbt.Parameter_File>
/export/apps/rDock/src/rDock_2013.1_src/data/scripts/dock_solv.prm

>  <Rbt.Receptor>
prm/blind_docking_40.prm

>  <SCORE>
-19.7634

>  <SCORE.INTER>
-23.2383

>  <SCORE.INTER.CONST>
1

>  <SCORE.INTER.POLAR>
-2.86378

>  <SCORE.INTER.ROT>
3

>  <SCORE.INTER.SOLV>
20.6482

>  <SCORE.INTER.VDW>
-18.429

>  <SCORE.INTER.norm>
-1.45239

>  <SCORE.INTRA>
3.46016

>  <SCORE.INTRA.DIHEDRAL>
4.08161

>  <SCORE.INTRA.DIHEDRAL.0>
0.00893466

>  <SCORE.INTRA.POLAR>
0

>  <SCORE.INTRA.POLAR.0>
0

>  <SCORE.INTRA.REPUL>
0

>  <SCORE.INTRA.REPUL.0>
0

>  <SCORE.INTRA.SOLV>
2.69329

>  <SCORE.INTRA.SOLV.lig_0>
-48.9722

>  <SCORE.INTRA.VDW>
0.0727094

>  <SCORE.INTRA.VDW.0>
-0.529409

>  <SCORE.INTRA.norm>
0.21626

>  <SCORE.RESTR>
0.0147708

>  <SCORE.RESTR.CAVITY>
0.0147708

>  <SCORE.RESTR.norm>
0.000923176

>  <SCORE.SYSTEM>
0

>  <SCORE.SYSTEM.CONST>
0

>  <SCORE.SYSTEM.DIHEDRAL>
0

>  <SCORE.SYSTEM.SOLV>
0

>  <SCORE.SYSTEM.norm>
0

>  <SCORE.heavy>
16

>  <SCORE.norm>
-1.23521

>  <RMSD>
40.686

$$$$
ligand
 OpenBabel11021811433D
libRbt.so/2013.1/901 2013/11/27
 16 16  0  0  0  0  0  0  0  0999 V2000
   10.8072    1.6199   -2.4881 P   0  0  2  0  0  0  0  0  0  0  0  0
   12.0787    2.0803   -3.0993 O   0  0  0  0  0  0  0  0  0  0  0  0
    9.8495    2.8879   -2.2336 O   0  5  0  0  0  0  0  0  0  0  0  0
   11.1352    0.9089   -1.0808 O   0  0  0  0  0  0  0  0  0  0  0  0
    9.6852   -3.0484   -1.3731 C   0  0  2  0  0  0  0  0  0  0  0  0
   10.1037   -2.4519   -0.1322 O   0  0  0  0  0  0  0  0  0  0  0  0
   10.6091   -4.2336   -1.7538 C   0  0  2  0  0  0  0  0  0  0  0  0
   10.6082   -5.2334   -0.6794 O   0  0  0  0  0  0  0  0  0  0  0  0
   12.0379   -3.6943   -1.9540 C   0  0  1  0  0  0  0  0  0  0  0  0
   12.9151   -4.7684   -2.3140 O   0  0  0  0  0  0  0  0  0  0  0  0
   12.0041   -2.6514   -3.0821 C   0  0  2  0  0  0  0  0  0  0  0  0
   13.3321   -2.1210   -3.2822 O   0  0  0  0  0  0  0  0  0  0  0  0
   11.0346   -1.5101   -2.6681 C   0  0  2  0  0  0  0  0  0  0  0  0
    9.6954   -2.0492   -2.4463 O   0  0  0  0  0  0  0  0  0  0  0  0
   10.9694   -0.4771   -3.8077 C   0  0  0  0  0  0  0  0  0  0  0  0
   10.0560    0.5776   -3.4814 O   0  0  0  0  0  0  0  0  0  0  0  0
  1  2  1  6  0  0  0
  1  3  1  0  0  0  0
  1  4  2  0  0  0  0
  1 16  1  0  0  0  0
  5  6  1  1  0  0  0
  5  7  1  0  0  0  0
  5 14  1  0  0  0  0
  7  8  1  1  0  0  0
  7  9  1  0  0  0  0
  9 10  1  6  0  0  0
  9 11  1  0  0  0  0
 11 12  1  1  0  0  0
 11 13  1  0  0  0  0
 13 14  1  0  0  0  0
 13 15  1  6  0  0  0
 15 16  1  0  0  0  0
M  CHG  1   3  -1
M  END
>  <CHROM.1>
178.44472500,80.05043569,54.24933163,11.04253784,-1.24482385,-2.24905241
1.68872943,0.62926298,-0.22619612

>  <Name>
ligand

>  <RI>
0

>  <Rbt.Current_Directory>
/home/itssahil/PROJECTS/Mol_Feturizer/New_Systems/rnas/2HO7

>  <Rbt.Executable>
rbdock ($Id: //depot/dev/client3/rdock/2013.1/src/exe/rbdock.cxx#4 $)

>  <Rbt.Library>
libRbt.so (2013.1, Build901 2013/11/27)

>  <Rbt.Parameter_File>
/export/apps/rDock/src/rDock_2013.1_src/data/scripts/dock_solv.prm

>  <Rbt.Receptor>
prm/blind_docking_60.prm

>  <SCORE>
-12.5979

>  <SCORE.INTER>
-14.6598

>  <SCORE.INTER.CONST>
1

>  <SCORE.INTER.POLAR>
-1.27239

>  <SCORE.INTER.ROT>
3

>  <SCORE.INTER.SOLV>
13.5999

>  <SCORE.INTER.VDW>
-15.6652

>  <SCORE.INTER.norm>
-0.916239

>  <SCORE.INTRA>
2.06187

>  <SCORE.INTRA.DIHEDRAL>
1.86284

>  <SCORE.INTRA.DIHEDRAL.0>
0.00893466

>  <SCORE.INTRA.POLAR>
0

>  <SCORE.INTRA.POLAR.0>
0

>  <SCORE.INTRA.REPUL>
0

>  <SCORE.INTRA.REPUL.0>
0

>  <SCORE.INTRA.SOLV>
2.68147

>  <SCORE.INTRA.SOLV.lig_0>
-48.9722

>  <SCORE.INTRA.VDW>
-0.210286

>  <SCORE.INTRA.VDW.0>
-0.529409

>  <SCORE.INTRA.norm>
0.128867

>  <SCORE.RESTR>
0

>  <SCORE.RESTR.CAVITY>
0

>  <SCORE.RESTR.norm>
0

>  <SCORE.SYSTEM>
0

>  <SCORE.SYSTEM.CONST>
0

>  <SCORE.SYSTEM.DIHEDRAL>
0

>  <SCORE.SYSTEM.SOLV>
0

>  <SCORE.SYSTEM.norm>
0

>  <SCORE.heavy>
16

>  <SCORE.norm>
-0.787372

>  <RMSD>
40.692

$$$$
ligand
 OpenBabel11021811433D
libRbt.so/2013.1/901 2013/11/27
 16 16  0  0  0  0  0  0  0  0999 V2000
   10.1158    1.4563   -1.4728 P   0  0  2  0  0  0  0  0  0  0  0  0
   11.0047    1.0953   -0.3406 O   0  0  0  0  0  0  0  0  0  0  0  0
    9.9612    3.0567   -1.5384 O   0  5  0  0  0  0  0  0  0  0  0  0
    8.6696    0.7907   -1.2300 O   0  0  0  0  0  0  0  0  0  0  0  0
    9.8046   -3.5690   -1.3488 C   0  0  2  0  0  0  0  0  0  0  0  0
    9.8018   -3.0838    0.0059 O   0  0  0  0  0  0  0  0  0  0  0  0
   11.1774   -4.1930   -1.7077 C   0  0  2  0  0  0  0  0  0  0  0  0
   11.4917   -5.2808   -0.7740 O   0  0  0  0  0  0  0  0  0  0  0  0
   12.2546   -3.0971   -1.6026 C   0  0  1  0  0  0  0  0  0  0  0  0
   13.5362   -3.6439   -1.9358 O   0  0  0  0  0  0  0  0  0  0  0  0
   11.8964   -1.9751   -2.5895 C   0  0  2  0  0  0  0  0  0  0  0  0
   12.8866   -0.9278   -2.5021 O   0  0  0  0  0  0  0  0  0  0  0  0
   10.4977   -1.4146   -2.2109 C   0  0  2  0  0  0  0  0  0  0  0  0
    9.4989   -2.4781   -2.2800 O   0  0  0  0  0  0  0  0  0  0  0  0
   10.1165   -0.3122   -3.2156 C   0  0  0  0  0  0  0  0  0  0  0  0
   10.7498    0.9260   -2.8708 O   0  0  0  0  0  0  0  0  0  0  0  0
  1  2  1  1  0  0  0
  1  3  1  0  0  0  0
  1  4  2  0  0  0  0
  1 16  1  0  0  0  0
  5  6  1  1  0  0  0
  5  7  1  0  0  0  0
  5 14  1  0  0  0  0
  7  8  1  1  0  0  0
  7  9  1  0  0  0  0
  9 10  1  6  0  0  0
  9 11  1  0  0  0  0
 11 12  1  1  0  0  0
 11 13  1  0  0  0  0
 13 14  1  0  0  0  0
 13 15  1  6  0  0  0
 15 16  1  0  0  0  0
M  CHG  1   3  -1
M  END
>  <CHROM.1>
-80.84111626,-67.27111926,98.34573387,10.78763417,-1.17084964,-1.68962927
1.85350370,0.37254767,-0.13931002

>  <Name>
ligand

>  <RI>
0

>  <Rbt.Current_Directory>
/home/itssahil/PROJECTS/Mol_Feturizer/New_Systems/rnas/2HO7

>  <Rbt.Executable>
rbdock ($Id: //depot/dev/client3/rdock/2013.1/src/exe/rbdock.cxx#4 $)

>  <Rbt.Library>
libRbt.so (2013.1, Build901 2013/11/27)

>  <Rbt.Parameter_File>
/export/apps/rDock/src/rDock_2013.1_src/data/scripts/dock_solv.prm

>  <Rbt.Receptor>
prm/blind_docking_100.prm

>  <SCORE>
-12.9588

>  <SCORE.INTER>
-16.6786

>  <SCORE.INTER.CONST>
1

>  <SCORE.INTER.POLAR>
-2.86378

>  <SCORE.INTER.ROT>
3

>  <SCORE.INTER.SOLV>
18.3652

>  <SCORE.INTER.VDW>
-13.2949

>  <SCORE.INTER.norm>
-1.04241

>  <SCORE.INTRA>
3.71981

>  <SCORE.INTRA.DIHEDRAL>
3.37848

>  <SCORE.INTRA.DIHEDRAL.0>
0.00893466

>  <SCORE.INTRA.POLAR>
0

>  <SCORE.INTRA.POLAR.0>
0

>  <SCORE.INTRA.REPUL>
0

>  <SCORE.INTRA.REPUL.0>
0

>  <SCORE.INTRA.SOLV>
2.97314

>  <SCORE.INTRA.SOLV.lig_0>
-48.9722

>  <SCORE.INTRA.VDW>
0.543997

>  <SCORE.INTRA.VDW.0>
-0.529409

>  <SCORE.INTRA.norm>
0.232488

>  <SCORE.RESTR>
0

>  <SCORE.RESTR.CAVITY>
0

>  <SCORE.RESTR.norm>
0

>  <SCORE.SYSTEM>
0

>  <SCORE.SYSTEM.CONST>
0

>  <SCORE.SYSTEM.DIHEDRAL>
0

>  <SCORE.SYSTEM.SOLV>
0

>  <SCORE.SYSTEM.norm>
0

>  <SCORE.heavy>
16

>  <SCORE.norm>
-0.809927

>  <RMSD>
40.693

$$$$
ligand
 OpenBabel11021811433D
libRbt.so/2013.1/901 2013/11/27
 16 16  0  0  0  0  0  0  0  0999 V2000
    9.1603   -1.4344    0.8920 P   0  0  2  0  0  0  0  0  0  0  0  0
    9.4829   -0.9818    2.2680 O   0  0  0  0  0  0  0  0  0  0  0  0
    8.3790   -2.8395    0.9636 O   0  5  0  0  0  0  0  0  0  0  0  0
   10.5338   -1.6296    0.0742 O   0  0  0  0  0  0  0  0  0  0  0  0
   10.3014    0.3049   -3.2561 C   0  0  2  0  0  0  0  0  0  0  0  0
   11.5921   -0.2253   -2.9044 O   0  0  0  0  0  0  0  0  0  0  0  0
   10.4225    1.7713   -3.7441 C   0  0  2  0  0  0  0  0  0  0  0  0
   11.3350    1.8426   -4.8914 O   0  0  0  0  0  0  0  0  0  0  0  0
   10.9790    2.6258   -2.5898 C   0  0  1  0  0  0  0  0  0  0  0  0
   11.0961    3.9904   -3.0101 O   0  0  0  0  0  0  0  0  0  0  0  0
   10.0034    2.5289   -1.4066 C   0  0  2  0  0  0  0  0  0  0  0  0
   10.5089    3.3137   -0.3050 O   0  0  0  0  0  0  0  0  0  0  0  0
    9.8873    1.0379   -0.9854 C   0  0  2  0  0  0  0  0  0  0  0  0
    9.3946    0.2402   -2.1054 O   0  0  0  0  0  0  0  0  0  0  0  0
    8.8856    0.9279    0.1784 C   0  0  0  0  0  0  0  0  0  0  0  0
    8.2172   -0.3392    0.1512 O   0  0  0  0  0  0  0  0  0  0  0  0
  1  2  1  1  0  0  0
  1  3  1  0  0  0  0
  1  4  2  0  0  0  0
  1 16  1  0  0  0  0
  5  6  1  1  0  0  0
  5  7  1  0  0  0  0
  5 14  1  0  0  0  0
  7  8  1  6  0  0  0
  7  9  1  0  0  0  0
  9 10  1  6  0  0  0
  9 11  1  0  0  0  0
 11 12  1  1  0  0  0
 11 13  1  0  0  0  0
 13 14  1  0  0  0  0
 13 15  1  1  0  0  0
 15 16  1  0  0  0  0
M  CHG  1   3  -1
M  END
>  <CHROM.1>
149.68848290,83.76506233,56.04079490,9.95174472,0.51233860,-1.10985068,-2.69612213
1.22396045,0.27019726

>  <Name>
ligand

>  <RI>
0

>  <Rbt.Current_Directory>
/home/itssahil/PROJECTS/Mol_Feturizer/New_Systems/rnas/2HO7

>  <Rbt.Executable>
rbdock ($Id: //depot/dev/client3/rdock/2013.1/src/exe/rbdock.cxx#4 $)

>  <Rbt.Library>
libRbt.so (2013.1, Build901 2013/11/27)

>  <Rbt.Parameter_File>
/export/apps/rDock/src/rDock_2013.1_src/data/scripts/dock_solv.prm

>  <Rbt.Receptor>
prm/blind_docking_60.prm

>  <SCORE>
-19.607

>  <SCORE.INTER>
-23.5754

>  <SCORE.INTER.CONST>
1

>  <SCORE.INTER.POLAR>
-2.54558

>  <SCORE.INTER.ROT>
3

>  <SCORE.INTER.SOLV>
19.0587

>  <SCORE.INTER.VDW>
-19.1846

>  <SCORE.INTER.norm>
-1.47346

>  <SCORE.INTRA>
3.94041

>  <SCORE.INTRA.DIHEDRAL>
5.14725

>  <SCORE.INTRA.DIHEDRAL.0>
0.00893466

>  <SCORE.INTRA.POLAR>
0

>  <SCORE.INTRA.POLAR.0>
0

>  <SCORE.INTRA.REPUL>
0

>  <SCORE.INTRA.REPUL.0>
0

>  <SCORE.INTRA.SOLV>
3.11004

>  <SCORE.INTRA.SOLV.lig_0>
-48.9722

>  <SCORE.INTRA.VDW>
-0.188235

>  <SCORE.INTRA.VDW.0>
-0.529409

>  <SCORE.INTRA.norm>
0.246275

>  <SCORE.RESTR>
0.0279549

>  <SCORE.RESTR.CAVITY>
0.0279549

>  <SCORE.RESTR.norm>
0.00174718

>  <SCORE.SYSTEM>
0

>  <SCORE.SYSTEM.CONST>
0

>  <SCORE.SYSTEM.DIHEDRAL>
0

>  <SCORE.SYSTEM.SOLV>
0

>  <SCORE.SYSTEM.norm>
0

>  <SCORE.heavy>
16

>  <SCORE.norm>
-1.22544

>  <RMSD>
40.696

$$$$
ligand
 OpenBabel11021811433D
libRbt.so/2013.1/901 2013/11/27
 16 16  0  0  0  0  0  0  0  0999 V2000
    9.7352    1.8231   -1.3887 P   0  0  2  0  0  0  0  0  0  0  0  0
    8.7128    0.7614   -1.2170 O   0  0  0  0  0  0  0  0  0  0  0  0
    9.4784    2.9885   -0.3090 O   0  5  0  0  0  0  0  0  0  0  0  0
    9.6052    2.4340   -2.8731 O   0  0  0  0  0  0  0  0  0  0  0  0
    9.5937   -2.8904   -0.9572 C   0  0  2  0  0  0  0  0  0  0  0  0
    9.9783   -2.8995    0.4294 O   0  0  0  0  0  0  0  0  0  0  0  0
   10.3734   -3.9688   -1.7524 C   0  0  2  0  0  0  0  0  0  0  0  0
   10.1365   -5.2925   -1.1642 O   0  0  0  0  0  0  0  0  0  0  0  0
   11.8757   -3.6360   -1.6829 C   0  0  1  0  0  0  0  0  0  0  0  0
   12.6229   -4.6141   -2.4160 O   0  0  0  0  0  0  0  0  0  0  0  0
   12.0892   -2.2468   -2.3040 C   0  0  2  0  0  0  0  0  0  0  0  0
   13.4908   -1.9055   -2.2407 O   0  0  0  0  0  0  0  0  0  0  0  0
   11.2554   -1.2136   -1.4971 C   0  0  2  0  0  0  0  0  0  0  0  0
    9.8396   -1.5693   -1.5443 O   0  0  0  0  0  0  0  0  0  0  0  0
   11.4375    0.1762   -2.1337 C   0  0  0  0  0  0  0  0  0  0  0  0
   11.2214    1.2082   -1.1634 O   0  0  0  0  0  0  0  0  0  0  0  0
  1  2  1  1  0  0  0
  1  3  1  0  0  0  0
  1  4  2  0  0  0  0
  1 16  1  0  0  0  0
  5  6  1  1  0  0  0
  5  7  1  0  0  0  0
  5 14  1  0  0  0  0
  7  8  1  1  0  0  0
  7  9  1  0  0  0  0
  9 10  1  6  0  0  0
  9 11  1  0  0  0  0
 11 12  1  1  0  0  0
 11 13  1  0  0  0  0
 13 14  1  0  0  0  0
 13 15  1  6  0  0  0
 15 16  1  0  0  0  0
M  CHG  1   3  -1
M  END
>  <CHROM.1>
-154.26434209,-101.65337897,60.26182297,10.63311155,-1.04279569,-1.49388046
1.86005030,0.46305089,-0.10080362

>  <Name>
ligand

>  <RI>
0

>  <Rbt.Current_Directory>
/home/itssahil/PROJECTS/Mol_Feturizer/New_Systems/rnas/2HO7

>  <Rbt.Executable>
rbdock ($Id: //depot/dev/client3/rdock/2013.1/src/exe/rbdock.cxx#4 $)

>  <Rbt.Library>
libRbt.so (2013.1, Build901 2013/11/27)

>  <Rbt.Parameter_File>
/export/apps/rDock/src/rDock_2013.1_src/data/scripts/dock_solv.prm

>  <Rbt.Receptor>
prm/blind_docking_80.prm

>  <SCORE>
-13.282

>  <SCORE.INTER>
-17.227

>  <SCORE.INTER.CONST>
1

>  <SCORE.INTER.POLAR>
-2.54377

>  <SCORE.INTER.ROT>
3

>  <SCORE.INTER.SOLV>
19.8394

>  <SCORE.INTER.VDW>
-15.2186

>  <SCORE.INTER.norm>
-1.07669

>  <SCORE.INTRA>
3.94503

>  <SCORE.INTRA.DIHEDRAL>
7.70792

>  <SCORE.INTRA.DIHEDRAL.0>
0.00893466

>  <SCORE.INTRA.POLAR>
0

>  <SCORE.INTRA.POLAR.0>
0

>  <SCORE.INTRA.REPUL>
0

>  <SCORE.INTRA.REPUL.0>
0

>  <SCORE.INTRA.SOLV>
0.820143

>  <SCORE.INTRA.SOLV.lig_0>
-48.9722

>  <SCORE.INTRA.VDW>
-0.318999

>  <SCORE.INTRA.VDW.0>
-0.529409

>  <SCORE.INTRA.norm>
0.246564

>  <SCORE.RESTR>
0

>  <SCORE.RESTR.CAVITY>
0

>  <SCORE.RESTR.norm>
0

>  <SCORE.SYSTEM>
0

>  <SCORE.SYSTEM.CONST>
0

>  <SCORE.SYSTEM.DIHEDRAL>
0

>  <SCORE.SYSTEM.SOLV>
0

>  <SCORE.SYSTEM.norm>
0

>  <SCORE.heavy>
16

>  <SCORE.norm>
-0.830126

>  <RMSD>
40.696

$$$$
ligand
 OpenBabel11021811433D
libRbt.so/2013.1/901 2013/11/27
 16 16  0  0  0  0  0  0  0  0999 V2000
    9.8999    1.5557   -0.8396 P   0  0  2  0  0  0  0  0  0  0  0  0
    8.7235    0.7837   -1.3111 O   0  0  0  0  0  0  0  0  0  0  0  0
    9.4002    2.7779    0.0803 O   0  5  0  0  0  0  0  0  0  0  0  0
   10.6853    2.1384   -2.1191 O   0  0  0  0  0  0  0  0  0  0  0  0
    9.1528   -3.1182   -0.8404 C   0  0  2  0  0  0  0  0  0  0  0  0
    8.2705   -3.7393    0.1117 O   0  0  0  0  0  0  0  0  0  0  0  0
   10.5295   -3.8304   -0.8618 C   0  0  2  0  0  0  0  0  0  0  0  0
   10.3521   -5.2521   -1.1801 O   0  0  0  0  0  0  0  0  0  0  0  0
   11.1733   -3.6910    0.5305 C   0  0  1  0  0  0  0  0  0  0  0  0
   12.4527   -4.3355    0.5395 O   0  0  0  0  0  0  0  0  0  0  0  0
   11.3438   -2.1942    0.8333 C   0  0  2  0  0  0  0  0  0  0  0  0
   11.9360   -2.0356    2.1406 O   0  0  0  0  0  0  0  0  0  0  0  0
    9.9429   -1.5230    0.8014 C   0  0  2  0  0  0  0  0  0  0  0  0
    9.3350   -1.7000   -0.5148 O   0  0  0  0  0  0  0  0  0  0  0  0
   10.1086   -0.0164    1.0709 C   0  0  0  0  0  0  0  0  0  0  0  0
   10.8809    0.6001    0.0334 O   0  0  0  0  0  0  0  0  0  0  0  0
  1  2  1  6  0  0  0
  1  3  1  0  0  0  0
  1  4  2  0  0  0  0
  1 16  1  0  0  0  0
  5  6  1  1  0  0  0
  5  7  1  0  0  0  0
  5 14  1  0  0  0  0
  7  8  1  1  0  0  0
  7  9  1  0  0  0  0
  9 10  1  6  0  0  0
  9 11  1  0  0  0  0
 11 12  1  1  0  0  0
 11 13  1  0  0  0  0
 13 14  1  0  0  0  0
 13 15  1  6  0  0  0
 15 16  1  0  0  0  0
M  CHG  1   3  -1
M  END
>  <CHROM.1>
63.25500096,110.10082963,-53.49861752,10.23176551,-1.22455406,-0.15927095
1.75764975,-0.71688651,-0.01105881

>  <Name>
ligand

>  <RI>
0

>  <Rbt.Current_Directory>
/home/itssahil/PROJECTS/Mol_Feturizer/New_Systems/rnas/2HO7

>  <Rbt.Executable>
rbdock ($Id: //depot/dev/client3/rdock/2013.1/src/exe/rbdock.cxx#4 $)

>  <Rbt.Library>
libRbt.so (2013.1, Build901 2013/11/27)

>  <Rbt.Parameter_File>
/export/apps/rDock/src/rDock_2013.1_src/data/scripts/dock_solv.prm

>  <Rbt.Receptor>
prm/blind_docking_80.prm

>  <SCORE>
-14.0802

>  <SCORE.INTER>
-17.5688

>  <SCORE.INTER.CONST>
1

>  <SCORE.INTER.POLAR>
-2.54558

>  <SCORE.INTER.ROT>
3

>  <SCORE.INTER.SOLV>
16.0303

>  <SCORE.INTER.VDW>
-14.1707

>  <SCORE.INTER.norm>
-1.09805

>  <SCORE.INTRA>
3.48865

>  <SCORE.INTRA.DIHEDRAL>
6.82463

>  <SCORE.INTRA.DIHEDRAL.0>
0.00893466

>  <SCORE.INTRA.POLAR>
0

>  <SCORE.INTRA.POLAR.0>
0

>  <SCORE.INTRA.REPUL>
0

>  <SCORE.INTRA.REPUL.0>
0

>  <SCORE.INTRA.SOLV>
0.883305

>  <SCORE.INTRA.SOLV.lig_0>
-48.9722

>  <SCORE.INTRA.VDW>
-0.365319

>  <SCORE.INTRA.VDW.0>
-0.529409

>  <SCORE.INTRA.norm>
0.21804

>  <SCORE.RESTR>
0

>  <SCORE.RESTR.CAVITY>
0

>  <SCORE.RESTR.norm>
0

>  <SCORE.SYSTEM>
0

>  <SCORE.SYSTEM.CONST>
0

>  <SCORE.SYSTEM.DIHEDRAL>
0

>  <SCORE.SYSTEM.SOLV>
0

>  <SCORE.SYSTEM.norm>
0

>  <SCORE.heavy>
16

>  <SCORE.norm>
-0.88001

>  <RMSD>
40.696

$$$$
ligand
 OpenBabel11021811433D
libRbt.so/2013.1/901 2013/11/27
 16 16  0  0  0  0  0  0  0  0999 V2000
    9.0589   -1.4801    1.1343 P   0  0  2  0  0  0  0  0  0  0  0  0
    8.9620   -2.3624    2.3236 O   0  0  0  0  0  0  0  0  0  0  0  0
    7.6323   -1.4304    0.3912 O   0  5  0  0  0  0  0  0  0  0  0  0
   10.1627   -2.0834    0.1287 O   0  0  0  0  0  0  0  0  0  0  0  0
   10.4844   -0.1071   -2.7131 C   0  0  2  0  0  0  0  0  0  0  0  0
   11.8435   -0.3607   -2.3138 O   0  0  0  0  0  0  0  0  0  0  0  0
   10.3755    1.2401   -3.4722 C   0  0  2  0  0  0  0  0  0  0  0  0
   11.2592    1.2266   -4.6440 O   0  0  0  0  0  0  0  0  0  0  0  0
   10.8010    2.3733   -2.5197 C   0  0  1  0  0  0  0  0  0  0  0  0
   10.7041    3.6342   -3.1931 O   0  0  0  0  0  0  0  0  0  0  0  0
    9.8591    2.3595   -1.3057 C   0  0  2  0  0  0  0  0  0  0  0  0
   10.2445    3.4072   -0.3900 O   0  0  0  0  0  0  0  0  0  0  0  0
    9.9763    0.9763   -0.6077 C   0  0  2  0  0  0  0  0  0  0  0  0
    9.6054   -0.0855   -1.5395 O   0  0  0  0  0  0  0  0  0  0  0  0
    9.0105    0.9422    0.5907 C   0  0  0  0  0  0  0  0  0  0  0  0
    9.4747    0.0231    1.5871 O   0  0  0  0  0  0  0  0  0  0  0  0
  1  2  1  1  0  0  0
  1  3  1  0  0  0  0
  1  4  2  0  0  0  0
  1 16  1  0  0  0  0
  5  6  1  1  0  0  0
  5  7  1  0  0  0  0
  5 14  1  0  0  0  0
  7  8  1  6  0  0  0
  7  9  1  0  0  0  0
  9 10  1  6  0  0  0
  9 11  1  0  0  0  0
 11 12  1  1  0  0  0
 11 13  1  0  0  0  0
 13 14  1  0  0  0  0
 13 15  1  1  0  0  0
 15 16  1  0  0  0  0
M  CHG  1   3  -1
M  END
>  <CHROM.1>
-153.71189113,-80.43333384,-155.21118454,9.90029486,0.34612989,-0.85486324
-2.46752972,1.16618399,-0.01851389

>  <Name>
ligand

>  <RI>
0

>  <Rbt.Current_Directory>
/home/itssahil/PROJECTS/Mol_Feturizer/New_Systems/rnas/2HO7

>  <Rbt.Executable>
rbdock ($Id: //depot/dev/client3/rdock/2013.1/src/exe/rbdock.cxx#4 $)

>  <Rbt.Library>
libRbt.so (2013.1, Build901 2013/11/27)

>  <Rbt.Parameter_File>
/export/apps/rDock/src/rDock_2013.1_src/data/scripts/dock_solv.prm

>  <Rbt.Receptor>
prm/blind_docking_20.prm

>  <SCORE>
-19.5535

>  <SCORE.INTER>
-24.5908

>  <SCORE.INTER.CONST>
1

>  <SCORE.INTER.POLAR>
-2.86378

>  <SCORE.INTER.ROT>
3

>  <SCORE.INTER.SOLV>
17.2227

>  <SCORE.INTER.VDW>
-18.1888

>  <SCORE.INTER.norm>
-1.53693

>  <SCORE.INTRA>
5.03675

>  <SCORE.INTRA.DIHEDRAL>
4.86582

>  <SCORE.INTRA.DIHEDRAL.0>
0.00893466

>  <SCORE.INTRA.POLAR>
0

>  <SCORE.INTRA.POLAR.0>
0

>  <SCORE.INTRA.REPUL>
0

>  <SCORE.INTRA.REPUL.0>
0

>  <SCORE.INTRA.SOLV>
5.44437

>  <SCORE.INTRA.SOLV.lig_0>
-48.9722

>  <SCORE.INTRA.VDW>
-0.118339

>  <SCORE.INTRA.VDW.0>
-0.529409

>  <SCORE.INTRA.norm>
0.314797

>  <SCORE.RESTR>
0.000567777

>  <SCORE.RESTR.CAVITY>
0.000567777

>  <SCORE.RESTR.norm>
3.54861e-05

>  <SCORE.SYSTEM>
0

>  <SCORE.SYSTEM.CONST>
0

>  <SCORE.SYSTEM.DIHEDRAL>
0

>  <SCORE.SYSTEM.SOLV>
0

>  <SCORE.SYSTEM.norm>
0

>  <SCORE.heavy>
16

>  <SCORE.norm>
-1.22209

>  <RMSD>
40.697

$$$$
ligand
 OpenBabel11021811433D
libRbt.so/2013.1/901 2013/11/27
 16 16  0  0  0  0  0  0  0  0999 V2000
    9.0467   -1.4487    1.1767 P   0  0  2  0  0  0  0  0  0  0  0  0
    9.0036   -2.3218    2.3760 O   0  0  0  0  0  0  0  0  0  0  0  0
    7.6628   -1.5878    0.3674 O   0  5  0  0  0  0  0  0  0  0  0  0
   10.2647   -1.9204    0.2346 O   0  0  0  0  0  0  0  0  0  0  0  0
   10.5767   -0.1141   -2.6012 C   0  0  2  0  0  0  0  0  0  0  0  0
   11.9111   -0.2912   -2.0927 O   0  0  0  0  0  0  0  0  0  0  0  0
   10.4638    1.2074   -3.4037 C   0  0  2  0  0  0  0  0  0  0  0  0
   11.4352    1.2087   -4.5040 O   0  0  0  0  0  0  0  0  0  0  0  0
   10.7607    2.3828   -2.4536 C   0  0  1  0  0  0  0  0  0  0  0  0
   10.6573    3.6207   -3.1673 O   0  0  0  0  0  0  0  0  0  0  0  0
    9.7294    2.3523   -1.3149 C   0  0  2  0  0  0  0  0  0  0  0  0
    9.9932    3.4396   -0.4021 O   0  0  0  0  0  0  0  0  0  0  0  0
    9.8569    0.9939   -0.5717 C   0  0  2  0  0  0  0  0  0  0  0  0
    9.6095   -0.1071   -1.4990 O   0  0  0  0  0  0  0  0  0  0  0  0
    8.8040    0.9416    0.5502 C   0  0  0  0  0  0  0  0  0  0  0  0
    9.2489    0.1002    1.6213 O   0  0  0  0  0  0  0  0  0  0  0  0
  1  2  1  1  0  0  0
  1  3  1  0  0  0  0
  1  4  2  0  0  0  0
  1 16  1  0  0  0  0
  5  6  1  1  0  0  0
  5  7  1  0  0  0  0
  5 14  1  0  0  0  0
  7  8  1  6  0  0  0
  7  9  1  0  0  0  0
  9 10  1  6  0  0  0
  9 11  1  0  0  0  0
 11 12  1  1  0  0  0
 11 13  1  0  0  0  0
 13 14  1  0  0  0  0
 13 15  1  1  0  0  0
 15 16  1  0  0  0  0
M  CHG  1   3  -1
M  END
>  <CHROM.1>
-152.09748089,-77.40356642,-159.01637533,9.87540817,0.35973267,-0.80116257
-2.33117048,1.09684734,-0.17142270

>  <Name>
ligand

>  <RI>
0

>  <Rbt.Current_Directory>
/home/itssahil/PROJECTS/Mol_Feturizer/New_Systems/rnas/2HO7

>  <Rbt.Executable>
rbdock ($Id: //depot/dev/client3/rdock/2013.1/src/exe/rbdock.cxx#4 $)

>  <Rbt.Library>
libRbt.so (2013.1, Build901 2013/11/27)

>  <Rbt.Parameter_File>
/export/apps/rDock/src/rDock_2013.1_src/data/scripts/dock_solv.prm

>  <Rbt.Receptor>
prm/blind_docking_100.prm

>  <SCORE>
-19.7395

>  <SCORE.INTER>
-24.7675

>  <SCORE.INTER.CONST>
1

>  <SCORE.INTER.POLAR>
-2.86378

>  <SCORE.INTER.ROT>
3

>  <SCORE.INTER.SOLV>
17.1481

>  <SCORE.INTER.VDW>
-18.2818

>  <SCORE.INTER.norm>
-1.54797

>  <SCORE.INTRA>
5.02801

>  <SCORE.INTRA.DIHEDRAL>
4.38698

>  <SCORE.INTRA.DIHEDRAL.0>
0.00893466

>  <SCORE.INTRA.POLAR>
0

>  <SCORE.INTRA.POLAR.0>
0

>  <SCORE.INTRA.REPUL>
0

>  <SCORE.INTRA.REPUL.0>
0

>  <SCORE.INTRA.SOLV>
5.72552

>  <SCORE.INTRA.SOLV.lig_0>
-48.9722

>  <SCORE.INTRA.VDW>
-0.0282337

>  <SCORE.INTRA.VDW.0>
-0.529409

>  <SCORE.INTRA.norm>
0.314251

>  <SCORE.RESTR>
0

>  <SCORE.RESTR.CAVITY>
0

>  <SCORE.RESTR.norm>
0

>  <SCORE.SYSTEM>
0

>  <SCORE.SYSTEM.CONST>
0

>  <SCORE.SYSTEM.DIHEDRAL>
0

>  <SCORE.SYSTEM.SOLV>
0

>  <SCORE.SYSTEM.norm>
0

>  <SCORE.heavy>
16

>  <SCORE.norm>
-1.23372

>  <RMSD>
40.699

$$$$
ligand
 OpenBabel11021811433D
libRbt.so/2013.1/901 2013/11/27
 16 16  0  0  0  0  0  0  0  0999 V2000
    9.0368   -1.4223    1.1672 P   0  0  2  0  0  0  0  0  0  0  0  0
    8.9735   -2.3008    2.3615 O   0  0  0  0  0  0  0  0  0  0  0  0
    7.6307   -1.4829    0.3870 O   0  5  0  0  0  0  0  0  0  0  0  0
   10.2082   -1.9498    0.1961 O   0  0  0  0  0  0  0  0  0  0  0  0
   10.5209   -0.0961   -2.6399 C   0  0  2  0  0  0  0  0  0  0  0  0
   11.8664   -0.3095   -2.1764 O   0  0  0  0  0  0  0  0  0  0  0  0
   10.4150    1.2328   -3.4310 C   0  0  2  0  0  0  0  0  0  0  0  0
   11.3495    1.2168   -4.5626 O   0  0  0  0  0  0  0  0  0  0  0  0
   10.7721    2.3944   -2.4848 C   0  0  1  0  0  0  0  0  0  0  0  0
   10.6765    3.6390   -3.1880 O   0  0  0  0  0  0  0  0  0  0  0  0
    9.7782    2.3825   -1.3130 C   0  0  2  0  0  0  0  0  0  0  0  0
   10.0989    3.4571   -0.4035 O   0  0  0  0  0  0  0  0  0  0  0  0
    9.8959    1.0167   -0.5818 C   0  0  2  0  0  0  0  0  0  0  0  0
    9.5907   -0.0719   -1.5065 O   0  0  0  0  0  0  0  0  0  0  0  0
    8.8792    0.9836    0.5738 C   0  0  0  0  0  0  0  0  0  0  0  0
    9.3291    0.1106    1.6171 O   0  0  0  0  0  0  0  0  0  0  0  0
  1  2  1  1  0  0  0
  1  3  1  0  0  0  0
  1  4  2  0  0  0  0
  1 16  1  0  0  0  0
  5  6  1  1  0  0  0
  5  7  1  0  0  0  0
  5 14  1  0  0  0  0
  7  8  1  6  0  0  0
  7  9  1  0  0  0  0
  9 10  1  6  0  0  0
  9 11  1  0  0  0  0
 11 12  1  1  0  0  0
 11 13  1  0  0  0  0
 13 14  1  0  0  0  0
 13 15  1  1  0  0  0
 15 16  1  0  0  0  0
M  CHG  1   3  -1
M  END
>  <CHROM.1>
-152.87764662,-78.27043102,-157.75773714,9.87411602,0.38137787,-0.81960946
-2.39143625,1.12836056,-0.10860396

>  <Name>
ligand

>  <RI>
0

>  <Rbt.Current_Directory>
/home/itssahil/PROJECTS/Mol_Feturizer/New_Systems/rnas/2HO7

>  <Rbt.Executable>
rbdock ($Id: //depot/dev/client3/rdock/2013.1/src/exe/rbdock.cxx#4 $)

>  <Rbt.Library>
libRbt.so (2013.1, Build901 2013/11/27)

>  <Rbt.Parameter_File>
/export/apps/rDock/src/rDock_2013.1_src/data/scripts/dock_solv.prm

>  <Rbt.Receptor>
prm/blind_docking_20.prm

>  <SCORE>
-19.721

>  <SCORE.INTER>
-24.743

>  <SCORE.INTER.CONST>
1

>  <SCORE.INTER.POLAR>
-2.86166

>  <SCORE.INTER.ROT>
3

>  <SCORE.INTER.SOLV>
17.3517

>  <SCORE.INTER.VDW>
-18.3404

>  <SCORE.INTER.norm>
-1.54644

>  <SCORE.INTRA>
5.01363

>  <SCORE.INTRA.DIHEDRAL>
4.48294

>  <SCORE.INTRA.DIHEDRAL.0>
0.00893466

>  <SCORE.INTRA.POLAR>
0

>  <SCORE.INTRA.POLAR.0>
0

>  <SCORE.INTRA.REPUL>
0

>  <SCORE.INTRA.REPUL.0>
0

>  <SCORE.INTRA.SOLV>
5.64783

>  <SCORE.INTRA.SOLV.lig_0>
-48.9722

>  <SCORE.INTRA.VDW>
-0.0517516

>  <SCORE.INTRA.VDW.0>
-0.529409

>  <SCORE.INTRA.norm>
0.313352

>  <SCORE.RESTR>
0.00837246

>  <SCORE.RESTR.CAVITY>
0.00837246

>  <SCORE.RESTR.norm>
0.000523279

>  <SCORE.SYSTEM>
0

>  <SCORE.SYSTEM.CONST>
0

>  <SCORE.SYSTEM.DIHEDRAL>
0

>  <SCORE.SYSTEM.SOLV>
0

>  <SCORE.SYSTEM.norm>
0

>  <SCORE.heavy>
16

>  <SCORE.norm>
-1.23256

>  <RMSD>
40.700

$$$$
ligand
 OpenBabel11021811433D
libRbt.so/2013.1/901 2013/11/27
 16 16  0  0  0  0  0  0  0  0999 V2000
    9.1348   -1.3831    1.2626 P   0  0  2  0  0  0  0  0  0  0  0  0
   10.3400   -1.7460    0.4765 O   0  0  0  0  0  0  0  0  0  0  0  0
    9.0440   -2.3264    2.5633 O   0  5  0  0  0  0  0  0  0  0  0  0
    7.8296   -1.6110    0.3470 O   0  0  0  0  0  0  0  0  0  0  0  0
   10.5134   -0.1108   -2.4748 C   0  0  2  0  0  0  0  0  0  0  0  0
   11.8616   -0.2192   -1.9838 O   0  0  0  0  0  0  0  0  0  0  0  0
   10.3378    1.1744   -3.3237 C   0  0  2  0  0  0  0  0  0  0  0  0
   11.2903    1.1701   -4.4403 O   0  0  0  0  0  0  0  0  0  0  0  0
   10.6058    2.3950   -2.4232 C   0  0  1  0  0  0  0  0  0  0  0  0
   10.4443    3.6004   -3.1804 O   0  0  0  0  0  0  0  0  0  0  0  0
    9.5951    2.3695   -1.2660 C   0  0  2  0  0  0  0  0  0  0  0  0
    9.8328    3.4994   -0.3991 O   0  0  0  0  0  0  0  0  0  0  0  0
    9.7858    1.0456   -0.4753 C   0  0  2  0  0  0  0  0  0  0  0  0
    9.5647   -0.0979   -1.3566 O   0  0  0  0  0  0  0  0  0  0  0  0
    8.7540    0.9969    0.6662 C   0  0  0  0  0  0  0  0  0  0  0  0
    9.2238    0.1678    1.7363 O   0  0  0  0  0  0  0  0  0  0  0  0
  1  2  1  6  0  0  0
  1  3  1  0  0  0  0
  1  4  2  0  0  0  0
  1 16  1  0  0  0  0
  5  6  1  1  0  0  0
  5  7  1  0  0  0  0
  5 14  1  0  0  0  0
  7  8  1  6  0  0  0
  7  9  1  0  0  0  0
  9 10  1  6  0  0  0
  9 11  1  0  0  0  0
 11 12  1  1  0  0  0
 11 13  1  0  0  0  0
 13 14  1  0  0  0  0
 13 15  1  1  0  0  0
 15 16  1  0  0  0  0
M  CHG  1   3  -1
M  END
>  <CHROM.1>
-154.51602236,-72.90802824,83.77370035,9.83285476,0.39209036,-0.71252097
-2.23946035,1.11242111,-0.27100210

>  <Name>
ligand

>  <RI>
0

>  <Rbt.Current_Directory>
/home/itssahil/PROJECTS/Mol_Feturizer/New_Systems/rnas/2HO7

>  <Rbt.Executable>
rbdock ($Id: //depot/dev/client3/rdock/2013.1/src/exe/rbdock.cxx#4 $)

>  <Rbt.Library>
libRbt.so (2013.1, Build901 2013/11/27)

>  <Rbt.Parameter_File>
/export/apps/rDock/src/rDock_2013.1_src/data/scripts/dock_solv.prm

>  <Rbt.Receptor>
prm/blind_docking_20.prm

>  <SCORE>
-19.6745

>  <SCORE.INTER>
-23.2435

>  <SCORE.INTER.CONST>
1

>  <SCORE.INTER.POLAR>
-2.86378

>  <SCORE.INTER.ROT>
3

>  <SCORE.INTER.SOLV>
20.335

>  <SCORE.INTER.VDW>
-18.3281

>  <SCORE.INTER.norm>
-1.45272

>  <SCORE.INTRA>
3.56774

>  <SCORE.INTRA.DIHEDRAL>
3.61655

>  <SCORE.INTRA.DIHEDRAL.0>
0.00893466

>  <SCORE.INTRA.POLAR>
0

>  <SCORE.INTRA.POLAR.0>
0

>  <SCORE.INTRA.REPUL>
0

>  <SCORE.INTRA.REPUL.0>
0

>  <SCORE.INTRA.SOLV>
3.04085

>  <SCORE.INTRA.SOLV.lig_0>
-48.9722

>  <SCORE.INTRA.VDW>
0.239037

>  <SCORE.INTRA.VDW.0>
-0.529409

>  <SCORE.INTRA.norm>
0.222984

>  <SCORE.RESTR>
0.00131471

>  <SCORE.RESTR.CAVITY>
0.00131471

>  <SCORE.RESTR.norm>
8.21694e-05

>  <SCORE.SYSTEM>
0

>  <SCORE.SYSTEM.CONST>
0

>  <SCORE.SYSTEM.DIHEDRAL>
0

>  <SCORE.SYSTEM.SOLV>
0

>  <SCORE.SYSTEM.norm>
0

>  <SCORE.heavy>
16

>  <SCORE.norm>
-1.22965

>  <RMSD>
40.701

$$$$
ligand
 OpenBabel11021811433D
libRbt.so/2013.1/901 2013/11/27
 16 16  0  0  0  0  0  0  0  0999 V2000
    9.1241   -1.3797    1.1633 P   0  0  2  0  0  0  0  0  0  0  0  0
    7.8911   -1.5359    0.3525 O   0  0  0  0  0  0  0  0  0  0  0  0
   10.3993   -1.8084    0.2803 O   0  5  0  0  0  0  0  0  0  0  0  0
    9.0224   -2.3386    2.4531 O   0  0  0  0  0  0  0  0  0  0  0  0
   10.5267   -0.1069   -2.6000 C   0  0  2  0  0  0  0  0  0  0  0  0
   11.8795   -0.2379   -2.1273 O   0  0  0  0  0  0  0  0  0  0  0  0
   10.3595    1.1847   -3.4407 C   0  0  2  0  0  0  0  0  0  0  0  0
   11.2970    1.1711   -4.5699 O   0  0  0  0  0  0  0  0  0  0  0  0
   10.6578    2.3969   -2.5385 C   0  0  1  0  0  0  0  0  0  0  0  0
   10.5046    3.6081   -3.2881 O   0  0  0  0  0  0  0  0  0  0  0  0
    9.6621    2.3812   -1.3682 C   0  0  2  0  0  0  0  0  0  0  0  0
    9.9283    3.5034   -0.4994 O   0  0  0  0  0  0  0  0  0  0  0  0
    9.8431    1.0510   -0.5859 C   0  0  2  0  0  0  0  0  0  0  0  0
    9.5931   -0.0849   -1.4693 O   0  0  0  0  0  0  0  0  0  0  0  0
    8.8258    1.0126    0.5690 C   0  0  0  0  0  0  0  0  0  0  0  0
    9.2947    0.1675    1.6268 O   0  0  0  0  0  0  0  0  0  0  0  0
  1  2  1  6  0  0  0
  1  3  1  0  0  0  0
  1  4  2  0  0  0  0
  1 16  1  0  0  0  0
  5  6  1  1  0  0  0
  5  7  1  0  0  0  0
  5 14  1  0  0  0  0
  7  8  1  6  0  0  0
  7  9  1  0  0  0  0
  9 10  1  6  0  0  0
  9 11  1  0  0  0  0
 11 12  1  1  0  0  0
 11 13  1  0  0  0  0
 13 14  1  0  0  0  0
 13 15  1  1  0  0  0
 15 16  1  0  0  0  0
M  CHG  1   3  -1
M  END
>  <CHROM.1>
-154.73812151,-74.81597707,-35.85329669,9.87021939,0.39551505,-0.82245641
-2.26258613,1.11936712,-0.24920051

>  <Name>
ligand

>  <RI>
0

>  <Rbt.Current_Directory>
/home/itssahil/PROJECTS/Mol_Feturizer/New_Systems/rnas/2HO7

>  <Rbt.Executable>
rbdock ($Id: //depot/dev/client3/rdock/2013.1/src/exe/rbdock.cxx#4 $)

>  <Rbt.Library>
libRbt.so (2013.1, Build901 2013/11/27)

>  <Rbt.Parameter_File>
/export/apps/rDock/src/rDock_2013.1_src/data/scripts/dock_solv.prm

>  <Rbt.Receptor>
prm/blind_docking_80.prm

>  <SCORE>
-18.5853

>  <SCORE.INTER>
-22.9061

>  <SCORE.INTER.CONST>
1

>  <SCORE.INTER.POLAR>
-2.5455

>  <SCORE.INTER.ROT>
3

>  <SCORE.INTER.SOLV>
17.2046

>  <SCORE.INTER.VDW>
-18.1206

>  <SCORE.INTER.norm>
-1.43163

>  <SCORE.INTRA>
4.31319

>  <SCORE.INTRA.DIHEDRAL>
3.84763

>  <SCORE.INTRA.DIHEDRAL.0>
0.00893466

>  <SCORE.INTRA.POLAR>
0

>  <SCORE.INTRA.POLAR.0>
0

>  <SCORE.INTRA.REPUL>
0

>  <SCORE.INTRA.REPUL.0>
0

>  <SCORE.INTRA.SOLV>
3.93607

>  <SCORE.INTRA.SOLV.lig_0>
-48.9722

>  <SCORE.INTRA.VDW>
0.421347

>  <SCORE.INTRA.VDW.0>
-0.529409

>  <SCORE.INTRA.norm>
0.269575

>  <SCORE.RESTR>
0.00766857

>  <SCORE.RESTR.CAVITY>
0.00766857

>  <SCORE.RESTR.norm>
0.000479286

>  <SCORE.SYSTEM>
0

>  <SCORE.SYSTEM.CONST>
0

>  <SCORE.SYSTEM.DIHEDRAL>
0

>  <SCORE.SYSTEM.SOLV>
0

>  <SCORE.SYSTEM.norm>
0

>  <SCORE.heavy>
16

>  <SCORE.norm>
-1.16158

>  <RMSD>
40.707

$$$$
ligand
 OpenBabel11021811433D
libRbt.so/2013.1/901 2013/11/27
 16 16  0  0  0  0  0  0  0  0999 V2000
    9.2067   -1.3916    0.9013 P   0  0  2  0  0  0  0  0  0  0  0  0
    8.5189   -2.6903    1.1077 O   0  0  0  0  0  0  0  0  0  0  0  0
   10.5112   -1.6198   -0.0129 O   0  5  0  0  0  0  0  0  0  0  0  0
    9.6553   -0.8083    2.3338 O   0  0  0  0  0  0  0  0  0  0  0  0
   10.2091    0.3609   -3.3125 C   0  0  2  0  0  0  0  0  0  0  0  0
   11.4919   -0.2014   -2.9827 O   0  0  0  0  0  0  0  0  0  0  0  0
   10.3551    1.8339   -3.7730 C   0  0  2  0  0  0  0  0  0  0  0  0
   11.2589    1.9097   -4.9269 O   0  0  0  0  0  0  0  0  0  0  0  0
   10.9384    2.6546   -2.6074 C   0  0  1  0  0  0  0  0  0  0  0  0
   11.0790    4.0246   -3.0022 O   0  0  0  0  0  0  0  0  0  0  0  0
    9.9712    2.5538   -1.4176 C   0  0  2  0  0  0  0  0  0  0  0  0
   10.5017    3.3068   -0.3056 O   0  0  0  0  0  0  0  0  0  0  0  0
    9.8291    1.0574   -1.0244 C   0  0  2  0  0  0  0  0  0  0  0  0
    9.3111    0.2917   -2.1552 O   0  0  0  0  0  0  0  0  0  0  0  0
    8.8355    0.9444    0.1460 C   0  0  0  0  0  0  0  0  0  0  0  0
    8.2122   -0.3457    0.1564 O   0  0  0  0  0  0  0  0  0  0  0  0
  1  2  1  1  0  0  0
  1  3  1  0  0  0  0
  1  4  2  0  0  0  0
  1 16  1  0  0  0  0
  5  6  1  1  0  0  0
  5  7  1  0  0  0  0
  5 14  1  0  0  0  0
  7  8  1  6  0  0  0
  7  9  1  0  0  0  0
  9 10  1  6  0  0  0
  9 11  1  0  0  0  0
 11 12  1  1  0  0  0
 11 13  1  0  0  0  0
 13 14  1  0  0  0  0
 13 15  1  1  0  0  0
 15 16  1  0  0  0  0
M  CHG  1   3  -1
M  END
>  <CHROM.1>
153.85384157,82.82577729,171.84331519,9.93978251,0.55949477,-1.12012180,-2.75253389
1.25608557,0.31477884

>  <Name>
ligand

>  <RI>
0

>  <Rbt.Current_Directory>
/home/itssahil/PROJECTS/Mol_Feturizer/New_Systems/rnas/2HO7

>  <Rbt.Executable>
rbdock ($Id: //depot/dev/client3/rdock/2013.1/src/exe/rbdock.cxx#4 $)

>  <Rbt.Library>
libRbt.so (2013.1, Build901 2013/11/27)

>  <Rbt.Parameter_File>
/export/apps/rDock/src/rDock_2013.1_src/data/scripts/dock_solv.prm

>  <Rbt.Receptor>
prm/blind_docking_60.prm

>  <SCORE>
-20.26

>  <SCORE.INTER>
-24.259

>  <SCORE.INTER.CONST>
1

>  <SCORE.INTER.POLAR>
-2.54558

>  <SCORE.INTER.ROT>
3

>  <SCORE.INTER.SOLV>
17.1971

>  <SCORE.INTER.VDW>
-19.0198

>  <SCORE.INTER.norm>
-1.51619

>  <SCORE.INTRA>
3.9761

>  <SCORE.INTRA.DIHEDRAL>
4.4913

>  <SCORE.INTRA.DIHEDRAL.0>
0.00893466

>  <SCORE.INTRA.POLAR>
0

>  <SCORE.INTRA.POLAR.0>
0

>  <SCORE.INTRA.REPUL>
0

>  <SCORE.INTRA.REPUL.0>
0

>  <SCORE.INTRA.SOLV>
4.01874

>  <SCORE.INTRA.SOLV.lig_0>
-48.9722

>  <SCORE.INTRA.VDW>
-0.278921

>  <SCORE.INTRA.VDW.0>
-0.529409

>  <SCORE.INTRA.norm>
0.248506

>  <SCORE.RESTR>
0.0229585

>  <SCORE.RESTR.CAVITY>
0.0229585

>  <SCORE.RESTR.norm>
0.00143491

>  <SCORE.SYSTEM>
0

>  <SCORE.SYSTEM.CONST>
0

>  <SCORE.SYSTEM.DIHEDRAL>
0

>  <SCORE.SYSTEM.SOLV>
0

>  <SCORE.SYSTEM.norm>
0

>  <SCORE.heavy>
16

>  <SCORE.norm>
-1.26625

>  <RMSD>
40.708

$$$$
ligand
 OpenBabel11021811433D
libRbt.so/2013.1/901 2013/11/27
 16 16  0  0  0  0  0  0  0  0999 V2000
    9.1789   -1.3941    0.9152 P   0  0  2  0  0  0  0  0  0  0  0  0
    8.4695   -2.6807    1.1236 O   0  0  0  0  0  0  0  0  0  0  0  0
   10.4883   -1.6483    0.0148 O   0  5  0  0  0  0  0  0  0  0  0  0
    9.6230   -0.8079    2.3479 O   0  0  0  0  0  0  0  0  0  0  0  0
   10.2133    0.3624   -3.3052 C   0  0  2  0  0  0  0  0  0  0  0  0
   11.4990   -0.1943   -2.9769 O   0  0  0  0  0  0  0  0  0  0  0  0
   10.3526    1.8352   -3.7683 C   0  0  2  0  0  0  0  0  0  0  0  0
   11.2541    1.9129   -4.9238 O   0  0  0  0  0  0  0  0  0  0  0  0
   10.9347    2.6600   -2.6050 C   0  0  1  0  0  0  0  0  0  0  0  0
   11.0690    4.0300   -3.0020 O   0  0  0  0  0  0  0  0  0  0  0  0
    9.9700    2.5572   -1.4133 C   0  0  2  0  0  0  0  0  0  0  0  0
   10.4993    3.3140   -0.3034 O   0  0  0  0  0  0  0  0  0  0  0  0
    9.8345    1.0608   -1.0176 C   0  0  2  0  0  0  0  0  0  0  0  0
    9.3176    0.2913   -2.1463 O   0  0  0  0  0  0  0  0  0  0  0  0
    8.8434    0.9457    0.1548 C   0  0  0  0  0  0  0  0  0  0  0  0
    8.2075   -0.3383    0.1540 O   0  0  0  0  0  0  0  0  0  0  0  0
  1  2  1  1  0  0  0
  1  3  1  0  0  0  0
  1  4  2  0  0  0  0
  1 16  1  0  0  0  0
  5  6  1  1  0  0  0
  5  7  1  0  0  0  0
  5 14  1  0  0  0  0
  7  8  1  6  0  0  0
  7  9  1  0  0  0  0
  9 10  1  6  0  0  0
  9 11  1  0  0  0  0
 11 12  1  1  0  0  0
 11 13  1  0  0  0  0
 13 14  1  0  0  0  0
 13 15  1  1  0  0  0
 15 16  1  0  0  0  0
M  CHG  1   3  -1
M  END
>  <CHROM.1>
152.81185645,84.10478833,171.17063276,9.92984543,0.56076202,-1.11189164,-2.75561989
1.25291277,0.31741067

>  <Name>
ligand

>  <RI>
0

>  <Rbt.Current_Directory>
/home/itssahil/PROJECTS/Mol_Feturizer/New_Systems/rnas/2HO7

>  <Rbt.Executable>
rbdock ($Id: //depot/dev/client3/rdock/2013.1/src/exe/rbdock.cxx#4 $)

>  <Rbt.Library>
libRbt.so (2013.1, Build901 2013/11/27)

>  <Rbt.Parameter_File>
/export/apps/rDock/src/rDock_2013.1_src/data/scripts/dock_solv.prm

>  <Rbt.Receptor>
prm/blind_docking_20.prm

>  <SCORE>
-20.2607

>  <SCORE.INTER>
-24.389

>  <SCORE.INTER.CONST>
1

>  <SCORE.INTER.POLAR>
-2.54558

>  <SCORE.INTER.ROT>
3

>  <SCORE.INTER.SOLV>
17.2842

>  <SCORE.INTER.VDW>
-19.1355

>  <SCORE.INTER.norm>
-1.52431

>  <SCORE.INTRA>
4.10468

>  <SCORE.INTRA.DIHEDRAL>
4.87844

>  <SCORE.INTRA.DIHEDRAL.0>
0.00893466

>  <SCORE.INTRA.POLAR>
0

>  <SCORE.INTRA.POLAR.0>
0

>  <SCORE.INTRA.REPUL>
0

>  <SCORE.INTRA.REPUL.0>
0

>  <SCORE.INTRA.SOLV>
3.92479

>  <SCORE.INTRA.SOLV.lig_0>
-48.9722

>  <SCORE.INTRA.VDW>
-0.296935

>  <SCORE.INTRA.VDW.0>
-0.529409

>  <SCORE.INTRA.norm>
0.256543

>  <SCORE.RESTR>
0.023579

>  <SCORE.RESTR.CAVITY>
0.023579

>  <SCORE.RESTR.norm>
0.00147369

>  <SCORE.SYSTEM>
0

>  <SCORE.SYSTEM.CONST>
0

>  <SCORE.SYSTEM.DIHEDRAL>
0

>  <SCORE.SYSTEM.SOLV>
0

>  <SCORE.SYSTEM.norm>
0

>  <SCORE.heavy>
16

>  <SCORE.norm>
-1.2663

>  <RMSD>
40.713

$$$$
ligand
 OpenBabel11021811433D
libRbt.so/2013.1/901 2013/11/27
 16 16  0  0  0  0  0  0  0  0999 V2000
    9.1089   -1.2669    1.1963 P   0  0  2  0  0  0  0  0  0  0  0  0
    9.2313   -0.5421    2.4855 O   0  0  0  0  0  0  0  0  0  0  0  0
    8.1381   -0.4425    0.2126 O   0  5  0  0  0  0  0  0  0  0  0  0
    8.4744   -2.7204    1.4760 O   0  0  0  0  0  0  0  0  0  0  0  0
   10.5168    2.9502   -1.6419 C   0  0  2  0  0  0  0  0  0  0  0  0
    9.1397    3.1933   -1.3027 O   0  0  0  0  0  0  0  0  0  0  0  0
   10.6338    2.3230   -3.0547 C   0  0  2  0  0  0  0  0  0  0  0  0
   10.0106    3.2065   -4.0472 O   0  0  0  0  0  0  0  0  0  0  0  0
    9.9084    0.9643   -3.0476 C   0  0  1  0  0  0  0  0  0  0  0  0
   10.0054    0.3564   -4.3412 O   0  0  0  0  0  0  0  0  0  0  0  0
   10.5827    0.0652   -1.9996 C   0  0  2  0  0  0  0  0  0  0  0  0
    9.9127   -1.2134   -1.9649 O   0  0  0  0  0  0  0  0  0  0  0  0
   10.4737    0.7582   -0.6133 C   0  0  2  0  0  0  0  0  0  0  0  0
   11.1343    2.0602   -0.6534 O   0  0  0  0  0  0  0  0  0  0  0  0
   11.1765   -0.1207    0.4372 C   0  0  0  0  0  0  0  0  0  0  0  0
   10.5683   -1.4166    0.4997 O   0  0  0  0  0  0  0  0  0  0  0  0
  1  2  1  1  0  0  0
  1  3  1  0  0  0  0
  1  4  2  0  0  0  0
  1 16  1  0  0  0  0
  5  6  1  1  0  0  0
  5  7  1  0  0  0  0
  5 14  1  0  0  0  0
  7  8  1  6  0  0  0
  7  9  1  0  0  0  0
  9 10  1  6  0  0  0
  9 11  1  0  0  0  0
 11 12  1  1  0  0  0
 11 13  1  0  0  0  0
 13 14  1  0  0  0  0
 13 15  1  1  0  0  0
 15 16  1  0  0  0  0
M  CHG  1   3  -1
M  END
>  <CHROM.1>
-59.61009325,-71.48971970,-52.06336062,9.85155744,0.35692741,-0.84149891
-2.77819199,-1.38303241,-2.07382830

>  <Name>
ligand

>  <RI>
0

>  <Rbt.Current_Directory>
/home/itssahil/PROJECTS/Mol_Feturizer/New_Systems/rnas/2HO7

>  <Rbt.Executable>
rbdock ($Id: //depot/dev/client3/rdock/2013.1/src/exe/rbdock.cxx#4 $)

>  <Rbt.Library>
libRbt.so (2013.1, Build901 2013/11/27)

>  <Rbt.Parameter_File>
/export/apps/rDock/src/rDock_2013.1_src/data/scripts/dock_solv.prm

>  <Rbt.Receptor>
prm/blind_docking_80.prm

>  <SCORE>
-14.3904

>  <SCORE.INTER>
-17.5912

>  <SCORE.INTER.CONST>
1

>  <SCORE.INTER.POLAR>
-2.2639

>  <SCORE.INTER.ROT>
3

>  <SCORE.INTER.SOLV>
19.7011

>  <SCORE.INTER.VDW>
-16.3481

>  <SCORE.INTER.norm>
-1.09945

>  <SCORE.INTRA>
3.20078

>  <SCORE.INTRA.DIHEDRAL>
0.72521

>  <SCORE.INTRA.DIHEDRAL.0>
0.00893466

>  <SCORE.INTRA.POLAR>
0

>  <SCORE.INTRA.POLAR.0>
0

>  <SCORE.INTRA.REPUL>
0

>  <SCORE.INTRA.REPUL.0>
0

>  <SCORE.INTRA.SOLV>
4.64664

>  <SCORE.INTRA.SOLV.lig_0>
-48.9722

>  <SCORE.INTRA.VDW>
0.514853

>  <SCORE.INTRA.VDW.0>
-0.529409

>  <SCORE.INTRA.norm>
0.200049

>  <SCORE.RESTR>
0

>  <SCORE.RESTR.CAVITY>
0

>  <SCORE.RESTR.norm>
0

>  <SCORE.SYSTEM>
0

>  <SCORE.SYSTEM.CONST>
0

>  <SCORE.SYSTEM.DIHEDRAL>
0

>  <SCORE.SYSTEM.SOLV>
0

>  <SCORE.SYSTEM.norm>
0

>  <SCORE.heavy>
16

>  <SCORE.norm>
-0.899399

>  <RMSD>
40.716

$$$$
ligand
 OpenBabel11021811433D
libRbt.so/2013.1/901 2013/11/27
 16 16  0  0  0  0  0  0  0  0999 V2000
    9.1558   -1.4241    0.9242 P   0  0  2  0  0  0  0  0  0  0  0  0
    9.4234   -0.9669    2.3104 O   0  0  0  0  0  0  0  0  0  0  0  0
    8.3932   -2.8405    0.9690 O   0  5  0  0  0  0  0  0  0  0  0  0
   10.5598   -1.5990    0.1549 O   0  0  0  0  0  0  0  0  0  0  0  0
   10.2219    0.3516   -3.3053 C   0  0  2  0  0  0  0  0  0  0  0  0
   11.5109   -0.2057   -2.9917 O   0  0  0  0  0  0  0  0  0  0  0  0
   10.3563    1.8256   -3.7662 C   0  0  2  0  0  0  0  0  0  0  0  0
   11.2457    1.9061   -4.9309 O   0  0  0  0  0  0  0  0  0  0  0  0
   10.9503    2.6476   -2.6071 C   0  0  1  0  0  0  0  0  0  0  0  0
   11.0804    4.0185   -3.0022 O   0  0  0  0  0  0  0  0  0  0  0  0
    9.9980    2.5418   -1.4057 C   0  0  2  0  0  0  0  0  0  0  0  0
   10.5388    3.2960   -0.2995 O   0  0  0  0  0  0  0  0  0  0  0  0
    9.8668    1.0445   -1.0122 C   0  0  2  0  0  0  0  0  0  0  0  0
    9.3383    0.2777   -2.1373 O   0  0  0  0  0  0  0  0  0  0  0  0
    8.8879    0.9264    0.1701 C   0  0  0  0  0  0  0  0  0  0  0  0
    8.2232   -0.3428    0.1503 O   0  0  0  0  0  0  0  0  0  0  0  0
  1  2  1  1  0  0  0
  1  3  1  0  0  0  0
  1  4  2  0  0  0  0
  1 16  1  0  0  0  0
  5  6  1  1  0  0  0
  5  7  1  0  0  0  0
  5 14  1  0  0  0  0
  7  8  1  6  0  0  0
  7  9  1  0  0  0  0
  9 10  1  6  0  0  0
  9 11  1  0  0  0  0
 11 12  1  1  0  0  0
 11 13  1  0  0  0  0
 13 14  1  0  0  0  0
 13 15  1  1  0  0  0
 15 16  1  0  0  0  0
M  CHG  1   3  -1
M  END
>  <CHROM.1>
151.12419796,86.13922359,57.52614822,9.92685272,0.53163116,-1.11338400,-2.77355427
1.24675505,0.34731494

>  <Name>
ligand

>  <RI>
0

>  <Rbt.Current_Directory>
/home/itssahil/PROJECTS/Mol_Feturizer/New_Systems/rnas/2HO7

>  <Rbt.Executable>
rbdock ($Id: //depot/dev/client3/rdock/2013.1/src/exe/rbdock.cxx#4 $)

>  <Rbt.Library>
libRbt.so (2013.1, Build901 2013/11/27)

>  <Rbt.Parameter_File>
/export/apps/rDock/src/rDock_2013.1_src/data/scripts/dock_solv.prm

>  <Rbt.Receptor>
prm/blind_docking_100.prm

>  <SCORE>
-19.6952

>  <SCORE.INTER>
-23.6268

>  <SCORE.INTER.CONST>
1

>  <SCORE.INTER.POLAR>
-2.54558

>  <SCORE.INTER.ROT>
3

>  <SCORE.INTER.SOLV>
19.2962

>  <SCORE.INTER.VDW>
-19.298

>  <SCORE.INTER.norm>
-1.47667

>  <SCORE.INTRA>
3.89918

>  <SCORE.INTRA.DIHEDRAL>
5.36481

>  <SCORE.INTRA.DIHEDRAL.0>
0.00893466

>  <SCORE.INTRA.POLAR>
0

>  <SCORE.INTRA.POLAR.0>
0

>  <SCORE.INTRA.REPUL>
0

>  <SCORE.INTRA.REPUL.0>
0

>  <SCORE.INTRA.SOLV>
2.86085

>  <SCORE.INTRA.SOLV.lig_0>
-48.9722

>  <SCORE.INTRA.VDW>
-0.213651

>  <SCORE.INTRA.VDW.0>
-0.529409

>  <SCORE.INTRA.norm>
0.243699

>  <SCORE.RESTR>
0.0324468

>  <SCORE.RESTR.CAVITY>
0.0324468

>  <SCORE.RESTR.norm>
0.00202793

>  <SCORE.SYSTEM>
0

>  <SCORE.SYSTEM.CONST>
0

>  <SCORE.SYSTEM.DIHEDRAL>
0

>  <SCORE.SYSTEM.SOLV>
0

>  <SCORE.SYSTEM.norm>
0

>  <SCORE.heavy>
16

>  <SCORE.norm>
-1.23095

>  <RMSD>
40.717

$$$$
ligand
 OpenBabel11021811433D
libRbt.so/2013.1/901 2013/11/27
 16 16  0  0  0  0  0  0  0  0999 V2000
    9.0669   -1.4527    0.9140 P   0  0  2  0  0  0  0  0  0  0  0  0
    8.2814   -2.7050    1.0444 O   0  0  0  0  0  0  0  0  0  0  0  0
   10.3983   -1.7464    0.0591 O   0  5  0  0  0  0  0  0  0  0  0  0
    9.4797   -0.9432    2.3849 O   0  0  0  0  0  0  0  0  0  0  0  0
   10.2886    0.3113   -3.2325 C   0  0  2  0  0  0  0  0  0  0  0  0
   11.5820   -0.2197   -2.8919 O   0  0  0  0  0  0  0  0  0  0  0  0
   10.4059    1.7791   -3.7169 C   0  0  2  0  0  0  0  0  0  0  0  0
   11.3098    1.8541   -4.8707 O   0  0  0  0  0  0  0  0  0  0  0  0
   10.9708    2.6303   -2.5642 C   0  0  1  0  0  0  0  0  0  0  0  0
   11.0845    3.9962   -2.9812 O   0  0  0  0  0  0  0  0  0  0  0  0
   10.0039    2.5296   -1.3741 C   0  0  2  0  0  0  0  0  0  0  0  0
   10.5174    3.3112   -0.2739 O   0  0  0  0  0  0  0  0  0  0  0  0
    9.8912    1.0373   -0.9566 C   0  0  2  0  0  0  0  0  0  0  0  0
    9.3904    0.2430   -2.0753 O   0  0  0  0  0  0  0  0  0  0  0  0
    8.8981    0.9236    0.2143 C   0  0  0  0  0  0  0  0  0  0  0  0
    8.1869   -0.3188    0.1542 O   0  0  0  0  0  0  0  0  0  0  0  0
  1  2  1  1  0  0  0
  1  3  1  0  0  0  0
  1  4  2  0  0  0  0
  1 16  1  0  0  0  0
  5  6  1  1  0  0  0
  5  7  1  0  0  0  0
  5 14  1  0  0  0  0
  7  8  1  6  0  0  0
  7  9  1  0  0  0  0
  9 10  1  6  0  0  0
  9 11  1  0  0  0  0
 11 12  1  1  0  0  0
 11 13  1  0  0  0  0
 13 14  1  0  0  0  0
 13 15  1  1  0  0  0
 15 16  1  0  0  0  0
M  CHG  1   3  -1
M  END
>  <CHROM.1>
147.12106200,86.52985497,171.92386041,9.91989024,0.51712970,-1.07869911,-2.74681623
1.22292732,0.31616730

>  <Name>
ligand

>  <RI>
0

>  <Rbt.Current_Directory>
/home/itssahil/PROJECTS/Mol_Feturizer/New_Systems/rnas/2HO7

>  <Rbt.Executable>
rbdock ($Id: //depot/dev/client3/rdock/2013.1/src/exe/rbdock.cxx#4 $)

>  <Rbt.Library>
libRbt.so (2013.1, Build901 2013/11/27)

>  <Rbt.Parameter_File>
/export/apps/rDock/src/rDock_2013.1_src/data/scripts/dock_solv.prm

>  <Rbt.Receptor>
prm/blind_docking_60.prm

>  <SCORE>
-20.1716

>  <SCORE.INTER>
-24.9117

>  <SCORE.INTER.CONST>
1

>  <SCORE.INTER.POLAR>
-2.54558

>  <SCORE.INTER.ROT>
3

>  <SCORE.INTER.SOLV>
17.3138

>  <SCORE.INTER.VDW>
-19.4938

>  <SCORE.INTER.norm>
-1.55698

>  <SCORE.INTRA>
4.69343

>  <SCORE.INTRA.DIHEDRAL>
6.08494

>  <SCORE.INTRA.DIHEDRAL.0>
0.00893466

>  <SCORE.INTRA.POLAR>
0

>  <SCORE.INTRA.POLAR.0>
0

>  <SCORE.INTRA.REPUL>
0

>  <SCORE.INTRA.REPUL.0>
0

>  <SCORE.INTRA.SOLV>
3.86346

>  <SCORE.INTRA.SOLV.lig_0>
-48.9722

>  <SCORE.INTRA.VDW>
-0.280775

>  <SCORE.INTRA.VDW.0>
-0.529409

>  <SCORE.INTRA.norm>
0.293339

>  <SCORE.RESTR>
0.0466444

>  <SCORE.RESTR.CAVITY>
0.0466444

>  <SCORE.RESTR.norm>
0.00291528

>  <SCORE.SYSTEM>
0

>  <SCORE.SYSTEM.CONST>
0

>  <SCORE.SYSTEM.DIHEDRAL>
0

>  <SCORE.SYSTEM.SOLV>
0

>  <SCORE.SYSTEM.norm>
0

>  <SCORE.heavy>
16

>  <SCORE.norm>
-1.26073

>  <RMSD>
40.717

$$$$
ligand
 OpenBabel11021811433D
libRbt.so/2013.1/901 2013/11/27
 16 16  0  0  0  0  0  0  0  0999 V2000
    9.1530   -1.4186    1.2194 P   0  0  2  0  0  0  0  0  0  0  0  0
   10.3065   -1.8396    0.3860 O   0  0  0  0  0  0  0  0  0  0  0  0
    9.0666   -2.3592    2.5223 O   0  5  0  0  0  0  0  0  0  0  0  0
    7.8030   -1.5786    0.3561 O   0  0  0  0  0  0  0  0  0  0  0  0
   10.4898   -0.1136   -2.5548 C   0  0  2  0  0  0  0  0  0  0  0  0
   11.8548   -0.2229   -2.1124 O   0  0  0  0  0  0  0  0  0  0  0  0
   10.2833    1.1751   -3.3912 C   0  0  2  0  0  0  0  0  0  0  0  0
   11.1956    1.1766   -4.5409 O   0  0  0  0  0  0  0  0  0  0  0  0
   10.5820    2.3920   -2.4954 C   0  0  1  0  0  0  0  0  0  0  0  0
   10.3928    3.6006   -3.2410 O   0  0  0  0  0  0  0  0  0  0  0  0
    9.6130    2.3603   -1.3033 C   0  0  2  0  0  0  0  0  0  0  0  0
    9.8804    3.4866   -0.4403 O   0  0  0  0  0  0  0  0  0  0  0  0
    9.8326    1.0332   -0.5257 C   0  0  2  0  0  0  0  0  0  0  0  0
    9.5813   -0.1066   -1.4037 O   0  0  0  0  0  0  0  0  0  0  0  0
    8.8420    0.9785    0.6514 C   0  0  0  0  0  0  0  0  0  0  0  0
    9.3384    0.1248    1.6897 O   0  0  0  0  0  0  0  0  0  0  0  0
  1  2  1  6  0  0  0
  1  3  1  0  0  0  0
  1  4  2  0  0  0  0
  1 16  1  0  0  0  0
  5  6  1  1  0  0  0
  5  7  1  0  0  0  0
  5 14  1  0  0  0  0
  7  8  1  6  0  0  0
  7  9  1  0  0  0  0
  9 10  1  6  0  0  0
  9 11  1  0  0  0  0
 11 12  1  1  0  0  0
 11 13  1  0  0  0  0
 13 14  1  0  0  0  0
 13 15  1  1  0  0  0
 15 16  1  0  0  0  0
M  CHG  1   3  -1
M  END
>  <CHROM.1>
-155.61778897,-75.26312675,85.01349323,9.83729941,0.37559218,-0.76881779
-2.25021711,1.13929493,-0.25389486

>  <Name>
ligand

>  <RI>
0

>  <Rbt.Current_Directory>
/home/itssahil/PROJECTS/Mol_Feturizer/New_Systems/rnas/2HO7

>  <Rbt.Executable>
rbdock ($Id: //depot/dev/client3/rdock/2013.1/src/exe/rbdock.cxx#4 $)

>  <Rbt.Library>
libRbt.so (2013.1, Build901 2013/11/27)

>  <Rbt.Parameter_File>
/export/apps/rDock/src/rDock_2013.1_src/data/scripts/dock_solv.prm

>  <Rbt.Receptor>
prm/blind_docking_100.prm

>  <SCORE>
-19.4974

>  <SCORE.INTER>
-23.04

>  <SCORE.INTER.CONST>
1

>  <SCORE.INTER.POLAR>
-2.86378

>  <SCORE.INTER.ROT>
3

>  <SCORE.INTER.SOLV>
20.3184

>  <SCORE.INTER.VDW>
-18.1869

>  <SCORE.INTER.norm>
-1.44

>  <SCORE.INTRA>
3.54207

>  <SCORE.INTRA.DIHEDRAL>
3.84249

>  <SCORE.INTRA.DIHEDRAL.0>
0.00893466

>  <SCORE.INTRA.POLAR>
0

>  <SCORE.INTRA.POLAR.0>
0

>  <SCORE.INTRA.REPUL>
0

>  <SCORE.INTRA.REPUL.0>
0

>  <SCORE.INTRA.SOLV>
2.91945

>  <SCORE.INTRA.SOLV.lig_0>
-48.9722

>  <SCORE.INTRA.VDW>
0.161104

>  <SCORE.INTRA.VDW.0>
-0.529409

>  <SCORE.INTRA.norm>
0.22138

>  <SCORE.RESTR>
0.000562129

>  <SCORE.RESTR.CAVITY>
0.000562129

>  <SCORE.RESTR.norm>
3.51331e-05

>  <SCORE.SYSTEM>
0

>  <SCORE.SYSTEM.CONST>
0

>  <SCORE.SYSTEM.DIHEDRAL>
0

>  <SCORE.SYSTEM.SOLV>
0

>  <SCORE.SYSTEM.norm>
0

>  <SCORE.heavy>
16

>  <SCORE.norm>
-1.21859

>  <RMSD>
40.721

$$$$
ligand
 OpenBabel11021811433D
libRbt.so/2013.1/901 2013/11/27
 16 16  0  0  0  0  0  0  0  0999 V2000
    9.1603   -1.4165    0.9104 P   0  0  2  0  0  0  0  0  0  0  0  0
    9.4230   -0.9735    2.3022 O   0  0  0  0  0  0  0  0  0  0  0  0
    8.4194   -2.8448    0.9377 O   0  5  0  0  0  0  0  0  0  0  0  0
   10.5657   -1.5599    0.1372 O   0  0  0  0  0  0  0  0  0  0  0  0
   10.2085    0.3528   -3.3081 C   0  0  2  0  0  0  0  0  0  0  0  0
   11.4943   -0.2103   -2.9911 O   0  0  0  0  0  0  0  0  0  0  0  0
   10.3507    1.8262   -3.7686 C   0  0  2  0  0  0  0  0  0  0  0  0
   11.2436    1.9028   -4.9309 O   0  0  0  0  0  0  0  0  0  0  0  0
   10.9453    2.6456   -2.6078 C   0  0  1  0  0  0  0  0  0  0  0  0
   11.0826    4.0159   -3.0026 O   0  0  0  0  0  0  0  0  0  0  0  0
    9.9894    2.5439   -1.4090 C   0  0  2  0  0  0  0  0  0  0  0  0
   10.5306    3.2957   -0.3013 O   0  0  0  0  0  0  0  0  0  0  0  0
    9.8505    1.0472   -1.0159 C   0  0  2  0  0  0  0  0  0  0  0  0
    9.3215    0.2828   -2.1424 O   0  0  0  0  0  0  0  0  0  0  0  0
    8.8679    0.9334    0.1638 C   0  0  0  0  0  0  0  0  0  0  0  0
    8.2102   -0.3395    0.1521 O   0  0  0  0  0  0  0  0  0  0  0  0
  1  2  1  1  0  0  0
  1  3  1  0  0  0  0
  1  4  2  0  0  0  0
  1 16  1  0  0  0  0
  5  6  1  1  0  0  0
  5  7  1  0  0  0  0
  5 14  1  0  0  0  0
  7  8  1  6  0  0  0
  7  9  1  0  0  0  0
  9 10  1  6  0  0  0
  9 11  1  0  0  0  0
 11 12  1  1  0  0  0
 11 13  1  0  0  0  0
 13 14  1  0  0  0  0
 13 15  1  1  0  0  0
 15 16  1  0  0  0  0
M  CHG  1   3  -1
M  END
>  <CHROM.1>
151.86185018,84.94949191,58.68575763,9.92233581,0.53479577,-1.11996998,-2.77226757
1.24736888,0.34652750

>  <Name>
ligand

>  <RI>
0

>  <Rbt.Current_Directory>
/home/itssahil/PROJECTS/Mol_Feturizer/New_Systems/rnas/2HO7

>  <Rbt.Executable>
rbdock ($Id: //depot/dev/client3/rdock/2013.1/src/exe/rbdock.cxx#4 $)

>  <Rbt.Library>
libRbt.so (2013.1, Build901 2013/11/27)

>  <Rbt.Parameter_File>
/export/apps/rDock/src/rDock_2013.1_src/data/scripts/dock_solv.prm

>  <Rbt.Receptor>
prm/blind_docking_20.prm

>  <SCORE>
-19.6759

>  <SCORE.INTER>
-23.5101

>  <SCORE.INTER.CONST>
1

>  <SCORE.INTER.POLAR>
-2.54558

>  <SCORE.INTER.ROT>
3

>  <SCORE.INTER.SOLV>
19.2659

>  <SCORE.INTER.VDW>
-19.2101

>  <SCORE.INTER.norm>
-1.46938

>  <SCORE.INTRA>
3.80584

>  <SCORE.INTRA.DIHEDRAL>
5.0377

>  <SCORE.INTRA.DIHEDRAL.0>
0.00893466

>  <SCORE.INTRA.POLAR>
0

>  <SCORE.INTRA.POLAR.0>
0

>  <SCORE.INTRA.REPUL>
0

>  <SCORE.INTRA.REPUL.0>
0

>  <SCORE.INTRA.SOLV>
2.96843

>  <SCORE.INTRA.SOLV.lig_0>
-48.9722

>  <SCORE.INTRA.VDW>
-0.197224

>  <SCORE.INTRA.VDW.0>
-0.529409

>  <SCORE.INTRA.norm>
0.237865

>  <SCORE.RESTR>
0.0283858

>  <SCORE.RESTR.CAVITY>
0.0283858

>  <SCORE.RESTR.norm>
0.00177411

>  <SCORE.SYSTEM>
0

>  <SCORE.SYSTEM.CONST>
0

>  <SCORE.SYSTEM.DIHEDRAL>
0

>  <SCORE.SYSTEM.SOLV>
0

>  <SCORE.SYSTEM.norm>
0

>  <SCORE.heavy>
16

>  <SCORE.norm>
-1.22974

>  <RMSD>
40.722

$$$$
ligand
 OpenBabel11021811433D
libRbt.so/2013.1/901 2013/11/27
 16 16  0  0  0  0  0  0  0  0999 V2000
    9.0414   -1.4257    1.1748 P   0  0  2  0  0  0  0  0  0  0  0  0
   10.1789   -1.7900    0.2941 O   0  0  0  0  0  0  0  0  0  0  0  0
    9.0352   -2.3911    2.4624 O   0  5  0  0  0  0  0  0  0  0  0  0
    7.6681   -1.6201    0.3565 O   0  0  0  0  0  0  0  0  0  0  0  0
   10.5495   -0.1124   -2.5215 C   0  0  2  0  0  0  0  0  0  0  0  0
   11.8875   -0.2474   -2.0094 O   0  0  0  0  0  0  0  0  0  0  0  0
   10.4066    1.1876   -3.3538 C   0  0  2  0  0  0  0  0  0  0  0  0
   11.3780    1.1861   -4.4540 O   0  0  0  0  0  0  0  0  0  0  0  0
   10.6763    2.3907   -2.4306 C   0  0  1  0  0  0  0  0  0  0  0  0
   10.5449    3.6094   -3.1722 O   0  0  0  0  0  0  0  0  0  0  0  0
    9.6457    2.3625   -1.2912 C   0  0  2  0  0  0  0  0  0  0  0  0
    9.8844    3.4760   -0.4035 O   0  0  0  0  0  0  0  0  0  0  0  0
    9.8041    1.0246   -0.5174 C   0  0  2  0  0  0  0  0  0  0  0  0
    9.5820   -0.1025   -1.4195 O   0  0  0  0  0  0  0  0  0  0  0  0
    8.7523    0.9738    0.6056 C   0  0  0  0  0  0  0  0  0  0  0  0
    9.1879    0.1151    1.6668 O   0  0  0  0  0  0  0  0  0  0  0  0
  1  2  1  6  0  0  0
  1  3  1  0  0  0  0
  1  4  2  0  0  0  0
  1 16  1  0  0  0  0
  5  6  1  1  0  0  0
  5  7  1  0  0  0  0
  5 14  1  0  0  0  0
  7  8  1  6  0  0  0
  7  9  1  0  0  0  0
  9 10  1  6  0  0  0
  9 11  1  0  0  0  0
 11 12  1  1  0  0  0
 11 13  1  0  0  0  0
 13 14  1  0  0  0  0
 13 15  1  1  0  0  0
 15 16  1  0  0  0  0
M  CHG  1   3  -1
M  END
>  <CHROM.1>
-154.90766503,-74.33831090,79.11355869,9.82859334,0.37184863,-0.76214622
-2.29383245,1.09504750,-0.20711542

>  <Name>
ligand

>  <RI>
0

>  <Rbt.Current_Directory>
/home/itssahil/PROJECTS/Mol_Feturizer/New_Systems/rnas/2HO7

>  <Rbt.Executable>
rbdock ($Id: //depot/dev/client3/rdock/2013.1/src/exe/rbdock.cxx#4 $)

>  <Rbt.Library>
libRbt.so (2013.1, Build901 2013/11/27)

>  <Rbt.Parameter_File>
/export/apps/rDock/src/rDock_2013.1_src/data/scripts/dock_solv.prm

>  <Rbt.Receptor>
prm/blind_docking_60.prm

>  <SCORE>
-19.629

>  <SCORE.INTER>
-23.2248

>  <SCORE.INTER.CONST>
1

>  <SCORE.INTER.POLAR>
-2.86378

>  <SCORE.INTER.ROT>
3

>  <SCORE.INTER.SOLV>
20.8552

>  <SCORE.INTER.VDW>
-18.489

>  <SCORE.INTER.norm>
-1.45155

>  <SCORE.INTRA>
3.5928

>  <SCORE.INTRA.DIHEDRAL>
3.47737

>  <SCORE.INTRA.DIHEDRAL.0>
0.00893466

>  <SCORE.INTRA.POLAR>
0

>  <SCORE.INTRA.POLAR.0>
0

>  <SCORE.INTRA.REPUL>
0

>  <SCORE.INTRA.REPUL.0>
0

>  <SCORE.INTRA.SOLV>
2.74987

>  <SCORE.INTRA.SOLV.lig_0>
-48.9722

>  <SCORE.INTRA.VDW>
0.479183

>  <SCORE.INTRA.VDW.0>
-0.529409

>  <SCORE.INTRA.norm>
0.22455

>  <SCORE.RESTR>
0.00297415

>  <SCORE.RESTR.CAVITY>
0.00297415

>  <SCORE.RESTR.norm>
0.000185884

>  <SCORE.SYSTEM>
0

>  <SCORE.SYSTEM.CONST>
0

>  <SCORE.SYSTEM.DIHEDRAL>
0

>  <SCORE.SYSTEM.SOLV>
0

>  <SCORE.SYSTEM.norm>
0

>  <SCORE.heavy>
16

>  <SCORE.norm>
-1.22681

>  <RMSD>
40.723

$$$$
ligand
 OpenBabel11021811433D
libRbt.so/2013.1/901 2013/11/27
 16 16  0  0  0  0  0  0  0  0999 V2000
    9.1261   -1.4141    0.9722 P   0  0  2  0  0  0  0  0  0  0  0  0
    8.3645   -2.6672    1.2003 O   0  0  0  0  0  0  0  0  0  0  0  0
   10.4476   -1.7434    0.1149 O   0  5  0  0  0  0  0  0  0  0  0  0
    9.5551   -0.8004    2.3980 O   0  0  0  0  0  0  0  0  0  0  0  0
   10.1976    0.3436   -3.3153 C   0  0  2  0  0  0  0  0  0  0  0  0
   11.4805   -0.2306   -3.0071 O   0  0  0  0  0  0  0  0  0  0  0  0
   10.3489    1.8176   -3.7709 C   0  0  2  0  0  0  0  0  0  0  0  0
   11.2364    1.8918   -4.9375 O   0  0  0  0  0  0  0  0  0  0  0  0
   10.9557    2.6279   -2.6100 C   0  0  1  0  0  0  0  0  0  0  0  0
   11.1016    3.9986   -3.0002 O   0  0  0  0  0  0  0  0  0  0  0  0
   10.0051    2.5290   -1.4067 C   0  0  2  0  0  0  0  0  0  0  0  0
   10.5578    3.2722   -0.2990 O   0  0  0  0  0  0  0  0  0  0  0  0
    9.8566    1.0319   -1.0187 C   0  0  2  0  0  0  0  0  0  0  0  0
    9.3160    0.2759   -2.1454 O   0  0  0  0  0  0  0  0  0  0  0  0
    8.8792    0.9212    0.1656 C   0  0  0  0  0  0  0  0  0  0  0  0
    8.2141   -0.3479    0.1542 O   0  0  0  0  0  0  0  0  0  0  0  0
  1  2  1  1  0  0  0
  1  3  1  0  0  0  0
  1  4  2  0  0  0  0
  1 16  1  0  0  0  0
  5  6  1  1  0  0  0
  5  7  1  0  0  0  0
  5 14  1  0  0  0  0
  7  8  1  6  0  0  0
  7  9  1  0  0  0  0
  9 10  1  6  0  0  0
  9 11  1  0  0  0  0
 11 12  1  1  0  0  0
 11 13  1  0  0  0  0
 13 14  1  0  0  0  0
 13 15  1  1  0  0  0
 15 16  1  0  0  0  0
M  CHG  1   3  -1
M  END
>  <CHROM.1>
152.00878749,87.83743241,169.57074514,9.91871188,0.53608092,-1.09298561,-2.83726024
1.25437056,0.39225477

>  <Name>
ligand

>  <RI>
0

>  <Rbt.Current_Directory>
/home/itssahil/PROJECTS/Mol_Feturizer/New_Systems/rnas/2HO7

>  <Rbt.Executable>
rbdock ($Id: //depot/dev/client3/rdock/2013.1/src/exe/rbdock.cxx#4 $)

>  <Rbt.Library>
libRbt.so (2013.1, Build901 2013/11/27)

>  <Rbt.Parameter_File>
/export/apps/rDock/src/rDock_2013.1_src/data/scripts/dock_solv.prm

>  <Rbt.Receptor>
prm/blind_docking_20.prm

>  <SCORE>
-20.2822

>  <SCORE.INTER>
-24.6415

>  <SCORE.INTER.CONST>
1

>  <SCORE.INTER.POLAR>
-2.54558

>  <SCORE.INTER.ROT>
3

>  <SCORE.INTER.SOLV>
17.4436

>  <SCORE.INTER.VDW>
-19.3569

>  <SCORE.INTER.norm>
-1.54009

>  <SCORE.INTRA>
4.32957

>  <SCORE.INTRA.DIHEDRAL>
5.72414

>  <SCORE.INTRA.DIHEDRAL.0>
0.00893466

>  <SCORE.INTRA.POLAR>
0

>  <SCORE.INTRA.POLAR.0>
0

>  <SCORE.INTRA.REPUL>
0

>  <SCORE.INTRA.REPUL.0>
0

>  <SCORE.INTRA.SOLV>
3.57733

>  <SCORE.INTRA.SOLV.lig_0>
-48.9722

>  <SCORE.INTRA.VDW>
-0.321156

>  <SCORE.INTRA.VDW.0>
-0.529409

>  <SCORE.INTRA.norm>
0.270598

>  <SCORE.RESTR>
0.0297567

>  <SCORE.RESTR.CAVITY>
0.0297567

>  <SCORE.RESTR.norm>
0.00185979

>  <SCORE.SYSTEM>
0

>  <SCORE.SYSTEM.CONST>
0

>  <SCORE.SYSTEM.DIHEDRAL>
0

>  <SCORE.SYSTEM.SOLV>
0

>  <SCORE.SYSTEM.norm>
0

>  <SCORE.heavy>
16

>  <SCORE.norm>
-1.26764

>  <RMSD>
40.725

$$$$
ligand
 OpenBabel11021811433D
libRbt.so/2013.1/901 2013/11/27
 16 16  0  0  0  0  0  0  0  0999 V2000
    9.0985    0.1343    0.9986 P   0  0  2  0  0  0  0  0  0  0  0  0
    8.7958    1.5621    0.7298 O   0  0  0  0  0  0  0  0  0  0  0  0
    7.9547   -0.7854    0.3386 O   0  5  0  0  0  0  0  0  0  0  0  0
    9.1182   -0.1012    2.5917 O   0  0  0  0  0  0  0  0  0  0  0  0
   10.7122    3.1378   -3.1178 C   0  0  2  0  0  0  0  0  0  0  0  0
    9.3454    3.5445   -2.9256 O   0  0  0  0  0  0  0  0  0  0  0  0
   10.8156    2.0604   -4.2276 C   0  0  2  0  0  0  0  0  0  0  0  0
   10.2546    2.5783   -5.4811 O   0  0  0  0  0  0  0  0  0  0  0  0
   10.0185    0.8206   -3.7805 C   0  0  1  0  0  0  0  0  0  0  0  0
   10.1013   -0.1970   -4.7855 O   0  0  0  0  0  0  0  0  0  0  0  0
   10.6289    0.3047   -2.4680 C   0  0  2  0  0  0  0  0  0  0  0  0
    9.8910   -0.8530   -2.0205 O   0  0  0  0  0  0  0  0  0  0  0  0
   10.5374    1.4345   -1.4053 C   0  0  2  0  0  0  0  0  0  0  0  0
   11.2672    2.6128   -1.8661 O   0  0  0  0  0  0  0  0  0  0  0  0
   11.1773    0.9371   -0.0964 C   0  0  0  0  0  0  0  0  0  0  0  0
   10.5360   -0.2620    0.3552 O   0  0  0  0  0  0  0  0  0  0  0  0
  1  2  1  6  0  0  0
  1  3  1  0  0  0  0
  1  4  2  0  0  0  0
  1 16  1  0  0  0  0
  5  6  1  1  0  0  0
  5  7  1  0  0  0  0
  5 14  1  0  0  0  0
  7  8  1  6  0  0  0
  7  9  1  0  0  0  0
  9 10  1  6  0  0  0
  9 11  1  0  0  0  0
 11 12  1  1  0  0  0
 11 13  1  0  0  0  0
 13 14  1  0  0  0  0
 13 15  1  1  0  0  0
 15 16  1  0  0  0  0
M  CHG  1   3  -1
M  END
>  <CHROM.1>
-57.18818455,-75.54773593,9.00806549,9.92181935,0.97558913,-1.47467854,-2.63352219
-1.33352731,-2.27015360

>  <Name>
ligand

>  <RI>
0

>  <Rbt.Current_Directory>
/home/itssahil/PROJECTS/Mol_Feturizer/New_Systems/rnas/2HO7

>  <Rbt.Executable>
rbdock ($Id: //depot/dev/client3/rdock/2013.1/src/exe/rbdock.cxx#4 $)

>  <Rbt.Library>
libRbt.so (2013.1, Build901 2013/11/27)

>  <Rbt.Parameter_File>
/export/apps/rDock/src/rDock_2013.1_src/data/scripts/dock_solv.prm

>  <Rbt.Receptor>
prm/blind_docking_80.prm

>  <SCORE>
-16.0018

>  <SCORE.INTER>
-21.0619

>  <SCORE.INTER.CONST>
1

>  <SCORE.INTER.POLAR>
-2.45777

>  <SCORE.INTER.ROT>
3

>  <SCORE.INTER.SOLV>
20.7653

>  <SCORE.INTER.VDW>
-18.3705

>  <SCORE.INTER.norm>
-1.31637

>  <SCORE.INTRA>
5.06016

>  <SCORE.INTRA.DIHEDRAL>
3.41778

>  <SCORE.INTRA.DIHEDRAL.0>
0.00893466

>  <SCORE.INTRA.POLAR>
0

>  <SCORE.INTRA.POLAR.0>
0

>  <SCORE.INTRA.REPUL>
0

>  <SCORE.INTRA.REPUL.0>
0

>  <SCORE.INTRA.SOLV>
2.67636

>  <SCORE.INTRA.SOLV.lig_0>
-48.9722

>  <SCORE.INTRA.VDW>
2.01309

>  <SCORE.INTRA.VDW.0>
-0.529409

>  <SCORE.INTRA.norm>
0.31626

>  <SCORE.RESTR>
0

>  <SCORE.RESTR.CAVITY>
0

>  <SCORE.RESTR.norm>
0

>  <SCORE.SYSTEM>
0

>  <SCORE.SYSTEM.CONST>
0

>  <SCORE.SYSTEM.DIHEDRAL>
0

>  <SCORE.SYSTEM.SOLV>
0

>  <SCORE.SYSTEM.norm>
0

>  <SCORE.heavy>
16

>  <SCORE.norm>
-1.00011

>  <RMSD>
40.729

$$$$
ligand
 OpenBabel11021811433D
libRbt.so/2013.1/901 2013/11/27
 16 16  0  0  0  0  0  0  0  0999 V2000
    9.1608    0.5328    1.1439 P   0  0  2  0  0  0  0  0  0  0  0  0
    8.2568    1.3592    1.9817 O   0  0  0  0  0  0  0  0  0  0  0  0
    8.4434    0.2179   -0.2618 O   0  5  0  0  0  0  0  0  0  0  0  0
    9.4594   -0.8511    1.9115 O   0  0  0  0  0  0  0  0  0  0  0  0
   10.6778    3.0598   -3.2352 C   0  0  2  0  0  0  0  0  0  0  0  0
    9.3103    3.4531   -3.0206 O   0  0  0  0  0  0  0  0  0  0  0  0
   10.7787    2.0203   -4.3807 C   0  0  2  0  0  0  0  0  0  0  0  0
   10.2068    2.5766   -5.6126 O   0  0  0  0  0  0  0  0  0  0  0  0
    9.9906    0.7623   -3.9697 C   0  0  1  0  0  0  0  0  0  0  0  0
   10.0713   -0.2209   -5.0085 O   0  0  0  0  0  0  0  0  0  0  0  0
   10.6122    0.2064   -2.6791 C   0  0  2  0  0  0  0  0  0  0  0  0
    9.8829   -0.9691   -2.2653 O   0  0  0  0  0  0  0  0  0  0  0  0
   10.5226    1.2999   -1.5790 C   0  0  2  0  0  0  0  0  0  0  0  0
   11.2437    2.4964   -2.0053 O   0  0  0  0  0  0  0  0  0  0  0  0
   11.1737    0.7626   -0.2915 C   0  0  0  0  0  0  0  0  0  0  0  0
   10.5479    1.3304    0.8656 O   0  0  0  0  0  0  0  0  0  0  0  0
  1  2  1  1  0  0  0
  1  3  1  0  0  0  0
  1  4  2  0  0  0  0
  1 16  1  0  0  0  0
  5  6  1  1  0  0  0
  5  7  1  0  0  0  0
  5 14  1  0  0  0  0
  7  8  1  6  0  0  0
  7  9  1  0  0  0  0
  9 10  1  6  0  0  0
  9 11  1  0  0  0  0
 11 12  1  1  0  0  0
 11 13  1  0  0  0  0
 13 14  1  0  0  0  0
 13 15  1  1  0  0  0
 15 16  1  0  0  0  0
M  CHG  1   3  -1
M  END
>  <CHROM.1>
-149.37218150,79.73770172,-159.41345881,9.93248957,1.07498008,-1.53317032
-2.82461818,-1.37954982,-2.58313957

>  <Name>
ligand

>  <RI>
0

>  <Rbt.Current_Directory>
/home/itssahil/PROJECTS/Mol_Feturizer/New_Systems/rnas/2HO7

>  <Rbt.Executable>
rbdock ($Id: //depot/dev/client3/rdock/2013.1/src/exe/rbdock.cxx#4 $)

>  <Rbt.Library>
libRbt.so (2013.1, Build901 2013/11/27)

>  <Rbt.Parameter_File>
/export/apps/rDock/src/rDock_2013.1_src/data/scripts/dock_solv.prm

>  <Rbt.Receptor>
prm/blind_docking_100.prm

>  <SCORE>
-14.1549

>  <SCORE.INTER>
-19.5219

>  <SCORE.INTER.CONST>
1

>  <SCORE.INTER.POLAR>
-2.26682

>  <SCORE.INTER.ROT>
3

>  <SCORE.INTER.SOLV>
19.9049

>  <SCORE.INTER.VDW>
-17.6935

>  <SCORE.INTER.norm>
-1.22012

>  <SCORE.INTRA>
5.36702

>  <SCORE.INTRA.DIHEDRAL>
5.10427

>  <SCORE.INTRA.DIHEDRAL.0>
0.00893466

>  <SCORE.INTRA.POLAR>
0

>  <SCORE.INTRA.POLAR.0>
0

>  <SCORE.INTRA.REPUL>
0

>  <SCORE.INTRA.REPUL.0>
0

>  <SCORE.INTRA.SOLV>
4.66299

>  <SCORE.INTRA.SOLV.lig_0>
-48.9722

>  <SCORE.INTRA.VDW>
0.48339

>  <SCORE.INTRA.VDW.0>
-0.529409

>  <SCORE.INTRA.norm>
0.335439

>  <SCORE.RESTR>
0

>  <SCORE.RESTR.CAVITY>
0

>  <SCORE.RESTR.norm>
0

>  <SCORE.SYSTEM>
0

>  <SCORE.SYSTEM.CONST>
0

>  <SCORE.SYSTEM.DIHEDRAL>
0

>  <SCORE.SYSTEM.SOLV>
0

>  <SCORE.SYSTEM.norm>
0

>  <SCORE.heavy>
16

>  <SCORE.norm>
-0.884682

>  <RMSD>
40.730

$$$$
ligand
 OpenBabel11021811433D
libRbt.so/2013.1/901 2013/11/27
 16 16  0  0  0  0  0  0  0  0999 V2000
    9.1287   -1.3875    0.9468 P   0  0  2  0  0  0  0  0  0  0  0  0
    8.3838   -2.6470    1.1941 O   0  0  0  0  0  0  0  0  0  0  0  0
   10.4271   -1.7046    0.0505 O   0  5  0  0  0  0  0  0  0  0  0  0
    9.5943   -0.7735    2.3609 O   0  0  0  0  0  0  0  0  0  0  0  0
   10.1801    0.3550   -3.3119 C   0  0  2  0  0  0  0  0  0  0  0  0
   11.4584   -0.2233   -2.9922 O   0  0  0  0  0  0  0  0  0  0  0  0
   10.3406    1.8269   -3.7709 C   0  0  2  0  0  0  0  0  0  0  0  0
   11.2371    1.8940   -4.9310 O   0  0  0  0  0  0  0  0  0  0  0  0
   10.9419    2.6384   -2.6080 C   0  0  1  0  0  0  0  0  0  0  0  0
   11.0961    4.0074   -3.0013 O   0  0  0  0  0  0  0  0  0  0  0  0
    9.9819    2.5471   -1.4116 C   0  0  2  0  0  0  0  0  0  0  0  0
   10.5292    3.2916   -0.3020 O   0  0  0  0  0  0  0  0  0  0  0  0
    9.8246    1.0518   -1.0200 C   0  0  2  0  0  0  0  0  0  0  0  0
    9.2895    0.2944   -2.1484 O   0  0  0  0  0  0  0  0  0  0  0  0
    8.8379    0.9486    0.1572 C   0  0  0  0  0  0  0  0  0  0  0  0
    8.1849   -0.3268    0.1582 O   0  0  0  0  0  0  0  0  0  0  0  0
  1  2  1  1  0  0  0
  1  3  1  0  0  0  0
  1  4  2  0  0  0  0
  1 16  1  0  0  0  0
  5  6  1  1  0  0  0
  5  7  1  0  0  0  0
  5 14  1  0  0  0  0
  7  8  1  6  0  0  0
  7  9  1  0  0  0  0
  9 10  1  6  0  0  0
  9 11  1  0  0  0  0
 11 12  1  1  0  0  0
 11 13  1  0  0  0  0
 13 14  1  0  0  0  0
 13 15  1  1  0  0  0
 15 16  1  0  0  0  0
M  CHG  1   3  -1
M  END
>  <CHROM.1>
153.00618053,85.54039435,169.36965649,9.90728103,0.55465086,-1.10222419,-2.82005741
1.25292829,0.37574886

>  <Name>
ligand

>  <RI>
0

>  <Rbt.Current_Directory>
/home/itssahil/PROJECTS/Mol_Feturizer/New_Systems/rnas/2HO7

>  <Rbt.Executable>
rbdock ($Id: //depot/dev/client3/rdock/2013.1/src/exe/rbdock.cxx#4 $)

>  <Rbt.Library>
libRbt.so (2013.1, Build901 2013/11/27)

>  <Rbt.Parameter_File>
/export/apps/rDock/src/rDock_2013.1_src/data/scripts/dock_solv.prm

>  <Rbt.Receptor>
prm/blind_docking_20.prm

>  <SCORE>
-20.3293

>  <SCORE.INTER>
-24.5197

>  <SCORE.INTER.CONST>
1

>  <SCORE.INTER.POLAR>
-2.54489

>  <SCORE.INTER.ROT>
3

>  <SCORE.INTER.SOLV>
17.4788

>  <SCORE.INTER.VDW>
-19.2898

>  <SCORE.INTER.norm>
-1.53248

>  <SCORE.INTRA>
4.16104

>  <SCORE.INTRA.DIHEDRAL>
5.16787

>  <SCORE.INTRA.DIHEDRAL.0>
0.00893466

>  <SCORE.INTRA.POLAR>
0

>  <SCORE.INTRA.POLAR.0>
0

>  <SCORE.INTRA.REPUL>
0

>  <SCORE.INTRA.REPUL.0>
0

>  <SCORE.INTRA.SOLV>
3.77144

>  <SCORE.INTRA.SOLV.lig_0>
-48.9722

>  <SCORE.INTRA.VDW>
-0.308618

>  <SCORE.INTRA.VDW.0>
-0.529409

>  <SCORE.INTRA.norm>
0.260065

>  <SCORE.RESTR>
0.0294516

>  <SCORE.RESTR.CAVITY>
0.0294516

>  <SCORE.RESTR.norm>
0.00184072

>  <SCORE.SYSTEM>
0

>  <SCORE.SYSTEM.CONST>
0

>  <SCORE.SYSTEM.DIHEDRAL>
0

>  <SCORE.SYSTEM.SOLV>
0

>  <SCORE.SYSTEM.norm>
0

>  <SCORE.heavy>
16

>  <SCORE.norm>
-1.27058

>  <RMSD>
40.732

$$$$
ligand
 OpenBabel11021811433D
libRbt.so/2013.1/901 2013/11/27
 16 16  0  0  0  0  0  0  0  0999 V2000
    9.1564   -1.4148    0.8021 P   0  0  2  0  0  0  0  0  0  0  0  0
   10.3490   -1.6089   -0.0595 O   0  0  0  0  0  0  0  0  0  0  0  0
    9.6272   -0.9152    2.2576 O   0  5  0  0  0  0  0  0  0  0  0  0
    8.3847   -2.8211    0.9452 O   0  0  0  0  0  0  0  0  0  0  0  0
   10.2111    0.3586   -3.2876 C   0  0  2  0  0  0  0  0  0  0  0  0
   11.4966   -0.1969   -2.9568 O   0  0  0  0  0  0  0  0  0  0  0  0
   10.3511    1.8282   -3.7606 C   0  0  2  0  0  0  0  0  0  0  0  0
   11.2516    1.8974   -4.9175 O   0  0  0  0  0  0  0  0  0  0  0  0
   10.9349    2.6603   -2.6034 C   0  0  1  0  0  0  0  0  0  0  0  0
   11.0700    4.0275   -3.0097 O   0  0  0  0  0  0  0  0  0  0  0  0
    9.9713    2.5662   -1.4101 C   0  0  2  0  0  0  0  0  0  0  0  0
   10.5023    3.3299   -0.3058 O   0  0  0  0  0  0  0  0  0  0  0  0
    9.8351    1.0726   -1.0043 C   0  0  2  0  0  0  0  0  0  0  0  0
    9.3165    0.2960   -2.1273 O   0  0  0  0  0  0  0  0  0  0  0  0
    8.8450    0.9660    0.1697 C   0  0  0  0  0  0  0  0  0  0  0  0
    8.1727   -0.2991    0.1499 O   0  0  0  0  0  0  0  0  0  0  0  0
  1  2  1  6  0  0  0
  1  3  1  0  0  0  0
  1  4  2  0  0  0  0
  1 16  1  0  0  0  0
  5  6  1  1  0  0  0
  5  7  1  0  0  0  0
  5 14  1  0  0  0  0
  7  8  1  6  0  0  0
  7  9  1  0  0  0  0
  9 10  1  6  0  0  0
  9 11  1  0  0  0  0
 11 12  1  1  0  0  0
 11 13  1  0  0  0  0
 13 14  1  0  0  0  0
 13 15  1  1  0  0  0
 15 16  1  0  0  0  0
M  CHG  1   3  -1
M  END
>  <CHROM.1>
150.72560454,80.44196638,-65.99709465,9.91092814,0.54923305,-1.14227039,-2.76990636
1.24391505,0.35643773

>  <Name>
ligand

>  <RI>
0

>  <Rbt.Current_Directory>
/home/itssahil/PROJECTS/Mol_Feturizer/New_Systems/rnas/2HO7

>  <Rbt.Executable>
rbdock ($Id: //depot/dev/client3/rdock/2013.1/src/exe/rbdock.cxx#4 $)

>  <Rbt.Library>
libRbt.so (2013.1, Build901 2013/11/27)

>  <Rbt.Parameter_File>
/export/apps/rDock/src/rDock_2013.1_src/data/scripts/dock_solv.prm

>  <Rbt.Receptor>
prm/blind_docking_80.prm

>  <SCORE>
-19.8909

>  <SCORE.INTER>
-22.7051

>  <SCORE.INTER.CONST>
1

>  <SCORE.INTER.POLAR>
-2.54558

>  <SCORE.INTER.ROT>
3

>  <SCORE.INTER.SOLV>
21.0486

>  <SCORE.INTER.VDW>
-19.2677

>  <SCORE.INTER.norm>
-1.41907

>  <SCORE.INTRA>
2.78186

>  <SCORE.INTRA.DIHEDRAL>
4.4642

>  <SCORE.INTRA.DIHEDRAL.0>
0.00893466

>  <SCORE.INTRA.POLAR>
0

>  <SCORE.INTRA.POLAR.0>
0

>  <SCORE.INTRA.REPUL>
0

>  <SCORE.INTRA.REPUL.0>
0

>  <SCORE.INTRA.SOLV>
1.27796

>  <SCORE.INTRA.SOLV.lig_0>
-48.9722

>  <SCORE.INTRA.VDW>
-0.0892225

>  <SCORE.INTRA.VDW.0>
-0.529409

>  <SCORE.INTRA.norm>
0.173866

>  <SCORE.RESTR>
0.0324125

>  <SCORE.RESTR.CAVITY>
0.0324125

>  <SCORE.RESTR.norm>
0.00202578

>  <SCORE.SYSTEM>
0

>  <SCORE.SYSTEM.CONST>
0

>  <SCORE.SYSTEM.DIHEDRAL>
0

>  <SCORE.SYSTEM.SOLV>
0

>  <SCORE.SYSTEM.norm>
0

>  <SCORE.heavy>
16

>  <SCORE.norm>
-1.24318

>  <RMSD>
40.732

$$$$
ligand
 OpenBabel11021811433D
libRbt.so/2013.1/901 2013/11/27
 16 16  0  0  0  0  0  0  0  0999 V2000
    9.1292   -1.3926    0.9478 P   0  0  2  0  0  0  0  0  0  0  0  0
    8.3902   -2.6587    1.1781 O   0  0  0  0  0  0  0  0  0  0  0  0
   10.4373   -1.6940    0.0602 O   0  5  0  0  0  0  0  0  0  0  0  0
    9.5787   -0.7875    2.3709 O   0  0  0  0  0  0  0  0  0  0  0  0
   10.1478    0.3640   -3.3284 C   0  0  2  0  0  0  0  0  0  0  0  0
   11.4251   -0.2247   -3.0240 O   0  0  0  0  0  0  0  0  0  0  0  0
   10.3139    1.8379   -3.7790 C   0  0  2  0  0  0  0  0  0  0  0  0
   11.2005    1.9069   -4.9466 O   0  0  0  0  0  0  0  0  0  0  0  0
   10.9308    2.6377   -2.6162 C   0  0  1  0  0  0  0  0  0  0  0  0
   11.0906    4.0082   -3.0019 O   0  0  0  0  0  0  0  0  0  0  0  0
    9.9810    2.5446   -1.4119 C   0  0  2  0  0  0  0  0  0  0  0  0
   10.5430    3.2781   -0.3024 O   0  0  0  0  0  0  0  0  0  0  0  0
    9.8174    1.0478   -1.0288 C   0  0  2  0  0  0  0  0  0  0  0  0
    9.2672    0.3015   -2.1574 O   0  0  0  0  0  0  0  0  0  0  0  0
    8.8405    0.9432    0.1565 C   0  0  0  0  0  0  0  0  0  0  0  0
    8.1855   -0.3312    0.1599 O   0  0  0  0  0  0  0  0  0  0  0  0
  1  2  1  1  0  0  0
  1  3  1  0  0  0  0
  1  4  2  0  0  0  0
  1 16  1  0  0  0  0
  5  6  1  1  0  0  0
  5  7  1  0  0  0  0
  5 14  1  0  0  0  0
  7  8  1  6  0  0  0
  7  9  1  0  0  0  0
  9 10  1  6  0  0  0
  9 11  1  0  0  0  0
 11 12  1  1  0  0  0
 11 13  1  0  0  0  0
 13 14  1  0  0  0  0
 13 15  1  1  0  0  0
 15 16  1  0  0  0  0
M  CHG  1   3  -1
M  END
>  <CHROM.1>
153.38318670,85.96948590,170.28885470,9.89829186,0.55352684,-1.10755959,-2.85303297
1.26046055,0.41001351

>  <Name>
ligand

>  <RI>
0

>  <Rbt.Current_Directory>
/home/itssahil/PROJECTS/Mol_Feturizer/New_Systems/rnas/2HO7

>  <Rbt.Executable>
rbdock ($Id: //depot/dev/client3/rdock/2013.1/src/exe/rbdock.cxx#4 $)

>  <Rbt.Library>
libRbt.so (2013.1, Build901 2013/11/27)

>  <Rbt.Parameter_File>
/export/apps/rDock/src/rDock_2013.1_src/data/scripts/dock_solv.prm

>  <Rbt.Receptor>
prm/blind_docking_80.prm

>  <SCORE>
-20.2273

>  <SCORE.INTER>
-24.3771

>  <SCORE.INTER.CONST>
1

>  <SCORE.INTER.POLAR>
-2.54434

>  <SCORE.INTER.ROT>
3

>  <SCORE.INTER.SOLV>
17.5684

>  <SCORE.INTER.VDW>
-19.2264

>  <SCORE.INTER.norm>
-1.52357

>  <SCORE.INTRA>
4.1254

>  <SCORE.INTRA.DIHEDRAL>
5.16598

>  <SCORE.INTRA.DIHEDRAL.0>
0.00893466

>  <SCORE.INTRA.POLAR>
0

>  <SCORE.INTRA.POLAR.0>
0

>  <SCORE.INTRA.REPUL>
0

>  <SCORE.INTRA.REPUL.0>
0

>  <SCORE.INTRA.SOLV>
3.72111

>  <SCORE.INTRA.SOLV.lig_0>
-48.9722

>  <SCORE.INTRA.VDW>
-0.318146

>  <SCORE.INTRA.VDW.0>
-0.529409

>  <SCORE.INTRA.norm>
0.257837

>  <SCORE.RESTR>
0.0243988

>  <SCORE.RESTR.CAVITY>
0.0243988

>  <SCORE.RESTR.norm>
0.00152493

>  <SCORE.SYSTEM>
0

>  <SCORE.SYSTEM.CONST>
0

>  <SCORE.SYSTEM.DIHEDRAL>
0

>  <SCORE.SYSTEM.SOLV>
0

>  <SCORE.SYSTEM.norm>
0

>  <SCORE.heavy>
16

>  <SCORE.norm>
-1.26421

>  <RMSD>
40.743

$$$$
ligand
 OpenBabel11021811433D
libRbt.so/2013.1/901 2013/11/27
 16 16  0  0  0  0  0  0  0  0999 V2000
   11.3071   -4.2247   -1.0001 P   0  0  2  0  0  0  0  0  0  0  0  0
   10.2812   -5.0367   -1.7005 O   0  0  0  0  0  0  0  0  0  0  0  0
   12.6972   -4.3137   -1.8059 O   0  5  0  0  0  0  0  0  0  0  0  0
   11.5126   -4.8156    0.4839 O   0  0  0  0  0  0  0  0  0  0  0  0
   10.6891    1.4977   -1.1723 C   0  0  2  0  0  0  0  0  0  0  0  0
    9.2924    1.5700   -0.8337 O   0  0  0  0  0  0  0  0  0  0  0  0
   10.9609    2.1786   -2.5381 C   0  0  2  0  0  0  0  0  0  0  0  0
   10.5159    3.5767   -2.4972 O   0  0  0  0  0  0  0  0  0  0  0  0
   10.1773    1.4207   -3.6263 C   0  0  1  0  0  0  0  0  0  0  0  0
   10.4146    2.0246   -4.9035 O   0  0  0  0  0  0  0  0  0  0  0  0
   10.6649   -0.0365   -3.6424 C   0  0  2  0  0  0  0  0  0  0  0  0
    9.9363   -0.7729   -4.6483 O   0  0  0  0  0  0  0  0  0  0  0  0
   10.4076   -0.6569   -2.2413 C   0  0  2  0  0  0  0  0  0  0  0  0
   11.1286    0.0995   -1.2209 O   0  0  0  0  0  0  0  0  0  0  0  0
   10.9240   -2.1072   -2.2389 C   0  0  0  0  0  0  0  0  0  0  0  0
   10.8347   -2.6726   -0.9253 O   0  0  0  0  0  0  0  0  0  0  0  0
  1  2  1  6  0  0  0
  1  3  1  0  0  0  0
  1  4  2  0  0  0  0
  1 16  1  0  0  0  0
  5  6  1  6  0  0  0
  5  7  1  0  0  0  0
  5 14  1  0  0  0  0
  7  8  1  1  0  0  0
  7  9  1  0  0  0  0
  9 10  1  6  0  0  0
  9 11  1  0  0  0  0
 11 12  1  6  0  0  0
 11 13  1  0  0  0  0
 13 14  1  0  0  0  0
 13 15  1  6  0  0  0
 15 16  1  0  0  0  0
M  CHG  1   3  -1
M  END
>  <CHROM.1>
173.94869272,176.65957569,-71.50958113,10.77536226,-1.05680895,-2.05953400
-0.15676119,-1.42238884,1.10934219

>  <Name>
ligand

>  <RI>
0

>  <Rbt.Current_Directory>
/home/itssahil/PROJECTS/Mol_Feturizer/New_Systems/rnas/2HO7

>  <Rbt.Executable>
rbdock ($Id: //depot/dev/client3/rdock/2013.1/src/exe/rbdock.cxx#4 $)

>  <Rbt.Library>
libRbt.so (2013.1, Build901 2013/11/27)

>  <Rbt.Parameter_File>
/export/apps/rDock/src/rDock_2013.1_src/data/scripts/dock_solv.prm

>  <Rbt.Receptor>
prm/blind_docking_100.prm

>  <SCORE>
-9.24817

>  <SCORE.INTER>
-9.62706

>  <SCORE.INTER.CONST>
1

>  <SCORE.INTER.POLAR>
0

>  <SCORE.INTER.ROT>
3

>  <SCORE.INTER.SOLV>
12.7775

>  <SCORE.INTER.VDW>
-16.2772

>  <SCORE.INTER.norm>
-0.601691

>  <SCORE.INTRA>
0.378881

>  <SCORE.INTRA.DIHEDRAL>
0.390419

>  <SCORE.INTRA.DIHEDRAL.0>
0.00893466

>  <SCORE.INTRA.POLAR>
0

>  <SCORE.INTRA.POLAR.0>
0

>  <SCORE.INTRA.REPUL>
0

>  <SCORE.INTRA.REPUL.0>
0

>  <SCORE.INTRA.SOLV>
0.122036

>  <SCORE.INTRA.SOLV.lig_0>
-48.9722

>  <SCORE.INTRA.VDW>
0.122654

>  <SCORE.INTRA.VDW.0>
-0.529409

>  <SCORE.INTRA.norm>
0.0236801

>  <SCORE.RESTR>
0

>  <SCORE.RESTR.CAVITY>
0

>  <SCORE.RESTR.norm>
0

>  <SCORE.SYSTEM>
0

>  <SCORE.SYSTEM.CONST>
0

>  <SCORE.SYSTEM.DIHEDRAL>
0

>  <SCORE.SYSTEM.SOLV>
0

>  <SCORE.SYSTEM.norm>
0

>  <SCORE.heavy>
16

>  <SCORE.norm>
-0.578011

>  <RMSD>
40.749

$$$$
ligand
 OpenBabel11021811433D
libRbt.so/2013.1/901 2013/11/27
 16 16  0  0  0  0  0  0  0  0999 V2000
    9.3993   -2.9966    0.1626 P   0  0  2  0  0  0  0  0  0  0  0  0
    9.6622   -2.5023    1.5369 O   0  0  0  0  0  0  0  0  0  0  0  0
    7.8964   -3.5659    0.0804 O   0  5  0  0  0  0  0  0  0  0  0  0
   10.4372   -4.1822   -0.1702 O   0  0  0  0  0  0  0  0  0  0  0  0
   10.6687    1.2840   -3.5663 C   0  0  2  0  0  0  0  0  0  0  0  0
   12.0377    1.7237   -3.6232 O   0  0  0  0  0  0  0  0  0  0  0  0
    9.7885    2.3182   -2.8188 C   0  0  2  0  0  0  0  0  0  0  0  0
    9.8793    3.6243   -3.4821 O   0  0  0  0  0  0  0  0  0  0  0  0
   10.3001    2.4394   -1.3710 C   0  0  1  0  0  0  0  0  0  0  0  0
    9.5000    3.3857   -0.6521 O   0  0  0  0  0  0  0  0  0  0  0  0
   10.1930    1.0581   -0.7065 C   0  0  2  0  0  0  0  0  0  0  0  0
   10.6782    1.1420    0.6509 O   0  0  0  0  0  0  0  0  0  0  0  0
   11.0581    0.0537   -1.5170 C   0  0  2  0  0  0  0  0  0  0  0  0
   10.5801   -0.0170   -2.8954 O   0  0  0  0  0  0  0  0  0  0  0  0
   10.9296   -1.3405   -0.8770 C   0  0  0  0  0  0  0  0  0  0  0  0
    9.5683   -1.7865   -0.9074 O   0  0  0  0  0  0  0  0  0  0  0  0
  1  2  1  1  0  0  0
  1  3  1  0  0  0  0
  1  4  2  0  0  0  0
  1 16  1  0  0  0  0
  5  6  1  1  0  0  0
  5  7  1  0  0  0  0
  5 14  1  0  0  0  0
  7  8  1  6  0  0  0
  7  9  1  0  0  0  0
  9 10  1  1  0  0  0
  9 11  1  0  0  0  0
 11 12  1  1  0  0  0
 11 13  1  0  0  0  0
 13 14  1  0  0  0  0
 13 15  1  1  0  0  0
 15 16  1  0  0  0  0
M  CHG  1   3  -1
M  END
>  <CHROM.1>
60.95481307,-162.31632588,63.28323897,10.09606212,-0.20992726,-1.13573546
2.02328648,-1.21140280,3.10893403

>  <Name>
ligand

>  <RI>
0

>  <Rbt.Current_Directory>
/home/itssahil/PROJECTS/Mol_Feturizer/New_Systems/rnas/2HO7

>  <Rbt.Executable>
rbdock ($Id: //depot/dev/client3/rdock/2013.1/src/exe/rbdock.cxx#4 $)

>  <Rbt.Library>
libRbt.so (2013.1, Build901 2013/11/27)

>  <Rbt.Parameter_File>
/export/apps/rDock/src/rDock_2013.1_src/data/scripts/dock_solv.prm

>  <Rbt.Receptor>
prm/blind_docking_100.prm

>  <SCORE>
-12.2561

>  <SCORE.INTER>
-12.9668

>  <SCORE.INTER.CONST>
1

>  <SCORE.INTER.POLAR>
-1.2708

>  <SCORE.INTER.ROT>
3

>  <SCORE.INTER.SOLV>
19.8169

>  <SCORE.INTER.VDW>
-16.6142

>  <SCORE.INTER.norm>
-0.810427

>  <SCORE.INTRA>
0.710054

>  <SCORE.INTRA.DIHEDRAL>
1.44786

>  <SCORE.INTRA.DIHEDRAL.0>
0.00893466

>  <SCORE.INTRA.POLAR>
0

>  <SCORE.INTRA.POLAR.0>
0

>  <SCORE.INTRA.REPUL>
0

>  <SCORE.INTRA.REPUL.0>
0

>  <SCORE.INTRA.SOLV>
0.361054

>  <SCORE.INTRA.SOLV.lig_0>
-48.9722

>  <SCORE.INTRA.VDW>
-0.1944

>  <SCORE.INTRA.VDW.0>
-0.529409

>  <SCORE.INTRA.norm>
0.0443784

>  <SCORE.RESTR>
0.00064073

>  <SCORE.RESTR.CAVITY>
0.00064073

>  <SCORE.RESTR.norm>
4.00456e-05

>  <SCORE.SYSTEM>
0

>  <SCORE.SYSTEM.CONST>
0

>  <SCORE.SYSTEM.DIHEDRAL>
0

>  <SCORE.SYSTEM.SOLV>
0

>  <SCORE.SYSTEM.norm>
0

>  <SCORE.heavy>
16

>  <SCORE.norm>
-0.766008

>  <RMSD>
40.759

$$$$
ligand
 OpenBabel11021811433D
libRbt.so/2013.1/901 2013/11/27
 16 16  0  0  0  0  0  0  0  0999 V2000
    9.1111   -1.5140    1.2248 P   0  0  2  0  0  0  0  0  0  0  0  0
    9.0091   -2.3904    2.4180 O   0  0  0  0  0  0  0  0  0  0  0  0
    7.7718   -1.6563    0.3440 O   0  5  0  0  0  0  0  0  0  0  0  0
   10.3784   -1.9784    0.3462 O   0  0  0  0  0  0  0  0  0  0  0  0
   10.5445   -0.1111   -2.5324 C   0  0  2  0  0  0  0  0  0  0  0  0
   11.9026   -0.1576   -2.0591 O   0  0  0  0  0  0  0  0  0  0  0  0
   10.2948    1.1724   -3.3651 C   0  0  2  0  0  0  0  0  0  0  0  0
   11.2320    1.2267   -4.4932 O   0  0  0  0  0  0  0  0  0  0  0  0
   10.5135    2.3954   -2.4548 C   0  0  1  0  0  0  0  0  0  0  0  0
   10.2830    3.5991   -3.1968 O   0  0  0  0  0  0  0  0  0  0  0  0
    9.5202    2.3080   -1.2857 C   0  0  2  0  0  0  0  0  0  0  0  0
    9.7127    3.4394   -0.4095 O   0  0  0  0  0  0  0  0  0  0  0  0
    9.7861    0.9872   -0.5118 C   0  0  2  0  0  0  0  0  0  0  0  0
    9.6106   -0.1568   -1.4027 O   0  0  0  0  0  0  0  0  0  0  0  0
    8.7726    0.8757    0.6417 C   0  0  0  0  0  0  0  0  0  0  0  0
    9.2835    0.0346    1.6831 O   0  0  0  0  0  0  0  0  0  0  0  0
  1  2  1  1  0  0  0
  1  3  1  0  0  0  0
  1  4  2  0  0  0  0
  1 16  1  0  0  0  0
  5  6  1  1  0  0  0
  5  7  1  0  0  0  0
  5 14  1  0  0  0  0
  7  8  1  6  0  0  0
  7  9  1  0  0  0  0
  9 10  1  6  0  0  0
  9 11  1  0  0  0  0
 11 12  1  1  0  0  0
 11 13  1  0  0  0  0
 13 14  1  0  0  0  0
 13 15  1  1  0  0  0
 15 16  1  0  0  0  0
M  CHG  1   3  -1
M  END
>  <CHROM.1>
-155.87277334,-78.03072561,-153.57921731,9.80624991,0.33317109,-0.76161053
-2.17491444,1.09052031,-0.31759749

>  <Name>
ligand

>  <RI>
0

>  <Rbt.Current_Directory>
/home/itssahil/PROJECTS/Mol_Feturizer/New_Systems/rnas/2HO7

>  <Rbt.Executable>
rbdock ($Id: //depot/dev/client3/rdock/2013.1/src/exe/rbdock.cxx#4 $)

>  <Rbt.Library>
libRbt.so (2013.1, Build901 2013/11/27)

>  <Rbt.Parameter_File>
/export/apps/rDock/src/rDock_2013.1_src/data/scripts/dock_solv.prm

>  <Rbt.Receptor>
prm/blind_docking_20.prm

>  <SCORE>
-19.5928

>  <SCORE.INTER>
-24.6812

>  <SCORE.INTER.CONST>
1

>  <SCORE.INTER.POLAR>
-2.86378

>  <SCORE.INTER.ROT>
3

>  <SCORE.INTER.SOLV>
17.0083

>  <SCORE.INTER.VDW>
-18.1777

>  <SCORE.INTER.norm>
-1.54258

>  <SCORE.INTRA>
5.08846

>  <SCORE.INTRA.DIHEDRAL>
4.29393

>  <SCORE.INTRA.DIHEDRAL.0>
0.00893466

>  <SCORE.INTRA.POLAR>
0

>  <SCORE.INTRA.POLAR.0>
0

>  <SCORE.INTRA.REPUL>
0

>  <SCORE.INTRA.REPUL.0>
0

>  <SCORE.INTRA.SOLV>
5.75416

>  <SCORE.INTRA.SOLV.lig_0>
-48.9722

>  <SCORE.INTRA.VDW>
0.0644137

>  <SCORE.INTRA.VDW.0>
-0.529409

>  <SCORE.INTRA.norm>
0.318029

>  <SCORE.RESTR>
0

>  <SCORE.RESTR.CAVITY>
0

>  <SCORE.RESTR.norm>
0

>  <SCORE.SYSTEM>
0

>  <SCORE.SYSTEM.CONST>
0

>  <SCORE.SYSTEM.DIHEDRAL>
0

>  <SCORE.SYSTEM.SOLV>
0

>  <SCORE.SYSTEM.norm>
0

>  <SCORE.heavy>
16

>  <SCORE.norm>
-1.22455

>  <RMSD>
40.759

$$$$
ligand
 OpenBabel11021811433D
libRbt.so/2013.1/901 2013/11/27
 16 16  0  0  0  0  0  0  0  0999 V2000
   10.2185    1.4739   -1.4786 P   0  0  2  0  0  0  0  0  0  0  0  0
   11.0597    0.8124   -0.4504 O   0  0  0  0  0  0  0  0  0  0  0  0
   11.1665    2.2418   -2.5280 O   0  5  0  0  0  0  0  0  0  0  0  0
    9.2538    2.5399   -0.7529 O   0  0  0  0  0  0  0  0  0  0  0  0
    9.8441   -3.4913   -0.6431 C   0  0  2  0  0  0  0  0  0  0  0  0
   10.4830   -2.9766    0.5391 O   0  0  0  0  0  0  0  0  0  0  0  0
   10.7694   -4.4960   -1.3763 C   0  0  2  0  0  0  0  0  0  0  0  0
   11.1322   -5.5934   -0.4717 O   0  0  0  0  0  0  0  0  0  0  0  0
   12.0431   -3.7527   -1.8205 C   0  0  1  0  0  0  0  0  0  0  0  0
   12.9165   -4.6564   -2.5083 O   0  0  0  0  0  0  0  0  0  0  0  0
   11.6294   -2.6119   -2.7634 C   0  0  2  0  0  0  0  0  0  0  0  0
   12.8067   -1.8907   -3.1860 O   0  0  0  0  0  0  0  0  0  0  0  0
   10.6728   -1.6599   -1.9937 C   0  0  2  0  0  0  0  0  0  0  0  0
    9.4907   -2.3934   -1.5489 O   0  0  0  0  0  0  0  0  0  0  0  0
   10.2269   -0.5320   -2.9419 C   0  0  0  0  0  0  0  0  0  0  0  0
    9.3343    0.3670   -2.2726 O   0  0  0  0  0  0  0  0  0  0  0  0
  1  2  1  1  0  0  0
  1  3  1  0  0  0  0
  1  4  2  0  0  0  0
  1 16  1  0  0  0  0
  5  6  1  1  0  0  0
  5  7  1  0  0  0  0
  5 14  1  0  0  0  0
  7  8  1  1  0  0  0
  7  9  1  0  0  0  0
  9 10  1  6  0  0  0
  9 11  1  0  0  0  0
 11 12  1  1  0  0  0
 11 13  1  0  0  0  0
 13 14  1  0  0  0  0
 13 15  1  6  0  0  0
 15 16  1  0  0  0  0
M  CHG  1   3  -1
M  END
>  <CHROM.1>
179.64567877,85.40672024,-62.01357918,10.77451986,-1.39734742,-1.61301845
1.88449221,0.81028344,-0.25798793

>  <Name>
ligand

>  <RI>
0

>  <Rbt.Current_Directory>
/home/itssahil/PROJECTS/Mol_Feturizer/New_Systems/rnas/2HO7

>  <Rbt.Executable>
rbdock ($Id: //depot/dev/client3/rdock/2013.1/src/exe/rbdock.cxx#4 $)

>  <Rbt.Library>
libRbt.so (2013.1, Build901 2013/11/27)

>  <Rbt.Parameter_File>
/export/apps/rDock/src/rDock_2013.1_src/data/scripts/dock_solv.prm

>  <Rbt.Receptor>
prm/blind_docking_40.prm

>  <SCORE>
-14.9346

>  <SCORE.INTER>
-16.4347

>  <SCORE.INTER.CONST>
1

>  <SCORE.INTER.POLAR>
-2.54518

>  <SCORE.INTER.ROT>
3

>  <SCORE.INTER.SOLV>
17.3428

>  <SCORE.INTER.VDW>
-13.8535

>  <SCORE.INTER.norm>
-1.02717

>  <SCORE.INTRA>
1.50011

>  <SCORE.INTRA.DIHEDRAL>
2.74106

>  <SCORE.INTRA.DIHEDRAL.0>
0.00893466

>  <SCORE.INTRA.POLAR>
0

>  <SCORE.INTRA.POLAR.0>
0

>  <SCORE.INTRA.REPUL>
0

>  <SCORE.INTRA.REPUL.0>
0

>  <SCORE.INTRA.SOLV>
0.856698

>  <SCORE.INTRA.SOLV.lig_0>
-48.9722

>  <SCORE.INTRA.VDW>
-0.298771

>  <SCORE.INTRA.VDW.0>
-0.529409

>  <SCORE.INTRA.norm>
0.0937568

>  <SCORE.RESTR>
0

>  <SCORE.RESTR.CAVITY>
0

>  <SCORE.RESTR.norm>
0

>  <SCORE.SYSTEM>
0

>  <SCORE.SYSTEM.CONST>
0

>  <SCORE.SYSTEM.DIHEDRAL>
0

>  <SCORE.SYSTEM.SOLV>
0

>  <SCORE.SYSTEM.norm>
0

>  <SCORE.heavy>
16

>  <SCORE.norm>
-0.933412

>  <RMSD>
40.761

$$$$
ligand
 OpenBabel11021811433D
libRbt.so/2013.1/901 2013/11/27
 16 16  0  0  0  0  0  0  0  0999 V2000
   10.6345   -3.3670   -1.2340 P   0  0  2  0  0  0  0  0  0  0  0  0
   10.1961   -4.7433   -1.5743 O   0  0  0  0  0  0  0  0  0  0  0  0
   11.5473   -2.7893   -2.4269 O   0  5  0  0  0  0  0  0  0  0  0  0
   11.5007   -3.4185    0.1227 O   0  0  0  0  0  0  0  0  0  0  0  0
   10.1457    0.5022   -3.7599 C   0  0  2  0  0  0  0  0  0  0  0  0
   11.5326    0.2277   -4.0284 O   0  0  0  0  0  0  0  0  0  0  0  0
    9.9513    1.9750   -3.3171 C   0  0  2  0  0  0  0  0  0  0  0  0
   10.4608    2.8803   -4.3539 O   0  0  0  0  0  0  0  0  0  0  0  0
   10.7329    2.1989   -2.0088 C   0  0  1  0  0  0  0  0  0  0  0  0
   10.5663    3.5527   -1.5707 O   0  0  0  0  0  0  0  0  0  0  0  0
   10.1772    1.2375   -0.9467 C   0  0  2  0  0  0  0  0  0  0  0  0
   10.9022    1.4196    0.2887 O   0  0  0  0  0  0  0  0  0  0  0  0
   10.3589   -0.2185   -1.4578 C   0  0  2  0  0  0  0  0  0  0  0  0
    9.6419   -0.3979   -2.7176 O   0  0  0  0  0  0  0  0  0  0  0  0
    9.7741   -1.1871   -0.4138 C   0  0  0  0  0  0  0  0  0  0  0  0
    9.3427   -2.4023   -1.0385 O   0  0  0  0  0  0  0  0  0  0  0  0
  1  2  1  6  0  0  0
  1  3  1  0  0  0  0
  1  4  2  0  0  0  0
  1 16  1  0  0  0  0
  5  6  1  1  0  0  0
  5  7  1  0  0  0  0
  5 14  1  0  0  0  0
  7  8  1  6  0  0  0
  7  9  1  0  0  0  0
  9 10  1  1  0  0  0
  9 11  1  0  0  0  0
 11 12  1  1  0  0  0
 11 13  1  0  0  0  0
 13 14  1  0  0  0  0
 13 15  1  1  0  0  0
 15 16  1  0  0  0  0
M  CHG  1   3  -1
M  END
>  <CHROM.1>
153.00623204,82.12197463,166.63779425,10.49318909,-0.54126970,-1.85126941
-1.01103570,1.53458841,-0.82154913

>  <Name>
ligand

>  <RI>
0

>  <Rbt.Current_Directory>
/home/itssahil/PROJECTS/Mol_Feturizer/New_Systems/rnas/2HO7

>  <Rbt.Executable>
rbdock ($Id: //depot/dev/client3/rdock/2013.1/src/exe/rbdock.cxx#4 $)

>  <Rbt.Library>
libRbt.so (2013.1, Build901 2013/11/27)

>  <Rbt.Parameter_File>
/export/apps/rDock/src/rDock_2013.1_src/data/scripts/dock_solv.prm

>  <Rbt.Receptor>
prm/blind_docking_20.prm

>  <SCORE>
-15.2887

>  <SCORE.INTER>
-19.3742

>  <SCORE.INTER.CONST>
1

>  <SCORE.INTER.POLAR>
-2.53748

>  <SCORE.INTER.ROT>
3

>  <SCORE.INTER.SOLV>
14.012

>  <SCORE.INTER.VDW>
-14.7285

>  <SCORE.INTER.norm>
-1.21089

>  <SCORE.INTRA>
4.08546

>  <SCORE.INTRA.DIHEDRAL>
4.65862

>  <SCORE.INTRA.DIHEDRAL.0>
0.00893466

>  <SCORE.INTRA.POLAR>
0

>  <SCORE.INTRA.POLAR.0>
0

>  <SCORE.INTRA.REPUL>
0

>  <SCORE.INTRA.REPUL.0>
0

>  <SCORE.INTRA.SOLV>
4.08998

>  <SCORE.INTRA.SOLV.lig_0>
-48.9722

>  <SCORE.INTRA.VDW>
-0.288839

>  <SCORE.INTRA.VDW.0>
-0.529409

>  <SCORE.INTRA.norm>
0.255341

>  <SCORE.RESTR>
0

>  <SCORE.RESTR.CAVITY>
0

>  <SCORE.RESTR.norm>
0

>  <SCORE.SYSTEM>
0

>  <SCORE.SYSTEM.CONST>
0

>  <SCORE.SYSTEM.DIHEDRAL>
0

>  <SCORE.SYSTEM.SOLV>
0

>  <SCORE.SYSTEM.norm>
0

>  <SCORE.heavy>
16

>  <SCORE.norm>
-0.955544

>  <RMSD>
40.762

$$$$
ligand
 OpenBabel11021811433D
libRbt.so/2013.1/901 2013/11/27
 16 16  0  0  0  0  0  0  0  0999 V2000
    8.9966   -1.5680    1.1646 P   0  0  2  0  0  0  0  0  0  0  0  0
    8.9350   -2.4403    2.3635 O   0  0  0  0  0  0  0  0  0  0  0  0
    7.6161   -1.6896    0.3467 O   0  5  0  0  0  0  0  0  0  0  0  0
   10.2144   -2.0551    0.2300 O   0  0  0  0  0  0  0  0  0  0  0  0
   10.6221   -0.1304   -2.5739 C   0  0  2  0  0  0  0  0  0  0  0  0
   11.9588   -0.2238   -2.0494 O   0  0  0  0  0  0  0  0  0  0  0  0
   10.4380    1.1788   -3.3832 C   0  0  2  0  0  0  0  0  0  0  0  0
   11.4203    1.2357   -4.4723 O   0  0  0  0  0  0  0  0  0  0  0  0
   10.6514    2.3735   -2.4348 C   0  0  1  0  0  0  0  0  0  0  0  0
   10.4808    3.6003   -3.1548 O   0  0  0  0  0  0  0  0  0  0  0  0
    9.6105    2.2840   -1.3078 C   0  0  2  0  0  0  0  0  0  0  0  0
    9.7967    3.3885   -0.3967 O   0  0  0  0  0  0  0  0  0  0  0  0
    9.8122    0.9385   -0.5575 C   0  0  2  0  0  0  0  0  0  0  0  0
    9.6434   -0.1788   -1.4829 O   0  0  0  0  0  0  0  0  0  0  0  0
    8.7514    0.8258    0.5525 C   0  0  0  0  0  0  0  0  0  0  0  0
    9.2156   -0.0217    1.6104 O   0  0  0  0  0  0  0  0  0  0  0  0
  1  2  1  1  0  0  0
  1  3  1  0  0  0  0
  1  4  2  0  0  0  0
  1 16  1  0  0  0  0
  5  6  1  1  0  0  0
  5  7  1  0  0  0  0
  5 14  1  0  0  0  0
  7  8  1  6  0  0  0
  7  9  1  0  0  0  0
  9 10  1  6  0  0  0
  9 11  1  0  0  0  0
 11 12  1  1  0  0  0
 11 13  1  0  0  0  0
 13 14  1  0  0  0  0
 13 15  1  1  0  0  0
 15 16  1  0  0  0  0
M  CHG  1   3  -1
M  END
>  <CHROM.1>
-154.15257065,-80.47307266,-157.32683429,9.82161288,0.29659383,-0.79420631
-2.25331234,1.06144840,-0.23698086

>  <Name>
ligand

>  <RI>
0

>  <Rbt.Current_Directory>
/home/itssahil/PROJECTS/Mol_Feturizer/New_Systems/rnas/2HO7

>  <Rbt.Executable>
rbdock ($Id: //depot/dev/client3/rdock/2013.1/src/exe/rbdock.cxx#4 $)

>  <Rbt.Library>
libRbt.so (2013.1, Build901 2013/11/27)

>  <Rbt.Parameter_File>
/export/apps/rDock/src/rDock_2013.1_src/data/scripts/dock_solv.prm

>  <Rbt.Receptor>
prm/blind_docking_40.prm

>  <SCORE>
-19.9093

>  <SCORE.INTER>
-24.9103

>  <SCORE.INTER.CONST>
1

>  <SCORE.INTER.POLAR>
-2.86276

>  <SCORE.INTER.ROT>
3

>  <SCORE.INTER.SOLV>
17.3999

>  <SCORE.INTER.VDW>
-18.4643

>  <SCORE.INTER.norm>
-1.55689

>  <SCORE.INTRA>
5.00073

>  <SCORE.INTRA.DIHEDRAL>
4.68707

>  <SCORE.INTRA.DIHEDRAL.0>
0.00893466

>  <SCORE.INTRA.POLAR>
0

>  <SCORE.INTRA.POLAR.0>
0

>  <SCORE.INTRA.REPUL>
0

>  <SCORE.INTRA.REPUL.0>
0

>  <SCORE.INTRA.SOLV>
5.47272

>  <SCORE.INTRA.SOLV.lig_0>
-48.9722

>  <SCORE.INTRA.VDW>
-0.0791631

>  <SCORE.INTRA.VDW.0>
-0.529409

>  <SCORE.INTRA.norm>
0.312546

>  <SCORE.RESTR>
0.00025295

>  <SCORE.RESTR.CAVITY>
0.00025295

>  <SCORE.RESTR.norm>
1.58094e-05

>  <SCORE.SYSTEM>
0

>  <SCORE.SYSTEM.CONST>
0

>  <SCORE.SYSTEM.DIHEDRAL>
0

>  <SCORE.SYSTEM.SOLV>
0

>  <SCORE.SYSTEM.norm>
0

>  <SCORE.heavy>
16

>  <SCORE.norm>
-1.24433

>  <RMSD>
40.763

$$$$
ligand
 OpenBabel11021811433D
libRbt.so/2013.1/901 2013/11/27
 16 16  0  0  0  0  0  0  0  0999 V2000
    9.8310    1.6017   -1.4643 P   0  0  2  0  0  0  0  0  0  0  0  0
    8.8547    0.5739   -1.0254 O   0  0  0  0  0  0  0  0  0  0  0  0
    9.7858    2.8474   -0.4465 O   0  5  0  0  0  0  0  0  0  0  0  0
    9.4273    2.1045   -2.9401 O   0  0  0  0  0  0  0  0  0  0  0  0
    9.5610   -3.0876   -0.8492 C   0  0  2  0  0  0  0  0  0  0  0  0
    9.9698   -2.9504    0.5236 O   0  0  0  0  0  0  0  0  0  0  0  0
   10.3385   -4.2349   -1.5436 C   0  0  2  0  0  0  0  0  0  0  0  0
   10.1264   -5.4931   -0.8183 O   0  0  0  0  0  0  0  0  0  0  0  0
   11.8380   -3.8831   -1.5364 C   0  0  1  0  0  0  0  0  0  0  0  0
   12.5831   -4.9245   -2.1788 O   0  0  0  0  0  0  0  0  0  0  0  0
   12.0255   -2.5633   -2.3008 C   0  0  2  0  0  0  0  0  0  0  0  0
   13.4241   -2.2046   -2.2989 O   0  0  0  0  0  0  0  0  0  0  0  0
   11.1946   -1.4601   -1.5891 C   0  0  2  0  0  0  0  0  0  0  0  0
    9.7822   -1.8317   -1.5734 O   0  0  0  0  0  0  0  0  0  0  0  0
   11.3503   -0.1416   -2.3684 C   0  0  0  0  0  0  0  0  0  0  0  0
   11.3306    0.9783   -1.4749 O   0  0  0  0  0  0  0  0  0  0  0  0
  1  2  1  1  0  0  0
  1  3  1  0  0  0  0
  1  4  2  0  0  0  0
  1 16  1  0  0  0  0
  5  6  1  1  0  0  0
  5  7  1  0  0  0  0
  5 14  1  0  0  0  0
  7  8  1  1  0  0  0
  7  9  1  0  0  0  0
  9 10  1  6  0  0  0
  9 11  1  0  0  0  0
 11 12  1  1  0  0  0
 11 13  1  0  0  0  0
 13 14  1  0  0  0  0
 13 15  1  6  0  0  0
 15 16  1  0  0  0  0
M  CHG  1   3  -1
M  END
>  <CHROM.1>
-145.99972076,-97.79762908,59.16106139,10.64068265,-1.27922019,-1.48013027
1.84115203,0.50745991,-0.14811532

>  <Name>
ligand

>  <RI>
0

>  <Rbt.Current_Directory>
/home/itssahil/PROJECTS/Mol_Feturizer/New_Systems/rnas/2HO7

>  <Rbt.Executable>
rbdock ($Id: //depot/dev/client3/rdock/2013.1/src/exe/rbdock.cxx#4 $)

>  <Rbt.Library>
libRbt.so (2013.1, Build901 2013/11/27)

>  <Rbt.Parameter_File>
/export/apps/rDock/src/rDock_2013.1_src/data/scripts/dock_solv.prm

>  <Rbt.Receptor>
prm/blind_docking_40.prm

>  <SCORE>
-13.3219

>  <SCORE.INTER>
-17.4845

>  <SCORE.INTER.CONST>
1

>  <SCORE.INTER.POLAR>
-2.54558

>  <SCORE.INTER.ROT>
3

>  <SCORE.INTER.SOLV>
18.772

>  <SCORE.INTER.VDW>
-15.0284

>  <SCORE.INTER.norm>
-1.09278

>  <SCORE.INTRA>
4.16261

>  <SCORE.INTRA.DIHEDRAL>
8.20899

>  <SCORE.INTRA.DIHEDRAL.0>
0.00893466

>  <SCORE.INTRA.POLAR>
0

>  <SCORE.INTRA.POLAR.0>
0

>  <SCORE.INTRA.REPUL>
0

>  <SCORE.INTRA.REPUL.0>
0

>  <SCORE.INTRA.SOLV>
0.872393

>  <SCORE.INTRA.SOLV.lig_0>
-48.9722

>  <SCORE.INTRA.VDW>
-0.378082

>  <SCORE.INTRA.VDW.0>
-0.529409

>  <SCORE.INTRA.norm>
0.260163

>  <SCORE.RESTR>
0

>  <SCORE.RESTR.CAVITY>
0

>  <SCORE.RESTR.norm>
0

>  <SCORE.SYSTEM>
0

>  <SCORE.SYSTEM.CONST>
0

>  <SCORE.SYSTEM.DIHEDRAL>
0

>  <SCORE.SYSTEM.SOLV>
0

>  <SCORE.SYSTEM.norm>
0

>  <SCORE.heavy>
16

>  <SCORE.norm>
-0.832619

>  <RMSD>
40.766

$$$$
ligand
 OpenBabel11021811433D
libRbt.so/2013.1/901 2013/11/27
 16 16  0  0  0  0  0  0  0  0999 V2000
    8.9093   -1.8395    0.7683 P   0  0  2  0  0  0  0  0  0  0  0  0
    9.9206   -2.4034    1.6966 O   0  0  0  0  0  0  0  0  0  0  0  0
    8.7377   -0.2663    1.0604 O   0  5  0  0  0  0  0  0  0  0  0  0
    7.5033   -2.5842    1.0175 O   0  0  0  0  0  0  0  0  0  0  0  0
   10.6768    2.4615   -1.0724 C   0  0  2  0  0  0  0  0  0  0  0  0
    9.2662    2.7445   -1.0434 O   0  0  0  0  0  0  0  0  0  0  0  0
   11.2493    2.6595   -2.4993 C   0  0  2  0  0  0  0  0  0  0  0  0
   10.9930    4.0309   -2.9550 O   0  0  0  0  0  0  0  0  0  0  0  0
   10.5543    1.6638   -3.4470 C   0  0  1  0  0  0  0  0  0  0  0  0
   11.0688    1.8192   -4.7750 O   0  0  0  0  0  0  0  0  0  0  0  0
   10.8404    0.2408   -2.9425 C   0  0  2  0  0  0  0  0  0  0  0  0
   10.1890   -0.7132   -3.8089 O   0  0  0  0  0  0  0  0  0  0  0  0
   10.2846    0.1099   -1.4976 C   0  0  2  0  0  0  0  0  0  0  0  0
   10.9289    1.0879   -0.6249 O   0  0  0  0  0  0  0  0  0  0  0  0
   10.5969   -1.3031   -0.9722 C   0  0  0  0  0  0  0  0  0  0  0  0
    9.3880   -2.0451   -0.7699 O   0  0  0  0  0  0  0  0  0  0  0  0
  1  2  1  1  0  0  0
  1  3  1  0  0  0  0
  1  4  2  0  0  0  0
  1 16  1  0  0  0  0
  5  6  1  6  0  0  0
  5  7  1  0  0  0  0
  5 14  1  0  0  0  0
  7  8  1  6  0  0  0
  7  9  1  0  0  0  0
  9 10  1  6  0  0  0
  9 11  1  0  0  0  0
 11 12  1  6  0  0  0
 11 13  1  0  0  0  0
 13 14  1  0  0  0  0
 13 15  1  1  0  0  0
 15 16  1  0  0  0  0
M  CHG  1   3  -1
M  END
>  <CHROM.1>
-114.20416845,-92.29716522,-63.41271611,9.95850410,0.17460959,-1.18955918
2.77658373,-1.22967460,-2.69235824

>  <Name>
ligand

>  <RI>
0

>  <Rbt.Current_Directory>
/home/itssahil/PROJECTS/Mol_Feturizer/New_Systems/rnas/2HO7

>  <Rbt.Executable>
rbdock ($Id: //depot/dev/client3/rdock/2013.1/src/exe/rbdock.cxx#4 $)

>  <Rbt.Library>
libRbt.so (2013.1, Build901 2013/11/27)

>  <Rbt.Parameter_File>
/export/apps/rDock/src/rDock_2013.1_src/data/scripts/dock_solv.prm

>  <Rbt.Receptor>
prm/blind_docking_20.prm

>  <SCORE>
-8.96311

>  <SCORE.INTER>
-14.4137

>  <SCORE.INTER.CONST>
1

>  <SCORE.INTER.POLAR>
-1.27279

>  <SCORE.INTER.ROT>
3

>  <SCORE.INTER.SOLV>
21.0292

>  <SCORE.INTER.VDW>
-17.9762

>  <SCORE.INTER.norm>
-0.900854

>  <SCORE.INTRA>
5.45055

>  <SCORE.INTRA.DIHEDRAL>
9.20214

>  <SCORE.INTRA.DIHEDRAL.0>
0.00893466

>  <SCORE.INTRA.POLAR>
0

>  <SCORE.INTRA.POLAR.0>
0

>  <SCORE.INTRA.REPUL>
0

>  <SCORE.INTRA.REPUL.0>
0

>  <SCORE.INTRA.SOLV>
2.65412

>  <SCORE.INTRA.SOLV.lig_0>
-48.9722

>  <SCORE.INTRA.VDW>
-0.47758

>  <SCORE.INTRA.VDW.0>
-0.529409

>  <SCORE.INTRA.norm>
0.340659

>  <SCORE.RESTR>
0

>  <SCORE.RESTR.CAVITY>
0

>  <SCORE.RESTR.norm>
0

>  <SCORE.SYSTEM>
0

>  <SCORE.SYSTEM.CONST>
0

>  <SCORE.SYSTEM.DIHEDRAL>
0

>  <SCORE.SYSTEM.SOLV>
0

>  <SCORE.SYSTEM.norm>
0

>  <SCORE.heavy>
16

>  <SCORE.norm>
-0.560195

>  <RMSD>
40.771

$$$$
ligand
 OpenBabel11021811433D
libRbt.so/2013.1/901 2013/11/27
 16 16  0  0  0  0  0  0  0  0999 V2000
    9.3857   -2.9736    0.1983 P   0  0  2  0  0  0  0  0  0  0  0  0
    9.6240   -2.4630    1.5711 O   0  0  0  0  0  0  0  0  0  0  0  0
    7.8902   -3.5600    0.1010 O   0  5  0  0  0  0  0  0  0  0  0  0
   10.4407   -4.1511   -0.1082 O   0  0  0  0  0  0  0  0  0  0  0  0
   10.6748    1.2668   -3.5728 C   0  0  2  0  0  0  0  0  0  0  0  0
   12.0404    1.7186   -3.6131 O   0  0  0  0  0  0  0  0  0  0  0  0
    9.7726    2.3031   -2.8549 C   0  0  2  0  0  0  0  0  0  0  0  0
    9.8625    3.6005   -3.5351 O   0  0  0  0  0  0  0  0  0  0  0  0
   10.2586    2.4495   -1.4007 C   0  0  1  0  0  0  0  0  0  0  0  0
    9.4378    3.3982   -0.7088 O   0  0  0  0  0  0  0  0  0  0  0  0
   10.1532    1.0767   -0.7184 C   0  0  2  0  0  0  0  0  0  0  0  0
   10.6146    1.1844    0.6456 O   0  0  0  0  0  0  0  0  0  0  0  0
   11.0409    0.0692   -1.5000 C   0  0  2  0  0  0  0  0  0  0  0  0
   10.5869   -0.0254   -2.8850 O   0  0  0  0  0  0  0  0  0  0  0  0
   10.9146   -1.3170   -0.8424 C   0  0  0  0  0  0  0  0  0  0  0  0
    9.5566   -1.7723   -0.8812 O   0  0  0  0  0  0  0  0  0  0  0  0
  1  2  1  1  0  0  0
  1  3  1  0  0  0  0
  1  4  2  0  0  0  0
  1 16  1  0  0  0  0
  5  6  1  1  0  0  0
  5  7  1  0  0  0  0
  5 14  1  0  0  0  0
  7  8  1  6  0  0  0
  7  9  1  0  0  0  0
  9 10  1  1  0  0  0
  9 11  1  0  0  0  0
 11 12  1  1  0  0  0
 11 13  1  0  0  0  0
 13 14  1  0  0  0  0
 13 15  1  1  0  0  0
 15 16  1  0  0  0  0
M  CHG  1   3  -1
M  END
>  <CHROM.1>
60.57045633,-162.58171684,63.64162421,10.07634278,-0.19841488,-1.12985676
1.99808280,-1.19425005,3.07079025

>  <Name>
ligand

>  <RI>
0

>  <Rbt.Current_Directory>
/home/itssahil/PROJECTS/Mol_Feturizer/New_Systems/rnas/2HO7

>  <Rbt.Executable>
rbdock ($Id: //depot/dev/client3/rdock/2013.1/src/exe/rbdock.cxx#4 $)

>  <Rbt.Library>
libRbt.so (2013.1, Build901 2013/11/27)

>  <Rbt.Parameter_File>
/export/apps/rDock/src/rDock_2013.1_src/data/scripts/dock_solv.prm

>  <Rbt.Receptor>
prm/blind_docking_20.prm

>  <SCORE>
-12.2642

>  <SCORE.INTER>
-12.9609

>  <SCORE.INTER.CONST>
1

>  <SCORE.INTER.POLAR>
-1.27279

>  <SCORE.INTER.ROT>
3

>  <SCORE.INTER.SOLV>
19.8761

>  <SCORE.INTER.VDW>
-16.6233

>  <SCORE.INTER.norm>
-0.810054

>  <SCORE.INTRA>
0.696634

>  <SCORE.INTRA.DIHEDRAL>
1.41002

>  <SCORE.INTRA.DIHEDRAL.0>
0.00893466

>  <SCORE.INTRA.POLAR>
0

>  <SCORE.INTRA.POLAR.0>
0

>  <SCORE.INTRA.REPUL>
0

>  <SCORE.INTRA.REPUL.0>
0

>  <SCORE.INTRA.SOLV>
0.36413

>  <SCORE.INTRA.SOLV.lig_0>
-48.9722

>  <SCORE.INTRA.VDW>
-0.190444

>  <SCORE.INTRA.VDW.0>
-0.529409

>  <SCORE.INTRA.norm>
0.0435396

>  <SCORE.RESTR>
0

>  <SCORE.RESTR.CAVITY>
0

>  <SCORE.RESTR.norm>
0

>  <SCORE.SYSTEM>
0

>  <SCORE.SYSTEM.CONST>
0

>  <SCORE.SYSTEM.DIHEDRAL>
0

>  <SCORE.SYSTEM.SOLV>
0

>  <SCORE.SYSTEM.norm>
0

>  <SCORE.heavy>
16

>  <SCORE.norm>
-0.766515

>  <RMSD>
40.772

$$$$
ligand
 OpenBabel11021811433D
libRbt.so/2013.1/901 2013/11/27
 16 16  0  0  0  0  0  0  0  0999 V2000
    9.0777   -0.5702    0.9784 P   0  0  2  0  0  0  0  0  0  0  0  0
    8.1859    0.0499   -0.0328 O   0  0  0  0  0  0  0  0  0  0  0  0
    8.4907   -2.0097    1.3941 O   0  5  0  0  0  0  0  0  0  0  0  0
    9.1289    0.3799    2.2777 O   0  0  0  0  0  0  0  0  0  0  0  0
   10.6582    2.9954   -2.7180 C   0  0  2  0  0  0  0  0  0  0  0  0
    9.2782    3.3510   -2.5184 O   0  0  0  0  0  0  0  0  0  0  0  0
   10.8097    2.0287   -3.9203 C   0  0  2  0  0  0  0  0  0  0  0  0
   10.2605    2.6482   -5.1322 O   0  0  0  0  0  0  0  0  0  0  0  0
   10.0351    0.7347   -3.6074 C   0  0  1  0  0  0  0  0  0  0  0  0
   10.1625   -0.1826   -4.7005 O   0  0  0  0  0  0  0  0  0  0  0  0
   10.6325    0.1128   -2.3355 C   0  0  2  0  0  0  0  0  0  0  0  0
    9.9151   -1.0981   -2.0133 O   0  0  0  0  0  0  0  0  0  0  0  0
   10.4925    1.1363   -1.1749 C   0  0  2  0  0  0  0  0  0  0  0  0
   11.2016    2.3688   -1.5086 O   0  0  0  0  0  0  0  0  0  0  0  0
   11.1191    0.5339    0.0958 C   0  0  0  0  0  0  0  0  0  0  0  0
   10.5690   -0.7616    0.3644 O   0  0  0  0  0  0  0  0  0  0  0  0
  1  2  1  6  0  0  0
  1  3  1  0  0  0  0
  1  4  2  0  0  0  0
  1 16  1  0  0  0  0
  5  6  1  1  0  0  0
  5  7  1  0  0  0  0
  5 14  1  0  0  0  0
  7  8  1  6  0  0  0
  7  9  1  0  0  0  0
  9 10  1  6  0  0  0
  9 11  1  0  0  0  0
 11 12  1  1  0  0  0
 11 13  1  0  0  0  0
 13 14  1  0  0  0  0
 13 15  1  1  0  0  0
 15 16  1  0  0  0  0
M  CHG  1   3  -1
M  END
>  <CHROM.1>
-52.90312806,-75.68687795,64.48943695,9.90720608,0.61785954,-1.32767384,-2.75062156
-1.34367449,-2.25260418

>  <Name>
ligand

>  <RI>
0

>  <Rbt.Current_Directory>
/home/itssahil/PROJECTS/Mol_Feturizer/New_Systems/rnas/2HO7

>  <Rbt.Executable>
rbdock ($Id: //depot/dev/client3/rdock/2013.1/src/exe/rbdock.cxx#4 $)

>  <Rbt.Library>
libRbt.so (2013.1, Build901 2013/11/27)

>  <Rbt.Parameter_File>
/export/apps/rDock/src/rDock_2013.1_src/data/scripts/dock_solv.prm

>  <Rbt.Receptor>
prm/blind_docking_100.prm

>  <SCORE>
-15.1108

>  <SCORE.INTER>
-17.5444

>  <SCORE.INTER.CONST>
1

>  <SCORE.INTER.POLAR>
-1.9295

>  <SCORE.INTER.ROT>
3

>  <SCORE.INTER.SOLV>
19.2554

>  <SCORE.INTER.VDW>
-17.2831

>  <SCORE.INTER.norm>
-1.09652

>  <SCORE.INTRA>
2.43359

>  <SCORE.INTRA.DIHEDRAL>
1.35101

>  <SCORE.INTRA.DIHEDRAL.0>
0.00893466

>  <SCORE.INTRA.POLAR>
0

>  <SCORE.INTRA.POLAR.0>
0

>  <SCORE.INTRA.REPUL>
0

>  <SCORE.INTRA.REPUL.0>
0

>  <SCORE.INTRA.SOLV>
2.30247

>  <SCORE.INTRA.SOLV.lig_0>
-48.9722

>  <SCORE.INTRA.VDW>
0.606852

>  <SCORE.INTRA.VDW.0>
-0.529409

>  <SCORE.INTRA.norm>
0.152099

>  <SCORE.RESTR>
0

>  <SCORE.RESTR.CAVITY>
0

>  <SCORE.RESTR.norm>
0

>  <SCORE.SYSTEM>
0

>  <SCORE.SYSTEM.CONST>
0

>  <SCORE.SYSTEM.DIHEDRAL>
0

>  <SCORE.SYSTEM.SOLV>
0

>  <SCORE.SYSTEM.norm>
0

>  <SCORE.heavy>
16

>  <SCORE.norm>
-0.944424

>  <RMSD>
40.779

$$$$
ligand
 OpenBabel11021811433D
libRbt.so/2013.1/901 2013/11/27
 16 16  0  0  0  0  0  0  0  0999 V2000
    9.8254    1.5988   -1.3982 P   0  0  2  0  0  0  0  0  0  0  0  0
    9.3453    2.0622   -2.7237 O   0  0  0  0  0  0  0  0  0  0  0  0
    8.8196    0.4785   -0.8300 O   0  5  0  0  0  0  0  0  0  0  0  0
    9.8519    2.8528   -0.3881 O   0  0  0  0  0  0  0  0  0  0  0  0
    9.6044   -3.1416   -0.7974 C   0  0  2  0  0  0  0  0  0  0  0  0
   10.0780   -2.9838    0.5522 O   0  0  0  0  0  0  0  0  0  0  0  0
   10.3744   -4.2748   -1.5226 C   0  0  2  0  0  0  0  0  0  0  0  0
   10.2304   -5.5322   -0.7794 O   0  0  0  0  0  0  0  0  0  0  0  0
   11.8632   -3.8862   -1.5932 C   0  0  1  0  0  0  0  0  0  0  0  0
   12.6008   -4.9139   -2.2656 O   0  0  0  0  0  0  0  0  0  0  0  0
   11.9791   -2.5681   -2.3747 C   0  0  2  0  0  0  0  0  0  0  0  0
   13.3667   -2.1751   -2.4454 O   0  0  0  0  0  0  0  0  0  0  0  0
   11.1577   -1.4802   -1.6291 C   0  0  2  0  0  0  0  0  0  0  0  0
    9.7576   -1.8863   -1.5399 O   0  0  0  0  0  0  0  0  0  0  0  0
   11.2413   -0.1643   -2.4238 C   0  0  0  0  0  0  0  0  0  0  0  0
   11.3114    0.9580   -1.5359 O   0  0  0  0  0  0  0  0  0  0  0  0
  1  2  1  6  0  0  0
  1  3  1  0  0  0  0
  1  4  2  0  0  0  0
  1 16  1  0  0  0  0
  5  6  1  1  0  0  0
  5  7  1  0  0  0  0
  5 14  1  0  0  0  0
  7  8  1  1  0  0  0
  7  9  1  0  0  0  0
  9 10  1  6  0  0  0
  9 11  1  0  0  0  0
 11 12  1  1  0  0  0
 11 13  1  0  0  0  0
 13 14  1  0  0  0  0
 13 15  1  6  0  0  0
 15 16  1  0  0  0  0
M  CHG  1   3  -1
M  END
>  <CHROM.1>
-142.87865439,-98.56426264,-60.87612394,10.63996399,-1.30215931,-1.46272494
1.85688498,0.55797073,-0.14889499

>  <Name>
ligand

>  <RI>
0

>  <Rbt.Current_Directory>
/home/itssahil/PROJECTS/Mol_Feturizer/New_Systems/rnas/2HO7

>  <Rbt.Executable>
rbdock ($Id: //depot/dev/client3/rdock/2013.1/src/exe/rbdock.cxx#4 $)

>  <Rbt.Library>
libRbt.so (2013.1, Build901 2013/11/27)

>  <Rbt.Parameter_File>
/export/apps/rDock/src/rDock_2013.1_src/data/scripts/dock_solv.prm

>  <Rbt.Receptor>
prm/blind_docking_40.prm

>  <SCORE>
-14.538

>  <SCORE.INTER>
-19.9496

>  <SCORE.INTER.CONST>
1

>  <SCORE.INTER.POLAR>
-2.86378

>  <SCORE.INTER.ROT>
3

>  <SCORE.INTER.SOLV>
17.0594

>  <SCORE.INTER.VDW>
-15.0403

>  <SCORE.INTER.norm>
-1.24685

>  <SCORE.INTRA>
5.41165

>  <SCORE.INTRA.DIHEDRAL>
8.7534

>  <SCORE.INTRA.DIHEDRAL.0>
0.00893466

>  <SCORE.INTRA.POLAR>
0

>  <SCORE.INTRA.POLAR.0>
0

>  <SCORE.INTRA.REPUL>
0

>  <SCORE.INTRA.REPUL.0>
0

>  <SCORE.INTRA.SOLV>
2.74618

>  <SCORE.INTRA.SOLV.lig_0>
-48.9722

>  <SCORE.INTRA.VDW>
-0.33814

>  <SCORE.INTRA.VDW.0>
-0.529409

>  <SCORE.INTRA.norm>
0.338228

>  <SCORE.RESTR>
0

>  <SCORE.RESTR.CAVITY>
0

>  <SCORE.RESTR.norm>
0

>  <SCORE.SYSTEM>
0

>  <SCORE.SYSTEM.CONST>
0

>  <SCORE.SYSTEM.DIHEDRAL>
0

>  <SCORE.SYSTEM.SOLV>
0

>  <SCORE.SYSTEM.norm>
0

>  <SCORE.heavy>
16

>  <SCORE.norm>
-0.908624

>  <RMSD>
40.782

$$$$
ligand
 OpenBabel11021811433D
libRbt.so/2013.1/901 2013/11/27
 16 16  0  0  0  0  0  0  0  0999 V2000
   10.0289   -3.3714   -0.9526 P   0  0  2  0  0  0  0  0  0  0  0  0
   10.2057   -4.8133   -0.6493 O   0  0  0  0  0  0  0  0  0  0  0  0
    8.4857   -2.9682   -0.7391 O   0  5  0  0  0  0  0  0  0  0  0  0
   10.4407   -3.1094   -2.4873 O   0  0  0  0  0  0  0  0  0  0  0  0
   10.1025    0.3359   -3.1659 C   0  0  2  0  0  0  0  0  0  0  0  0
   11.4851    0.2592   -3.5574 O   0  0  0  0  0  0  0  0  0  0  0  0
    9.7245    1.7832   -2.7591 C   0  0  2  0  0  0  0  0  0  0  0  0
    9.9929    2.7016   -3.8719 O   0  0  0  0  0  0  0  0  0  0  0  0
   10.5771    2.1868   -1.5414 C   0  0  1  0  0  0  0  0  0  0  0  0
   10.2444    3.5205   -1.1377 O   0  0  0  0  0  0  0  0  0  0  0  0
   10.2742    1.2072   -0.3969 C   0  0  2  0  0  0  0  0  0  0  0  0
   11.0709    1.5574    0.7552 O   0  0  0  0  0  0  0  0  0  0  0  0
   10.6309   -0.2288   -0.8710 C   0  0  2  0  0  0  0  0  0  0  0  0
    9.8394   -0.5764   -2.0483 O   0  0  0  0  0  0  0  0  0  0  0  0
   10.2988   -1.2207    0.2585 C   0  0  0  0  0  0  0  0  0  0  0  0
   10.9539   -2.4757    0.0372 O   0  0  0  0  0  0  0  0  0  0  0  0
  1  2  1  1  0  0  0
  1  3  1  0  0  0  0
  1  4  2  0  0  0  0
  1 16  1  0  0  0  0
  5  6  1  1  0  0  0
  5  7  1  0  0  0  0
  5 14  1  0  0  0  0
  7  8  1  6  0  0  0
  7  9  1  0  0  0  0
  9 10  1  1  0  0  0
  9 11  1  0  0  0  0
 11 12  1  1  0  0  0
 11 13  1  0  0  0  0
 13 14  1  0  0  0  0
 13 15  1  1  0  0  0
 15 16  1  0  0  0  0
M  CHG  1   3  -1
M  END
>  <CHROM.1>
-163.17842110,-84.79535520,-149.18757048,10.25829571,-0.57939009,-1.41193583
2.17359710,1.47145003,2.33505972

>  <Name>
ligand

>  <RI>
0

>  <Rbt.Current_Directory>
/home/itssahil/PROJECTS/Mol_Feturizer/New_Systems/rnas/2HO7

>  <Rbt.Executable>
rbdock ($Id: //depot/dev/client3/rdock/2013.1/src/exe/rbdock.cxx#4 $)

>  <Rbt.Library>
libRbt.so (2013.1, Build901 2013/11/27)

>  <Rbt.Parameter_File>
/export/apps/rDock/src/rDock_2013.1_src/data/scripts/dock_solv.prm

>  <Rbt.Receptor>
prm/blind_docking_20.prm

>  <SCORE>
-15.2864

>  <SCORE.INTER>
-20.4562

>  <SCORE.INTER.CONST>
1

>  <SCORE.INTER.POLAR>
-2.86236

>  <SCORE.INTER.ROT>
3

>  <SCORE.INTER.SOLV>
16.8397

>  <SCORE.INTER.VDW>
-15.3095

>  <SCORE.INTER.norm>
-1.27851

>  <SCORE.INTRA>
5.16979

>  <SCORE.INTRA.DIHEDRAL>
4.82978

>  <SCORE.INTRA.DIHEDRAL.0>
0.00893466

>  <SCORE.INTRA.POLAR>
0

>  <SCORE.INTRA.POLAR.0>
0

>  <SCORE.INTRA.REPUL>
0

>  <SCORE.INTRA.REPUL.0>
0

>  <SCORE.INTRA.SOLV>
5.31217

>  <SCORE.INTRA.SOLV.lig_0>
-48.9722

>  <SCORE.INTRA.VDW>
0.0988125

>  <SCORE.INTRA.VDW.0>
-0.529409

>  <SCORE.INTRA.norm>
0.323112

>  <SCORE.RESTR>
0

>  <SCORE.RESTR.CAVITY>
0

>  <SCORE.RESTR.norm>
0

>  <SCORE.SYSTEM>
0

>  <SCORE.SYSTEM.CONST>
0

>  <SCORE.SYSTEM.DIHEDRAL>
0

>  <SCORE.SYSTEM.SOLV>
0

>  <SCORE.SYSTEM.norm>
0

>  <SCORE.heavy>
16

>  <SCORE.norm>
-0.955398

>  <RMSD>
40.789

$$$$
ligand
 OpenBabel11021811433D
libRbt.so/2013.1/901 2013/11/27
 16 16  0  0  0  0  0  0  0  0999 V2000
    8.7096   -1.8762    0.7976 P   0  0  2  0  0  0  0  0  0  0  0  0
    7.6235   -2.8867    0.7607 O   0  0  0  0  0  0  0  0  0  0  0  0
    9.9429   -2.3878   -0.1008 O   0  5  0  0  0  0  0  0  0  0  0  0
    9.1992   -1.6955    2.3211 O   0  0  0  0  0  0  0  0  0  0  0  0
   10.5309   -0.0051   -2.9673 C   0  0  2  0  0  0  0  0  0  0  0  0
   11.8758   -0.4007   -2.6426 O   0  0  0  0  0  0  0  0  0  0  0  0
   10.4961    1.4558   -3.4845 C   0  0  2  0  0  0  0  0  0  0  0  0
   11.3670    1.5916   -4.6581 O   0  0  0  0  0  0  0  0  0  0  0  0
   10.9970    2.3836   -2.3617 C   0  0  1  0  0  0  0  0  0  0  0  0
   10.9698    3.7443   -2.8093 O   0  0  0  0  0  0  0  0  0  0  0  0
   10.0667    2.2170   -1.1500 C   0  0  2  0  0  0  0  0  0  0  0  0
   10.5221    3.0694   -0.0772 O   0  0  0  0  0  0  0  0  0  0  0  0
   10.1071    0.7307   -0.6993 C   0  0  2  0  0  0  0  0  0  0  0  0
    9.6652   -0.1336   -1.7907 O   0  0  0  0  0  0  0  0  0  0  0  0
    9.1517    0.5481    0.4939 C   0  0  0  0  0  0  0  0  0  0  0  0
    8.1746   -0.4604    0.2086 O   0  0  0  0  0  0  0  0  0  0  0  0
  1  2  1  6  0  0  0
  1  3  1  0  0  0  0
  1  4  2  0  0  0  0
  1 16  1  0  0  0  0
  5  6  1  1  0  0  0
  5  7  1  0  0  0  0
  5 14  1  0  0  0  0
  7  8  1  6  0  0  0
  7  9  1  0  0  0  0
  9 10  1  6  0  0  0
  9 11  1  0  0  0  0
 11 12  1  1  0  0  0
 11 13  1  0  0  0  0
 13 14  1  0  0  0  0
 13 15  1  1  0  0  0
 15 16  1  0  0  0  0
M  CHG  1   3  -1
M  END
>  <CHROM.1>
123.13979422,94.41711434,169.02295389,9.86692308,0.17676901,-0.97521429,-2.71593028
1.13837759,0.34305175

>  <Name>
ligand

>  <RI>
0

>  <Rbt.Current_Directory>
/home/itssahil/PROJECTS/Mol_Feturizer/New_Systems/rnas/2HO7

>  <Rbt.Executable>
rbdock ($Id: //depot/dev/client3/rdock/2013.1/src/exe/rbdock.cxx#4 $)

>  <Rbt.Library>
libRbt.so (2013.1, Build901 2013/11/27)

>  <Rbt.Parameter_File>
/export/apps/rDock/src/rDock_2013.1_src/data/scripts/dock_solv.prm

>  <Rbt.Receptor>
prm/blind_docking_60.prm

>  <SCORE>
-18.9593

>  <SCORE.INTER>
-25.6132

>  <SCORE.INTER.CONST>
1

>  <SCORE.INTER.POLAR>
-2.54558

>  <SCORE.INTER.ROT>
3

>  <SCORE.INTER.SOLV>
16.9813

>  <SCORE.INTER.VDW>
-19.8506

>  <SCORE.INTER.norm>
-1.60083

>  <SCORE.INTRA>
6.65159

>  <SCORE.INTRA.DIHEDRAL>
9.85455

>  <SCORE.INTRA.DIHEDRAL.0>
0.00893466

>  <SCORE.INTRA.POLAR>
0

>  <SCORE.INTRA.POLAR.0>
0

>  <SCORE.INTRA.REPUL>
0

>  <SCORE.INTRA.REPUL.0>
0

>  <SCORE.INTRA.SOLV>
3.794

>  <SCORE.INTRA.SOLV.lig_0>
-48.9722

>  <SCORE.INTRA.VDW>
-0.172686

>  <SCORE.INTRA.VDW.0>
-0.529409

>  <SCORE.INTRA.norm>
0.415724

>  <SCORE.RESTR>
0.00230115

>  <SCORE.RESTR.CAVITY>
0.00230115

>  <SCORE.RESTR.norm>
0.000143822

>  <SCORE.SYSTEM>
0

>  <SCORE.SYSTEM.CONST>
0

>  <SCORE.SYSTEM.DIHEDRAL>
0

>  <SCORE.SYSTEM.SOLV>
0

>  <SCORE.SYSTEM.norm>
0

>  <SCORE.heavy>
16

>  <SCORE.norm>
-1.18496

>  <RMSD>
40.805

$$$$
ligand
 OpenBabel11021811433D
libRbt.so/2013.1/901 2013/11/27
 16 16  0  0  0  0  0  0  0  0999 V2000
    8.7004   -1.8764    0.7892 P   0  0  2  0  0  0  0  0  0  0  0  0
    7.6141   -2.8874    0.7722 O   0  0  0  0  0  0  0  0  0  0  0  0
    9.9147   -2.3846   -0.1365 O   0  5  0  0  0  0  0  0  0  0  0  0
    9.2218   -1.6999    2.3026 O   0  0  0  0  0  0  0  0  0  0  0  0
   10.5315   -0.0173   -2.9450 C   0  0  2  0  0  0  0  0  0  0  0  0
   11.8735   -0.4123   -2.6078 O   0  0  0  0  0  0  0  0  0  0  0  0
   10.5018    1.4412   -3.4694 C   0  0  2  0  0  0  0  0  0  0  0  0
   11.3820    1.5708   -4.6366 O   0  0  0  0  0  0  0  0  0  0  0  0
   10.9944    2.3739   -2.3470 C   0  0  1  0  0  0  0  0  0  0  0  0
   10.9717    3.7325   -2.8012 O   0  0  0  0  0  0  0  0  0  0  0  0
   10.0544    2.2136   -1.1420 C   0  0  2  0  0  0  0  0  0  0  0  0
   10.5019    3.0707   -0.0697 O   0  0  0  0  0  0  0  0  0  0  0  0
   10.0902    0.7294   -0.6840 C   0  0  2  0  0  0  0  0  0  0  0  0
    9.6563   -0.1397   -1.7747 O   0  0  0  0  0  0  0  0  0  0  0  0
    9.1252    0.5531    0.5025 C   0  0  0  0  0  0  0  0  0  0  0  0
    8.1524   -0.4591    0.2159 O   0  0  0  0  0  0  0  0  0  0  0  0
  1  2  1  6  0  0  0
  1  3  1  0  0  0  0
  1  4  2  0  0  0  0
  1 16  1  0  0  0  0
  5  6  1  1  0  0  0
  5  7  1  0  0  0  0
  5 14  1  0  0  0  0
  7  8  1  6  0  0  0
  7  9  1  0  0  0  0
  9 10  1  6  0  0  0
  9 11  1  0  0  0  0
 11 12  1  1  0  0  0
 11 13  1  0  0  0  0
 13 14  1  0  0  0  0
 13 15  1  1  0  0  0
 15 16  1  0  0  0  0
M  CHG  1   3  -1
M  END
>  <CHROM.1>
123.32409957,93.15407771,168.11353402,9.85977538,0.17180984,-0.96861163,-2.70455846
1.13235795,0.33250697

>  <Name>
ligand

>  <RI>
0

>  <Rbt.Current_Directory>
/home/itssahil/PROJECTS/Mol_Feturizer/New_Systems/rnas/2HO7

>  <Rbt.Executable>
rbdock ($Id: //depot/dev/client3/rdock/2013.1/src/exe/rbdock.cxx#4 $)

>  <Rbt.Library>
libRbt.so (2013.1, Build901 2013/11/27)

>  <Rbt.Parameter_File>
/export/apps/rDock/src/rDock_2013.1_src/data/scripts/dock_solv.prm

>  <Rbt.Receptor>
prm/blind_docking_100.prm

>  <SCORE>
-18.9095

>  <SCORE.INTER>
-25.5522

>  <SCORE.INTER.CONST>
1

>  <SCORE.INTER.POLAR>
-2.54223

>  <SCORE.INTER.ROT>
3

>  <SCORE.INTER.SOLV>
16.9752

>  <SCORE.INTER.VDW>
-19.8191

>  <SCORE.INTER.norm>
-1.59701

>  <SCORE.INTRA>
6.64233

>  <SCORE.INTRA.DIHEDRAL>
9.64916

>  <SCORE.INTRA.DIHEDRAL.0>
0.00893466

>  <SCORE.INTRA.POLAR>
0

>  <SCORE.INTRA.POLAR.0>
0

>  <SCORE.INTRA.REPUL>
0

>  <SCORE.INTRA.REPUL.0>
0

>  <SCORE.INTRA.SOLV>
3.92006

>  <SCORE.INTRA.SOLV.lig_0>
-48.9722

>  <SCORE.INTRA.VDW>
-0.142278

>  <SCORE.INTRA.VDW.0>
-0.529409

>  <SCORE.INTRA.norm>
0.415146

>  <SCORE.RESTR>
0.000340341

>  <SCORE.RESTR.CAVITY>
0.000340341

>  <SCORE.RESTR.norm>
2.12713e-05

>  <SCORE.SYSTEM>
0

>  <SCORE.SYSTEM.CONST>
0

>  <SCORE.SYSTEM.DIHEDRAL>
0

>  <SCORE.SYSTEM.SOLV>
0

>  <SCORE.SYSTEM.norm>
0

>  <SCORE.heavy>
16

>  <SCORE.norm>
-1.18185

>  <RMSD>
40.810

$$$$
ligand
 OpenBabel11021811433D
libRbt.so/2013.1/901 2013/11/27
 16 16  0  0  0  0  0  0  0  0999 V2000
    8.9698   -1.5538    1.1892 P   0  0  2  0  0  0  0  0  0  0  0  0
    8.8516   -2.4229    2.3862 O   0  0  0  0  0  0  0  0  0  0  0  0
    7.5830   -1.5807    0.3732 O   0  5  0  0  0  0  0  0  0  0  0  0
   10.1508   -2.1192    0.2515 O   0  0  0  0  0  0  0  0  0  0  0  0
   10.5487   -0.1151   -2.5639 C   0  0  2  0  0  0  0  0  0  0  0  0
   11.9095   -0.1668   -2.0989 O   0  0  0  0  0  0  0  0  0  0  0  0
   10.2967    1.1733   -3.3883 C   0  0  2  0  0  0  0  0  0  0  0  0
   11.2273    1.2317   -4.5217 O   0  0  0  0  0  0  0  0  0  0  0  0
   10.5232    2.3911   -2.4728 C   0  0  1  0  0  0  0  0  0  0  0  0
   10.2907    3.5990   -3.2071 O   0  0  0  0  0  0  0  0  0  0  0  0
    9.5366    2.2993   -1.2983 C   0  0  2  0  0  0  0  0  0  0  0  0
    9.7366    3.4257   -0.4173 O   0  0  0  0  0  0  0  0  0  0  0  0
    9.8045    0.9740   -0.5330 C   0  0  2  0  0  0  0  0  0  0  0  0
    9.6215   -0.1649   -1.4289 O   0  0  0  0  0  0  0  0  0  0  0  0
    8.7976    0.8583    0.6258 C   0  0  0  0  0  0  0  0  0  0  0  0
    9.2926   -0.0267    1.6381 O   0  0  0  0  0  0  0  0  0  0  0  0
  1  2  1  1  0  0  0
  1  3  1  0  0  0  0
  1  4  2  0  0  0  0
  1 16  1  0  0  0  0
  5  6  1  1  0  0  0
  5  7  1  0  0  0  0
  5 14  1  0  0  0  0
  7  8  1  6  0  0  0
  7  9  1  0  0  0  0
  9 10  1  6  0  0  0
  9 11  1  0  0  0  0
 11 12  1  1  0  0  0
 11 13  1  0  0  0  0
 13 14  1  0  0  0  0
 13 15  1  1  0  0  0
 15 16  1  0  0  0  0
M  CHG  1   3  -1
M  END
>  <CHROM.1>
-157.91021699,-82.28829994,-153.23120300,9.76026557,0.31420462,-0.78834394
-2.23324369,1.08550377,-0.25709078

>  <Name>
ligand

>  <RI>
0

>  <Rbt.Current_Directory>
/home/itssahil/PROJECTS/Mol_Feturizer/New_Systems/rnas/2HO7

>  <Rbt.Executable>
rbdock ($Id: //depot/dev/client3/rdock/2013.1/src/exe/rbdock.cxx#4 $)

>  <Rbt.Library>
libRbt.so (2013.1, Build901 2013/11/27)

>  <Rbt.Parameter_File>
/export/apps/rDock/src/rDock_2013.1_src/data/scripts/dock_solv.prm

>  <Rbt.Receptor>
prm/blind_docking_20.prm

>  <SCORE>
-19.9073

>  <SCORE.INTER>
-24.9677

>  <SCORE.INTER.CONST>
1

>  <SCORE.INTER.POLAR>
-2.86309

>  <SCORE.INTER.ROT>
3

>  <SCORE.INTER.SOLV>
17.7543

>  <SCORE.INTER.VDW>
-18.6196

>  <SCORE.INTER.norm>
-1.56048

>  <SCORE.INTRA>
5.06044

>  <SCORE.INTRA.DIHEDRAL>
4.74904

>  <SCORE.INTRA.DIHEDRAL.0>
0.00893466

>  <SCORE.INTRA.POLAR>
0

>  <SCORE.INTRA.POLAR.0>
0

>  <SCORE.INTRA.REPUL>
0

>  <SCORE.INTRA.REPUL.0>
0

>  <SCORE.INTRA.SOLV>
5.39703

>  <SCORE.INTRA.SOLV.lig_0>
-48.9722

>  <SCORE.INTRA.VDW>
-0.0125899

>  <SCORE.INTRA.VDW.0>
-0.529409

>  <SCORE.INTRA.norm>
0.316278

>  <SCORE.RESTR>
0

>  <SCORE.RESTR.CAVITY>
0

>  <SCORE.RESTR.norm>
0

>  <SCORE.SYSTEM>
0

>  <SCORE.SYSTEM.CONST>
0

>  <SCORE.SYSTEM.DIHEDRAL>
0

>  <SCORE.SYSTEM.SOLV>
0

>  <SCORE.SYSTEM.norm>
0

>  <SCORE.heavy>
16

>  <SCORE.norm>
-1.2442

>  <RMSD>
40.810

$$$$
ligand
 OpenBabel11021811433D
libRbt.so/2013.1/901 2013/11/27
 16 16  0  0  0  0  0  0  0  0999 V2000
   10.4373   -3.6345   -1.4137 P   0  0  2  0  0  0  0  0  0  0  0  0
   10.0571   -5.0153   -1.8024 O   0  0  0  0  0  0  0  0  0  0  0  0
   11.2902   -3.6816   -0.0498 O   0  5  0  0  0  0  0  0  0  0  0  0
    9.0968   -2.7747   -1.1744 O   0  0  0  0  0  0  0  0  0  0  0  0
   10.6772    1.5945   -1.0759 C   0  0  2  0  0  0  0  0  0  0  0  0
    9.3291    1.2486   -0.7102 O   0  0  0  0  0  0  0  0  0  0  0  0
   10.7127    2.2766   -2.4675 C   0  0  2  0  0  0  0  0  0  0  0  0
    9.8617    3.4724   -2.4601 O   0  0  0  0  0  0  0  0  0  0  0  0
   10.1871    1.2772   -3.5150 C   0  0  1  0  0  0  0  0  0  0  0  0
   10.2143    1.8787   -4.8149 O   0  0  0  0  0  0  0  0  0  0  0  0
   11.0970    0.0391   -3.4967 C   0  0  2  0  0  0  0  0  0  0  0  0
   10.6181   -0.9202   -4.4638 O   0  0  0  0  0  0  0  0  0  0  0  0
   11.0572   -0.5798   -2.0721 C   0  0  2  0  0  0  0  0  0  0  0  0
   11.5230    0.3967   -1.0909 O   0  0  0  0  0  0  0  0  0  0  0  0
   11.9928   -1.8019   -2.0360 C   0  0  0  0  0  0  0  0  0  0  0  0
   11.3388   -2.9545   -2.5809 O   0  0  0  0  0  0  0  0  0  0  0  0
  1  2  1  6  0  0  0
  1  3  1  0  0  0  0
  1  4  2  0  0  0  0
  1 16  1  0  0  0  0
  5  6  1  6  0  0  0
  5  7  1  0  0  0  0
  5 14  1  0  0  0  0
  7  8  1  1  0  0  0
  7  9  1  0  0  0  0
  9 10  1  6  0  0  0
  9 11  1  0  0  0  0
 11 12  1  6  0  0  0
 11 13  1  0  0  0  0
 13 14  1  0  0  0  0
 13 15  1  6  0  0  0
 15 16  1  0  0  0  0
M  CHG  1   3  -1
M  END
>  <CHROM.1>
-81.55913432,-83.54770306,-163.98421564,10.56411646,-0.83221662,-2.13737508
1.14130290,-1.46812829,2.47734279

>  <Name>
ligand

>  <RI>
0

>  <Rbt.Current_Directory>
/home/itssahil/PROJECTS/Mol_Feturizer/New_Systems/rnas/2HO7

>  <Rbt.Executable>
rbdock ($Id: //depot/dev/client3/rdock/2013.1/src/exe/rbdock.cxx#4 $)

>  <Rbt.Library>
libRbt.so (2013.1, Build901 2013/11/27)

>  <Rbt.Parameter_File>
/export/apps/rDock/src/rDock_2013.1_src/data/scripts/dock_solv.prm

>  <Rbt.Receptor>
prm/blind_docking_100.prm

>  <SCORE>
-13.0759

>  <SCORE.INTER>
-16.6854

>  <SCORE.INTER.CONST>
1

>  <SCORE.INTER.POLAR>
-1.59099

>  <SCORE.INTER.ROT>
3

>  <SCORE.INTER.SOLV>
12.6494

>  <SCORE.INTER.VDW>
-15.6368

>  <SCORE.INTER.norm>
-1.04284

>  <SCORE.INTRA>
3.60956

>  <SCORE.INTRA.DIHEDRAL>
4.30663

>  <SCORE.INTRA.DIHEDRAL.0>
0.00893466

>  <SCORE.INTRA.POLAR>
0

>  <SCORE.INTRA.POLAR.0>
0

>  <SCORE.INTRA.REPUL>
0

>  <SCORE.INTRA.REPUL.0>
0

>  <SCORE.INTRA.SOLV>
3.5004

>  <SCORE.INTRA.SOLV.lig_0>
-48.9722

>  <SCORE.INTRA.VDW>
-0.293958

>  <SCORE.INTRA.VDW.0>
-0.529409

>  <SCORE.INTRA.norm>
0.225597

>  <SCORE.RESTR>
0

>  <SCORE.RESTR.CAVITY>
0

>  <SCORE.RESTR.norm>
0

>  <SCORE.SYSTEM>
0

>  <SCORE.SYSTEM.CONST>
0

>  <SCORE.SYSTEM.DIHEDRAL>
0

>  <SCORE.SYSTEM.SOLV>
0

>  <SCORE.SYSTEM.norm>
0

>  <SCORE.heavy>
16

>  <SCORE.norm>
-0.817241

>  <RMSD>
40.813

$$$$
ligand
 OpenBabel11021811433D
libRbt.so/2013.1/901 2013/11/27
 16 16  0  0  0  0  0  0  0  0999 V2000
   10.0739   -3.2474   -0.8333 P   0  0  2  0  0  0  0  0  0  0  0  0
   10.3648   -4.6456   -0.4302 O   0  0  0  0  0  0  0  0  0  0  0  0
    8.4846   -2.9996   -0.7852 O   0  5  0  0  0  0  0  0  0  0  0  0
   10.6035   -3.0196   -2.3371 O   0  0  0  0  0  0  0  0  0  0  0  0
   10.1787    0.3124   -3.3410 C   0  0  2  0  0  0  0  0  0  0  0  0
   11.5917    0.2189   -3.5967 O   0  0  0  0  0  0  0  0  0  0  0  0
    9.7623    1.7825   -3.0790 C   0  0  2  0  0  0  0  0  0  0  0  0
   10.1310    2.6188   -4.2273 O   0  0  0  0  0  0  0  0  0  0  0  0
   10.4980    2.2818   -1.8212 C   0  0  1  0  0  0  0  0  0  0  0  0
   10.1272    3.6387   -1.5497 O   0  0  0  0  0  0  0  0  0  0  0  0
   10.0921    1.3865   -0.6401 C   0  0  2  0  0  0  0  0  0  0  0  0
   10.7784    1.8273    0.5514 O   0  0  0  0  0  0  0  0  0  0  0  0
   10.4935   -0.0774   -0.9717 C   0  0  2  0  0  0  0  0  0  0  0  0
    9.8148   -0.5173   -2.1879 O   0  0  0  0  0  0  0  0  0  0  0  0
   10.0600   -0.9864    0.1928 C   0  0  0  0  0  0  0  0  0  0  0  0
   10.8042   -2.2108    0.1815 O   0  0  0  0  0  0  0  0  0  0  0  0
  1  2  1  1  0  0  0
  1  3  1  0  0  0  0
  1  4  2  0  0  0  0
  1 16  1  0  0  0  0
  5  6  1  1  0  0  0
  5  7  1  0  0  0  0
  5 14  1  0  0  0  0
  7  8  1  6  0  0  0
  7  9  1  0  0  0  0
  9 10  1  1  0  0  0
  9 11  1  0  0  0  0
 11 12  1  1  0  0  0
 11 13  1  0  0  0  0
 13 14  1  0  0  0  0
 13 15  1  1  0  0  0
 15 16  1  0  0  0  0
M  CHG  1   3  -1
M  END
>  <CHROM.1>
-159.05930240,-84.77694317,-153.33005126,10.23484142,-0.47943679,-1.50133842
-2.78358324,1.52384839,0.93099282

>  <Name>
ligand

>  <RI>
0

>  <Rbt.Current_Directory>
/home/itssahil/PROJECTS/Mol_Feturizer/New_Systems/rnas/2HO7

>  <Rbt.Executable>
rbdock ($Id: //depot/dev/client3/rdock/2013.1/src/exe/rbdock.cxx#4 $)

>  <Rbt.Library>
libRbt.so (2013.1, Build901 2013/11/27)

>  <Rbt.Parameter_File>
/export/apps/rDock/src/rDock_2013.1_src/data/scripts/dock_solv.prm

>  <Rbt.Receptor>
prm/blind_docking_20.prm

>  <SCORE>
-15.335

>  <SCORE.INTER>
-20.3997

>  <SCORE.INTER.CONST>
1

>  <SCORE.INTER.POLAR>
-2.86378

>  <SCORE.INTER.ROT>
3

>  <SCORE.INTER.SOLV>
16.8592

>  <SCORE.INTER.VDW>
-15.2735

>  <SCORE.INTER.norm>
-1.27498

>  <SCORE.INTRA>
5.06463

>  <SCORE.INTRA.DIHEDRAL>
5.04171

>  <SCORE.INTRA.DIHEDRAL.0>
0.00893466

>  <SCORE.INTRA.POLAR>
0

>  <SCORE.INTRA.POLAR.0>
0

>  <SCORE.INTRA.REPUL>
0

>  <SCORE.INTRA.REPUL.0>
0

>  <SCORE.INTRA.SOLV>
5.18216

>  <SCORE.INTRA.SOLV.lig_0>
-48.9722

>  <SCORE.INTRA.VDW>
-0.0473063

>  <SCORE.INTRA.VDW.0>
-0.529409

>  <SCORE.INTRA.norm>
0.316539

>  <SCORE.RESTR>
0

>  <SCORE.RESTR.CAVITY>
0

>  <SCORE.RESTR.norm>
0

>  <SCORE.SYSTEM>
0

>  <SCORE.SYSTEM.CONST>
0

>  <SCORE.SYSTEM.DIHEDRAL>
0

>  <SCORE.SYSTEM.SOLV>
0

>  <SCORE.SYSTEM.norm>
0

>  <SCORE.heavy>
16

>  <SCORE.norm>
-0.958439

>  <RMSD>
40.822

$$$$
ligand
 OpenBabel11021811433D
libRbt.so/2013.1/901 2013/11/27
 16 16  0  0  0  0  0  0  0  0999 V2000
    8.5663   -2.3662    0.4564 P   0  0  2  0  0  0  0  0  0  0  0  0
    8.4200   -2.4036    1.9327 O   0  0  0  0  0  0  0  0  0  0  0  0
    7.1998   -2.8721   -0.2267 O   0  5  0  0  0  0  0  0  0  0  0  0
    9.7704   -3.3464    0.0290 O   0  0  0  0  0  0  0  0  0  0  0  0
   11.1402    0.2178   -3.3619 C   0  0  2  0  0  0  0  0  0  0  0  0
   12.5719    0.3145   -3.2531 O   0  0  0  0  0  0  0  0  0  0  0  0
   10.4998    1.6251   -3.4731 C   0  0  2  0  0  0  0  0  0  0  0  0
   11.0541    2.3365   -4.6310 O   0  0  0  0  0  0  0  0  0  0  0  0
   10.8179    2.4096   -2.1863 C   0  0  1  0  0  0  0  0  0  0  0  0
   10.2320    3.7151   -2.2575 O   0  0  0  0  0  0  0  0  0  0  0  0
   10.2265    1.6394   -0.9955 C   0  0  2  0  0  0  0  0  0  0  0  0
   10.5213    2.3494    0.2267 O   0  0  0  0  0  0  0  0  0  0  0  0
   10.8699    0.2257   -0.9553 C   0  0  2  0  0  0  0  0  0  0  0  0
   10.5886   -0.4858   -2.1995 O   0  0  0  0  0  0  0  0  0  0  0  0
   10.2579   -0.5646    0.2155 C   0  0  0  0  0  0  0  0  0  0  0  0
    8.8763   -0.8496   -0.0353 O   0  0  0  0  0  0  0  0  0  0  0  0
  1  2  1  1  0  0  0
  1  3  1  0  0  0  0
  1  4  2  0  0  0  0
  1 16  1  0  0  0  0
  5  6  1  1  0  0  0
  5  7  1  0  0  0  0
  5 14  1  0  0  0  0
  7  8  1  6  0  0  0
  7  9  1  0  0  0  0
  9 10  1  6  0  0  0
  9 11  1  0  0  0  0
 11 12  1  1  0  0  0
 11 13  1  0  0  0  0
 13 14  1  0  0  0  0
 13 15  1  1  0  0  0
 15 16  1  0  0  0  0
M  CHG  1   3  -1
M  END
>  <CHROM.1>
67.69019644,139.38738565,78.15494546,9.97337349,-0.08436073,-1.15043810,-2.57078732
1.08562851,0.28010247

>  <Name>
ligand

>  <RI>
0

>  <Rbt.Current_Directory>
/home/itssahil/PROJECTS/Mol_Feturizer/New_Systems/rnas/2HO7

>  <Rbt.Executable>
rbdock ($Id: //depot/dev/client3/rdock/2013.1/src/exe/rbdock.cxx#4 $)

>  <Rbt.Library>
libRbt.so (2013.1, Build901 2013/11/27)

>  <Rbt.Parameter_File>
/export/apps/rDock/src/rDock_2013.1_src/data/scripts/dock_solv.prm

>  <Rbt.Receptor>
prm/blind_docking_20.prm

>  <SCORE>
-13.4371

>  <SCORE.INTER>
-17.0398

>  <SCORE.INTER.CONST>
1

>  <SCORE.INTER.POLAR>
-1.53367

>  <SCORE.INTER.ROT>
3

>  <SCORE.INTER.SOLV>
21.0728

>  <SCORE.INTER.VDW>
-18.8719

>  <SCORE.INTER.norm>
-1.06499

>  <SCORE.INTRA>
3.6027

>  <SCORE.INTRA.DIHEDRAL>
6.20193

>  <SCORE.INTRA.DIHEDRAL.0>
0.00893466

>  <SCORE.INTRA.POLAR>
0

>  <SCORE.INTRA.POLAR.0>
0

>  <SCORE.INTRA.REPUL>
0

>  <SCORE.INTRA.REPUL.0>
0

>  <SCORE.INTRA.SOLV>
1.17609

>  <SCORE.INTRA.SOLV.lig_0>
-48.9722

>  <SCORE.INTRA.VDW>
-0.0863065

>  <SCORE.INTRA.VDW.0>
-0.529409

>  <SCORE.INTRA.norm>
0.225169

>  <SCORE.RESTR>
0

>  <SCORE.RESTR.CAVITY>
0

>  <SCORE.RESTR.norm>
0

>  <SCORE.SYSTEM>
0

>  <SCORE.SYSTEM.CONST>
0

>  <SCORE.SYSTEM.DIHEDRAL>
0

>  <SCORE.SYSTEM.SOLV>
0

>  <SCORE.SYSTEM.norm>
0

>  <SCORE.heavy>
16

>  <SCORE.norm>
-0.839816

>  <RMSD>
40.826

$$$$
ligand
 OpenBabel11021811433D
libRbt.so/2013.1/901 2013/11/27
 16 16  0  0  0  0  0  0  0  0999 V2000
   10.3339   -3.4037   -1.4275 P   0  0  2  0  0  0  0  0  0  0  0  0
   10.5292   -4.8399   -1.7462 O   0  0  0  0  0  0  0  0  0  0  0  0
    9.8372   -3.2597    0.0963 O   0  5  0  0  0  0  0  0  0  0  0  0
    9.2118   -2.8011   -2.4130 O   0  0  0  0  0  0  0  0  0  0  0  0
   10.9542    1.5206   -1.2063 C   0  0  2  0  0  0  0  0  0  0  0  0
    9.6169    1.2945   -0.7254 O   0  0  0  0  0  0  0  0  0  0  0  0
   10.9398    2.4077   -2.4775 C   0  0  2  0  0  0  0  0  0  0  0  0
   10.2772    3.6850   -2.1884 O   0  0  0  0  0  0  0  0  0  0  0  0
   10.1660    1.6649   -3.5829 C   0  0  1  0  0  0  0  0  0  0  0  0
   10.1416    2.4594   -4.7748 O   0  0  0  0  0  0  0  0  0  0  0  0
   10.8832    0.3345   -3.8604 C   0  0  2  0  0  0  0  0  0  0  0  0
   10.1697   -0.3878   -4.8870 O   0  0  0  0  0  0  0  0  0  0  0  0
   10.9060   -0.4954   -2.5471 C   0  0  2  0  0  0  0  0  0  0  0  0
   11.6106    0.2432   -1.5025 O   0  0  0  0  0  0  0  0  0  0  0  0
   11.6526   -1.8162   -2.8081 C   0  0  0  0  0  0  0  0  0  0  0  0
   11.7317   -2.5969   -1.6092 O   0  0  0  0  0  0  0  0  0  0  0  0
  1  2  1  6  0  0  0
  1  3  1  0  0  0  0
  1  4  2  0  0  0  0
  1 16  1  0  0  0  0
  5  6  1  6  0  0  0
  5  7  1  0  0  0  0
  5 14  1  0  0  0  0
  7  8  1  1  0  0  0
  7  9  1  0  0  0  0
  9 10  1  6  0  0  0
  9 11  1  0  0  0  0
 11 12  1  6  0  0  0
 11 13  1  0  0  0  0
 13 14  1  0  0  0  0
 13 15  1  6  0  0  0
 15 16  1  0  0  0  0
M  CHG  1   3  -1
M  END
>  <CHROM.1>
178.28336259,82.11769066,106.03364227,10.52598573,-0.62745780,-2.27329243
-2.39947102,-1.56499905,-1.09028052

>  <Name>
ligand

>  <RI>
0

>  <Rbt.Current_Directory>
/home/itssahil/PROJECTS/Mol_Feturizer/New_Systems/rnas/2HO7

>  <Rbt.Executable>
rbdock ($Id: //depot/dev/client3/rdock/2013.1/src/exe/rbdock.cxx#4 $)

>  <Rbt.Library>
libRbt.so (2013.1, Build901 2013/11/27)

>  <Rbt.Parameter_File>
/export/apps/rDock/src/rDock_2013.1_src/data/scripts/dock_solv.prm

>  <Rbt.Receptor>
prm/blind_docking_100.prm

>  <SCORE>
-11.6329

>  <SCORE.INTER>
-16.0705

>  <SCORE.INTER.CONST>
1

>  <SCORE.INTER.POLAR>
-1.59099

>  <SCORE.INTER.ROT>
3

>  <SCORE.INTER.SOLV>
16.0695

>  <SCORE.INTER.VDW>
-16.3669

>  <SCORE.INTER.norm>
-1.00441

>  <SCORE.INTRA>
4.43758

>  <SCORE.INTRA.DIHEDRAL>
4.25007

>  <SCORE.INTRA.DIHEDRAL.0>
0.00893466

>  <SCORE.INTRA.POLAR>
0

>  <SCORE.INTRA.POLAR.0>
0

>  <SCORE.INTRA.REPUL>
0

>  <SCORE.INTRA.REPUL.0>
0

>  <SCORE.INTRA.SOLV>
3.14382

>  <SCORE.INTRA.SOLV.lig_0>
-48.9722

>  <SCORE.INTRA.VDW>
0.740629

>  <SCORE.INTRA.VDW.0>
-0.529409

>  <SCORE.INTRA.norm>
0.277348

>  <SCORE.RESTR>
0

>  <SCORE.RESTR.CAVITY>
0

>  <SCORE.RESTR.norm>
0

>  <SCORE.SYSTEM>
0

>  <SCORE.SYSTEM.CONST>
0

>  <SCORE.SYSTEM.DIHEDRAL>
0

>  <SCORE.SYSTEM.SOLV>
0

>  <SCORE.SYSTEM.norm>
0

>  <SCORE.heavy>
16

>  <SCORE.norm>
-0.727059

>  <RMSD>
40.830

$$$$
ligand
 OpenBabel11021811433D
libRbt.so/2013.1/901 2013/11/27
 16 16  0  0  0  0  0  0  0  0999 V2000
    9.2462   -2.0736    0.7956 P   0  0  2  0  0  0  0  0  0  0  0  0
    8.3573   -1.0155    0.2547 O   0  0  0  0  0  0  0  0  0  0  0  0
    8.9845   -3.4470   -0.0013 O   0  5  0  0  0  0  0  0  0  0  0  0
    8.9071   -2.2895    2.3550 O   0  0  0  0  0  0  0  0  0  0  0  0
   10.5937    2.2019   -1.1776 C   0  0  2  0  0  0  0  0  0  0  0  0
    9.1885    2.3058   -0.8853 O   0  0  0  0  0  0  0  0  0  0  0  0
   10.8500    2.3259   -2.7014 C   0  0  2  0  0  0  0  0  0  0  0  0
   10.3173    3.6010   -3.1958 O   0  0  0  0  0  0  0  0  0  0  0  0
   10.1381    1.1601   -3.4130 C   0  0  1  0  0  0  0  0  0  0  0  0
   10.3631    1.2447   -4.8254 O   0  0  0  0  0  0  0  0  0  0  0  0
   10.7165   -0.1573   -2.8733 C   0  0  2  0  0  0  0  0  0  0  0  0
   10.0564   -1.2683   -3.5174 O   0  0  0  0  0  0  0  0  0  0  0  0
   10.4701   -0.2112   -1.3402 C   0  0  2  0  0  0  0  0  0  0  0  0
   11.1211    0.9233   -0.6902 O   0  0  0  0  0  0  0  0  0  0  0  0
   11.0765   -1.5132   -0.7860 C   0  0  0  0  0  0  0  0  0  0  0  0
   10.8014   -1.6422    0.6143 O   0  0  0  0  0  0  0  0  0  0  0  0
  1  2  1  6  0  0  0
  1  3  1  0  0  0  0
  1  4  2  0  0  0  0
  1 16  1  0  0  0  0
  5  6  1  6  0  0  0
  5  7  1  0  0  0  0
  5 14  1  0  0  0  0
  7  8  1  6  0  0  0
  7  9  1  0  0  0  0
  9 10  1  6  0  0  0
  9 11  1  0  0  0  0
 11 12  1  6  0  0  0
 11 13  1  0  0  0  0
 13 14  1  0  0  0  0
 13 15  1  1  0  0  0
 15 16  1  0  0  0  0
M  CHG  1   3  -1
M  END
>  <CHROM.1>
-176.53830192,75.38518040,-62.28636366,9.98953904,-0.16373243,-1.15875899
2.67446306,-1.36262183,-2.80717785

>  <Name>
ligand

>  <RI>
0

>  <Rbt.Current_Directory>
/home/itssahil/PROJECTS/Mol_Feturizer/New_Systems/rnas/2HO7

>  <Rbt.Executable>
rbdock ($Id: //depot/dev/client3/rdock/2013.1/src/exe/rbdock.cxx#4 $)

>  <Rbt.Library>
libRbt.so (2013.1, Build901 2013/11/27)

>  <Rbt.Parameter_File>
/export/apps/rDock/src/rDock_2013.1_src/data/scripts/dock_solv.prm

>  <Rbt.Receptor>
prm/blind_docking_100.prm

>  <SCORE>
-11.2142

>  <SCORE.INTER>
-12.4515

>  <SCORE.INTER.CONST>
1

>  <SCORE.INTER.POLAR>
-1.27279

>  <SCORE.INTER.ROT>
3

>  <SCORE.INTER.SOLV>
17.9025

>  <SCORE.INTER.VDW>
-15.6259

>  <SCORE.INTER.norm>
-0.778218

>  <SCORE.INTRA>
1.23627

>  <SCORE.INTRA.DIHEDRAL>
1.14925

>  <SCORE.INTRA.DIHEDRAL.0>
0.00893466

>  <SCORE.INTRA.POLAR>
0

>  <SCORE.INTRA.POLAR.0>
0

>  <SCORE.INTRA.REPUL>
0

>  <SCORE.INTRA.REPUL.0>
0

>  <SCORE.INTRA.SOLV>
1.22475

>  <SCORE.INTRA.SOLV.lig_0>
-48.9722

>  <SCORE.INTRA.VDW>
0.0492747

>  <SCORE.INTRA.VDW.0>
-0.529409

>  <SCORE.INTRA.norm>
0.0772671

>  <SCORE.RESTR>
0.00103598

>  <SCORE.RESTR.CAVITY>
0.00103598

>  <SCORE.RESTR.norm>
6.4749e-05

>  <SCORE.SYSTEM>
0

>  <SCORE.SYSTEM.CONST>
0

>  <SCORE.SYSTEM.DIHEDRAL>
0

>  <SCORE.SYSTEM.SOLV>
0

>  <SCORE.SYSTEM.norm>
0

>  <SCORE.heavy>
16

>  <SCORE.norm>
-0.700886

>  <RMSD>
40.845

$$$$
ligand
 OpenBabel11021811433D
libRbt.so/2013.1/901 2013/11/27
 16 16  0  0  0  0  0  0  0  0999 V2000
   10.3670    1.8592   -3.2354 P   0  0  2  0  0  0  0  0  0  0  0  0
    9.4306    2.9200   -2.7882 O   0  0  0  0  0  0  0  0  0  0  0  0
   11.8788    2.3955   -3.1076 O   0  5  0  0  0  0  0  0  0  0  0  0
   10.0550    1.5067   -4.7755 O   0  0  0  0  0  0  0  0  0  0  0  0
    9.5664   -3.3923   -0.9454 C   0  0  2  0  0  0  0  0  0  0  0  0
    9.9774   -3.0730    0.3961 O   0  0  0  0  0  0  0  0  0  0  0  0
   10.4343   -4.5360   -1.5300 C   0  0  2  0  0  0  0  0  0  0  0  0
   10.3428   -5.7223   -0.6707 O   0  0  0  0  0  0  0  0  0  0  0  0
   11.8967   -4.0567   -1.5919 C   0  0  1  0  0  0  0  0  0  0  0  0
   12.7235   -5.0928   -2.1354 O   0  0  0  0  0  0  0  0  0  0  0  0
   11.9578   -2.8158   -2.4961 C   0  0  2  0  0  0  0  0  0  0  0  0
   13.3191   -2.3389   -2.5617 O   0  0  0  0  0  0  0  0  0  0  0  0
   11.0408   -1.7186   -1.8884 C   0  0  2  0  0  0  0  0  0  0  0  0
    9.6671   -2.2074   -1.8035 O   0  0  0  0  0  0  0  0  0  0  0  0
   11.0702   -0.4832   -2.8066 C   0  0  0  0  0  0  0  0  0  0  0  0
   10.1929    0.5354   -2.3108 O   0  0  0  0  0  0  0  0  0  0  0  0
  1  2  1  1  0  0  0
  1  3  1  0  0  0  0
  1  4  2  0  0  0  0
  1 16  1  0  0  0  0
  5  6  1  1  0  0  0
  5  7  1  0  0  0  0
  5 14  1  0  0  0  0
  7  8  1  1  0  0  0
  7  9  1  0  0  0  0
  9 10  1  6  0  0  0
  9 11  1  0  0  0  0
 11 12  1  1  0  0  0
 11 13  1  0  0  0  0
 13 14  1  0  0  0  0
 13 15  1  6  0  0  0
 15 16  1  0  0  0  0
M  CHG  1   3  -1
M  END
>  <CHROM.1>
177.63280710,174.82807600,177.59912490,10.83242354,-1.34392153,-2.22645717
1.69113140,0.48751824,-0.36665459

>  <Name>
ligand

>  <RI>
0

>  <Rbt.Current_Directory>
/home/itssahil/PROJECTS/Mol_Feturizer/New_Systems/rnas/2HO7

>  <Rbt.Executable>
rbdock ($Id: //depot/dev/client3/rdock/2013.1/src/exe/rbdock.cxx#4 $)

>  <Rbt.Library>
libRbt.so (2013.1, Build901 2013/11/27)

>  <Rbt.Parameter_File>
/export/apps/rDock/src/rDock_2013.1_src/data/scripts/dock_solv.prm

>  <Rbt.Receptor>
prm/blind_docking_60.prm

>  <SCORE>
-13.2762

>  <SCORE.INTER>
-13.6114

>  <SCORE.INTER.CONST>
1

>  <SCORE.INTER.POLAR>
-1.27279

>  <SCORE.INTER.ROT>
3

>  <SCORE.INTER.SOLV>
19.4232

>  <SCORE.INTER.VDW>
-16.906

>  <SCORE.INTER.norm>
-0.850711

>  <SCORE.INTRA>
0.33515

>  <SCORE.INTRA.DIHEDRAL>
0.152549

>  <SCORE.INTRA.DIHEDRAL.0>
0.00893466

>  <SCORE.INTRA.POLAR>
0

>  <SCORE.INTRA.POLAR.0>
0

>  <SCORE.INTRA.REPUL>
0

>  <SCORE.INTRA.REPUL.0>
0

>  <SCORE.INTRA.SOLV>
0.657597

>  <SCORE.INTRA.SOLV.lig_0>
-48.9722

>  <SCORE.INTRA.VDW>
-0.0699235

>  <SCORE.INTRA.VDW.0>
-0.529409

>  <SCORE.INTRA.norm>
0.0209468

>  <SCORE.RESTR>
0

>  <SCORE.RESTR.CAVITY>
0

>  <SCORE.RESTR.norm>
0

>  <SCORE.SYSTEM>
0

>  <SCORE.SYSTEM.CONST>
0

>  <SCORE.SYSTEM.DIHEDRAL>
0

>  <SCORE.SYSTEM.SOLV>
0

>  <SCORE.SYSTEM.norm>
0

>  <SCORE.heavy>
16

>  <SCORE.norm>
-0.829765

>  <RMSD>
40.871

$$$$
ligand
 OpenBabel11021811433D
libRbt.so/2013.1/901 2013/11/27
 16 16  0  0  0  0  0  0  0  0999 V2000
    8.7106   -2.0369    0.8063 P   0  0  2  0  0  0  0  0  0  0  0  0
    7.2955   -2.4734    0.7093 O   0  0  0  0  0  0  0  0  0  0  0  0
    9.6698   -3.2246    0.2974 O   0  5  0  0  0  0  0  0  0  0  0  0
    9.0466   -1.7030    2.3455 O   0  0  0  0  0  0  0  0  0  0  0  0
   11.3099    0.3207   -3.4770 C   0  0  2  0  0  0  0  0  0  0  0  0
   12.6500    0.8072   -3.2821 O   0  0  0  0  0  0  0  0  0  0  0  0
   10.3466    1.4842   -3.8256 C   0  0  2  0  0  0  0  0  0  0  0  0
   10.8182    2.1803   -5.0285 O   0  0  0  0  0  0  0  0  0  0  0  0
   10.3183    2.4669   -2.6399 C   0  0  1  0  0  0  0  0  0  0  0  0
    9.4293    3.5519   -2.9310 O   0  0  0  0  0  0  0  0  0  0  0  0
    9.8225    1.7082   -1.3989 C   0  0  2  0  0  0  0  0  0  0  0  0
    9.7976    2.6061   -0.2684 O   0  0  0  0  0  0  0  0  0  0  0  0
   10.7977    0.5314   -1.1194 C   0  0  2  0  0  0  0  0  0  0  0  0
   10.8383   -0.3667   -2.2705 O   0  0  0  0  0  0  0  0  0  0  0  0
   10.2894   -0.2542    0.1031 C   0  0  0  0  0  0  0  0  0  0  0  0
    8.9540   -0.7242   -0.1184 O   0  0  0  0  0  0  0  0  0  0  0  0
  1  2  1  6  0  0  0
  1  3  1  0  0  0  0
  1  4  2  0  0  0  0
  1 16  1  0  0  0  0
  5  6  1  1  0  0  0
  5  7  1  0  0  0  0
  5 14  1  0  0  0  0
  7  8  1  6  0  0  0
  7  9  1  0  0  0  0
  9 10  1  6  0  0  0
  9 11  1  0  0  0  0
 11 12  1  1  0  0  0
 11 13  1  0  0  0  0
 13 14  1  0  0  0  0
 13 15  1  1  0  0  0
 15 16  1  0  0  0  0
M  CHG  1   3  -1
M  END
>  <CHROM.1>
57.36541965,154.69486879,174.31016470,9.89724980,0.11246588,-1.19857831,-2.14064941
0.94101790,-0.34044708

>  <Name>
ligand

>  <RI>
0

>  <Rbt.Current_Directory>
/home/itssahil/PROJECTS/Mol_Feturizer/New_Systems/rnas/2HO7

>  <Rbt.Executable>
rbdock ($Id: //depot/dev/client3/rdock/2013.1/src/exe/rbdock.cxx#4 $)

>  <Rbt.Library>
libRbt.so (2013.1, Build901 2013/11/27)

>  <Rbt.Parameter_File>
/export/apps/rDock/src/rDock_2013.1_src/data/scripts/dock_solv.prm

>  <Rbt.Receptor>
prm/blind_docking_60.prm

>  <SCORE>
-15.3205

>  <SCORE.INTER>
-17.1891

>  <SCORE.INTER.CONST>
1

>  <SCORE.INTER.POLAR>
-1.27279

>  <SCORE.INTER.ROT>
3

>  <SCORE.INTER.SOLV>
17.6859

>  <SCORE.INTER.VDW>
-18.7121

>  <SCORE.INTER.norm>
-1.07432

>  <SCORE.INTRA>
1.86864

>  <SCORE.INTRA.DIHEDRAL>
2.79381

>  <SCORE.INTRA.DIHEDRAL.0>
0.00893466

>  <SCORE.INTRA.POLAR>
0

>  <SCORE.INTRA.POLAR.0>
0

>  <SCORE.INTRA.REPUL>
0

>  <SCORE.INTRA.REPUL.0>
0

>  <SCORE.INTRA.SOLV>
1.2807

>  <SCORE.INTRA.SOLV.lig_0>
-48.9722

>  <SCORE.INTRA.VDW>
-0.168623

>  <SCORE.INTRA.VDW.0>
-0.529409

>  <SCORE.INTRA.norm>
0.11679

>  <SCORE.RESTR>
0

>  <SCORE.RESTR.CAVITY>
0

>  <SCORE.RESTR.norm>
0

>  <SCORE.SYSTEM>
0

>  <SCORE.SYSTEM.CONST>
0

>  <SCORE.SYSTEM.DIHEDRAL>
0

>  <SCORE.SYSTEM.SOLV>
0

>  <SCORE.SYSTEM.norm>
0

>  <SCORE.heavy>
16

>  <SCORE.norm>
-0.957531

>  <RMSD>
40.873

$$$$
ligand
 OpenBabel11021811433D
libRbt.so/2013.1/901 2013/11/27
 16 16  0  0  0  0  0  0  0  0999 V2000
    8.7749   -1.9526    0.8313 P   0  0  2  0  0  0  0  0  0  0  0  0
    9.0135   -1.5621    2.2429 O   0  0  0  0  0  0  0  0  0  0  0  0
    7.2714   -2.5059    0.6791 O   0  5  0  0  0  0  0  0  0  0  0  0
    9.8139   -3.1165    0.4318 O   0  0  0  0  0  0  0  0  0  0  0  0
   11.2997    0.3845   -3.4945 C   0  0  2  0  0  0  0  0  0  0  0  0
   12.6271    0.9069   -3.3055 O   0  0  0  0  0  0  0  0  0  0  0  0
   10.3127    1.5151   -3.8825 C   0  0  2  0  0  0  0  0  0  0  0  0
   10.7766    2.1871   -5.1020 O   0  0  0  0  0  0  0  0  0  0  0  0
   10.2540    2.5305   -2.7258 C   0  0  1  0  0  0  0  0  0  0  0  0
    9.3426    3.5862   -3.0536 O   0  0  0  0  0  0  0  0  0  0  0  0
    9.7671    1.7966   -1.4666 C   0  0  2  0  0  0  0  0  0  0  0  0
    9.7141    2.7257   -0.3626 O   0  0  0  0  0  0  0  0  0  0  0  0
   10.7667    0.6509   -1.1473 C   0  0  2  0  0  0  0  0  0  0  0  0
   10.8355   -0.2787   -2.2717 O   0  0  0  0  0  0  0  0  0  0  0  0
   10.2680   -0.1108    0.0942 C   0  0  0  0  0  0  0  0  0  0  0  0
    8.9696   -0.6682   -0.1434 O   0  0  0  0  0  0  0  0  0  0  0  0
  1  2  1  1  0  0  0
  1  3  1  0  0  0  0
  1  4  2  0  0  0  0
  1 16  1  0  0  0  0
  5  6  1  1  0  0  0
  5  7  1  0  0  0  0
  5 14  1  0  0  0  0
  7  8  1  6  0  0  0
  7  9  1  0  0  0  0
  9 10  1  6  0  0  0
  9 11  1  0  0  0  0
 11 12  1  1  0  0  0
 11 13  1  0  0  0  0
 13 14  1  0  0  0  0
 13 15  1  1  0  0  0
 15 16  1  0  0  0  0
M  CHG  1   3  -1
M  END
>  <CHROM.1>
59.94625478,154.68701377,54.71040597,9.88544721,0.18849556,-1.23044642,-2.09217817
0.91492716,-0.39844270

>  <Name>
ligand

>  <RI>
0

>  <Rbt.Current_Directory>
/home/itssahil/PROJECTS/Mol_Feturizer/New_Systems/rnas/2HO7

>  <Rbt.Executable>
rbdock ($Id: //depot/dev/client3/rdock/2013.1/src/exe/rbdock.cxx#4 $)

>  <Rbt.Library>
libRbt.so (2013.1, Build901 2013/11/27)

>  <Rbt.Parameter_File>
/export/apps/rDock/src/rDock_2013.1_src/data/scripts/dock_solv.prm

>  <Rbt.Receptor>
prm/blind_docking_40.prm

>  <SCORE>
-14.0477

>  <SCORE.INTER>
-15.6708

>  <SCORE.INTER.CONST>
1

>  <SCORE.INTER.POLAR>
-1.27279

>  <SCORE.INTER.ROT>
3

>  <SCORE.INTER.SOLV>
20.702

>  <SCORE.INTER.VDW>
-18.7052

>  <SCORE.INTER.norm>
-0.979424

>  <SCORE.INTRA>
1.62312

>  <SCORE.INTRA.DIHEDRAL>
2.76281

>  <SCORE.INTRA.DIHEDRAL.0>
0.00893466

>  <SCORE.INTRA.POLAR>
0

>  <SCORE.INTRA.POLAR.0>
0

>  <SCORE.INTRA.REPUL>
0

>  <SCORE.INTRA.REPUL.0>
0

>  <SCORE.INTRA.SOLV>
0.58627

>  <SCORE.INTRA.SOLV.lig_0>
-48.9722

>  <SCORE.INTRA.VDW>
-0.0514155

>  <SCORE.INTRA.VDW.0>
-0.529409

>  <SCORE.INTRA.norm>
0.101445

>  <SCORE.RESTR>
0

>  <SCORE.RESTR.CAVITY>
0

>  <SCORE.RESTR.norm>
0

>  <SCORE.SYSTEM>
0

>  <SCORE.SYSTEM.CONST>
0

>  <SCORE.SYSTEM.DIHEDRAL>
0

>  <SCORE.SYSTEM.SOLV>
0

>  <SCORE.SYSTEM.norm>
0

>  <SCORE.heavy>
16

>  <SCORE.norm>
-0.877979

>  <RMSD>
40.874

$$$$
ligand
 OpenBabel11021811433D
libRbt.so/2013.1/901 2013/11/27
 16 16  0  0  0  0  0  0  0  0999 V2000
    9.6685    1.8242   -2.2813 P   0  0  2  0  0  0  0  0  0  0  0  0
    8.7083    2.9113   -1.9674 O   0  0  0  0  0  0  0  0  0  0  0  0
   11.1372    2.2505   -1.7802 O   0  5  0  0  0  0  0  0  0  0  0  0
    9.6941    1.5984   -3.8756 O   0  0  0  0  0  0  0  0  0  0  0  0
    9.3410   -3.6292   -1.0215 C   0  0  2  0  0  0  0  0  0  0  0  0
    8.3531   -3.7028    0.0221 O   0  0  0  0  0  0  0  0  0  0  0  0
   10.6706   -4.2853   -0.5689 C   0  0  2  0  0  0  0  0  0  0  0  0
   10.4338   -5.6823   -0.1860 O   0  0  0  0  0  0  0  0  0  0  0  0
   11.2131   -3.5044    0.6428 C   0  0  1  0  0  0  0  0  0  0  0  0
   12.4475   -4.0851    1.0802 O   0  0  0  0  0  0  0  0  0  0  0  0
   11.4487   -2.0489    0.2098 C   0  0  2  0  0  0  0  0  0  0  0  0
   11.9476   -1.2911    1.3331 O   0  0  0  0  0  0  0  0  0  0  0  0
   10.0968   -1.4539   -0.2721 C   0  0  2  0  0  0  0  0  0  0  0  0
    9.5819   -2.2319   -1.3959 O   0  0  0  0  0  0  0  0  0  0  0  0
   10.3308   -0.0058   -0.7393 C   0  0  0  0  0  0  0  0  0  0  0  0
    9.2268    0.4549   -1.5279 O   0  0  0  0  0  0  0  0  0  0  0  0
  1  2  1  1  0  0  0
  1  3  1  0  0  0  0
  1  4  2  0  0  0  0
  1 16  1  0  0  0  0
  5  6  1  1  0  0  0
  5  7  1  0  0  0  0
  5 14  1  0  0  0  0
  7  8  1  1  0  0  0
  7  9  1  0  0  0  0
  9 10  1  6  0  0  0
  9 11  1  0  0  0  0
 11 12  1  1  0  0  0
 11 13  1  0  0  0  0
 13 14  1  0  0  0  0
 13 15  1  6  0  0  0
 15 16  1  0  0  0  0
M  CHG  1   3  -1
M  END
>  <CHROM.1>
163.79913130,-166.61298983,-124.83355804,10.21614026,-1.15821161,-0.89312426
1.77142800,-0.64357985,-0.27349037

>  <Name>
ligand

>  <RI>
0

>  <Rbt.Current_Directory>
/home/itssahil/PROJECTS/Mol_Feturizer/New_Systems/rnas/2HO7

>  <Rbt.Executable>
rbdock ($Id: //depot/dev/client3/rdock/2013.1/src/exe/rbdock.cxx#4 $)

>  <Rbt.Library>
libRbt.so (2013.1, Build901 2013/11/27)

>  <Rbt.Parameter_File>
/export/apps/rDock/src/rDock_2013.1_src/data/scripts/dock_solv.prm

>  <Rbt.Receptor>
prm/blind_docking_60.prm

>  <SCORE>
-11.7458

>  <SCORE.INTER>
-15.5155

>  <SCORE.INTER.CONST>
1

>  <SCORE.INTER.POLAR>
-2.53113

>  <SCORE.INTER.ROT>
3

>  <SCORE.INTER.SOLV>
19.5049

>  <SCORE.INTER.VDW>
-14.0082

>  <SCORE.INTER.norm>
-0.969722

>  <SCORE.INTRA>
3.76971

>  <SCORE.INTRA.DIHEDRAL>
4.09665

>  <SCORE.INTRA.DIHEDRAL.0>
0.00893466

>  <SCORE.INTRA.POLAR>
0

>  <SCORE.INTRA.POLAR.0>
0

>  <SCORE.INTRA.REPUL>
0

>  <SCORE.INTRA.REPUL.0>
0

>  <SCORE.INTRA.SOLV>
0.65255

>  <SCORE.INTRA.SOLV.lig_0>
-48.9722

>  <SCORE.INTRA.VDW>
1.39511

>  <SCORE.INTRA.VDW.0>
-0.529409

>  <SCORE.INTRA.norm>
0.235607

>  <SCORE.RESTR>
0

>  <SCORE.RESTR.CAVITY>
0

>  <SCORE.RESTR.norm>
0

>  <SCORE.SYSTEM>
0

>  <SCORE.SYSTEM.CONST>
0

>  <SCORE.SYSTEM.DIHEDRAL>
0

>  <SCORE.SYSTEM.SOLV>
0

>  <SCORE.SYSTEM.norm>
0

>  <SCORE.heavy>
16

>  <SCORE.norm>
-0.734115

>  <RMSD>
40.884

$$$$
ligand
 OpenBabel11021811433D
libRbt.so/2013.1/901 2013/11/27
 16 16  0  0  0  0  0  0  0  0999 V2000
    9.6781   -3.3566   -0.4758 P   0  0  2  0  0  0  0  0  0  0  0  0
    8.3146   -3.7163   -0.0135 O   0  0  0  0  0  0  0  0  0  0  0  0
   10.1886   -4.4566   -1.5337 O   0  5  0  0  0  0  0  0  0  0  0  0
   10.6688   -3.3384    0.7937 O   0  0  0  0  0  0  0  0  0  0  0  0
   10.2020    1.1943   -3.9828 C   0  0  2  0  0  0  0  0  0  0  0  0
   11.5303    1.5499   -4.4068 O   0  0  0  0  0  0  0  0  0  0  0  0
    9.6329    2.2553   -3.0063 C   0  0  2  0  0  0  0  0  0  0  0  0
    9.6290    3.5749   -3.6486 O   0  0  0  0  0  0  0  0  0  0  0  0
   10.5275    2.2954   -1.7531 C   0  0  1  0  0  0  0  0  0  0  0  0
   10.0214    3.2646   -0.8274 O   0  0  0  0  0  0  0  0  0  0  0  0
   10.5110    0.9016   -1.1062 C   0  0  2  0  0  0  0  0  0  0  0  0
   11.3530    0.9093    0.0668 O   0  0  0  0  0  0  0  0  0  0  0  0
   11.0504   -0.1265   -2.1388 C   0  0  2  0  0  0  0  0  0  0  0  0
   10.2105   -0.1206   -3.3337 O   0  0  0  0  0  0  0  0  0  0  0  0
   11.0058   -1.5309   -1.5099 C   0  0  0  0  0  0  0  0  0  0  0  0
    9.6580   -1.8994   -1.1925 O   0  0  0  0  0  0  0  0  0  0  0  0
  1  2  1  1  0  0  0
  1  3  1  0  0  0  0
  1  4  2  0  0  0  0
  1 16  1  0  0  0  0
  5  6  1  1  0  0  0
  5  7  1  0  0  0  0
  5 14  1  0  0  0  0
  7  8  1  6  0  0  0
  7  9  1  0  0  0  0
  9 10  1  1  0  0  0
  9 11  1  0  0  0  0
 11 12  1  1  0  0  0
 11 13  1  0  0  0  0
 13 14  1  0  0  0  0
 13 15  1  1  0  0  0
 15 16  1  0  0  0  0
M  CHG  1   3  -1
M  END
>  <CHROM.1>
61.91778219,-177.57395555,174.56839240,10.21398906,-0.42613402,-1.64311487
3.01173752,1.48265294,1.31085951

>  <Name>
ligand

>  <RI>
0

>  <Rbt.Current_Directory>
/home/itssahil/PROJECTS/Mol_Feturizer/New_Systems/rnas/2HO7

>  <Rbt.Executable>
rbdock ($Id: //depot/dev/client3/rdock/2013.1/src/exe/rbdock.cxx#4 $)

>  <Rbt.Library>
libRbt.so (2013.1, Build901 2013/11/27)

>  <Rbt.Parameter_File>
/export/apps/rDock/src/rDock_2013.1_src/data/scripts/dock_solv.prm

>  <Rbt.Receptor>
prm/blind_docking_20.prm

>  <SCORE>
-14.668

>  <SCORE.INTER>
-15.0034

>  <SCORE.INTER.CONST>
1

>  <SCORE.INTER.POLAR>
-1.27279

>  <SCORE.INTER.ROT>
3

>  <SCORE.INTER.SOLV>
16.6513

>  <SCORE.INTER.VDW>
-16.91

>  <SCORE.INTER.norm>
-0.937712

>  <SCORE.INTRA>
0.335354

>  <SCORE.INTRA.DIHEDRAL>
0.0820624

>  <SCORE.INTRA.DIHEDRAL.0>
0.00893466

>  <SCORE.INTRA.POLAR>
0

>  <SCORE.INTRA.POLAR.0>
0

>  <SCORE.INTRA.REPUL>
0

>  <SCORE.INTRA.REPUL.0>
0

>  <SCORE.INTRA.SOLV>
0.956522

>  <SCORE.INTRA.SOLV.lig_0>
-48.9722

>  <SCORE.INTRA.VDW>
-0.183938

>  <SCORE.INTRA.VDW.0>
-0.529409

>  <SCORE.INTRA.norm>
0.0209596

>  <SCORE.RESTR>
0

>  <SCORE.RESTR.CAVITY>
0

>  <SCORE.RESTR.norm>
0

>  <SCORE.SYSTEM>
0

>  <SCORE.SYSTEM.CONST>
0

>  <SCORE.SYSTEM.DIHEDRAL>
0

>  <SCORE.SYSTEM.SOLV>
0

>  <SCORE.SYSTEM.norm>
0

>  <SCORE.heavy>
16

>  <SCORE.norm>
-0.916752

>  <RMSD>
40.896

$$$$
ligand
 OpenBabel11021811433D
libRbt.so/2013.1/901 2013/11/27
 16 16  0  0  0  0  0  0  0  0999 V2000
    8.8278   -2.3153    0.9638 P   0  0  2  0  0  0  0  0  0  0  0  0
    8.8338   -3.6370    0.2890 O   0  0  0  0  0  0  0  0  0  0  0  0
    8.5964   -2.5250    2.5425 O   0  5  0  0  0  0  0  0  0  0  0  0
    7.6244   -1.4304    0.3619 O   0  0  0  0  0  0  0  0  0  0  0  0
   10.1439    0.1370   -3.1176 C   0  0  2  0  0  0  0  0  0  0  0  0
   11.5477   -0.0912   -3.3367 O   0  0  0  0  0  0  0  0  0  0  0  0
    9.8012    1.6419   -3.2623 C   0  0  2  0  0  0  0  0  0  0  0  0
   10.1957    2.1188   -4.5931 O   0  0  0  0  0  0  0  0  0  0  0  0
   10.5747    2.4249   -2.1848 C   0  0  1  0  0  0  0  0  0  0  0  0
   10.2723    3.8213   -2.2898 O   0  0  0  0  0  0  0  0  0  0  0  0
   10.1408    1.9019   -0.8066 C   0  0  2  0  0  0  0  0  0  0  0  0
   10.8613    2.6132    0.2229 O   0  0  0  0  0  0  0  0  0  0  0  0
   10.4680    0.3849   -0.7305 C   0  0  2  0  0  0  0  0  0  0  0  0
    9.7547   -0.3325   -1.7840 O   0  0  0  0  0  0  0  0  0  0  0  0
   10.0055   -0.1542    0.6353 C   0  0  0  0  0  0  0  0  0  0  0  0
   10.2482   -1.5632    0.7303 O   0  0  0  0  0  0  0  0  0  0  0  0
  1  2  1  6  0  0  0
  1  3  1  0  0  0  0
  1  4  2  0  0  0  0
  1 16  1  0  0  0  0
  5  6  1  1  0  0  0
  5  7  1  0  0  0  0
  5 14  1  0  0  0  0
  7  8  1  6  0  0  0
  7  9  1  0  0  0  0
  9 10  1  1  0  0  0
  9 11  1  0  0  0  0
 11 12  1  1  0  0  0
 11 13  1  0  0  0  0
 13 14  1  0  0  0  0
 13 15  1  1  0  0  0
 15 16  1  0  0  0  0
M  CHG  1   3  -1
M  END
>  <CHROM.1>
178.05519929,-119.77634549,145.88583520,9.78517641,-0.02279440,-0.85976862
2.92675267,1.30008799,1.07620026

>  <Name>
ligand

>  <RI>
0

>  <Rbt.Current_Directory>
/home/itssahil/PROJECTS/Mol_Feturizer/New_Systems/rnas/2HO7

>  <Rbt.Executable>
rbdock ($Id: //depot/dev/client3/rdock/2013.1/src/exe/rbdock.cxx#4 $)

>  <Rbt.Library>
libRbt.so (2013.1, Build901 2013/11/27)

>  <Rbt.Parameter_File>
/export/apps/rDock/src/rDock_2013.1_src/data/scripts/dock_solv.prm

>  <Rbt.Receptor>
prm/blind_docking_20.prm

>  <SCORE>
-14.2553

>  <SCORE.INTER>
-19.777

>  <SCORE.INTER.CONST>
1

>  <SCORE.INTER.POLAR>
-2.77132

>  <SCORE.INTER.ROT>
3

>  <SCORE.INTER.SOLV>
22.711

>  <SCORE.INTER.VDW>
-17.1173

>  <SCORE.INTER.norm>
-1.23606

>  <SCORE.INTRA>
5.5203

>  <SCORE.INTRA.DIHEDRAL>
8.66302

>  <SCORE.INTRA.DIHEDRAL.0>
0.00893466

>  <SCORE.INTRA.POLAR>
0

>  <SCORE.INTRA.POLAR.0>
0

>  <SCORE.INTRA.REPUL>
0

>  <SCORE.INTRA.REPUL.0>
0

>  <SCORE.INTRA.SOLV>
2.21528

>  <SCORE.INTRA.SOLV.lig_0>
-48.9722

>  <SCORE.INTRA.VDW>
0.0811499

>  <SCORE.INTRA.VDW.0>
-0.529409

>  <SCORE.INTRA.norm>
0.345019

>  <SCORE.RESTR>
0.00139354

>  <SCORE.RESTR.CAVITY>
0.00139354

>  <SCORE.RESTR.norm>
8.70963e-05

>  <SCORE.SYSTEM>
0

>  <SCORE.SYSTEM.CONST>
0

>  <SCORE.SYSTEM.DIHEDRAL>
0

>  <SCORE.SYSTEM.SOLV>
0

>  <SCORE.SYSTEM.norm>
0

>  <SCORE.heavy>
16

>  <SCORE.norm>
-0.890958

>  <RMSD>
40.897

$$$$
ligand
 OpenBabel11021811433D
libRbt.so/2013.1/901 2013/11/27
 16 16  0  0  0  0  0  0  0  0999 V2000
    8.7005   -2.0222    0.8401 P   0  0  2  0  0  0  0  0  0  0  0  0
    8.9421   -1.6889    2.2658 O   0  0  0  0  0  0  0  0  0  0  0  0
    7.1934   -2.5594    0.6673 O   0  5  0  0  0  0  0  0  0  0  0  0
    9.7318   -3.1762    0.3946 O   0  0  0  0  0  0  0  0  0  0  0  0
   11.2655    0.3064   -3.4260 C   0  0  2  0  0  0  0  0  0  0  0  0
   12.6038    0.7982   -3.2321 O   0  0  0  0  0  0  0  0  0  0  0  0
   10.3053    1.4602   -3.8134 C   0  0  2  0  0  0  0  0  0  0  0  0
   10.7875    2.1248   -5.0299 O   0  0  0  0  0  0  0  0  0  0  0  0
   10.2665    2.4735   -2.6540 C   0  0  1  0  0  0  0  0  0  0  0  0
    9.3800    3.5503   -2.9813 O   0  0  0  0  0  0  0  0  0  0  0  0
    9.7598    1.7473   -1.3981 C   0  0  2  0  0  0  0  0  0  0  0  0
    9.7248    2.6744   -0.2917 O   0  0  0  0  0  0  0  0  0  0  0  0
   10.7325    0.5785   -1.0794 C   0  0  2  0  0  0  0  0  0  0  0  0
   10.7832   -0.3494   -2.2063 O   0  0  0  0  0  0  0  0  0  0  0  0
   10.2134   -0.1751    0.1586 C   0  0  0  0  0  0  0  0  0  0  0  0
    8.9031   -0.7019   -0.0836 O   0  0  0  0  0  0  0  0  0  0  0  0
  1  2  1  1  0  0  0
  1  3  1  0  0  0  0
  1  4  2  0  0  0  0
  1 16  1  0  0  0  0
  5  6  1  1  0  0  0
  5  7  1  0  0  0  0
  5 14  1  0  0  0  0
  7  8  1  6  0  0  0
  7  9  1  0  0  0  0
  9 10  1  6  0  0  0
  9 11  1  0  0  0  0
 11 12  1  1  0  0  0
 11 13  1  0  0  0  0
 13 14  1  0  0  0  0
 13 15  1  1  0  0  0
 15 16  1  0  0  0  0
M  CHG  1   3  -1
M  END
>  <CHROM.1>
59.91847355,152.27702983,55.64092639,9.84991989,0.12255684,-1.18367269,-2.12500496
0.92623757,-0.35660978

>  <Name>
ligand

>  <RI>
0

>  <Rbt.Current_Directory>
/home/itssahil/PROJECTS/Mol_Feturizer/New_Systems/rnas/2HO7

>  <Rbt.Executable>
rbdock ($Id: //depot/dev/client3/rdock/2013.1/src/exe/rbdock.cxx#4 $)

>  <Rbt.Library>
libRbt.so (2013.1, Build901 2013/11/27)

>  <Rbt.Parameter_File>
/export/apps/rDock/src/rDock_2013.1_src/data/scripts/dock_solv.prm

>  <Rbt.Receptor>
prm/blind_docking_40.prm

>  <SCORE>
-13.8366

>  <SCORE.INTER>
-15.6924

>  <SCORE.INTER.CONST>
1

>  <SCORE.INTER.POLAR>
-1.27176

>  <SCORE.INTER.ROT>
3

>  <SCORE.INTER.SOLV>
21.09

>  <SCORE.INTER.VDW>
-18.8524

>  <SCORE.INTER.norm>
-0.980773

>  <SCORE.INTRA>
1.85576

>  <SCORE.INTRA.DIHEDRAL>
3.19457

>  <SCORE.INTRA.DIHEDRAL.0>
0.00893466

>  <SCORE.INTRA.POLAR>
0

>  <SCORE.INTRA.POLAR.0>
0

>  <SCORE.INTRA.REPUL>
0

>  <SCORE.INTRA.REPUL.0>
0

>  <SCORE.INTRA.SOLV>
0.661876

>  <SCORE.INTRA.SOLV.lig_0>
-48.9722

>  <SCORE.INTRA.VDW>
-0.0724602

>  <SCORE.INTRA.VDW.0>
-0.529409

>  <SCORE.INTRA.norm>
0.115985

>  <SCORE.RESTR>
0

>  <SCORE.RESTR.CAVITY>
0

>  <SCORE.RESTR.norm>
0

>  <SCORE.SYSTEM>
0

>  <SCORE.SYSTEM.CONST>
0

>  <SCORE.SYSTEM.DIHEDRAL>
0

>  <SCORE.SYSTEM.SOLV>
0

>  <SCORE.SYSTEM.norm>
0

>  <SCORE.heavy>
16

>  <SCORE.norm>
-0.864788

>  <RMSD>
40.907

$$$$
ligand
 OpenBabel11021811433D
libRbt.so/2013.1/901 2013/11/27
 16 16  0  0  0  0  0  0  0  0999 V2000
    8.5246   -2.2501    0.7192 P   0  0  2  0  0  0  0  0  0  0  0  0
    8.9501   -2.1684    2.1386 O   0  0  0  0  0  0  0  0  0  0  0  0
    6.9300   -2.4570    0.6529 O   0  5  0  0  0  0  0  0  0  0  0  0
    9.2544   -3.5094    0.0300 O   0  0  0  0  0  0  0  0  0  0  0  0
   10.6777    0.5098   -3.6085 C   0  0  2  0  0  0  0  0  0  0  0  0
   12.1112    0.5620   -3.7229 O   0  0  0  0  0  0  0  0  0  0  0  0
   10.0881    1.9308   -3.4183 C   0  0  2  0  0  0  0  0  0  0  0  0
   10.4809    2.7896   -4.5418 O   0  0  0  0  0  0  0  0  0  0  0  0
   10.6397    2.5168   -2.1050 C   0  0  1  0  0  0  0  0  0  0  0  0
   10.1059    3.8302   -1.8986 O   0  0  0  0  0  0  0  0  0  0  0  0
   10.2130    1.5958   -0.9514 C   0  0  2  0  0  0  0  0  0  0  0  0
   10.7283    2.1178    0.2924 O   0  0  0  0  0  0  0  0  0  0  0  0
   10.7940    0.1786   -1.2124 C   0  0  2  0  0  0  0  0  0  0  0  0
   10.2885   -0.3419   -2.4800 O   0  0  0  0  0  0  0  0  0  0  0  0
   10.3430   -0.7590   -0.0777 C   0  0  0  0  0  0  0  0  0  0  0  0
    8.9154   -0.8799   -0.0601 O   0  0  0  0  0  0  0  0  0  0  0  0
  1  2  1  1  0  0  0
  1  3  1  0  0  0  0
  1  4  2  0  0  0  0
  1 16  1  0  0  0  0
  5  6  1  1  0  0  0
  5  7  1  0  0  0  0
  5 14  1  0  0  0  0
  7  8  1  6  0  0  0
  7  9  1  0  0  0  0
  9 10  1  1  0  0  0
  9 11  1  0  0  0  0
 11 12  1  1  0  0  0
 11 13  1  0  0  0  0
 13 14  1  0  0  0  0
 13 15  1  1  0  0  0
 15 16  1  0  0  0  0
M  CHG  1   3  -1
M  END
>  <CHROM.1>
62.34668255,158.58910420,64.21800716,9.82193609,0.02514466,-1.09919449,-2.76322855
1.19171653,0.46309487

>  <Name>
ligand

>  <RI>
0

>  <Rbt.Current_Directory>
/home/itssahil/PROJECTS/Mol_Feturizer/New_Systems/rnas/2HO7

>  <Rbt.Executable>
rbdock ($Id: //depot/dev/client3/rdock/2013.1/src/exe/rbdock.cxx#4 $)

>  <Rbt.Library>
libRbt.so (2013.1, Build901 2013/11/27)

>  <Rbt.Parameter_File>
/export/apps/rDock/src/rDock_2013.1_src/data/scripts/dock_solv.prm

>  <Rbt.Receptor>
prm/blind_docking_40.prm

>  <SCORE>
-13.9067

>  <SCORE.INTER>
-15.1151

>  <SCORE.INTER.CONST>
1

>  <SCORE.INTER.POLAR>
-1.27279

>  <SCORE.INTER.ROT>
3

>  <SCORE.INTER.SOLV>
22.991

>  <SCORE.INTER.VDW>
-19.0978

>  <SCORE.INTER.norm>
-0.944693

>  <SCORE.INTRA>
1.20843

>  <SCORE.INTRA.DIHEDRAL>
2.07471

>  <SCORE.INTRA.DIHEDRAL.0>
0.00893466

>  <SCORE.INTRA.POLAR>
0

>  <SCORE.INTRA.POLAR.0>
0

>  <SCORE.INTRA.REPUL>
0

>  <SCORE.INTRA.REPUL.0>
0

>  <SCORE.INTRA.SOLV>
0.561793

>  <SCORE.INTRA.SOLV.lig_0>
-48.9722

>  <SCORE.INTRA.VDW>
-0.109821

>  <SCORE.INTRA.VDW.0>
-0.529409

>  <SCORE.INTRA.norm>
0.075527

>  <SCORE.RESTR>
0

>  <SCORE.RESTR.CAVITY>
0

>  <SCORE.RESTR.norm>
0

>  <SCORE.SYSTEM>
0

>  <SCORE.SYSTEM.CONST>
0

>  <SCORE.SYSTEM.DIHEDRAL>
0

>  <SCORE.SYSTEM.SOLV>
0

>  <SCORE.SYSTEM.norm>
0

>  <SCORE.heavy>
16

>  <SCORE.norm>
-0.869166

>  <RMSD>
40.925

$$$$
ligand
 OpenBabel11021811433D
libRbt.so/2013.1/901 2013/11/27
 16 16  0  0  0  0  0  0  0  0999 V2000
    9.6594   -3.3898   -0.5264 P   0  0  2  0  0  0  0  0  0  0  0  0
    8.5123   -3.4927    0.4094 O   0  0  0  0  0  0  0  0  0  0  0  0
    9.1289   -2.9081   -1.9674 O   0  5  0  0  0  0  0  0  0  0  0  0
   10.3453   -4.8399   -0.6686 O   0  0  0  0  0  0  0  0  0  0  0  0
   10.1597    0.3616   -3.3379 C   0  0  2  0  0  0  0  0  0  0  0  0
   11.5686    0.2713   -3.6166 O   0  0  0  0  0  0  0  0  0  0  0  0
    9.7524    1.8245   -3.0264 C   0  0  2  0  0  0  0  0  0  0  0  0
   10.1076    2.6935   -4.1546 O   0  0  0  0  0  0  0  0  0  0  0  0
   10.5077    2.2839   -1.7651 C   0  0  1  0  0  0  0  0  0  0  0  0
   10.1457    3.6333   -1.4481 O   0  0  0  0  0  0  0  0  0  0  0  0
   10.1156    1.3551   -0.6054 C   0  0  2  0  0  0  0  0  0  0  0  0
   10.8204    1.7581    0.5887 O   0  0  0  0  0  0  0  0  0  0  0  0
   10.5070   -0.0995   -0.9860 C   0  0  2  0  0  0  0  0  0  0  0  0
    9.8094   -0.5009   -2.2048 O   0  0  0  0  0  0  0  0  0  0  0  0
   10.0870   -1.0413    0.1571 C   0  0  0  0  0  0  0  0  0  0  0  0
   10.7385   -2.3111    0.0302 O   0  0  0  0  0  0  0  0  0  0  0  0
  1  2  1  1  0  0  0
  1  3  1  0  0  0  0
  1  4  2  0  0  0  0
  1 16  1  0  0  0  0
  5  6  1  1  0  0  0
  5  7  1  0  0  0  0
  5 14  1  0  0  0  0
  7  8  1  6  0  0  0
  7  9  1  0  0  0  0
  9 10  1  1  0  0  0
  9 11  1  0  0  0  0
 11 12  1  1  0  0  0
 11 13  1  0  0  0  0
 13 14  1  0  0  0  0
 13 15  1  1  0  0  0
 15 16  1  0  0  0  0
M  CHG  1   3  -1
M  END
>  <CHROM.1>
-164.18474558,-104.44863317,-59.30444846,10.09078994,-0.53604175,-1.37414924
2.95109207,1.46000090,1.43929417

>  <Name>
ligand

>  <RI>
0

>  <Rbt.Current_Directory>
/home/itssahil/PROJECTS/Mol_Feturizer/New_Systems/rnas/2HO7

>  <Rbt.Executable>
rbdock ($Id: //depot/dev/client3/rdock/2013.1/src/exe/rbdock.cxx#4 $)

>  <Rbt.Library>
libRbt.so (2013.1, Build901 2013/11/27)

>  <Rbt.Parameter_File>
/export/apps/rDock/src/rDock_2013.1_src/data/scripts/dock_solv.prm

>  <Rbt.Receptor>
prm/blind_docking_80.prm

>  <SCORE>
-14.9861

>  <SCORE.INTER>
-19.6902

>  <SCORE.INTER.CONST>
1

>  <SCORE.INTER.POLAR>
-2.72683

>  <SCORE.INTER.ROT>
3

>  <SCORE.INTER.SOLV>
19.4926

>  <SCORE.INTER.VDW>
-16.1349

>  <SCORE.INTER.norm>
-1.23064

>  <SCORE.INTRA>
4.70417

>  <SCORE.INTRA.DIHEDRAL>
6.9164

>  <SCORE.INTRA.DIHEDRAL.0>
0.00893466

>  <SCORE.INTRA.POLAR>
0

>  <SCORE.INTRA.POLAR.0>
0

>  <SCORE.INTRA.REPUL>
0

>  <SCORE.INTRA.REPUL.0>
0

>  <SCORE.INTRA.SOLV>
2.65514

>  <SCORE.INTRA.SOLV.lig_0>
-48.9722

>  <SCORE.INTRA.VDW>
-0.0816036

>  <SCORE.INTRA.VDW.0>
-0.529409

>  <SCORE.INTRA.norm>
0.29401

>  <SCORE.RESTR>
0

>  <SCORE.RESTR.CAVITY>
0

>  <SCORE.RESTR.norm>
0

>  <SCORE.SYSTEM>
0

>  <SCORE.SYSTEM.CONST>
0

>  <SCORE.SYSTEM.DIHEDRAL>
0

>  <SCORE.SYSTEM.SOLV>
0

>  <SCORE.SYSTEM.norm>
0

>  <SCORE.heavy>
16

>  <SCORE.norm>
-0.93663

>  <RMSD>
40.934

$$$$
ligand
 OpenBabel11021811433D
libRbt.so/2013.1/901 2013/11/27
 16 16  0  0  0  0  0  0  0  0999 V2000
   10.0940   -4.1180   -0.6892 P   0  0  2  0  0  0  0  0  0  0  0  0
    8.7114   -4.1339   -0.1503 O   0  0  0  0  0  0  0  0  0  0  0  0
   10.3311   -5.4337   -1.5848 O   0  5  0  0  0  0  0  0  0  0  0  0
   11.1314   -4.1179    0.5426 O   0  0  0  0  0  0  0  0  0  0  0  0
    9.8726    0.9220   -3.5380 C   0  0  2  0  0  0  0  0  0  0  0  0
   11.2185    0.8959   -4.0466 O   0  0  0  0  0  0  0  0  0  0  0  0
    9.6343    2.1874   -2.6748 C   0  0  2  0  0  0  0  0  0  0  0  0
    9.9050    3.3921   -3.4682 O   0  0  0  0  0  0  0  0  0  0  0  0
   10.5886    2.1414   -1.4667 C   0  0  1  0  0  0  0  0  0  0  0  0
   10.3863    3.2976   -0.6452 O   0  0  0  0  0  0  0  0  0  0  0  0
   10.2808    0.8707   -0.6593 C   0  0  2  0  0  0  0  0  0  0  0  0
   11.1714    0.7978    0.4748 O   0  0  0  0  0  0  0  0  0  0  0  0
   10.4946   -0.3617   -1.5810 C   0  0  2  0  0  0  0  0  0  0  0  0
    9.6079   -0.2786   -2.7386 O   0  0  0  0  0  0  0  0  0  0  0  0
   10.1559   -1.6378   -0.7892 C   0  0  0  0  0  0  0  0  0  0  0  0
   10.3182   -2.8000   -1.6113 O   0  0  0  0  0  0  0  0  0  0  0  0
  1  2  1  1  0  0  0
  1  3  1  0  0  0  0
  1  4  2  0  0  0  0
  1 16  1  0  0  0  0
  5  6  1  1  0  0  0
  5  7  1  0  0  0  0
  5 14  1  0  0  0  0
  7  8  1  6  0  0  0
  7  9  1  0  0  0  0
  9 10  1  1  0  0  0
  9 11  1  0  0  0  0
 11 12  1  1  0  0  0
 11 13  1  0  0  0  0
 13 14  1  0  0  0  0
 13 15  1  1  0  0  0
 15 16  1  0  0  0  0
M  CHG  1   3  -1
M  END
>  <CHROM.1>
179.01241627,174.40239385,62.30339786,10.23980546,-0.82499014,-1.46875399
1.73218708,1.42360654,2.73007615

>  <Name>
ligand

>  <RI>
0

>  <Rbt.Current_Directory>
/home/itssahil/PROJECTS/Mol_Feturizer/New_Systems/rnas/2HO7

>  <Rbt.Executable>
rbdock ($Id: //depot/dev/client3/rdock/2013.1/src/exe/rbdock.cxx#4 $)

>  <Rbt.Library>
libRbt.so (2013.1, Build901 2013/11/27)

>  <Rbt.Parameter_File>
/export/apps/rDock/src/rDock_2013.1_src/data/scripts/dock_solv.prm

>  <Rbt.Receptor>
prm/blind_docking_100.prm

>  <SCORE>
-14.4923

>  <SCORE.INTER>
-14.5812

>  <SCORE.INTER.CONST>
1

>  <SCORE.INTER.POLAR>
-1.27279

>  <SCORE.INTER.ROT>
3

>  <SCORE.INTER.SOLV>
20.6042

>  <SCORE.INTER.VDW>
-17.9462

>  <SCORE.INTER.norm>
-0.911325

>  <SCORE.INTRA>
0.0888634

>  <SCORE.INTRA.DIHEDRAL>
0.156854

>  <SCORE.INTRA.DIHEDRAL.0>
0.00893466

>  <SCORE.INTRA.POLAR>
0

>  <SCORE.INTRA.POLAR.0>
0

>  <SCORE.INTRA.REPUL>
0

>  <SCORE.INTRA.REPUL.0>
0

>  <SCORE.INTRA.SOLV>
0.0211377

>  <SCORE.INTRA.SOLV.lig_0>
-48.9722

>  <SCORE.INTRA.VDW>
-0.000132599

>  <SCORE.INTRA.VDW.0>
-0.529409

>  <SCORE.INTRA.norm>
0.00555396

>  <SCORE.RESTR>
0

>  <SCORE.RESTR.CAVITY>
0

>  <SCORE.RESTR.norm>
0

>  <SCORE.SYSTEM>
0

>  <SCORE.SYSTEM.CONST>
0

>  <SCORE.SYSTEM.DIHEDRAL>
0

>  <SCORE.SYSTEM.SOLV>
0

>  <SCORE.SYSTEM.norm>
0

>  <SCORE.heavy>
16

>  <SCORE.norm>
-0.905772

>  <RMSD>
40.949

$$$$
ligand
 OpenBabel11021811433D
libRbt.so/2013.1/901 2013/11/27
 16 16  0  0  0  0  0  0  0  0999 V2000
   10.2921    1.1172   -1.7069 P   0  0  2  0  0  0  0  0  0  0  0  0
   11.5020    1.5875   -2.4261 O   0  0  0  0  0  0  0  0  0  0  0  0
    9.3385    2.3745   -1.3912 O   0  5  0  0  0  0  0  0  0  0  0  0
   10.7451    0.4312   -0.3220 O   0  0  0  0  0  0  0  0  0  0  0  0
    9.5173   -3.7176   -0.7150 C   0  0  2  0  0  0  0  0  0  0  0  0
    9.9985   -3.1552    0.5191 O   0  0  0  0  0  0  0  0  0  0  0  0
   10.4858   -4.8094   -1.2375 C   0  0  2  0  0  0  0  0  0  0  0  0
   10.6480   -5.8598   -0.2253 O   0  0  0  0  0  0  0  0  0  0  0  0
   11.8505   -4.1553   -1.5239 C   0  0  1  0  0  0  0  0  0  0  0  0
   12.7666   -5.1410   -2.0155 O   0  0  0  0  0  0  0  0  0  0  0  0
   11.6462   -3.0619   -2.5841 C   0  0  2  0  0  0  0  0  0  0  0  0
   12.9113   -2.4241   -2.8626 O   0  0  0  0  0  0  0  0  0  0  0  0
   10.6382   -2.0188   -2.0273 C   0  0  2  0  0  0  0  0  0  0  0  0
    9.3645   -2.6672   -1.7268 O   0  0  0  0  0  0  0  0  0  0  0  0
   10.4023   -0.9371   -3.0970 C   0  0  0  0  0  0  0  0  0  0  0  0
    9.4788    0.0499   -2.6218 O   0  0  0  0  0  0  0  0  0  0  0  0
  1  2  1  6  0  0  0
  1  3  1  0  0  0  0
  1  4  2  0  0  0  0
  1 16  1  0  0  0  0
  5  6  1  1  0  0  0
  5  7  1  0  0  0  0
  5 14  1  0  0  0  0
  7  8  1  1  0  0  0
  7  9  1  0  0  0  0
  9 10  1  6  0  0  0
  9 11  1  0  0  0  0
 11 12  1  1  0  0  0
 11 13  1  0  0  0  0
 13 14  1  0  0  0  0
 13 15  1  6  0  0  0
 15 16  1  0  0  0  0
M  CHG  1   3  -1
M  END
>  <CHROM.1>
-179.84077364,82.35516026,49.65124166,10.69507079,-1.75785844,-1.61655209
1.77704347,0.68867814,-0.23536092

>  <Name>
ligand

>  <RI>
0

>  <Rbt.Current_Directory>
/home/itssahil/PROJECTS/Mol_Feturizer/New_Systems/rnas/2HO7

>  <Rbt.Executable>
rbdock ($Id: //depot/dev/client3/rdock/2013.1/src/exe/rbdock.cxx#4 $)

>  <Rbt.Library>
libRbt.so (2013.1, Build901 2013/11/27)

>  <Rbt.Parameter_File>
/export/apps/rDock/src/rDock_2013.1_src/data/scripts/dock_solv.prm

>  <Rbt.Receptor>
prm/blind_docking_100.prm

>  <SCORE>
-15.9494

>  <SCORE.INTER>
-18.0608

>  <SCORE.INTER.CONST>
1

>  <SCORE.INTER.POLAR>
-2.54558

>  <SCORE.INTER.ROT>
3

>  <SCORE.INTER.SOLV>
15.4861

>  <SCORE.INTER.VDW>
-14.3173

>  <SCORE.INTER.norm>
-1.1288

>  <SCORE.INTRA>
2.11137

>  <SCORE.INTRA.DIHEDRAL>
2.36126

>  <SCORE.INTRA.DIHEDRAL.0>
0.00893466

>  <SCORE.INTRA.POLAR>
0

>  <SCORE.INTRA.POLAR.0>
0

>  <SCORE.INTRA.REPUL>
0

>  <SCORE.INTRA.REPUL.0>
0

>  <SCORE.INTRA.SOLV>
2.341

>  <SCORE.INTRA.SOLV.lig_0>
-48.9722

>  <SCORE.INTRA.VDW>
-0.239756

>  <SCORE.INTRA.VDW.0>
-0.529409

>  <SCORE.INTRA.norm>
0.131961

>  <SCORE.RESTR>
0

>  <SCORE.RESTR.CAVITY>
0

>  <SCORE.RESTR.norm>
0

>  <SCORE.SYSTEM>
0

>  <SCORE.SYSTEM.CONST>
0

>  <SCORE.SYSTEM.DIHEDRAL>
0

>  <SCORE.SYSTEM.SOLV>
0

>  <SCORE.SYSTEM.norm>
0

>  <SCORE.heavy>
16

>  <SCORE.norm>
-0.996837

>  <RMSD>
40.955

$$$$
ligand
 OpenBabel11021811433D
libRbt.so/2013.1/901 2013/11/27
 16 16  0  0  0  0  0  0  0  0999 V2000
   10.1228   -4.1522   -0.6866 P   0  0  2  0  0  0  0  0  0  0  0  0
   11.0515   -4.2143    0.4692 O   0  0  0  0  0  0  0  0  0  0  0  0
    8.6070   -4.1001   -0.1489 O   0  5  0  0  0  0  0  0  0  0  0  0
   10.3240   -5.4729   -1.5860 O   0  0  0  0  0  0  0  0  0  0  0  0
    9.8931    0.9134   -3.4858 C   0  0  2  0  0  0  0  0  0  0  0  0
   11.2527    0.9229   -3.9569 O   0  0  0  0  0  0  0  0  0  0  0  0
    9.6026    2.1633   -2.6161 C   0  0  2  0  0  0  0  0  0  0  0  0
    9.8679    3.3826   -3.3887 O   0  0  0  0  0  0  0  0  0  0  0  0
   10.5240    2.1248   -1.3824 C   0  0  1  0  0  0  0  0  0  0  0  0
   10.2731    3.2669   -0.5546 O   0  0  0  0  0  0  0  0  0  0  0  0
   10.2226    0.8385   -0.5976 C   0  0  2  0  0  0  0  0  0  0  0  0
   11.0830    0.7725    0.5601 O   0  0  0  0  0  0  0  0  0  0  0  0
   10.4896   -0.3783   -1.5261 C   0  0  2  0  0  0  0  0  0  0  0  0
    9.6335   -0.3018   -2.7070 O   0  0  0  0  0  0  0  0  0  0  0  0
   10.1579   -1.6705   -0.7578 C   0  0  0  0  0  0  0  0  0  0  0  0
   10.4193   -2.8218   -1.5697 O   0  0  0  0  0  0  0  0  0  0  0  0
  1  2  1  1  0  0  0
  1  3  1  0  0  0  0
  1  4  2  0  0  0  0
  1 16  1  0  0  0  0
  5  6  1  1  0  0  0
  5  7  1  0  0  0  0
  5 14  1  0  0  0  0
  7  8  1  6  0  0  0
  7  9  1  0  0  0  0
  9 10  1  1  0  0  0
  9 11  1  0  0  0  0
 11 12  1  1  0  0  0
 11 13  1  0  0  0  0
 13 14  1  0  0  0  0
 13 15  1  1  0  0  0
 15 16  1  0  0  0  0
M  CHG  1   3  -1
M  END
>  <CHROM.1>
-178.70051632,177.23865876,-63.15224838,10.21936128,-0.84764579,-1.42899949
1.75411009,1.46832960,2.72106048

>  <Name>
ligand

>  <RI>
0

>  <Rbt.Current_Directory>
/home/itssahil/PROJECTS/Mol_Feturizer/New_Systems/rnas/2HO7

>  <Rbt.Executable>
rbdock ($Id: //depot/dev/client3/rdock/2013.1/src/exe/rbdock.cxx#4 $)

>  <Rbt.Library>
libRbt.so (2013.1, Build901 2013/11/27)

>  <Rbt.Parameter_File>
/export/apps/rDock/src/rDock_2013.1_src/data/scripts/dock_solv.prm

>  <Rbt.Receptor>
prm/blind_docking_20.prm

>  <SCORE>
-13.1785

>  <SCORE.INTER>
-13.2418

>  <SCORE.INTER.CONST>
1

>  <SCORE.INTER.POLAR>
-1.26272

>  <SCORE.INTER.ROT>
3

>  <SCORE.INTER.SOLV>
23.621

>  <SCORE.INTER.VDW>
-18.0925

>  <SCORE.INTER.norm>
-0.827616

>  <SCORE.INTRA>
0.0633487

>  <SCORE.INTRA.DIHEDRAL>
0.0513808

>  <SCORE.INTRA.DIHEDRAL.0>
0.00893466

>  <SCORE.INTRA.POLAR>
0

>  <SCORE.INTRA.POLAR.0>
0

>  <SCORE.INTRA.REPUL>
0

>  <SCORE.INTRA.REPUL.0>
0

>  <SCORE.INTRA.SOLV>
0.0160206

>  <SCORE.INTRA.SOLV.lig_0>
-48.9722

>  <SCORE.INTRA.VDW>
0.029648

>  <SCORE.INTRA.VDW.0>
-0.529409

>  <SCORE.INTRA.norm>
0.00395929

>  <SCORE.RESTR>
0

>  <SCORE.RESTR.CAVITY>
0

>  <SCORE.RESTR.norm>
0

>  <SCORE.SYSTEM>
0

>  <SCORE.SYSTEM.CONST>
0

>  <SCORE.SYSTEM.DIHEDRAL>
0

>  <SCORE.SYSTEM.SOLV>
0

>  <SCORE.SYSTEM.norm>
0

>  <SCORE.heavy>
16

>  <SCORE.norm>
-0.823656

>  <RMSD>
40.955

$$$$
ligand
 OpenBabel11021811433D
libRbt.so/2013.1/901 2013/11/27
 16 16  0  0  0  0  0  0  0  0999 V2000
    9.6713   -3.5026   -0.4897 P   0  0  2  0  0  0  0  0  0  0  0  0
   10.6101   -3.3900    0.6541 O   0  0  0  0  0  0  0  0  0  0  0  0
    8.1991   -3.8460    0.0622 O   0  5  0  0  0  0  0  0  0  0  0  0
   10.1693   -4.6917   -1.4549 O   0  0  0  0  0  0  0  0  0  0  0  0
   10.1975    1.1634   -3.9880 C   0  0  2  0  0  0  0  0  0  0  0  0
   11.5326    1.5134   -4.3950 O   0  0  0  0  0  0  0  0  0  0  0  0
    9.6758    2.1449   -2.9074 C   0  0  2  0  0  0  0  0  0  0  0  0
    9.7103    3.5191   -3.4216 O   0  0  0  0  0  0  0  0  0  0  0  0
   10.5848    2.0357   -1.6687 C   0  0  1  0  0  0  0  0  0  0  0  0
   10.1223    2.9287   -0.6482 O   0  0  0  0  0  0  0  0  0  0  0  0
   10.5274    0.5880   -1.1567 C   0  0  2  0  0  0  0  0  0  0  0  0
   11.3817    0.4560   -0.0002 O   0  0  0  0  0  0  0  0  0  0  0  0
   11.0199   -0.3544   -2.2896 C   0  0  2  0  0  0  0  0  0  0  0  0
   10.1678   -0.2069   -3.4666 O   0  0  0  0  0  0  0  0  0  0  0  0
   10.9338   -1.8101   -1.7961 C   0  0  0  0  0  0  0  0  0  0  0  0
    9.6183   -2.1008   -1.3081 O   0  0  0  0  0  0  0  0  0  0  0  0
  1  2  1  1  0  0  0
  1  3  1  0  0  0  0
  1  4  2  0  0  0  0
  1 16  1  0  0  0  0
  5  6  1  1  0  0  0
  5  7  1  0  0  0  0
  5 14  1  0  0  0  0
  7  8  1  6  0  0  0
  7  9  1  0  0  0  0
  9 10  1  1  0  0  0
  9 11  1  0  0  0  0
 11 12  1  1  0  0  0
 11 13  1  0  0  0  0
 13 14  1  0  0  0  0
 13 15  1  1  0  0  0
 15 16  1  0  0  0  0
M  CHG  1   3  -1
M  END
>  <CHROM.1>
53.27862028,-166.80964723,60.21506494,10.20940486,-0.60746596,-1.65440888
2.88027848,-1.46450207,-2.21763085

>  <Name>
ligand

>  <RI>
0

>  <Rbt.Current_Directory>
/home/itssahil/PROJECTS/Mol_Feturizer/New_Systems/rnas/2HO7

>  <Rbt.Executable>
rbdock ($Id: //depot/dev/client3/rdock/2013.1/src/exe/rbdock.cxx#4 $)

>  <Rbt.Library>
libRbt.so (2013.1, Build901 2013/11/27)

>  <Rbt.Parameter_File>
/export/apps/rDock/src/rDock_2013.1_src/data/scripts/dock_solv.prm

>  <Rbt.Receptor>
prm/blind_docking_20.prm

>  <SCORE>
-12.4528

>  <SCORE.INTER>
-13.0217

>  <SCORE.INTER.CONST>
1

>  <SCORE.INTER.POLAR>
-1.27279

>  <SCORE.INTER.ROT>
3

>  <SCORE.INTER.SOLV>
20.9964

>  <SCORE.INTER.VDW>
-17.0373

>  <SCORE.INTER.norm>
-0.813855

>  <SCORE.INTRA>
0.568887

>  <SCORE.INTRA.DIHEDRAL>
0.978607

>  <SCORE.INTRA.DIHEDRAL.0>
0.00893466

>  <SCORE.INTRA.POLAR>
0

>  <SCORE.INTRA.POLAR.0>
0

>  <SCORE.INTRA.REPUL>
0

>  <SCORE.INTRA.REPUL.0>
0

>  <SCORE.INTRA.SOLV>
0.33124

>  <SCORE.INTRA.SOLV.lig_0>
-48.9722

>  <SCORE.INTRA.VDW>
-0.086036

>  <SCORE.INTRA.VDW.0>
-0.529409

>  <SCORE.INTRA.norm>
0.0355555

>  <SCORE.RESTR>
0

>  <SCORE.RESTR.CAVITY>
0

>  <SCORE.RESTR.norm>
0

>  <SCORE.SYSTEM>
0

>  <SCORE.SYSTEM.CONST>
0

>  <SCORE.SYSTEM.DIHEDRAL>
0

>  <SCORE.SYSTEM.SOLV>
0

>  <SCORE.SYSTEM.norm>
0

>  <SCORE.heavy>
16

>  <SCORE.norm>
-0.778299

>  <RMSD>
40.958

$$$$
ligand
 OpenBabel11021811433D
libRbt.so/2013.1/901 2013/11/27
 16 16  0  0  0  0  0  0  0  0999 V2000
   10.1156   -4.2052   -0.7644 P   0  0  2  0  0  0  0  0  0  0  0  0
    8.7328   -4.2047   -0.2259 O   0  0  0  0  0  0  0  0  0  0  0  0
   10.3427   -5.5320   -1.6462 O   0  5  0  0  0  0  0  0  0  0  0  0
   11.1526   -4.2004    0.4678 O   0  0  0  0  0  0  0  0  0  0  0  0
    9.8689    0.8069   -3.6492 C   0  0  2  0  0  0  0  0  0  0  0  0
   11.1982    0.7670   -4.1990 O   0  0  0  0  0  0  0  0  0  0  0  0
    9.6654    2.0822   -2.7919 C   0  0  2  0  0  0  0  0  0  0  0  0
    9.9188    3.2773   -3.6054 O   0  0  0  0  0  0  0  0  0  0  0  0
   10.6564    2.0420   -1.6135 C   0  0  1  0  0  0  0  0  0  0  0  0
   10.4869    3.2075   -0.7978 O   0  0  0  0  0  0  0  0  0  0  0  0
   10.3659    0.7814   -0.7842 C   0  0  2  0  0  0  0  0  0  0  0  0
   11.2907    0.7138    0.3225 O   0  0  0  0  0  0  0  0  0  0  0  0
   10.5434   -0.4615   -1.6996 C   0  0  2  0  0  0  0  0  0  0  0  0
    9.6217   -0.3840   -2.8300 O   0  0  0  0  0  0  0  0  0  0  0  0
   10.2214   -1.7274   -0.8849 C   0  0  0  0  0  0  0  0  0  0  0  0
   10.3504   -2.8987   -1.7001 O   0  0  0  0  0  0  0  0  0  0  0  0
  1  2  1  1  0  0  0
  1  3  1  0  0  0  0
  1  4  2  0  0  0  0
  1 16  1  0  0  0  0
  5  6  1  1  0  0  0
  5  7  1  0  0  0  0
  5 14  1  0  0  0  0
  7  8  1  6  0  0  0
  7  9  1  0  0  0  0
  9 10  1  1  0  0  0
  9 11  1  0  0  0  0
 11 12  1  1  0  0  0
 11 13  1  0  0  0  0
 13 14  1  0  0  0  0
 13 15  1  1  0  0  0
 15 16  1  0  0  0  0
M  CHG  1   3  -1
M  END
>  <CHROM.1>
178.99034410,175.58392625,63.35801466,10.27755360,-0.92164691,-1.57702025
1.72164493,1.39167974,2.73163200

>  <Name>
ligand

>  <RI>
0

>  <Rbt.Current_Directory>
/home/itssahil/PROJECTS/Mol_Feturizer/New_Systems/rnas/2HO7

>  <Rbt.Executable>
rbdock ($Id: //depot/dev/client3/rdock/2013.1/src/exe/rbdock.cxx#4 $)

>  <Rbt.Library>
libRbt.so (2013.1, Build901 2013/11/27)

>  <Rbt.Parameter_File>
/export/apps/rDock/src/rDock_2013.1_src/data/scripts/dock_solv.prm

>  <Rbt.Receptor>
prm/blind_docking_80.prm

>  <SCORE>
-14.3257

>  <SCORE.INTER>
-14.3938

>  <SCORE.INTER.CONST>
1

>  <SCORE.INTER.POLAR>
-1.25582

>  <SCORE.INTER.ROT>
3

>  <SCORE.INTER.SOLV>
20.7036

>  <SCORE.INTER.VDW>
-17.911

>  <SCORE.INTER.norm>
-0.899614

>  <SCORE.INTRA>
0.0681653

>  <SCORE.INTRA.DIHEDRAL>
0.108993

>  <SCORE.INTRA.DIHEDRAL.0>
0.00893466

>  <SCORE.INTRA.POLAR>
0

>  <SCORE.INTRA.POLAR.0>
0

>  <SCORE.INTRA.REPUL>
0

>  <SCORE.INTRA.REPUL.0>
0

>  <SCORE.INTRA.SOLV>
0.0301344

>  <SCORE.INTRA.SOLV.lig_0>
-48.9722

>  <SCORE.INTRA.VDW>
-0.00139856

>  <SCORE.INTRA.VDW.0>
-0.529409

>  <SCORE.INTRA.norm>
0.00426033

>  <SCORE.RESTR>
0

>  <SCORE.RESTR.CAVITY>
0

>  <SCORE.RESTR.norm>
0

>  <SCORE.SYSTEM>
0

>  <SCORE.SYSTEM.CONST>
0

>  <SCORE.SYSTEM.DIHEDRAL>
0

>  <SCORE.SYSTEM.SOLV>
0

>  <SCORE.SYSTEM.norm>
0

>  <SCORE.heavy>
16

>  <SCORE.norm>
-0.895354

>  <RMSD>
40.984

$$$$
ligand
 OpenBabel11021811433D
libRbt.so/2013.1/901 2013/11/27
 16 16  0  0  0  0  0  0  0  0999 V2000
    9.4557   -3.1129    0.2395 P   0  0  2  0  0  0  0  0  0  0  0  0
   10.7014   -2.9933    1.0371 O   0  0  0  0  0  0  0  0  0  0  0  0
    8.1920   -2.7567    1.1701 O   0  5  0  0  0  0  0  0  0  0  0  0
    9.3196   -4.6288   -0.2866 O   0  0  0  0  0  0  0  0  0  0  0  0
    9.9030    0.6631   -4.0084 C   0  0  2  0  0  0  0  0  0  0  0  0
   11.2537    0.3635   -4.4042 O   0  0  0  0  0  0  0  0  0  0  0  0
    9.7545    2.1634   -3.6478 C   0  0  2  0  0  0  0  0  0  0  0  0
   10.1486    2.9940   -4.7919 O   0  0  0  0  0  0  0  0  0  0  0  0
   10.6710    2.4706   -2.4486 C   0  0  1  0  0  0  0  0  0  0  0  0
   10.5499    3.8517   -2.0876 O   0  0  0  0  0  0  0  0  0  0  0  0
   10.2338    1.5859   -1.2707 C   0  0  2  0  0  0  0  0  0  0  0  0
   11.0863    1.8469   -0.1350 O   0  0  0  0  0  0  0  0  0  0  0  0
   10.3623    0.0979   -1.6988 C   0  0  2  0  0  0  0  0  0  0  0  0
    9.5151   -0.1620   -2.8598 O   0  0  0  0  0  0  0  0  0  0  0  0
    9.8943   -0.7950   -0.5353 C   0  0  0  0  0  0  0  0  0  0  0  0
    9.4968   -2.0847   -1.0169 O   0  0  0  0  0  0  0  0  0  0  0  0
  1  2  1  1  0  0  0
  1  3  1  0  0  0  0
  1  4  2  0  0  0  0
  1 16  1  0  0  0  0
  5  6  1  1  0  0  0
  5  7  1  0  0  0  0
  5 14  1  0  0  0  0
  7  8  1  6  0  0  0
  7  9  1  0  0  0  0
  9 10  1  1  0  0  0
  9 11  1  0  0  0  0
 11 12  1  1  0  0  0
 11 13  1  0  0  0  0
 13 14  1  0  0  0  0
 13 15  1  1  0  0  0
 15 16  1  0  0  0  0
M  CHG  1   3  -1
M  END
>  <CHROM.1>
157.43551476,162.79960583,-48.10333607,9.99177279,-0.29043036,-1.51242552
2.41182591,1.37350809,1.73475417

>  <Name>
ligand

>  <RI>
0

>  <Rbt.Current_Directory>
/home/itssahil/PROJECTS/Mol_Feturizer/New_Systems/rnas/2HO7

>  <Rbt.Executable>
rbdock ($Id: //depot/dev/client3/rdock/2013.1/src/exe/rbdock.cxx#4 $)

>  <Rbt.Library>
libRbt.so (2013.1, Build901 2013/11/27)

>  <Rbt.Parameter_File>
/export/apps/rDock/src/rDock_2013.1_src/data/scripts/dock_solv.prm

>  <Rbt.Receptor>
prm/blind_docking_80.prm

>  <SCORE>
-13.922

>  <SCORE.INTER>
-15.7836

>  <SCORE.INTER.CONST>
1

>  <SCORE.INTER.POLAR>
-2.51939

>  <SCORE.INTER.ROT>
3

>  <SCORE.INTER.SOLV>
24.3907

>  <SCORE.INTER.VDW>
-15.8547

>  <SCORE.INTER.norm>
-0.986477

>  <SCORE.INTRA>
1.86161

>  <SCORE.INTRA.DIHEDRAL>
3.21881

>  <SCORE.INTRA.DIHEDRAL.0>
0.00893466

>  <SCORE.INTRA.POLAR>
0

>  <SCORE.INTRA.POLAR.0>
0

>  <SCORE.INTRA.REPUL>
0

>  <SCORE.INTRA.REPUL.0>
0

>  <SCORE.INTRA.SOLV>
-0.114409

>  <SCORE.INTRA.SOLV.lig_0>
-48.9722

>  <SCORE.INTRA.VDW>
0.309411

>  <SCORE.INTRA.VDW.0>
-0.529409

>  <SCORE.INTRA.norm>
0.116351

>  <SCORE.RESTR>
0

>  <SCORE.RESTR.CAVITY>
0

>  <SCORE.RESTR.norm>
0

>  <SCORE.SYSTEM>
0

>  <SCORE.SYSTEM.CONST>
0

>  <SCORE.SYSTEM.DIHEDRAL>
0

>  <SCORE.SYSTEM.SOLV>
0

>  <SCORE.SYSTEM.norm>
0

>  <SCORE.heavy>
16

>  <SCORE.norm>
-0.870126

>  <RMSD>
41.039

$$$$
ligand
 OpenBabel11021811433D
libRbt.so/2013.1/901 2013/11/27
 16 16  0  0  0  0  0  0  0  0999 V2000
    9.3224   -3.0762    0.2650 P   0  0  2  0  0  0  0  0  0  0  0  0
    8.7857   -4.3837   -0.1874 O   0  0  0  0  0  0  0  0  0  0  0  0
   10.7694   -3.2976    0.9334 O   0  5  0  0  0  0  0  0  0  0  0  0
    8.3190   -2.4540    1.3603 O   0  0  0  0  0  0  0  0  0  0  0  0
    9.9040    0.6494   -3.9920 C   0  0  2  0  0  0  0  0  0  0  0  0
   11.2516    0.3556   -4.4022 O   0  0  0  0  0  0  0  0  0  0  0  0
    9.7521    2.1497   -3.6327 C   0  0  2  0  0  0  0  0  0  0  0  0
   10.1296    2.9800   -4.7826 O   0  0  0  0  0  0  0  0  0  0  0  0
   10.6803    2.4637   -2.4443 C   0  0  1  0  0  0  0  0  0  0  0  0
   10.5565    3.8450   -2.0846 O   0  0  0  0  0  0  0  0  0  0  0  0
   10.2604    1.5792   -1.2600 C   0  0  2  0  0  0  0  0  0  0  0  0
   11.1242    1.8465   -0.1342 O   0  0  0  0  0  0  0  0  0  0  0  0
   10.3915    0.0910   -1.6866 C   0  0  2  0  0  0  0  0  0  0  0  0
    9.5328   -0.1753   -2.8377 O   0  0  0  0  0  0  0  0  0  0  0  0
    9.9406   -0.8019   -0.5163 C   0  0  0  0  0  0  0  0  0  0  0  0
    9.4696   -2.0663   -0.9984 O   0  0  0  0  0  0  0  0  0  0  0  0
  1  2  1  6  0  0  0
  1  3  1  0  0  0  0
  1  4  2  0  0  0  0
  1 16  1  0  0  0  0
  5  6  1  1  0  0  0
  5  7  1  0  0  0  0
  5 14  1  0  0  0  0
  7  8  1  6  0  0  0
  7  9  1  0  0  0  0
  9 10  1  1  0  0  0
  9 11  1  0  0  0  0
 11 12  1  1  0  0  0
 11 13  1  0  0  0  0
 13 14  1  0  0  0  0
 13 15  1  1  0  0  0
 15 16  1  0  0  0  0
M  CHG  1   3  -1
M  END
>  <CHROM.1>
154.01617440,167.58246334,177.82600918,9.96088834,-0.27496300,-1.49005420
2.39320108,1.34654660,1.74348097

>  <Name>
ligand

>  <RI>
0

>  <Rbt.Current_Directory>
/home/itssahil/PROJECTS/Mol_Feturizer/New_Systems/rnas/2HO7

>  <Rbt.Executable>
rbdock ($Id: //depot/dev/client3/rdock/2013.1/src/exe/rbdock.cxx#4 $)

>  <Rbt.Library>
libRbt.so (2013.1, Build901 2013/11/27)

>  <Rbt.Parameter_File>
/export/apps/rDock/src/rDock_2013.1_src/data/scripts/dock_solv.prm

>  <Rbt.Receptor>
prm/blind_docking_20.prm

>  <SCORE>
-15.7546

>  <SCORE.INTER>
-17.6005

>  <SCORE.INTER.CONST>
1

>  <SCORE.INTER.POLAR>
-2.51498

>  <SCORE.INTER.ROT>
3

>  <SCORE.INTER.SOLV>
20.3769

>  <SCORE.INTER.VDW>
-15.7427

>  <SCORE.INTER.norm>
-1.10003

>  <SCORE.INTRA>
1.84594

>  <SCORE.INTRA.DIHEDRAL>
2.82401

>  <SCORE.INTRA.DIHEDRAL.0>
0.00893466

>  <SCORE.INTRA.POLAR>
0

>  <SCORE.INTRA.POLAR.0>
0

>  <SCORE.INTRA.REPUL>
0

>  <SCORE.INTRA.REPUL.0>
0

>  <SCORE.INTRA.SOLV>
0.740044

>  <SCORE.INTRA.SOLV.lig_0>
-48.9722

>  <SCORE.INTRA.VDW>
0.0639161

>  <SCORE.INTRA.VDW.0>
-0.529409

>  <SCORE.INTRA.norm>
0.115371

>  <SCORE.RESTR>
0

>  <SCORE.RESTR.CAVITY>
0

>  <SCORE.RESTR.norm>
0

>  <SCORE.SYSTEM>
0

>  <SCORE.SYSTEM.CONST>
0

>  <SCORE.SYSTEM.DIHEDRAL>
0

>  <SCORE.SYSTEM.SOLV>
0

>  <SCORE.SYSTEM.norm>
0

>  <SCORE.heavy>
16

>  <SCORE.norm>
-0.984661

>  <RMSD>
41.056

$$$$
ligand
 OpenBabel11021811433D
libRbt.so/2013.1/901 2013/11/27
 16 16  0  0  0  0  0  0  0  0999 V2000
    9.9702    1.8334   -1.2460 P   0  0  2  0  0  0  0  0  0  0  0  0
    9.3752    3.0060   -0.5581 O   0  0  0  0  0  0  0  0  0  0  0  0
   10.7837    2.3331   -2.5415 O   0  5  0  0  0  0  0  0  0  0  0  0
    8.7848    0.8465   -1.7091 O   0  0  0  0  0  0  0  0  0  0  0  0
    8.3479   -2.1138    0.3774 C   0  0  2  0  0  0  0  0  0  0  0  0
    8.7016   -2.2784    1.7625 O   0  0  0  0  0  0  0  0  0  0  0  0
    8.5619   -3.4339   -0.4065 C   0  0  2  0  0  0  0  0  0  0  0  0
    7.7688   -4.5097    0.1998 O   0  0  0  0  0  0  0  0  0  0  0  0
   10.0567   -3.8003   -0.3474 C   0  0  1  0  0  0  0  0  0  0  0  0
   10.2867   -5.0155   -1.0705 O   0  0  0  0  0  0  0  0  0  0  0  0
   10.8576   -2.6557   -0.9875 C   0  0  2  0  0  0  0  0  0  0  0  0
   12.2659   -2.9699   -0.9343 O   0  0  0  0  0  0  0  0  0  0  0  0
   10.5752   -1.3520   -0.1909 C   0  0  2  0  0  0  0  0  0  0  0  0
    9.1479   -1.0442   -0.2279 O   0  0  0  0  0  0  0  0  0  0  0  0
   11.3481   -0.1931   -0.8464 C   0  0  0  0  0  0  0  0  0  0  0  0
   10.9879    1.0572   -0.2464 O   0  0  0  0  0  0  0  0  0  0  0  0
  1  2  1  1  0  0  0
  1  3  1  0  0  0  0
  1  4  2  0  0  0  0
  1 16  1  0  0  0  0
  5  6  1  1  0  0  0
  5  7  1  0  0  0  0
  5 14  1  0  0  0  0
  7  8  1  1  0  0  0
  7  9  1  0  0  0  0
  9 10  1  6  0  0  0
  9 11  1  0  0  0  0
 11 12  1  1  0  0  0
 11 13  1  0  0  0  0
 13 14  1  0  0  0  0
 13 15  1  6  0  0  0
 15 16  1  0  0  0  0
M  CHG  1   3  -1
M  END
>  <CHROM.1>
172.85527909,-102.73609730,169.40704389,9.86929389,-1.01141415,-0.61362068
1.45139358,0.43980808,-0.13606776

>  <Name>
ligand

>  <RI>
0

>  <Rbt.Current_Directory>
/home/itssahil/PROJECTS/Mol_Feturizer/New_Systems/rnas/2HO7

>  <Rbt.Executable>
rbdock ($Id: //depot/dev/client3/rdock/2013.1/src/exe/rbdock.cxx#4 $)

>  <Rbt.Library>
libRbt.so (2013.1, Build901 2013/11/27)

>  <Rbt.Parameter_File>
/export/apps/rDock/src/rDock_2013.1_src/data/scripts/dock_solv.prm

>  <Rbt.Receptor>
prm/blind_docking_80.prm

>  <SCORE>
-13.6597

>  <SCORE.INTER>
-18.9806

>  <SCORE.INTER.CONST>
1

>  <SCORE.INTER.POLAR>
-2.85521

>  <SCORE.INTER.ROT>
3

>  <SCORE.INTER.SOLV>
19.0745

>  <SCORE.INTER.VDW>
-15.0946

>  <SCORE.INTER.norm>
-1.18629

>  <SCORE.INTRA>
5.32084

>  <SCORE.INTRA.DIHEDRAL>
6.18187

>  <SCORE.INTRA.DIHEDRAL.0>
0.00893466

>  <SCORE.INTRA.POLAR>
0

>  <SCORE.INTRA.POLAR.0>
0

>  <SCORE.INTRA.REPUL>
0

>  <SCORE.INTRA.REPUL.0>
0

>  <SCORE.INTRA.SOLV>
3.89073

>  <SCORE.INTRA.SOLV.lig_0>
-48.9722

>  <SCORE.INTRA.VDW>
0.284543

>  <SCORE.INTRA.VDW.0>
-0.529409

>  <SCORE.INTRA.norm>
0.332553

>  <SCORE.RESTR>
0

>  <SCORE.RESTR.CAVITY>
0

>  <SCORE.RESTR.norm>
0

>  <SCORE.SYSTEM>
0

>  <SCORE.SYSTEM.CONST>
0

>  <SCORE.SYSTEM.DIHEDRAL>
0

>  <SCORE.SYSTEM.SOLV>
0

>  <SCORE.SYSTEM.norm>
0

>  <SCORE.heavy>
16

>  <SCORE.norm>
-0.853734

>  <RMSD>
41.059

$$$$
ligand
 OpenBabel11021811433D
libRbt.so/2013.1/901 2013/11/27
 16 16  0  0  0  0  0  0  0  0999 V2000
    9.4595   -3.0880    0.0817 P   0  0  2  0  0  0  0  0  0  0  0  0
    9.6138   -2.7873    1.5267 O   0  0  0  0  0  0  0  0  0  0  0  0
    7.9250   -2.8627   -0.3476 O   0  5  0  0  0  0  0  0  0  0  0  0
    9.8643   -4.6255   -0.1747 O   0  0  0  0  0  0  0  0  0  0  0  0
    9.9006    0.6731   -4.0410 C   0  0  2  0  0  0  0  0  0  0  0  0
   11.2613    0.4424   -4.4482 O   0  0  0  0  0  0  0  0  0  0  0  0
    9.6757    2.1667   -3.6921 C   0  0  2  0  0  0  0  0  0  0  0  0
   10.0135    3.0064   -4.8475 O   0  0  0  0  0  0  0  0  0  0  0  0
   10.5863    2.5336   -2.5053 C   0  0  1  0  0  0  0  0  0  0  0  0
   10.3951    3.9096   -2.1552 O   0  0  0  0  0  0  0  0  0  0  0  0
   10.2087    1.6379   -1.3152 C   0  0  2  0  0  0  0  0  0  0  0  0
   11.0574    1.9546   -0.1907 O   0  0  0  0  0  0  0  0  0  0  0  0
   10.4124    0.1549   -1.7314 C   0  0  2  0  0  0  0  0  0  0  0  0
    9.5688   -0.1607   -2.8812 O   0  0  0  0  0  0  0  0  0  0  0  0
   10.0043   -0.7508   -0.5553 C   0  0  0  0  0  0  0  0  0  0  0  0
   10.4070   -2.1045   -0.7971 O   0  0  0  0  0  0  0  0  0  0  0  0
  1  2  1  1  0  0  0
  1  3  1  0  0  0  0
  1  4  2  0  0  0  0
  1 16  1  0  0  0  0
  5  6  1  1  0  0  0
  5  7  1  0  0  0  0
  5 14  1  0  0  0  0
  7  8  1  6  0  0  0
  7  9  1  0  0  0  0
  9 10  1  1  0  0  0
  9 11  1  0  0  0  0
 11 12  1  1  0  0  0
 11 13  1  0  0  0  0
 13 14  1  0  0  0  0
 13 15  1  1  0  0  0
 15 16  1  0  0  0  0
M  CHG  1   3  -1
M  END
>  <CHROM.1>
-169.19739749,-156.28851674,-60.73961901,9.98118579,-0.25395065,-1.60279020
2.37508384,1.38505227,1.79247957

>  <Name>
ligand

>  <RI>
0

>  <Rbt.Current_Directory>
/home/itssahil/PROJECTS/Mol_Feturizer/New_Systems/rnas/2HO7

>  <Rbt.Executable>
rbdock ($Id: //depot/dev/client3/rdock/2013.1/src/exe/rbdock.cxx#4 $)

>  <Rbt.Library>
libRbt.so (2013.1, Build901 2013/11/27)

>  <Rbt.Parameter_File>
/export/apps/rDock/src/rDock_2013.1_src/data/scripts/dock_solv.prm

>  <Rbt.Receptor>
prm/blind_docking_20.prm

>  <SCORE>
-14.0103

>  <SCORE.INTER>
-15.5874

>  <SCORE.INTER.CONST>
1

>  <SCORE.INTER.POLAR>
-2.49448

>  <SCORE.INTER.ROT>
3

>  <SCORE.INTER.SOLV>
22.9874

>  <SCORE.INTER.VDW>
-15.3391

>  <SCORE.INTER.norm>
-0.974214

>  <SCORE.INTRA>
1.57664

>  <SCORE.INTRA.DIHEDRAL>
2.83844

>  <SCORE.INTRA.DIHEDRAL.0>
0.00893466

>  <SCORE.INTRA.POLAR>
0

>  <SCORE.INTRA.POLAR.0>
0

>  <SCORE.INTRA.REPUL>
0

>  <SCORE.INTRA.REPUL.0>
0

>  <SCORE.INTRA.SOLV>
0.431155

>  <SCORE.INTRA.SOLV.lig_0>
-48.9722

>  <SCORE.INTRA.VDW>
-0.058161

>  <SCORE.INTRA.VDW.0>
-0.529409

>  <SCORE.INTRA.norm>
0.0985398

>  <SCORE.RESTR>
0.000472892

>  <SCORE.RESTR.CAVITY>
0.000472892

>  <SCORE.RESTR.norm>
2.95558e-05

>  <SCORE.SYSTEM>
0

>  <SCORE.SYSTEM.CONST>
0

>  <SCORE.SYSTEM.DIHEDRAL>
0

>  <SCORE.SYSTEM.SOLV>
0

>  <SCORE.SYSTEM.norm>
0

>  <SCORE.heavy>
16

>  <SCORE.norm>
-0.875645

>  <RMSD>
41.066

$$$$
ligand
 OpenBabel11021811433D
libRbt.so/2013.1/901 2013/11/27
 16 16  0  0  0  0  0  0  0  0999 V2000
    8.3876   -2.2003    0.6714 P   0  0  2  0  0  0  0  0  0  0  0  0
    7.1021   -2.9132    0.4677 O   0  0  0  0  0  0  0  0  0  0  0  0
    9.5269   -2.8890   -0.2327 O   0  5  0  0  0  0  0  0  0  0  0  0
    8.8013   -2.3092    2.2240 O   0  0  0  0  0  0  0  0  0  0  0  0
   10.4813   -0.1450   -3.0609 C   0  0  2  0  0  0  0  0  0  0  0  0
   11.9049   -0.2937   -2.9125 O   0  0  0  0  0  0  0  0  0  0  0  0
   10.1205    1.2990   -3.4942 C   0  0  2  0  0  0  0  0  0  0  0  0
   10.8032    1.6293   -4.7507 O   0  0  0  0  0  0  0  0  0  0  0  0
   10.5781    2.2694   -2.3891 C   0  0  1  0  0  0  0  0  0  0  0  0
   10.2513    3.6142   -2.7594 O   0  0  0  0  0  0  0  0  0  0  0  0
    9.8475    1.8967   -1.0896 C   0  0  2  0  0  0  0  0  0  0  0  0
   10.2684    2.7861   -0.0329 O   0  0  0  0  0  0  0  0  0  0  0  0
   10.2104    0.4308   -0.7243 C   0  0  2  0  0  0  0  0  0  0  0  0
    9.8025   -0.4672   -1.8015 O   0  0  0  0  0  0  0  0  0  0  0  0
    9.4558    0.0383    0.5590 C   0  0  0  0  0  0  0  0  0  0  0  0
    8.2361   -0.6422    0.2393 O   0  0  0  0  0  0  0  0  0  0  0  0
  1  2  1  6  0  0  0
  1  3  1  0  0  0  0
  1  4  2  0  0  0  0
  1 16  1  0  0  0  0
  5  6  1  1  0  0  0
  5  7  1  0  0  0  0
  5 14  1  0  0  0  0
  7  8  1  6  0  0  0
  7  9  1  0  0  0  0
  9 10  1  6  0  0  0
  9 11  1  0  0  0  0
 11 12  1  1  0  0  0
 11 13  1  0  0  0  0
 13 14  1  0  0  0  0
 13 15  1  1  0  0  0
 15 16  1  0  0  0  0
M  CHG  1   3  -1
M  END
>  <CHROM.1>
95.39429963,110.37434501,174.98428270,9.62883792,-0.06495201,-1.04038841
-2.70287884,1.15555053,0.36277806

>  <Name>
ligand

>  <RI>
0

>  <Rbt.Current_Directory>
/home/itssahil/PROJECTS/Mol_Feturizer/New_Systems/rnas/2HO7

>  <Rbt.Executable>
rbdock ($Id: //depot/dev/client3/rdock/2013.1/src/exe/rbdock.cxx#4 $)

>  <Rbt.Library>
libRbt.so (2013.1, Build901 2013/11/27)

>  <Rbt.Parameter_File>
/export/apps/rDock/src/rDock_2013.1_src/data/scripts/dock_solv.prm

>  <Rbt.Receptor>
prm/blind_docking_40.prm

>  <SCORE>
-18.6681

>  <SCORE.INTER>
-24.8203

>  <SCORE.INTER.CONST>
1

>  <SCORE.INTER.POLAR>
-2.54558

>  <SCORE.INTER.ROT>
3

>  <SCORE.INTER.SOLV>
19.7397

>  <SCORE.INTER.VDW>
-20.2415

>  <SCORE.INTER.norm>
-1.55127

>  <SCORE.INTRA>
6.1284

>  <SCORE.INTRA.DIHEDRAL>
10.1593

>  <SCORE.INTRA.DIHEDRAL.0>
0.00893466

>  <SCORE.INTRA.POLAR>
0

>  <SCORE.INTRA.POLAR.0>
0

>  <SCORE.INTRA.REPUL>
0

>  <SCORE.INTRA.REPUL.0>
0

>  <SCORE.INTRA.SOLV>
2.93249

>  <SCORE.INTRA.SOLV.lig_0>
-48.9722

>  <SCORE.INTRA.VDW>
-0.417487

>  <SCORE.INTRA.VDW.0>
-0.529409

>  <SCORE.INTRA.norm>
0.383025

>  <SCORE.RESTR>
0.0237642

>  <SCORE.RESTR.CAVITY>
0.0237642

>  <SCORE.RESTR.norm>
0.00148527

>  <SCORE.SYSTEM>
0

>  <SCORE.SYSTEM.CONST>
0

>  <SCORE.SYSTEM.DIHEDRAL>
0

>  <SCORE.SYSTEM.SOLV>
0

>  <SCORE.SYSTEM.norm>
0

>  <SCORE.heavy>
16

>  <SCORE.norm>
-1.16676

>  <RMSD>
41.098

$$$$
ligand
 OpenBabel11021811433D
libRbt.so/2013.1/901 2013/11/27
 16 16  0  0  0  0  0  0  0  0999 V2000
    8.4636   -2.3024    0.7505 P   0  0  2  0  0  0  0  0  0  0  0  0
    8.6274   -2.3273    2.2252 O   0  0  0  0  0  0  0  0  0  0  0  0
    7.1221   -3.0965    0.3507 O   0  5  0  0  0  0  0  0  0  0  0  0
    9.7331   -3.0270    0.0747 O   0  0  0  0  0  0  0  0  0  0  0  0
   10.3823    0.0299   -3.1504 C   0  0  2  0  0  0  0  0  0  0  0  0
   11.8144   -0.1009   -3.0996 O   0  0  0  0  0  0  0  0  0  0  0  0
    9.9730    1.4959   -3.4443 C   0  0  2  0  0  0  0  0  0  0  0  0
   10.5725    1.9384   -4.7088 O   0  0  0  0  0  0  0  0  0  0  0  0
   10.4821    2.3852   -2.2944 C   0  0  1  0  0  0  0  0  0  0  0  0
   10.1123    3.7481   -2.5356 O   0  0  0  0  0  0  0  0  0  0  0  0
    9.8382    1.8961   -0.9877 C   0  0  2  0  0  0  0  0  0  0  0  0
   10.3089    2.7076    0.1099 O   0  0  0  0  0  0  0  0  0  0  0  0
   10.2456    0.4136   -0.7632 C   0  0  2  0  0  0  0  0  0  0  0  0
    9.7868   -0.4046   -1.8827 O   0  0  0  0  0  0  0  0  0  0  0  0
    9.5771   -0.0944    0.5272 C   0  0  0  0  0  0  0  0  0  0  0  0
    8.3490   -0.7690    0.2277 O   0  0  0  0  0  0  0  0  0  0  0  0
  1  2  1  1  0  0  0
  1  3  1  0  0  0  0
  1  4  2  0  0  0  0
  1 16  1  0  0  0  0
  5  6  1  1  0  0  0
  5  7  1  0  0  0  0
  5 14  1  0  0  0  0
  7  8  1  6  0  0  0
  7  9  1  0  0  0  0
  9 10  1  6  0  0  0
  9 11  1  0  0  0  0
 11 12  1  1  0  0  0
 11 13  1  0  0  0  0
 13 14  1  0  0  0  0
 13 15  1  1  0  0  0
 15 16  1  0  0  0  0
M  CHG  1   3  -1
M  END
>  <CHROM.1>
95.23223720,119.64856199,63.08219525,9.61155238,-0.05096198,-1.00629391,-2.74323657
1.20284924,0.44369245

>  <Name>
ligand

>  <RI>
0

>  <Rbt.Current_Directory>
/home/itssahil/PROJECTS/Mol_Feturizer/New_Systems/rnas/2HO7

>  <Rbt.Executable>
rbdock ($Id: //depot/dev/client3/rdock/2013.1/src/exe/rbdock.cxx#4 $)

>  <Rbt.Library>
libRbt.so (2013.1, Build901 2013/11/27)

>  <Rbt.Parameter_File>
/export/apps/rDock/src/rDock_2013.1_src/data/scripts/dock_solv.prm

>  <Rbt.Receptor>
prm/blind_docking_20.prm

>  <SCORE>
-16.8251

>  <SCORE.INTER>
-22.7128

>  <SCORE.INTER.CONST>
1

>  <SCORE.INTER.POLAR>
-2.54539

>  <SCORE.INTER.ROT>
3

>  <SCORE.INTER.SOLV>
23.4266

>  <SCORE.INTER.VDW>
-20.0661

>  <SCORE.INTER.norm>
-1.41955

>  <SCORE.INTRA>
5.88012

>  <SCORE.INTRA.DIHEDRAL>
10.5585

>  <SCORE.INTRA.DIHEDRAL.0>
0.00893466

>  <SCORE.INTRA.POLAR>
0

>  <SCORE.INTRA.POLAR.0>
0

>  <SCORE.INTRA.REPUL>
0

>  <SCORE.INTRA.REPUL.0>
0

>  <SCORE.INTRA.SOLV>
1.63673

>  <SCORE.INTRA.SOLV.lig_0>
-48.9722

>  <SCORE.INTRA.VDW>
-0.217481

>  <SCORE.INTRA.VDW.0>
-0.529409

>  <SCORE.INTRA.norm>
0.367507

>  <SCORE.RESTR>
0.00755616

>  <SCORE.RESTR.CAVITY>
0.00755616

>  <SCORE.RESTR.norm>
0.00047226

>  <SCORE.SYSTEM>
0

>  <SCORE.SYSTEM.CONST>
0

>  <SCORE.SYSTEM.DIHEDRAL>
0

>  <SCORE.SYSTEM.SOLV>
0

>  <SCORE.SYSTEM.norm>
0

>  <SCORE.heavy>
16

>  <SCORE.norm>
-1.05157

>  <RMSD>
41.101

$$$$
ligand
 OpenBabel11021811433D
libRbt.so/2013.1/901 2013/11/27
 16 16  0  0  0  0  0  0  0  0999 V2000
    8.1303   -2.4164    0.4949 P   0  0  2  0  0  0  0  0  0  0  0  0
    7.7342   -3.8356    0.3177 O   0  0  0  0  0  0  0  0  0  0  0  0
    8.7173   -2.2092    1.9788 O   0  5  0  0  0  0  0  0  0  0  0  0
    6.8297   -1.4864    0.3017 O   0  0  0  0  0  0  0  0  0  0  0  0
   10.4576    2.6868   -0.8543 C   0  0  2  0  0  0  0  0  0  0  0  0
    9.0770    3.0490   -1.0370 O   0  0  0  0  0  0  0  0  0  0  0  0
   11.1795    2.5607   -2.2203 C   0  0  2  0  0  0  0  0  0  0  0  0
   11.0755    3.8244   -2.9594 O   0  0  0  0  0  0  0  0  0  0  0  0
   10.5050    1.4354   -3.0272 C   0  0  1  0  0  0  0  0  0  0  0  0
   11.1565    1.2908   -4.2950 O   0  0  0  0  0  0  0  0  0  0  0  0
   10.6300    0.1293   -2.2273 C   0  0  2  0  0  0  0  0  0  0  0  0
    9.9941   -0.9413   -2.9583 O   0  0  0  0  0  0  0  0  0  0  0  0
    9.9281    0.3237   -0.8549 C   0  0  2  0  0  0  0  0  0  0  0  0
   10.5582    1.4195   -0.1233 O   0  0  0  0  0  0  0  0  0  0  0  0
   10.0778   -0.9698   -0.0337 C   0  0  0  0  0  0  0  0  0  0  0  0
    9.2718   -2.0164   -0.5888 O   0  0  0  0  0  0  0  0  0  0  0  0
  1  2  1  6  0  0  0
  1  3  1  0  0  0  0
  1  4  2  0  0  0  0
  1 16  1  0  0  0  0
  5  6  1  6  0  0  0
  5  7  1  0  0  0  0
  5 14  1  0  0  0  0
  7  8  1  6  0  0  0
  7  9  1  0  0  0  0
  9 10  1  6  0  0  0
  9 11  1  0  0  0  0
 11 12  1  6  0  0  0
 11 13  1  0  0  0  0
 13 14  1  0  0  0  0
 13 15  1  1  0  0  0
 15 16  1  0  0  0  0
M  CHG  1   3  -1
M  END
>  <CHROM.1>
-70.69084281,-115.55500262,-151.93554685,9.56301290,-0.03946520,-1.00170713
2.69616581,-1.10141724,-2.62528543

>  <Name>
ligand

>  <RI>
0

>  <Rbt.Current_Directory>
/home/itssahil/PROJECTS/Mol_Feturizer/New_Systems/rnas/2HO7

>  <Rbt.Executable>
rbdock ($Id: //depot/dev/client3/rdock/2013.1/src/exe/rbdock.cxx#4 $)

>  <Rbt.Library>
libRbt.so (2013.1, Build901 2013/11/27)

>  <Rbt.Parameter_File>
/export/apps/rDock/src/rDock_2013.1_src/data/scripts/dock_solv.prm

>  <Rbt.Receptor>
prm/blind_docking_80.prm

>  <SCORE>
-10.5162

>  <SCORE.INTER>
-16.0305

>  <SCORE.INTER.CONST>
1

>  <SCORE.INTER.POLAR>
-1.09698

>  <SCORE.INTER.ROT>
3

>  <SCORE.INTER.SOLV>
25.811

>  <SCORE.INTER.VDW>
-21.234

>  <SCORE.INTER.norm>
-1.0019

>  <SCORE.INTRA>
5.51424

>  <SCORE.INTRA.DIHEDRAL>
8.57473

>  <SCORE.INTRA.DIHEDRAL.0>
0.00893466

>  <SCORE.INTRA.POLAR>
0

>  <SCORE.INTRA.POLAR.0>
0

>  <SCORE.INTRA.REPUL>
0

>  <SCORE.INTRA.REPUL.0>
0

>  <SCORE.INTRA.SOLV>
1.64374

>  <SCORE.INTRA.SOLV.lig_0>
-48.9722

>  <SCORE.INTRA.VDW>
0.405002

>  <SCORE.INTRA.VDW.0>
-0.529409

>  <SCORE.INTRA.norm>
0.34464

>  <SCORE.RESTR>
0

>  <SCORE.RESTR.CAVITY>
0

>  <SCORE.RESTR.norm>
0

>  <SCORE.SYSTEM>
0

>  <SCORE.SYSTEM.CONST>
0

>  <SCORE.SYSTEM.DIHEDRAL>
0

>  <SCORE.SYSTEM.SOLV>
0

>  <SCORE.SYSTEM.norm>
0

>  <SCORE.heavy>
16

>  <SCORE.norm>
-0.657263

>  <RMSD>
41.102

$$$$
ligand
 OpenBabel11021811433D
libRbt.so/2013.1/901 2013/11/27
 16 16  0  0  0  0  0  0  0  0999 V2000
    8.4451   -2.3155    0.6134 P   0  0  2  0  0  0  0  0  0  0  0  0
    8.5236   -2.4821    2.0859 O   0  0  0  0  0  0  0  0  0  0  0  0
    7.1542   -3.0992    0.0574 O   0  5  0  0  0  0  0  0  0  0  0  0
    9.7734   -2.9380   -0.0511 O   0  0  0  0  0  0  0  0  0  0  0  0
   10.3968    0.0024   -3.1291 C   0  0  2  0  0  0  0  0  0  0  0  0
   11.8274   -0.1388   -3.0642 O   0  0  0  0  0  0  0  0  0  0  0  0
   10.0012    1.4698   -3.4345 C   0  0  2  0  0  0  0  0  0  0  0  0
   10.6157    1.9011   -4.6957 O   0  0  0  0  0  0  0  0  0  0  0  0
   10.5062    2.3613   -2.2845 C   0  0  1  0  0  0  0  0  0  0  0  0
   10.1488    3.7256   -2.5364 O   0  0  0  0  0  0  0  0  0  0  0  0
    9.8466    1.8839   -0.9813 C   0  0  2  0  0  0  0  0  0  0  0  0
   10.3131    2.6978    0.1163 O   0  0  0  0  0  0  0  0  0  0  0  0
   10.2409    0.3997   -0.7453 C   0  0  2  0  0  0  0  0  0  0  0  0
    9.7864   -0.4211   -1.8647 O   0  0  0  0  0  0  0  0  0  0  0  0
    9.5567   -0.0965    0.5415 C   0  0  0  0  0  0  0  0  0  0  0  0
    8.3141   -0.7413    0.2362 O   0  0  0  0  0  0  0  0  0  0  0  0
  1  2  1  1  0  0  0
  1  3  1  0  0  0  0
  1  4  2  0  0  0  0
  1 16  1  0  0  0  0
  5  6  1  1  0  0  0
  5  7  1  0  0  0  0
  5 14  1  0  0  0  0
  7  8  1  6  0  0  0
  7  9  1  0  0  0  0
  9 10  1  6  0  0  0
  9 11  1  0  0  0  0
 11 12  1  1  0  0  0
 11 13  1  0  0  0  0
 13 14  1  0  0  0  0
 13 15  1  1  0  0  0
 15 16  1  0  0  0  0
M  CHG  1   3  -1
M  END
>  <CHROM.1>
94.14004216,113.86176763,69.24764302,9.61368163,-0.06835213,-1.04897462,-2.75133347
1.19114225,0.47336556

>  <Name>
ligand

>  <RI>
0

>  <Rbt.Current_Directory>
/home/itssahil/PROJECTS/Mol_Feturizer/New_Systems/rnas/2HO7

>  <Rbt.Executable>
rbdock ($Id: //depot/dev/client3/rdock/2013.1/src/exe/rbdock.cxx#4 $)

>  <Rbt.Library>
libRbt.so (2013.1, Build901 2013/11/27)

>  <Rbt.Parameter_File>
/export/apps/rDock/src/rDock_2013.1_src/data/scripts/dock_solv.prm

>  <Rbt.Receptor>
prm/blind_docking_80.prm

>  <SCORE>
-17.0027

>  <SCORE.INTER>
-22.9315

>  <SCORE.INTER.CONST>
1

>  <SCORE.INTER.POLAR>
-2.54256

>  <SCORE.INTER.ROT>
3

>  <SCORE.INTER.SOLV>
23.0662

>  <SCORE.INTER.VDW>
-20.1012

>  <SCORE.INTER.norm>
-1.43322

>  <SCORE.INTRA>
5.92608

>  <SCORE.INTRA.DIHEDRAL>
10.3501

>  <SCORE.INTRA.DIHEDRAL.0>
0.00893466

>  <SCORE.INTRA.POLAR>
0

>  <SCORE.INTRA.POLAR.0>
0

>  <SCORE.INTRA.REPUL>
0

>  <SCORE.INTRA.REPUL.0>
0

>  <SCORE.INTRA.SOLV>
2.07688

>  <SCORE.INTRA.SOLV.lig_0>
-48.9722

>  <SCORE.INTRA.VDW>
-0.287414

>  <SCORE.INTRA.VDW.0>
-0.529409

>  <SCORE.INTRA.norm>
0.37038

>  <SCORE.RESTR>
0.00276094

>  <SCORE.RESTR.CAVITY>
0.00276094

>  <SCORE.RESTR.norm>
0.000172559

>  <SCORE.SYSTEM>
0

>  <SCORE.SYSTEM.CONST>
0

>  <SCORE.SYSTEM.DIHEDRAL>
0

>  <SCORE.SYSTEM.SOLV>
0

>  <SCORE.SYSTEM.norm>
0

>  <SCORE.heavy>
16

>  <SCORE.norm>
-1.06267

>  <RMSD>
41.112

$$$$
ligand
 OpenBabel11021811433D
libRbt.so/2013.1/901 2013/11/27
 16 16  0  0  0  0  0  0  0  0999 V2000
    8.4574   -2.3956    0.6484 P   0  0  2  0  0  0  0  0  0  0  0  0
    8.5697   -2.4681    2.1263 O   0  0  0  0  0  0  0  0  0  0  0  0
    7.0451   -3.0168    0.1910 O   0  5  0  0  0  0  0  0  0  0  0  0
    9.6535   -3.2527   -0.0059 O   0  0  0  0  0  0  0  0  0  0  0  0
   10.2385    0.1746   -3.3743 C   0  0  2  0  0  0  0  0  0  0  0  0
   11.6596    0.0027   -3.5221 O   0  0  0  0  0  0  0  0  0  0  0  0
    9.8560    1.6757   -3.4336 C   0  0  2  0  0  0  0  0  0  0  0  0
   10.3129    2.2583   -4.7009 O   0  0  0  0  0  0  0  0  0  0  0  0
   10.5383    2.4005   -2.2583 C   0  0  1  0  0  0  0  0  0  0  0  0
   10.1972    3.7917   -2.2833 O   0  0  0  0  0  0  0  0  0  0  0  0
   10.0407    1.7674   -0.9495 C   0  0  2  0  0  0  0  0  0  0  0  0
   10.6754    2.4227    0.1697 O   0  0  0  0  0  0  0  0  0  0  0  0
   10.4122    0.2588   -0.9603 C   0  0  2  0  0  0  0  0  0  0  0  0
    9.7864   -0.4007   -2.1034 O   0  0  0  0  0  0  0  0  0  0  0  0
    9.8875   -0.3904    0.3333 C   0  0  0  0  0  0  0  0  0  0  0  0
    8.5416   -0.8497    0.1577 O   0  0  0  0  0  0  0  0  0  0  0  0
  1  2  1  1  0  0  0
  1  3  1  0  0  0  0
  1  4  2  0  0  0  0
  1 16  1  0  0  0  0
  5  6  1  1  0  0  0
  5  7  1  0  0  0  0
  5 14  1  0  0  0  0
  7  8  1  6  0  0  0
  7  9  1  0  0  0  0
  9 10  1  1  0  0  0
  9 11  1  0  0  0  0
 11 12  1  1  0  0  0
 11 13  1  0  0  0  0
 13 14  1  0  0  0  0
 13 15  1  1  0  0  0
 15 16  1  0  0  0  0
M  CHG  1   3  -1
M  END
>  <CHROM.1>
88.32009455,129.22259424,71.25337202,9.63729379,-0.08722139,-1.09279318,-3.10945733
1.24027694,0.85927833

>  <Name>
ligand

>  <RI>
0

>  <Rbt.Current_Directory>
/home/itssahil/PROJECTS/Mol_Feturizer/New_Systems/rnas/2HO7

>  <Rbt.Executable>
rbdock ($Id: //depot/dev/client3/rdock/2013.1/src/exe/rbdock.cxx#4 $)

>  <Rbt.Library>
libRbt.so (2013.1, Build901 2013/11/27)

>  <Rbt.Parameter_File>
/export/apps/rDock/src/rDock_2013.1_src/data/scripts/dock_solv.prm

>  <Rbt.Receptor>
prm/blind_docking_40.prm

>  <SCORE>
-16.7075

>  <SCORE.INTER>
-21.8862

>  <SCORE.INTER.CONST>
1

>  <SCORE.INTER.POLAR>
-2.54002

>  <SCORE.INTER.ROT>
3

>  <SCORE.INTER.SOLV>
24.043

>  <SCORE.INTER.VDW>
-19.7384

>  <SCORE.INTER.norm>
-1.36788

>  <SCORE.INTRA>
5.17861

>  <SCORE.INTRA.DIHEDRAL>
9.38735

>  <SCORE.INTRA.DIHEDRAL.0>
0.00893466

>  <SCORE.INTRA.POLAR>
0

>  <SCORE.INTRA.POLAR.0>
0

>  <SCORE.INTRA.REPUL>
0

>  <SCORE.INTRA.REPUL.0>
0

>  <SCORE.INTRA.SOLV>
1.31539

>  <SCORE.INTRA.SOLV.lig_0>
-48.9722

>  <SCORE.INTRA.VDW>
-0.172752

>  <SCORE.INTRA.VDW.0>
-0.529409

>  <SCORE.INTRA.norm>
0.323663

>  <SCORE.RESTR>
0

>  <SCORE.RESTR.CAVITY>
0

>  <SCORE.RESTR.norm>
0

>  <SCORE.SYSTEM>
0

>  <SCORE.SYSTEM.CONST>
0

>  <SCORE.SYSTEM.DIHEDRAL>
0

>  <SCORE.SYSTEM.SOLV>
0

>  <SCORE.SYSTEM.norm>
0

>  <SCORE.heavy>
16

>  <SCORE.norm>
-1.04422

>  <RMSD>
41.117

$$$$
ligand
 OpenBabel11021811433D
libRbt.so/2013.1/901 2013/11/27
 16 16  0  0  0  0  0  0  0  0999 V2000
    8.4815   -2.5018    0.7965 P   0  0  2  0  0  0  0  0  0  0  0  0
    9.0604   -3.6744    0.0948 O   0  0  0  0  0  0  0  0  0  0  0  0
    9.0880   -2.4198    2.2848 O   0  5  0  0  0  0  0  0  0  0  0  0
    6.8837   -2.6843    0.8814 O   0  0  0  0  0  0  0  0  0  0  0  0
    9.9233    0.6671   -3.6339 C   0  0  2  0  0  0  0  0  0  0  0  0
   11.2765    0.5628   -4.1122 O   0  0  0  0  0  0  0  0  0  0  0  0
    9.6402    2.0900   -3.0877 C   0  0  2  0  0  0  0  0  0  0  0  0
    9.8909    3.0868   -4.1353 O   0  0  0  0  0  0  0  0  0  0  0  0
   10.5781    2.3506   -1.8940 C   0  0  1  0  0  0  0  0  0  0  0  0
   10.3344    3.6586   -1.3629 O   0  0  0  0  0  0  0  0  0  0  0  0
   10.2917    1.2917   -0.8179 C   0  0  2  0  0  0  0  0  0  0  0  0
   11.1677    1.5072    0.3095 O   0  0  0  0  0  0  0  0  0  0  0  0
   10.5504   -0.1132   -1.4289 C   0  0  2  0  0  0  0  0  0  0  0  0
    9.6783   -0.3241   -2.5814 O   0  0  0  0  0  0  0  0  0  0  0  0
   10.2335   -1.1818   -0.3669 C   0  0  0  0  0  0  0  0  0  0  0  0
    8.8484   -1.1364   -0.0028 O   0  0  0  0  0  0  0  0  0  0  0  0
  1  2  1  6  0  0  0
  1  3  1  0  0  0  0
  1  4  2  0  0  0  0
  1 16  1  0  0  0  0
  5  6  1  1  0  0  0
  5  7  1  0  0  0  0
  5 14  1  0  0  0  0
  7  8  1  6  0  0  0
  7  9  1  0  0  0  0
  9 10  1  1  0  0  0
  9 11  1  0  0  0  0
 11 12  1  1  0  0  0
 11 13  1  0  0  0  0
 13 14  1  0  0  0  0
 13 15  1  1  0  0  0
 15 16  1  0  0  0  0
M  CHG  1   3  -1
M  END
>  <CHROM.1>
62.94465466,165.11610469,-44.89486397,9.64068273,-0.13776574,-1.02275790
2.61370870,1.22544842,1.45444188

>  <Name>
ligand

>  <RI>
0

>  <Rbt.Current_Directory>
/home/itssahil/PROJECTS/Mol_Feturizer/New_Systems/rnas/2HO7

>  <Rbt.Executable>
rbdock ($Id: //depot/dev/client3/rdock/2013.1/src/exe/rbdock.cxx#4 $)

>  <Rbt.Library>
libRbt.so (2013.1, Build901 2013/11/27)

>  <Rbt.Parameter_File>
/export/apps/rDock/src/rDock_2013.1_src/data/scripts/dock_solv.prm

>  <Rbt.Receptor>
prm/blind_docking_80.prm

>  <SCORE>
-17.7647

>  <SCORE.INTER>
-18.6859

>  <SCORE.INTER.CONST>
1

>  <SCORE.INTER.POLAR>
-2.54558

>  <SCORE.INTER.ROT>
3

>  <SCORE.INTER.SOLV>
26.4629

>  <SCORE.INTER.VDW>
-18.393

>  <SCORE.INTER.norm>
-1.16787

>  <SCORE.INTRA>
0.921246

>  <SCORE.INTRA.DIHEDRAL>
1.41619

>  <SCORE.INTRA.DIHEDRAL.0>
0.00893466

>  <SCORE.INTRA.POLAR>
0

>  <SCORE.INTRA.POLAR.0>
0

>  <SCORE.INTRA.REPUL>
0

>  <SCORE.INTRA.REPUL.0>
0

>  <SCORE.INTRA.SOLV>
0.0869508

>  <SCORE.INTRA.SOLV.lig_0>
-48.9722

>  <SCORE.INTRA.VDW>
0.169676

>  <SCORE.INTRA.VDW.0>
-0.529409

>  <SCORE.INTRA.norm>
0.0575779

>  <SCORE.RESTR>
0

>  <SCORE.RESTR.CAVITY>
0

>  <SCORE.RESTR.norm>
0

>  <SCORE.SYSTEM>
0

>  <SCORE.SYSTEM.CONST>
0

>  <SCORE.SYSTEM.DIHEDRAL>
0

>  <SCORE.SYSTEM.SOLV>
0

>  <SCORE.SYSTEM.norm>
0

>  <SCORE.heavy>
16

>  <SCORE.norm>
-1.11029

>  <RMSD>
41.117

$$$$
ligand
 OpenBabel11021811433D
libRbt.so/2013.1/901 2013/11/27
 16 16  0  0  0  0  0  0  0  0999 V2000
    8.4127   -2.4895    0.8102 P   0  0  2  0  0  0  0  0  0  0  0  0
    6.9369   -2.6334    0.8679 O   0  0  0  0  0  0  0  0  0  0  0  0
    9.0389   -3.7431    0.0189 O   0  5  0  0  0  0  0  0  0  0  0  0
    8.9912   -2.4652    2.3130 O   0  0  0  0  0  0  0  0  0  0  0  0
    9.9789    0.6068   -3.5995 C   0  0  2  0  0  0  0  0  0  0  0  0
   11.3422    0.4863   -4.0439 O   0  0  0  0  0  0  0  0  0  0  0  0
    9.6894    2.0432   -3.0934 C   0  0  2  0  0  0  0  0  0  0  0  0
    9.9684    3.0142   -4.1580 O   0  0  0  0  0  0  0  0  0  0  0  0
   10.6008    2.3283   -1.8849 C   0  0  1  0  0  0  0  0  0  0  0  0
   10.3506    3.6493   -1.3903 O   0  0  0  0  0  0  0  0  0  0  0  0
   10.2853    1.2960   -0.7911 C   0  0  2  0  0  0  0  0  0  0  0  0
   11.1361    1.5347    0.3508 O   0  0  0  0  0  0  0  0  0  0  0  0
   10.5519   -0.1238   -1.3629 C   0  0  2  0  0  0  0  0  0  0  0  0
    9.7056   -0.3585   -2.5299 O   0  0  0  0  0  0  0  0  0  0  0  0
   10.2062   -1.1659   -0.2838 C   0  0  0  0  0  0  0  0  0  0  0  0
    8.8098   -1.1193    0.0341 O   0  0  0  0  0  0  0  0  0  0  0  0
  1  2  1  1  0  0  0
  1  3  1  0  0  0  0
  1  4  2  0  0  0  0
  1 16  1  0  0  0  0
  5  6  1  1  0  0  0
  5  7  1  0  0  0  0
  5 14  1  0  0  0  0
  7  8  1  6  0  0  0
  7  9  1  0  0  0  0
  9 10  1  1  0  0  0
  9 11  1  0  0  0  0
 11 12  1  1  0  0  0
 11 13  1  0  0  0  0
 13 14  1  0  0  0  0
 13 15  1  1  0  0  0
 15 16  1  0  0  0  0
M  CHG  1   3  -1
M  END
>  <CHROM.1>
63.72971799,163.11089382,-166.41278856,9.64031904,-0.15565343,-1.00436030
2.71497764,1.22919196,1.34839965

>  <Name>
ligand

>  <RI>
0

>  <Rbt.Current_Directory>
/home/itssahil/PROJECTS/Mol_Feturizer/New_Systems/rnas/2HO7

>  <Rbt.Executable>
rbdock ($Id: //depot/dev/client3/rdock/2013.1/src/exe/rbdock.cxx#4 $)

>  <Rbt.Library>
libRbt.so (2013.1, Build901 2013/11/27)

>  <Rbt.Parameter_File>
/export/apps/rDock/src/rDock_2013.1_src/data/scripts/dock_solv.prm

>  <Rbt.Receptor>
prm/blind_docking_20.prm

>  <SCORE>
-20.1189

>  <SCORE.INTER>
-21.4112

>  <SCORE.INTER.CONST>
1

>  <SCORE.INTER.POLAR>
-2.54324

>  <SCORE.INTER.ROT>
3

>  <SCORE.INTER.SOLV>
22.3459

>  <SCORE.INTER.VDW>
-18.8453

>  <SCORE.INTER.norm>
-1.3382

>  <SCORE.INTRA>
1.2923

>  <SCORE.INTRA.DIHEDRAL>
1.64927

>  <SCORE.INTRA.DIHEDRAL.0>
0.00893466

>  <SCORE.INTRA.POLAR>
0

>  <SCORE.INTRA.POLAR.0>
0

>  <SCORE.INTRA.REPUL>
0

>  <SCORE.INTRA.REPUL.0>
0

>  <SCORE.INTRA.SOLV>
1.01444

>  <SCORE.INTRA.SOLV.lig_0>
-48.9722

>  <SCORE.INTRA.VDW>
-0.0395526

>  <SCORE.INTRA.VDW.0>
-0.529409

>  <SCORE.INTRA.norm>
0.0807688

>  <SCORE.RESTR>
0

>  <SCORE.RESTR.CAVITY>
0

>  <SCORE.RESTR.norm>
0

>  <SCORE.SYSTEM>
0

>  <SCORE.SYSTEM.CONST>
0

>  <SCORE.SYSTEM.DIHEDRAL>
0

>  <SCORE.SYSTEM.SOLV>
0

>  <SCORE.SYSTEM.norm>
0

>  <SCORE.heavy>
16

>  <SCORE.norm>
-1.25743

>  <RMSD>
41.119

$$$$
ligand
 OpenBabel11021811433D
libRbt.so/2013.1/901 2013/11/27
 16 16  0  0  0  0  0  0  0  0999 V2000
    8.3948   -2.2845    0.7916 P   0  0  2  0  0  0  0  0  0  0  0  0
    8.8439   -2.2419    2.2053 O   0  0  0  0  0  0  0  0  0  0  0  0
    6.8063   -2.5377    0.7455 O   0  5  0  0  0  0  0  0  0  0  0  0
    9.1492   -3.4947    0.0434 O   0  0  0  0  0  0  0  0  0  0  0  0
   10.0149    0.4598   -3.6246 C   0  0  2  0  0  0  0  0  0  0  0  0
   11.3928    0.2887   -4.0025 O   0  0  0  0  0  0  0  0  0  0  0  0
    9.6961    1.9547   -3.3663 C   0  0  2  0  0  0  0  0  0  0  0  0
   10.0000    2.7451   -4.5650 O   0  0  0  0  0  0  0  0  0  0  0  0
   10.5656    2.4439   -2.1929 C   0  0  1  0  0  0  0  0  0  0  0  0
   10.2875    3.8238   -1.9261 O   0  0  0  0  0  0  0  0  0  0  0  0
   10.2249    1.5972   -0.9567 C   0  0  2  0  0  0  0  0  0  0  0  0
   11.0364    2.0291    0.1567 O   0  0  0  0  0  0  0  0  0  0  0  0
   10.5228    0.1077   -1.2831 C   0  0  2  0  0  0  0  0  0  0  0  0
    9.7165   -0.3242   -2.4218 O   0  0  0  0  0  0  0  0  0  0  0  0
   10.1524   -0.7516   -0.0606 C   0  0  0  0  0  0  0  0  0  0  0  0
    8.7297   -0.8752    0.0571 O   0  0  0  0  0  0  0  0  0  0  0  0
  1  2  1  1  0  0  0
  1  3  1  0  0  0  0
  1  4  2  0  0  0  0
  1 16  1  0  0  0  0
  5  6  1  1  0  0  0
  5  7  1  0  0  0  0
  5 14  1  0  0  0  0
  7  8  1  6  0  0  0
  7  9  1  0  0  0  0
  9 10  1  1  0  0  0
  9 11  1  0  0  0  0
 11 12  1  1  0  0  0
 11 13  1  0  0  0  0
 13 14  1  0  0  0  0
 13 15  1  1  0  0  0
 15 16  1  0  0  0  0
M  CHG  1   3  -1
M  END
>  <CHROM.1>
74.38992980,151.68358201,68.01063838,9.61098404,-0.02065456,-1.10341166,2.77840528
1.22605664,1.24448607

>  <Name>
ligand

>  <RI>
0

>  <Rbt.Current_Directory>
/home/itssahil/PROJECTS/Mol_Feturizer/New_Systems/rnas/2HO7

>  <Rbt.Executable>
rbdock ($Id: //depot/dev/client3/rdock/2013.1/src/exe/rbdock.cxx#4 $)

>  <Rbt.Library>
libRbt.so (2013.1, Build901 2013/11/27)

>  <Rbt.Parameter_File>
/export/apps/rDock/src/rDock_2013.1_src/data/scripts/dock_solv.prm

>  <Rbt.Receptor>
prm/blind_docking_60.prm

>  <SCORE>
-17.808

>  <SCORE.INTER>
-20.1201

>  <SCORE.INTER.CONST>
1

>  <SCORE.INTER.POLAR>
-2.54558

>  <SCORE.INTER.ROT>
3

>  <SCORE.INTER.SOLV>
25.5047

>  <SCORE.INTER.VDW>
-19.0297

>  <SCORE.INTER.norm>
-1.2575

>  <SCORE.INTRA>
2.31211

>  <SCORE.INTRA.DIHEDRAL>
4.09105

>  <SCORE.INTRA.DIHEDRAL.0>
0.00893466

>  <SCORE.INTRA.POLAR>
0

>  <SCORE.INTRA.POLAR.0>
0

>  <SCORE.INTRA.REPUL>
0

>  <SCORE.INTRA.REPUL.0>
0

>  <SCORE.INTRA.SOLV>
0.707307

>  <SCORE.INTRA.SOLV.lig_0>
-48.9722

>  <SCORE.INTRA.VDW>
-0.087064

>  <SCORE.INTRA.VDW.0>
-0.529409

>  <SCORE.INTRA.norm>
0.144507

>  <SCORE.RESTR>
0

>  <SCORE.RESTR.CAVITY>
0

>  <SCORE.RESTR.norm>
0

>  <SCORE.SYSTEM>
0

>  <SCORE.SYSTEM.CONST>
0

>  <SCORE.SYSTEM.DIHEDRAL>
0

>  <SCORE.SYSTEM.SOLV>
0

>  <SCORE.SYSTEM.norm>
0

>  <SCORE.heavy>
16

>  <SCORE.norm>
-1.113

>  <RMSD>
41.134

$$$$
ligand
 OpenBabel11021811433D
libRbt.so/2013.1/901 2013/11/27
 16 16  0  0  0  0  0  0  0  0999 V2000
    8.4325   -2.1871    0.7764 P   0  0  2  0  0  0  0  0  0  0  0  0
    7.3064   -3.1385    0.6068 O   0  0  0  0  0  0  0  0  0  0  0  0
    9.6719   -2.6621   -0.1335 O   0  5  0  0  0  0  0  0  0  0  0  0
    8.8789   -2.1815    2.3238 O   0  0  0  0  0  0  0  0  0  0  0  0
   10.5529   -0.0859   -2.6930 C   0  0  2  0  0  0  0  0  0  0  0  0
   11.9468   -0.0395   -2.3384 O   0  0  0  0  0  0  0  0  0  0  0  0
   10.0940    1.2639   -3.3017 C   0  0  2  0  0  0  0  0  0  0  0  0
   10.9108    1.5853   -4.4780 O   0  0  0  0  0  0  0  0  0  0  0  0
   10.2682    2.3640   -2.2378 C   0  0  1  0  0  0  0  0  0  0  0  0
    9.8451    3.6247   -2.7707 O   0  0  0  0  0  0  0  0  0  0  0  0
    9.4031    1.9976   -1.0218 C   0  0  2  0  0  0  0  0  0  0  0  0
    9.5578    3.0093   -0.0033 O   0  0  0  0  0  0  0  0  0  0  0  0
    9.8765    0.6214   -0.4779 C   0  0  2  0  0  0  0  0  0  0  0  0
    9.7387   -0.3986   -1.5141 O   0  0  0  0  0  0  0  0  0  0  0  0
    8.9925    0.2312    0.7207 C   0  0  0  0  0  0  0  0  0  0  0  0
    7.9776   -0.6968    0.3185 O   0  0  0  0  0  0  0  0  0  0  0  0
  1  2  1  6  0  0  0
  1  3  1  0  0  0  0
  1  4  2  0  0  0  0
  1 16  1  0  0  0  0
  5  6  1  1  0  0  0
  5  7  1  0  0  0  0
  5 14  1  0  0  0  0
  7  8  1  6  0  0  0
  7  9  1  0  0  0  0
  9 10  1  6  0  0  0
  9 11  1  0  0  0  0
 11 12  1  1  0  0  0
 11 13  1  0  0  0  0
 13 14  1  0  0  0  0
 13 15  1  1  0  0  0
 15 16  1  0  0  0  0
M  CHG  1   3  -1
M  END
>  <CHROM.1>
99.49463410,101.67295149,169.56324114,9.50095924,0.00529562,-0.86727708,-2.31007469
1.05887452,-0.03964511

>  <Name>
ligand

>  <RI>
0

>  <Rbt.Current_Directory>
/home/itssahil/PROJECTS/Mol_Feturizer/New_Systems/rnas/2HO7

>  <Rbt.Executable>
rbdock ($Id: //depot/dev/client3/rdock/2013.1/src/exe/rbdock.cxx#4 $)

>  <Rbt.Library>
libRbt.so (2013.1, Build901 2013/11/27)

>  <Rbt.Parameter_File>
/export/apps/rDock/src/rDock_2013.1_src/data/scripts/dock_solv.prm

>  <Rbt.Receptor>
prm/blind_docking_80.prm

>  <SCORE>
-19.3649

>  <SCORE.INTER>
-25.8989

>  <SCORE.INTER.CONST>
1

>  <SCORE.INTER.POLAR>
-2.54558

>  <SCORE.INTER.ROT>
3

>  <SCORE.INTER.SOLV>
19.5846

>  <SCORE.INTER.VDW>
-20.9089

>  <SCORE.INTER.norm>
-1.61868

>  <SCORE.INTRA>
6.534

>  <SCORE.INTRA.DIHEDRAL>
9.73019

>  <SCORE.INTRA.DIHEDRAL.0>
0.00893466

>  <SCORE.INTRA.POLAR>
0

>  <SCORE.INTRA.POLAR.0>
0

>  <SCORE.INTRA.REPUL>
0

>  <SCORE.INTRA.REPUL.0>
0

>  <SCORE.INTRA.SOLV>
3.70453

>  <SCORE.INTRA.SOLV.lig_0>
-48.9722

>  <SCORE.INTRA.VDW>
-0.183357

>  <SCORE.INTRA.VDW.0>
-0.529409

>  <SCORE.INTRA.norm>
0.408375

>  <SCORE.RESTR>
0

>  <SCORE.RESTR.CAVITY>
0

>  <SCORE.RESTR.norm>
0

>  <SCORE.SYSTEM>
0

>  <SCORE.SYSTEM.CONST>
0

>  <SCORE.SYSTEM.DIHEDRAL>
0

>  <SCORE.SYSTEM.SOLV>
0

>  <SCORE.SYSTEM.norm>
0

>  <SCORE.heavy>
16

>  <SCORE.norm>
-1.21031

>  <RMSD>
41.135

$$$$
ligand
 OpenBabel11021811433D
libRbt.so/2013.1/901 2013/11/27
 16 16  0  0  0  0  0  0  0  0999 V2000
    8.3299   -2.3019    0.7856 P   0  0  2  0  0  0  0  0  0  0  0  0
    6.8668   -2.5497    0.7713 O   0  0  0  0  0  0  0  0  0  0  0  0
    9.0753   -3.4690   -0.0343 O   0  5  0  0  0  0  0  0  0  0  0  0
    8.8432   -2.3117    2.3121 O   0  0  0  0  0  0  0  0  0  0  0  0
   10.0988    0.3484   -3.5625 C   0  0  2  0  0  0  0  0  0  0  0  0
   11.4946    0.1785   -3.8682 O   0  0  0  0  0  0  0  0  0  0  0  0
    9.7521    1.8490   -3.3863 C   0  0  2  0  0  0  0  0  0  0  0  0
   10.1031    2.5896   -4.6039 O   0  0  0  0  0  0  0  0  0  0  0  0
   10.5605    2.4009   -2.1971 C   0  0  1  0  0  0  0  0  0  0  0  0
   10.2553    3.7875   -2.0056 O   0  0  0  0  0  0  0  0  0  0  0  0
   10.1715    1.6054   -0.9413 C   0  0  2  0  0  0  0  0  0  0  0  0
   10.9255    2.0965    0.1880 O   0  0  0  0  0  0  0  0  0  0  0  0
   10.5005    0.1068   -1.1866 C   0  0  2  0  0  0  0  0  0  0  0  0
    9.7530   -0.3854   -2.3408 O   0  0  0  0  0  0  0  0  0  0  0  0
   10.0826   -0.7022    0.0547 C   0  0  0  0  0  0  0  0  0  0  0  0
    8.6602   -0.8710    0.0920 O   0  0  0  0  0  0  0  0  0  0  0  0
  1  2  1  6  0  0  0
  1  3  1  0  0  0  0
  1  4  2  0  0  0  0
  1 16  1  0  0  0  0
  5  6  1  1  0  0  0
  5  7  1  0  0  0  0
  5 14  1  0  0  0  0
  7  8  1  6  0  0  0
  7  9  1  0  0  0  0
  9 10  1  1  0  0  0
  9 11  1  0  0  0  0
 11 12  1  1  0  0  0
 11 13  1  0  0  0  0
 13 14  1  0  0  0  0
 13 15  1  1  0  0  0
 15 16  1  0  0  0  0
M  CHG  1   3  -1
M  END
>  <CHROM.1>
76.01390232,147.77870525,-176.70903126,9.60317965,-0.05488866,-1.07638217
2.89601286,1.22714082,1.11293926

>  <Name>
ligand

>  <RI>
0

>  <Rbt.Current_Directory>
/home/itssahil/PROJECTS/Mol_Feturizer/New_Systems/rnas/2HO7

>  <Rbt.Executable>
rbdock ($Id: //depot/dev/client3/rdock/2013.1/src/exe/rbdock.cxx#4 $)

>  <Rbt.Library>
libRbt.so (2013.1, Build901 2013/11/27)

>  <Rbt.Parameter_File>
/export/apps/rDock/src/rDock_2013.1_src/data/scripts/dock_solv.prm

>  <Rbt.Receptor>
prm/blind_docking_40.prm

>  <SCORE>
-20.0224

>  <SCORE.INTER>
-22.9301

>  <SCORE.INTER.CONST>
1

>  <SCORE.INTER.POLAR>
-2.54558

>  <SCORE.INTER.ROT>
3

>  <SCORE.INTER.SOLV>
22.211

>  <SCORE.INTER.VDW>
-19.8051

>  <SCORE.INTER.norm>
-1.43313

>  <SCORE.INTRA>
2.9077

>  <SCORE.INTRA.DIHEDRAL>
4.90016

>  <SCORE.INTRA.DIHEDRAL.0>
0.00893466

>  <SCORE.INTRA.POLAR>
0

>  <SCORE.INTRA.POLAR.0>
0

>  <SCORE.INTRA.REPUL>
0

>  <SCORE.INTRA.REPUL.0>
0

>  <SCORE.INTRA.SOLV>
1.36376

>  <SCORE.INTRA.SOLV.lig_0>
-48.9722

>  <SCORE.INTRA.VDW>
-0.224265

>  <SCORE.INTRA.VDW.0>
-0.529409

>  <SCORE.INTRA.norm>
0.181731

>  <SCORE.RESTR>
0

>  <SCORE.RESTR.CAVITY>
0

>  <SCORE.RESTR.norm>
0

>  <SCORE.SYSTEM>
0

>  <SCORE.SYSTEM.CONST>
0

>  <SCORE.SYSTEM.DIHEDRAL>
0

>  <SCORE.SYSTEM.SOLV>
0

>  <SCORE.SYSTEM.norm>
0

>  <SCORE.heavy>
16

>  <SCORE.norm>
-1.2514

>  <RMSD>
41.142

$$$$
ligand
 OpenBabel11021811433D
libRbt.so/2013.1/901 2013/11/27
 16 16  0  0  0  0  0  0  0  0999 V2000
    8.4105   -2.3143    0.8087 P   0  0  2  0  0  0  0  0  0  0  0  0
    9.1345   -3.3903    0.0875 O   0  0  0  0  0  0  0  0  0  0  0  0
    8.9330   -2.2482    2.3293 O   0  5  0  0  0  0  0  0  0  0  0  0
    6.8359   -2.6522    0.8004 O   0  0  0  0  0  0  0  0  0  0  0  0
   10.0969    0.2978   -3.5724 C   0  0  2  0  0  0  0  0  0  0  0  0
   11.4974    0.1518   -3.8690 O   0  0  0  0  0  0  0  0  0  0  0  0
    9.7143    1.7945   -3.4432 C   0  0  2  0  0  0  0  0  0  0  0  0
   10.0519    2.5056   -4.6819 O   0  0  0  0  0  0  0  0  0  0  0  0
   10.5054    2.4013   -2.2692 C   0  0  1  0  0  0  0  0  0  0  0  0
   10.1669    3.7855   -2.1210 O   0  0  0  0  0  0  0  0  0  0  0  0
   10.1309    1.6355   -0.9907 C   0  0  2  0  0  0  0  0  0  0  0  0
   10.8692    2.1786    0.1250 O   0  0  0  0  0  0  0  0  0  0  0  0
   10.4960    0.1384   -1.1892 C   0  0  2  0  0  0  0  0  0  0  0  0
    9.7643   -0.4064   -2.3298 O   0  0  0  0  0  0  0  0  0  0  0  0
   10.0930   -0.6421    0.0752 C   0  0  0  0  0  0  0  0  0  0  0  0
    8.6806   -0.8824    0.0914 O   0  0  0  0  0  0  0  0  0  0  0  0
  1  2  1  6  0  0  0
  1  3  1  0  0  0  0
  1  4  2  0  0  0  0
  1 16  1  0  0  0  0
  5  6  1  1  0  0  0
  5  7  1  0  0  0  0
  5 14  1  0  0  0  0
  7  8  1  6  0  0  0
  7  9  1  0  0  0  0
  9 10  1  1  0  0  0
  9 11  1  0  0  0  0
 11 12  1  1  0  0  0
 11 13  1  0  0  0  0
 13 14  1  0  0  0  0
 13 15  1  1  0  0  0
 15 16  1  0  0  0  0
M  CHG  1   3  -1
M  END
>  <CHROM.1>
77.95263525,146.65983509,-57.87648744,9.60366963,-0.05676128,-1.08717474
2.88190471,1.24150066,1.11281387

>  <Name>
ligand

>  <RI>
0

>  <Rbt.Current_Directory>
/home/itssahil/PROJECTS/Mol_Feturizer/New_Systems/rnas/2HO7

>  <Rbt.Executable>
rbdock ($Id: //depot/dev/client3/rdock/2013.1/src/exe/rbdock.cxx#4 $)

>  <Rbt.Library>
libRbt.so (2013.1, Build901 2013/11/27)

>  <Rbt.Parameter_File>
/export/apps/rDock/src/rDock_2013.1_src/data/scripts/dock_solv.prm

>  <Rbt.Receptor>
prm/blind_docking_100.prm

>  <SCORE>
-17.297

>  <SCORE.INTER>
-19.9958

>  <SCORE.INTER.CONST>
1

>  <SCORE.INTER.POLAR>
-2.54086

>  <SCORE.INTER.ROT>
3

>  <SCORE.INTER.SOLV>
26.4619

>  <SCORE.INTER.VDW>
-19.2816

>  <SCORE.INTER.norm>
-1.24974

>  <SCORE.INTRA>
2.69882

>  <SCORE.INTRA.DIHEDRAL>
5.30647

>  <SCORE.INTRA.DIHEDRAL.0>
0.00893466

>  <SCORE.INTRA.POLAR>
0

>  <SCORE.INTRA.POLAR.0>
0

>  <SCORE.INTRA.REPUL>
0

>  <SCORE.INTRA.REPUL.0>
0

>  <SCORE.INTRA.SOLV>
0.269304

>  <SCORE.INTRA.SOLV.lig_0>
-48.9722

>  <SCORE.INTRA.VDW>
-0.0890641

>  <SCORE.INTRA.VDW.0>
-0.529409

>  <SCORE.INTRA.norm>
0.168676

>  <SCORE.RESTR>
0

>  <SCORE.RESTR.CAVITY>
0

>  <SCORE.RESTR.norm>
0

>  <SCORE.SYSTEM>
0

>  <SCORE.SYSTEM.CONST>
0

>  <SCORE.SYSTEM.DIHEDRAL>
0

>  <SCORE.SYSTEM.SOLV>
0

>  <SCORE.SYSTEM.norm>
0

>  <SCORE.heavy>
16

>  <SCORE.norm>
-1.08106

>  <RMSD>
41.143

$$$$
ligand
 OpenBabel11021811433D
libRbt.so/2013.1/901 2013/11/27
 16 16  0  0  0  0  0  0  0  0999 V2000
    8.3258   -2.3046    0.7952 P   0  0  2  0  0  0  0  0  0  0  0  0
    6.8682   -2.5789    0.7464 O   0  0  0  0  0  0  0  0  0  0  0  0
    9.1125   -3.4666    0.0074 O   0  5  0  0  0  0  0  0  0  0  0  0
    8.8000   -2.2889    2.3341 O   0  0  0  0  0  0  0  0  0  0  0  0
   10.1090    0.3420   -3.5492 C   0  0  2  0  0  0  0  0  0  0  0  0
   11.5081    0.1778   -3.8428 O   0  0  0  0  0  0  0  0  0  0  0  0
    9.7530    1.8416   -3.3835 C   0  0  2  0  0  0  0  0  0  0  0  0
   10.1100    2.5778   -4.6019 O   0  0  0  0  0  0  0  0  0  0  0  0
   10.5489    2.4036   -2.1906 C   0  0  1  0  0  0  0  0  0  0  0  0
   10.2349    3.7895   -2.0085 O   0  0  0  0  0  0  0  0  0  0  0  0
   10.1539    1.6124   -0.9339 C   0  0  2  0  0  0  0  0  0  0  0  0
   10.8962    2.1131    0.1989 O   0  0  0  0  0  0  0  0  0  0  0  0
   10.4927    0.1144   -1.1690 C   0  0  2  0  0  0  0  0  0  0  0  0
    9.7571   -0.3875   -2.3267 O   0  0  0  0  0  0  0  0  0  0  0  0
   10.0690   -0.6906    0.0730 C   0  0  0  0  0  0  0  0  0  0  0  0
    8.6483   -0.8754    0.0943 O   0  0  0  0  0  0  0  0  0  0  0  0
  1  2  1  6  0  0  0
  1  3  1  0  0  0  0
  1  4  2  0  0  0  0
  1 16  1  0  0  0  0
  5  6  1  1  0  0  0
  5  7  1  0  0  0  0
  5 14  1  0  0  0  0
  7  8  1  6  0  0  0
  7  9  1  0  0  0  0
  9 10  1  1  0  0  0
  9 11  1  0  0  0  0
 11 12  1  1  0  0  0
 11 13  1  0  0  0  0
 13 14  1  0  0  0  0
 13 15  1  1  0  0  0
 15 16  1  0  0  0  0
M  CHG  1   3  -1
M  END
>  <CHROM.1>
76.45157758,147.81817445,-175.84189176,9.59797554,-0.05468556,-1.06606076
2.92545035,1.22955679,1.08141825

>  <Name>
ligand

>  <RI>
0

>  <Rbt.Current_Directory>
/home/itssahil/PROJECTS/Mol_Feturizer/New_Systems/rnas/2HO7

>  <Rbt.Executable>
rbdock ($Id: //depot/dev/client3/rdock/2013.1/src/exe/rbdock.cxx#4 $)

>  <Rbt.Library>
libRbt.so (2013.1, Build901 2013/11/27)

>  <Rbt.Parameter_File>
/export/apps/rDock/src/rDock_2013.1_src/data/scripts/dock_solv.prm

>  <Rbt.Receptor>
prm/blind_docking_100.prm

>  <SCORE>
-19.9992

>  <SCORE.INTER>
-22.9366

>  <SCORE.INTER.CONST>
1

>  <SCORE.INTER.POLAR>
-2.54478

>  <SCORE.INTER.ROT>
3

>  <SCORE.INTER.SOLV>
22.2246

>  <SCORE.INTER.VDW>
-19.8167

>  <SCORE.INTER.norm>
-1.43354

>  <SCORE.INTRA>
2.93747

>  <SCORE.INTRA.DIHEDRAL>
4.94868

>  <SCORE.INTRA.DIHEDRAL.0>
0.00893466

>  <SCORE.INTRA.POLAR>
0

>  <SCORE.INTRA.POLAR.0>
0

>  <SCORE.INTRA.REPUL>
0

>  <SCORE.INTRA.REPUL.0>
0

>  <SCORE.INTRA.SOLV>
1.35624

>  <SCORE.INTRA.SOLV.lig_0>
-48.9722

>  <SCORE.INTRA.VDW>
-0.214991

>  <SCORE.INTRA.VDW.0>
-0.529409

>  <SCORE.INTRA.norm>
0.183592

>  <SCORE.RESTR>
0

>  <SCORE.RESTR.CAVITY>
0

>  <SCORE.RESTR.norm>
0

>  <SCORE.SYSTEM>
0

>  <SCORE.SYSTEM.CONST>
0

>  <SCORE.SYSTEM.DIHEDRAL>
0

>  <SCORE.SYSTEM.SOLV>
0

>  <SCORE.SYSTEM.norm>
0

>  <SCORE.heavy>
16

>  <SCORE.norm>
-1.24995

>  <RMSD>
41.143

$$$$
ligand
 OpenBabel11021811433D
libRbt.so/2013.1/901 2013/11/27
 16 16  0  0  0  0  0  0  0  0999 V2000
    8.3155   -2.3066    0.8048 P   0  0  2  0  0  0  0  0  0  0  0  0
    6.8514   -2.5482    0.7832 O   0  0  0  0  0  0  0  0  0  0  0  0
    9.0611   -3.4857    0.0026 O   0  5  0  0  0  0  0  0  0  0  0  0
    8.8184   -2.3021    2.3347 O   0  0  0  0  0  0  0  0  0  0  0  0
   10.0995    0.3691   -3.5504 C   0  0  2  0  0  0  0  0  0  0  0  0
   11.4967    0.2096   -3.8554 O   0  0  0  0  0  0  0  0  0  0  0  0
    9.7457    1.8656   -3.3546 C   0  0  2  0  0  0  0  0  0  0  0  0
   10.0959    2.6242   -4.5612 O   0  0  0  0  0  0  0  0  0  0  0  0
   10.5492    2.4048   -2.1562 C   0  0  1  0  0  0  0  0  0  0  0  0
   10.2373    3.7872   -1.9464 O   0  0  0  0  0  0  0  0  0  0  0  0
   10.1612    1.5905   -0.9122 C   0  0  2  0  0  0  0  0  0  0  0  0
   10.9106    2.0695    0.2253 O   0  0  0  0  0  0  0  0  0  0  0  0
   10.4974    0.0969   -1.1772 C   0  0  2  0  0  0  0  0  0  0  0  0
    9.7545   -0.3829   -2.3396 O   0  0  0  0  0  0  0  0  0  0  0  0
   10.0806   -0.7309    0.0521 C   0  0  0  0  0  0  0  0  0  0  0  0
    8.6568   -0.8847    0.0980 O   0  0  0  0  0  0  0  0  0  0  0  0
  1  2  1  6  0  0  0
  1  3  1  0  0  0  0
  1  4  2  0  0  0  0
  1 16  1  0  0  0  0
  5  6  1  1  0  0  0
  5  7  1  0  0  0  0
  5 14  1  0  0  0  0
  7  8  1  6  0  0  0
  7  9  1  0  0  0  0
  9 10  1  1  0  0  0
  9 11  1  0  0  0  0
 11 12  1  1  0  0  0
 11 13  1  0  0  0  0
 13 14  1  0  0  0  0
 13 15  1  1  0  0  0
 15 16  1  0  0  0  0
M  CHG  1   3  -1
M  END
>  <CHROM.1>
74.90459464,149.32823390,-175.93260873,9.59379030,-0.05484477,-1.05335495
2.91139412,1.22759588,1.09907132

>  <Name>
ligand

>  <RI>
0

>  <Rbt.Current_Directory>
/home/itssahil/PROJECTS/Mol_Feturizer/New_Systems/rnas/2HO7

>  <Rbt.Executable>
rbdock ($Id: //depot/dev/client3/rdock/2013.1/src/exe/rbdock.cxx#4 $)

>  <Rbt.Library>
libRbt.so (2013.1, Build901 2013/11/27)

>  <Rbt.Parameter_File>
/export/apps/rDock/src/rDock_2013.1_src/data/scripts/dock_solv.prm

>  <Rbt.Receptor>
prm/blind_docking_20.prm

>  <SCORE>
-19.9617

>  <SCORE.INTER>
-22.6914

>  <SCORE.INTER.CONST>
1

>  <SCORE.INTER.POLAR>
-2.54129

>  <SCORE.INTER.ROT>
3

>  <SCORE.INTER.SOLV>
22.2986

>  <SCORE.INTER.VDW>
-19.6895

>  <SCORE.INTER.norm>
-1.41821

>  <SCORE.INTRA>
2.72977

>  <SCORE.INTRA.DIHEDRAL>
4.50735

>  <SCORE.INTRA.DIHEDRAL.0>
0.00893466

>  <SCORE.INTRA.POLAR>
0

>  <SCORE.INTRA.POLAR.0>
0

>  <SCORE.INTRA.REPUL>
0

>  <SCORE.INTRA.REPUL.0>
0

>  <SCORE.INTRA.SOLV>
1.32398

>  <SCORE.INTRA.SOLV.lig_0>
-48.9722

>  <SCORE.INTRA.VDW>
-0.185894

>  <SCORE.INTRA.VDW.0>
-0.529409

>  <SCORE.INTRA.norm>
0.170611

>  <SCORE.RESTR>
0

>  <SCORE.RESTR.CAVITY>
0

>  <SCORE.RESTR.norm>
0

>  <SCORE.SYSTEM>
0

>  <SCORE.SYSTEM.CONST>
0

>  <SCORE.SYSTEM.DIHEDRAL>
0

>  <SCORE.SYSTEM.SOLV>
0

>  <SCORE.SYSTEM.norm>
0

>  <SCORE.heavy>
16

>  <SCORE.norm>
-1.2476

>  <RMSD>
41.143

$$$$
ligand
 OpenBabel11021811433D
libRbt.so/2013.1/901 2013/11/27
 16 16  0  0  0  0  0  0  0  0999 V2000
    8.3573   -2.4900    0.8032 P   0  0  2  0  0  0  0  0  0  0  0  0
    6.8816   -2.6400    0.8491 O   0  0  0  0  0  0  0  0  0  0  0  0
    8.9934   -3.7306   -0.0005 O   0  5  0  0  0  0  0  0  0  0  0  0
    8.9256   -2.4835    2.3100 O   0  0  0  0  0  0  0  0  0  0  0  0
   10.0110    0.5706   -3.5687 C   0  0  2  0  0  0  0  0  0  0  0  0
   11.3891    0.4622   -3.9685 O   0  0  0  0  0  0  0  0  0  0  0  0
    9.6832    2.0136   -3.1068 C   0  0  2  0  0  0  0  0  0  0  0  0
    9.9793    2.9634   -4.1859 O   0  0  0  0  0  0  0  0  0  0  0  0
   10.5525    2.3427   -1.8786 C   0  0  1  0  0  0  0  0  0  0  0  0
   10.2661    3.6709   -1.4243 O   0  0  0  0  0  0  0  0  0  0  0  0
   10.2200    1.3319   -0.7700 C   0  0  2  0  0  0  0  0  0  0  0  0
   11.0314    1.6120    0.3910 O   0  0  0  0  0  0  0  0  0  0  0  0
   10.5267   -0.0966   -1.2986 C   0  0  2  0  0  0  0  0  0  0  0  0
    9.7205   -0.3733   -2.4846 O   0  0  0  0  0  0  0  0  0  0  0  0
   10.1646   -1.1182   -0.2053 C   0  0  0  0  0  0  0  0  0  0  0  0
    8.7544   -1.1081    0.0481 O   0  0  0  0  0  0  0  0  0  0  0  0
  1  2  1  1  0  0  0
  1  3  1  0  0  0  0
  1  4  2  0  0  0  0
  1 16  1  0  0  0  0
  5  6  1  1  0  0  0
  5  7  1  0  0  0  0
  5 14  1  0  0  0  0
  7  8  1  6  0  0  0
  7  9  1  0  0  0  0
  9 10  1  1  0  0  0
  9 11  1  0  0  0  0
 11 12  1  1  0  0  0
 11 13  1  0  0  0  0
 13 14  1  0  0  0  0
 13 15  1  1  0  0  0
 15 16  1  0  0  0  0
M  CHG  1   3  -1
M  END
>  <CHROM.1>
65.00150139,161.28402270,-169.07474592,9.60418631,-0.15197873,-0.99075625
2.80699414,1.23434974,1.25424115

>  <Name>
ligand

>  <RI>
0

>  <Rbt.Current_Directory>
/home/itssahil/PROJECTS/Mol_Feturizer/New_Systems/rnas/2HO7

>  <Rbt.Executable>
rbdock ($Id: //depot/dev/client3/rdock/2013.1/src/exe/rbdock.cxx#4 $)

>  <Rbt.Library>
libRbt.so (2013.1, Build901 2013/11/27)

>  <Rbt.Parameter_File>
/export/apps/rDock/src/rDock_2013.1_src/data/scripts/dock_solv.prm

>  <Rbt.Receptor>
prm/blind_docking_80.prm

>  <SCORE>
-20.1795

>  <SCORE.INTER>
-21.5416

>  <SCORE.INTER.CONST>
1

>  <SCORE.INTER.POLAR>
-2.54558

>  <SCORE.INTER.ROT>
3

>  <SCORE.INTER.SOLV>
22.6854

>  <SCORE.INTER.VDW>
-19.0376

>  <SCORE.INTER.norm>
-1.34635

>  <SCORE.INTRA>
1.36211

>  <SCORE.INTRA.DIHEDRAL>
1.86553

>  <SCORE.INTRA.DIHEDRAL.0>
0.00893466

>  <SCORE.INTRA.POLAR>
0

>  <SCORE.INTRA.POLAR.0>
0

>  <SCORE.INTRA.REPUL>
0

>  <SCORE.INTRA.REPUL.0>
0

>  <SCORE.INTRA.SOLV>
1.05715

>  <SCORE.INTRA.SOLV.lig_0>
-48.9722

>  <SCORE.INTRA.VDW>
-0.0992306

>  <SCORE.INTRA.VDW.0>
-0.529409

>  <SCORE.INTRA.norm>
0.085132

>  <SCORE.RESTR>
0

>  <SCORE.RESTR.CAVITY>
0

>  <SCORE.RESTR.norm>
0

>  <SCORE.SYSTEM>
0

>  <SCORE.SYSTEM.CONST>
0

>  <SCORE.SYSTEM.DIHEDRAL>
0

>  <SCORE.SYSTEM.SOLV>
0

>  <SCORE.SYSTEM.norm>
0

>  <SCORE.heavy>
16

>  <SCORE.norm>
-1.26122

>  <RMSD>
41.143

$$$$
ligand
 OpenBabel11021811433D
libRbt.so/2013.1/901 2013/11/27
 16 16  0  0  0  0  0  0  0  0999 V2000
    8.3249   -2.4722    0.8247 P   0  0  2  0  0  0  0  0  0  0  0  0
    6.8480   -2.6124    0.8599 O   0  0  0  0  0  0  0  0  0  0  0  0
    8.9592   -3.7219    0.0337 O   0  5  0  0  0  0  0  0  0  0  0  0
    8.8815   -2.4600    2.3358 O   0  0  0  0  0  0  0  0  0  0  0  0
   10.0349    0.5439   -3.5573 C   0  0  2  0  0  0  0  0  0  0  0  0
   11.4167    0.4280   -3.9421 O   0  0  0  0  0  0  0  0  0  0  0  0
    9.7072    1.9915   -3.1100 C   0  0  2  0  0  0  0  0  0  0  0  0
   10.0173    2.9319   -4.1934 O   0  0  0  0  0  0  0  0  0  0  0  0
   10.5649    2.3274   -1.8756 C   0  0  1  0  0  0  0  0  0  0  0  0
   10.2783    3.6600   -1.4345 O   0  0  0  0  0  0  0  0  0  0  0  0
   10.2178    1.3263   -0.7626 C   0  0  2  0  0  0  0  0  0  0  0  0
   11.0183    1.6129    0.4044 O   0  0  0  0  0  0  0  0  0  0  0  0
   10.5252   -0.1072   -1.2769 C   0  0  2  0  0  0  0  0  0  0  0  0
    9.7302   -0.3905   -2.4690 O   0  0  0  0  0  0  0  0  0  0  0  0
   10.1486   -1.1191   -0.1795 C   0  0  0  0  0  0  0  0  0  0  0  0
    8.7368   -1.0976    0.0641 O   0  0  0  0  0  0  0  0  0  0  0  0
  1  2  1  1  0  0  0
  1  3  1  0  0  0  0
  1  4  2  0  0  0  0
  1 16  1  0  0  0  0
  5  6  1  1  0  0  0
  5  7  1  0  0  0  0
  5 14  1  0  0  0  0
  7  8  1  6  0  0  0
  7  9  1  0  0  0  0
  9 10  1  1  0  0  0
  9 11  1  0  0  0  0
 11 12  1  1  0  0  0
 11 13  1  0  0  0  0
 13 14  1  0  0  0  0
 13 15  1  1  0  0  0
 15 16  1  0  0  0  0
M  CHG  1   3  -1
M  END
>  <CHROM.1>
64.70841847,161.24885982,-169.00979368,9.59877975,-0.15540181,-0.97680875
2.83321188,1.22762899,1.22056042

>  <Name>
ligand

>  <RI>
0

>  <Rbt.Current_Directory>
/home/itssahil/PROJECTS/Mol_Feturizer/New_Systems/rnas/2HO7

>  <Rbt.Executable>
rbdock ($Id: //depot/dev/client3/rdock/2013.1/src/exe/rbdock.cxx#4 $)

>  <Rbt.Library>
libRbt.so (2013.1, Build901 2013/11/27)

>  <Rbt.Parameter_File>
/export/apps/rDock/src/rDock_2013.1_src/data/scripts/dock_solv.prm

>  <Rbt.Receptor>
prm/blind_docking_20.prm

>  <SCORE>
-20.2569

>  <SCORE.INTER>
-21.6204

>  <SCORE.INTER.CONST>
1

>  <SCORE.INTER.POLAR>
-2.54558

>  <SCORE.INTER.ROT>
3

>  <SCORE.INTER.SOLV>
22.7806

>  <SCORE.INTER.VDW>
-19.1219

>  <SCORE.INTER.norm>
-1.35128

>  <SCORE.INTRA>
1.36354

>  <SCORE.INTRA.DIHEDRAL>
1.86309

>  <SCORE.INTRA.DIHEDRAL.0>
0.00893466

>  <SCORE.INTRA.POLAR>
0

>  <SCORE.INTRA.POLAR.0>
0

>  <SCORE.INTRA.REPUL>
0

>  <SCORE.INTRA.REPUL.0>
0

>  <SCORE.INTRA.SOLV>
1.05885

>  <SCORE.INTRA.SOLV.lig_0>
-48.9722

>  <SCORE.INTRA.VDW>
-0.0974259

>  <SCORE.INTRA.VDW.0>
-0.529409

>  <SCORE.INTRA.norm>
0.0852213

>  <SCORE.RESTR>
0

>  <SCORE.RESTR.CAVITY>
0

>  <SCORE.RESTR.norm>
0

>  <SCORE.SYSTEM>
0

>  <SCORE.SYSTEM.CONST>
0

>  <SCORE.SYSTEM.DIHEDRAL>
0

>  <SCORE.SYSTEM.SOLV>
0

>  <SCORE.SYSTEM.norm>
0

>  <SCORE.heavy>
16

>  <SCORE.norm>
-1.26605

>  <RMSD>
41.144

$$$$
ligand
 OpenBabel11021811433D
libRbt.so/2013.1/901 2013/11/27
 16 16  0  0  0  0  0  0  0  0999 V2000
    8.4521   -2.4462    0.7902 P   0  0  2  0  0  0  0  0  0  0  0  0
    9.0658   -3.5959    0.0803 O   0  0  0  0  0  0  0  0  0  0  0  0
    9.0217   -2.3841    2.2940 O   0  5  0  0  0  0  0  0  0  0  0  0
    6.8558   -2.6547    0.8333 O   0  0  0  0  0  0  0  0  0  0  0  0
    9.9810    0.4841   -3.6649 C   0  0  2  0  0  0  0  0  0  0  0  0
   11.3499    0.3644   -4.0921 O   0  0  0  0  0  0  0  0  0  0  0  0
    9.6543    1.9459   -3.2654 C   0  0  2  0  0  0  0  0  0  0  0  0
    9.9181    2.8440   -4.3959 O   0  0  0  0  0  0  0  0  0  0  0  0
   10.5502    2.3390   -2.0758 C   0  0  1  0  0  0  0  0  0  0  0  0
   10.2656    3.6860   -1.6793 O   0  0  0  0  0  0  0  0  0  0  0  0
   10.2512    1.3811   -0.9121 C   0  0  2  0  0  0  0  0  0  0  0  0
   11.0881    1.7217    0.2142 O   0  0  0  0  0  0  0  0  0  0  0  0
   10.5551   -0.0695   -1.3783 C   0  0  2  0  0  0  0  0  0  0  0  0
    9.7228   -0.4079   -2.5299 O   0  0  0  0  0  0  0  0  0  0  0  0
   10.2261   -1.0391   -0.2286 C   0  0  0  0  0  0  0  0  0  0  0  0
    8.8163   -1.0600    0.0264 O   0  0  0  0  0  0  0  0  0  0  0  0
  1  2  1  6  0  0  0
  1  3  1  0  0  0  0
  1  4  2  0  0  0  0
  1 16  1  0  0  0  0
  5  6  1  1  0  0  0
  5  7  1  0  0  0  0
  5 14  1  0  0  0  0
  7  8  1  6  0  0  0
  7  9  1  0  0  0  0
  9 10  1  1  0  0  0
  9 11  1  0  0  0  0
 11 12  1  1  0  0  0
 11 13  1  0  0  0  0
 13 14  1  0  0  0  0
 13 15  1  1  0  0  0
 15 16  1  0  0  0  0
M  CHG  1   3  -1
M  END
>  <CHROM.1>
67.03584909,158.35224750,-48.56093168,9.62930078,-0.13760086,-1.07747148
2.68504663,1.23062135,1.34961487

>  <Name>
ligand

>  <RI>
0

>  <Rbt.Current_Directory>
/home/itssahil/PROJECTS/Mol_Feturizer/New_Systems/rnas/2HO7

>  <Rbt.Executable>
rbdock ($Id: //depot/dev/client3/rdock/2013.1/src/exe/rbdock.cxx#4 $)

>  <Rbt.Library>
libRbt.so (2013.1, Build901 2013/11/27)

>  <Rbt.Parameter_File>
/export/apps/rDock/src/rDock_2013.1_src/data/scripts/dock_solv.prm

>  <Rbt.Receptor>
prm/blind_docking_80.prm

>  <SCORE>
-17.7311

>  <SCORE.INTER>
-19.0795

>  <SCORE.INTER.CONST>
1

>  <SCORE.INTER.POLAR>
-2.54558

>  <SCORE.INTER.ROT>
3

>  <SCORE.INTER.SOLV>
26.3784

>  <SCORE.INTER.VDW>
-18.6272

>  <SCORE.INTER.norm>
-1.19247

>  <SCORE.INTRA>
1.34837

>  <SCORE.INTRA.DIHEDRAL>
2.45101

>  <SCORE.INTRA.DIHEDRAL.0>
0.00893466

>  <SCORE.INTRA.POLAR>
0

>  <SCORE.INTRA.POLAR.0>
0

>  <SCORE.INTRA.REPUL>
0

>  <SCORE.INTRA.REPUL.0>
0

>  <SCORE.INTRA.SOLV>
0.13427

>  <SCORE.INTRA.SOLV.lig_0>
-48.9722

>  <SCORE.INTRA.VDW>
0.055727

>  <SCORE.INTRA.VDW.0>
-0.529409

>  <SCORE.INTRA.norm>
0.0842731

>  <SCORE.RESTR>
0

>  <SCORE.RESTR.CAVITY>
0

>  <SCORE.RESTR.norm>
0

>  <SCORE.SYSTEM>
0

>  <SCORE.SYSTEM.CONST>
0

>  <SCORE.SYSTEM.DIHEDRAL>
0

>  <SCORE.SYSTEM.SOLV>
0

>  <SCORE.SYSTEM.norm>
0

>  <SCORE.heavy>
16

>  <SCORE.norm>
-1.1082

>  <RMSD>
41.145

$$$$
ligand
 OpenBabel11021811433D
libRbt.so/2013.1/901 2013/11/27
 16 16  0  0  0  0  0  0  0  0999 V2000
    8.3374   -2.4721    0.8162 P   0  0  2  0  0  0  0  0  0  0  0  0
    6.8603   -2.6046    0.8697 O   0  0  0  0  0  0  0  0  0  0  0  0
    8.9555   -3.7265    0.0198 O   0  5  0  0  0  0  0  0  0  0  0  0
    8.9125   -2.4601    2.3204 O   0  0  0  0  0  0  0  0  0  0  0  0
   10.0194    0.5731   -3.5745 C   0  0  2  0  0  0  0  0  0  0  0  0
   11.3988    0.4626   -3.9692 O   0  0  0  0  0  0  0  0  0  0  0  0
    9.6941    2.0147   -3.1065 C   0  0  2  0  0  0  0  0  0  0  0  0
    9.9973    2.9691   -4.1794 O   0  0  0  0  0  0  0  0  0  0  0  0
   10.5593    2.3348   -1.8730 C   0  0  1  0  0  0  0  0  0  0  0  0
   10.2751    3.6615   -1.4130 O   0  0  0  0  0  0  0  0  0  0  0  0
   10.2193    1.3193   -0.7711 C   0  0  2  0  0  0  0  0  0  0  0  0
   11.0268    1.5910    0.3947 O   0  0  0  0  0  0  0  0  0  0  0  0
   10.5239   -0.1074   -1.3057 C   0  0  2  0  0  0  0  0  0  0  0  0
    9.7217   -0.3755   -2.4965 O   0  0  0  0  0  0  0  0  0  0  0  0
   10.1543   -1.1335   -0.2192 C   0  0  0  0  0  0  0  0  0  0  0  0
    8.7470   -1.1010    0.0481 O   0  0  0  0  0  0  0  0  0  0  0  0
  1  2  1  1  0  0  0
  1  3  1  0  0  0  0
  1  4  2  0  0  0  0
  1 16  1  0  0  0  0
  5  6  1  1  0  0  0
  5  7  1  0  0  0  0
  5 14  1  0  0  0  0
  7  8  1  6  0  0  0
  7  9  1  0  0  0  0
  9 10  1  1  0  0  0
  9 11  1  0  0  0  0
 11 12  1  1  0  0  0
 11 13  1  0  0  0  0
 13 14  1  0  0  0  0
 13 15  1  1  0  0  0
 15 16  1  0  0  0  0
M  CHG  1   3  -1
M  END
>  <CHROM.1>
63.80767209,162.24898034,-168.69506724,9.59941271,-0.14931690,-0.98657255
2.82054618,1.23067440,1.23552049

>  <Name>
ligand

>  <RI>
0

>  <Rbt.Current_Directory>
/home/itssahil/PROJECTS/Mol_Feturizer/New_Systems/rnas/2HO7

>  <Rbt.Executable>
rbdock ($Id: //depot/dev/client3/rdock/2013.1/src/exe/rbdock.cxx#4 $)

>  <Rbt.Library>
libRbt.so (2013.1, Build901 2013/11/27)

>  <Rbt.Parameter_File>
/export/apps/rDock/src/rDock_2013.1_src/data/scripts/dock_solv.prm

>  <Rbt.Receptor>
prm/blind_docking_40.prm

>  <SCORE>
-20.2539

>  <SCORE.INTER>
-21.5339

>  <SCORE.INTER.CONST>
1

>  <SCORE.INTER.POLAR>
-2.53848

>  <SCORE.INTER.ROT>
3

>  <SCORE.INTER.SOLV>
22.788

>  <SCORE.INTER.VDW>
-19.0904

>  <SCORE.INTER.norm>
-1.34587

>  <SCORE.INTRA>
1.2801

>  <SCORE.INTRA.DIHEDRAL>
1.69257

>  <SCORE.INTRA.DIHEDRAL.0>
0.00893466

>  <SCORE.INTRA.POLAR>
0

>  <SCORE.INTRA.POLAR.0>
0

>  <SCORE.INTRA.REPUL>
0

>  <SCORE.INTRA.REPUL.0>
0

>  <SCORE.INTRA.SOLV>
1.04074

>  <SCORE.INTRA.SOLV.lig_0>
-48.9722

>  <SCORE.INTRA.VDW>
-0.0865561

>  <SCORE.INTRA.VDW.0>
-0.529409

>  <SCORE.INTRA.norm>
0.080006

>  <SCORE.RESTR>
0

>  <SCORE.RESTR.CAVITY>
0

>  <SCORE.RESTR.norm>
0

>  <SCORE.SYSTEM>
0

>  <SCORE.SYSTEM.CONST>
0

>  <SCORE.SYSTEM.DIHEDRAL>
0

>  <SCORE.SYSTEM.SOLV>
0

>  <SCORE.SYSTEM.norm>
0

>  <SCORE.heavy>
16

>  <SCORE.norm>
-1.26587

>  <RMSD>
41.146

$$$$
ligand
 OpenBabel11021811433D
libRbt.so/2013.1/901 2013/11/27
 16 16  0  0  0  0  0  0  0  0999 V2000
    8.3380   -2.4623    0.8035 P   0  0  2  0  0  0  0  0  0  0  0  0
    6.8619   -2.6139    0.8261 O   0  0  0  0  0  0  0  0  0  0  0  0
    8.9892   -3.7117    0.0258 O   0  5  0  0  0  0  0  0  0  0  0  0
    8.8806   -2.4369    2.3196 O   0  0  0  0  0  0  0  0  0  0  0  0
   10.0099    0.5786   -3.5880 C   0  0  2  0  0  0  0  0  0  0  0  0
   11.3879    0.4657   -3.9868 O   0  0  0  0  0  0  0  0  0  0  0  0
    9.6873    2.0217   -3.1228 C   0  0  2  0  0  0  0  0  0  0  0  0
    9.9881    2.9730   -4.1992 O   0  0  0  0  0  0  0  0  0  0  0  0
   10.5566    2.3442   -1.8929 C   0  0  1  0  0  0  0  0  0  0  0  0
   10.2751    3.6724   -1.4355 O   0  0  0  0  0  0  0  0  0  0  0  0
   10.2191    1.3319   -0.7872 C   0  0  2  0  0  0  0  0  0  0  0  0
   11.0305    1.6058    0.3753 O   0  0  0  0  0  0  0  0  0  0  0  0
   10.5207   -0.0965   -1.3191 C   0  0  2  0  0  0  0  0  0  0  0  0
    9.7145   -0.3669   -2.5067 O   0  0  0  0  0  0  0  0  0  0  0  0
   10.1535   -1.1194   -0.2288 C   0  0  0  0  0  0  0  0  0  0  0  0
    8.7462   -1.0890    0.0386 O   0  0  0  0  0  0  0  0  0  0  0  0
  1  2  1  1  0  0  0
  1  3  1  0  0  0  0
  1  4  2  0  0  0  0
  1 16  1  0  0  0  0
  5  6  1  1  0  0  0
  5  7  1  0  0  0  0
  5 14  1  0  0  0  0
  7  8  1  6  0  0  0
  7  9  1  0  0  0  0
  9 10  1  1  0  0  0
  9 11  1  0  0  0  0
 11 12  1  1  0  0  0
 11 13  1  0  0  0  0
 13 14  1  0  0  0  0
 13 15  1  1  0  0  0
 15 16  1  0  0  0  0
M  CHG  1   3  -1
M  END
>  <CHROM.1>
64.06506858,161.89939655,-167.24973887,9.59698868,-0.13986630,-1.00135678
2.81128944,1.23066337,1.24446624

>  <Name>
ligand

>  <RI>
0

>  <Rbt.Current_Directory>
/home/itssahil/PROJECTS/Mol_Feturizer/New_Systems/rnas/2HO7

>  <Rbt.Executable>
rbdock ($Id: //depot/dev/client3/rdock/2013.1/src/exe/rbdock.cxx#4 $)

>  <Rbt.Library>
libRbt.so (2013.1, Build901 2013/11/27)

>  <Rbt.Parameter_File>
/export/apps/rDock/src/rDock_2013.1_src/data/scripts/dock_solv.prm

>  <Rbt.Receptor>
prm/blind_docking_40.prm

>  <SCORE>
-20.2399

>  <SCORE.INTER>
-21.6027

>  <SCORE.INTER.CONST>
1

>  <SCORE.INTER.POLAR>
-2.54388

>  <SCORE.INTER.ROT>
3

>  <SCORE.INTER.SOLV>
22.8366

>  <SCORE.INTER.VDW>
-19.1344

>  <SCORE.INTER.norm>
-1.35017

>  <SCORE.INTRA>
1.36279

>  <SCORE.INTRA.DIHEDRAL>
1.80635

>  <SCORE.INTRA.DIHEDRAL.0>
0.00893466

>  <SCORE.INTRA.POLAR>
0

>  <SCORE.INTRA.POLAR.0>
0

>  <SCORE.INTRA.REPUL>
0

>  <SCORE.INTRA.REPUL.0>
0

>  <SCORE.INTRA.SOLV>
1.04076

>  <SCORE.INTRA.SOLV.lig_0>
-48.9722

>  <SCORE.INTRA.VDW>
-0.0607661

>  <SCORE.INTRA.VDW.0>
-0.529409

>  <SCORE.INTRA.norm>
0.0851742

>  <SCORE.RESTR>
0

>  <SCORE.RESTR.CAVITY>
0

>  <SCORE.RESTR.norm>
0

>  <SCORE.SYSTEM>
0

>  <SCORE.SYSTEM.CONST>
0

>  <SCORE.SYSTEM.DIHEDRAL>
0

>  <SCORE.SYSTEM.SOLV>
0

>  <SCORE.SYSTEM.norm>
0

>  <SCORE.heavy>
16

>  <SCORE.norm>
-1.26499

>  <RMSD>
41.150

$$$$
ligand
 OpenBabel11021811433D
libRbt.so/2013.1/901 2013/11/27
 16 16  0  0  0  0  0  0  0  0999 V2000
    8.3260   -2.4643    0.8183 P   0  0  2  0  0  0  0  0  0  0  0  0
    6.8503   -2.6161    0.8578 O   0  0  0  0  0  0  0  0  0  0  0  0
    8.9669   -3.7034    0.0161 O   0  5  0  0  0  0  0  0  0  0  0  0
    8.8879   -2.4586    2.3275 O   0  0  0  0  0  0  0  0  0  0  0  0
   10.0309    0.5463   -3.5537 C   0  0  2  0  0  0  0  0  0  0  0  0
   11.4167    0.4429   -3.9272 O   0  0  0  0  0  0  0  0  0  0  0  0
    9.6823    1.9947   -3.1252 C   0  0  2  0  0  0  0  0  0  0  0  0
    9.9890    2.9265   -4.2169 O   0  0  0  0  0  0  0  0  0  0  0  0
   10.5268    2.3549   -1.8885 C   0  0  1  0  0  0  0  0  0  0  0  0
   10.2208    3.6888   -1.4647 O   0  0  0  0  0  0  0  0  0  0  0  0
   10.1838    1.3622   -0.7668 C   0  0  2  0  0  0  0  0  0  0  0  0
   10.9721    1.6717    0.4027 O   0  0  0  0  0  0  0  0  0  0  0  0
   10.5123   -0.0731   -1.2625 C   0  0  2  0  0  0  0  0  0  0  0  0
    9.7296   -0.3795   -2.4570 O   0  0  0  0  0  0  0  0  0  0  0  0
   10.1400   -1.0771   -0.1564 C   0  0  0  0  0  0  0  0  0  0  0  0
    8.7246   -1.0812    0.0661 O   0  0  0  0  0  0  0  0  0  0  0  0
  1  2  1  1  0  0  0
  1  3  1  0  0  0  0
  1  4  2  0  0  0  0
  1 16  1  0  0  0  0
  5  6  1  1  0  0  0
  5  7  1  0  0  0  0
  5 14  1  0  0  0  0
  7  8  1  6  0  0  0
  7  9  1  0  0  0  0
  9 10  1  1  0  0  0
  9 11  1  0  0  0  0
 11 12  1  1  0  0  0
 11 13  1  0  0  0  0
 13 14  1  0  0  0  0
 13 15  1  1  0  0  0
 15 16  1  0  0  0  0
M  CHG  1   3  -1
M  END
>  <CHROM.1>
65.36730954,160.33057049,-170.25854196,9.58451270,-0.13797952,-0.98048960
2.86177527,1.23575871,1.19086974

>  <Name>
ligand

>  <RI>
0

>  <Rbt.Current_Directory>
/home/itssahil/PROJECTS/Mol_Feturizer/New_Systems/rnas/2HO7

>  <Rbt.Executable>
rbdock ($Id: //depot/dev/client3/rdock/2013.1/src/exe/rbdock.cxx#4 $)

>  <Rbt.Library>
libRbt.so (2013.1, Build901 2013/11/27)

>  <Rbt.Parameter_File>
/export/apps/rDock/src/rDock_2013.1_src/data/scripts/dock_solv.prm

>  <Rbt.Receptor>
prm/blind_docking_20.prm

>  <SCORE>
-20.2467

>  <SCORE.INTER>
-21.6609

>  <SCORE.INTER.CONST>
1

>  <SCORE.INTER.POLAR>
-2.54558

>  <SCORE.INTER.ROT>
3

>  <SCORE.INTER.SOLV>
22.8267

>  <SCORE.INTER.VDW>
-19.1642

>  <SCORE.INTER.norm>
-1.3538

>  <SCORE.INTRA>
1.41417

>  <SCORE.INTRA.DIHEDRAL>
1.99254

>  <SCORE.INTRA.DIHEDRAL.0>
0.00893466

>  <SCORE.INTRA.POLAR>
0

>  <SCORE.INTRA.POLAR.0>
0

>  <SCORE.INTRA.REPUL>
0

>  <SCORE.INTRA.REPUL.0>
0

>  <SCORE.INTRA.SOLV>
1.08041

>  <SCORE.INTRA.SOLV.lig_0>
-48.9722

>  <SCORE.INTRA.VDW>
-0.122308

>  <SCORE.INTRA.VDW.0>
-0.529409

>  <SCORE.INTRA.norm>
0.0883854

>  <SCORE.RESTR>
0

>  <SCORE.RESTR.CAVITY>
0

>  <SCORE.RESTR.norm>
0

>  <SCORE.SYSTEM>
0

>  <SCORE.SYSTEM.CONST>
0

>  <SCORE.SYSTEM.DIHEDRAL>
0

>  <SCORE.SYSTEM.SOLV>
0

>  <SCORE.SYSTEM.norm>
0

>  <SCORE.heavy>
16

>  <SCORE.norm>
-1.26542

>  <RMSD>
41.153

$$$$
ligand
 OpenBabel11021811433D
libRbt.so/2013.1/901 2013/11/27
 16 16  0  0  0  0  0  0  0  0999 V2000
    8.3491   -2.5058    0.8115 P   0  0  2  0  0  0  0  0  0  0  0  0
    6.8729   -2.6523    0.8497 O   0  0  0  0  0  0  0  0  0  0  0  0
    8.9874   -3.7541    0.0214 O   0  5  0  0  0  0  0  0  0  0  0  0
    8.9084   -2.4888    2.3217 O   0  0  0  0  0  0  0  0  0  0  0  0
   10.0085    0.5912   -3.5682 C   0  0  2  0  0  0  0  0  0  0  0  0
   11.3887    0.4982   -3.9643 O   0  0  0  0  0  0  0  0  0  0  0  0
    9.6715    2.0225   -3.0773 C   0  0  2  0  0  0  0  0  0  0  0  0
    9.9671    2.9963   -4.1348 O   0  0  0  0  0  0  0  0  0  0  0  0
   10.5339    2.3298   -1.8387 C   0  0  1  0  0  0  0  0  0  0  0  0
   10.2389    3.6466   -1.3576 O   0  0  0  0  0  0  0  0  0  0  0  0
   10.2020    1.2940   -0.7532 C   0  0  2  0  0  0  0  0  0  0  0  0
   11.0072    1.5536    0.4169 O   0  0  0  0  0  0  0  0  0  0  0  0
   10.5181   -0.1214   -1.3105 C   0  0  2  0  0  0  0  0  0  0  0  0
    9.7183   -0.3769   -2.5056 O   0  0  0  0  0  0  0  0  0  0  0  0
   10.1567   -1.1677   -0.2406 C   0  0  0  0  0  0  0  0  0  0  0  0
    8.7538   -1.1307    0.0481 O   0  0  0  0  0  0  0  0  0  0  0  0
  1  2  1  1  0  0  0
  1  3  1  0  0  0  0
  1  4  2  0  0  0  0
  1 16  1  0  0  0  0
  5  6  1  1  0  0  0
  5  7  1  0  0  0  0
  5 14  1  0  0  0  0
  7  8  1  6  0  0  0
  7  9  1  0  0  0  0
  9 10  1  1  0  0  0
  9 11  1  0  0  0  0
 11 12  1  1  0  0  0
 11 13  1  0  0  0  0
 13 14  1  0  0  0  0
 13 15  1  1  0  0  0
 15 16  1  0  0  0  0
M  CHG  1   3  -1
M  END
>  <CHROM.1>
62.54278734,163.03395628,-166.97187974,9.59348690,-0.16410903,-0.97772644
2.83557174,1.23879837,1.22654905

>  <Name>
ligand

>  <RI>
0

>  <Rbt.Current_Directory>
/home/itssahil/PROJECTS/Mol_Feturizer/New_Systems/rnas/2HO7

>  <Rbt.Executable>
rbdock ($Id: //depot/dev/client3/rdock/2013.1/src/exe/rbdock.cxx#4 $)

>  <Rbt.Library>
libRbt.so (2013.1, Build901 2013/11/27)

>  <Rbt.Parameter_File>
/export/apps/rDock/src/rDock_2013.1_src/data/scripts/dock_solv.prm

>  <Rbt.Receptor>
prm/blind_docking_60.prm

>  <SCORE>
-20.2141

>  <SCORE.INTER>
-21.4847

>  <SCORE.INTER.CONST>
1

>  <SCORE.INTER.POLAR>
-2.5443

>  <SCORE.INTER.ROT>
3

>  <SCORE.INTER.SOLV>
22.8203

>  <SCORE.INTER.VDW>
-19.0489

>  <SCORE.INTER.norm>
-1.34279

>  <SCORE.INTRA>
1.27061

>  <SCORE.INTRA.DIHEDRAL>
1.61128

>  <SCORE.INTRA.DIHEDRAL.0>
0.00893466

>  <SCORE.INTRA.POLAR>
0

>  <SCORE.INTRA.POLAR.0>
0

>  <SCORE.INTRA.REPUL>
0

>  <SCORE.INTRA.REPUL.0>
0

>  <SCORE.INTRA.SOLV>
1.0229

>  <SCORE.INTRA.SOLV.lig_0>
-48.9722

>  <SCORE.INTRA.VDW>
-0.0464762

>  <SCORE.INTRA.VDW.0>
-0.529409

>  <SCORE.INTRA.norm>
0.0794134

>  <SCORE.RESTR>
0

>  <SCORE.RESTR.CAVITY>
0

>  <SCORE.RESTR.norm>
0

>  <SCORE.SYSTEM>
0

>  <SCORE.SYSTEM.CONST>
0

>  <SCORE.SYSTEM.DIHEDRAL>
0

>  <SCORE.SYSTEM.SOLV>
0

>  <SCORE.SYSTEM.norm>
0

>  <SCORE.heavy>
16

>  <SCORE.norm>
-1.26338

>  <RMSD>
41.153

$$$$
ligand
 OpenBabel11021811433D
libRbt.so/2013.1/901 2013/11/27
 16 16  0  0  0  0  0  0  0  0999 V2000
    8.3274   -2.4736    0.8092 P   0  0  2  0  0  0  0  0  0  0  0  0
    6.8503   -2.6120    0.8463 O   0  0  0  0  0  0  0  0  0  0  0  0
    8.9596   -3.7275    0.0232 O   0  5  0  0  0  0  0  0  0  0  0  0
    8.8853   -2.4554    2.3199 O   0  0  0  0  0  0  0  0  0  0  0  0
   10.0200    0.5708   -3.5821 C   0  0  2  0  0  0  0  0  0  0  0  0
   11.4011    0.4644   -3.9718 O   0  0  0  0  0  0  0  0  0  0  0  0
    9.6893    2.0109   -3.1133 C   0  0  2  0  0  0  0  0  0  0  0  0
    9.9942    2.9676   -4.1837 O   0  0  0  0  0  0  0  0  0  0  0  0
   10.5491    2.3315   -1.8762 C   0  0  1  0  0  0  0  0  0  0  0  0
   10.2599    3.6568   -1.4153 O   0  0  0  0  0  0  0  0  0  0  0  0
   10.2076    1.3135   -0.7769 C   0  0  2  0  0  0  0  0  0  0  0  0
   11.0101    1.5855    0.3922 O   0  0  0  0  0  0  0  0  0  0  0  0
   10.5177   -0.1116   -1.3125 C   0  0  2  0  0  0  0  0  0  0  0  0
    9.7206   -0.3800   -2.5066 O   0  0  0  0  0  0  0  0  0  0  0  0
   10.1466   -1.1403   -0.2288 C   0  0  0  0  0  0  0  0  0  0  0  0
    8.7402   -1.1028    0.0424 O   0  0  0  0  0  0  0  0  0  0  0  0
  1  2  1  1  0  0  0
  1  3  1  0  0  0  0
  1  4  2  0  0  0  0
  1 16  1  0  0  0  0
  5  6  1  1  0  0  0
  5  7  1  0  0  0  0
  5 14  1  0  0  0  0
  7  8  1  6  0  0  0
  7  9  1  0  0  0  0
  9 10  1  1  0  0  0
  9 11  1  0  0  0  0
 11 12  1  1  0  0  0
 11 13  1  0  0  0  0
 13 14  1  0  0  0  0
 13 15  1  1  0  0  0
 15 16  1  0  0  0  0
M  CHG  1   3  -1
M  END
>  <CHROM.1>
63.26201285,162.36896485,-167.73987689,9.59147971,-0.15212702,-0.99251189
2.83597646,1.23168903,1.21893674

>  <Name>
ligand

>  <RI>
0

>  <Rbt.Current_Directory>
/home/itssahil/PROJECTS/Mol_Feturizer/New_Systems/rnas/2HO7

>  <Rbt.Executable>
rbdock ($Id: //depot/dev/client3/rdock/2013.1/src/exe/rbdock.cxx#4 $)

>  <Rbt.Library>
libRbt.so (2013.1, Build901 2013/11/27)

>  <Rbt.Parameter_File>
/export/apps/rDock/src/rDock_2013.1_src/data/scripts/dock_solv.prm

>  <Rbt.Receptor>
prm/blind_docking_100.prm

>  <SCORE>
-20.2928

>  <SCORE.INTER>
-21.5924

>  <SCORE.INTER.CONST>
1

>  <SCORE.INTER.POLAR>
-2.53946

>  <SCORE.INTER.ROT>
3

>  <SCORE.INTER.SOLV>
22.8957

>  <SCORE.INTER.VDW>
-19.162

>  <SCORE.INTER.norm>
-1.34952

>  <SCORE.INTRA>
1.29956

>  <SCORE.INTRA.DIHEDRAL>
1.6953

>  <SCORE.INTRA.DIHEDRAL.0>
0.00893466

>  <SCORE.INTRA.POLAR>
0

>  <SCORE.INTRA.POLAR.0>
0

>  <SCORE.INTRA.REPUL>
0

>  <SCORE.INTRA.REPUL.0>
0

>  <SCORE.INTRA.SOLV>
1.03657

>  <SCORE.INTRA.SOLV.lig_0>
-48.9722

>  <SCORE.INTRA.VDW>
-0.0663778

>  <SCORE.INTRA.VDW.0>
-0.529409

>  <SCORE.INTRA.norm>
0.0812223

>  <SCORE.RESTR>
0

>  <SCORE.RESTR.CAVITY>
0

>  <SCORE.RESTR.norm>
0

>  <SCORE.SYSTEM>
0

>  <SCORE.SYSTEM.CONST>
0

>  <SCORE.SYSTEM.DIHEDRAL>
0

>  <SCORE.SYSTEM.SOLV>
0

>  <SCORE.SYSTEM.norm>
0

>  <SCORE.heavy>
16

>  <SCORE.norm>
-1.2683

>  <RMSD>
41.156

$$$$
ligand
 OpenBabel11021811433D
libRbt.so/2013.1/901 2013/11/27
 16 16  0  0  0  0  0  0  0  0999 V2000
    8.3417   -2.4673    0.8214 P   0  0  2  0  0  0  0  0  0  0  0  0
    6.8657   -2.6054    0.8882 O   0  0  0  0  0  0  0  0  0  0  0  0
    8.9586   -3.7262    0.0312 O   0  5  0  0  0  0  0  0  0  0  0  0
    8.9290   -2.4395    2.3207 O   0  0  0  0  0  0  0  0  0  0  0  0
    9.9965    0.6239   -3.5773 C   0  0  2  0  0  0  0  0  0  0  0  0
   11.3782    0.5367   -3.9696 O   0  0  0  0  0  0  0  0  0  0  0  0
    9.6522    2.0536   -3.0870 C   0  0  2  0  0  0  0  0  0  0  0  0
    9.9468    3.0290   -4.1434 O   0  0  0  0  0  0  0  0  0  0  0  0
   10.5099    2.3642   -1.8459 C   0  0  1  0  0  0  0  0  0  0  0  0
   10.2081    3.6797   -1.3653 O   0  0  0  0  0  0  0  0  0  0  0  0
   10.1792    1.3268   -0.7616 C   0  0  2  0  0  0  0  0  0  0  0  0
   10.9800    1.5893    0.4109 O   0  0  0  0  0  0  0  0  0  0  0  0
   10.5027   -0.0872   -1.3184 C   0  0  2  0  0  0  0  0  0  0  0  0
    9.7073   -0.3456   -2.5157 O   0  0  0  0  0  0  0  0  0  0  0  0
   10.1427   -1.1353   -0.2498 C   0  0  0  0  0  0  0  0  0  0  0  0
    8.7394   -1.1015    0.0378 O   0  0  0  0  0  0  0  0  0  0  0  0
  1  2  1  1  0  0  0
  1  3  1  0  0  0  0
  1  4  2  0  0  0  0
  1 16  1  0  0  0  0
  5  6  1  1  0  0  0
  5  7  1  0  0  0  0
  5 14  1  0  0  0  0
  7  8  1  6  0  0  0
  7  9  1  0  0  0  0
  9 10  1  1  0  0  0
  9 11  1  0  0  0  0
 11 12  1  1  0  0  0
 11 13  1  0  0  0  0
 13 14  1  0  0  0  0
 13 15  1  1  0  0  0
 15 16  1  0  0  0  0
M  CHG  1   3  -1
M  END
>  <CHROM.1>
62.37564746,163.95444630,-168.25885712,9.57886140,-0.12871588,-0.97922310
2.84940091,1.24280789,1.20804470

>  <Name>
ligand

>  <RI>
0

>  <Rbt.Current_Directory>
/home/itssahil/PROJECTS/Mol_Feturizer/New_Systems/rnas/2HO7

>  <Rbt.Executable>
rbdock ($Id: //depot/dev/client3/rdock/2013.1/src/exe/rbdock.cxx#4 $)

>  <Rbt.Library>
libRbt.so (2013.1, Build901 2013/11/27)

>  <Rbt.Parameter_File>
/export/apps/rDock/src/rDock_2013.1_src/data/scripts/dock_solv.prm

>  <Rbt.Receptor>
prm/blind_docking_20.prm

>  <SCORE>
-20.1576

>  <SCORE.INTER>
-21.3081

>  <SCORE.INTER.CONST>
1

>  <SCORE.INTER.POLAR>
-2.53443

>  <SCORE.INTER.ROT>
3

>  <SCORE.INTER.SOLV>
22.9372

>  <SCORE.INTER.VDW>
-19.003

>  <SCORE.INTER.norm>
-1.33176

>  <SCORE.INTRA>
1.15046

>  <SCORE.INTRA.DIHEDRAL>
1.42764

>  <SCORE.INTRA.DIHEDRAL.0>
0.00893466

>  <SCORE.INTRA.POLAR>
0

>  <SCORE.INTRA.POLAR.0>
0

>  <SCORE.INTRA.REPUL>
0

>  <SCORE.INTRA.REPUL.0>
0

>  <SCORE.INTRA.SOLV>
1.01092

>  <SCORE.INTRA.SOLV.lig_0>
-48.9722

>  <SCORE.INTRA.VDW>
-0.0688165

>  <SCORE.INTRA.VDW.0>
-0.529409

>  <SCORE.INTRA.norm>
0.0719039

>  <SCORE.RESTR>
0

>  <SCORE.RESTR.CAVITY>
0

>  <SCORE.RESTR.norm>
0

>  <SCORE.SYSTEM>
0

>  <SCORE.SYSTEM.CONST>
0

>  <SCORE.SYSTEM.DIHEDRAL>
0

>  <SCORE.SYSTEM.SOLV>
0

>  <SCORE.SYSTEM.norm>
0

>  <SCORE.heavy>
16

>  <SCORE.norm>
-1.25985

>  <RMSD>
41.156

$$$$
ligand
 OpenBabel11021811433D
libRbt.so/2013.1/901 2013/11/27
 16 16  0  0  0  0  0  0  0  0999 V2000
    8.3177   -2.3095    0.8150 P   0  0  2  0  0  0  0  0  0  0  0  0
    6.8530   -2.5477    0.8124 O   0  0  0  0  0  0  0  0  0  0  0  0
    9.0524   -3.5038    0.0253 O   0  5  0  0  0  0  0  0  0  0  0  0
    8.8362   -2.2806    2.3395 O   0  0  0  0  0  0  0  0  0  0  0  0
   10.0944    0.3651   -3.5689 C   0  0  2  0  0  0  0  0  0  0  0  0
   11.4939    0.2207   -3.8711 O   0  0  0  0  0  0  0  0  0  0  0  0
    9.7248    1.8573   -3.3699 C   0  0  2  0  0  0  0  0  0  0  0  0
   10.0699    2.6227   -4.5738 O   0  0  0  0  0  0  0  0  0  0  0  0
   10.5200    2.4016   -2.1683 C   0  0  1  0  0  0  0  0  0  0  0  0
   10.1935    3.7802   -1.9556 O   0  0  0  0  0  0  0  0  0  0  0  0
   10.1375    1.5800   -0.9273 C   0  0  2  0  0  0  0  0  0  0  0  0
   10.8794    2.0637    0.2131 O   0  0  0  0  0  0  0  0  0  0  0  0
   10.4896    0.0907   -1.1955 C   0  0  2  0  0  0  0  0  0  0  0  0
    9.7544   -0.3936   -2.3608 O   0  0  0  0  0  0  0  0  0  0  0  0
   10.0786   -0.7445    0.0307 C   0  0  0  0  0  0  0  0  0  0  0  0
    8.6552   -0.9006    0.0810 O   0  0  0  0  0  0  0  0  0  0  0  0
  1  2  1  6  0  0  0
  1  3  1  0  0  0  0
  1  4  2  0  0  0  0
  1 16  1  0  0  0  0
  5  6  1  1  0  0  0
  5  7  1  0  0  0  0
  5 14  1  0  0  0  0
  7  8  1  6  0  0  0
  7  9  1  0  0  0  0
  9 10  1  1  0  0  0
  9 11  1  0  0  0  0
 11 12  1  1  0  0  0
 11 13  1  0  0  0  0
 13 14  1  0  0  0  0
 13 15  1  1  0  0  0
 15 16  1  0  0  0  0
M  CHG  1   3  -1
M  END
>  <CHROM.1>
74.26583440,150.75079363,-176.53172243,9.58354290,-0.05923727,-1.05932624
2.93414980,1.23431704,1.06997479

>  <Name>
ligand

>  <RI>
0

>  <Rbt.Current_Directory>
/home/itssahil/PROJECTS/Mol_Feturizer/New_Systems/rnas/2HO7

>  <Rbt.Executable>
rbdock ($Id: //depot/dev/client3/rdock/2013.1/src/exe/rbdock.cxx#4 $)

>  <Rbt.Library>
libRbt.so (2013.1, Build901 2013/11/27)

>  <Rbt.Parameter_File>
/export/apps/rDock/src/rDock_2013.1_src/data/scripts/dock_solv.prm

>  <Rbt.Receptor>
prm/blind_docking_40.prm

>  <SCORE>
-19.9032

>  <SCORE.INTER>
-22.4475

>  <SCORE.INTER.CONST>
1

>  <SCORE.INTER.POLAR>
-2.54238

>  <SCORE.INTER.ROT>
3

>  <SCORE.INTER.SOLV>
22.3368

>  <SCORE.INTER.VDW>
-19.536

>  <SCORE.INTER.norm>
-1.40297

>  <SCORE.INTRA>
2.5443

>  <SCORE.INTRA.DIHEDRAL>
4.17092

>  <SCORE.INTRA.DIHEDRAL.0>
0.00893466

>  <SCORE.INTRA.POLAR>
0

>  <SCORE.INTRA.POLAR.0>
0

>  <SCORE.INTRA.REPUL>
0

>  <SCORE.INTRA.REPUL.0>
0

>  <SCORE.INTRA.SOLV>
1.29077

>  <SCORE.INTRA.SOLV.lig_0>
-48.9722

>  <SCORE.INTRA.VDW>
-0.18655

>  <SCORE.INTRA.VDW.0>
-0.529409

>  <SCORE.INTRA.norm>
0.159019

>  <SCORE.RESTR>
0

>  <SCORE.RESTR.CAVITY>
0

>  <SCORE.RESTR.norm>
0

>  <SCORE.SYSTEM>
0

>  <SCORE.SYSTEM.CONST>
0

>  <SCORE.SYSTEM.DIHEDRAL>
0

>  <SCORE.SYSTEM.SOLV>
0

>  <SCORE.SYSTEM.norm>
0

>  <SCORE.heavy>
16

>  <SCORE.norm>
-1.24395

>  <RMSD>
41.156

$$$$
ligand
 OpenBabel11021811433D
libRbt.so/2013.1/901 2013/11/27
 16 16  0  0  0  0  0  0  0  0999 V2000
    8.3193   -2.3224    0.8050 P   0  0  2  0  0  0  0  0  0  0  0  0
    6.8485   -2.5179    0.8355 O   0  0  0  0  0  0  0  0  0  0  0  0
    8.9977   -3.5181   -0.0314 O   0  5  0  0  0  0  0  0  0  0  0  0
    8.8774   -2.3453    2.3155 O   0  0  0  0  0  0  0  0  0  0  0  0
   10.0878    0.3574   -3.5800 C   0  0  2  0  0  0  0  0  0  0  0  0
   11.4835    0.2110   -3.8984 O   0  0  0  0  0  0  0  0  0  0  0  0
    9.7263    1.8487   -3.3604 C   0  0  2  0  0  0  0  0  0  0  0  0
   10.0620    2.6263   -4.5590 O   0  0  0  0  0  0  0  0  0  0  0  0
   10.5361    2.3762   -2.1611 C   0  0  1  0  0  0  0  0  0  0  0  0
   10.2173    3.7536   -1.9294 O   0  0  0  0  0  0  0  0  0  0  0  0
   10.1632    1.5422   -0.9255 C   0  0  2  0  0  0  0  0  0  0  0  0
   10.9188    2.0101    0.2125 O   0  0  0  0  0  0  0  0  0  0  0  0
   10.5065    0.0546   -1.2140 C   0  0  2  0  0  0  0  0  0  0  0  0
    9.7573   -0.4136   -2.3771 O   0  0  0  0  0  0  0  0  0  0  0  0
   10.1049   -0.7928    0.0068 C   0  0  0  0  0  0  0  0  0  0  0  0
    8.6793   -0.9066    0.0954 O   0  0  0  0  0  0  0  0  0  0  0  0
  1  2  1  1  0  0  0
  1  3  1  0  0  0  0
  1  4  2  0  0  0  0
  1 16  1  0  0  0  0
  5  6  1  1  0  0  0
  5  7  1  0  0  0  0
  5 14  1  0  0  0  0
  7  8  1  6  0  0  0
  7  9  1  0  0  0  0
  9 10  1  1  0  0  0
  9 11  1  0  0  0  0
 11 12  1  1  0  0  0
 11 13  1  0  0  0  0
 13 14  1  0  0  0  0
 13 15  1  1  0  0  0
 15 16  1  0  0  0  0
M  CHG  1   3  -1
M  END
>  <CHROM.1>
72.33751342,150.50189631,-176.32432718,9.59132903,-0.07955824,-1.06533420
2.90147281,1.23035234,1.10565859

>  <Name>
ligand

>  <RI>
0

>  <Rbt.Current_Directory>
/home/itssahil/PROJECTS/Mol_Feturizer/New_Systems/rnas/2HO7

>  <Rbt.Executable>
rbdock ($Id: //depot/dev/client3/rdock/2013.1/src/exe/rbdock.cxx#4 $)

>  <Rbt.Library>
libRbt.so (2013.1, Build901 2013/11/27)

>  <Rbt.Parameter_File>
/export/apps/rDock/src/rDock_2013.1_src/data/scripts/dock_solv.prm

>  <Rbt.Receptor>
prm/blind_docking_20.prm

>  <SCORE>
-20.0707

>  <SCORE.INTER>
-22.5558

>  <SCORE.INTER.CONST>
1

>  <SCORE.INTER.POLAR>
-2.54558

>  <SCORE.INTER.ROT>
3

>  <SCORE.INTER.SOLV>
22.338

>  <SCORE.INTER.VDW>
-19.5979

>  <SCORE.INTER.norm>
-1.40974

>  <SCORE.INTRA>
2.48506

>  <SCORE.INTRA.DIHEDRAL>
4.04942

>  <SCORE.INTRA.DIHEDRAL.0>
0.00893466

>  <SCORE.INTRA.POLAR>
0

>  <SCORE.INTRA.POLAR.0>
0

>  <SCORE.INTRA.REPUL>
0

>  <SCORE.INTRA.REPUL.0>
0

>  <SCORE.INTRA.SOLV>
1.30892

>  <SCORE.INTRA.SOLV.lig_0>
-48.9722

>  <SCORE.INTRA.VDW>
-0.194116

>  <SCORE.INTRA.VDW.0>
-0.529409

>  <SCORE.INTRA.norm>
0.155316

>  <SCORE.RESTR>
0

>  <SCORE.RESTR.CAVITY>
0

>  <SCORE.RESTR.norm>
0

>  <SCORE.SYSTEM>
0

>  <SCORE.SYSTEM.CONST>
0

>  <SCORE.SYSTEM.DIHEDRAL>
0

>  <SCORE.SYSTEM.SOLV>
0

>  <SCORE.SYSTEM.norm>
0

>  <SCORE.heavy>
16

>  <SCORE.norm>
-1.25442

>  <RMSD>
41.157

$$$$
ligand
 OpenBabel11021811433D
libRbt.so/2013.1/901 2013/11/27
 16 16  0  0  0  0  0  0  0  0999 V2000
    8.3473   -2.4294    0.7979 P   0  0  2  0  0  0  0  0  0  0  0  0
    6.8712   -2.5747    0.8475 O   0  0  0  0  0  0  0  0  0  0  0  0
    8.9773   -3.6717   -0.0080 O   0  5  0  0  0  0  0  0  0  0  0  0
    8.9194   -2.4256    2.3033 O   0  0  0  0  0  0  0  0  0  0  0  0
   10.0196    0.5037   -3.6212 C   0  0  2  0  0  0  0  0  0  0  0  0
   11.4008    0.3871   -4.0079 O   0  0  0  0  0  0  0  0  0  0  0  0
    9.6818    1.9618   -3.2176 C   0  0  2  0  0  0  0  0  0  0  0  0
    9.9800    2.8706   -4.3308 O   0  0  0  0  0  0  0  0  0  0  0  0
   10.5415    2.3427   -1.9977 C   0  0  1  0  0  0  0  0  0  0  0  0
   10.2457    3.6860   -1.5969 O   0  0  0  0  0  0  0  0  0  0  0  0
   10.2070    1.3738   -0.8529 C   0  0  2  0  0  0  0  0  0  0  0  0
   11.0096    1.7029    0.3014 O   0  0  0  0  0  0  0  0  0  0  0  0
   10.5241   -0.0725   -1.3238 C   0  0  2  0  0  0  0  0  0  0  0  0
    9.7268   -0.3990   -2.5032 O   0  0  0  0  0  0  0  0  0  0  0  0
   10.1601   -1.0528   -0.1940 C   0  0  0  0  0  0  0  0  0  0  0  0
    8.7469   -1.0484    0.0425 O   0  0  0  0  0  0  0  0  0  0  0  0
  1  2  1  1  0  0  0
  1  3  1  0  0  0  0
  1  4  2  0  0  0  0
  1 16  1  0  0  0  0
  5  6  1  1  0  0  0
  5  7  1  0  0  0  0
  5 14  1  0  0  0  0
  7  8  1  6  0  0  0
  7  9  1  0  0  0  0
  9 10  1  1  0  0  0
  9 11  1  0  0  0  0
 11 12  1  1  0  0  0
 11 13  1  0  0  0  0
 13 14  1  0  0  0  0
 13 15  1  1  0  0  0
 15 16  1  0  0  0  0
M  CHG  1   3  -1
M  END
>  <CHROM.1>
65.47826159,159.12863410,-170.04743736,9.59769986,-0.13396476,-1.04142043
2.82259653,1.23447918,1.21538008

>  <Name>
ligand

>  <RI>
0

>  <Rbt.Current_Directory>
/home/itssahil/PROJECTS/Mol_Feturizer/New_Systems/rnas/2HO7

>  <Rbt.Executable>
rbdock ($Id: //depot/dev/client3/rdock/2013.1/src/exe/rbdock.cxx#4 $)

>  <Rbt.Library>
libRbt.so (2013.1, Build901 2013/11/27)

>  <Rbt.Parameter_File>
/export/apps/rDock/src/rDock_2013.1_src/data/scripts/dock_solv.prm

>  <Rbt.Receptor>
prm/blind_docking_60.prm

>  <SCORE>
-20.1997

>  <SCORE.INTER>
-21.7304

>  <SCORE.INTER.CONST>
1

>  <SCORE.INTER.POLAR>
-2.54369

>  <SCORE.INTER.ROT>
3

>  <SCORE.INTER.SOLV>
22.6259

>  <SCORE.INTER.VDW>
-19.1499

>  <SCORE.INTER.norm>
-1.35815

>  <SCORE.INTRA>
1.53066

>  <SCORE.INTRA.DIHEDRAL>
2.20111

>  <SCORE.INTRA.DIHEDRAL.0>
0.00893466

>  <SCORE.INTRA.POLAR>
0

>  <SCORE.INTRA.POLAR.0>
0

>  <SCORE.INTRA.REPUL>
0

>  <SCORE.INTRA.REPUL.0>
0

>  <SCORE.INTRA.SOLV>
1.10537

>  <SCORE.INTRA.SOLV.lig_0>
-48.9722

>  <SCORE.INTRA.VDW>
-0.12258

>  <SCORE.INTRA.VDW.0>
-0.529409

>  <SCORE.INTRA.norm>
0.0956664

>  <SCORE.RESTR>
0

>  <SCORE.RESTR.CAVITY>
0

>  <SCORE.RESTR.norm>
0

>  <SCORE.SYSTEM>
0

>  <SCORE.SYSTEM.CONST>
0

>  <SCORE.SYSTEM.DIHEDRAL>
0

>  <SCORE.SYSTEM.SOLV>
0

>  <SCORE.SYSTEM.norm>
0

>  <SCORE.heavy>
16

>  <SCORE.norm>
-1.26248

>  <RMSD>
41.161

$$$$
ligand
 OpenBabel11021811433D
libRbt.so/2013.1/901 2013/11/27
 16 16  0  0  0  0  0  0  0  0999 V2000
    8.3481   -2.4338    0.7983 P   0  0  2  0  0  0  0  0  0  0  0  0
    6.8718   -2.5779    0.8465 O   0  0  0  0  0  0  0  0  0  0  0  0
    8.9783   -3.6795   -0.0022 O   0  5  0  0  0  0  0  0  0  0  0  0
    8.9183   -2.4249    2.3044 O   0  0  0  0  0  0  0  0  0  0  0  0
   10.0211    0.4980   -3.6265 C   0  0  2  0  0  0  0  0  0  0  0  0
   11.4017    0.3801   -4.0146 O   0  0  0  0  0  0  0  0  0  0  0  0
    9.6856    1.9558   -3.2199 C   0  0  2  0  0  0  0  0  0  0  0  0
    9.9842    2.8663   -4.3317 O   0  0  0  0  0  0  0  0  0  0  0  0
   10.5468    2.3332   -2.0000 C   0  0  1  0  0  0  0  0  0  0  0  0
   10.2532    3.6761   -1.5964 O   0  0  0  0  0  0  0  0  0  0  0  0
   10.2119    1.3626   -0.8567 C   0  0  2  0  0  0  0  0  0  0  0  0
   11.0158    1.6884    0.2976 O   0  0  0  0  0  0  0  0  0  0  0  0
   10.5265   -0.0832   -1.3306 C   0  0  2  0  0  0  0  0  0  0  0  0
    9.7279   -0.4064   -2.5100 O   0  0  0  0  0  0  0  0  0  0  0  0
   10.1621   -1.0652   -0.2023 C   0  0  0  0  0  0  0  0  0  0  0  0
    8.7496   -1.0558    0.0384 O   0  0  0  0  0  0  0  0  0  0  0  0
  1  2  1  1  0  0  0
  1  3  1  0  0  0  0
  1  4  2  0  0  0  0
  1 16  1  0  0  0  0
  5  6  1  1  0  0  0
  5  7  1  0  0  0  0
  5 14  1  0  0  0  0
  7  8  1  6  0  0  0
  7  9  1  0  0  0  0
  9 10  1  1  0  0  0
  9 11  1  0  0  0  0
 11 12  1  1  0  0  0
 11 13  1  0  0  0  0
 13 14  1  0  0  0  0
 13 15  1  1  0  0  0
 15 16  1  0  0  0  0
M  CHG  1   3  -1
M  END
>  <CHROM.1>
65.28223892,159.42564903,-169.75661063,9.60029373,-0.14122032,-1.04386991
2.82027717,1.23365206,1.21679756

>  <Name>
ligand

>  <RI>
0

>  <Rbt.Current_Directory>
/home/itssahil/PROJECTS/Mol_Feturizer/New_Systems/rnas/2HO7

>  <Rbt.Executable>
rbdock ($Id: //depot/dev/client3/rdock/2013.1/src/exe/rbdock.cxx#4 $)

>  <Rbt.Library>
libRbt.so (2013.1, Build901 2013/11/27)

>  <Rbt.Parameter_File>
/export/apps/rDock/src/rDock_2013.1_src/data/scripts/dock_solv.prm

>  <Rbt.Receptor>
prm/blind_docking_40.prm

>  <SCORE>
-20.2045

>  <SCORE.INTER>
-21.7139

>  <SCORE.INTER.CONST>
1

>  <SCORE.INTER.POLAR>
-2.54328

>  <SCORE.INTER.ROT>
3

>  <SCORE.INTER.SOLV>
22.6145

>  <SCORE.INTER.VDW>
-19.1365

>  <SCORE.INTER.norm>
-1.35712

>  <SCORE.INTRA>
1.50933

>  <SCORE.INTRA.DIHEDRAL>
2.15328

>  <SCORE.INTRA.DIHEDRAL.0>
0.00893466

>  <SCORE.INTRA.POLAR>
0

>  <SCORE.INTRA.POLAR.0>
0

>  <SCORE.INTRA.REPUL>
0

>  <SCORE.INTRA.REPUL.0>
0

>  <SCORE.INTRA.SOLV>
1.09848

>  <SCORE.INTRA.SOLV.lig_0>
-48.9722

>  <SCORE.INTRA.VDW>
-0.116547

>  <SCORE.INTRA.VDW.0>
-0.529409

>  <SCORE.INTRA.norm>
0.0943334

>  <SCORE.RESTR>
0

>  <SCORE.RESTR.CAVITY>
0

>  <SCORE.RESTR.norm>
0

>  <SCORE.SYSTEM>
0

>  <SCORE.SYSTEM.CONST>
0

>  <SCORE.SYSTEM.DIHEDRAL>
0

>  <SCORE.SYSTEM.SOLV>
0

>  <SCORE.SYSTEM.norm>
0

>  <SCORE.heavy>
16

>  <SCORE.norm>
-1.26278

>  <RMSD>
41.162

$$$$
ligand
 OpenBabel11021811433D
libRbt.so/2013.1/901 2013/11/27
 16 16  0  0  0  0  0  0  0  0999 V2000
    8.4102   -2.4188    0.8021 P   0  0  2  0  0  0  0  0  0  0  0  0
    8.9272   -2.3801    2.1926 O   0  0  0  0  0  0  0  0  0  0  0  0
    6.8086   -2.5720    0.8341 O   0  5  0  0  0  0  0  0  0  0  0  0
    9.0518   -3.6869    0.0446 O   0  0  0  0  0  0  0  0  0  0  0  0
    9.9870    0.4942   -3.6734 C   0  0  2  0  0  0  0  0  0  0  0  0
   11.3579    0.3715   -4.0933 O   0  0  0  0  0  0  0  0  0  0  0  0
    9.6652    1.9539   -3.2628 C   0  0  2  0  0  0  0  0  0  0  0  0
    9.9403    2.8609   -4.3834 O   0  0  0  0  0  0  0  0  0  0  0  0
   10.5557    2.3318   -2.0642 C   0  0  1  0  0  0  0  0  0  0  0  0
   10.2754    3.6766   -1.6573 O   0  0  0  0  0  0  0  0  0  0  0  0
   10.2448    1.3650   -0.9110 C   0  0  2  0  0  0  0  0  0  0  0  0
   11.0764    1.6912    0.2234 O   0  0  0  0  0  0  0  0  0  0  0  0
   10.5443   -0.0829   -1.3885 C   0  0  2  0  0  0  0  0  0  0  0  0
    9.7174   -0.4066   -2.5481 O   0  0  0  0  0  0  0  0  0  0  0  0
   10.2035   -1.0611   -0.2496 C   0  0  0  0  0  0  0  0  0  0  0  0
    8.7972   -1.0463    0.0247 O   0  0  0  0  0  0  0  0  0  0  0  0
  1  2  1  1  0  0  0
  1  3  1  0  0  0  0
  1  4  2  0  0  0  0
  1 16  1  0  0  0  0
  5  6  1  1  0  0  0
  5  7  1  0  0  0  0
  5 14  1  0  0  0  0
  7  8  1  6  0  0  0
  7  9  1  0  0  0  0
  9 10  1  1  0  0  0
  9 11  1  0  0  0  0
 11 12  1  1  0  0  0
 11 13  1  0  0  0  0
 13 14  1  0  0  0  0
 13 15  1  1  0  0  0
 15 16  1  0  0  0  0
M  CHG  1   3  -1
M  END
>  <CHROM.1>
65.23810886,159.63461498,72.27965745,9.61362900,-0.13676184,-1.08453094,2.77174869
1.23374203,1.26214080

>  <Name>
ligand

>  <RI>
0

>  <Rbt.Current_Directory>
/home/itssahil/PROJECTS/Mol_Feturizer/New_Systems/rnas/2HO7

>  <Rbt.Executable>
rbdock ($Id: //depot/dev/client3/rdock/2013.1/src/exe/rbdock.cxx#4 $)

>  <Rbt.Library>
libRbt.so (2013.1, Build901 2013/11/27)

>  <Rbt.Parameter_File>
/export/apps/rDock/src/rDock_2013.1_src/data/scripts/dock_solv.prm

>  <Rbt.Receptor>
prm/blind_docking_60.prm

>  <SCORE>
-17.9392

>  <SCORE.INTER>
-19.2659

>  <SCORE.INTER.CONST>
1

>  <SCORE.INTER.POLAR>
-2.54558

>  <SCORE.INTER.ROT>
3

>  <SCORE.INTER.SOLV>
25.905

>  <SCORE.INTER.VDW>
-18.5937

>  <SCORE.INTER.norm>
-1.20412

>  <SCORE.INTRA>
1.32674

>  <SCORE.INTRA.DIHEDRAL>
2.18799

>  <SCORE.INTRA.DIHEDRAL.0>
0.00893466

>  <SCORE.INTRA.POLAR>
0

>  <SCORE.INTRA.POLAR.0>
0

>  <SCORE.INTRA.REPUL>
0

>  <SCORE.INTRA.REPUL.0>
0

>  <SCORE.INTRA.SOLV>
0.586633

>  <SCORE.INTRA.SOLV.lig_0>
-48.9722

>  <SCORE.INTRA.VDW>
-0.0605725

>  <SCORE.INTRA.VDW.0>
-0.529409

>  <SCORE.INTRA.norm>
0.0829213

>  <SCORE.RESTR>
0

>  <SCORE.RESTR.CAVITY>
0

>  <SCORE.RESTR.norm>
0

>  <SCORE.SYSTEM>
0

>  <SCORE.SYSTEM.CONST>
0

>  <SCORE.SYSTEM.DIHEDRAL>
0

>  <SCORE.SYSTEM.SOLV>
0

>  <SCORE.SYSTEM.norm>
0

>  <SCORE.heavy>
16

>  <SCORE.norm>
-1.1212

>  <RMSD>
41.162

$$$$
ligand
 OpenBabel11021811433D
libRbt.so/2013.1/901 2013/11/27
 16 16  0  0  0  0  0  0  0  0999 V2000
    8.3126   -2.3081    0.8055 P   0  0  2  0  0  0  0  0  0  0  0  0
    6.8460   -2.5346    0.8159 O   0  0  0  0  0  0  0  0  0  0  0  0
    9.0269   -3.4862   -0.0262 O   0  5  0  0  0  0  0  0  0  0  0  0
    8.8514   -2.3250    2.3230 O   0  0  0  0  0  0  0  0  0  0  0  0
   10.1088    0.3251   -3.5608 C   0  0  2  0  0  0  0  0  0  0  0  0
   11.5111    0.1852   -3.8514 O   0  0  0  0  0  0  0  0  0  0  0  0
    9.7282    1.8178   -3.3875 C   0  0  2  0  0  0  0  0  0  0  0  0
   10.0766    2.5667   -4.6007 O   0  0  0  0  0  0  0  0  0  0  0  0
   10.5117    2.3857   -2.1891 C   0  0  1  0  0  0  0  0  0  0  0  0
   10.1749    3.7653   -2.0000 O   0  0  0  0  0  0  0  0  0  0  0  0
   10.1262    1.5809   -0.9381 C   0  0  2  0  0  0  0  0  0  0  0  0
   10.8572    2.0870    0.1996 O   0  0  0  0  0  0  0  0  0  0  0  0
   10.4897    0.0900   -1.1808 C   0  0  2  0  0  0  0  0  0  0  0  0
    9.7655   -0.4170   -2.3435 O   0  0  0  0  0  0  0  0  0  0  0  0
   10.0757   -0.7289    0.0553 C   0  0  0  0  0  0  0  0  0  0  0  0
    8.6520   -0.8824    0.1056 O   0  0  0  0  0  0  0  0  0  0  0  0
  1  2  1  6  0  0  0
  1  3  1  0  0  0  0
  1  4  2  0  0  0  0
  1 16  1  0  0  0  0
  5  6  1  1  0  0  0
  5  7  1  0  0  0  0
  5 14  1  0  0  0  0
  7  8  1  6  0  0  0
  7  9  1  0  0  0  0
  9 10  1  1  0  0  0
  9 11  1  0  0  0  0
 11 12  1  1  0  0  0
 11 13  1  0  0  0  0
 13 14  1  0  0  0  0
 13 15  1  1  0  0  0
 15 16  1  0  0  0  0
M  CHG  1   3  -1
M  END
>  <CHROM.1>
73.70213382,148.58408969,-177.22916618,9.58102211,-0.06950501,-1.06599702
2.95628265,1.23413638,1.04360596

>  <Name>
ligand

>  <RI>
0

>  <Rbt.Current_Directory>
/home/itssahil/PROJECTS/Mol_Feturizer/New_Systems/rnas/2HO7

>  <Rbt.Executable>
rbdock ($Id: //depot/dev/client3/rdock/2013.1/src/exe/rbdock.cxx#4 $)

>  <Rbt.Library>
libRbt.so (2013.1, Build901 2013/11/27)

>  <Rbt.Parameter_File>
/export/apps/rDock/src/rDock_2013.1_src/data/scripts/dock_solv.prm

>  <Rbt.Receptor>
prm/blind_docking_60.prm

>  <SCORE>
-20.0197

>  <SCORE.INTER>
-22.7541

>  <SCORE.INTER.CONST>
1

>  <SCORE.INTER.POLAR>
-2.54173

>  <SCORE.INTER.ROT>
3

>  <SCORE.INTER.SOLV>
22.3271

>  <SCORE.INTER.VDW>
-19.7393

>  <SCORE.INTER.norm>
-1.42213

>  <SCORE.INTRA>
2.73445

>  <SCORE.INTRA.DIHEDRAL>
4.51994

>  <SCORE.INTRA.DIHEDRAL.0>
0.00893466

>  <SCORE.INTRA.POLAR>
0

>  <SCORE.INTRA.POLAR.0>
0

>  <SCORE.INTRA.REPUL>
0

>  <SCORE.INTRA.REPUL.0>
0

>  <SCORE.INTRA.SOLV>
1.35777

>  <SCORE.INTRA.SOLV.lig_0>
-48.9722

>  <SCORE.INTRA.VDW>
-0.20441

>  <SCORE.INTRA.VDW.0>
-0.529409

>  <SCORE.INTRA.norm>
0.170903

>  <SCORE.RESTR>
0

>  <SCORE.RESTR.CAVITY>
0

>  <SCORE.RESTR.norm>
0

>  <SCORE.SYSTEM>
0

>  <SCORE.SYSTEM.CONST>
0

>  <SCORE.SYSTEM.DIHEDRAL>
0

>  <SCORE.SYSTEM.SOLV>
0

>  <SCORE.SYSTEM.norm>
0

>  <SCORE.heavy>
16

>  <SCORE.norm>
-1.25123

>  <RMSD>
41.163

$$$$
ligand
 OpenBabel11021811433D
libRbt.so/2013.1/901 2013/11/27
 16 16  0  0  0  0  0  0  0  0999 V2000
    8.3314   -2.2188    0.7495 P   0  0  2  0  0  0  0  0  0  0  0  0
    6.9325   -2.7095    0.6817 O   0  0  0  0  0  0  0  0  0  0  0  0
    9.2716   -3.1659   -0.1499 O   0  5  0  0  0  0  0  0  0  0  0  0
    8.8277   -2.2749    2.2806 O   0  0  0  0  0  0  0  0  0  0  0  0
   10.3045    0.0464   -3.3307 C   0  0  2  0  0  0  0  0  0  0  0  0
   11.7379   -0.0708   -3.3811 O   0  0  0  0  0  0  0  0  0  0  0  0
    9.8641    1.5172   -3.5443 C   0  0  2  0  0  0  0  0  0  0  0  0
   10.3729    2.0098   -4.8298 O   0  0  0  0  0  0  0  0  0  0  0  0
   10.4424    2.3713   -2.4004 C   0  0  1  0  0  0  0  0  0  0  0  0
   10.0457    3.7377   -2.5677 O   0  0  0  0  0  0  0  0  0  0  0  0
    9.8925    1.8301   -1.0714 C   0  0  2  0  0  0  0  0  0  0  0  0
   10.4296    2.6080    0.0200 O   0  0  0  0  0  0  0  0  0  0  0  0
   10.3265    0.3452   -0.9276 C   0  0  2  0  0  0  0  0  0  0  0  0
    9.7999   -0.4384   -2.0419 O   0  0  0  0  0  0  0  0  0  0  0  0
    9.7512   -0.2145    0.3861 C   0  0  0  0  0  0  0  0  0  0  0  0
    8.4169   -0.6975    0.1875 O   0  0  0  0  0  0  0  0  0  0  0  0
  1  2  1  6  0  0  0
  1  3  1  0  0  0  0
  1  4  2  0  0  0  0
  1 16  1  0  0  0  0
  5  6  1  1  0  0  0
  5  7  1  0  0  0  0
  5 14  1  0  0  0  0
  7  8  1  6  0  0  0
  7  9  1  0  0  0  0
  9 10  1  6  0  0  0
  9 11  1  0  0  0  0
 11 12  1  1  0  0  0
 11 13  1  0  0  0  0
 13 14  1  0  0  0  0
 13 15  1  1  0  0  0
 15 16  1  0  0  0  0
M  CHG  1   3  -1
M  END
>  <CHROM.1>
85.83757074,127.78905328,174.56984974,9.56312198,-0.03230802,-1.08209720
-2.90863799,1.21929890,0.57903397

>  <Name>
ligand

>  <RI>
0

>  <Rbt.Current_Directory>
/home/itssahil/PROJECTS/Mol_Feturizer/New_Systems/rnas/2HO7

>  <Rbt.Executable>
rbdock ($Id: //depot/dev/client3/rdock/2013.1/src/exe/rbdock.cxx#4 $)

>  <Rbt.Library>
libRbt.so (2013.1, Build901 2013/11/27)

>  <Rbt.Parameter_File>
/export/apps/rDock/src/rDock_2013.1_src/data/scripts/dock_solv.prm

>  <Rbt.Receptor>
prm/blind_docking_100.prm

>  <SCORE>
-18.7226

>  <SCORE.INTER>
-23.9244

>  <SCORE.INTER.CONST>
1

>  <SCORE.INTER.POLAR>
-2.54274

>  <SCORE.INTER.ROT>
3

>  <SCORE.INTER.SOLV>
21.2709

>  <SCORE.INTER.VDW>
-20.1641

>  <SCORE.INTER.norm>
-1.49528

>  <SCORE.INTRA>
5.2018

>  <SCORE.INTRA.DIHEDRAL>
9.01215

>  <SCORE.INTRA.DIHEDRAL.0>
0.00893466

>  <SCORE.INTRA.POLAR>
0

>  <SCORE.INTRA.POLAR.0>
0

>  <SCORE.INTRA.REPUL>
0

>  <SCORE.INTRA.REPUL.0>
0

>  <SCORE.INTRA.SOLV>
2.0287

>  <SCORE.INTRA.SOLV.lig_0>
-48.9722

>  <SCORE.INTRA.VDW>
-0.318621

>  <SCORE.INTRA.VDW.0>
-0.529409

>  <SCORE.INTRA.norm>
0.325113

>  <SCORE.RESTR>
0

>  <SCORE.RESTR.CAVITY>
0

>  <SCORE.RESTR.norm>
0

>  <SCORE.SYSTEM>
0

>  <SCORE.SYSTEM.CONST>
0

>  <SCORE.SYSTEM.DIHEDRAL>
0

>  <SCORE.SYSTEM.SOLV>
0

>  <SCORE.SYSTEM.norm>
0

>  <SCORE.heavy>
16

>  <SCORE.norm>
-1.17016

>  <RMSD>
41.167

$$$$
ligand
 OpenBabel11021811433D
libRbt.so/2013.1/901 2013/11/27
 16 16  0  0  0  0  0  0  0  0999 V2000
    8.4680   -2.0844    0.7229 P   0  0  2  0  0  0  0  0  0  0  0  0
    9.6239   -2.5227   -0.0981 O   0  0  0  0  0  0  0  0  0  0  0  0
    8.8915   -2.0743    2.2754 O   0  5  0  0  0  0  0  0  0  0  0  0
    7.2554   -3.1222    0.5082 O   0  0  0  0  0  0  0  0  0  0  0  0
   10.5214   -0.0934   -2.8076 C   0  0  2  0  0  0  0  0  0  0  0  0
   11.9240   -0.0127   -2.4963 O   0  0  0  0  0  0  0  0  0  0  0  0
   10.0232    1.2258   -3.4516 C   0  0  2  0  0  0  0  0  0  0  0  0
   10.8003    1.5157   -4.6624 O   0  0  0  0  0  0  0  0  0  0  0  0
   10.2103    2.3671   -2.4343 C   0  0  1  0  0  0  0  0  0  0  0  0
    9.7515    3.6006   -3.0003 O   0  0  0  0  0  0  0  0  0  0  0  0
    9.3868    2.0330   -1.1807 C   0  0  2  0  0  0  0  0  0  0  0  0
    9.5544    3.0840   -0.2049 O   0  0  0  0  0  0  0  0  0  0  0  0
    9.8980    0.6852   -0.6009 C   0  0  2  0  0  0  0  0  0  0  0  0
    9.7469   -0.3745   -1.5945 O   0  0  0  0  0  0  0  0  0  0  0  0
    9.0555    0.3265    0.6367 C   0  0  0  0  0  0  0  0  0  0  0  0
    8.0096   -0.5885    0.2875 O   0  0  0  0  0  0  0  0  0  0  0  0
  1  2  1  6  0  0  0
  1  3  1  0  0  0  0
  1  4  2  0  0  0  0
  1 16  1  0  0  0  0
  5  6  1  1  0  0  0
  5  7  1  0  0  0  0
  5 14  1  0  0  0  0
  7  8  1  6  0  0  0
  7  9  1  0  0  0  0
  9 10  1  6  0  0  0
  9 11  1  0  0  0  0
 11 12  1  1  0  0  0
 11 13  1  0  0  0  0
 13 14  1  0  0  0  0
 13 15  1  1  0  0  0
 15 16  1  0  0  0  0
M  CHG  1   3  -1
M  END
>  <CHROM.1>
97.08430144,100.65621053,-66.58450674,9.48340811,0.05135291,-0.97922118,-2.32397240
1.08509075,-0.04890122

>  <Name>
ligand

>  <RI>
0

>  <Rbt.Current_Directory>
/home/itssahil/PROJECTS/Mol_Feturizer/New_Systems/rnas/2HO7

>  <Rbt.Executable>
rbdock ($Id: //depot/dev/client3/rdock/2013.1/src/exe/rbdock.cxx#4 $)

>  <Rbt.Library>
libRbt.so (2013.1, Build901 2013/11/27)

>  <Rbt.Parameter_File>
/export/apps/rDock/src/rDock_2013.1_src/data/scripts/dock_solv.prm

>  <Rbt.Receptor>
prm/blind_docking_80.prm

>  <SCORE>
-17.5448

>  <SCORE.INTER>
-22.6751

>  <SCORE.INTER.CONST>
1

>  <SCORE.INTER.POLAR>
-2.54251

>  <SCORE.INTER.ROT>
3

>  <SCORE.INTER.SOLV>
26.0652

>  <SCORE.INTER.VDW>
-20.9301

>  <SCORE.INTER.norm>
-1.41719

>  <SCORE.INTRA>
5.12973

>  <SCORE.INTRA.DIHEDRAL>
9.16376

>  <SCORE.INTRA.DIHEDRAL.0>
0.00893466

>  <SCORE.INTRA.POLAR>
0

>  <SCORE.INTRA.POLAR.0>
0

>  <SCORE.INTRA.REPUL>
0

>  <SCORE.INTRA.REPUL.0>
0

>  <SCORE.INTRA.SOLV>
1.24138

>  <SCORE.INTRA.SOLV.lig_0>
-48.9722

>  <SCORE.INTRA.VDW>
-0.0728401

>  <SCORE.INTRA.VDW.0>
-0.529409

>  <SCORE.INTRA.norm>
0.320608

>  <SCORE.RESTR>
0.000550313

>  <SCORE.RESTR.CAVITY>
0.000550313

>  <SCORE.RESTR.norm>
3.43946e-05

>  <SCORE.SYSTEM>
0

>  <SCORE.SYSTEM.CONST>
0

>  <SCORE.SYSTEM.DIHEDRAL>
0

>  <SCORE.SYSTEM.SOLV>
0

>  <SCORE.SYSTEM.norm>
0

>  <SCORE.heavy>
16

>  <SCORE.norm>
-1.09655

>  <RMSD>
41.170

$$$$
ligand
 OpenBabel11021811433D
libRbt.so/2013.1/901 2013/11/27
 16 16  0  0  0  0  0  0  0  0999 V2000
    8.3063   -2.3055    0.7989 P   0  0  2  0  0  0  0  0  0  0  0  0
    6.8402   -2.5351    0.8129 O   0  0  0  0  0  0  0  0  0  0  0  0
    9.0208   -3.4802   -0.0374 O   0  5  0  0  0  0  0  0  0  0  0  0
    8.8494   -2.3244    2.3149 O   0  0  0  0  0  0  0  0  0  0  0  0
   10.1130    0.3086   -3.5657 C   0  0  2  0  0  0  0  0  0  0  0  0
   11.5180    0.1749   -3.8464 O   0  0  0  0  0  0  0  0  0  0  0  0
    9.7224    1.8004   -3.4074 C   0  0  2  0  0  0  0  0  0  0  0  0
   10.0738    2.5412   -4.6247 O   0  0  0  0  0  0  0  0  0  0  0  0
   10.4949    2.3831   -2.2091 C   0  0  1  0  0  0  0  0  0  0  0  0
   10.1486    3.7622   -2.0337 O   0  0  0  0  0  0  0  0  0  0  0  0
   10.1063    1.5866   -0.9537 C   0  0  2  0  0  0  0  0  0  0  0  0
   10.8271    2.1067    0.1842 O   0  0  0  0  0  0  0  0  0  0  0  0
   10.4804    0.0959   -1.1815 C   0  0  2  0  0  0  0  0  0  0  0  0
    9.7666   -0.4253   -2.3443 O   0  0  0  0  0  0  0  0  0  0  0  0
   10.0636   -0.7151    0.0589 C   0  0  0  0  0  0  0  0  0  0  0  0
    8.6406   -0.8775    0.1011 O   0  0  0  0  0  0  0  0  0  0  0  0
  1  2  1  6  0  0  0
  1  3  1  0  0  0  0
  1  4  2  0  0  0  0
  1 16  1  0  0  0  0
  5  6  1  1  0  0  0
  5  7  1  0  0  0  0
  5 14  1  0  0  0  0
  7  8  1  6  0  0  0
  7  9  1  0  0  0  0
  9 10  1  1  0  0  0
  9 11  1  0  0  0  0
 11 12  1  1  0  0  0
 11 13  1  0  0  0  0
 13 14  1  0  0  0  0
 13 15  1  1  0  0  0
 15 16  1  0  0  0  0
M  CHG  1   3  -1
M  END
>  <CHROM.1>
73.73763242,148.07828589,-177.77961849,9.57232433,-0.07073001,-1.07576593
2.98037123,1.23599187,1.01550441

>  <Name>
ligand

>  <RI>
0

>  <Rbt.Current_Directory>
/home/itssahil/PROJECTS/Mol_Feturizer/New_Systems/rnas/2HO7

>  <Rbt.Executable>
rbdock ($Id: //depot/dev/client3/rdock/2013.1/src/exe/rbdock.cxx#4 $)

>  <Rbt.Library>
libRbt.so (2013.1, Build901 2013/11/27)

>  <Rbt.Parameter_File>
/export/apps/rDock/src/rDock_2013.1_src/data/scripts/dock_solv.prm

>  <Rbt.Receptor>
prm/blind_docking_20.prm

>  <SCORE>
-19.9265

>  <SCORE.INTER>
-22.6797

>  <SCORE.INTER.CONST>
1

>  <SCORE.INTER.POLAR>
-2.54558

>  <SCORE.INTER.ROT>
3

>  <SCORE.INTER.SOLV>
22.3928

>  <SCORE.INTER.VDW>
-19.6988

>  <SCORE.INTER.norm>
-1.41748

>  <SCORE.INTRA>
2.75314

>  <SCORE.INTRA.DIHEDRAL>
4.61369

>  <SCORE.INTRA.DIHEDRAL.0>
0.00893466

>  <SCORE.INTRA.POLAR>
0

>  <SCORE.INTRA.POLAR.0>
0

>  <SCORE.INTRA.REPUL>
0

>  <SCORE.INTRA.REPUL.0>
0

>  <SCORE.INTRA.SOLV>
1.37411

>  <SCORE.INTRA.SOLV.lig_0>
-48.9722

>  <SCORE.INTRA.VDW>
-0.240764

>  <SCORE.INTRA.VDW.0>
-0.529409

>  <SCORE.INTRA.norm>
0.172071

>  <SCORE.RESTR>
0

>  <SCORE.RESTR.CAVITY>
0

>  <SCORE.RESTR.norm>
0

>  <SCORE.SYSTEM>
0

>  <SCORE.SYSTEM.CONST>
0

>  <SCORE.SYSTEM.DIHEDRAL>
0

>  <SCORE.SYSTEM.SOLV>
0

>  <SCORE.SYSTEM.norm>
0

>  <SCORE.heavy>
16

>  <SCORE.norm>
-1.24541

>  <RMSD>
41.174

$$$$
ligand
 OpenBabel11021811433D
libRbt.so/2013.1/901 2013/11/27
 16 16  0  0  0  0  0  0  0  0999 V2000
    8.3183   -2.3185    0.8056 P   0  0  2  0  0  0  0  0  0  0  0  0
    6.8448   -2.4934    0.8283 O   0  0  0  0  0  0  0  0  0  0  0  0
    8.9873   -3.5443    0.0059 O   0  5  0  0  0  0  0  0  0  0  0  0
    8.8635   -2.3101    2.3210 O   0  0  0  0  0  0  0  0  0  0  0  0
   10.0658    0.3633   -3.6411 C   0  0  2  0  0  0  0  0  0  0  0  0
   11.4569    0.2223   -3.9811 O   0  0  0  0  0  0  0  0  0  0  0  0
    9.7095    1.8497   -3.3829 C   0  0  2  0  0  0  0  0  0  0  0  0
   10.0308    2.6540   -4.5679 O   0  0  0  0  0  0  0  0  0  0  0  0
   10.5358    2.3487   -2.1826 C   0  0  1  0  0  0  0  0  0  0  0  0
   10.2224    3.7209   -1.9156 O   0  0  0  0  0  0  0  0  0  0  0  0
   10.1778    1.4872   -0.9616 C   0  0  2  0  0  0  0  0  0  0  0  0
   10.9489    1.9280    0.1768 O   0  0  0  0  0  0  0  0  0  0  0  0
   10.5149    0.0061   -1.2884 C   0  0  2  0  0  0  0  0  0  0  0  0
    9.7497   -0.4344   -2.4519 O   0  0  0  0  0  0  0  0  0  0  0  0
   10.1278   -0.8684   -0.0820 C   0  0  0  0  0  0  0  0  0  0  0  0
    8.7035   -0.9264    0.0632 O   0  0  0  0  0  0  0  0  0  0  0  0
  1  2  1  1  0  0  0
  1  3  1  0  0  0  0
  1  4  2  0  0  0  0
  1 16  1  0  0  0  0
  5  6  1  1  0  0  0
  5  7  1  0  0  0  0
  5 14  1  0  0  0  0
  7  8  1  6  0  0  0
  7  9  1  0  0  0  0
  9 10  1  1  0  0  0
  9 11  1  0  0  0  0
 11 12  1  1  0  0  0
 11 13  1  0  0  0  0
 13 14  1  0  0  0  0
 13 15  1  1  0  0  0
 15 16  1  0  0  0  0
M  CHG  1   3  -1
M  END
>  <CHROM.1>
69.39019943,153.32270448,-173.18271921,9.58952539,-0.09484644,-1.09285599
2.87673458,1.23035368,1.12268075

>  <Name>
ligand

>  <RI>
0

>  <Rbt.Current_Directory>
/home/itssahil/PROJECTS/Mol_Feturizer/New_Systems/rnas/2HO7

>  <Rbt.Executable>
rbdock ($Id: //depot/dev/client3/rdock/2013.1/src/exe/rbdock.cxx#4 $)

>  <Rbt.Library>
libRbt.so (2013.1, Build901 2013/11/27)

>  <Rbt.Parameter_File>
/export/apps/rDock/src/rDock_2013.1_src/data/scripts/dock_solv.prm

>  <Rbt.Receptor>
prm/blind_docking_40.prm

>  <SCORE>
-20.0021

>  <SCORE.INTER>
-22.1411

>  <SCORE.INTER.CONST>
1

>  <SCORE.INTER.POLAR>
-2.5455

>  <SCORE.INTER.ROT>
3

>  <SCORE.INTER.SOLV>
22.4806

>  <SCORE.INTER.VDW>
-19.3693

>  <SCORE.INTER.norm>
-1.38382

>  <SCORE.INTRA>
2.139

>  <SCORE.INTRA.DIHEDRAL>
3.35505

>  <SCORE.INTRA.DIHEDRAL.0>
0.00893466

>  <SCORE.INTRA.POLAR>
0

>  <SCORE.INTRA.POLAR.0>
0

>  <SCORE.INTRA.REPUL>
0

>  <SCORE.INTRA.REPUL.0>
0

>  <SCORE.INTRA.SOLV>
1.23853

>  <SCORE.INTRA.SOLV.lig_0>
-48.9722

>  <SCORE.INTRA.VDW>
-0.157797

>  <SCORE.INTRA.VDW.0>
-0.529409

>  <SCORE.INTRA.norm>
0.133687

>  <SCORE.RESTR>
0

>  <SCORE.RESTR.CAVITY>
0

>  <SCORE.RESTR.norm>
0

>  <SCORE.SYSTEM>
0

>  <SCORE.SYSTEM.CONST>
0

>  <SCORE.SYSTEM.DIHEDRAL>
0

>  <SCORE.SYSTEM.SOLV>
0

>  <SCORE.SYSTEM.norm>
0

>  <SCORE.heavy>
16

>  <SCORE.norm>
-1.25013

>  <RMSD>
41.174

$$$$
ligand
 OpenBabel11021811433D
libRbt.so/2013.1/901 2013/11/27
 16 16  0  0  0  0  0  0  0  0999 V2000
    8.3048   -2.3111    0.7997 P   0  0  2  0  0  0  0  0  0  0  0  0
    6.8376   -2.5334    0.8065 O   0  0  0  0  0  0  0  0  0  0  0  0
    9.0171   -3.4866   -0.0374 O   0  5  0  0  0  0  0  0  0  0  0  0
    8.8411   -2.3379    2.3180 O   0  0  0  0  0  0  0  0  0  0  0  0
   10.1160    0.2927   -3.5694 C   0  0  2  0  0  0  0  0  0  0  0  0
   11.5202    0.1575   -3.8536 O   0  0  0  0  0  0  0  0  0  0  0  0
    9.7277    1.7847   -3.4079 C   0  0  2  0  0  0  0  0  0  0  0  0
   10.0773    2.5269   -4.6249 O   0  0  0  0  0  0  0  0  0  0  0  0
   10.5039    2.3646   -2.2105 C   0  0  1  0  0  0  0  0  0  0  0  0
   10.1598    3.7438   -2.0323 O   0  0  0  0  0  0  0  0  0  0  0  0
   10.1172    1.5667   -0.9555 C   0  0  2  0  0  0  0  0  0  0  0  0
   10.8413    2.0841    0.1815 O   0  0  0  0  0  0  0  0  0  0  0  0
   10.4887    0.0758   -1.1864 C   0  0  2  0  0  0  0  0  0  0  0  0
    9.7715   -0.4427   -2.3483 O   0  0  0  0  0  0  0  0  0  0  0  0
   10.0738   -0.7365    0.0538 C   0  0  0  0  0  0  0  0  0  0  0  0
    8.6495   -0.8826    0.1082 O   0  0  0  0  0  0  0  0  0  0  0  0
  1  2  1  6  0  0  0
  1  3  1  0  0  0  0
  1  4  2  0  0  0  0
  1 16  1  0  0  0  0
  5  6  1  1  0  0  0
  5  7  1  0  0  0  0
  5 14  1  0  0  0  0
  7  8  1  6  0  0  0
  7  9  1  0  0  0  0
  9 10  1  1  0  0  0
  9 11  1  0  0  0  0
 11 12  1  1  0  0  0
 11 13  1  0  0  0  0
 13 14  1  0  0  0  0
 13 15  1  1  0  0  0
 15 16  1  0  0  0  0
M  CHG  1   3  -1
M  END
>  <CHROM.1>
73.00282229,147.98384778,-176.88476516,9.57648238,-0.08435130,-1.07713406
2.97287202,1.23390430,1.02151996

>  <Name>
ligand

>  <RI>
0

>  <Rbt.Current_Directory>
/home/itssahil/PROJECTS/Mol_Feturizer/New_Systems/rnas/2HO7

>  <Rbt.Executable>
rbdock ($Id: //depot/dev/client3/rdock/2013.1/src/exe/rbdock.cxx#4 $)

>  <Rbt.Library>
libRbt.so (2013.1, Build901 2013/11/27)

>  <Rbt.Parameter_File>
/export/apps/rDock/src/rDock_2013.1_src/data/scripts/dock_solv.prm

>  <Rbt.Receptor>
prm/blind_docking_80.prm

>  <SCORE>
-19.9827

>  <SCORE.INTER>
-22.7196

>  <SCORE.INTER.CONST>
1

>  <SCORE.INTER.POLAR>
-2.54558

>  <SCORE.INTER.ROT>
3

>  <SCORE.INTER.SOLV>
22.387

>  <SCORE.INTER.VDW>
-19.7235

>  <SCORE.INTER.norm>
-1.41998

>  <SCORE.INTRA>
2.73696

>  <SCORE.INTRA.DIHEDRAL>
4.57376

>  <SCORE.INTRA.DIHEDRAL.0>
0.00893466

>  <SCORE.INTRA.POLAR>
0

>  <SCORE.INTRA.POLAR.0>
0

>  <SCORE.INTRA.REPUL>
0

>  <SCORE.INTRA.REPUL.0>
0

>  <SCORE.INTRA.SOLV>
1.37851

>  <SCORE.INTRA.SOLV.lig_0>
-48.9722

>  <SCORE.INTRA.VDW>
-0.239178

>  <SCORE.INTRA.VDW.0>
-0.529409

>  <SCORE.INTRA.norm>
0.17106

>  <SCORE.RESTR>
0

>  <SCORE.RESTR.CAVITY>
0

>  <SCORE.RESTR.norm>
0

>  <SCORE.SYSTEM>
0

>  <SCORE.SYSTEM.CONST>
0

>  <SCORE.SYSTEM.DIHEDRAL>
0

>  <SCORE.SYSTEM.SOLV>
0

>  <SCORE.SYSTEM.norm>
0

>  <SCORE.heavy>
16

>  <SCORE.norm>
-1.24892

>  <RMSD>
41.175

$$$$
ligand
 OpenBabel11021811433D
libRbt.so/2013.1/901 2013/11/27
 16 16  0  0  0  0  0  0  0  0999 V2000
    8.4406   -2.1922    0.7231 P   0  0  2  0  0  0  0  0  0  0  0  0
    8.6360   -2.2801    2.1915 O   0  0  0  0  0  0  0  0  0  0  0  0
    7.2879   -3.2228    0.2772 O   0  5  0  0  0  0  0  0  0  0  0  0
    9.8199   -2.5864   -0.0088 O   0  0  0  0  0  0  0  0  0  0  0  0
   10.5410   -0.1205   -2.7481 C   0  0  2  0  0  0  0  0  0  0  0  0
   11.9404   -0.0466   -2.4211 O   0  0  0  0  0  0  0  0  0  0  0  0
   10.0484    1.2134   -3.3654 C   0  0  2  0  0  0  0  0  0  0  0  0
   10.8372    1.5323   -4.5613 O   0  0  0  0  0  0  0  0  0  0  0  0
   10.2247    2.3303   -2.3195 C   0  0  1  0  0  0  0  0  0  0  0  0
    9.7706    3.5767   -2.8605 O   0  0  0  0  0  0  0  0  0  0  0  0
    9.3890    1.9662   -1.0824 C   0  0  2  0  0  0  0  0  0  0  0  0
    9.5464    2.9937   -0.0802 O   0  0  0  0  0  0  0  0  0  0  0  0
    9.8954    0.6052   -0.5297 C   0  0  2  0  0  0  0  0  0  0  0  0
    9.7547   -0.4306   -1.5497 O   0  0  0  0  0  0  0  0  0  0  0  0
    9.0410    0.2168    0.6906 C   0  0  0  0  0  0  0  0  0  0  0  0
    7.9962   -0.6862    0.3086 O   0  0  0  0  0  0  0  0  0  0  0  0
  1  2  1  1  0  0  0
  1  3  1  0  0  0  0
  1  4  2  0  0  0  0
  1 16  1  0  0  0  0
  5  6  1  1  0  0  0
  5  7  1  0  0  0  0
  5 14  1  0  0  0  0
  7  8  1  6  0  0  0
  7  9  1  0  0  0  0
  9 10  1  6  0  0  0
  9 11  1  0  0  0  0
 11 12  1  1  0  0  0
 11 13  1  0  0  0  0
 13 14  1  0  0  0  0
 13 15  1  1  0  0  0
 15 16  1  0  0  0  0
M  CHG  1   3  -1
M  END
>  <CHROM.1>
96.87355078,101.22622483,61.03521794,9.48427821,-0.02052960,-0.93649659,-2.30695727
1.06112025,-0.04077164

>  <Name>
ligand

>  <RI>
0

>  <Rbt.Current_Directory>
/home/itssahil/PROJECTS/Mol_Feturizer/New_Systems/rnas/2HO7

>  <Rbt.Executable>
rbdock ($Id: //depot/dev/client3/rdock/2013.1/src/exe/rbdock.cxx#4 $)

>  <Rbt.Library>
libRbt.so (2013.1, Build901 2013/11/27)

>  <Rbt.Parameter_File>
/export/apps/rDock/src/rDock_2013.1_src/data/scripts/dock_solv.prm

>  <Rbt.Receptor>
prm/blind_docking_40.prm

>  <SCORE>
-18.2091

>  <SCORE.INTER>
-24.1234

>  <SCORE.INTER.CONST>
1

>  <SCORE.INTER.POLAR>
-2.54558

>  <SCORE.INTER.ROT>
3

>  <SCORE.INTER.SOLV>
23.0702

>  <SCORE.INTER.VDW>
-20.8871

>  <SCORE.INTER.norm>
-1.50771

>  <SCORE.INTRA>
5.91429

>  <SCORE.INTRA.DIHEDRAL>
9.1573

>  <SCORE.INTRA.DIHEDRAL.0>
0.00893466

>  <SCORE.INTRA.POLAR>
0

>  <SCORE.INTRA.POLAR.0>
0

>  <SCORE.INTRA.REPUL>
0

>  <SCORE.INTRA.REPUL.0>
0

>  <SCORE.INTRA.SOLV>
3.03883

>  <SCORE.INTRA.SOLV.lig_0>
-48.9722

>  <SCORE.INTRA.VDW>
-0.183774

>  <SCORE.INTRA.VDW.0>
-0.529409

>  <SCORE.INTRA.norm>
0.369643

>  <SCORE.RESTR>
0

>  <SCORE.RESTR.CAVITY>
0

>  <SCORE.RESTR.norm>
0

>  <SCORE.SYSTEM>
0

>  <SCORE.SYSTEM.CONST>
0

>  <SCORE.SYSTEM.DIHEDRAL>
0

>  <SCORE.SYSTEM.SOLV>
0

>  <SCORE.SYSTEM.norm>
0

>  <SCORE.heavy>
16

>  <SCORE.norm>
-1.13807

>  <RMSD>
41.176

$$$$
ligand
 OpenBabel11021811433D
libRbt.so/2013.1/901 2013/11/27
 16 16  0  0  0  0  0  0  0  0999 V2000
    8.2671   -2.5680    0.6142 P   0  0  2  0  0  0  0  0  0  0  0  0
    8.0687   -3.9900    0.2389 O   0  0  0  0  0  0  0  0  0  0  0  0
    8.5496   -2.4696    2.1954 O   0  5  0  0  0  0  0  0  0  0  0  0
    6.9284   -1.7459    0.2598 O   0  0  0  0  0  0  0  0  0  0  0  0
   10.3613    0.2988   -3.5936 C   0  0  2  0  0  0  0  0  0  0  0  0
   11.7655   -0.0152   -3.6081 O   0  0  0  0  0  0  0  0  0  0  0  0
   10.1401    1.8325   -3.5511 C   0  0  2  0  0  0  0  0  0  0  0  0
   10.7939    2.4641   -4.7034 O   0  0  0  0  0  0  0  0  0  0  0  0
   10.7536    2.3786   -2.2481 C   0  0  1  0  0  0  0  0  0  0  0  0
   10.5585    3.7961   -2.1775 O   0  0  0  0  0  0  0  0  0  0  0  0
   10.0498    1.6980   -1.0636 C   0  0  2  0  0  0  0  0  0  0  0  0
   10.6157    2.1851    0.1723 O   0  0  0  0  0  0  0  0  0  0  0  0
   10.2673    0.1638   -1.1775 C   0  0  2  0  0  0  0  0  0  0  0  0
    9.7125   -0.3264   -2.4366 O   0  0  0  0  0  0  0  0  0  0  0  0
    9.5368   -0.5284   -0.0125 C   0  0  0  0  0  0  0  0  0  0  0  0
    9.5346   -1.9500   -0.1915 O   0  0  0  0  0  0  0  0  0  0  0  0
  1  2  1  6  0  0  0
  1  3  1  0  0  0  0
  1  4  2  0  0  0  0
  1 16  1  0  0  0  0
  5  6  1  1  0  0  0
  5  7  1  0  0  0  0
  5 14  1  0  0  0  0
  7  8  1  6  0  0  0
  7  9  1  0  0  0  0
  9 10  1  1  0  0  0
  9 11  1  0  0  0  0
 11 12  1  1  0  0  0
 11 13  1  0  0  0  0
 13 14  1  0  0  0  0
 13 15  1  1  0  0  0
 15 16  1  0  0  0  0
M  CHG  1   3  -1
M  END
>  <CHROM.1>
171.03048127,-155.10760507,168.75402173,9.62507413,-0.14493397,-1.16737544
-3.04692335,1.18020519,0.79389782

>  <Name>
ligand

>  <RI>
0

>  <Rbt.Current_Directory>
/home/itssahil/PROJECTS/Mol_Feturizer/New_Systems/rnas/2HO7

>  <Rbt.Executable>
rbdock ($Id: //depot/dev/client3/rdock/2013.1/src/exe/rbdock.cxx#4 $)

>  <Rbt.Library>
libRbt.so (2013.1, Build901 2013/11/27)

>  <Rbt.Parameter_File>
/export/apps/rDock/src/rDock_2013.1_src/data/scripts/dock_solv.prm

>  <Rbt.Receptor>
prm/blind_docking_80.prm

>  <SCORE>
-17.3834

>  <SCORE.INTER>
-19.3885

>  <SCORE.INTER.CONST>
1

>  <SCORE.INTER.POLAR>
-1.95147

>  <SCORE.INTER.ROT>
3

>  <SCORE.INTER.SOLV>
26.7583

>  <SCORE.INTER.VDW>
-20.9402

>  <SCORE.INTER.norm>
-1.21178

>  <SCORE.INTRA>
1.97769

>  <SCORE.INTRA.DIHEDRAL>
3.12949

>  <SCORE.INTRA.DIHEDRAL.0>
0.00893466

>  <SCORE.INTRA.POLAR>
0

>  <SCORE.INTRA.POLAR.0>
0

>  <SCORE.INTRA.REPUL>
0

>  <SCORE.INTRA.REPUL.0>
0

>  <SCORE.INTRA.SOLV>
1.02832

>  <SCORE.INTRA.SOLV.lig_0>
-48.9722

>  <SCORE.INTRA.VDW>
-0.101209

>  <SCORE.INTRA.VDW.0>
-0.529409

>  <SCORE.INTRA.norm>
0.123606

>  <SCORE.RESTR>
0.0274504

>  <SCORE.RESTR.CAVITY>
0.0274504

>  <SCORE.RESTR.norm>
0.00171565

>  <SCORE.SYSTEM>
0

>  <SCORE.SYSTEM.CONST>
0

>  <SCORE.SYSTEM.DIHEDRAL>
0

>  <SCORE.SYSTEM.SOLV>
0

>  <SCORE.SYSTEM.norm>
0

>  <SCORE.heavy>
16

>  <SCORE.norm>
-1.08646

>  <RMSD>
41.178

$$$$
ligand
 OpenBabel11021811433D
libRbt.so/2013.1/901 2013/11/27
 16 16  0  0  0  0  0  0  0  0999 V2000
    8.2867   -2.5661    0.5927 P   0  0  2  0  0  0  0  0  0  0  0  0
    8.0711   -3.9859    0.2185 O   0  0  0  0  0  0  0  0  0  0  0  0
    8.6026   -2.4731    2.1679 O   0  5  0  0  0  0  0  0  0  0  0  0
    6.9465   -1.7343    0.2679 O   0  0  0  0  0  0  0  0  0  0  0  0
   10.3262    0.3185   -3.6233 C   0  0  2  0  0  0  0  0  0  0  0  0
   11.7301    0.0056   -3.6681 O   0  0  0  0  0  0  0  0  0  0  0  0
   10.1050    1.8516   -3.5646 C   0  0  2  0  0  0  0  0  0  0  0  0
   10.7354    2.4926   -4.7247 O   0  0  0  0  0  0  0  0  0  0  0  0
   10.7439    2.3881   -2.2698 C   0  0  1  0  0  0  0  0  0  0  0  0
   10.5493    3.8049   -2.1845 O   0  0  0  0  0  0  0  0  0  0  0  0
   10.0642    1.6980   -1.0770 C   0  0  2  0  0  0  0  0  0  0  0  0
   10.6541    2.1760    0.1512 O   0  0  0  0  0  0  0  0  0  0  0  0
   10.2803    0.1649   -1.2069 C   0  0  2  0  0  0  0  0  0  0  0  0
    9.7009   -0.3161   -2.4585 O   0  0  0  0  0  0  0  0  0  0  0  0
    9.5735   -0.5368   -0.0330 C   0  0  0  0  0  0  0  0  0  0  0  0
    9.5413   -1.9546   -0.2378 O   0  0  0  0  0  0  0  0  0  0  0  0
  1  2  1  6  0  0  0
  1  3  1  0  0  0  0
  1  4  2  0  0  0  0
  1 16  1  0  0  0  0
  5  6  1  1  0  0  0
  5  7  1  0  0  0  0
  5 14  1  0  0  0  0
  7  8  1  6  0  0  0
  7  9  1  0  0  0  0
  9 10  1  1  0  0  0
  9 11  1  0  0  0  0
 11 12  1  1  0  0  0
 11 13  1  0  0  0  0
 13 14  1  0  0  0  0
 13 15  1  1  0  0  0
 15 16  1  0  0  0  0
M  CHG  1   3  -1
M  END
>  <CHROM.1>
169.69500194,-155.01196693,169.96076986,9.62705961,-0.13842484,-1.19033499
-3.08824061,1.18868698,0.83991251

>  <Name>
ligand

>  <RI>
0

>  <Rbt.Current_Directory>
/home/itssahil/PROJECTS/Mol_Feturizer/New_Systems/rnas/2HO7

>  <Rbt.Executable>
rbdock ($Id: //depot/dev/client3/rdock/2013.1/src/exe/rbdock.cxx#4 $)

>  <Rbt.Library>
libRbt.so (2013.1, Build901 2013/11/27)

>  <Rbt.Parameter_File>
/export/apps/rDock/src/rDock_2013.1_src/data/scripts/dock_solv.prm

>  <Rbt.Receptor>
prm/blind_docking_100.prm

>  <SCORE>
-17.3714

>  <SCORE.INTER>
-19.4084

>  <SCORE.INTER.CONST>
1

>  <SCORE.INTER.POLAR>
-1.92487

>  <SCORE.INTER.ROT>
3

>  <SCORE.INTER.SOLV>
26.631

>  <SCORE.INTER.VDW>
-20.9997

>  <SCORE.INTER.norm>
-1.21303

>  <SCORE.INTRA>
2.00556

>  <SCORE.INTRA.DIHEDRAL>
3.19602

>  <SCORE.INTRA.DIHEDRAL.0>
0.00893466

>  <SCORE.INTRA.POLAR>
0

>  <SCORE.INTRA.POLAR.0>
0

>  <SCORE.INTRA.REPUL>
0

>  <SCORE.INTRA.REPUL.0>
0

>  <SCORE.INTRA.SOLV>
1.03611

>  <SCORE.INTRA.SOLV.lig_0>
-48.9722

>  <SCORE.INTRA.VDW>
-0.110502

>  <SCORE.INTRA.VDW.0>
-0.529409

>  <SCORE.INTRA.norm>
0.125348

>  <SCORE.RESTR>
0.0315046

>  <SCORE.RESTR.CAVITY>
0.0315046

>  <SCORE.RESTR.norm>
0.00196904

>  <SCORE.SYSTEM>
0

>  <SCORE.SYSTEM.CONST>
0

>  <SCORE.SYSTEM.DIHEDRAL>
0

>  <SCORE.SYSTEM.SOLV>
0

>  <SCORE.SYSTEM.norm>
0

>  <SCORE.heavy>
16

>  <SCORE.norm>
-1.08571

>  <RMSD>
41.182

$$$$
ligand
 OpenBabel11021811433D
libRbt.so/2013.1/901 2013/11/27
 16 16  0  0  0  0  0  0  0  0999 V2000
    8.2685   -2.5507    0.6114 P   0  0  2  0  0  0  0  0  0  0  0  0
    8.5098   -2.5077    2.0750 O   0  0  0  0  0  0  0  0  0  0  0  0
    6.9639   -1.6758    0.2614 O   0  5  0  0  0  0  0  0  0  0  0  0
    8.0186   -4.0795    0.1711 O   0  0  0  0  0  0  0  0  0  0  0  0
   10.3485    0.3068   -3.5818 C   0  0  2  0  0  0  0  0  0  0  0  0
   11.7556    0.0068   -3.6079 O   0  0  0  0  0  0  0  0  0  0  0  0
   10.1123    1.8383   -3.5408 C   0  0  2  0  0  0  0  0  0  0  0  0
   10.7496    2.4737   -4.7003 O   0  0  0  0  0  0  0  0  0  0  0  0
   10.7317    2.3936   -2.2445 C   0  0  1  0  0  0  0  0  0  0  0  0
   10.5229    3.8093   -2.1755 O   0  0  0  0  0  0  0  0  0  0  0  0
   10.0452    1.7089   -1.0524 C   0  0  2  0  0  0  0  0  0  0  0  0
   10.6169    2.2046    0.1774 O   0  0  0  0  0  0  0  0  0  0  0  0
   10.2770    0.1767   -1.1647 C   0  0  2  0  0  0  0  0  0  0  0  0
    9.7162   -0.3221   -2.4176 O   0  0  0  0  0  0  0  0  0  0  0  0
    9.5638   -0.5200    0.0083 C   0  0  0  0  0  0  0  0  0  0  0  0
    9.5466   -1.9399   -0.1829 O   0  0  0  0  0  0  0  0  0  0  0  0
  1  2  1  1  0  0  0
  1  3  1  0  0  0  0
  1  4  2  0  0  0  0
  1 16  1  0  0  0  0
  5  6  1  1  0  0  0
  5  7  1  0  0  0  0
  5 14  1  0  0  0  0
  7  8  1  6  0  0  0
  7  9  1  0  0  0  0
  9 10  1  1  0  0  0
  9 11  1  0  0  0  0
 11 12  1  1  0  0  0
 11 13  1  0  0  0  0
 13 14  1  0  0  0  0
 13 15  1  1  0  0  0
 15 16  1  0  0  0  0
M  CHG  1   3  -1
M  END
>  <CHROM.1>
169.66778223,-153.71014510,-72.27893267,9.61578829,-0.13832678,-1.17338161
-3.02296139,1.18116043,0.77911151

>  <Name>
ligand

>  <RI>
0

>  <Rbt.Current_Directory>
/home/itssahil/PROJECTS/Mol_Feturizer/New_Systems/rnas/2HO7

>  <Rbt.Executable>
rbdock ($Id: //depot/dev/client3/rdock/2013.1/src/exe/rbdock.cxx#4 $)

>  <Rbt.Library>
libRbt.so (2013.1, Build901 2013/11/27)

>  <Rbt.Parameter_File>
/export/apps/rDock/src/rDock_2013.1_src/data/scripts/dock_solv.prm

>  <Rbt.Receptor>
prm/blind_docking_40.prm

>  <SCORE>
-16.5243

>  <SCORE.INTER>
-18.6487

>  <SCORE.INTER.CONST>
1

>  <SCORE.INTER.POLAR>
-1.97059

>  <SCORE.INTER.ROT>
3

>  <SCORE.INTER.SOLV>
28.4582

>  <SCORE.INTER.VDW>
-20.9499

>  <SCORE.INTER.norm>
-1.16554

>  <SCORE.INTRA>
2.10657

>  <SCORE.INTRA.DIHEDRAL>
3.51468

>  <SCORE.INTRA.DIHEDRAL.0>
0.00893466

>  <SCORE.INTRA.POLAR>
0

>  <SCORE.INTRA.POLAR.0>
0

>  <SCORE.INTRA.REPUL>
0

>  <SCORE.INTRA.REPUL.0>
0

>  <SCORE.INTRA.SOLV>
0.615668

>  <SCORE.INTRA.SOLV.lig_0>
-48.9722

>  <SCORE.INTRA.VDW>
0.0413932

>  <SCORE.INTRA.VDW.0>
-0.529409

>  <SCORE.INTRA.norm>
0.13166

>  <SCORE.RESTR>
0.0177813

>  <SCORE.RESTR.CAVITY>
0.0177813

>  <SCORE.RESTR.norm>
0.00111133

>  <SCORE.SYSTEM>
0

>  <SCORE.SYSTEM.CONST>
0

>  <SCORE.SYSTEM.DIHEDRAL>
0

>  <SCORE.SYSTEM.SOLV>
0

>  <SCORE.SYSTEM.norm>
0

>  <SCORE.heavy>
16

>  <SCORE.norm>
-1.03277

>  <RMSD>
41.186

$$$$
ligand
 OpenBabel11021811433D
libRbt.so/2013.1/901 2013/11/27
 16 16  0  0  0  0  0  0  0  0999 V2000
    8.2851   -2.5613    0.5822 P   0  0  2  0  0  0  0  0  0  0  0  0
    8.0780   -3.9903    0.2400 O   0  0  0  0  0  0  0  0  0  0  0  0
    8.6192   -2.4330    2.1512 O   0  5  0  0  0  0  0  0  0  0  0  0
    6.9334   -1.7484    0.2571 O   0  0  0  0  0  0  0  0  0  0  0  0
   10.3047    0.3434   -3.6259 C   0  0  2  0  0  0  0  0  0  0  0  0
   11.7107    0.0430   -3.6876 O   0  0  0  0  0  0  0  0  0  0  0  0
   10.0711    1.8742   -3.5531 C   0  0  2  0  0  0  0  0  0  0  0  0
   10.6838    2.5292   -4.7149 O   0  0  0  0  0  0  0  0  0  0  0  0
   10.7189    2.4063   -2.2610 C   0  0  1  0  0  0  0  0  0  0  0  0
   10.5131    3.8207   -2.1629 O   0  0  0  0  0  0  0  0  0  0  0  0
   10.0576    1.7014   -1.0665 C   0  0  2  0  0  0  0  0  0  0  0  0
   10.6563    2.1751    0.1591 O   0  0  0  0  0  0  0  0  0  0  0  0
   10.2854    0.1712   -1.2104 C   0  0  2  0  0  0  0  0  0  0  0  0
    9.6971   -0.3052   -2.4595 O   0  0  0  0  0  0  0  0  0  0  0  0
    9.5969   -0.5454   -0.0346 C   0  0  0  0  0  0  0  0  0  0  0  0
    9.5238   -1.9559   -0.2760 O   0  0  0  0  0  0  0  0  0  0  0  0
  1  2  1  6  0  0  0
  1  3  1  0  0  0  0
  1  4  2  0  0  0  0
  1 16  1  0  0  0  0
  5  6  1  1  0  0  0
  5  7  1  0  0  0  0
  5 14  1  0  0  0  0
  7  8  1  6  0  0  0
  7  9  1  0  0  0  0
  9 10  1  1  0  0  0
  9 11  1  0  0  0  0
 11 12  1  1  0  0  0
 11 13  1  0  0  0  0
 13 14  1  0  0  0  0
 13 15  1  1  0  0  0
 15 16  1  0  0  0  0
M  CHG  1   3  -1
M  END
>  <CHROM.1>
167.23854572,-155.32551250,173.52878016,9.61664279,-0.12687213,-1.19203075
-3.10143342,1.19317587,0.85809946

>  <Name>
ligand

>  <RI>
0

>  <Rbt.Current_Directory>
/home/itssahil/PROJECTS/Mol_Feturizer/New_Systems/rnas/2HO7

>  <Rbt.Executable>
rbdock ($Id: //depot/dev/client3/rdock/2013.1/src/exe/rbdock.cxx#4 $)

>  <Rbt.Library>
libRbt.so (2013.1, Build901 2013/11/27)

>  <Rbt.Parameter_File>
/export/apps/rDock/src/rDock_2013.1_src/data/scripts/dock_solv.prm

>  <Rbt.Receptor>
prm/blind_docking_40.prm

>  <SCORE>
-17.2523

>  <SCORE.INTER>
-19.2731

>  <SCORE.INTER.CONST>
1

>  <SCORE.INTER.POLAR>
-1.90967

>  <SCORE.INTER.ROT>
3

>  <SCORE.INTER.SOLV>
26.6262

>  <SCORE.INTER.VDW>
-20.9586

>  <SCORE.INTER.norm>
-1.20457

>  <SCORE.INTRA>
2.01063

>  <SCORE.INTRA.DIHEDRAL>
3.23783

>  <SCORE.INTRA.DIHEDRAL.0>
0.00893466

>  <SCORE.INTRA.POLAR>
0

>  <SCORE.INTRA.POLAR.0>
0

>  <SCORE.INTRA.REPUL>
0

>  <SCORE.INTRA.REPUL.0>
0

>  <SCORE.INTRA.SOLV>
1.04195

>  <SCORE.INTRA.SOLV.lig_0>
-48.9722

>  <SCORE.INTRA.VDW>
-0.129264

>  <SCORE.INTRA.VDW.0>
-0.529409

>  <SCORE.INTRA.norm>
0.125664

>  <SCORE.RESTR>
0.010161

>  <SCORE.RESTR.CAVITY>
0.010161

>  <SCORE.RESTR.norm>
0.000635061

>  <SCORE.SYSTEM>
0

>  <SCORE.SYSTEM.CONST>
0

>  <SCORE.SYSTEM.DIHEDRAL>
0

>  <SCORE.SYSTEM.SOLV>
0

>  <SCORE.SYSTEM.norm>
0

>  <SCORE.heavy>
16

>  <SCORE.norm>
-1.07827

>  <RMSD>
41.187

$$$$
ligand
 OpenBabel11021811433D
libRbt.so/2013.1/901 2013/11/27
 16 16  0  0  0  0  0  0  0  0999 V2000
    8.2852   -2.5516    0.5759 P   0  0  2  0  0  0  0  0  0  0  0  0
    8.0942   -3.9829    0.2338 O   0  0  0  0  0  0  0  0  0  0  0  0
    8.6086   -2.4185    2.1467 O   0  5  0  0  0  0  0  0  0  0  0  0
    6.9277   -1.7522    0.2418 O   0  0  0  0  0  0  0  0  0  0  0  0
   10.2627    0.3963   -3.6251 C   0  0  2  0  0  0  0  0  0  0  0  0
   11.6647    0.0818   -3.7035 O   0  0  0  0  0  0  0  0  0  0  0  0
   10.0461    1.9286   -3.5339 C   0  0  2  0  0  0  0  0  0  0  0  0
   10.6547    2.5895   -4.6945 O   0  0  0  0  0  0  0  0  0  0  0  0
   10.7119    2.4401   -2.2425 C   0  0  1  0  0  0  0  0  0  0  0  0
   10.5221    3.8554   -2.1274 O   0  0  0  0  0  0  0  0  0  0  0  0
   10.0545    1.7294   -1.0491 C   0  0  2  0  0  0  0  0  0  0  0  0
   10.6699    2.1837    0.1755 O   0  0  0  0  0  0  0  0  0  0  0  0
   10.2646    0.1985   -1.2115 C   0  0  2  0  0  0  0  0  0  0  0  0
    9.6594   -0.2583   -2.4597 O   0  0  0  0  0  0  0  0  0  0  0  0
    9.5798   -0.5233   -0.0367 C   0  0  0  0  0  0  0  0  0  0  0  0
    9.5232   -1.9349   -0.2755 O   0  0  0  0  0  0  0  0  0  0  0  0
  1  2  1  6  0  0  0
  1  3  1  0  0  0  0
  1  4  2  0  0  0  0
  1 16  1  0  0  0  0
  5  6  1  1  0  0  0
  5  7  1  0  0  0  0
  5 14  1  0  0  0  0
  7  8  1  6  0  0  0
  7  9  1  0  0  0  0
  9 10  1  1  0  0  0
  9 11  1  0  0  0  0
 11 12  1  1  0  0  0
 11 13  1  0  0  0  0
 13 14  1  0  0  0  0
 13 15  1  1  0  0  0
 15 16  1  0  0  0  0
M  CHG  1   3  -1
M  END
>  <CHROM.1>
168.86343759,-155.15174526,173.43899166,9.60498459,-0.10003955,-1.18818090
-3.13702051,1.19692851,0.90321385

>  <Name>
ligand

>  <RI>
0

>  <Rbt.Current_Directory>
/home/itssahil/PROJECTS/Mol_Feturizer/New_Systems/rnas/2HO7

>  <Rbt.Executable>
rbdock ($Id: //depot/dev/client3/rdock/2013.1/src/exe/rbdock.cxx#4 $)

>  <Rbt.Library>
libRbt.so (2013.1, Build901 2013/11/27)

>  <Rbt.Parameter_File>
/export/apps/rDock/src/rDock_2013.1_src/data/scripts/dock_solv.prm

>  <Rbt.Receptor>
prm/blind_docking_20.prm

>  <SCORE>
-17.077

>  <SCORE.INTER>
-19.0343

>  <SCORE.INTER.CONST>
1

>  <SCORE.INTER.POLAR>
-1.91025

>  <SCORE.INTER.ROT>
3

>  <SCORE.INTER.SOLV>
26.8091

>  <SCORE.INTER.VDW>
-20.8584

>  <SCORE.INTER.norm>
-1.18964

>  <SCORE.INTRA>
1.95497

>  <SCORE.INTRA.DIHEDRAL>
3.13966

>  <SCORE.INTRA.DIHEDRAL.0>
0.00893466

>  <SCORE.INTRA.POLAR>
0

>  <SCORE.INTRA.POLAR.0>
0

>  <SCORE.INTRA.REPUL>
0

>  <SCORE.INTRA.REPUL.0>
0

>  <SCORE.INTRA.SOLV>
1.0472

>  <SCORE.INTRA.SOLV.lig_0>
-48.9722

>  <SCORE.INTRA.VDW>
-0.138458

>  <SCORE.INTRA.VDW.0>
-0.529409

>  <SCORE.INTRA.norm>
0.122186

>  <SCORE.RESTR>
0.00230548

>  <SCORE.RESTR.CAVITY>
0.00230548

>  <SCORE.RESTR.norm>
0.000144093

>  <SCORE.SYSTEM>
0

>  <SCORE.SYSTEM.CONST>
0

>  <SCORE.SYSTEM.DIHEDRAL>
0

>  <SCORE.SYSTEM.SOLV>
0

>  <SCORE.SYSTEM.norm>
0

>  <SCORE.heavy>
16

>  <SCORE.norm>
-1.06731

>  <RMSD>
41.188

$$$$
ligand
 OpenBabel11021811433D
libRbt.so/2013.1/901 2013/11/27
 16 16  0  0  0  0  0  0  0  0999 V2000
    8.2870   -2.5661    0.5820 P   0  0  2  0  0  0  0  0  0  0  0  0
    8.0755   -3.9883    0.2147 O   0  0  0  0  0  0  0  0  0  0  0  0
    8.6105   -2.4654    2.1552 O   0  5  0  0  0  0  0  0  0  0  0  0
    6.9416   -1.7413    0.2608 O   0  0  0  0  0  0  0  0  0  0  0  0
   10.3163    0.3305   -3.6342 C   0  0  2  0  0  0  0  0  0  0  0  0
   11.7205    0.0196   -3.6828 O   0  0  0  0  0  0  0  0  0  0  0  0
   10.0933    1.8632   -3.5705 C   0  0  2  0  0  0  0  0  0  0  0  0
   10.7204    2.5084   -4.7301 O   0  0  0  0  0  0  0  0  0  0  0  0
   10.7342    2.3968   -2.2755 C   0  0  1  0  0  0  0  0  0  0  0  0
   10.5380    3.8130   -2.1856 O   0  0  0  0  0  0  0  0  0  0  0  0
   10.0579    1.7022   -1.0832 C   0  0  2  0  0  0  0  0  0  0  0  0
   10.6498    2.1774    0.1451 O   0  0  0  0  0  0  0  0  0  0  0  0
   10.2757    0.1698   -1.2182 C   0  0  2  0  0  0  0  0  0  0  0  0
    9.6943   -0.3082   -2.4699 O   0  0  0  0  0  0  0  0  0  0  0  0
    9.5722   -0.5363   -0.0448 C   0  0  0  0  0  0  0  0  0  0  0  0
    9.5348   -1.9528   -0.2573 O   0  0  0  0  0  0  0  0  0  0  0  0
  1  2  1  6  0  0  0
  1  3  1  0  0  0  0
  1  4  2  0  0  0  0
  1 16  1  0  0  0  0
  5  6  1  1  0  0  0
  5  7  1  0  0  0  0
  5 14  1  0  0  0  0
  7  8  1  6  0  0  0
  7  9  1  0  0  0  0
  9 10  1  1  0  0  0
  9 11  1  0  0  0  0
 11 12  1  1  0  0  0
 11 13  1  0  0  0  0
 13 14  1  0  0  0  0
 13 15  1  1  0  0  0
 15 16  1  0  0  0  0
M  CHG  1   3  -1
M  END
>  <CHROM.1>
169.37067751,-155.31098301,170.68188964,9.62196957,-0.13329282,-1.19948544
-3.09087532,1.19069370,0.84435678

>  <Name>
ligand

>  <RI>
0

>  <Rbt.Current_Directory>
/home/itssahil/PROJECTS/Mol_Feturizer/New_Systems/rnas/2HO7

>  <Rbt.Executable>
rbdock ($Id: //depot/dev/client3/rdock/2013.1/src/exe/rbdock.cxx#4 $)

>  <Rbt.Library>
libRbt.so (2013.1, Build901 2013/11/27)

>  <Rbt.Parameter_File>
/export/apps/rDock/src/rDock_2013.1_src/data/scripts/dock_solv.prm

>  <Rbt.Receptor>
prm/blind_docking_80.prm

>  <SCORE>
-17.3556

>  <SCORE.INTER>
-19.3585

>  <SCORE.INTER.CONST>
1

>  <SCORE.INTER.POLAR>
-1.91465

>  <SCORE.INTER.ROT>
3

>  <SCORE.INTER.SOLV>
26.6802

>  <SCORE.INTER.VDW>
-21.0169

>  <SCORE.INTER.norm>
-1.20991

>  <SCORE.INTRA>
1.97168

>  <SCORE.INTRA.DIHEDRAL>
3.14304

>  <SCORE.INTRA.DIHEDRAL.0>
0.00893466

>  <SCORE.INTRA.POLAR>
0

>  <SCORE.INTRA.POLAR.0>
0

>  <SCORE.INTRA.REPUL>
0

>  <SCORE.INTRA.REPUL.0>
0

>  <SCORE.INTRA.SOLV>
1.03162

>  <SCORE.INTRA.SOLV.lig_0>
-48.9722

>  <SCORE.INTRA.VDW>
-0.115643

>  <SCORE.INTRA.VDW.0>
-0.529409

>  <SCORE.INTRA.norm>
0.12323

>  <SCORE.RESTR>
0.0311809

>  <SCORE.RESTR.CAVITY>
0.0311809

>  <SCORE.RESTR.norm>
0.00194881

>  <SCORE.SYSTEM>
0

>  <SCORE.SYSTEM.CONST>
0

>  <SCORE.SYSTEM.DIHEDRAL>
0

>  <SCORE.SYSTEM.SOLV>
0

>  <SCORE.SYSTEM.norm>
0

>  <SCORE.heavy>
16

>  <SCORE.norm>
-1.08473

>  <RMSD>
41.188

$$$$
ligand
 OpenBabel11021811433D
libRbt.so/2013.1/901 2013/11/27
 16 16  0  0  0  0  0  0  0  0999 V2000
    8.3926   -2.2193    0.6904 P   0  0  2  0  0  0  0  0  0  0  0  0
    8.5513   -2.3551    2.1596 O   0  0  0  0  0  0  0  0  0  0  0  0
    7.2328   -3.2145    0.1863 O   0  5  0  0  0  0  0  0  0  0  0  0
    9.7819   -2.6166   -0.0208 O   0  0  0  0  0  0  0  0  0  0  0  0
   10.5386   -0.1081   -2.7413 C   0  0  2  0  0  0  0  0  0  0  0  0
   11.9394   -0.0373   -2.4198 O   0  0  0  0  0  0  0  0  0  0  0  0
   10.0412    1.2344   -3.3357 C   0  0  2  0  0  0  0  0  0  0  0  0
   10.8239    1.5729   -4.5302 O   0  0  0  0  0  0  0  0  0  0  0  0
   10.2208    2.3352   -2.2735 C   0  0  1  0  0  0  0  0  0  0  0  0
    9.7625    3.5892   -2.7931 O   0  0  0  0  0  0  0  0  0  0  0  0
    9.3915    1.9509   -1.0382 C   0  0  2  0  0  0  0  0  0  0  0  0
    9.5521    2.9630   -0.0211 O   0  0  0  0  0  0  0  0  0  0  0  0
    9.9023    0.5823   -0.5090 C   0  0  2  0  0  0  0  0  0  0  0  0
    9.7583   -0.4379   -1.5443 O   0  0  0  0  0  0  0  0  0  0  0  0
    9.0542    0.1738    0.7091 C   0  0  0  0  0  0  0  0  0  0  0  0
    7.9850   -0.6935    0.3119 O   0  0  0  0  0  0  0  0  0  0  0  0
  1  2  1  1  0  0  0
  1  3  1  0  0  0  0
  1  4  2  0  0  0  0
  1 16  1  0  0  0  0
  5  6  1  1  0  0  0
  5  7  1  0  0  0  0
  5 14  1  0  0  0  0
  7  8  1  6  0  0  0
  7  9  1  0  0  0  0
  9 10  1  6  0  0  0
  9 11  1  0  0  0  0
 11 12  1  1  0  0  0
 11 13  1  0  0  0  0
 13 14  1  0  0  0  0
 13 15  1  1  0  0  0
 15 16  1  0  0  0  0
M  CHG  1   3  -1
M  END
>  <CHROM.1>
95.17444977,101.94967674,62.76424259,9.46623824,-0.03122489,-0.92985203,-2.32598830
1.05930378,-0.00859080

>  <Name>
ligand

>  <RI>
0

>  <Rbt.Current_Directory>
/home/itssahil/PROJECTS/Mol_Feturizer/New_Systems/rnas/2HO7

>  <Rbt.Executable>
rbdock ($Id: //depot/dev/client3/rdock/2013.1/src/exe/rbdock.cxx#4 $)

>  <Rbt.Library>
libRbt.so (2013.1, Build901 2013/11/27)

>  <Rbt.Parameter_File>
/export/apps/rDock/src/rDock_2013.1_src/data/scripts/dock_solv.prm

>  <Rbt.Receptor>
prm/blind_docking_100.prm

>  <SCORE>
-18.2162

>  <SCORE.INTER>
-24.0354

>  <SCORE.INTER.CONST>
1

>  <SCORE.INTER.POLAR>
-2.54548

>  <SCORE.INTER.ROT>
3

>  <SCORE.INTER.SOLV>
23.2554

>  <SCORE.INTER.VDW>
-20.8905

>  <SCORE.INTER.norm>
-1.50221

>  <SCORE.INTRA>
5.81917

>  <SCORE.INTRA.DIHEDRAL>
9.05671

>  <SCORE.INTRA.DIHEDRAL.0>
0.00893466

>  <SCORE.INTRA.POLAR>
0

>  <SCORE.INTRA.POLAR.0>
0

>  <SCORE.INTRA.REPUL>
0

>  <SCORE.INTRA.REPUL.0>
0

>  <SCORE.INTRA.SOLV>
3.02568

>  <SCORE.INTRA.SOLV.lig_0>
-48.9722

>  <SCORE.INTRA.VDW>
-0.222019

>  <SCORE.INTRA.VDW.0>
-0.529409

>  <SCORE.INTRA.norm>
0.363698

>  <SCORE.RESTR>
0

>  <SCORE.RESTR.CAVITY>
0

>  <SCORE.RESTR.norm>
0

>  <SCORE.SYSTEM>
0

>  <SCORE.SYSTEM.CONST>
0

>  <SCORE.SYSTEM.DIHEDRAL>
0

>  <SCORE.SYSTEM.SOLV>
0

>  <SCORE.SYSTEM.norm>
0

>  <SCORE.heavy>
16

>  <SCORE.norm>
-1.13851

>  <RMSD>
41.190

$$$$
ligand
 OpenBabel11021811433D
libRbt.so/2013.1/901 2013/11/27
 16 16  0  0  0  0  0  0  0  0999 V2000
    8.2653   -2.5807    0.6001 P   0  0  2  0  0  0  0  0  0  0  0  0
    8.0730   -4.0104    0.2520 O   0  0  0  0  0  0  0  0  0  0  0  0
    8.5678   -2.4528    2.1755 O   0  5  0  0  0  0  0  0  0  0  0  0
    6.9158   -1.7749    0.2495 O   0  0  0  0  0  0  0  0  0  0  0  0
   10.3537    0.2967   -3.6053 C   0  0  2  0  0  0  0  0  0  0  0  0
   11.7611   -0.0029   -3.6258 O   0  0  0  0  0  0  0  0  0  0  0  0
   10.1170    1.8279   -3.5571 C   0  0  2  0  0  0  0  0  0  0  0  0
   10.7601    2.4698   -4.7097 O   0  0  0  0  0  0  0  0  0  0  0  0
   10.7296    2.3762   -2.2545 C   0  0  1  0  0  0  0  0  0  0  0  0
   10.5202    3.7914   -2.1788 O   0  0  0  0  0  0  0  0  0  0  0  0
   10.0371    1.6847   -1.0698 C   0  0  2  0  0  0  0  0  0  0  0  0
   10.6024    2.1737    0.1656 O   0  0  0  0  0  0  0  0  0  0  0  0
   10.2699    0.1532   -1.1893 C   0  0  2  0  0  0  0  0  0  0  0  0
    9.7156   -0.3387   -2.4479 O   0  0  0  0  0  0  0  0  0  0  0  0
    9.5507   -0.5501   -0.0239 C   0  0  0  0  0  0  0  0  0  0  0  0
    9.5173   -1.9672   -0.2328 O   0  0  0  0  0  0  0  0  0  0  0  0
  1  2  1  6  0  0  0
  1  3  1  0  0  0  0
  1  4  2  0  0  0  0
  1 16  1  0  0  0  0
  5  6  1  1  0  0  0
  5  7  1  0  0  0  0
  5 14  1  0  0  0  0
  7  8  1  6  0  0  0
  7  9  1  0  0  0  0
  9 10  1  1  0  0  0
  9 11  1  0  0  0  0
 11 12  1  1  0  0  0
 11 13  1  0  0  0  0
 13 14  1  0  0  0  0
 13 15  1  1  0  0  0
 15 16  1  0  0  0  0
M  CHG  1   3  -1
M  END
>  <CHROM.1>
168.80858844,-155.74461232,171.61890742,9.61639057,-0.15317257,-1.17826506
-3.04118449,1.18327721,0.78953177

>  <Name>
ligand

>  <RI>
0

>  <Rbt.Current_Directory>
/home/itssahil/PROJECTS/Mol_Feturizer/New_Systems/rnas/2HO7

>  <Rbt.Executable>
rbdock ($Id: //depot/dev/client3/rdock/2013.1/src/exe/rbdock.cxx#4 $)

>  <Rbt.Library>
libRbt.so (2013.1, Build901 2013/11/27)

>  <Rbt.Parameter_File>
/export/apps/rDock/src/rDock_2013.1_src/data/scripts/dock_solv.prm

>  <Rbt.Receptor>
prm/blind_docking_20.prm

>  <SCORE>
-17.3351

>  <SCORE.INTER>
-19.2789

>  <SCORE.INTER.CONST>
1

>  <SCORE.INTER.POLAR>
-1.93849

>  <SCORE.INTER.ROT>
3

>  <SCORE.INTER.SOLV>
26.7599

>  <SCORE.INTER.VDW>
-20.9109

>  <SCORE.INTER.norm>
-1.20493

>  <SCORE.INTRA>
1.93209

>  <SCORE.INTRA.DIHEDRAL>
3.08036

>  <SCORE.INTRA.DIHEDRAL.0>
0.00893466

>  <SCORE.INTRA.POLAR>
0

>  <SCORE.INTRA.POLAR.0>
0

>  <SCORE.INTRA.REPUL>
0

>  <SCORE.INTRA.REPUL.0>
0

>  <SCORE.INTRA.SOLV>
1.02441

>  <SCORE.INTRA.SOLV.lig_0>
-48.9722

>  <SCORE.INTRA.VDW>
-0.120295

>  <SCORE.INTRA.VDW.0>
-0.529409

>  <SCORE.INTRA.norm>
0.120755

>  <SCORE.RESTR>
0.0117746

>  <SCORE.RESTR.CAVITY>
0.0117746

>  <SCORE.RESTR.norm>
0.000735914

>  <SCORE.SYSTEM>
0

>  <SCORE.SYSTEM.CONST>
0

>  <SCORE.SYSTEM.DIHEDRAL>
0

>  <SCORE.SYSTEM.SOLV>
0

>  <SCORE.SYSTEM.norm>
0

>  <SCORE.heavy>
16

>  <SCORE.norm>
-1.08344

>  <RMSD>
41.191

$$$$
ligand
 OpenBabel11021811433D
libRbt.so/2013.1/901 2013/11/27
 16 16  0  0  0  0  0  0  0  0999 V2000
    8.2688   -2.5620    0.6000 P   0  0  2  0  0  0  0  0  0  0  0  0
    8.0606   -3.9829    0.2258 O   0  0  0  0  0  0  0  0  0  0  0  0
    8.5668   -2.4657    2.1785 O   0  5  0  0  0  0  0  0  0  0  0  0
    6.9303   -1.7339    0.2589 O   0  0  0  0  0  0  0  0  0  0  0  0
   10.3383    0.3089   -3.5958 C   0  0  2  0  0  0  0  0  0  0  0  0
   11.7488    0.0254   -3.6224 O   0  0  0  0  0  0  0  0  0  0  0  0
   10.0843    1.8376   -3.5527 C   0  0  2  0  0  0  0  0  0  0  0  0
   10.7141    2.4819   -4.7112 O   0  0  0  0  0  0  0  0  0  0  0  0
   10.6973    2.3981   -2.2556 C   0  0  1  0  0  0  0  0  0  0  0  0
   10.4721    3.8112   -2.1845 O   0  0  0  0  0  0  0  0  0  0  0  0
   10.0189    1.7038   -1.0644 C   0  0  2  0  0  0  0  0  0  0  0  0
   10.5849    2.2043    0.1660 O   0  0  0  0  0  0  0  0  0  0  0  0
   10.2685    0.1745   -1.1789 C   0  0  2  0  0  0  0  0  0  0  0  0
    9.7134   -0.3289   -2.4325 O   0  0  0  0  0  0  0  0  0  0  0  0
    9.5635   -0.5321   -0.0069 C   0  0  0  0  0  0  0  0  0  0  0  0
    9.5312   -1.9490   -0.2175 O   0  0  0  0  0  0  0  0  0  0  0  0
  1  2  1  6  0  0  0
  1  3  1  0  0  0  0
  1  4  2  0  0  0  0
  1 16  1  0  0  0  0
  5  6  1  1  0  0  0
  5  7  1  0  0  0  0
  5 14  1  0  0  0  0
  7  8  1  6  0  0  0
  7  9  1  0  0  0  0
  9 10  1  1  0  0  0
  9 11  1  0  0  0  0
 11 12  1  1  0  0  0
 11 13  1  0  0  0  0
 13 14  1  0  0  0  0
 13 15  1  1  0  0  0
 15 16  1  0  0  0  0
M  CHG  1   3  -1
M  END
>  <CHROM.1>
168.12399368,-154.43858730,170.37170831,9.60537995,-0.13460352,-1.17504546
-3.03321657,1.18823347,0.78153586

>  <Name>
ligand

>  <RI>
0

>  <Rbt.Current_Directory>
/home/itssahil/PROJECTS/Mol_Feturizer/New_Systems/rnas/2HO7

>  <Rbt.Executable>
rbdock ($Id: //depot/dev/client3/rdock/2013.1/src/exe/rbdock.cxx#4 $)

>  <Rbt.Library>
libRbt.so (2013.1, Build901 2013/11/27)

>  <Rbt.Parameter_File>
/export/apps/rDock/src/rDock_2013.1_src/data/scripts/dock_solv.prm

>  <Rbt.Receptor>
prm/blind_docking_20.prm

>  <SCORE>
-17.2181

>  <SCORE.INTER>
-19.3464

>  <SCORE.INTER.CONST>
1

>  <SCORE.INTER.POLAR>
-1.93174

>  <SCORE.INTER.ROT>
3

>  <SCORE.INTER.SOLV>
26.7505

>  <SCORE.INTER.VDW>
-20.9753

>  <SCORE.INTER.norm>
-1.20915

>  <SCORE.INTRA>
2.11986

>  <SCORE.INTRA.DIHEDRAL>
3.40726

>  <SCORE.INTRA.DIHEDRAL.0>
0.00893466

>  <SCORE.INTRA.POLAR>
0

>  <SCORE.INTRA.POLAR.0>
0

>  <SCORE.INTRA.REPUL>
0

>  <SCORE.INTRA.REPUL.0>
0

>  <SCORE.INTRA.SOLV>
1.05184

>  <SCORE.INTRA.SOLV.lig_0>
-48.9722

>  <SCORE.INTRA.VDW>
-0.109694

>  <SCORE.INTRA.VDW.0>
-0.529409

>  <SCORE.INTRA.norm>
0.132491

>  <SCORE.RESTR>
0.00844484

>  <SCORE.RESTR.CAVITY>
0.00844484

>  <SCORE.RESTR.norm>
0.000527803

>  <SCORE.SYSTEM>
0

>  <SCORE.SYSTEM.CONST>
0

>  <SCORE.SYSTEM.DIHEDRAL>
0

>  <SCORE.SYSTEM.SOLV>
0

>  <SCORE.SYSTEM.norm>
0

>  <SCORE.heavy>
16

>  <SCORE.norm>
-1.07613

>  <RMSD>
41.194

$$$$
ligand
 OpenBabel11021811433D
libRbt.so/2013.1/901 2013/11/27
 16 16  0  0  0  0  0  0  0  0999 V2000
    8.4000   -2.2311    0.6857 P   0  0  2  0  0  0  0  0  0  0  0  0
    8.5786   -2.3693    2.1524 O   0  0  0  0  0  0  0  0  0  0  0  0
    7.2298   -3.2216    0.1966 O   0  5  0  0  0  0  0  0  0  0  0  0
    9.7778   -2.6322   -0.0453 O   0  0  0  0  0  0  0  0  0  0  0  0
   10.5328   -0.1076   -2.7490 C   0  0  2  0  0  0  0  0  0  0  0  0
   11.9349   -0.0319   -2.4344 O   0  0  0  0  0  0  0  0  0  0  0  0
   10.0271    1.2342   -3.3380 C   0  0  2  0  0  0  0  0  0  0  0  0
   10.8025    1.5784   -4.5357 O   0  0  0  0  0  0  0  0  0  0  0  0
   10.2078    2.3335   -2.2743 C   0  0  1  0  0  0  0  0  0  0  0  0
    9.7419    3.5868   -2.7889 O   0  0  0  0  0  0  0  0  0  0  0  0
    9.3863    1.9432   -1.0357 C   0  0  2  0  0  0  0  0  0  0  0  0
    9.5480    2.9538   -0.0172 O   0  0  0  0  0  0  0  0  0  0  0  0
    9.9051    0.5755   -0.5121 C   0  0  2  0  0  0  0  0  0  0  0  0
    9.7599   -0.4430   -1.5488 O   0  0  0  0  0  0  0  0  0  0  0  0
    9.0648    0.1611    0.7095 C   0  0  0  0  0  0  0  0  0  0  0  0
    7.9925   -0.7033    0.3147 O   0  0  0  0  0  0  0  0  0  0  0  0
  1  2  1  1  0  0  0
  1  3  1  0  0  0  0
  1  4  2  0  0  0  0
  1 16  1  0  0  0  0
  5  6  1  1  0  0  0
  5  7  1  0  0  0  0
  5 14  1  0  0  0  0
  7  8  1  6  0  0  0
  7  9  1  0  0  0  0
  9 10  1  6  0  0  0
  9 11  1  0  0  0  0
 11 12  1  1  0  0  0
 11 13  1  0  0  0  0
 13 14  1  0  0  0  0
 13 15  1  1  0  0  0
 15 16  1  0  0  0  0
M  CHG  1   3  -1
M  END
>  <CHROM.1>
94.84294001,102.08572057,62.23058712,9.46456958,-0.03748392,-0.93319528,-2.32212207
1.06293077,-0.00987931

>  <Name>
ligand

>  <RI>
0

>  <Rbt.Current_Directory>
/home/itssahil/PROJECTS/Mol_Feturizer/New_Systems/rnas/2HO7

>  <Rbt.Executable>
rbdock ($Id: //depot/dev/client3/rdock/2013.1/src/exe/rbdock.cxx#4 $)

>  <Rbt.Library>
libRbt.so (2013.1, Build901 2013/11/27)

>  <Rbt.Parameter_File>
/export/apps/rDock/src/rDock_2013.1_src/data/scripts/dock_solv.prm

>  <Rbt.Receptor>
prm/blind_docking_20.prm

>  <SCORE>
-18.2137

>  <SCORE.INTER>
-24.01

>  <SCORE.INTER.CONST>
1

>  <SCORE.INTER.POLAR>
-2.54558

>  <SCORE.INTER.ROT>
3

>  <SCORE.INTER.SOLV>
23.3247

>  <SCORE.INTER.VDW>
-20.8963

>  <SCORE.INTER.norm>
-1.50063

>  <SCORE.INTRA>
5.79633

>  <SCORE.INTRA.DIHEDRAL>
9.02886

>  <SCORE.INTRA.DIHEDRAL.0>
0.00893466

>  <SCORE.INTRA.POLAR>
0

>  <SCORE.INTRA.POLAR.0>
0

>  <SCORE.INTRA.REPUL>
0

>  <SCORE.INTRA.REPUL.0>
0

>  <SCORE.INTRA.SOLV>
3.00886

>  <SCORE.INTRA.SOLV.lig_0>
-48.9722

>  <SCORE.INTRA.VDW>
-0.222526

>  <SCORE.INTRA.VDW.0>
-0.529409

>  <SCORE.INTRA.norm>
0.362271

>  <SCORE.RESTR>
0

>  <SCORE.RESTR.CAVITY>
0

>  <SCORE.RESTR.norm>
0

>  <SCORE.SYSTEM>
0

>  <SCORE.SYSTEM.CONST>
0

>  <SCORE.SYSTEM.DIHEDRAL>
0

>  <SCORE.SYSTEM.SOLV>
0

>  <SCORE.SYSTEM.norm>
0

>  <SCORE.heavy>
16

>  <SCORE.norm>
-1.13835

>  <RMSD>
41.195

$$$$
ligand
 OpenBabel11021811433D
libRbt.so/2013.1/901 2013/11/27
 16 16  0  0  0  0  0  0  0  0999 V2000
    8.2233   -2.5689    0.6306 P   0  0  2  0  0  0  0  0  0  0  0  0
    8.4375   -2.5253    2.0984 O   0  0  0  0  0  0  0  0  0  0  0  0
    6.9169   -1.7064    0.2577 O   0  5  0  0  0  0  0  0  0  0  0  0
    7.9965   -4.0996    0.1843 O   0  0  0  0  0  0  0  0  0  0  0  0
   10.3919    0.2841   -3.5390 C   0  0  2  0  0  0  0  0  0  0  0  0
   11.8002   -0.0108   -3.5174 O   0  0  0  0  0  0  0  0  0  0  0  0
   10.1492    1.8150   -3.5160 C   0  0  2  0  0  0  0  0  0  0  0  0
   10.8216    2.4451   -4.6583 O   0  0  0  0  0  0  0  0  0  0  0  0
   10.7241    2.3810   -2.2040 C   0  0  1  0  0  0  0  0  0  0  0  0
   10.5083    3.7963   -2.1512 O   0  0  0  0  0  0  0  0  0  0  0  0
   10.0015    1.7016   -1.0302 C   0  0  2  0  0  0  0  0  0  0  0  0
   10.5312    2.2074    0.2141 O   0  0  0  0  0  0  0  0  0  0  0  0
   10.2423    0.1696   -1.1247 C   0  0  2  0  0  0  0  0  0  0  0  0
    9.7242   -0.3395   -2.3919 O   0  0  0  0  0  0  0  0  0  0  0  0
    9.4936   -0.5221    0.0291 C   0  0  0  0  0  0  0  0  0  0  0  0
    9.5096   -1.9448   -0.1398 O   0  0  0  0  0  0  0  0  0  0  0  0
  1  2  1  1  0  0  0
  1  3  1  0  0  0  0
  1  4  2  0  0  0  0
  1 16  1  0  0  0  0
  5  6  1  1  0  0  0
  5  7  1  0  0  0  0
  5 14  1  0  0  0  0
  7  8  1  6  0  0  0
  7  9  1  0  0  0  0
  9 10  1  6  0  0  0
  9 11  1  0  0  0  0
 11 12  1  1  0  0  0
 11 13  1  0  0  0  0
 13 14  1  0  0  0  0
 13 15  1  1  0  0  0
 15 16  1  0  0  0  0
M  CHG  1   3  -1
M  END
>  <CHROM.1>
170.77038873,-154.57204350,-73.49873142,9.59639342,-0.15367209,-1.14257108
-2.95304166,1.16645525,0.70532441

>  <Name>
ligand

>  <RI>
0

>  <Rbt.Current_Directory>
/home/itssahil/PROJECTS/Mol_Feturizer/New_Systems/rnas/2HO7

>  <Rbt.Executable>
rbdock ($Id: //depot/dev/client3/rdock/2013.1/src/exe/rbdock.cxx#4 $)

>  <Rbt.Library>
libRbt.so (2013.1, Build901 2013/11/27)

>  <Rbt.Parameter_File>
/export/apps/rDock/src/rDock_2013.1_src/data/scripts/dock_solv.prm

>  <Rbt.Receptor>
prm/blind_docking_20.prm

>  <SCORE>
-16.5362

>  <SCORE.INTER>
-18.5625

>  <SCORE.INTER.CONST>
1

>  <SCORE.INTER.POLAR>
-1.97313

>  <SCORE.INTER.ROT>
3

>  <SCORE.INTER.SOLV>
28.7265

>  <SCORE.INTER.VDW>
-20.9734

>  <SCORE.INTER.norm>
-1.16015

>  <SCORE.INTRA>
2.02626

>  <SCORE.INTRA.DIHEDRAL>
3.32925

>  <SCORE.INTRA.DIHEDRAL.0>
0.00893466

>  <SCORE.INTRA.POLAR>
0

>  <SCORE.INTRA.POLAR.0>
0

>  <SCORE.INTRA.REPUL>
0

>  <SCORE.INTRA.REPUL.0>
0

>  <SCORE.INTRA.SOLV>
0.600857

>  <SCORE.INTRA.SOLV.lig_0>
-48.9722

>  <SCORE.INTRA.VDW>
0.0612025

>  <SCORE.INTRA.VDW.0>
-0.529409

>  <SCORE.INTRA.norm>
0.126641

>  <SCORE.RESTR>
0

>  <SCORE.RESTR.CAVITY>
0

>  <SCORE.RESTR.norm>
0

>  <SCORE.SYSTEM>
0

>  <SCORE.SYSTEM.CONST>
0

>  <SCORE.SYSTEM.DIHEDRAL>
0

>  <SCORE.SYSTEM.SOLV>
0

>  <SCORE.SYSTEM.norm>
0

>  <SCORE.heavy>
16

>  <SCORE.norm>
-1.03351

>  <RMSD>
41.197

$$$$
ligand
 OpenBabel11021811433D
libRbt.so/2013.1/901 2013/11/27
 16 16  0  0  0  0  0  0  0  0999 V2000
    8.2808   -2.5577    0.5621 P   0  0  2  0  0  0  0  0  0  0  0  0
    7.0316   -1.8130    0.2670 O   0  0  0  0  0  0  0  0  0  0  0  0
    8.0784   -4.1081    0.1814 O   0  5  0  0  0  0  0  0  0  0  0  0
    8.6004   -2.4327    2.1356 O   0  0  0  0  0  0  0  0  0  0  0  0
   10.2991    0.3584   -3.6464 C   0  0  2  0  0  0  0  0  0  0  0  0
   11.7042    0.0553   -3.7119 O   0  0  0  0  0  0  0  0  0  0  0  0
   10.0689    1.8893   -3.5664 C   0  0  2  0  0  0  0  0  0  0  0  0
   10.6809    2.5482   -4.7263 O   0  0  0  0  0  0  0  0  0  0  0  0
   10.7201    2.4144   -2.2732 C   0  0  1  0  0  0  0  0  0  0  0  0
   10.5176    3.8287   -2.1684 O   0  0  0  0  0  0  0  0  0  0  0  0
   10.0594    1.7056   -1.0805 C   0  0  2  0  0  0  0  0  0  0  0  0
   10.6613    2.1726    0.1460 O   0  0  0  0  0  0  0  0  0  0  0  0
   10.2836    0.1756   -1.2316 C   0  0  2  0  0  0  0  0  0  0  0  0
    9.6921   -0.2941   -2.4817 O   0  0  0  0  0  0  0  0  0  0  0  0
    9.5957   -0.5447   -0.0578 C   0  0  0  0  0  0  0  0  0  0  0  0
    9.5103   -1.9527   -0.3097 O   0  0  0  0  0  0  0  0  0  0  0  0
  1  2  1  6  0  0  0
  1  3  1  0  0  0  0
  1  4  2  0  0  0  0
  1 16  1  0  0  0  0
  5  6  1  1  0  0  0
  5  7  1  0  0  0  0
  5 14  1  0  0  0  0
  7  8  1  6  0  0  0
  7  9  1  0  0  0  0
  9 10  1  1  0  0  0
  9 11  1  0  0  0  0
 11 12  1  1  0  0  0
 11 13  1  0  0  0  0
 13 14  1  0  0  0  0
 13 15  1  1  0  0  0
 15 16  1  0  0  0  0
M  CHG  1   3  -1
M  END
>  <CHROM.1>
166.81235776,-155.89604607,54.53682066,9.61958975,-0.13227139,-1.21090972
-3.10332520,1.19601623,0.86764914

>  <Name>
ligand

>  <RI>
0

>  <Rbt.Current_Directory>
/home/itssahil/PROJECTS/Mol_Feturizer/New_Systems/rnas/2HO7

>  <Rbt.Executable>
rbdock ($Id: //depot/dev/client3/rdock/2013.1/src/exe/rbdock.cxx#4 $)

>  <Rbt.Library>
libRbt.so (2013.1, Build901 2013/11/27)

>  <Rbt.Parameter_File>
/export/apps/rDock/src/rDock_2013.1_src/data/scripts/dock_solv.prm

>  <Rbt.Receptor>
prm/blind_docking_100.prm

>  <SCORE>
-16.8499

>  <SCORE.INTER>
-18.4828

>  <SCORE.INTER.CONST>
1

>  <SCORE.INTER.POLAR>
-1.8641

>  <SCORE.INTER.ROT>
3

>  <SCORE.INTER.SOLV>
27.6136

>  <SCORE.INTER.VDW>
-20.9127

>  <SCORE.INTER.norm>
-1.15517

>  <SCORE.INTRA>
1.61446

>  <SCORE.INTRA.DIHEDRAL>
3.15238

>  <SCORE.INTRA.DIHEDRAL.0>
0.00893466

>  <SCORE.INTRA.POLAR>
0

>  <SCORE.INTRA.POLAR.0>
0

>  <SCORE.INTRA.REPUL>
0

>  <SCORE.INTRA.REPUL.0>
0

>  <SCORE.INTRA.SOLV>
0.0600975

>  <SCORE.INTRA.SOLV.lig_0>
-48.9722

>  <SCORE.INTRA.VDW>
0.00821914

>  <SCORE.INTRA.VDW.0>
-0.529409

>  <SCORE.INTRA.norm>
0.100904

>  <SCORE.RESTR>
0.0183815

>  <SCORE.RESTR.CAVITY>
0.0183815

>  <SCORE.RESTR.norm>
0.00114885

>  <SCORE.SYSTEM>
0

>  <SCORE.SYSTEM.CONST>
0

>  <SCORE.SYSTEM.DIHEDRAL>
0

>  <SCORE.SYSTEM.SOLV>
0

>  <SCORE.SYSTEM.norm>
0

>  <SCORE.heavy>
16

>  <SCORE.norm>
-1.05312

>  <RMSD>
41.198

$$$$
ligand
 OpenBabel11021811433D
libRbt.so/2013.1/901 2013/11/27
 16 16  0  0  0  0  0  0  0  0999 V2000
    8.4692   -2.1481    0.7040 P   0  0  2  0  0  0  0  0  0  0  0  0
    9.6684   -2.5766   -0.0578 O   0  0  0  0  0  0  0  0  0  0  0  0
    8.7962   -2.1909    2.2791 O   0  5  0  0  0  0  0  0  0  0  0  0
    7.2603   -3.1625    0.3831 O   0  0  0  0  0  0  0  0  0  0  0  0
   10.5072   -0.1416   -2.8674 C   0  0  2  0  0  0  0  0  0  0  0  0
   11.9175   -0.0479   -2.5976 O   0  0  0  0  0  0  0  0  0  0  0  0
    9.9761    1.1761   -3.4875 C   0  0  2  0  0  0  0  0  0  0  0  0
   10.7135    1.4819   -4.7191 O   0  0  0  0  0  0  0  0  0  0  0  0
   10.1815    2.3130   -2.4688 C   0  0  1  0  0  0  0  0  0  0  0  0
    9.6930    3.5450   -3.0127 O   0  0  0  0  0  0  0  0  0  0  0  0
    9.3994    1.9623   -1.1934 C   0  0  2  0  0  0  0  0  0  0  0  0
    9.5851    3.0088   -0.2161 O   0  0  0  0  0  0  0  0  0  0  0  0
    9.9419    0.6164   -0.6380 C   0  0  2  0  0  0  0  0  0  0  0  0
    9.7723   -0.4386   -1.6336 O   0  0  0  0  0  0  0  0  0  0  0  0
    9.1408    0.2409    0.6219 C   0  0  0  0  0  0  0  0  0  0  0  0
    8.0559   -0.6335    0.2882 O   0  0  0  0  0  0  0  0  0  0  0  0
  1  2  1  6  0  0  0
  1  3  1  0  0  0  0
  1  4  2  0  0  0  0
  1 16  1  0  0  0  0
  5  6  1  1  0  0  0
  5  7  1  0  0  0  0
  5 14  1  0  0  0  0
  7  8  1  6  0  0  0
  7  9  1  0  0  0  0
  9 10  1  6  0  0  0
  9 11  1  0  0  0  0
 11 12  1  1  0  0  0
 11 13  1  0  0  0  0
 13 14  1  0  0  0  0
 13 15  1  1  0  0  0
 15 16  1  0  0  0  0
M  CHG  1   3  -1
M  END
>  <CHROM.1>
94.37041565,102.55428103,-61.51051130,9.48052948,-0.00878153,-1.01054896
-2.33897857,1.10362535,-0.03237451

>  <Name>
ligand

>  <RI>
0

>  <Rbt.Current_Directory>
/home/itssahil/PROJECTS/Mol_Feturizer/New_Systems/rnas/2HO7

>  <Rbt.Executable>
rbdock ($Id: //depot/dev/client3/rdock/2013.1/src/exe/rbdock.cxx#4 $)

>  <Rbt.Library>
libRbt.so (2013.1, Build901 2013/11/27)

>  <Rbt.Parameter_File>
/export/apps/rDock/src/rDock_2013.1_src/data/scripts/dock_solv.prm

>  <Rbt.Receptor>
prm/blind_docking_20.prm

>  <SCORE>
-17.5043

>  <SCORE.INTER>
-22.3945

>  <SCORE.INTER.CONST>
1

>  <SCORE.INTER.POLAR>
-2.54558

>  <SCORE.INTER.ROT>
3

>  <SCORE.INTER.SOLV>
26.3504

>  <SCORE.INTER.VDW>
-20.8278

>  <SCORE.INTER.norm>
-1.39965

>  <SCORE.INTRA>
4.89018

>  <SCORE.INTRA.DIHEDRAL>
9.03192

>  <SCORE.INTRA.DIHEDRAL.0>
0.00893466

>  <SCORE.INTRA.POLAR>
0

>  <SCORE.INTRA.POLAR.0>
0

>  <SCORE.INTRA.REPUL>
0

>  <SCORE.INTRA.REPUL.0>
0

>  <SCORE.INTRA.SOLV>
1.11962

>  <SCORE.INTRA.SOLV.lig_0>
-48.9722

>  <SCORE.INTRA.VDW>
-0.185587

>  <SCORE.INTRA.VDW.0>
-0.529409

>  <SCORE.INTRA.norm>
0.305636

>  <SCORE.RESTR>
0

>  <SCORE.RESTR.CAVITY>
0

>  <SCORE.RESTR.norm>
0

>  <SCORE.SYSTEM>
0

>  <SCORE.SYSTEM.CONST>
0

>  <SCORE.SYSTEM.DIHEDRAL>
0

>  <SCORE.SYSTEM.SOLV>
0

>  <SCORE.SYSTEM.norm>
0

>  <SCORE.heavy>
16

>  <SCORE.norm>
-1.09402

>  <RMSD>
41.200

$$$$
ligand
 OpenBabel11021811433D
libRbt.so/2013.1/901 2013/11/27
 16 16  0  0  0  0  0  0  0  0999 V2000
    8.2591   -2.5364    0.4583 P   0  0  2  0  0  0  0  0  0  0  0  0
    7.9600   -3.9738    0.2423 O   0  0  0  0  0  0  0  0  0  0  0  0
    8.8727   -2.3363    1.9325 O   0  5  0  0  0  0  0  0  0  0  0  0
    6.8907   -1.6967    0.3323 O   0  0  0  0  0  0  0  0  0  0  0  0
   10.1698    0.3471   -3.8579 C   0  0  2  0  0  0  0  0  0  0  0  0
   11.5293   -0.0613   -4.0937 O   0  0  0  0  0  0  0  0  0  0  0  0
   10.0798    1.8839   -3.6759 C   0  0  2  0  0  0  0  0  0  0  0  0
   10.6189    2.5602   -4.8618 O   0  0  0  0  0  0  0  0  0  0  0  0
   10.9068    2.2785   -2.4378 C   0  0  1  0  0  0  0  0  0  0  0  0
   10.8370    3.6957   -2.2402 O   0  0  0  0  0  0  0  0  0  0  0  0
   10.3187    1.5544   -1.2167 C   0  0  2  0  0  0  0  0  0  0  0  0
   11.0847    1.8991   -0.0423 O   0  0  0  0  0  0  0  0  0  0  0  0
   10.3953    0.0232   -1.4686 C   0  0  2  0  0  0  0  0  0  0  0  0
    9.6368   -0.3235   -2.6676 O   0  0  0  0  0  0  0  0  0  0  0  0
    9.7773   -0.7091   -0.2636 C   0  0  0  0  0  0  0  0  0  0  0  0
    9.3375   -2.0196   -0.6406 O   0  0  0  0  0  0  0  0  0  0  0  0
  1  2  1  6  0  0  0
  1  3  1  0  0  0  0
  1  4  2  0  0  0  0
  1 16  1  0  0  0  0
  5  6  1  1  0  0  0
  5  7  1  0  0  0  0
  5 14  1  0  0  0  0
  7  8  1  6  0  0  0
  7  9  1  0  0  0  0
  9 10  1  1  0  0  0
  9 11  1  0  0  0  0
 11 12  1  1  0  0  0
 11 13  1  0  0  0  0
 13 14  1  0  0  0  0
 13 15  1  1  0  0  0
 15 16  1  0  0  0  0
M  CHG  1   3  -1
M  END
>  <CHROM.1>
156.97986108,-160.33310978,-170.00199108,9.66778192,-0.17850985,-1.36525743
2.81200149,1.15285214,1.23939402

>  <Name>
ligand

>  <RI>
0

>  <Rbt.Current_Directory>
/home/itssahil/PROJECTS/Mol_Feturizer/New_Systems/rnas/2HO7

>  <Rbt.Executable>
rbdock ($Id: //depot/dev/client3/rdock/2013.1/src/exe/rbdock.cxx#4 $)

>  <Rbt.Library>
libRbt.so (2013.1, Build901 2013/11/27)

>  <Rbt.Parameter_File>
/export/apps/rDock/src/rDock_2013.1_src/data/scripts/dock_solv.prm

>  <Rbt.Receptor>
prm/blind_docking_40.prm

>  <SCORE>
-16.3694

>  <SCORE.INTER>
-18.7645

>  <SCORE.INTER.CONST>
1

>  <SCORE.INTER.POLAR>
-1.89093

>  <SCORE.INTER.ROT>
3

>  <SCORE.INTER.SOLV>
26.2086

>  <SCORE.INTER.VDW>
-20.5428

>  <SCORE.INTER.norm>
-1.17278

>  <SCORE.INTRA>
2.33257

>  <SCORE.INTRA.DIHEDRAL>
3.59482

>  <SCORE.INTRA.DIHEDRAL.0>
0.00893466

>  <SCORE.INTRA.POLAR>
0

>  <SCORE.INTRA.POLAR.0>
0

>  <SCORE.INTRA.REPUL>
0

>  <SCORE.INTRA.REPUL.0>
0

>  <SCORE.INTRA.SOLV>
0.938927

>  <SCORE.INTRA.SOLV.lig_0>
-48.9722

>  <SCORE.INTRA.VDW>
0.0657011

>  <SCORE.INTRA.VDW.0>
-0.529409

>  <SCORE.INTRA.norm>
0.145786

>  <SCORE.RESTR>
0.0625537

>  <SCORE.RESTR.CAVITY>
0.0625537

>  <SCORE.RESTR.norm>
0.0039096

>  <SCORE.SYSTEM>
0

>  <SCORE.SYSTEM.CONST>
0

>  <SCORE.SYSTEM.DIHEDRAL>
0

>  <SCORE.SYSTEM.SOLV>
0

>  <SCORE.SYSTEM.norm>
0

>  <SCORE.heavy>
16

>  <SCORE.norm>
-1.02309

>  <RMSD>
41.217

$$$$
ligand
 OpenBabel11021811433D
libRbt.so/2013.1/901 2013/11/27
 16 16  0  0  0  0  0  0  0  0999 V2000
    8.2335   -2.6157    0.5506 P   0  0  2  0  0  0  0  0  0  0  0  0
    8.0224   -4.0514    0.2401 O   0  0  0  0  0  0  0  0  0  0  0  0
    8.5827   -2.4551    2.1133 O   0  5  0  0  0  0  0  0  0  0  0  0
    6.8793   -1.8087    0.2216 O   0  0  0  0  0  0  0  0  0  0  0  0
   10.3247    0.2656   -3.6595 C   0  0  2  0  0  0  0  0  0  0  0  0
   11.7254   -0.0596   -3.7129 O   0  0  0  0  0  0  0  0  0  0  0  0
   10.1178    1.8000   -3.5825 C   0  0  2  0  0  0  0  0  0  0  0  0
   10.7501    2.4483   -4.7376 O   0  0  0  0  0  0  0  0  0  0  0  0
   10.7662    2.3158   -2.2840 C   0  0  1  0  0  0  0  0  0  0  0  0
   10.5850    3.7332   -2.1819 O   0  0  0  0  0  0  0  0  0  0  0  0
   10.0843    1.6183   -1.0967 C   0  0  2  0  0  0  0  0  0  0  0  0
   10.6829    2.0768    0.1347 O   0  0  0  0  0  0  0  0  0  0  0  0
   10.2857    0.0849   -1.2449 C   0  0  2  0  0  0  0  0  0  0  0  0
    9.6976   -0.3764   -2.4997 O   0  0  0  0  0  0  0  0  0  0  0  0
    9.5766   -0.6237   -0.0765 C   0  0  0  0  0  0  0  0  0  0  0  0
    9.4644   -2.0291   -0.3318 O   0  0  0  0  0  0  0  0  0  0  0  0
  1  2  1  6  0  0  0
  1  3  1  0  0  0  0
  1  4  2  0  0  0  0
  1 16  1  0  0  0  0
  5  6  1  1  0  0  0
  5  7  1  0  0  0  0
  5 14  1  0  0  0  0
  7  8  1  6  0  0  0
  7  9  1  0  0  0  0
  9 10  1  1  0  0  0
  9 11  1  0  0  0  0
 11 12  1  1  0  0  0
 11 13  1  0  0  0  0
 13 14  1  0  0  0  0
 13 15  1  1  0  0  0
 15 16  1  0  0  0  0
M  CHG  1   3  -1
M  END
>  <CHROM.1>
166.48089441,-156.82793402,175.95413513,9.61484977,-0.20032192,-1.22233221
-3.11900380,1.17721843,0.87384279

>  <Name>
ligand

>  <RI>
0

>  <Rbt.Current_Directory>
/home/itssahil/PROJECTS/Mol_Feturizer/New_Systems/rnas/2HO7

>  <Rbt.Executable>
rbdock ($Id: //depot/dev/client3/rdock/2013.1/src/exe/rbdock.cxx#4 $)

>  <Rbt.Library>
libRbt.so (2013.1, Build901 2013/11/27)

>  <Rbt.Parameter_File>
/export/apps/rDock/src/rDock_2013.1_src/data/scripts/dock_solv.prm

>  <Rbt.Receptor>
prm/blind_docking_80.prm

>  <SCORE>
-16.9206

>  <SCORE.INTER>
-18.8028

>  <SCORE.INTER.CONST>
1

>  <SCORE.INTER.POLAR>
-1.89057

>  <SCORE.INTER.ROT>
3

>  <SCORE.INTER.SOLV>
26.8903

>  <SCORE.INTER.VDW>
-20.7968

>  <SCORE.INTER.norm>
-1.17518

>  <SCORE.INTRA>
1.87218

>  <SCORE.INTRA.DIHEDRAL>
2.99384

>  <SCORE.INTRA.DIHEDRAL.0>
0.00893466

>  <SCORE.INTRA.POLAR>
0

>  <SCORE.INTRA.POLAR.0>
0

>  <SCORE.INTRA.REPUL>
0

>  <SCORE.INTRA.REPUL.0>
0

>  <SCORE.INTRA.SOLV>
1.01198

>  <SCORE.INTRA.SOLV.lig_0>
-48.9722

>  <SCORE.INTRA.VDW>
-0.130738

>  <SCORE.INTRA.VDW.0>
-0.529409

>  <SCORE.INTRA.norm>
0.117011

>  <SCORE.RESTR>
0.0100623

>  <SCORE.RESTR.CAVITY>
0.0100623

>  <SCORE.RESTR.norm>
0.000628893

>  <SCORE.SYSTEM>
0

>  <SCORE.SYSTEM.CONST>
0

>  <SCORE.SYSTEM.DIHEDRAL>
0

>  <SCORE.SYSTEM.SOLV>
0

>  <SCORE.SYSTEM.norm>
0

>  <SCORE.heavy>
16

>  <SCORE.norm>
-1.05754

>  <RMSD>
41.220

$$$$
ligand
 OpenBabel11021811433D
libRbt.so/2013.1/901 2013/11/27
 16 16  0  0  0  0  0  0  0  0999 V2000
    8.3401   -2.1647    0.7397 P   0  0  2  0  0  0  0  0  0  0  0  0
    7.1394   -3.0305    0.6356 O   0  0  0  0  0  0  0  0  0  0  0  0
    9.4869   -2.7254   -0.2403 O   0  5  0  0  0  0  0  0  0  0  0  0
    8.8741   -2.1981    2.2587 O   0  0  0  0  0  0  0  0  0  0  0  0
   10.5242   -0.1105   -2.7646 C   0  0  2  0  0  0  0  0  0  0  0  0
   11.9250   -0.0028   -2.4535 O   0  0  0  0  0  0  0  0  0  0  0  0
    9.9944    1.2081   -3.3840 C   0  0  2  0  0  0  0  0  0  0  0  0
   10.7626    1.5379   -4.5903 O   0  0  0  0  0  0  0  0  0  0  0  0
   10.1564    2.3349   -2.3464 C   0  0  1  0  0  0  0  0  0  0  0  0
    9.6681    3.5674   -2.8894 O   0  0  0  0  0  0  0  0  0  0  0  0
    9.3429    1.9591   -1.0981 C   0  0  2  0  0  0  0  0  0  0  0  0
    9.4876    2.9959   -0.1036 O   0  0  0  0  0  0  0  0  0  0  0  0
    9.8863    0.6133   -0.5434 C   0  0  2  0  0  0  0  0  0  0  0  0
    9.7583   -0.4315   -1.5559 O   0  0  0  0  0  0  0  0  0  0  0  0
    9.0544    0.2127    0.6885 C   0  0  0  0  0  0  0  0  0  0  0  0
    7.9700   -0.6433    0.3087 O   0  0  0  0  0  0  0  0  0  0  0  0
  1  2  1  6  0  0  0
  1  3  1  0  0  0  0
  1  4  2  0  0  0  0
  1 16  1  0  0  0  0
  5  6  1  1  0  0  0
  5  7  1  0  0  0  0
  5 14  1  0  0  0  0
  7  8  1  6  0  0  0
  7  9  1  0  0  0  0
  9 10  1  6  0  0  0
  9 11  1  0  0  0  0
 11 12  1  1  0  0  0
 11 13  1  0  0  0  0
 13 14  1  0  0  0  0
 13 15  1  1  0  0  0
 15 16  1  0  0  0  0
M  CHG  1   3  -1
M  END
>  <CHROM.1>
92.88715914,104.44257536,167.81874687,9.43025197,-0.00306432,-0.93460836
-2.31315662,1.06266697,-0.05461519

>  <Name>
ligand

>  <RI>
0

>  <Rbt.Current_Directory>
/home/itssahil/PROJECTS/Mol_Feturizer/New_Systems/rnas/2HO7

>  <Rbt.Executable>
rbdock ($Id: //depot/dev/client3/rdock/2013.1/src/exe/rbdock.cxx#4 $)

>  <Rbt.Library>
libRbt.so (2013.1, Build901 2013/11/27)

>  <Rbt.Parameter_File>
/export/apps/rDock/src/rDock_2013.1_src/data/scripts/dock_solv.prm

>  <Rbt.Receptor>
prm/blind_docking_40.prm

>  <SCORE>
-19.69

>  <SCORE.INTER>
-25.8831

>  <SCORE.INTER.CONST>
1

>  <SCORE.INTER.POLAR>
-2.54558

>  <SCORE.INTER.ROT>
3

>  <SCORE.INTER.SOLV>
20.4324

>  <SCORE.INTER.VDW>
-21.1809

>  <SCORE.INTER.norm>
-1.61769

>  <SCORE.INTRA>
6.19302

>  <SCORE.INTRA.DIHEDRAL>
9.33425

>  <SCORE.INTRA.DIHEDRAL.0>
0.00893466

>  <SCORE.INTRA.POLAR>
0

>  <SCORE.INTRA.POLAR.0>
0

>  <SCORE.INTRA.REPUL>
0

>  <SCORE.INTRA.REPUL.0>
0

>  <SCORE.INTRA.SOLV>
3.56253

>  <SCORE.INTRA.SOLV.lig_0>
-48.9722

>  <SCORE.INTRA.VDW>
-0.255371

>  <SCORE.INTRA.VDW.0>
-0.529409

>  <SCORE.INTRA.norm>
0.387064

>  <SCORE.RESTR>
0

>  <SCORE.RESTR.CAVITY>
0

>  <SCORE.RESTR.norm>
0

>  <SCORE.SYSTEM>
0

>  <SCORE.SYSTEM.CONST>
0

>  <SCORE.SYSTEM.DIHEDRAL>
0

>  <SCORE.SYSTEM.SOLV>
0

>  <SCORE.SYSTEM.norm>
0

>  <SCORE.heavy>
16

>  <SCORE.norm>
-1.23063

>  <RMSD>
41.221

$$$$
ligand
 OpenBabel11021811433D
libRbt.so/2013.1/901 2013/11/27
 16 16  0  0  0  0  0  0  0  0999 V2000
    8.3226   -2.1618    0.7503 P   0  0  2  0  0  0  0  0  0  0  0  0
    7.1201   -3.0240    0.6364 O   0  0  0  0  0  0  0  0  0  0  0  0
    9.4779   -2.7297   -0.2153 O   0  5  0  0  0  0  0  0  0  0  0  0
    8.8402   -2.1916    2.2750 O   0  0  0  0  0  0  0  0  0  0  0  0
   10.5331   -0.1315   -2.7541 C   0  0  2  0  0  0  0  0  0  0  0  0
   11.9328   -0.0252   -2.4375 O   0  0  0  0  0  0  0  0  0  0  0  0
   10.0089    1.1853   -3.3822 C   0  0  2  0  0  0  0  0  0  0  0  0
   10.7830    1.5075   -4.5868 O   0  0  0  0  0  0  0  0  0  0  0  0
   10.1689    2.3167   -2.3495 C   0  0  1  0  0  0  0  0  0  0  0  0
    9.6856    3.5476   -2.9006 O   0  0  0  0  0  0  0  0  0  0  0  0
    9.3491    1.9488   -1.1029 C   0  0  2  0  0  0  0  0  0  0  0  0
    9.4917    2.9901   -0.1128 O   0  0  0  0  0  0  0  0  0  0  0  0
    9.8872    0.6046   -0.5393 C   0  0  2  0  0  0  0  0  0  0  0  0
    9.7613   -0.4449   -1.5473 O   0  0  0  0  0  0  0  0  0  0  0  0
    9.0491    0.2118    0.6909 C   0  0  0  0  0  0  0  0  0  0  0  0
    7.9622   -0.6407    0.3100 O   0  0  0  0  0  0  0  0  0  0  0  0
  1  2  1  6  0  0  0
  1  3  1  0  0  0  0
  1  4  2  0  0  0  0
  1 16  1  0  0  0  0
  5  6  1  1  0  0  0
  5  7  1  0  0  0  0
  5 14  1  0  0  0  0
  7  8  1  6  0  0  0
  7  9  1  0  0  0  0
  9 10  1  6  0  0  0
  9 11  1  0  0  0  0
 11 12  1  1  0  0  0
 11 13  1  0  0  0  0
 13 14  1  0  0  0  0
 13 15  1  1  0  0  0
 15 16  1  0  0  0  0
M  CHG  1   3  -1
M  END
>  <CHROM.1>
92.72311347,104.56521186,168.17481557,9.42893488,-0.01196235,-0.92952675
-2.32024196,1.05768863,-0.05364209

>  <Name>
ligand

>  <RI>
0

>  <Rbt.Current_Directory>
/home/itssahil/PROJECTS/Mol_Feturizer/New_Systems/rnas/2HO7

>  <Rbt.Executable>
rbdock ($Id: //depot/dev/client3/rdock/2013.1/src/exe/rbdock.cxx#4 $)

>  <Rbt.Library>
libRbt.so (2013.1, Build901 2013/11/27)

>  <Rbt.Parameter_File>
/export/apps/rDock/src/rDock_2013.1_src/data/scripts/dock_solv.prm

>  <Rbt.Receptor>
prm/blind_docking_60.prm

>  <SCORE>
-19.6505

>  <SCORE.INTER>
-25.8194

>  <SCORE.INTER.CONST>
1

>  <SCORE.INTER.POLAR>
-2.5451

>  <SCORE.INTER.ROT>
3

>  <SCORE.INTER.SOLV>
20.463

>  <SCORE.INTER.VDW>
-21.1503

>  <SCORE.INTER.norm>
-1.61371

>  <SCORE.INTRA>
6.16894

>  <SCORE.INTRA.DIHEDRAL>
9.3154

>  <SCORE.INTRA.DIHEDRAL.0>
0.00893466

>  <SCORE.INTRA.POLAR>
0

>  <SCORE.INTRA.POLAR.0>
0

>  <SCORE.INTRA.REPUL>
0

>  <SCORE.INTRA.REPUL.0>
0

>  <SCORE.INTRA.SOLV>
3.55182

>  <SCORE.INTRA.SOLV.lig_0>
-48.9722

>  <SCORE.INTRA.VDW>
-0.264671

>  <SCORE.INTRA.VDW.0>
-0.529409

>  <SCORE.INTRA.norm>
0.385559

>  <SCORE.RESTR>
0

>  <SCORE.RESTR.CAVITY>
0

>  <SCORE.RESTR.norm>
0

>  <SCORE.SYSTEM>
0

>  <SCORE.SYSTEM.CONST>
0

>  <SCORE.SYSTEM.DIHEDRAL>
0

>  <SCORE.SYSTEM.SOLV>
0

>  <SCORE.SYSTEM.norm>
0

>  <SCORE.heavy>
16

>  <SCORE.norm>
-1.22815

>  <RMSD>
41.223

$$$$
ligand
 OpenBabel11021811433D
libRbt.so/2013.1/901 2013/11/27
 16 16  0  0  0  0  0  0  0  0999 V2000
    8.3537   -2.1932    0.7166 P   0  0  2  0  0  0  0  0  0  0  0  0
    7.1151   -2.9988    0.5775 O   0  0  0  0  0  0  0  0  0  0  0  0
    9.4949   -2.8025   -0.2404 O   0  5  0  0  0  0  0  0  0  0  0  0
    8.8490   -2.2628    2.2475 O   0  0  0  0  0  0  0  0  0  0  0  0
   10.4812   -0.1099   -2.9072 C   0  0  2  0  0  0  0  0  0  0  0  0
   11.8987   -0.0246   -2.6747 O   0  0  0  0  0  0  0  0  0  0  0  0
    9.9319    1.2303   -3.4597 C   0  0  2  0  0  0  0  0  0  0  0  0
   10.6334    1.5852   -4.6991 O   0  0  0  0  0  0  0  0  0  0  0  0
   10.1661    2.3267   -2.4036 C   0  0  1  0  0  0  0  0  0  0  0  0
    9.6617    3.5784   -2.8846 O   0  0  0  0  0  0  0  0  0  0  0  0
    9.4213    1.9252   -1.1210 C   0  0  2  0  0  0  0  0  0  0  0  0
    9.6346    2.9330   -0.1092 O   0  0  0  0  0  0  0  0  0  0  0  0
    9.9801    0.5595   -0.6345 C   0  0  2  0  0  0  0  0  0  0  0  0
    9.7823   -0.4560   -1.6654 O   0  0  0  0  0  0  0  0  0  0  0  0
    9.2157    0.1337    0.6322 C   0  0  0  0  0  0  0  0  0  0  0  0
    8.0682   -0.6527    0.2889 O   0  0  0  0  0  0  0  0  0  0  0  0
  1  2  1  6  0  0  0
  1  3  1  0  0  0  0
  1  4  2  0  0  0  0
  1 16  1  0  0  0  0
  5  6  1  1  0  0  0
  5  7  1  0  0  0  0
  5 14  1  0  0  0  0
  7  8  1  6  0  0  0
  7  9  1  0  0  0  0
  9 10  1  6  0  0  0
  9 11  1  0  0  0  0
 11 12  1  1  0  0  0
 11 13  1  0  0  0  0
 13 14  1  0  0  0  0
 13 15  1  1  0  0  0
 15 16  1  0  0  0  0
M  CHG  1   3  -1
M  END
>  <CHROM.1>
90.38322456,108.39606037,171.06349551,9.44887801,-0.02537280,-0.99382858
-2.37292180,1.10708166,0.00996178

>  <Name>
ligand

>  <RI>
0

>  <Rbt.Current_Directory>
/home/itssahil/PROJECTS/Mol_Feturizer/New_Systems/rnas/2HO7

>  <Rbt.Executable>
rbdock ($Id: //depot/dev/client3/rdock/2013.1/src/exe/rbdock.cxx#4 $)

>  <Rbt.Library>
libRbt.so (2013.1, Build901 2013/11/27)

>  <Rbt.Parameter_File>
/export/apps/rDock/src/rDock_2013.1_src/data/scripts/dock_solv.prm

>  <Rbt.Receptor>
prm/blind_docking_40.prm

>  <SCORE>
-19.5822

>  <SCORE.INTER>
-25.4469

>  <SCORE.INTER.CONST>
1

>  <SCORE.INTER.POLAR>
-2.54553

>  <SCORE.INTER.ROT>
3

>  <SCORE.INTER.SOLV>
20.6921

>  <SCORE.INTER.VDW>
-20.9769

>  <SCORE.INTER.norm>
-1.59043

>  <SCORE.INTRA>
5.86474

>  <SCORE.INTRA.DIHEDRAL>
9.36796

>  <SCORE.INTRA.DIHEDRAL.0>
0.00893466

>  <SCORE.INTRA.POLAR>
0

>  <SCORE.INTRA.POLAR.0>
0

>  <SCORE.INTRA.REPUL>
0

>  <SCORE.INTRA.REPUL.0>
0

>  <SCORE.INTRA.SOLV>
3.1942

>  <SCORE.INTRA.SOLV.lig_0>
-48.9722

>  <SCORE.INTRA.VDW>
-0.416341

>  <SCORE.INTRA.VDW.0>
-0.529409

>  <SCORE.INTRA.norm>
0.366546

>  <SCORE.RESTR>
0

>  <SCORE.RESTR.CAVITY>
0

>  <SCORE.RESTR.norm>
0

>  <SCORE.SYSTEM>
0

>  <SCORE.SYSTEM.CONST>
0

>  <SCORE.SYSTEM.DIHEDRAL>
0

>  <SCORE.SYSTEM.SOLV>
0

>  <SCORE.SYSTEM.norm>
0

>  <SCORE.heavy>
16

>  <SCORE.norm>
-1.22389

>  <RMSD>
41.232

$$$$
ligand
 OpenBabel11021811433D
libRbt.so/2013.1/901 2013/11/27
 16 16  0  0  0  0  0  0  0  0999 V2000
    8.2298   -2.5339    0.4906 P   0  0  2  0  0  0  0  0  0  0  0  0
    7.9838   -3.9760    0.2413 O   0  0  0  0  0  0  0  0  0  0  0  0
    8.8213   -2.3439    1.9751 O   0  5  0  0  0  0  0  0  0  0  0  0
    6.8338   -1.7403    0.3676 O   0  0  0  0  0  0  0  0  0  0  0  0
   10.2008    0.4300   -3.7485 C   0  0  2  0  0  0  0  0  0  0  0  0
   11.5972    0.1218   -3.9088 O   0  0  0  0  0  0  0  0  0  0  0  0
    9.9891    1.9566   -3.5820 C   0  0  2  0  0  0  0  0  0  0  0  0
   10.5401    2.6672   -4.7419 O   0  0  0  0  0  0  0  0  0  0  0  0
   10.7174    2.4142   -2.3043 C   0  0  1  0  0  0  0  0  0  0  0  0
   10.5337    3.8231   -2.1201 O   0  0  0  0  0  0  0  0  0  0  0  0
   10.1192    1.6524   -1.1113 C   0  0  2  0  0  0  0  0  0  0  0  0
   10.7939    2.0556    0.0999 O   0  0  0  0  0  0  0  0  0  0  0  0
   10.3209    0.1302   -1.3485 C   0  0  2  0  0  0  0  0  0  0  0  0
    9.6552   -0.2746   -2.5838 O   0  0  0  0  0  0  0  0  0  0  0  0
    9.6944   -0.6421   -0.1732 C   0  0  0  0  0  0  0  0  0  0  0  0
    9.3000   -1.9563   -0.5858 O   0  0  0  0  0  0  0  0  0  0  0  0
  1  2  1  6  0  0  0
  1  3  1  0  0  0  0
  1  4  2  0  0  0  0
  1 16  1  0  0  0  0
  5  6  1  1  0  0  0
  5  7  1  0  0  0  0
  5 14  1  0  0  0  0
  7  8  1  6  0  0  0
  7  9  1  0  0  0  0
  9 10  1  1  0  0  0
  9 11  1  0  0  0  0
 11 12  1  1  0  0  0
 11 13  1  0  0  0  0
 13 14  1  0  0  0  0
 13 15  1  1  0  0  0
 15 16  1  0  0  0  0
M  CHG  1   3  -1
M  END
>  <CHROM.1>
153.56412313,-161.31921206,-169.72478905,9.58822342,-0.10924794,-1.27824649
3.01639968,1.18914198,1.03977560

>  <Name>
ligand

>  <RI>
0

>  <Rbt.Current_Directory>
/home/itssahil/PROJECTS/Mol_Feturizer/New_Systems/rnas/2HO7

>  <Rbt.Executable>
rbdock ($Id: //depot/dev/client3/rdock/2013.1/src/exe/rbdock.cxx#4 $)

>  <Rbt.Library>
libRbt.so (2013.1, Build901 2013/11/27)

>  <Rbt.Parameter_File>
/export/apps/rDock/src/rDock_2013.1_src/data/scripts/dock_solv.prm

>  <Rbt.Receptor>
prm/blind_docking_40.prm

>  <SCORE>
-16.6888

>  <SCORE.INTER>
-19.1825

>  <SCORE.INTER.CONST>
1

>  <SCORE.INTER.POLAR>
-1.89062

>  <SCORE.INTER.ROT>
3

>  <SCORE.INTER.SOLV>
26.6686

>  <SCORE.INTER.VDW>
-20.9758

>  <SCORE.INTER.norm>
-1.19891

>  <SCORE.INTRA>
2.49374

>  <SCORE.INTRA.DIHEDRAL>
3.90055

>  <SCORE.INTRA.DIHEDRAL.0>
0.00893466

>  <SCORE.INTRA.POLAR>
0

>  <SCORE.INTRA.POLAR.0>
0

>  <SCORE.INTRA.REPUL>
0

>  <SCORE.INTRA.REPUL.0>
0

>  <SCORE.INTRA.SOLV>
0.909877

>  <SCORE.INTRA.SOLV.lig_0>
-48.9722

>  <SCORE.INTRA.VDW>
0.088526

>  <SCORE.INTRA.VDW.0>
-0.529409

>  <SCORE.INTRA.norm>
0.155859

>  <SCORE.RESTR>
0

>  <SCORE.RESTR.CAVITY>
0

>  <SCORE.RESTR.norm>
0

>  <SCORE.SYSTEM>
0

>  <SCORE.SYSTEM.CONST>
0

>  <SCORE.SYSTEM.DIHEDRAL>
0

>  <SCORE.SYSTEM.SOLV>
0

>  <SCORE.SYSTEM.norm>
0

>  <SCORE.heavy>
16

>  <SCORE.norm>
-1.04305

>  <RMSD>
41.235

$$$$
ligand
 OpenBabel11021811433D
libRbt.so/2013.1/901 2013/11/27
 16 16  0  0  0  0  0  0  0  0999 V2000
    8.3278   -2.2020    0.7420 P   0  0  2  0  0  0  0  0  0  0  0  0
    7.0944   -3.0148    0.5988 O   0  0  0  0  0  0  0  0  0  0  0  0
    9.4802   -2.8136   -0.2001 O   0  5  0  0  0  0  0  0  0  0  0  0
    8.8101   -2.2565    2.2775 O   0  0  0  0  0  0  0  0  0  0  0  0
   10.5045   -0.1426   -2.8593 C   0  0  2  0  0  0  0  0  0  0  0  0
   11.9172   -0.0483   -2.6025 O   0  0  0  0  0  0  0  0  0  0  0  0
    9.9590    1.1895   -3.4348 C   0  0  2  0  0  0  0  0  0  0  0  0
   10.6808    1.5354   -4.6650 O   0  0  0  0  0  0  0  0  0  0  0  0
   10.1695    2.2974   -2.3857 C   0  0  1  0  0  0  0  0  0  0  0  0
    9.6679    3.5418   -2.8880 O   0  0  0  0  0  0  0  0  0  0  0  0
    9.4038    1.9051   -1.1124 C   0  0  2  0  0  0  0  0  0  0  0  0
    9.5946    2.9239   -0.1072 O   0  0  0  0  0  0  0  0  0  0  0  0
    9.9601    0.5470   -0.6025 C   0  0  2  0  0  0  0  0  0  0  0  0
    9.7852   -0.4797   -1.6266 O   0  0  0  0  0  0  0  0  0  0  0  0
    9.1752    0.1302    0.6546 C   0  0  0  0  0  0  0  0  0  0  0  0
    8.0386   -0.6665    0.2991 O   0  0  0  0  0  0  0  0  0  0  0  0
  1  2  1  6  0  0  0
  1  3  1  0  0  0  0
  1  4  2  0  0  0  0
  1 16  1  0  0  0  0
  5  6  1  1  0  0  0
  5  7  1  0  0  0  0
  5 14  1  0  0  0  0
  7  8  1  6  0  0  0
  7  9  1  0  0  0  0
  9 10  1  6  0  0  0
  9 11  1  0  0  0  0
 11 12  1  1  0  0  0
 11 13  1  0  0  0  0
 13 14  1  0  0  0  0
 13 15  1  1  0  0  0
 15 16  1  0  0  0  0
M  CHG  1   3  -1
M  END
>  <CHROM.1>
90.46013458,108.13357845,170.64255191,9.43996318,-0.04473937,-0.96729770
-2.36131460,1.08997492,-0.00913185

>  <Name>
ligand

>  <RI>
0

>  <Rbt.Current_Directory>
/home/itssahil/PROJECTS/Mol_Feturizer/New_Systems/rnas/2HO7

>  <Rbt.Executable>
rbdock ($Id: //depot/dev/client3/rdock/2013.1/src/exe/rbdock.cxx#4 $)

>  <Rbt.Library>
libRbt.so (2013.1, Build901 2013/11/27)

>  <Rbt.Parameter_File>
/export/apps/rDock/src/rDock_2013.1_src/data/scripts/dock_solv.prm

>  <Rbt.Receptor>
prm/blind_docking_80.prm

>  <SCORE>
-19.5644

>  <SCORE.INTER>
-25.4496

>  <SCORE.INTER.CONST>
1

>  <SCORE.INTER.POLAR>
-2.54558

>  <SCORE.INTER.ROT>
3

>  <SCORE.INTER.SOLV>
20.7222

>  <SCORE.INTER.VDW>
-20.9886

>  <SCORE.INTER.norm>
-1.5906

>  <SCORE.INTRA>
5.88522

>  <SCORE.INTRA.DIHEDRAL>
9.36229

>  <SCORE.INTRA.DIHEDRAL.0>
0.00893466

>  <SCORE.INTRA.POLAR>
0

>  <SCORE.INTRA.POLAR.0>
0

>  <SCORE.INTRA.REPUL>
0

>  <SCORE.INTRA.REPUL.0>
0

>  <SCORE.INTRA.SOLV>
3.2215

>  <SCORE.INTRA.SOLV.lig_0>
-48.9722

>  <SCORE.INTRA.VDW>
-0.406683

>  <SCORE.INTRA.VDW.0>
-0.529409

>  <SCORE.INTRA.norm>
0.367826

>  <SCORE.RESTR>
0

>  <SCORE.RESTR.CAVITY>
0

>  <SCORE.RESTR.norm>
0

>  <SCORE.SYSTEM>
0

>  <SCORE.SYSTEM.CONST>
0

>  <SCORE.SYSTEM.DIHEDRAL>
0

>  <SCORE.SYSTEM.SOLV>
0

>  <SCORE.SYSTEM.norm>
0

>  <SCORE.heavy>
16

>  <SCORE.norm>
-1.22278

>  <RMSD>
41.237

$$$$
ligand
 OpenBabel11021811433D
libRbt.so/2013.1/901 2013/11/27
 16 16  0  0  0  0  0  0  0  0999 V2000
    8.2263   -2.5332    0.4759 P   0  0  2  0  0  0  0  0  0  0  0  0
    7.9830   -3.9760    0.2286 O   0  0  0  0  0  0  0  0  0  0  0  0
    8.8026   -2.3386    1.9658 O   0  5  0  0  0  0  0  0  0  0  0  0
    6.8317   -1.7400    0.3363 O   0  0  0  0  0  0  0  0  0  0  0  0
   10.2014    0.4303   -3.7553 C   0  0  2  0  0  0  0  0  0  0  0  0
   11.5980    0.1230   -3.9156 O   0  0  0  0  0  0  0  0  0  0  0  0
    9.9887    1.9567   -3.5887 C   0  0  2  0  0  0  0  0  0  0  0  0
   10.5393    2.6678   -4.7487 O   0  0  0  0  0  0  0  0  0  0  0  0
   10.7167    2.4148   -2.3110 C   0  0  1  0  0  0  0  0  0  0  0  0
   10.5321    3.8235   -2.1268 O   0  0  0  0  0  0  0  0  0  0  0  0
   10.1190    1.6526   -1.1181 C   0  0  2  0  0  0  0  0  0  0  0  0
   10.7934    2.0562    0.0931 O   0  0  0  0  0  0  0  0  0  0  0  0
   10.3217    0.1305   -1.3553 C   0  0  2  0  0  0  0  0  0  0  0  0
    9.6562   -0.2746   -2.5907 O   0  0  0  0  0  0  0  0  0  0  0  0
    9.6957   -0.6422   -0.1801 C   0  0  0  0  0  0  0  0  0  0  0  0
    9.3076   -1.9588   -0.5911 O   0  0  0  0  0  0  0  0  0  0  0  0
  1  2  1  6  0  0  0
  1  3  1  0  0  0  0
  1  4  2  0  0  0  0
  1 16  1  0  0  0  0
  5  6  1  1  0  0  0
  5  7  1  0  0  0  0
  5 14  1  0  0  0  0
  7  8  1  6  0  0  0
  7  9  1  0  0  0  0
  9 10  1  1  0  0  0
  9 11  1  0  0  0  0
 11 12  1  1  0  0  0
 11 13  1  0  0  0  0
 13 14  1  0  0  0  0
 13 15  1  1  0  0  0
 15 16  1  0  0  0  0
M  CHG  1   3  -1
M  END
>  <CHROM.1>
153.82463225,-160.77560061,-169.84416676,9.58691601,-0.10869541,-1.28798330
3.01704066,1.18841951,1.04029636

>  <Name>
ligand

>  <RI>
0

>  <Rbt.Current_Directory>
/home/itssahil/PROJECTS/Mol_Feturizer/New_Systems/rnas/2HO7

>  <Rbt.Executable>
rbdock ($Id: //depot/dev/client3/rdock/2013.1/src/exe/rbdock.cxx#4 $)

>  <Rbt.Library>
libRbt.so (2013.1, Build901 2013/11/27)

>  <Rbt.Parameter_File>
/export/apps/rDock/src/rDock_2013.1_src/data/scripts/dock_solv.prm

>  <Rbt.Receptor>
prm/blind_docking_100.prm

>  <SCORE>
-16.681

>  <SCORE.INTER>
-19.1979

>  <SCORE.INTER.CONST>
1

>  <SCORE.INTER.POLAR>
-1.89257

>  <SCORE.INTER.ROT>
3

>  <SCORE.INTER.SOLV>
26.707

>  <SCORE.INTER.VDW>
-20.9924

>  <SCORE.INTER.norm>
-1.19987

>  <SCORE.INTRA>
2.51692

>  <SCORE.INTRA.DIHEDRAL>
3.94719

>  <SCORE.INTRA.DIHEDRAL.0>
0.00893466

>  <SCORE.INTRA.POLAR>
0

>  <SCORE.INTRA.POLAR.0>
0

>  <SCORE.INTRA.REPUL>
0

>  <SCORE.INTRA.REPUL.0>
0

>  <SCORE.INTRA.SOLV>
0.922722

>  <SCORE.INTRA.SOLV.lig_0>
-48.9722

>  <SCORE.INTRA.VDW>
0.0819578

>  <SCORE.INTRA.VDW.0>
-0.529409

>  <SCORE.INTRA.norm>
0.157307

>  <SCORE.RESTR>
0

>  <SCORE.RESTR.CAVITY>
0

>  <SCORE.RESTR.norm>
0

>  <SCORE.SYSTEM>
0

>  <SCORE.SYSTEM.CONST>
0

>  <SCORE.SYSTEM.DIHEDRAL>
0

>  <SCORE.SYSTEM.SOLV>
0

>  <SCORE.SYSTEM.norm>
0

>  <SCORE.heavy>
16

>  <SCORE.norm>
-1.04256

>  <RMSD>
41.238

$$$$
ligand
 OpenBabel11021811433D
libRbt.so/2013.1/901 2013/11/27
 16 16  0  0  0  0  0  0  0  0999 V2000
    8.3164   -2.2880    0.7969 P   0  0  2  0  0  0  0  0  0  0  0  0
    6.9023   -2.7354    0.7475 O   0  0  0  0  0  0  0  0  0  0  0  0
    9.2223   -3.2899   -0.0779 O   0  5  0  0  0  0  0  0  0  0  0  0
    8.8167   -2.3162    2.3274 O   0  0  0  0  0  0  0  0  0  0  0  0
   10.2781    0.0002   -3.3840 C   0  0  2  0  0  0  0  0  0  0  0  0
   11.7148   -0.0270   -3.4600 O   0  0  0  0  0  0  0  0  0  0  0  0
    9.7441    1.4443   -3.5642 C   0  0  2  0  0  0  0  0  0  0  0  0
   10.1989    1.9889   -4.8489 O   0  0  0  0  0  0  0  0  0  0  0  0
   10.2884    2.3134   -2.4150 C   0  0  1  0  0  0  0  0  0  0  0  0
    9.8053    3.6552   -2.5515 O   0  0  0  0  0  0  0  0  0  0  0  0
    9.7964    1.7171   -1.0870 C   0  0  2  0  0  0  0  0  0  0  0  0
   10.3034    2.5084    0.0091 O   0  0  0  0  0  0  0  0  0  0  0  0
   10.3237    0.2597   -0.9766 C   0  0  2  0  0  0  0  0  0  0  0  0
    9.8270   -0.5364   -2.0959 O   0  0  0  0  0  0  0  0  0  0  0  0
    9.8070   -0.3565    0.3362 C   0  0  0  0  0  0  0  0  0  0  0  0
    8.4480   -0.7868    0.1914 O   0  0  0  0  0  0  0  0  0  0  0  0
  1  2  1  6  0  0  0
  1  3  1  0  0  0  0
  1  4  2  0  0  0  0
  1 16  1  0  0  0  0
  5  6  1  1  0  0  0
  5  7  1  0  0  0  0
  5 14  1  0  0  0  0
  7  8  1  6  0  0  0
  7  9  1  0  0  0  0
  9 10  1  6  0  0  0
  9 11  1  0  0  0  0
 11 12  1  1  0  0  0
 11 13  1  0  0  0  0
 13 14  1  0  0  0  0
 13 15  1  1  0  0  0
 15 16  1  0  0  0  0
M  CHG  1   3  -1
M  END
>  <CHROM.1>
79.53911660,132.83306075,176.25285341,9.50638366,-0.10167993,-1.08426052
-2.82145012,1.23223399,0.47512006

>  <Name>
ligand

>  <RI>
0

>  <Rbt.Current_Directory>
/home/itssahil/PROJECTS/Mol_Feturizer/New_Systems/rnas/2HO7

>  <Rbt.Executable>
rbdock ($Id: //depot/dev/client3/rdock/2013.1/src/exe/rbdock.cxx#4 $)

>  <Rbt.Library>
libRbt.so (2013.1, Build901 2013/11/27)

>  <Rbt.Parameter_File>
/export/apps/rDock/src/rDock_2013.1_src/data/scripts/dock_solv.prm

>  <Rbt.Receptor>
prm/blind_docking_20.prm

>  <SCORE>
-18.7411

>  <SCORE.INTER>
-23.1754

>  <SCORE.INTER.CONST>
1

>  <SCORE.INTER.POLAR>
-2.54403

>  <SCORE.INTER.ROT>
3

>  <SCORE.INTER.SOLV>
21.9109

>  <SCORE.INTER.VDW>
-19.8738

>  <SCORE.INTER.norm>
-1.44846

>  <SCORE.INTRA>
4.43431

>  <SCORE.INTRA.DIHEDRAL>
7.69582

>  <SCORE.INTRA.DIHEDRAL.0>
0.00893466

>  <SCORE.INTRA.POLAR>
0

>  <SCORE.INTRA.POLAR.0>
0

>  <SCORE.INTRA.REPUL>
0

>  <SCORE.INTRA.REPUL.0>
0

>  <SCORE.INTRA.SOLV>
1.86113

>  <SCORE.INTRA.SOLV.lig_0>
-48.9722

>  <SCORE.INTRA.VDW>
-0.344167

>  <SCORE.INTRA.VDW.0>
-0.529409

>  <SCORE.INTRA.norm>
0.277144

>  <SCORE.RESTR>
0

>  <SCORE.RESTR.CAVITY>
0

>  <SCORE.RESTR.norm>
0

>  <SCORE.SYSTEM>
0

>  <SCORE.SYSTEM.CONST>
0

>  <SCORE.SYSTEM.DIHEDRAL>
0

>  <SCORE.SYSTEM.SOLV>
0

>  <SCORE.SYSTEM.norm>
0

>  <SCORE.heavy>
16

>  <SCORE.norm>
-1.17132

>  <RMSD>
41.242

$$$$
ligand
 OpenBabel11021811433D
libRbt.so/2013.1/901 2013/11/27
 16 16  0  0  0  0  0  0  0  0999 V2000
    8.1290   -2.4674    0.5133 P   0  0  2  0  0  0  0  0  0  0  0  0
    7.8523   -3.9007    0.2464 O   0  0  0  0  0  0  0  0  0  0  0  0
    8.6472   -2.2985    2.0274 O   0  5  0  0  0  0  0  0  0  0  0  0
    6.7664   -1.6309    0.3201 O   0  0  0  0  0  0  0  0  0  0  0  0
   10.2594    0.3989   -3.6950 C   0  0  2  0  0  0  0  0  0  0  0  0
   11.6625    0.0954   -3.7950 O   0  0  0  0  0  0  0  0  0  0  0  0
   10.0337    1.9279   -3.5747 C   0  0  2  0  0  0  0  0  0  0  0  0
   10.6244    2.6130   -4.7304 O   0  0  0  0  0  0  0  0  0  0  0  0
   10.7109    2.4214   -2.2823 C   0  0  1  0  0  0  0  0  0  0  0  0
   10.5131    3.8332   -2.1404 O   0  0  0  0  0  0  0  0  0  0  0  0
   10.0721    1.6857   -1.0941 C   0  0  2  0  0  0  0  0  0  0  0  0
   10.6985    2.1229    0.1312 O   0  0  0  0  0  0  0  0  0  0  0  0
   10.2905    0.1594   -1.2854 C   0  0  2  0  0  0  0  0  0  0  0  0
    9.6739   -0.2799   -2.5345 O   0  0  0  0  0  0  0  0  0  0  0  0
    9.6241   -0.5874   -0.1156 C   0  0  0  0  0  0  0  0  0  0  0  0
    9.2715   -1.9210   -0.5034 O   0  0  0  0  0  0  0  0  0  0  0  0
  1  2  1  6  0  0  0
  1  3  1  0  0  0  0
  1  4  2  0  0  0  0
  1 16  1  0  0  0  0
  5  6  1  1  0  0  0
  5  7  1  0  0  0  0
  5 14  1  0  0  0  0
  7  8  1  6  0  0  0
  7  9  1  0  0  0  0
  9 10  1  1  0  0  0
  9 11  1  0  0  0  0
 11 12  1  1  0  0  0
 11 13  1  0  0  0  0
 13 14  1  0  0  0  0
 13 15  1  1  0  0  0
 15 16  1  0  0  0  0
M  CHG  1   3  -1
M  END
>  <CHROM.1>
154.48362323,-159.55681804,-173.28173690,9.55105766,-0.08142589,-1.24644525
3.10795430,1.16966186,0.93369595

>  <Name>
ligand

>  <RI>
0

>  <Rbt.Current_Directory>
/home/itssahil/PROJECTS/Mol_Feturizer/New_Systems/rnas/2HO7

>  <Rbt.Executable>
rbdock ($Id: //depot/dev/client3/rdock/2013.1/src/exe/rbdock.cxx#4 $)

>  <Rbt.Library>
libRbt.so (2013.1, Build901 2013/11/27)

>  <Rbt.Parameter_File>
/export/apps/rDock/src/rDock_2013.1_src/data/scripts/dock_solv.prm

>  <Rbt.Receptor>
prm/blind_docking_20.prm

>  <SCORE>
-16.7234

>  <SCORE.INTER>
-19.2027

>  <SCORE.INTER.CONST>
1

>  <SCORE.INTER.POLAR>
-1.83312

>  <SCORE.INTER.ROT>
3

>  <SCORE.INTER.SOLV>
27.1928

>  <SCORE.INTER.VDW>
-21.3557

>  <SCORE.INTER.norm>
-1.20017

>  <SCORE.INTRA>
2.4793

>  <SCORE.INTRA.DIHEDRAL>
3.96423

>  <SCORE.INTRA.DIHEDRAL.0>
0.00893466

>  <SCORE.INTRA.POLAR>
0

>  <SCORE.INTRA.POLAR.0>
0

>  <SCORE.INTRA.REPUL>
0

>  <SCORE.INTRA.REPUL.0>
0

>  <SCORE.INTRA.SOLV>
0.950399

>  <SCORE.INTRA.SOLV.lig_0>
-48.9722

>  <SCORE.INTRA.VDW>
0.0219911

>  <SCORE.INTRA.VDW.0>
-0.529409

>  <SCORE.INTRA.norm>
0.154957

>  <SCORE.RESTR>
0

>  <SCORE.RESTR.CAVITY>
0

>  <SCORE.RESTR.norm>
0

>  <SCORE.SYSTEM>
0

>  <SCORE.SYSTEM.CONST>
0

>  <SCORE.SYSTEM.DIHEDRAL>
0

>  <SCORE.SYSTEM.SOLV>
0

>  <SCORE.SYSTEM.norm>
0

>  <SCORE.heavy>
16

>  <SCORE.norm>
-1.04521

>  <RMSD>
41.246

$$$$
ligand
 OpenBabel11021811433D
libRbt.so/2013.1/901 2013/11/27
 16 16  0  0  0  0  0  0  0  0999 V2000
    8.1284   -2.4639    0.5410 P   0  0  2  0  0  0  0  0  0  0  0  0
    6.8616   -1.7066    0.3866 O   0  0  0  0  0  0  0  0  0  0  0  0
    7.8593   -4.0199    0.2306 O   0  5  0  0  0  0  0  0  0  0  0  0
    8.6469   -2.3050    2.0574 O   0  0  0  0  0  0  0  0  0  0  0  0
   10.2641    0.4119   -3.6873 C   0  0  2  0  0  0  0  0  0  0  0  0
   11.6661    0.0990   -3.7722 O   0  0  0  0  0  0  0  0  0  0  0  0
   10.0473    1.9426   -3.5723 C   0  0  2  0  0  0  0  0  0  0  0  0
   10.6544    2.6214   -4.7234 O   0  0  0  0  0  0  0  0  0  0  0  0
   10.7145    2.4343   -2.2741 C   0  0  1  0  0  0  0  0  0  0  0  0
   10.5246    3.8477   -2.1371 O   0  0  0  0  0  0  0  0  0  0  0  0
   10.0587    1.7053   -1.0910 C   0  0  2  0  0  0  0  0  0  0  0  0
   10.6754    2.1409    0.1398 O   0  0  0  0  0  0  0  0  0  0  0  0
   10.2689    0.1772   -1.2770 C   0  0  2  0  0  0  0  0  0  0  0  0
    9.6623   -0.2606   -2.5314 O   0  0  0  0  0  0  0  0  0  0  0  0
    9.5856   -0.5627   -0.1126 C   0  0  0  0  0  0  0  0  0  0  0  0
    9.2449   -1.9008   -0.4954 O   0  0  0  0  0  0  0  0  0  0  0  0
  1  2  1  6  0  0  0
  1  3  1  0  0  0  0
  1  4  2  0  0  0  0
  1 16  1  0  0  0  0
  5  6  1  1  0  0  0
  5  7  1  0  0  0  0
  5 14  1  0  0  0  0
  7  8  1  6  0  0  0
  7  9  1  0  0  0  0
  9 10  1  1  0  0  0
  9 11  1  0  0  0  0
 11 12  1  1  0  0  0
 11 13  1  0  0  0  0
 13 14  1  0  0  0  0
 13 15  1  1  0  0  0
 15 16  1  0  0  0  0
M  CHG  1   3  -1
M  END
>  <CHROM.1>
155.28214404,-161.69776118,66.54083012,9.55355625,-0.08304559,-1.23295637
3.12403556,1.17294037,0.92056868

>  <Name>
ligand

>  <RI>
0

>  <Rbt.Current_Directory>
/home/itssahil/PROJECTS/Mol_Feturizer/New_Systems/rnas/2HO7

>  <Rbt.Executable>
rbdock ($Id: //depot/dev/client3/rdock/2013.1/src/exe/rbdock.cxx#4 $)

>  <Rbt.Library>
libRbt.so (2013.1, Build901 2013/11/27)

>  <Rbt.Parameter_File>
/export/apps/rDock/src/rDock_2013.1_src/data/scripts/dock_solv.prm

>  <Rbt.Receptor>
prm/blind_docking_100.prm

>  <SCORE>
-17.0902

>  <SCORE.INTER>
-19.0098

>  <SCORE.INTER.CONST>
1

>  <SCORE.INTER.POLAR>
-1.86043

>  <SCORE.INTER.ROT>
3

>  <SCORE.INTER.SOLV>
28.2123

>  <SCORE.INTER.VDW>
-21.4759

>  <SCORE.INTER.norm>
-1.18811

>  <SCORE.INTRA>
1.9119

>  <SCORE.INTRA.DIHEDRAL>
3.51116

>  <SCORE.INTRA.DIHEDRAL.0>
0.00893466

>  <SCORE.INTRA.POLAR>
0

>  <SCORE.INTRA.POLAR.0>
0

>  <SCORE.INTRA.REPUL>
0

>  <SCORE.INTRA.REPUL.0>
0

>  <SCORE.INTRA.SOLV>
0.168906

>  <SCORE.INTRA.SOLV.lig_0>
-48.9722

>  <SCORE.INTRA.VDW>
0.0718645

>  <SCORE.INTRA.VDW.0>
-0.529409

>  <SCORE.INTRA.norm>
0.119494

>  <SCORE.RESTR>
0.00772198

>  <SCORE.RESTR.CAVITY>
0.00772198

>  <SCORE.RESTR.norm>
0.000482624

>  <SCORE.SYSTEM>
0

>  <SCORE.SYSTEM.CONST>
0

>  <SCORE.SYSTEM.DIHEDRAL>
0

>  <SCORE.SYSTEM.SOLV>
0

>  <SCORE.SYSTEM.norm>
0

>  <SCORE.heavy>
16

>  <SCORE.norm>
-1.06814

>  <RMSD>
41.247

$$$$
ligand
 OpenBabel11021811433D
libRbt.so/2013.1/901 2013/11/27
 16 16  0  0  0  0  0  0  0  0999 V2000
    8.1306   -2.4626    0.5456 P   0  0  2  0  0  0  0  0  0  0  0  0
    6.8538   -1.7242    0.3814 O   0  0  0  0  0  0  0  0  0  0  0  0
    7.8829   -4.0252    0.2511 O   0  5  0  0  0  0  0  0  0  0  0  0
    8.6444   -2.2809    2.0610 O   0  0  0  0  0  0  0  0  0  0  0  0
   10.2583    0.4200   -3.6846 C   0  0  2  0  0  0  0  0  0  0  0  0
   11.6611    0.1104   -3.7696 O   0  0  0  0  0  0  0  0  0  0  0  0
   10.0378    1.9500   -3.5690 C   0  0  2  0  0  0  0  0  0  0  0  0
   10.6433    2.6308   -4.7197 O   0  0  0  0  0  0  0  0  0  0  0  0
   10.7037    2.4429   -2.2705 C   0  0  1  0  0  0  0  0  0  0  0  0
   10.5104    3.8557   -2.1330 O   0  0  0  0  0  0  0  0  0  0  0  0
   10.0496    1.7118   -1.0878 C   0  0  2  0  0  0  0  0  0  0  0  0
   10.6652    2.1484    0.1432 O   0  0  0  0  0  0  0  0  0  0  0  0
   10.2635    0.1842   -1.2744 C   0  0  2  0  0  0  0  0  0  0  0  0
    9.6580   -0.2545   -2.5291 O   0  0  0  0  0  0  0  0  0  0  0  0
    9.5819   -0.5578   -0.1104 C   0  0  0  0  0  0  0  0  0  0  0  0
    9.2410   -1.8953   -0.4950 O   0  0  0  0  0  0  0  0  0  0  0  0
  1  2  1  6  0  0  0
  1  3  1  0  0  0  0
  1  4  2  0  0  0  0
  1 16  1  0  0  0  0
  5  6  1  1  0  0  0
  5  7  1  0  0  0  0
  5 14  1  0  0  0  0
  7  8  1  6  0  0  0
  7  9  1  0  0  0  0
  9 10  1  1  0  0  0
  9 11  1  0  0  0  0
 11 12  1  1  0  0  0
 11 13  1  0  0  0  0
 13 14  1  0  0  0  0
 13 15  1  1  0  0  0
 15 16  1  0  0  0  0
M  CHG  1   3  -1
M  END
>  <CHROM.1>
155.11436550,-161.92926479,67.63627687,9.54932980,-0.07758726,-1.22927187
3.12862213,1.17514972,0.91607838

>  <Name>
ligand

>  <RI>
0

>  <Rbt.Current_Directory>
/home/itssahil/PROJECTS/Mol_Feturizer/New_Systems/rnas/2HO7

>  <Rbt.Executable>
rbdock ($Id: //depot/dev/client3/rdock/2013.1/src/exe/rbdock.cxx#4 $)

>  <Rbt.Library>
libRbt.so (2013.1, Build901 2013/11/27)

>  <Rbt.Parameter_File>
/export/apps/rDock/src/rDock_2013.1_src/data/scripts/dock_solv.prm

>  <Rbt.Receptor>
prm/blind_docking_20.prm

>  <SCORE>
-17.0201

>  <SCORE.INTER>
-18.9517

>  <SCORE.INTER.CONST>
1

>  <SCORE.INTER.POLAR>
-1.87572

>  <SCORE.INTER.ROT>
3

>  <SCORE.INTER.SOLV>
28.1866

>  <SCORE.INTER.VDW>
-21.3776

>  <SCORE.INTER.norm>
-1.18448

>  <SCORE.INTRA>
1.93151

>  <SCORE.INTRA.DIHEDRAL>
3.52281

>  <SCORE.INTRA.DIHEDRAL.0>
0.00893466

>  <SCORE.INTRA.POLAR>
0

>  <SCORE.INTRA.POLAR.0>
0

>  <SCORE.INTRA.REPUL>
0

>  <SCORE.INTRA.REPUL.0>
0

>  <SCORE.INTRA.SOLV>
0.179555

>  <SCORE.INTRA.SOLV.lig_0>
-48.9722

>  <SCORE.INTRA.VDW>
0.0803251

>  <SCORE.INTRA.VDW.0>
-0.529409

>  <SCORE.INTRA.norm>
0.120719

>  <SCORE.RESTR>
2.949e-05

>  <SCORE.RESTR.CAVITY>
2.949e-05

>  <SCORE.RESTR.norm>
1.84312e-06

>  <SCORE.SYSTEM>
0

>  <SCORE.SYSTEM.CONST>
0

>  <SCORE.SYSTEM.DIHEDRAL>
0

>  <SCORE.SYSTEM.SOLV>
0

>  <SCORE.SYSTEM.norm>
0

>  <SCORE.heavy>
16

>  <SCORE.norm>
-1.06376

>  <RMSD>
41.248

$$$$
ligand
 OpenBabel11021811433D
libRbt.so/2013.1/901 2013/11/27
 16 16  0  0  0  0  0  0  0  0999 V2000
    8.1269   -2.4663    0.5384 P   0  0  2  0  0  0  0  0  0  0  0  0
    6.8578   -1.7129    0.3827 O   0  0  0  0  0  0  0  0  0  0  0  0
    7.8633   -4.0228    0.2258 O   0  5  0  0  0  0  0  0  0  0  0  0
    8.6422   -2.3074    2.0559 O   0  0  0  0  0  0  0  0  0  0  0  0
   10.2703    0.4159   -3.6834 C   0  0  2  0  0  0  0  0  0  0  0  0
   11.6739    0.1084   -3.7611 O   0  0  0  0  0  0  0  0  0  0  0  0
   10.0468    1.9457   -3.5706 C   0  0  2  0  0  0  0  0  0  0  0  0
   10.6569    2.6261   -4.7190 O   0  0  0  0  0  0  0  0  0  0  0  0
   10.7055    2.4410   -2.2694 C   0  0  1  0  0  0  0  0  0  0  0  0
   10.5093    3.8537   -2.1343 O   0  0  0  0  0  0  0  0  0  0  0  0
   10.0467    1.7102   -1.0890 C   0  0  2  0  0  0  0  0  0  0  0  0
   10.6555    2.1491    0.1445 O   0  0  0  0  0  0  0  0  0  0  0  0
   10.2640    0.1828   -1.2729 C   0  0  2  0  0  0  0  0  0  0  0  0
    9.6654   -0.2583   -2.5301 O   0  0  0  0  0  0  0  0  0  0  0  0
    9.5778   -0.5591   -0.1115 C   0  0  0  0  0  0  0  0  0  0  0  0
    9.2432   -1.8984   -0.4954 O   0  0  0  0  0  0  0  0  0  0  0  0
  1  2  1  6  0  0  0
  1  3  1  0  0  0  0
  1  4  2  0  0  0  0
  1 16  1  0  0  0  0
  5  6  1  1  0  0  0
  5  7  1  0  0  0  0
  5 14  1  0  0  0  0
  7  8  1  6  0  0  0
  7  9  1  0  0  0  0
  9 10  1  1  0  0  0
  9 11  1  0  0  0  0
 11 12  1  1  0  0  0
 11 13  1  0  0  0  0
 13 14  1  0  0  0  0
 13 15  1  1  0  0  0
 15 16  1  0  0  0  0
M  CHG  1   3  -1
M  END
>  <CHROM.1>
155.22858760,-161.84715073,66.47297002,9.55016996,-0.08053000,-1.23151125
3.14047212,1.17342903,0.90449254

>  <Name>
ligand

>  <RI>
0

>  <Rbt.Current_Directory>
/home/itssahil/PROJECTS/Mol_Feturizer/New_Systems/rnas/2HO7

>  <Rbt.Executable>
rbdock ($Id: //depot/dev/client3/rdock/2013.1/src/exe/rbdock.cxx#4 $)

>  <Rbt.Library>
libRbt.so (2013.1, Build901 2013/11/27)

>  <Rbt.Parameter_File>
/export/apps/rDock/src/rDock_2013.1_src/data/scripts/dock_solv.prm

>  <Rbt.Receptor>
prm/blind_docking_20.prm

>  <SCORE>
-17.0716

>  <SCORE.INTER>
-18.9749

>  <SCORE.INTER.CONST>
1

>  <SCORE.INTER.POLAR>
-1.8583

>  <SCORE.INTER.ROT>
3

>  <SCORE.INTER.SOLV>
28.2348

>  <SCORE.INTER.VDW>
-21.4672

>  <SCORE.INTER.norm>
-1.18593

>  <SCORE.INTRA>
1.90328

>  <SCORE.INTRA.DIHEDRAL>
3.49389

>  <SCORE.INTRA.DIHEDRAL.0>
0.00893466

>  <SCORE.INTRA.POLAR>
0

>  <SCORE.INTRA.POLAR.0>
0

>  <SCORE.INTRA.REPUL>
0

>  <SCORE.INTRA.REPUL.0>
0

>  <SCORE.INTRA.SOLV>
0.167459

>  <SCORE.INTRA.SOLV.lig_0>
-48.9722

>  <SCORE.INTRA.VDW>
0.0726048

>  <SCORE.INTRA.VDW.0>
-0.529409

>  <SCORE.INTRA.norm>
0.118955

>  <SCORE.RESTR>
0

>  <SCORE.RESTR.CAVITY>
0

>  <SCORE.RESTR.norm>
0

>  <SCORE.SYSTEM>
0

>  <SCORE.SYSTEM.CONST>
0

>  <SCORE.SYSTEM.DIHEDRAL>
0

>  <SCORE.SYSTEM.SOLV>
0

>  <SCORE.SYSTEM.norm>
0

>  <SCORE.heavy>
16

>  <SCORE.norm>
-1.06698

>  <RMSD>
41.248

$$$$
ligand
 OpenBabel11021811433D
libRbt.so/2013.1/901 2013/11/27
 16 16  0  0  0  0  0  0  0  0999 V2000
    8.1122   -2.4767    0.5371 P   0  0  2  0  0  0  0  0  0  0  0  0
    7.8402   -3.9080    0.2548 O   0  0  0  0  0  0  0  0  0  0  0  0
    8.6119   -2.3202    2.0588 O   0  5  0  0  0  0  0  0  0  0  0  0
    6.7513   -1.6398    0.3344 O   0  0  0  0  0  0  0  0  0  0  0  0
   10.3017    0.3663   -3.6755 C   0  0  2  0  0  0  0  0  0  0  0  0
   11.7064    0.0591   -3.7313 O   0  0  0  0  0  0  0  0  0  0  0  0
   10.0757    1.8972   -3.5841 C   0  0  2  0  0  0  0  0  0  0  0  0
   10.7001    2.5642   -4.7327 O   0  0  0  0  0  0  0  0  0  0  0  0
   10.7171    2.4087   -2.2806 C   0  0  1  0  0  0  0  0  0  0  0  0
   10.5182    3.8228   -2.1651 O   0  0  0  0  0  0  0  0  0  0  0  0
   10.0436    1.6917   -1.1001 C   0  0  2  0  0  0  0  0  0  0  0  0
   10.6361    2.1459    0.1358 O   0  0  0  0  0  0  0  0  0  0  0  0
   10.2643    0.1623   -1.2627 C   0  0  2  0  0  0  0  0  0  0  0  0
    9.6824   -0.2944   -2.5220 O   0  0  0  0  0  0  0  0  0  0  0  0
    9.5637   -0.5660   -0.1013 C   0  0  0  0  0  0  0  0  0  0  0  0
    9.2664   -1.9207   -0.4611 O   0  0  0  0  0  0  0  0  0  0  0  0
  1  2  1  6  0  0  0
  1  3  1  0  0  0  0
  1  4  2  0  0  0  0
  1 16  1  0  0  0  0
  5  6  1  1  0  0  0
  5  7  1  0  0  0  0
  5 14  1  0  0  0  0
  7  8  1  6  0  0  0
  7  9  1  0  0  0  0
  9 10  1  1  0  0  0
  9 11  1  0  0  0  0
 11 12  1  1  0  0  0
 11 13  1  0  0  0  0
 13 14  1  0  0  0  0
 13 15  1  1  0  0  0
 15 16  1  0  0  0  0
M  CHG  1   3  -1
M  END
>  <CHROM.1>
156.73798937,-160.62415374,-176.23464829,9.54772307,-0.09266224,-1.23183483
-3.11424423,1.16331540,0.86337572

>  <Name>
ligand

>  <RI>
0

>  <Rbt.Current_Directory>
/home/itssahil/PROJECTS/Mol_Feturizer/New_Systems/rnas/2HO7

>  <Rbt.Executable>
rbdock ($Id: //depot/dev/client3/rdock/2013.1/src/exe/rbdock.cxx#4 $)

>  <Rbt.Library>
libRbt.so (2013.1, Build901 2013/11/27)

>  <Rbt.Parameter_File>
/export/apps/rDock/src/rDock_2013.1_src/data/scripts/dock_solv.prm

>  <Rbt.Receptor>
prm/blind_docking_40.prm

>  <SCORE>
-16.7032

>  <SCORE.INTER>
-18.878

>  <SCORE.INTER.CONST>
1

>  <SCORE.INTER.POLAR>
-1.75286

>  <SCORE.INTER.ROT>
3

>  <SCORE.INTER.SOLV>
27.3652

>  <SCORE.INTER.VDW>
-21.4642

>  <SCORE.INTER.norm>
-1.17988

>  <SCORE.INTRA>
2.16035

>  <SCORE.INTRA.DIHEDRAL>
3.44239

>  <SCORE.INTRA.DIHEDRAL.0>
0.00893466

>  <SCORE.INTRA.POLAR>
0

>  <SCORE.INTRA.POLAR.0>
0

>  <SCORE.INTRA.REPUL>
0

>  <SCORE.INTRA.REPUL.0>
0

>  <SCORE.INTRA.SOLV>
0.926869

>  <SCORE.INTRA.SOLV.lig_0>
-48.9722

>  <SCORE.INTRA.VDW>
-0.0242779

>  <SCORE.INTRA.VDW.0>
-0.529409

>  <SCORE.INTRA.norm>
0.135022

>  <SCORE.RESTR>
0.014482

>  <SCORE.RESTR.CAVITY>
0.014482

>  <SCORE.RESTR.norm>
0.000905124

>  <SCORE.SYSTEM>
0

>  <SCORE.SYSTEM.CONST>
0

>  <SCORE.SYSTEM.DIHEDRAL>
0

>  <SCORE.SYSTEM.SOLV>
0

>  <SCORE.SYSTEM.norm>
0

>  <SCORE.heavy>
16

>  <SCORE.norm>
-1.04395

>  <RMSD>
41.248

$$$$
ligand
 OpenBabel11021811433D
libRbt.so/2013.1/901 2013/11/27
 16 16  0  0  0  0  0  0  0  0999 V2000
    8.1329   -2.4663    0.5440 P   0  0  2  0  0  0  0  0  0  0  0  0
    6.8612   -1.7170    0.3906 O   0  0  0  0  0  0  0  0  0  0  0  0
    7.8733   -4.0239    0.2338 O   0  5  0  0  0  0  0  0  0  0  0  0
    8.6514   -2.3042    2.0601 O   0  0  0  0  0  0  0  0  0  0  0  0
   10.2658    0.4176   -3.6849 C   0  0  2  0  0  0  0  0  0  0  0  0
   11.6691    0.1093   -3.7638 O   0  0  0  0  0  0  0  0  0  0  0  0
   10.0433    1.9476   -3.5727 C   0  0  2  0  0  0  0  0  0  0  0  0
   10.6527    2.6271   -4.7220 O   0  0  0  0  0  0  0  0  0  0  0  0
   10.7035    2.4432   -2.2723 C   0  0  1  0  0  0  0  0  0  0  0  0
   10.5082    3.8560   -2.1377 O   0  0  0  0  0  0  0  0  0  0  0  0
   10.0453    1.7133   -1.0910 C   0  0  2  0  0  0  0  0  0  0  0  0
   10.6555    2.1524    0.1418 O   0  0  0  0  0  0  0  0  0  0  0  0
   10.2615    0.1857   -1.2743 C   0  0  2  0  0  0  0  0  0  0  0  0
    9.6615   -0.2556   -2.5307 O   0  0  0  0  0  0  0  0  0  0  0  0
    9.5760   -0.5552   -0.1119 C   0  0  0  0  0  0  0  0  0  0  0  0
    9.2451   -1.8962   -0.4931 O   0  0  0  0  0  0  0  0  0  0  0  0
  1  2  1  6  0  0  0
  1  3  1  0  0  0  0
  1  4  2  0  0  0  0
  1 16  1  0  0  0  0
  5  6  1  1  0  0  0
  5  7  1  0  0  0  0
  5 14  1  0  0  0  0
  7  8  1  6  0  0  0
  7  9  1  0  0  0  0
  9 10  1  1  0  0  0
  9 11  1  0  0  0  0
 11 12  1  1  0  0  0
 11 13  1  0  0  0  0
 13 14  1  0  0  0  0
 13 15  1  1  0  0  0
 15 16  1  0  0  0  0
M  CHG  1   3  -1
M  END
>  <CHROM.1>
155.46063508,-162.04564324,66.44118488,9.55074785,-0.07906412,-1.23071604
3.13853646,1.17516709,0.90568963

>  <Name>
ligand

>  <RI>
0

>  <Rbt.Current_Directory>
/home/itssahil/PROJECTS/Mol_Feturizer/New_Systems/rnas/2HO7

>  <Rbt.Executable>
rbdock ($Id: //depot/dev/client3/rdock/2013.1/src/exe/rbdock.cxx#4 $)

>  <Rbt.Library>
libRbt.so (2013.1, Build901 2013/11/27)

>  <Rbt.Parameter_File>
/export/apps/rDock/src/rDock_2013.1_src/data/scripts/dock_solv.prm

>  <Rbt.Receptor>
prm/blind_docking_80.prm

>  <SCORE>
-17.0592

>  <SCORE.INTER>
-18.9314

>  <SCORE.INTER.CONST>
1

>  <SCORE.INTER.POLAR>
-1.85451

>  <SCORE.INTER.ROT>
3

>  <SCORE.INTER.SOLV>
28.204

>  <SCORE.INTER.VDW>
-21.4405

>  <SCORE.INTER.norm>
-1.18321

>  <SCORE.INTRA>
1.86985

>  <SCORE.INTRA.DIHEDRAL>
3.43207

>  <SCORE.INTRA.DIHEDRAL.0>
0.00893466

>  <SCORE.INTRA.POLAR>
0

>  <SCORE.INTRA.POLAR.0>
0

>  <SCORE.INTRA.REPUL>
0

>  <SCORE.INTRA.REPUL.0>
0

>  <SCORE.INTRA.SOLV>
0.165852

>  <SCORE.INTRA.SOLV.lig_0>
-48.9722

>  <SCORE.INTRA.VDW>
0.0708943

>  <SCORE.INTRA.VDW.0>
-0.529409

>  <SCORE.INTRA.norm>
0.116866

>  <SCORE.RESTR>
0.00232188

>  <SCORE.RESTR.CAVITY>
0.00232188

>  <SCORE.RESTR.norm>
0.000145117

>  <SCORE.SYSTEM>
0

>  <SCORE.SYSTEM.CONST>
0

>  <SCORE.SYSTEM.DIHEDRAL>
0

>  <SCORE.SYSTEM.SOLV>
0

>  <SCORE.SYSTEM.norm>
0

>  <SCORE.heavy>
16

>  <SCORE.norm>
-1.0662

>  <RMSD>
41.248

$$$$
ligand
 OpenBabel11021811433D
libRbt.so/2013.1/901 2013/11/27
 16 16  0  0  0  0  0  0  0  0999 V2000
    8.1579   -2.5506    0.5245 P   0  0  2  0  0  0  0  0  0  0  0  0
    7.9317   -3.9904    0.2447 O   0  0  0  0  0  0  0  0  0  0  0  0
    8.6208   -2.3725    2.0554 O   0  5  0  0  0  0  0  0  0  0  0  0
    6.7789   -1.7530    0.2886 O   0  0  0  0  0  0  0  0  0  0  0  0
   10.3102    0.3364   -3.6793 C   0  0  2  0  0  0  0  0  0  0  0  0
   11.7201    0.0515   -3.7207 O   0  0  0  0  0  0  0  0  0  0  0  0
   10.0589    1.8637   -3.5950 C   0  0  2  0  0  0  0  0  0  0  0  0
   10.6837    2.5371   -4.7397 O   0  0  0  0  0  0  0  0  0  0  0  0
   10.6795    2.3894   -2.2870 C   0  0  1  0  0  0  0  0  0  0  0  0
   10.4570    3.8005   -2.1780 O   0  0  0  0  0  0  0  0  0  0  0  0
   10.0062    1.6653   -1.1107 C   0  0  2  0  0  0  0  0  0  0  0  0
   10.5794    2.1327    0.1293 O   0  0  0  0  0  0  0  0  0  0  0  0
   10.2528    0.1392   -1.2663 C   0  0  2  0  0  0  0  0  0  0  0  0
    9.6904   -0.3306   -2.5297 O   0  0  0  0  0  0  0  0  0  0  0  0
    9.5527   -0.5967   -0.1094 C   0  0  0  0  0  0  0  0  0  0  0  0
    9.3171   -1.9678   -0.4523 O   0  0  0  0  0  0  0  0  0  0  0  0
  1  2  1  6  0  0  0
  1  3  1  0  0  0  0
  1  4  2  0  0  0  0
  1 16  1  0  0  0  0
  5  6  1  1  0  0  0
  5  7  1  0  0  0  0
  5 14  1  0  0  0  0
  7  8  1  6  0  0  0
  7  9  1  0  0  0  0
  9 10  1  1  0  0  0
  9 11  1  0  0  0  0
 11 12  1  1  0  0  0
 11 13  1  0  0  0  0
 13 14  1  0  0  0  0
 13 15  1  1  0  0  0
 15 16  1  0  0  0  0
M  CHG  1   3  -1
M  END
>  <CHROM.1>
158.49063165,-160.44671123,-177.21888491,9.55197526,-0.13541932,-1.24028763
-3.06483204,1.17458490,0.81667229

>  <Name>
ligand

>  <RI>
0

>  <Rbt.Current_Directory>
/home/itssahil/PROJECTS/Mol_Feturizer/New_Systems/rnas/2HO7

>  <Rbt.Executable>
rbdock ($Id: //depot/dev/client3/rdock/2013.1/src/exe/rbdock.cxx#4 $)

>  <Rbt.Library>
libRbt.so (2013.1, Build901 2013/11/27)

>  <Rbt.Parameter_File>
/export/apps/rDock/src/rDock_2013.1_src/data/scripts/dock_solv.prm

>  <Rbt.Receptor>
prm/blind_docking_20.prm

>  <SCORE>
-16.676

>  <SCORE.INTER>
-18.7132

>  <SCORE.INTER.CONST>
1

>  <SCORE.INTER.POLAR>
-1.72992

>  <SCORE.INTER.ROT>
3

>  <SCORE.INTER.SOLV>
27.343

>  <SCORE.INTER.VDW>
-21.4234

>  <SCORE.INTER.norm>
-1.16957

>  <SCORE.INTRA>
2.03716

>  <SCORE.INTRA.DIHEDRAL>
3.23718

>  <SCORE.INTRA.DIHEDRAL.0>
0.00893466

>  <SCORE.INTRA.POLAR>
0

>  <SCORE.INTRA.POLAR.0>
0

>  <SCORE.INTRA.REPUL>
0

>  <SCORE.INTRA.REPUL.0>
0

>  <SCORE.INTRA.SOLV>
0.932366

>  <SCORE.INTRA.SOLV.lig_0>
-48.9722

>  <SCORE.INTRA.VDW>
-0.047611

>  <SCORE.INTRA.VDW.0>
-0.529409

>  <SCORE.INTRA.norm>
0.127323

>  <SCORE.RESTR>
0

>  <SCORE.RESTR.CAVITY>
0

>  <SCORE.RESTR.norm>
0

>  <SCORE.SYSTEM>
0

>  <SCORE.SYSTEM.CONST>
0

>  <SCORE.SYSTEM.DIHEDRAL>
0

>  <SCORE.SYSTEM.SOLV>
0

>  <SCORE.SYSTEM.norm>
0

>  <SCORE.heavy>
16

>  <SCORE.norm>
-1.04225

>  <RMSD>
41.261

$$$$
