@<TRIPOS>MOLECULE
2HO7_rdock.pdb
 3097 3450 0 0 0
SMALL
GASTEIGER

@<TRIPOS>ATOM
      1  C5'       40.8690    7.3740   21.0470 C.3     0  A0          0.0000
      2  O5'       41.3490    7.1740   22.4060 O.3     0  A0          0.0000
      3  C4'       41.8680    7.8820   20.0100 C.3     0  A0          0.0000
      4  O4'       42.7590    6.8010   19.6280 O.3     0  A0          0.0000
      5  C3'       41.1910    8.3160   18.7050 C.3     0  A0          0.0000
      6  O3'       41.4400    9.6760   18.2860 O.3     0  A0          0.0000
      7  C2'       41.2920    7.1270   17.7510 C.3     0  A0          0.0000
      8  O2'       41.5090    7.3770   16.3830 O.3     0  A0          0.0000
      9  C1'       42.5220    6.4170   18.2890 C.3     0  A0          0.0000
     10  N1        45.1510    2.4090   16.6070 N.ar    0  A0          0.0000
     11  C2        45.4010    3.7270   16.6210 C.ar    0  A0          0.0000
     12  N3        44.6520    4.7200   17.0870 N.ar    0  A0          0.0000
     13  C4        43.5050    4.2410   17.6010 C.ar    0  A0          0.0000
     14  C5        43.1000    2.9190   17.6620 C.ar    0  A0          0.0000
     15  C6        43.9820    1.9610   17.1250 C.ar    0  A0          0.0000
     16  N6        43.7290    0.6490   17.0940 N.pl3   0  A0          0.0000
     17  N7        41.8580    2.8140   18.2780 N.ar    0  A0          0.0000
     18  C8        41.5470    4.0540   18.5690 C.ar    0  A0          0.0000
     19  N9        42.5000    4.9670   18.1780 N.ar    0  A0          0.0000
     20  P         42.0570    9.9990   16.8140 P.3     1  G1          0.0000
     21  C5'       42.6520   12.1900   18.1250 C.3     1  G1          0.0000
     22  O5'       42.9260   11.3180   17.0410 O.3     1  G1          0.0000
     23  C4'       43.9140   12.4810   18.8920 C.3     1  G1          0.0000
     24  O4'       44.8930   13.0230   17.9820 O.3     1  G1          0.0000
     25  C3'       43.6630   13.5570   19.9360 C.3     1  G1          0.0000
     26  O3'       44.1870   13.2760   21.2200 O.3     1  G1          0.0000
     27  C2'       44.1150   14.8680   19.3150 C.3     1  G1          0.0000
     28  O2'       44.8100   15.6400   20.2630 O.3     1  G1          0.0000
     29  C1'       45.1100   14.3850   18.2620 C.3     1  G1          0.0000
     30  N1        47.8210   15.0170   14.0760 N.ar    1  G1          0.0000
     31  C2        47.9990   14.1380   15.1120 C.ar    1  G1          0.0000
     32  N2        49.0630   13.3220   15.0250 N.pl3   1  G1          0.0000
     33  N3        47.1930   14.0610   16.1530 N.ar    1  G1          0.0000
     34  C4        46.1710   14.9480   16.0720 C.ar    1  G1          0.0000
     35  C5        45.8980   15.8620   15.0820 C.ar    1  G1          0.0000
     36  C6        46.7780   15.9360   13.9690 C.ar    1  G1          0.0000
     37  O6        46.7170   16.6840   12.9850 O.2     1  G1          0.0000
     38  N7        44.7460   16.5850   15.3780 N.ar    1  G1          0.0000
     39  C8        44.3560   16.1030   16.5270 C.ar    1  G1          0.0000
     40  N9        45.1860   15.1160   17.0050 N.ar    1  G1          0.0000
     41  OP1       40.9320   10.3540   15.8910 O.2     1  G1         -0.5000
     42  OP2       43.0290    8.9430   16.4130 O.co2   1  G1         -0.5000
     43  P         43.5990   12.0560   22.0680 P.3     2  C2          0.0000
     44  C5'       45.6290   10.4460   21.6280 C.3     2  C2          0.0000
     45  O5'       44.2620   10.7680   21.4060 O.3     2  C2          0.0000
     46  C4'       45.8760    8.9880   21.3120 C.3     2  C2          0.0000
     47  O4'       45.4040    8.6910   19.9710 O.3     2  C2          0.0000
     48  C3'       47.3320    8.5530   21.2970 C.3     2  C2          0.0000
     49  O3'       47.7620    8.2440   22.6140 O.3     2  C2          0.0000
     50  C2'       47.2880    7.3140   20.4120 C.3     2  C2          0.0000
     51  O2'       46.8240    6.1820   21.1040 O.3     2  C2          0.0000
     52  C1'       46.2400    7.7150   19.3760 C.3     2  C2          0.0000
     53  N1        46.8050    8.2830   18.1450 N.ar    2  C2          0.0000
     54  C2        47.6250    7.4820   17.3520 C.ar    2  C2          0.0000
     55  O2        47.8460    6.3150   17.7100 O.2     2  C2          0.0000
     56  N3        48.1530    7.9940   16.2180 N.ar    2  C2          0.0000
     57  C4        47.8770    9.2520   15.8630 C.ar    2  C2          0.0000
     58  N4        48.4120    9.7140   14.7320 N.pl3   2  C2          0.0000
     59  C5        47.0390   10.0900   16.6530 C.ar    2  C2          0.0000
     60  C6        46.5300    9.5710   17.7760 C.ar    2  C2          0.0000
     61  OP1       42.1300   11.9930   21.8430 O.2     2  C2          0.0000
     62  OP2       44.1280   12.2110   23.4460 O.co2   2  C2         -1.0000
     63  P         49.3140    8.3660   22.9930 P.3     3  G3          0.0000
     64  C5'       50.0070    5.8500   22.8210 C.3     3  G3          0.0000
     65  O5'       50.0090    7.1450   22.2440 O.3     3  G3          0.0000
     66  C4'       50.9650    4.9500   22.0830 C.3     3  G3          0.0000
     67  O4'       50.5740    4.8750   20.6900 O.3     3  G3          0.0000
     68  C3'       52.4000    5.4290   22.0050 C.3     3  G3          0.0000
     69  O3'       53.0860    5.1340   23.2160 O.3     3  G3          0.0000
     70  C2'       52.9290    4.6400   20.8110 C.3     3  G3          0.0000
     71  O2'       53.2410    3.2950   21.1100 O.3     3  G3          0.0000
     72  C1'       51.7160    4.6620   19.8850 C.3     3  G3          0.0000
     73  N1        53.9430    6.2210   15.6440 N.ar    3  G3          0.0000
     74  C2        54.1470    5.0770   16.3750 C.ar    3  G3          0.0000
     75  N2        55.0830    4.2360   15.9150 N.pl3   3  G3          0.0000
     76  N3        53.4860    4.7810   17.4770 N.ar    3  G3          0.0000
     77  C4        52.5980    5.7380   17.8030 C.ar    3  G3          0.0000
     78  C5        52.3190    6.9160   17.1480 C.ar    3  G3          0.0000
     79  C6        53.0280    7.2200   15.9610 C.ar    3  G3          0.0000
     80  O6        52.9220    8.2090   15.2330 O.2     3  G3          0.0000
     81  N7        51.3290    7.6250   17.8120 N.ar    3  G3          0.0000
     82  C8        51.0390    6.8770   18.8390 C.ar    3  G3          0.0000
     83  N9        51.7770    5.7200   18.8870 N.ar    3  G3          0.0000
     84  OP1       49.4060    8.1430   24.4570 O.3     3  G3         -0.5000
     85  OP2       49.8560    9.6080   22.4010 O.co2   3  G3         -0.5000
     86  P         54.3130    6.0620   23.6730 P.3     4  C4          0.0000
     87  C5'       55.7480    4.1770   22.5750 C.3     4  C4          0.0000
     88  O5'       55.4980    5.5640   22.7380 O.3     4  C4          0.0000
     89  C4'       56.6600    3.9600   21.4010 C.3     4  C4          0.0000
     90  O4'       55.9600    4.2330   20.1610 O.3     4  C4          0.0000
     91  C3'       57.8360    4.9120   21.3750 C.3     4  C4          0.0000
     92  O3'       58.8520    4.4230   22.2240 O.3     4  C4          0.0000
     93  C2'       58.2230    4.9140   19.9020 C.3     4  C4          0.0000
     94  O2'       59.0010    3.7950   19.5240 O.3     4  C4          0.0000
     95  C1'       56.8470    4.8460   19.2370 C.3     4  C4          0.0000
     96  N1        56.3020    6.1660   18.9170 N.ar    4  C4          0.0000
     97  C2        56.6380    6.7580   17.7020 C.ar    4  C4          0.0000
     98  O2        57.4060    6.1510   16.9300 O.2     4  C4          0.0000
     99  N3        56.1140    7.9740   17.3960 N.ar    4  C4          0.0000
    100  C4        55.2860    8.5790   18.2530 C.ar    4  C4          0.0000
    101  N4        54.7740    9.7600   17.9070 N.pl3   4  C4          0.0000
    102  C5        54.9410    7.9950   19.5000 C.ar    4  C4          0.0000
    103  C6        55.4670    6.8020   19.7910 C.ar    4  C4          0.0000
    104  OP1       54.6660    5.7260   25.0780 O.3     4  C4         -0.5000
    105  OP2       53.9290    7.4600   23.3140 O.co2   4  C4         -0.5000
    106  P         60.0590    5.3800   22.6420 P.3     5  C5          0.0000
    107  C5'       61.8720    6.4390   21.1580 C.3     5  C5          0.0000
    108  O5'       60.9540    5.3990   21.3340 O.3     5  C5          0.0000
    109  C4'       62.4890    6.3860   19.7960 C.3     5  C5          0.0000
    110  O4'       61.4970    6.7190   18.7890 O.3     5  C5          0.0000
    111  C3'       63.5270    7.4720   19.6950 C.3     5  C5          0.0000
    112  O3'       64.8620    7.2730   20.1180 O.3     5  C5          0.0000
    113  C2'       62.8880    8.6770   19.0290 C.3     5  C5          0.0000
    114  O2'       63.7600    9.3900   18.1680 O.3     5  C5          0.0000
    115  C1'       61.7270    8.0260   18.2700 C.3     5  C5          0.0000
    116  N1        60.4730    8.7880   18.3670 N.ar    5  C5          0.0000
    117  C2        60.2250    9.7940   17.4390 C.ar    5  C5          0.0000
    118  O2        61.0610   10.0140   16.5590 O.2     5  C5          0.0000
    119  N3        59.0850   10.5040   17.5210 N.ar    5  C5          0.0000
    120  C4        58.2070   10.2390   18.4820 C.ar    5  C5          0.0000
    121  N4        57.0970   10.9690   18.5280 N.pl3   5  C5          0.0000
    122  C5        58.4300    9.2140   19.4410 C.ar    5  C5          0.0000
    123  C6        59.5660    8.5210   19.3480 C.ar    5  C5          0.0000
    124  OP1       60.7920    4.6990   23.7380 O.3     5  C5         -0.5000
    125  OP2       59.5650    6.7670   22.8420 O.co2   5  C5         -0.5000
    126  P         65.9030    6.5350   19.1500 P.3     6  U6          0.0000
    127  C5'       68.3020    7.3710   18.4320 C.3     6  U6          0.0000
    128  O5'       66.9780    7.6840   18.8560 O.3     6  U6          0.0000
    129  C4'       68.4870    7.7490   16.9820 C.3     6  U6          0.0000
    130  O4'       67.6130    6.9340   16.1450 O.3     6  U6          0.0000
    131  C3'       68.0920    9.1730   16.6430 C.3     6  U6          0.0000
    132  O3'       69.1360   10.0860   16.9690 O.3     6  U6          0.0000
    133  C2'       67.8180    9.0680   15.1450 C.3     6  U6          0.0000
    134  O2'       69.0020    9.0120   14.3750 O.3     6  U6          0.0000
    135  C1'       67.1170    7.7100   15.0650 C.3     6  U6          0.0000
    136  OP1       65.2230    6.1570   17.8750 O.2     6  U6         -0.5000
    137  OP2       66.4850    5.4690   20.0080 O.co2   6  U6         -0.5000
    138  P         68.7730   11.6180   17.3040 P.3     7  G7          0.0000
    139  C5'       69.0810   12.3540   14.8130 C.3     7  G7          0.0000
    140  O5'       68.2170   12.1880   15.9260 O.3     7  G7          0.0000
    141  C4'       68.5780   13.4610   13.9360 C.3     7  G7          0.0000
    142  O4'       67.2740   13.0770   13.4420 O.3     7  G7          0.0000
    143  C3'       68.3430   14.7910   14.6370 C.3     7  G7          0.0000
    144  O3'       69.5150   15.5900   14.6500 O.3     7  G7          0.0000
    145  C2'       67.2960   15.4310   13.7480 C.3     7  G7          0.0000
    146  O2'       67.8630   16.0020   12.5920 O.3     7  G7          0.0000
    147  C1'       66.4400   14.2200   13.3800 C.3     7  G7          0.0000
    148  N1        62.0590   16.1180   15.0090 N.ar    7  G7          0.0000
    149  C2        62.8870   16.5550   14.0020 C.ar    7  G7          0.0000
    150  N2        62.5000   17.6560   13.3470 N.pl3   7  G7          0.0000
    151  N3        64.0100   15.9560   13.6610 N.ar    7  G7          0.0000
    152  C4        64.2480   14.8650   14.4200 C.ar    7  G7          0.0000
    153  C5        63.4920   14.3460   15.4460 C.ar    7  G7          0.0000
    154  C6        62.2840   14.9990   15.8010 C.ar    7  G7          0.0000
    155  O6        61.4710   14.6940   16.6790 O.2     7  G7          0.0000
    156  N7        64.0900   13.2090   15.9690 N.ar    7  G7          0.0000
    157  C8        65.1760   13.0650   15.2640 C.ar    7  G7          0.0000
    158  N9        65.3350   14.0440   14.3150 N.ar    7  G7          0.0000
    159  OP1       70.0260   12.3560   17.6030 O.2     7  G7         -0.5000
    160  OP2       67.6690   11.6190   18.2970 O.co2   7  G7         -0.5000
    161  P         69.7210   16.6840   15.8050 P.3     8  G8          0.0000
    162  C5'       68.3620   18.5250   14.5160 C.3     8  G8          0.0000
    163  O5'       68.4710   17.6580   15.6440 O.3     8  G8          0.0000
    164  C4'       67.1370   19.3990   14.6420 C.3     8  G8          0.0000
    165  O4'       65.9320   18.5830   14.5840 O.3     8  G8          0.0000
    166  C3'       67.0320   20.1380   15.9600 C.3     8  G8          0.0000
    167  O3'       67.7810   21.3380   15.9240 O.3     8  G8          0.0000
    168  C2'       65.5310   20.3780   16.0770 C.3     8  G8          0.0000
    169  O2'       65.0440   21.4430   15.2820 O.3     8  G8          0.0000
    170  C1'       64.9860   19.0590   15.5360 C.3     8  G8          0.0000
    171  N1        62.0240   17.2710   19.2460 N.ar    8  G8          0.0000
    172  C2        61.8460   18.3690   18.4430 C.ar    8  G8          0.0000
    173  N2        60.7200   19.0740   18.6370 N.pl3   8  G8          0.0000
    174  N3        62.7050   18.7490   17.5160 N.ar    8  G8          0.0000
    175  C4        63.7730   17.9290   17.4530 C.ar    8  G8          0.0000
    176  C5        64.0460   16.8120   18.2080 C.ar    8  G8          0.0000
    177  C6        63.1160   16.4120   19.1980 C.ar    8  G8          0.0000
    178  O6        63.1720   15.4390   19.9660 O.2     8  G8          0.0000
    179  N7        65.2560   16.2510   17.8360 N.ar    8  G8          0.0000
    180  C8        65.6870   17.0180   16.8740 C.ar    8  G8          0.0000
    181  N9        64.8290   18.0470   16.5800 N.ar    8  G8          0.0000
    182  OP1       70.9210   17.5000   15.5100 O.2     8  G8         -0.5000
    183  OP2       69.6290   15.9530   17.0950 O.co2   8  G8         -0.5000
    184  P         68.3840   21.9310   17.2870 P.3     9  A9          0.0000
    185  C5'       66.1380   23.1400   17.8540 C.3     9  A9          0.0000
    186  O5'       67.1030   22.1570   18.1960 O.3     9  A9          0.0000
    187  C4'       65.0430   23.1470   18.8810 C.3     9  A9          0.0000
    188  O4'       64.2910   21.9070   18.7970 O.3     9  A9          0.0000
    189  C3'       65.5650   23.1630   20.3020 C.3     9  A9          0.0000
    190  O3'       65.8670   24.4830   20.7120 O.3     9  A9          0.0000
    191  C2'       64.4050   22.5560   21.0680 C.3     9  A9          0.0000
    192  O2'       63.3630   23.4890   21.2440 O.3     9  A9          0.0000
    193  C1'       63.9640   21.4570   20.1010 C.3     9  A9          0.0000
    194  N1        64.2900   17.1500   22.9020 N.ar    9  A9          0.0000
    195  C2        63.4340   18.1770   22.9290 C.ar    9  A9          0.0000
    196  N3        63.3930   19.2670   22.1660 N.ar    9  A9          0.0000
    197  C4        64.3890   19.2500   21.2690 C.ar    9  A9          0.0000
    198  C5        65.3470   18.2620   21.1140 C.ar    9  A9          0.0000
    199  C6        65.2790   17.1620   21.9880 C.ar    9  A9          0.0000
    200  N6        66.1330   16.1410   21.9640 N.pl3   9  A9          0.0000
    201  N7        66.2190   18.5840   20.0830 N.ar    9  A9          0.0000
    202  C8        65.7760   19.7400   19.6460 C.ar    9  A9          0.0000
    203  N9        64.6770   20.2040   20.3240 N.ar    9  A9          0.0000
    204  OP1       68.9770   23.2720   17.0230 O.2     9  A9         -0.5000
    205  OP2       69.2150   20.8550   17.8990 O.co2   9  A9         -0.5000
    206  P         67.1800   24.7490   21.5900 P.3    10  C10         0.0000
    207  C5'       65.7390   24.6230   23.7670 C.3    10  C10         0.0000
    208  O5'       66.8240   24.1080   23.0030 O.3    10  C10         0.0000
    209  C4'       65.3780   23.6820   24.8920 C.3    10  C10         0.0000
    210  O4'       64.9390   22.4000   24.3670 O.3    10  C10         0.0000
    211  C3'       66.5050   23.2880   25.8150 C.3    10  C10         0.0000
    212  O3'       66.7810   24.3120   26.7420 O.3    10  C10         0.0000
    213  C2'       65.9170   22.0590   26.4890 C.3    10  C10         0.0000
    214  O2'       64.9380   22.3900   27.4500 O.3    10  C10         0.0000
    215  C1'       65.2410   21.3760   25.3030 C.3    10  C10         0.0000
    216  N1        66.1610   20.4300   24.6730 N.ar   10  C10         0.0000
    217  C2        66.3830   19.2090   25.2930 C.ar   10  C10         0.0000
    218  O2        65.7620   18.9470   26.3330 O.2    10  C10         0.0000
    219  N3        67.2660   18.3440   24.7520 N.ar   10  C10         0.0000
    220  C4        67.9090   18.6660   23.6290 C.ar   10  C10         0.0000
    221  N4        68.7800   17.7850   23.1250 N.pl3  10  C10         0.0000
    222  C5        67.6880   19.9040   22.9690 C.ar   10  C10         0.0000
    223  C6        66.8100   20.7460   23.5180 C.ar   10  C10         0.0000
    224  OP1       67.3320   26.2140   21.7770 O.3    10  C10        -0.5000
    225  OP2       68.2750   23.9680   20.9660 O.co2  10  C10        -0.5000
    226  P         68.1960   24.3250   27.4850 P.3    11  U11         0.0000
    227  C5'       67.1820   23.2880   29.6700 C.3    11  U11         0.0000
    228  O5'       68.0850   23.1660   28.5730 O.3    11  U11         0.0000
    229  C4'       67.3640   22.1390   30.6320 C.3    11  U11         0.0000
    230  O4'       67.0800   20.8890   29.9590 O.3    11  U11         0.0000
    231  C3'       68.7700   21.9720   31.1810 C.3    11  U11         0.0000
    232  O3'       68.9350   22.8220   32.3170 O.3    11  U11         0.0000
    233  C2'       68.7960   20.4950   31.5520 C.3    11  U11         0.0000
    234  O2'       68.1550   20.2410   32.7830 O.3    11  U11         0.0000
    235  C1'       67.9560   19.8870   30.4300 C.3    11  U11         0.0000
    236  N1        68.7200   19.3940   29.2800 N.ar   11  U11         0.0000
    237  C2        69.4000   18.1960   29.4240 C.ar   11  U11         0.0000
    238  O2        69.4300   17.5740   30.4770 O.2    11  U11         0.0000
    239  N3        70.0370   17.7550   28.2880 N.ar   11  U11         0.0000
    240  C4        70.0610   18.3800   27.0510 C.ar   11  U11         0.0000
    241  O4        70.6380   17.8350   26.1110 O.2    11  U11         0.0000
    242  C5        69.3570   19.6270   26.9970 C.ar   11  U11         0.0000
    243  C6        68.7320   20.0830   28.0870 C.ar   11  U11         0.0000
    244  OP1       68.3370   25.6170   28.1990 O.3    11  U11        -0.5000
    245  OP2       69.1940   23.9220   26.4610 O.co2  11  U11        -0.5000
    246  P         70.4080   23.2620   32.7790 P.3    12  U12         0.0000
    247  C5'       70.6540   21.2000   34.4050 C.3    12  U12         0.0000
    248  O5'       71.0850   21.8870   33.2270 O.3    12  U12         0.0000
    249  C4'       71.4250   19.9140   34.5760 C.3    12  U12         0.0000
    250  O4'       71.0910   19.0080   33.4990 O.3    12  U12         0.0000
    251  C3'       72.9300   20.0540   34.4720 C.3    12  U12         0.0000
    252  O3'       73.4810   20.5050   35.7040 O.3    12  U12         0.0000
    253  C2'       73.3600   18.6440   34.0840 C.3    12  U12         0.0000
    254  O2'       73.3910   17.7270   35.1560 O.3    12  U12         0.0000
    255  C1'       72.2270   18.2370   33.1520 C.3    12  U12         0.0000
    256  N1        72.5330   18.4670   31.7350 N.ar   12  U12         0.0000
    257  C2        73.1690   17.4450   31.0510 C.ar   12  U12         0.0000
    258  O2        73.4960   16.3990   31.5880 O.2    12  U12         0.0000
    259  N3        73.4080   17.6940   29.7190 N.ar   12  U12         0.0000
    260  C4        73.0910   18.8450   29.0210 C.ar   12  U12         0.0000
    261  O4        73.3880   18.9300   27.8260 O.2    12  U12         0.0000
    262  C5        72.4430   19.8630   29.8050 C.ar   12  U12         0.0000
    263  C6        72.1940   19.6440   31.1030 C.ar   12  U12         0.0000
    264  OP1       70.2320   24.1490   33.9540 O.3    12  U12        -0.5000
    265  OP2       71.1670   23.7530   31.6100 O.co2  12  U12        -0.5000
    266  P         74.8160   21.3960   35.6960 P.3    13  A13         0.0000
    267  C5'       76.1710   19.2730   36.4010 C.3    13  A13         0.0000
    268  O5'       75.9690   20.3230   35.4670 O.3    13  A13         0.0000
    269  C4'       77.0800   18.2170   35.8250 C.3    13  A13         0.0000
    270  O4'       76.4210   17.5360   34.7270 O.3    13  A13         0.0000
    271  C3'       78.3750   18.7090   35.2120 C.3    13  A13         0.0000
    272  O3'       79.3590   18.9490   36.2050 O.3    13  A13         0.0000
    273  C2'       78.7500   17.5340   34.3250 C.3    13  A13         0.0000
    274  O2'       79.2390   16.4430   35.0700 O.3    13  A13         0.0000
    275  C1'       77.3870   17.1540   33.7600 C.3    13  A13         0.0000
    276  N1        77.9320   17.1280   28.6530 N.ar   13  A13         0.0000
    277  C2        78.3700   16.3030   29.6080 C.ar   13  A13         0.0000
    278  N3        78.1980   16.3740   30.9250 N.ar   13  A13         0.0000
    279  C4        77.4780   17.4570   31.2510 C.ar   13  A13         0.0000
    280  C5        76.9620   18.3990   30.3850 C.ar   13  A13         0.0000
    281  C6        77.2090   18.2070   29.0150 C.ar   13  A13         0.0000
    282  N6        76.7680   19.0280   28.0620 N.pl3  13  A13         0.0000
    283  N7        76.2780   19.3860   31.0820 N.ar   13  A13         0.0000
    284  C8        76.3880   19.0190   32.3350 C.ar   13  A13         0.0000
    285  N9        77.0960   17.8540   32.5090 N.ar   13  A13         0.0000
    286  OP1       74.9440   21.9910   37.0430 O.3    13  A13        -0.5000
    287  OP2       74.7750   22.2820   34.5110 O.co2  13  A13        -0.5000
    288  P         80.5710   19.9590   35.8940 P.3    14  A14         0.0000
    289  C5'       82.2080   18.0290   35.2390 C.3    14  A14         0.0000
    290  O5'       81.4670   19.1720   34.8420 O.3    14  A14         0.0000
    291  C4'       82.9690   17.4780   34.0660 C.3    14  A14         0.0000
    292  O4'       82.0220   17.0270   33.0580 O.3    14  A14         0.0000
    293  C3'       83.8290   18.4960   33.3390 C.3    14  A14         0.0000
    294  O3'       85.0850   18.6960   33.9890 O.3    14  A14         0.0000
    295  C2'       83.9320   17.8680   31.9530 C.3    14  A14         0.0000
    296  O2'       84.8460   16.7880   31.8740 O.3    14  A14         0.0000
    297  C1'       82.5010   17.3580   31.7660 C.3    14  A14         0.0000
    298  N1        80.4270   19.2620   27.4680 N.ar   14  A14         0.0000
    299  C2        81.2480   18.2280   27.6910 C.ar   14  A14         0.0000
    300  N3        81.7460   17.7820   28.8400 N.ar   14  A14         0.0000
    301  C4        81.3090   18.5340   29.8660 C.ar   14  A14         0.0000
    302  C5        80.4630   19.6280   29.7950 C.ar   14  A14         0.0000
    303  C6        80.0080   19.9960   28.5230 C.ar   14  A14         0.0000
    304  N6        79.1890   21.0240   28.3010 N.pl3  14  A14         0.0000
    305  N7        80.2300   20.1550   31.0570 N.ar   14  A14         0.0000
    306  C8        80.9310   19.3820   31.8530 C.ar   14  A14         0.0000
    307  N9        81.6140   18.3800   31.1970 N.ar   14  A14         0.0000
    308  OP1       81.3500   20.0930   37.1500 O.3    14  A14        -0.5000
    309  OP2       80.0390   21.1790   35.2230 O.co2  14  A14        -0.5000
    310  P         85.7480   20.1660   34.0150 P.3    15  A15         0.0000
    311  C5'       87.3840   19.3920   32.1290 C.3    15  A15         0.0000
    312  O5'       86.3790   20.3030   32.5600 O.3    15  A15         0.0000
    313  C4'       87.5050   19.4050   30.6250 C.3    15  A15         0.0000
    314  O4'       86.2780   18.9060   30.0240 O.3    15  A15         0.0000
    315  C3'       87.6770   20.7630   29.9710 C.3    15  A15         0.0000
    316  O3'       89.0070   21.2530   30.0500 O.3    15  A15         0.0000
    317  C2'       87.2800   20.4500   28.5390 C.3    15  A15         0.0000
    318  O2'       88.2930   19.7610   27.8320 O.3    15  A15         0.0000
    319  C1'       86.0690   19.5480   28.7720 C.3    15  A15         0.0000
    320  N1        82.3880   21.9930   26.1680 N.ar   15  A15         0.0000
    321  C2        83.3870   21.1960   25.7780 C.ar   15  A15         0.0000
    322  N3        84.3020   20.5690   26.5150 N.ar   15  A15         0.0000
    323  C4        84.1170   20.8290   27.8200 C.ar   15  A15         0.0000
    324  C5        83.1340   21.6250   28.3760 C.ar   15  A15         0.0000
    325  C6        82.2310   22.2340   27.4900 C.ar   15  A15         0.0000
    326  N6        81.2360   23.0320   27.8830 N.pl3  15  A15         0.0000
    327  N7        83.2520   21.6560   29.7580 N.ar   15  A15         0.0000
    328  C8        84.2900   20.8940   30.0020 C.ar   15  A15         0.0000
    329  N9        84.8710   20.3750   28.8730 N.ar   15  A15         0.0000
    330  OP1       86.8570   20.1430   34.9990 O.3    15  A15        -0.5000
    331  OP2       84.6700   21.1750   34.1540 O.co2  15  A15        -0.5000
    332  P         89.2630   22.8390   30.0440 P.3    16  G16         0.0000
    333  C5'       89.7740   22.6610   27.4730 C.3    16  G16         0.0000
    334  O5'       89.0200   23.2570   28.5250 O.3    16  G16         0.0000
    335  C4'       89.2370   23.0930   26.1280 C.3    16  G16         0.0000
    336  O4'       87.8620   22.6470   26.0110 O.3    16  G16         0.0000
    337  C3'       89.1440   24.5910   25.8720 C.3    16  G16         0.0000
    338  O3'       90.3770   25.1370   25.4200 O.3    16  G16         0.0000
    339  C2'       88.1140   24.6460   24.7570 C.3    16  G16         0.0000
    340  O2'       88.6760   24.3130   23.5060 O.3    16  G16         0.0000
    341  C1'       87.1410   23.5510   25.1930 C.3    16  G16         0.0000
    342  N1        82.6500   25.8640   24.8840 N.ar   16  G16         0.0000
    343  C2        83.4890   25.4410   23.8820 C.ar   16  G16         0.0000
    344  N2        83.0840   25.6780   22.6240 N.pl3  16  G16         0.0000
    345  N3        84.6420   24.8310   24.0950 N.ar   16  G16         0.0000
    346  C4        84.8960   24.6740   25.4120 C.ar   16  G16         0.0000
    347  C5        84.1270   25.0570   26.4900 C.ar   16  G16         0.0000
    348  C6        82.8880   25.7100   26.2470 C.ar   16  G16         0.0000
    349  O6        82.0600   26.1250   27.0670 O.2    16  G16         0.0000
    350  N7        84.7460   24.7090   27.6840 N.ar   16  G16         0.0000
    351  C8        85.8590   24.1340   27.3150 C.ar   16  G16         0.0000
    352  N9        86.0140   24.0880   25.9500 N.ar   16  G16         0.0000
    353  OP1       90.6960   23.0440   30.3710 O.2    16  G16        -0.5000
    354  OP2       88.2220   23.4920   30.8750 O.co2  16  G16        -0.5000
    355  P         90.6370   26.7230   25.5300 P.3    17  C17         0.0000
    356  C5'       89.7430   27.2480   23.1250 C.3    17  C17         0.0000
    357  O5'       89.5820   27.3740   24.5320 O.3    17  C17         0.0000
    358  C4'       88.6130   27.9390   22.4030 C.3    17  C17         0.0000
    359  O4'       87.3530   27.3080   22.7670 O.3    17  C17         0.0000
    360  C3'       88.3840   29.3970   22.7630 C.3    17  C17         0.0000
    361  O3'       89.2880   30.2710   22.0960 O.3    17  C17         0.0000
    362  C2'       86.9460   29.5950   22.3050 C.3    17  C17         0.0000
    363  O2'       86.8350   29.7050   20.8990 O.3    17  C17         0.0000
    364  C1'       86.3140   28.2790   22.7620 C.3    17  C17         0.0000
    365  N1        85.7540   28.3830   24.1210 N.ar   17  C17         0.0000
    366  C2        84.4760   28.9350   24.2800 C.ar   17  C17         0.0000
    367  O2        83.8470   29.2890   23.2710 O.2    17  C17         0.0000
    368  N3        83.9610   29.0680   25.5270 N.ar   17  C17         0.0000
    369  C4        84.6700   28.6710   26.5870 C.ar   17  C17         0.0000
    370  N4        84.1290   28.8290   27.7960 N.pl3  17  C17         0.0000
    371  C5        85.9680   28.0950   26.4530 C.ar   17  C17         0.0000
    372  C6        86.4660   27.9680   25.2140 C.ar   17  C17         0.0000
    373  OP1       92.0010   26.9840   25.0110 O.2    17  C17        -0.5000
    374  OP2       90.2770   27.1600   26.9020 O.co2  17  C17        -0.5000
    375  P         89.6210   31.7090   22.7410 P.3    18  C18         0.0000
    376  C5'       87.8480   32.8540   21.1850 C.3    18  C18         0.0000
    377  O5'       88.2910   32.5550   22.5040 O.3    18  C18         0.0000
    378  C4'       86.4900   33.5120   21.2170 C.3    18  C18         0.0000
    379  O4'       85.5040   32.5880   21.7570 O.3    18  C18         0.0000
    380  C3'       86.3450   34.7160   22.1280 C.3    18  C18         0.0000
    381  O3'       86.9130   35.8980   21.5790 O.3    18  C18         0.0000
    382  C2'       84.8310   34.7970   22.2640 C.3    18  C18         0.0000
    383  O2'       84.1900   35.2890   21.1060 O.3    18  C18         0.0000
    384  C1'       84.4850   33.3210   22.4270 C.3    18  C18         0.0000
    385  N1        84.4800   32.9440   23.8480 N.ar   18  C18         0.0000
    386  C2        83.4280   33.3910   24.6450 C.ar   18  C18         0.0000
    387  O2        82.5380   34.0760   24.1260 O.2    18  C18         0.0000
    388  N3        83.4060   33.0720   25.9560 N.ar   18  C18         0.0000
    389  C4        84.3860   32.3380   26.4770 C.ar   18  C18         0.0000
    390  N4        84.3250   32.0530   27.7770 N.pl3  18  C18         0.0000
    391  C5        85.4730   31.8640   25.6870 C.ar   18  C18         0.0000
    392  C6        85.4790   32.1860   24.3880 C.ar   18  C18         0.0000
    393  OP1       90.7180   32.3280   21.9560 O.2    18  C18        -0.5000
    394  OP2       89.7840   31.5210   24.2050 O.co2  18  C18        -0.5000
    395  P         87.3510   37.0940   22.5610 P.3    19  A19         0.0000
    396  C5'       85.0210   38.1330   21.9400 C.3    19  A19         0.0000
    397  O5'       85.9750   37.8010   22.9460 O.3    19  A19         0.0000
    398  C4'       83.6960   38.4890   22.5700 C.3    19  A19         0.0000
    399  O4'       83.1720   37.3400   23.2850 O.3    19  A19         0.0000
    400  C3'       83.7530   39.5870   23.6180 C.3    19  A19         0.0000
    401  O3'       83.6980   40.8670   22.9960 O.3    19  A19         0.0000
    402  C2'       82.5090   39.3070   24.4560 C.3    19  A19         0.0000
    403  O2'       81.3260   39.8340   23.8880 O.3    19  A19         0.0000
    404  C1'       82.4600   37.7770   24.4300 C.3    19  A19         0.0000
    405  N1        82.0650   36.9530   29.4970 N.ar   19  A19         0.0000
    406  C2        81.3240   37.6730   28.6420 C.ar   19  A19         0.0000
    407  N3        81.4890   37.8600   27.3340 N.ar   19  A19         0.0000
    408  C4        82.5730   37.1970   26.8930 C.ar   19  A19         0.0000
    409  C5        83.4340   36.4200   27.6490 C.ar   19  A19         0.0000
    410  C6        83.1510   36.3020   29.0230 C.ar   19  A19         0.0000
    411  N6        83.8920   35.5870   29.8750 N.pl3  19  A19         0.0000
    412  N7        84.4450   35.8950   26.8550 N.ar   19  A19         0.0000
    413  C8        84.1760   36.3560   25.6580 C.ar   19  A19         0.0000
    414  N9        83.0510   37.1420   25.6060 N.ar   19  A19         0.0000
    415  OP1       88.1740   38.0550   21.7880 O.2    19  A19        -0.5000
    416  OP2       87.9040   36.4740   23.7910 O.co2  19  A19        -0.5000
    417  P         84.5300   42.0920   23.6210 P.3    20  U20         0.0000
    418  C5'       82.3600   43.0240   24.7840 C.3    20  U20         0.0000
    419  O5'       83.6860   42.5090   24.9100 O.3    20  U20         0.0000
    420  C4'       81.6880   43.0840   26.1370 C.3    20  U20         0.0000
    421  O4'       81.5090   41.7380   26.6540 O.3    20  U20         0.0000
    422  C3'       82.4700   43.8010   27.2260 C.3    20  U20         0.0000
    423  O3'       82.2620   45.2080   27.1620 O.3    20  U20         0.0000
    424  C2'       81.8810   43.1970   28.4970 C.3    20  U20         0.0000
    425  O2'       80.6560   43.7880   28.8850 O.3    20  U20         0.0000
    426  C1'       81.6430   41.7480   28.0660 C.3    20  U20         0.0000
    427  N1        82.7520   40.8560   28.4260 N.ar   20  U20         0.0000
    428  C2        82.8730   40.4840   29.7540 C.ar   20  U20         0.0000
    429  O2        82.1020   40.8630   30.6230 O.2    20  U20         0.0000
    430  N3        83.9330   39.6510   30.0270 N.ar   20  U20         0.0000
    431  C4        84.8630   39.1640   29.1250 C.ar   20  U20         0.0000
    432  O4        85.7610   38.4160   29.5220 O.2    20  U20         0.0000
    433  C5        84.6660   39.5980   27.7720 C.ar   20  U20         0.0000
    434  C6        83.6420   40.4070   27.4780 C.ar   20  U20         0.0000
    435  OP1       84.4700   43.2100   22.6440 O.2    20  U20        -0.5000
    436  OP2       85.8530   41.5700   24.0640 O.co2  20  U20        -0.5000
    437  P         74.3440   33.5180   32.8340 P.3    23  G23         0.0000
    438  C5'       73.9350   35.2260   30.8890 C.3    23  G23         0.0000
    439  O5'       74.7800   34.2510   31.4870 O.3    23  G23         0.0000
    440  C4'       74.4120   35.5550   29.4930 C.3    23  G23         0.0000
    441  O4'       75.6840   36.2550   29.5580 O.3    23  G23         0.0000
    442  C3'       74.7040   34.3740   28.5860 C.3    23  G23         0.0000
    443  O3'       73.5200   33.8320   28.0130 O.3    23  G23         0.0000
    444  C2'       75.6080   35.0160   27.5450 C.3    23  G23         0.0000
    445  O2'       74.8880   35.8120   26.6240 O.3    23  G23         0.0000
    446  C1'       76.4770   35.9080   28.4330 C.3    23  G23         0.0000
    447  N1        80.9550   33.9040   27.1620 N.ar   23  G23         0.0000
    448  C2        80.0390   34.5620   26.3790 C.ar   23  G23         0.0000
    449  N2        80.3520   34.6990   25.0820 N.pl3  23  G23         0.0000
    450  N3        78.8970   35.0520   26.8330 N.ar   23  G23         0.0000
    451  C4        78.7430   34.8290   28.1550 C.ar   23  G23         0.0000
    452  C5        79.5970   34.1860   29.0260 C.ar   23  G23         0.0000
    453  C6        80.8170   33.6630   28.5270 C.ar   23  G23         0.0000
    454  O6        81.7050   33.0580   29.1390 O.2    23  G23         0.0000
    455  N7        79.0690   34.1690   30.3100 N.ar   23  G23         0.0000
    456  C8        77.9250   34.7880   30.1960 C.ar   23  G23         0.0000
    457  N9        77.6650   35.2090   28.9130 N.ar   23  G23         0.0000
    458  OP1       73.6750   32.2330   32.4880 O.3    23  G23         0.0000
    459  OP2       75.5120   33.5170   33.7530 O.co2  23  G23        -1.0000
    460  P         73.5100   32.3020   27.5120 P.3    24  G24         0.0000
    461  C5'       73.9250   33.3620   25.1460 C.3    24  G24         0.0000
    462  O5'       74.2730   32.3720   26.1140 O.3    24  G24         0.0000
    463  C4'       74.9370   33.3780   24.0260 C.3    24  G24         0.0000
    464  O4'       76.2140   33.8690   24.5150 O.3    24  G24         0.0000
    465  C3'       75.2790   32.0160   23.4580 C.3    24  G24         0.0000
    466  O3'       74.3100   31.5930   22.5220 O.3    24  G24         0.0000
    467  C2'       76.6260   32.2790   22.8070 C.3    24  G24         0.0000
    468  O2'       76.4990   32.9650   21.5800 O.3    24  G24         0.0000
    469  C1'       77.2710   33.2000   23.8410 C.3    24  G24         0.0000
    470  N1        81.5280   30.5770   24.6820 N.ar   24  G24         0.0000
    471  C2        81.0700   31.1570   23.5240 C.ar   24  G24         0.0000
    472  N2        81.8500   31.0200   22.4450 N.pl3  24  G24         0.0000
    473  N3        79.9300   31.8210   23.4290 N.ar   24  G24         0.0000
    474  C4        79.2690   31.8560   24.6040 C.ar   24  G24         0.0000
    475  C5        79.6340   31.3070   25.8170 C.ar   24  G24         0.0000
    476  C6        80.8660   30.5990   25.9030 C.ar   24  G24         0.0000
    477  O6        81.3690   30.0400   26.8840 O.2    24  G24         0.0000
    478  N7        78.6690   31.5630   26.7840 N.ar   24  G24         0.0000
    479  C8        77.7540   32.2500   26.1520 C.ar   24  G24         0.0000
    480  N9        78.0590   32.4670   24.8280 N.ar   24  G24         0.0000
    481  OP1       72.1020   31.9170   27.2410 O.2    24  G24        -0.5000
    482  OP2       74.3210   31.4930   28.4610 O.co2  24  G24        -0.5000
    483  P         73.9770   30.0340   22.3980 P.3    25  C25         0.0000
    484  C5'       75.7110   29.8790   20.4250 C.3    25  C25         0.0000
    485  O5'       75.2800   29.4270   21.7070 O.3    25  C25         0.0000
    486  C4'       77.0380   29.2500   20.0670 C.3    25  C25         0.0000
    487  O4'       78.0760   29.7450   20.9520 O.3    25  C25         0.0000
    488  C3'       77.1130   27.7450   20.2330 C.3    25  C25         0.0000
    489  O3'       76.5790   27.0720   19.1100 O.3    25  C25         0.0000
    490  C2'       78.6100   27.5060   20.3590 C.3    25  C25         0.0000
    491  O2'       79.2830   27.4820   19.1170 O.3    25  C25         0.0000
    492  C1'       79.0420   28.7280   21.1640 C.3    25  C25         0.0000
    493  N1        79.1060   28.4450   22.5980 N.ar   25  C25         0.0000
    494  C2        80.1700   27.6960   23.0740 C.ar   25  C25         0.0000
    495  O2        81.0030   27.2710   22.2640 O.2    25  C25         0.0000
    496  N3        80.2660   27.4460   24.4020 N.ar   25  C25         0.0000
    497  C4        79.3370   27.9160   25.2350 C.ar   25  C25         0.0000
    498  N4        79.4730   27.6620   26.5360 N.pl3  25  C25         0.0000
    499  C5        78.2260   28.6730   24.7700 C.ar   25  C25         0.0000
    500  C6        78.1500   28.9120   23.4540 C.ar   25  C25         0.0000
    501  OP1       72.8140   29.8630   21.4870 O.2    25  C25        -0.5000
    502  OP2       73.9120   29.5030   23.7830 O.co2  25  C25        -0.5000
    503  P         76.1920   25.5230   19.2380 P.3    26  U26         0.0000
    504  C5'       78.5030   24.8930   18.1840 C.3    26  U26         0.0000
    505  O5'       77.5980   24.7760   19.2750 O.3    26  U26         0.0000
    506  C4'       79.7570   24.1030   18.4530 C.3    26  U26         0.0000
    507  O4'       80.4880   24.7050   19.5520 O.3    26  U26         0.0000
    508  C3'       79.5410   22.6680   18.8970 C.3    26  U26         0.0000
    509  O3'       79.3200   21.8120   17.7820 O.3    26  U26         0.0000
    510  C2'       80.8570   22.3610   19.6000 C.3    26  U26         0.0000
    511  O2'       81.9030   22.0860   18.6880 O.3    26  U26         0.0000
    512  C1'       81.1430   23.6920   20.2950 C.3    26  U26         0.0000
    513  N1        80.6740   23.7690   21.6850 N.ar   26  U26         0.0000
    514  C2        81.3110   22.9880   22.6350 C.ar   26  U26         0.0000
    515  O2        82.2000   22.2030   22.3660 O.2    26  U26         0.0000
    516  N3        80.8630   23.1600   23.9180 N.ar   26  U26         0.0000
    517  C4        79.8620   24.0050   24.3370 C.ar   26  U26         0.0000
    518  O4        79.5910   24.0700   25.5330 O.2    26  U26         0.0000
    519  C5        79.2360   24.7550   23.2950 C.ar   26  U26         0.0000
    520  C6        79.6520   24.6110   22.0350 C.ar   26  U26         0.0000
    521  OP1       75.4660   25.1180   18.0090 O.2    26  U26        -0.5000
    522  OP2       75.5450   25.3620   20.5640 O.co2  26  U26        -0.5000
    523  P         78.7020   20.3490   18.0170 P.3    27  U27         0.0000
    524  C5'       81.0120   19.1840   18.3670 C.3    27  U27         0.0000
    525  O5'       79.7800   19.6150   18.9200 O.3    27  U27         0.0000
    526  C4'       81.7560   18.3520   19.3730 C.3    27  U27         0.0000
    527  O4'       82.1320   19.1810   20.5050 O.3    27  U27         0.0000
    528  C3'       80.9250   17.2520   20.0030 C.3    27  U27         0.0000
    529  O3'       80.8530   16.1100   19.1660 O.3    27  U27         0.0000
    530  C2'       81.6820   16.9910   21.2960 C.3    27  U27         0.0000
    531  O2'       82.8520   16.2200   21.0880 O.3    27  U27         0.0000
    532  C1'       82.0560   18.4200   21.7040 C.3    27  U27         0.0000
    533  N1        81.0830   19.0670   22.6020 N.ar   27  U27         0.0000
    534  C2        81.1470   18.7790   23.9610 C.ar   27  U27         0.0000
    535  O2        81.9500   18.0010   24.4430 O.2    27  U27         0.0000
    536  N3        80.2280   19.4360   24.7340 N.ar   27  U27         0.0000
    537  C4        79.2700   20.3270   24.3080 C.ar   27  U27         0.0000
    538  O4        78.5190   20.8450   25.1350 O.2    27  U27         0.0000
    539  C5        79.2580   20.5640   22.8990 C.ar   27  U27         0.0000
    540  C6        80.1420   19.9420   22.1140 C.ar   27  U27         0.0000
    541  OP1       78.6940   19.6660   16.7010 O.2    27  U27        -0.5000
    542  OP2       77.4470   20.4630   18.7980 O.co2  27  U27        -0.5000
    543  P         79.6580   15.0570   19.3690 P.3    28  U28         0.0000
    544  C5'       81.1710   13.5990   20.9150 C.3    28  U28         0.0000
    545  O5'       80.0010   14.3910   20.7720 O.3    28  U28         0.0000
    546  C4'       81.3220   13.1510   22.3430 C.3    28  U28         0.0000
    547  O4'       81.5450   14.3090   23.1860 O.3    28  U28         0.0000
    548  C3'       80.0990   12.4850   22.9430 C.3    28  U28         0.0000
    549  O3'       80.0590   11.1080   22.5920 O.3    28  U28         0.0000
    550  C2'       80.3420   12.6920   24.4290 C.3    28  U28         0.0000
    551  O2'       81.3130   11.7920   24.9150 O.3    28  U28         0.0000
    552  C1'       80.9180   14.1100   24.4410 C.3    28  U28         0.0000
    553  N1        79.9060   15.1620   24.6150 N.ar   28  U28         0.0000
    554  C2        79.5190   15.4730   25.9040 C.ar   28  U28         0.0000
    555  O2        79.9800   14.9110   26.8810 O.2    28  U28         0.0000
    556  N3        78.5730   16.4660   26.0050 N.ar   28  U28         0.0000
    557  C4        77.9890   17.1610   24.9680 C.ar   28  U28         0.0000
    558  O4        77.1610   18.0320   25.2160 O.2    28  U28         0.0000
    559  C5        78.4410   16.7810   23.6650 C.ar   28  U28         0.0000
    560  C6        79.3610   15.8180   23.5360 C.ar   28  U28         0.0000
    561  OP1       79.8260   14.0020   18.3270 O.2    28  U28        -0.5000
    562  OP2       78.3650   15.7930   19.4760 O.co2  28  U28        -0.5000
    563  P         78.6540   10.3250   22.5940 P.3    29  A29         0.0000
    564  C5'       79.1270    9.6500   25.0720 C.3    29  A29         0.0000
    565  O5'       78.2700   10.2940   24.1380 O.3    29  A29         0.0000
    566  C4'       78.5970    9.8150   26.4690 C.3    29  A29         0.0000
    567  O4'       78.7820   11.1810   26.9170 O.3    29  A29         0.0000
    568  C3'       77.1100    9.5730   26.6160 C.3    29  A29         0.0000
    569  O3'       76.8490    8.1800   26.7180 O.3    29  A29         0.0000
    570  C2'       76.7940   10.3250   27.9030 C.3    29  A29         0.0000
    571  O2'       77.1280    9.5830   29.0560 O.3    29  A29         0.0000
    572  C1'       77.7210   11.5390   27.7860 C.3    29  A29         0.0000
    573  N1        74.9110   15.7070   28.8400 N.ar   29  A29         0.0000
    574  C2        75.4070   14.7360   29.6170 C.ar   29  A29         0.0000
    575  N3        76.1390   13.6730   29.2770 N.ar   29  A29         0.0000
    576  C4        76.3590   13.6590   27.9530 C.ar   29  A29         0.0000
    577  C5        75.9160   14.5850   27.0280 C.ar   29  A29         0.0000
    578  C6        75.1530   15.6570   27.5120 C.ar   29  A29         0.0000
    579  N6        74.6550   16.6180   26.7330 N.pl3  29  A29         0.0000
    580  N7        76.3350   14.2430   25.7510 N.ar   29  A29         0.0000
    581  C8        77.0110   13.1350   25.9300 C.ar   29  A29         0.0000
    582  N9        77.0640   12.7240   27.2390 N.ar   29  A29         0.0000
    583  OP1       78.9160    8.9190   22.1700 O.3    29  A29        -0.5000
    584  OP2       77.6550   11.1460   21.8570 O.co2  29  A29        -0.5000
    585  P         75.3860    7.6160   26.3580 P.3    30  A30         0.0000
    586  C5'       74.7360    7.7500   28.8950 C.3    30  A30         0.0000
    587  O5'       74.4850    8.1610   27.5530 O.3    30  A30         0.0000
    588  C4'       73.9580    8.6060   29.8660 C.3    30  A30         0.0000
    589  O4'       74.3840    9.9930   29.7430 O.3    30  A30         0.0000
    590  C3'       72.4620    8.6830   29.6270 C.3    30  A30         0.0000
    591  O3'       71.7670    7.5530   30.1470 O.3    30  A30         0.0000
    592  C2'       72.0950    9.9580   30.3710 C.3    30  A30         0.0000
    593  O2'       72.0000    9.7420   31.7660 O.3    30  A30         0.0000
    594  C1'       73.2960   10.8510   30.0490 C.3    30  A30         0.0000
    595  N1        71.4060   15.3660   28.4700 N.ar   30  A30         0.0000
    596  C2        71.4820   14.7970   29.6740 C.ar   30  A30         0.0000
    597  N3        71.9900   13.6160   30.0180 N.ar   30  A30         0.0000
    598  C4        72.4700   12.9720   28.9410 C.ar   30  A30         0.0000
    599  C5        72.4630   13.4270   27.6360 C.ar   30  A30         0.0000
    600  C6        71.8980   14.6920   27.4070 C.ar   30  A30         0.0000
    601  N6        71.8200   15.2600   26.2030 N.pl3  30  A30         0.0000
    602  N7        73.0440   12.4940   26.7880 N.ar   30  A30         0.0000
    603  C8        73.3810   11.5080   27.5870 C.ar   30  A30         0.0000
    604  N9        73.0640   11.7310   28.9040 N.ar   30  A30         0.0000
    605  OP1       75.4290    6.1340   26.4510 O.3    30  A30        -0.5000
    606  OP2       74.9350    8.2580   25.0930 O.co2  30  A30        -0.5000
    607  P         70.2220    7.3360   29.7570 P.3    31  G31         0.0000
    608  C5'       68.2980    9.1560   29.8000 C.3    31  G31         0.0000
    609  O5'       69.5350    8.6630   30.3150 O.3    31  G31         0.0000
    610  C4'       67.9710   10.4700   30.4620 C.3    31  G31         0.0000
    611  O4'       69.0090   11.4370   30.1430 O.3    31  G31         0.0000
    612  C3'       66.6940   11.1460   30.0190 C.3    31  G31         0.0000
    613  O3'       65.5920   10.6220   30.7310 O.3    31  G31         0.0000
    614  C2'       66.9740   12.5920   30.3930 C.3    31  G31         0.0000
    615  O2'       66.8920   12.7990   31.7900 O.3    31  G31         0.0000
    616  C1'       68.4320   12.7190   29.9540 C.3    31  G31         0.0000
    617  N1        67.7230   16.1880   26.2640 N.ar   31  G31         0.0000
    618  C2        67.3050   16.2230   27.5630 C.ar   31  G31         0.0000
    619  N2        66.6330   17.3180   27.9180 N.pl3  31  G31         0.0000
    620  N3        67.5280   15.2520   28.4460 N.ar   31  G31         0.0000
    621  C4        68.2130   14.2220   27.9010 C.ar   31  G31         0.0000
    622  C5        68.6670   14.0880   26.6070 C.ar   31  G31         0.0000
    623  C6        68.4250   15.1400   25.6790 C.ar   31  G31         0.0000
    624  O6        68.7510   15.2110   24.4890 O.2    31  G31         0.0000
    625  N7        69.3220   12.8770   26.4380 N.ar   31  G31         0.0000
    626  C8        69.2630   12.3090   27.6110 C.ar   31  G31         0.0000
    627  N9        68.6170   13.0720   28.5490 N.ar   31  G31         0.0000
    628  OP1       69.6670    6.1660   30.4960 O.3    31  G31        -0.5000
    629  OP2       70.1560    7.3720   28.2700 O.co2  31  G31        -0.5000
    630  P         64.2320   10.3070   29.9470 P.3    32  U32         0.0000
    631  C5'       63.3010   12.5700   30.8390 C.3    32  U32         0.0000
    632  O5'       63.5750   11.7330   29.7340 O.3    32  U32         0.0000
    633  C4'       62.8830   13.9350   30.3620 C.3    32  U32         0.0000
    634  O4'       64.0060   14.6120   29.7350 O.3    32  U32         0.0000
    635  C3'       61.8200   13.9630   29.2800 C.3    32  U32         0.0000
    636  O3'       60.5200   13.7430   29.8070 O.3    32  U32         0.0000
    637  C2'       61.9920   15.3720   28.7380 C.3    32  U32         0.0000
    638  O2'       61.4130   16.3540   29.5790 O.3    32  U32         0.0000
    639  C1'       63.5180   15.4940   28.7380 C.3    32  U32         0.0000
    640  N1        64.0960   15.1060   27.4450 N.ar   32  U32         0.0000
    641  C2        63.9250   15.9850   26.4000 C.ar   32  U32         0.0000
    642  O2        63.3200   17.0380   26.5230 O.2    32  U32         0.0000
    643  N3        64.4800   15.5890   25.2080 N.ar   32  U32         0.0000
    644  C4        65.1690   14.4220   24.9650 C.ar   32  U32         0.0000
    645  O4        65.6100   14.2090   23.8360 O.2    32  U32         0.0000
    646  C5        65.3020   13.5570   26.1020 C.ar   32  U32         0.0000
    647  C6        64.7750   13.9220   27.2740 C.ar   32  U32         0.0000
    648  OP1       63.3460    9.5200   30.8390 O.3    32  U32        -0.5000
    649  OP2       64.5950    9.7770   28.6050 O.co2  32  U32        -0.5000
    650  P         59.4000   13.0330   28.8960 P.3    33  U33         0.0000
    651  C5'       58.6640   15.4540   28.2060 C.3    33  U33         0.0000
    652  O5'       59.0530   14.1400   27.8060 O.3    33  U33         0.0000
    653  C4'       58.5970   16.3710   27.0070 C.3    33  U33         0.0000
    654  O4'       59.9240   16.5720   26.4500 O.3    33  U33         0.0000
    655  C3'       57.7740   15.8500   25.8420 C.3    33  U33         0.0000
    656  O3'       56.3910   16.1340   26.0510 O.3    33  U33         0.0000
    657  C2'       58.3460   16.6340   24.6630 C.3    33  U33         0.0000
    658  O2'       57.7520   17.9100   24.5040 O.3    33  U33         0.0000
    659  C1'       59.8290   16.7460   25.0480 C.3    33  U33         0.0000
    660  N1        60.6880   15.7470   24.3920 N.ar   33  U33         0.0000
    661  C2        61.0810   16.0060   23.0910 C.ar   33  U33         0.0000
    662  O2        60.7510   17.0060   22.4920 O.2    33  U33         0.0000
    663  N3        61.8750   15.0480   22.5140 N.ar   33  U33         0.0000
    664  C4        62.3110   13.8810   23.0850 C.ar   33  U33         0.0000
    665  O4        63.0370   13.1350   22.4310 O.2    33  U33         0.0000
    666  C5        61.8670   13.6720   24.4350 C.ar   33  U33         0.0000
    667  C6        61.0900   14.5910   25.0290 C.ar   33  U33         0.0000
    668  OP1       58.1960   12.8290   29.7390 O.3    33  U33        -0.5000
    669  OP2       60.0420   11.8670   28.2320 O.co2  33  U33        -0.5000
    670  P         55.2750   15.0620   25.6170 P.3    34  G34         0.0000
    671  C5'       55.2290   16.2720   23.2990 C.3    34  G34         0.0000
    672  O5'       55.3710   15.0620   24.0260 O.3    34  G34         0.0000
    673  C4'       55.8350   16.1370   21.9240 C.3    34  G34         0.0000
    674  O4'       57.2570   15.8880   22.0350 O.3    34  G34         0.0000
    675  C3'       55.3020   14.9980   21.0760 C.3    34  G34         0.0000
    676  O3'       54.1310   15.4350   20.3880 O.3    34  G34         0.0000
    677  C2'       56.4490   14.7640   20.0990 C.3    34  G34         0.0000
    678  O2'       56.4140   15.6520   19.0000 O.3    34  G34         0.0000
    679  C1'       57.6740   15.0540   20.9740 C.3    34  G34         0.0000
    680  N1        61.1700   11.4110   20.4000 N.ar   34  G34         0.0000
    681  C2        60.9000   12.4970   19.6030 C.ar   34  G34         0.0000
    682  N2        61.6480   12.6210   18.4970 N.pl3  34  G34         0.0000
    683  N3        59.9660   13.3950   19.8680 N.ar   34  G34         0.0000
    684  C4        59.3060   13.1190   21.0140 C.ar   34  G34         0.0000
    685  C5        59.4950   12.0670   21.8840 C.ar   34  G34         0.0000
    686  C6        60.5060   11.1030   21.5850 C.ar   34  G34         0.0000
    687  O6        60.8250   10.0860   22.2260 O.2    34  G34         0.0000
    688  N7        58.6100   12.1470   22.9530 N.ar   34  G34         0.0000
    689  C8        57.9080   13.2220   22.7140 C.ar   34  G34         0.0000
    690  N9        58.2720   13.8540   21.5490 N.ar   34  G34         0.0000
    691  OP1       53.9580   15.6200   26.0320 O.2    34  G34        -0.5000
    692  OP2       55.6770   13.7140   26.1020 O.co2  34  G34        -0.5000
    693  P         52.7560   14.6130   20.5380 P.3    35  A35         0.0000
    694  C5'       51.2930   16.5920   21.5510 C.3    35  A35         0.0000
    695  O5'       51.6130   15.7330   20.4410 O.3    35  A35         0.0000
    696  C4'       49.7890   16.6870   21.7260 C.3    35  A35         0.0000
    697  O4'       49.2190   17.2540   20.5340 O.3    35  A35         0.0000
    698  C3'       49.1320   15.3330   21.9050 C.3    35  A35         0.0000
    699  O3'       48.1080   15.2840   22.9030 O.3    35  A35         0.0000
    700  C2'       48.6570   14.9260   20.5130 C.3    35  A35         0.0000
    701  O2'       47.3800   14.3370   20.5450 O.3    35  A35         0.0000
    702  C1'       48.5200   16.2740   19.8030 C.3    35  A35         0.0000
    703  N1        47.9410   18.6160   15.2850 N.ar   35  A35         0.0000
    704  C2        47.2330   18.6590   16.4260 C.ar   35  A35         0.0000
    705  N3        47.4180   17.9820   17.5610 N.ar   35  A35         0.0000
    706  C4        48.4810   17.1650   17.4560 C.ar   35  A35         0.0000
    707  C5        49.2980   17.0060   16.3580 C.ar   35  A35         0.0000
    708  C6        49.0070   17.7860   15.2200 C.ar   35  A35         0.0000
    709  N6        49.7280   17.7550   14.0920 N.pl3  35  A35         0.0000
    710  N7        50.2890   16.0760   16.6200 N.ar   35  A35         0.0000
    711  C8        50.0560   15.7070   17.8520 C.ar   35  A35         0.0000
    712  N9        48.9980   16.3480   18.4270 N.ar   35  A35         0.0000
    713  OP1       52.7580   14.0110   21.8950 O.3    35  A35        -0.5000
    714  OP2       52.6710   13.7310   19.3510 O.co2  35  A35        -0.5000
    715  P         48.3990   15.7520   24.4250 P.3    36  C36         0.0000
    716  C5'       47.4980   17.8060   25.8130 C.3    36  C36         0.0000
    717  O5'       47.7060   17.1850   24.5370 O.3    36  C36         0.0000
    718  C4'       46.1410   18.4850   25.8630 C.3    36  C36         0.0000
    719  O4'       46.0740   19.4930   24.8250 O.3    36  C36         0.0000
    720  C3'       44.9410   17.5860   25.6050 C.3    36  C36         0.0000
    721  O3'       44.5450   16.9440   26.8190 O.3    36  C36         0.0000
    722  C2'       43.8970   18.5690   25.0670 C.3    36  C36         0.0000
    723  O2'       43.2390   19.3250   26.0570 O.3    36  C36         0.0000
    724  C1'       44.7670   19.5500   24.2920 C.3    36  C36         0.0000
    725  N1        44.8490   19.3240   22.8490 N.ar   36  C36         0.0000
    726  C2        43.7900   19.7390   22.0440 C.ar   36  C36         0.0000
    727  O2        42.7960   20.2370   22.5810 O.2    36  C36         0.0000
    728  N3        43.8780   19.5880   20.7040 N.ar   36  C36         0.0000
    729  C4        44.9710   19.0370   20.1660 C.ar   36  C36         0.0000
    730  N4        45.0270   18.9150   18.8360 N.pl3  36  C36         0.0000
    731  C5        46.0610   18.5850   20.9700 C.ar   36  C36         0.0000
    732  C6        45.9550   18.7420   22.2950 C.ar   36  C36         0.0000
    733  OP1       49.8580   15.9000   24.6780 O.3    36  C36         0.0000
    734  OP2       47.5980   14.8380   25.2840 O.co2  36  C36        -1.0000
    735  P         44.0850   15.4020   26.8060 P.3    37  G37         0.0000
    736  C5'       41.5060   14.9660   26.5800 C.3    37  G37         0.0000
    737  O5'       42.5960   15.4530   27.3610 O.3    37  G37         0.0000
    738  C4'       40.5560   16.0920   26.2760 C.3    37  G37         0.0000
    739  O4'       41.2660   17.0770   25.4850 O.3    37  G37         0.0000
    740  C3'       39.3420   15.7430   25.4390 C.3    37  G37         0.0000
    741  O3'       38.2990   15.2590   26.2780 O.3    37  G37         0.0000
    742  C2'       39.0020   17.1020   24.8510 C.3    37  G37         0.0000
    743  O2'       38.4380   17.9580   25.8250 O.3    37  G37         0.0000
    744  C1'       40.3970   17.6320   24.5210 C.3    37  G37         0.0000
    745  N1        39.7650   17.9700   19.4850 N.ar   37  G37         0.0000
    746  C2        38.9870   18.4790   20.4900 C.ar   37  G37         0.0000
    747  N2        37.9000   19.1680   20.0990 N.pl3  37  G37         0.0000
    748  N3        39.2490   18.3260   21.7810 N.ar   37  G37         0.0000
    749  C4        40.3660   17.6020   21.9820 C.ar   37  G37         0.0000
    750  C5        41.2090   17.0470   21.0450 C.ar   37  G37         0.0000
    751  C6        40.9220   17.2270   19.6720 C.ar   37  G37         0.0000
    752  O6        41.5570   16.8170   18.6910 O.2    37  G37         0.0000
    753  N7        42.2500   16.3710   21.6580 N.ar   37  G37         0.0000
    754  C8        42.0290   16.5240   22.9340 C.ar   37  G37         0.0000
    755  N9        40.9050   17.2650   23.2010 N.ar   37  G37         0.0000
    756  OP1       44.8910   14.6450   27.7850 O.2    37  G37         0.0000
    757  OP2       44.0180   14.9330   25.4040 O.co2  37  G37        -1.0000
    758  P         37.3020   14.1000   25.7540 P.3    38  A38         0.0000
    759  C5'       35.3420   15.7200   25.0920 C.3    38  A38         0.0000
    760  O5'       36.3920   14.8480   24.6800 O.3    38  A38         0.0000
    761  C4'       34.6470   16.3050   23.8870 C.3    38  A38         0.0000
    762  O4'       35.6240   17.0240   23.0910 O.3    38  A38         0.0000
    763  C3'       34.0450   15.3000   22.9210 C.3    38  A38         0.0000
    764  O3'       32.7290   14.9490   23.3170 O.3    38  A38         0.0000
    765  C2'       34.0410   16.0790   21.6150 C.3    38  A38         0.0000
    766  O2'       33.0030   17.0350   21.5530 O.3    38  A38         0.0000
    767  C1'       35.3680   16.8190   21.7140 C.3    38  A38         0.0000
    768  N1        37.6600   15.3340   17.3840 N.ar   38  A38         0.0000
    769  C2        36.5460   16.0420   17.6220 C.ar   38  A38         0.0000
    770  N3        35.9980   16.3830   18.7920 N.ar   38  A38         0.0000
    771  C4        36.7310   15.9100   19.8150 C.ar   38  A38         0.0000
    772  C5        37.8960   15.1650   19.7310 C.ar   38  A38         0.0000
    773  C6        38.3690   14.8700   18.4390 C.ar   38  A38         0.0000
    774  N6        39.4650   14.1630   18.1990 N.pl3  38  A38         0.0000
    775  N7        38.3680   14.8470   20.9990 N.ar   38  A38         0.0000
    776  C8        37.4930   15.3990   21.8060 C.ar   38  A38         0.0000
    777  N9        36.4830   16.0670   21.1520 N.ar   38  A38         0.0000
    778  OP1       36.4390   13.7090   26.8990 O.3    38  A38        -0.5000
    779  OP2       38.0850   13.0500   25.0460 O.co2  38  A38        -0.5000
    780  P         32.1470   13.5000   22.9520 P.3    39  G39         0.0000
    781  C5'       31.4440   14.0850   20.4780 C.3    39  G39         0.0000
    782  O5'       32.3200   13.3850   21.3660 O.3    39  G39         0.0000
    783  C4'       31.8680   13.8940   19.0370 C.3    39  G39         0.0000
    784  O4'       33.2340   14.3500   18.8710 O.3    39  G39         0.0000
    785  C3'       31.9030   12.4730   18.5110 C.3    39  G39         0.0000
    786  O3'       30.6120   12.0640   18.0850 O.3    39  G39         0.0000
    787  C2'       32.8470   12.6010   17.3270 C.3    39  G39         0.0000
    788  O2'       32.2250   13.1820   16.2010 O.3    39  G39         0.0000
    789  C1'       33.8850   13.5720   17.8800 C.3    39  G39         0.0000
    790  N1        38.4020   11.2920   17.2590 N.ar   39  G39         0.0000
    791  C2        37.5520   11.7910   16.3090 C.ar   39  G39         0.0000
    792  N2        37.9650   11.6770   15.0470 N.pl3  39  G39         0.0000
    793  N3        36.3840   12.3570   16.5790 N.ar   39  G39         0.0000
    794  C4        36.1340   12.3820   17.9040 C.ar   39  G39         0.0000
    795  C5        36.9190   11.9070   18.9330 C.ar   39  G39         0.0000
    796  C6        38.1630   11.3050   18.6300 C.ar   39  G39         0.0000
    797  O6        38.9990   10.8230   19.4110 O.2    39  G39         0.0000
    798  N7        36.3060   12.1200   20.1580 N.ar   39  G39         0.0000
    799  C8        35.1830   12.7130   19.8600 C.ar   39  G39         0.0000
    800  N9        35.0180   12.9110   18.5140 N.ar   39  G39         0.0000
    801  OP1       30.7030   13.5240   23.2860 O.2    39  G39        -0.5000
    802  OP2       33.0300   12.4980   23.5980 O.co2  39  G39        -0.5000
    803  P         30.1750   10.5220   18.2340 P.3    40  G40         0.0000
    804  C5'       30.4550   10.0440   15.6850 C.3    40  G40         0.0000
    805  O5'       30.8890    9.8020   17.0110 O.3    40  G40         0.0000
    806  C4'       31.4090    9.4170   14.7170 C.3    40  G40         0.0000
    807  O4'       32.7160   10.0080   14.9280 O.3    40  G40         0.0000
    808  C3'       31.6450    7.9250   14.9000 C.3    40  G40         0.0000
    809  O3'       30.6700    7.1860   14.1660 O.3    40  G40         0.0000
    810  C2'       33.0100    7.7520   14.2500 C.3    40  G40         0.0000
    811  O2'       32.8690    7.7350   12.8450 O.3    40  G40         0.0000
    812  C1'       33.7220    9.0470   14.6570 C.3    40  G40         0.0000
    813  N1        38.4130    8.1300   16.3530 N.ar   40  G40         0.0000
    814  C2        37.9570    8.2090   15.0630 C.ar   40  G40         0.0000
    815  N2        38.8730    8.0020   14.1050 N.pl3  40  G40         0.0000
    816  N3        36.7020    8.4690   14.7370 N.ar   40  G40         0.0000
    817  C4        35.9320    8.6530   15.8290 C.ar   40  G40         0.0000
    818  C5        36.2980    8.6010   17.1600 C.ar   40  G40         0.0000
    819  C6        37.6390    8.3130   17.4880 C.ar   40  G40         0.0000
    820  O6        38.1530    8.2140   18.6020 O.2    40  G40         0.0000
    821  N7        35.2090    8.8520   17.9800 N.ar   40  G40         0.0000
    822  C8        34.2170    9.0420   17.1510 C.ar   40  G40         0.0000
    823  N9        34.5850    8.9250   15.8310 N.ar   40  G40         0.0000
    824  OP1       28.7080   10.4770   18.0180 O.2    40  G40        -0.5000
    825  OP2       30.7460    9.9700   19.4860 O.co2  40  G40        -0.5000
    826  P         30.1010    5.8000   14.7460 P.3    41  G41         0.0000
    827  C5'       31.6460    4.5370   13.0400 C.3    41  G41         0.0000
    828  O5'       31.2150    4.7160   14.3870 O.3    41  G41         0.0000
    829  C4'       32.0450    3.0990   12.7900 C.3    41  G41         0.0000
    830  O4'       33.1980    2.7720   13.5970 O.3    41  G41         0.0000
    831  C3'       30.9360    2.1340   13.2140 C.3    41  G41         0.0000
    832  O3'       30.7920    1.0420   12.3140 O.3    41  G41         0.0000
    833  C2'       31.3130    1.6610   14.6120 C.3    41  G41         0.0000
    834  O2'       31.0600    0.2800   14.7740 O.3    41  G41         0.0000
    835  C1'       32.8280    1.8360   14.5740 C.3    41  G41         0.0000
    836  N1        37.3630    1.4670   16.7140 N.ar   41  G41         0.0000
    837  C2        37.0040    1.3390   15.3940 C.ar   41  G41         0.0000
    838  N2        37.9850    1.0210   14.5370 N.pl3  41  G41         0.0000
    839  N3        35.7750    1.5140   14.9500 N.ar   41  G41         0.0000
    840  C4        34.9190    1.8370   15.9460 C.ar   41  G41         0.0000
    841  C5        35.1760    1.9940   17.2910 C.ar   41  G41         0.0000
    842  C6        36.4970    1.7950   17.7560 C.ar   41  G41         0.0000
    843  O6        36.9250    1.8760   18.9120 O.2    41  G41         0.0000
    844  N7        34.0160    2.3400   17.9780 N.ar   41  G41         0.0000
    845  C8        33.0930    2.3790   17.0540 C.ar   41  G41         0.0000
    846  N9        33.5710    2.0440   15.8070 N.ar   41  G41         0.0000
    847  OP1       28.8790    5.4540   13.9860 O.2    41  G41        -0.5000
    848  OP2       30.0200    5.9650   16.2140 O.co2  41  G41        -0.5000
    849  P         29.6130    1.0160   11.2420 P.3    42  C42         0.0000
    850  C5'       28.9280   -1.1760   12.5270 C.3    42  C42         0.0000
    851  O5'       29.1330   -0.5000   11.2880 O.3    42  C42         0.0000
    852  C4'       28.5320   -2.6160   12.2730 C.3    42  C42         0.0000
    853  O4'       27.3900   -2.6300   11.3700 O.3    42  C42         0.0000
    854  C3'       29.5830   -3.4570   11.5690 C.3    42  C42         0.0000
    855  O3'       30.4670   -4.0390   12.5160 O.3    42  C42         0.0000
    856  C2'       28.7350   -4.5060   10.8640 C.3    42  C42         0.0000
    857  O2'       28.2980   -5.5340   11.7290 O.3    42  C42         0.0000
    858  C1'       27.5420   -3.6630   10.4120 C.3    42  C42         0.0000
    859  N1        27.7340   -3.0320    9.0930 N.ar   42  C42         0.0000
    860  C2        27.7620   -3.8380    7.9480 C.ar   42  C42         0.0000
    861  O2        27.6180   -5.0630    8.0700 O.2    42  C42         0.0000
    862  N3        27.9470   -3.2620    6.7400 N.ar   42  C42         0.0000
    863  C4        28.1010   -1.9420    6.6490 C.ar   42  C42         0.0000
    864  N4        28.2980   -1.4180    5.4370 N.pl3  42  C42         0.0000
    865  C5        28.0650   -1.0990    7.7950 C.ar   42  C42         0.0000
    866  C6        27.8840   -1.6800    8.9840 C.ar   42  C42         0.0000
    867  OP1       30.2470    1.2380    9.9180 O.2    42  C42        -0.5000
    868  OP2       28.4980    1.8970   11.6880 O.co2  42  C42        -0.5000
    869  P         31.9600   -4.4450   12.0770 P.3    43  A43         0.0000
    870  C5'       31.4890   -6.8450   11.1610 C.3    43  A43         0.0000
    871  O5'       31.7620   -5.4820   10.8910 O.3    43  A43         0.0000
    872  C4'       31.6310   -7.6460    9.8970 C.3    43  A43         0.0000
    873  O4'       30.6520   -7.1800    8.9360 O.3    43  A43         0.0000
    874  C3'       32.9510   -7.4570    9.1780 C.3    43  A43         0.0000
    875  O3'       33.9280   -8.3390    9.6820 O.3    43  A43         0.0000
    876  C2'       32.5950   -7.8360    7.7540 C.3    43  A43         0.0000
    877  O2'       32.5100   -9.2340    7.5960 O.3    43  A43         0.0000
    878  C1'       31.2050   -7.2260    7.6320 C.3    43  A43         0.0000
    879  N1        31.3490   -4.3370    3.4020 N.ar   43  A43         0.0000
    880  C2        31.4000   -5.6590    3.5930 C.ar   43  A43         0.0000
    881  N3        31.3800   -6.3500    4.7290 N.ar   43  A43         0.0000
    882  C4        31.2980   -5.5210    5.7800 C.ar   43  A43         0.0000
    883  C5        31.2430   -4.1400    5.7470 C.ar   43  A43         0.0000
    884  C6        31.2650   -3.5320    4.4800 C.ar   43  A43         0.0000
    885  N6        31.2040   -2.2130    4.2880 N.pl3  43  A43         0.0000
    886  N7        31.1650   -3.6220    7.0340 N.ar   43  A43         0.0000
    887  C8        31.1680   -4.6850    7.8010 C.ar   43  A43         0.0000
    888  N9        31.2310   -5.8660    7.1060 N.ar   43  A43         0.0000
    889  OP1       32.5930   -5.1880   13.1990 O.3    43  A43        -0.5000
    890  OP2       32.6150   -3.2260   11.5280 O.co2  43  A43        -0.5000
    891  P         35.4700   -8.0570    9.3650 P.3    44  G44         0.0000
    892  C5'       35.8630   -9.7180    7.3700 C.3    44  G44         0.0000
    893  O5'       35.6240   -8.3870    7.8140 O.3    44  G44         0.0000
    894  C4'       36.1300   -9.7270    5.8880 C.3    44  G44         0.0000
    895  O4'       34.9650   -9.1770    5.2120 O.3    44  G44         0.0000
    896  C3'       37.2630   -8.8300    5.4180 C.3    44  G44         0.0000
    897  O3'       38.5440   -9.4310    5.5590 O.3    44  G44         0.0000
    898  C2'       36.8900   -8.6030    3.9610 C.3    44  G44         0.0000
    899  O2'       37.1900   -9.7020    3.1190 O.3    44  G44         0.0000
    900  C1'       35.3760   -8.4310    4.0760 C.3    44  G44         0.0000
    901  N1        34.4860   -3.9600    1.8370 N.ar   44  G44         0.0000
    902  C2        34.7700   -5.1800    1.2720 C.ar   44  G44         0.0000
    903  N2        34.8460   -5.2130   -0.0630 N.pl3  44  G44         0.0000
    904  N3        34.9650   -6.2890    1.9660 N.ar   44  G44         0.0000
    905  C4        34.8560   -6.0820    3.3000 C.ar   44  G44         0.0000
    906  C5        34.5760   -4.9100    3.9670 C.ar   44  G44         0.0000
    907  C6        34.3650   -3.7220    3.2050 C.ar   44  G44         0.0000
    908  O6        34.1050   -2.5850    3.6080 O.2    44  G44         0.0000
    909  N7        34.5490   -5.1190    5.3410 N.ar   44  G44         0.0000
    910  C8        34.8140   -6.3900    5.4800 C.ar   44  G44         0.0000
    911  N9        35.0210   -7.0310    4.2830 N.ar   44  G44         0.0000
    912  OP1       36.2630   -9.0460   10.1400 O.3    44  G44        -0.5000
    913  OP2       35.6990   -6.5970    9.5640 O.co2  44  G44        -0.5000
    914  P         39.8620   -8.4990    5.5890 P.3    45  G45         0.0000
    915  C5'       40.4110   -8.7510    3.0390 C.3    45  G45         0.0000
    916  O5'       39.9680   -7.9190    4.1070 O.3    45  G45         0.0000
    917  C4'       40.3990   -7.9960    1.7290 C.3    45  G45         0.0000
    918  O4'       39.0460   -7.5660    1.4310 O.3    45  G45         0.0000
    919  C3'       41.2020   -6.7110    1.6750 C.3    45  G45         0.0000
    920  O3'       42.5720   -6.9560    1.4140 O.3    45  G45         0.0000
    921  C2'       40.5440   -5.9960    0.5080 C.3    45  G45         0.0000
    922  O2'       40.9200   -6.5530   -0.7290 O.3    45  G45         0.0000
    923  C1'       39.0750   -6.3080    0.7720 C.3    45  G45         0.0000
    924  N1        37.3480   -1.5700    1.2080 N.ar   45  G45         0.0000
    925  C2        37.8230   -2.2210    0.1030 C.ar   45  G45         0.0000
    926  N2        37.8610   -1.5120   -1.0210 N.pl3  45  G45         0.0000
    927  N3        38.2330   -3.4750    0.1070 N.ar   45  G45         0.0000
    928  C4        38.1260   -4.0330    1.3290 C.ar   45  G45         0.0000
    929  C5        37.6630   -3.4670    2.4970 C.ar   45  G45         0.0000
    930  C6        37.2310   -2.1280    2.4780 C.ar   45  G45         0.0000
    931  O6        36.7930   -1.4520    3.4140 O.2    45  G45         0.0000
    932  N7        37.7130   -4.3780    3.5420 N.ar   45  G45         0.0000
    933  C8        38.2010   -5.4600    3.0020 C.ar   45  G45         0.0000
    934  N9        38.4840   -5.3140    1.6630 N.ar   45  G45         0.0000
    935  OP1       41.0170   -9.4020    5.8090 O.2    45  G45        -0.5000
    936  OP2       39.6340   -7.3570    6.5170 O.co2  45  G45        -0.5000
    937  P         43.6750   -5.9450    2.0010 P.3    46  G46         0.0000
    938  C5'       43.7140   -4.8230   -0.3440 C.3    46  G46         0.0000
    939  O5'       43.5480   -4.6790    1.0510 O.3    46  G46         0.0000
    940  C4'       43.3330   -3.5490   -1.0300 C.3    46  G46         0.0000
    941  O4'       41.9290   -3.2700   -0.7870 O.3    46  G46         0.0000
    942  C3'       44.0140   -2.3040   -0.5040 C.3    46  G46         0.0000
    943  O3'       45.3180   -2.1700   -1.0380 O.3    46  G46         0.0000
    944  C2'       43.0880   -1.2240   -1.0350 C.3    46  G46         0.0000
    945  O2'       43.2930   -1.0270   -2.4210 O.3    46  G46         0.0000
    946  C1'       41.7190   -1.8660   -0.7800 C.3    46  G46         0.0000
    947  N1        39.4760    1.7840    1.9670 N.ar   46  G46         0.0000
    948  C2        39.8170    1.7800    0.6360 C.ar   46  G46         0.0000
    949  N2        39.5470    2.9070   -0.0500 N.pl3  46  G46         0.0000
    950  N3        40.3840    0.7520    0.0180 N.ar   46  G46         0.0000
    951  C4        40.5880   -0.2890    0.8530 C.ar   46  G46         0.0000
    952  C5        40.2850   -0.3870    2.1940 C.ar   46  G46         0.0000
    953  C6        39.6780    0.7310    2.8470 C.ar   46  G46         0.0000
    954  O6        39.3440    0.8510    4.0360 O.2    46  G46         0.0000
    955  N7        40.6520   -1.6320    2.6900 N.ar   46  G46         0.0000
    956  C8        41.1670   -2.2530    1.6630 C.ar   46  G46         0.0000
    957  N9        41.1730   -1.4920    0.5210 N.ar   46  G46         0.0000
    958  OP1       45.0410   -6.5230    1.8110 O.2    46  G46        -0.5000
    959  OP2       43.2180   -5.5570    3.3720 O.co2  46  G46        -0.5000
    960  P         46.4600   -1.4620   -0.1620 P.3    47  U47         0.0000
    961  C5'       45.6900    0.8320   -1.1680 C.3    47  U47         0.0000
    962  O5'       45.9520    0.0420   -0.0140 O.3    47  U47         0.0000
    963  C4'       45.0810    2.1560   -0.7780 C.3    47  U47         0.0000
    964  O4'       43.7610    1.9680   -0.2010 O.3    47  U47         0.0000
    965  C3'       45.8310    2.9230    0.2890 C.3    47  U47         0.0000
    966  O3'       46.9490    3.5910   -0.2890 O.3    47  U47         0.0000
    967  C2'       44.7540    3.8780    0.7960 C.3    47  U47         0.0000
    968  O2'       44.5410    4.9840   -0.0550 O.3    47  U47         0.0000
    969  C1'       43.5120    2.9870    0.7550 C.3    47  U47         0.0000
    970  N1        43.2090    2.3560    2.0470 N.ar   47  U47         0.0000
    971  C2        42.4290    3.0700    2.9460 C.ar   47  U47         0.0000
    972  O2        41.9940    4.1840    2.7100 O.2    47  U47         0.0000
    973  N3        42.1740    2.4280    4.1320 N.ar   47  U47         0.0000
    974  C4        42.6060    1.1720    4.5080 C.ar   47  U47         0.0000
    975  O4        42.2830    0.7300    5.6110 O.2    47  U47         0.0000
    976  C5        43.4060    0.4970    3.5300 C.ar   47  U47         0.0000
    977  C6        43.6750    1.0960    2.3620 C.ar   47  U47         0.0000
    978  OP1       47.7050   -1.4670   -0.9690 O.2    47  U47        -0.5000
    979  OP2       46.4510   -2.1040    1.1750 O.co2  47  U47        -0.5000
    980  P         48.2730    3.8410    0.5890 P.3    48  U48         0.0000
    981  C5'       47.4450    6.3240    0.4610 C.3    48  U48         0.0000
    982  O5'       47.9930    5.2670    1.2560 O.3    48  U48         0.0000
    983  C4'       46.8690    7.4430    1.3160 C.3    48  U48         0.0000
    984  O4'       45.7950    6.9530    2.1640 O.3    48  U48         0.0000
    985  C3'       47.9140    8.0180    2.2660 C.3    48  U48         0.0000
    986  O3'       47.8250    9.4400    2.2470 O.3    48  U48         0.0000
    987  C2'       47.6620    7.3480    3.6200 C.3    48  U48         0.0000
    988  O2'       47.8420    8.2090    4.7220 O.3    48  U48         0.0000
    989  C1'       46.1690    7.0630    3.5140 C.3    48  U48         0.0000
    990  N1        45.4770    6.0690    4.3470 N.ar   48  U48         0.0000
    991  C2        44.3050    6.5060    4.9530 C.ar   48  U48         0.0000
    992  O2        43.8490    7.6290    4.7790 O.2    48  U48         0.0000
    993  N3        43.6860    5.5880    5.7600 N.ar   48  U48         0.0000
    994  C4        44.0960    4.3070    6.0180 C.ar   48  U48         0.0000
    995  O4        43.4260    3.6070    6.7790 O.2    48  U48         0.0000
    996  C5        45.3090    3.9170    5.3480 C.ar   48  U48         0.0000
    997  C6        45.9420    4.7920    4.5500 C.ar   48  U48         0.0000
    998  OP1       49.4130    3.9780   -0.3450 O.2    48  U48        -0.5000
    999  OP2       48.3130    2.7840    1.6380 O.co2  48  U48        -0.5000
   1000  P         49.1470   10.3350    2.2900 P.3    49  U49         0.0000
   1001  C5'       48.4970   11.1820    4.7000 C.3    49  U49         0.0000
   1002  O5'       48.8150   11.4920    3.3400 O.3    49  U49         0.0000
   1003  C4'       47.7760   12.3420    5.3730 C.3    49  U49         0.0000
   1004  O4'       48.7260   13.4000    5.6830 O.3    49  U49         0.0000
   1005  C3'       46.7130   12.9820    4.4860 C.3    49  U49         0.0000
   1006  O3'       45.3810   13.0220    5.0140 O.3    49  U49         0.0000
   1007  C2'       47.3550   14.2360    3.8770 C.3    49  U49         0.0000
   1008  O2'       46.4790   15.3490    3.8700 O.3    49  U49         0.0000
   1009  C1'       48.4890   14.5360    4.8680 C.3    49  U49         0.0000
   1010  N1        49.7740   15.0100    4.3220 N.ar   49  U49         0.0000
   1011  C2        49.8820   16.3580    3.9800 C.ar   49  U49         0.0000
   1012  O2        48.9610   17.1560    4.1050 O.2    49  U49         0.0000
   1013  N3        51.1100   16.7360    3.4920 N.ar   49  U49         0.0000
   1014  C4        52.2190   15.9320    3.3120 C.ar   49  U49         0.0000
   1015  O4        53.2560   16.4220    2.8610 O.2    49  U49         0.0000
   1016  C5        52.0300   14.5590    3.6850 C.ar   49  U49         0.0000
   1017  C6        50.8440   14.1550    4.1630 C.ar   49  U49         0.0000
   1018  OP1       49.2720   10.9370    0.9370 O.2    49  U49        -0.5000
   1019  OP2       50.2460    9.4980    2.8440 O.co2  49  U49        -0.5000
   1020  P         44.4170   11.7510    4.8300 P.3    50  A50         0.0000
   1021  C5'       41.9110   12.5080    5.1920 C.3    50  A50         0.0000
   1022  O5'       43.1430   12.0520    5.7560 O.3    50  A50         0.0000
   1023  C4'       40.7590   12.4150    6.1900 C.3    50  A50         0.0000
   1024  O4'       40.3320   11.0310    6.3590 O.3    50  A50         0.0000
   1025  C3'       41.1610   12.9030    7.5830 C.3    50  A50         0.0000
   1026  O3'       40.2050   13.7800    8.1860 O.3    50  A50         0.0000
   1027  C2'       41.4570   11.6390    8.3950 C.3    50  A50         0.0000
   1028  O2'       40.9490   11.6850    9.7070 O.3    50  A50         0.0000
   1029  C1'       40.5910   10.6090    7.6780 C.3    50  A50         0.0000
   1030  N1        40.0150    6.2310   10.2500 N.ar   50  A50         0.0000
   1031  C2        39.4920    7.4470   10.4090 C.ar   50  A50         0.0000
   1032  N3        39.6850    8.5480    9.6840 N.ar   50  A50         0.0000
   1033  C4        40.5380    8.3090    8.6720 C.ar   50  A50         0.0000
   1034  C5        41.1530    7.1140    8.3800 C.ar   50  A50         0.0000
   1035  C6        40.8710    6.0270    9.2270 C.ar   50  A50         0.0000
   1036  N6        41.4060    4.8150    9.0750 N.pl3  50  A50         0.0000
   1037  N7        41.9620    7.2420    7.2600 N.ar   50  A50         0.0000
   1038  C8        41.8210    8.4970    6.9090 C.ar   50  A50         0.0000
   1039  N9        40.9810    9.2020    7.7230 N.ar   50  A50         0.0000
   1040  OP1       45.1330   10.5920    5.4190 O.3    50  A50        -0.5000
   1041  OP2       44.0300   11.7210    3.3910 O.co2  50  A50        -0.5000
   1042  P         40.3210   15.3730    8.0230 P.3    51  U51         0.0000
   1043  C5'       37.7670   15.8090    8.3610 C.3    51  U51         0.0000
   1044  O5'       39.0860   15.8910    8.8800 O.3    51  U51         0.0000
   1045  C4'       36.7560   16.0730    9.4480 C.3    51  U51         0.0000
   1046  O4'       36.8000   15.0050   10.4200 O.3    51  U51         0.0000
   1047  C3'       36.9890   17.3020   10.2990 C.3    51  U51         0.0000
   1048  O3'       36.5740   18.4890    9.6410 O.3    51  U51         0.0000
   1049  C2'       36.1440   16.9950   11.5260 C.3    51  U51         0.0000
   1050  O2'       34.7680   17.2360   11.3380 O.3    51  U51         0.0000
   1051  C1'       36.3720   15.4940   11.6750 C.3    51  U51         0.0000
   1052  N1        37.3920   15.1760   12.6770 N.ar   51  U51         0.0000
   1053  C2        37.0400   15.3360   14.0060 C.ar   51  U51         0.0000
   1054  O2        35.9300   15.7050   14.3550 O.2    51  U51         0.0000
   1055  N3        38.0340   15.0500   14.9090 N.ar   51  U51         0.0000
   1056  C4        39.3160   14.6220   14.6240 C.ar   51  U51         0.0000
   1057  O4        40.0880   14.3760   15.5540 O.2    51  U51         0.0000
   1058  C5        39.6030   14.4720   13.2210 C.ar   51  U51         0.0000
   1059  C6        38.6510   14.7450   12.3190 C.ar   51  U51         0.0000
   1060  OP1       40.0400   15.6960    6.6030 O.2    51  U51        -0.5000
   1061  OP2       41.5660   15.8780    8.6630 O.co2  51  U51        -0.5000
   1062  P         37.3140   19.8700    9.9790 P.3    52  C52         0.0000
   1063  C5'       35.4210   20.3250   11.7340 C.3    52  C52         0.0000
   1064  O5'       36.8110   20.1840   11.4560 O.3    52  C52         0.0000
   1065  C4'       35.2050   20.5610   13.2090 C.3    52  C52         0.0000
   1066  O4'       35.5210   19.3520   13.9470 O.3    52  C52         0.0000
   1067  C3'       36.1090   21.5900   13.8660 C.3    52  C52         0.0000
   1068  O3'       35.7070   22.9230   13.5980 O.3    52  C52         0.0000
   1069  C2'       35.9640   21.2200   15.3340 C.3    52  C52         0.0000
   1070  O2'       34.7260   21.6180   15.8840 O.3    52  C52         0.0000
   1071  C1'       35.9750   19.6980   15.2500 C.3    52  C52         0.0000
   1072  N1        37.3090   19.1220   15.4590 N.ar   52  C52         0.0000
   1073  C2        37.7830   18.9760   16.7790 C.ar   52  C52         0.0000
   1074  O2        37.0760   19.3710   17.7190 O.2    52  C52         0.0000
   1075  N3        38.9980   18.4110   16.9900 N.ar   52  C52         0.0000
   1076  C4        39.7340   18.0090   15.9480 C.ar   52  C52         0.0000
   1077  N4        40.9250   17.4510   16.2010 N.pl3  52  C52         0.0000
   1078  C5        39.2820   18.1610   14.5980 C.ar   52  C52         0.0000
   1079  C6        38.0770   18.7210   14.4030 C.ar   52  C52         0.0000
   1080  OP1       36.7890   20.9030    9.0630 O.2    52  C52        -0.5000
   1081  OP2       38.7750   19.6040   10.0190 O.co2  52  C52        -0.5000
   1082  P         36.7680   23.9540   12.9800 P.3    53  G53         0.0000
   1083  C5'       36.7390   25.5640   15.0490 C.3    53  G53         0.0000
   1084  O5'       37.4630   24.6390   14.2440 O.3    53  G53         0.0000
   1085  C4'       36.7370   25.1380   16.5060 C.3    53  G53         0.0000
   1086  O4'       36.7730   23.6890   16.5990 O.3    53  G53         0.0000
   1087  C3'       37.9060   25.5720   17.3750 C.3    53  G53         0.0000
   1088  O3'       37.6960   26.9010   17.8370 O.3    53  G53         0.0000
   1089  C2'       37.7930   24.5870   18.5300 C.3    53  G53         0.0000
   1090  O2'       36.7360   24.9020   19.4140 O.3    53  G53         0.0000
   1091  C1'       37.4420   23.3040   17.7840 C.3    53  G53         0.0000
   1092  N1        41.5120   20.8680   19.5300 N.ar   53  G53         0.0000
   1093  C2        40.5140   21.5030   20.2240 C.ar   53  G53         0.0000
   1094  N2        40.6140   21.4920   21.5580 N.pl3  53  G53         0.0000
   1095  N3        39.4930   22.1040   19.6500 N.ar   53  G53         0.0000
   1096  C4        39.5480   22.0170   18.2990 C.ar   53  G53         0.0000
   1097  C5        40.5000   21.4060   17.5130 C.ar   53  G53         0.0000
   1098  C6        41.5910   20.7710   18.1440 C.ar   53  G53         0.0000
   1099  O6        42.5410   20.1880   17.6240 O.2    53  G53         0.0000
   1100  N7        40.1910   21.5440   16.1660 N.ar   53  G53         0.0000
   1101  C8        39.0790   22.2280   16.1580 C.ar   53  G53         0.0000
   1102  N9        38.6350   22.5480   17.4190 N.ar   53  G53         0.0000
   1103  OP1       36.0010   24.9640   12.2160 O.2    53  G53        -0.5000
   1104  OP2       37.8060   23.1560   12.3020 O.co2  53  G53        -0.5000
   1105  P         38.9480   27.8360   18.1860 P.3    54  A54         0.0000
   1106  C5'       38.9310   27.4990   20.7820 C.3    54  A54         0.0000
   1107  O5'       39.5310   27.2100   19.5280 O.3    54  A54         0.0000
   1108  C4'       39.8480   27.0790   21.8930 C.3    54  A54         0.0000
   1109  O4'       40.0490   25.6490   21.7970 O.3    54  A54         0.0000
   1110  C3'       41.2570   27.6380   21.8320 C.3    54  A54         0.0000
   1111  O3'       41.3070   28.9320   22.4240 O.3    54  A54         0.0000
   1112  C2'       42.0140   26.6190   22.6710 C.3    54  A54         0.0000
   1113  O2'       41.7660   26.7800   24.0470 O.3    54  A54         0.0000
   1114  C1'       41.3490   25.3170   22.2360 C.3    54  A54         0.0000
   1115  N1        45.4520   22.5720   20.9270 N.ar   54  A54         0.0000
   1116  C2        44.9840   22.9880   22.1060 C.ar   54  A54         0.0000
   1117  N3        43.8900   23.6830   22.3750 N.ar   54  A54         0.0000
   1118  C4        43.2210   23.9630   21.2480 C.ar   54  A54         0.0000
   1119  C5        43.5690   23.6000   19.9630 C.ar   54  A54         0.0000
   1120  C6        44.7530   22.8700   19.8120 C.ar   54  A54         0.0000
   1121  N6        45.2260   22.4590   18.6340 N.pl3  54  A54         0.0000
   1122  N7        42.6280   24.0570   19.0520 N.ar   54  A54         0.0000
   1123  C8        41.7510   24.6850   19.7960 C.ar   54  A54         0.0000
   1124  N9        42.0590   24.6800   21.1330 N.ar   54  A54         0.0000
   1125  OP1       38.4160   29.1850   18.4870 O.3    54  A54        -0.5000
   1126  OP2       39.9610   27.6700   17.1150 O.co2  54  A54        -0.5000
   1127  P         42.2580   30.0680   21.7960 P.3    55  G55         0.0000
   1128  C5'       44.1400   29.7620   23.6440 C.3    55  G55         0.0000
   1129  O5'       43.1330   30.5840   23.0310 O.3    55  G55         0.0000
   1130  C4'       44.6000   30.3860   24.9500 C.3    55  G55         0.0000
   1131  O4'       43.4910   31.0330   25.5690 O.3    55  G55         0.0000
   1132  C3'       45.1980   29.4280   25.9740 C.3    55  G55         0.0000
   1133  O3'       46.5980   29.7020   26.1300 O.3    55  G55         0.0000
   1134  C2'       44.5430   29.8040   27.3170 C.3    55  G55         0.0000
   1135  O2'       45.4700   30.1870   28.2990 O.3    55  G55         0.0000
   1136  C1'       43.6590   30.9930   26.9500 C.3    55  G55         0.0000
   1137  N1        38.6890   29.9590   26.8140 N.ar   55  G55         0.0000
   1138  C2        39.7220   29.3300   26.1600 C.ar   55  G55         0.0000
   1139  N2        39.3690   28.3470   25.3240 N.pl3  55  G55         0.0000
   1140  N3        40.9990   29.6410   26.3180 N.ar   55  G55         0.0000
   1141  C4        41.1670   30.6450   27.2080 C.ar   55  G55         0.0000
   1142  C5        40.2050   31.3320   27.9240 C.ar   55  G55         0.0000
   1143  C6        38.8330   30.9910   27.7360 C.ar   55  G55         0.0000
   1144  O6        37.8280   31.4880   28.2720 O.2    55  G55         0.0000
   1145  N7        40.7910   32.2890   28.7410 N.ar   55  G55         0.0000
   1146  C8        42.0690   32.1800   28.5010 C.ar   55  G55         0.0000
   1147  N9        42.3600   31.2340   27.5520 N.ar   55  G55         0.0000
   1148  OP1       41.3810   31.1790   21.3660 O.3    55  G55        -0.5000
   1149  OP2       43.1640   29.4270   20.8110 O.co2  55  G55        -0.5000
   1150  P         47.6380   29.5130   24.9070 P.3    56  A56         0.0000
   1151  C5'       48.5870   27.1900   25.6680 C.3    56  A56         0.0000
   1152  O5'       47.7570   27.9370   24.7900 O.3    56  A56         0.0000
   1153  C4'       49.2250   26.0860   24.8870 C.3    56  A56         0.0000
   1154  O4'       48.1720   25.2160   24.3930 O.3    56  A56         0.0000
   1155  C3'       49.9330   26.6280   23.6550 C.3    56  A56         0.0000
   1156  O3'       51.2970   26.8400   24.0160 O.3    56  A56         0.0000
   1157  C2'       49.7400   25.5020   22.6440 C.3    56  A56         0.0000
   1158  O2'       50.6530   24.4390   22.8180 O.3    56  A56         0.0000
   1159  C1'       48.3450   24.9920   23.0120 C.3    56  A56         0.0000
   1160  N1        46.0520   25.9590   18.4880 N.ar   56  A56         0.0000
   1161  C2        47.1970   25.3300   18.7910 C.ar   56  A56         0.0000
   1162  N3        47.7540   25.1230   19.9830 N.ar   56  A56         0.0000
   1163  C4        46.9940   25.6530   20.9580 C.ar   56  A56         0.0000
   1164  C5        45.7970   26.3310   20.7980 C.ar   56  A56         0.0000
   1165  C6        45.3170   26.4800   19.4980 C.ar   56  A56         0.0000
   1166  N6        44.1760   27.1050   19.2150 N.pl3  56  A56         0.0000
   1167  N7        45.2940   26.7410   22.0210 N.ar   56  A56         0.0000
   1168  C8        46.1770   26.3020   22.8830 C.ar   56  A56         0.0000
   1169  N9        47.2280   25.6260   22.3120 N.ar   56  A56         0.0000
   1170  OP1       48.9670   30.0080   25.3710 O.3    56  A56        -0.5000
   1171  OP2       47.0800   30.0360   23.6340 O.co2  56  A56        -0.5000
   1172  P         52.1700   27.9950   23.3160 P.3    57  C57         0.0000
   1173  C5'       52.5870   26.2470   21.4600 C.3    57  C57         0.0000
   1174  O5'       52.2460   27.5800   21.7830 O.3    57  C57         0.0000
   1175  C4'       52.9680   26.1110   20.0160 C.3    57  C57         0.0000
   1176  O4'       51.7740   26.0880   19.2000 O.3    57  C57         0.0000
   1177  C3'       53.8000   27.2490   19.4760 C.3    57  C57         0.0000
   1178  O3'       55.2260   27.1250   19.3810 O.3    57  C57         0.0000
   1179  C2'       52.8610   28.1870   18.7220 C.3    57  C57         0.0000
   1180  O2'       53.3800   28.5970   17.4730 O.3    57  C57         0.0000
   1181  C1'       51.6600   27.2760   18.4400 C.3    57  C57         0.0000
   1182  N1        50.3400   27.8580   18.7170 N.ar   57  C57         0.0000
   1183  C2        49.3880   27.8740   17.7020 C.ar   57  C57         0.0000
   1184  O2        49.6810   27.3940   16.6040 O.2    57  C57         0.0000
   1185  N3        48.1710   28.4080   17.9430 N.ar   57  C57         0.0000
   1186  C4        47.8930   28.9110   19.1450 C.ar   57  C57         0.0000
   1187  N4        46.6790   29.4270   19.3470 N.pl3  57  C57         0.0000
   1188  C5        48.8470   28.9060   20.1990 C.ar   57  C57         0.0000
   1189  C6        50.0470   28.3740   19.9440 C.ar   57  C57         0.0000
   1190  OP1       53.5200   27.7880   23.8590 O.3    57  C57        -0.5000
   1191  OP2       51.4990   29.3100   23.4910 O.co2  57  C57        -0.5000
   1192  P         55.8960   26.2290   18.2210 P.3    58  A58         0.0000
   1193  C5'       54.8530   23.9150   17.6410 C.3    58  A58         0.0000
   1194  O5'       55.5240   24.7280   18.5860 O.3    58  A58         0.0000
   1195  C4'       55.6650   22.6790   17.3180 C.3    58  A58         0.0000
   1196  O4'       56.9670   23.0610   16.7930 O.3    58  A58         0.0000
   1197  C3'       55.9530   21.8750   18.5870 C.3    58  A58         0.0000
   1198  O3'       55.7520   20.4860   18.3920 O.3    58  A58         0.0000
   1199  C2'       57.3630   22.2370   19.0190 C.3    58  A58         0.0000
   1200  O2'       58.0360   21.0820   19.4530 O.3    58  A58         0.0000
   1201  C1'       57.9620   22.6290   17.6790 C.3    58  A58         0.0000
   1202  N1        62.6070   22.3500   15.6910 N.ar   58  A58         0.0000
   1203  C2        61.5610   21.5120   15.7090 C.ar   58  A58         0.0000
   1204  N3        60.3660   21.6740   16.2610 N.ar   58  A58         0.0000
   1205  C4        60.2800   22.8760   16.8580 C.ar   58  A58         0.0000
   1206  C5        61.2600   23.8450   16.9250 C.ar   58  A58         0.0000
   1207  C6        62.4880   23.5480   16.3050 C.ar   58  A58         0.0000
   1208  N6        63.5310   24.3750   16.2950 N.pl3  58  A58         0.0000
   1209  N7        60.8020   24.9560   17.6200 N.ar   58  A58         0.0000
   1210  C8        59.5700   24.6340   17.9520 C.ar   58  A58         0.0000
   1211  N9        59.1950   23.3890   17.5260 N.ar   58  A58         0.0000
   1212  OP1       57.3560   26.3490   18.3660 O.3    58  A58        -0.5000
   1213  OP2       55.2540   26.5660   16.9240 O.co2  58  A58        -0.5000
   1214  P         55.2350   19.5740   19.5930 P.3    59  U59         0.0000
   1215  C5'       53.1990   18.3060   18.5050 C.3    59  U59         0.0000
   1216  O5'       53.6760   19.4230   19.2700 O.3    59  U59         0.0000
   1217  C4'       52.0790   18.7040   17.5520 C.3    59  U59         0.0000
   1218  O4'       50.8250   18.8270   18.2770 O.3    59  U59         0.0000
   1219  C3'       52.3210   20.0620   16.8990 C.3    59  U59         0.0000
   1220  O3'       52.1550   20.0910   15.4890 O.3    59  U59         0.0000
   1221  C2'       51.4730   21.0650   17.6790 C.3    59  U59         0.0000
   1222  O2'       50.8030   21.9710   16.8290 O.3    59  U59         0.0000
   1223  C1'       50.3870   20.1660   18.2640 C.3    59  U59         0.0000
   1224  N1        49.8280   20.5310   19.5680 N.ar   59  U59         0.0000
   1225  C2        48.5630   21.0820   19.5640 C.ar   59  U59         0.0000
   1226  O2        47.9190   21.2530   18.5370 O.2    59  U59         0.0000
   1227  N3        48.0730   21.4180   20.7970 N.ar   59  U59         0.0000
   1228  C4        48.7000   21.2550   22.0030 C.ar   59  U59         0.0000
   1229  O4        48.1180   21.5880   23.0300 O.2    59  U59         0.0000
   1230  C5        50.0040   20.6770   21.9260 C.ar   59  U59         0.0000
   1231  C6        50.5130   20.3440   20.7370 C.ar   59  U59         0.0000
   1232  OP1       55.4140   20.3270   20.8420 O.3    59  U59        -0.5000
   1233  OP2       55.8820   18.2540   19.4470 O.co2  59  U59        -0.5000
   1234  P         53.2290   19.3840   14.5390 P.3    60  C60         0.0000
   1235  C5'       54.5600   21.4770   13.6860 C.3    60  C60         0.0000
   1236  O5'       54.4820   20.3660   14.5680 O.3    60  C60         0.0000
   1237  C4'       55.9070   21.4970   12.9990 C.3    60  C60         0.0000
   1238  O4'       56.9560   21.6190   14.0020 O.3    60  C60         0.0000
   1239  C3'       56.2810   20.2290   12.2380 C.3    60  C60         0.0000
   1240  O3'       55.7560   20.1970   10.9180 O.3    60  C60         0.0000
   1241  C2'       57.7930   20.3320   12.1900 C.3    60  C60         0.0000
   1242  O2'       58.2170   21.2280   11.1860 O.3    60  C60         0.0000
   1243  C1'       58.0940   20.8730   13.5910 C.3    60  C60         0.0000
   1244  N1        58.2880   19.7620   14.5340 N.ar   60  C60         0.0000
   1245  C2        59.4890   19.0550   14.4910 C.ar   60  C60         0.0000
   1246  O2        60.3580   19.4090   13.6860 O.2    60  C60         0.0000
   1247  N3        59.6710   18.0070   15.3210 N.ar   60  C60         0.0000
   1248  C4        58.7100   17.6640   16.1780 C.ar   60  C60         0.0000
   1249  N4        58.9320   16.6230   16.9790 N.pl3  60  C60         0.0000
   1250  C5        57.4760   18.3750   16.2520 C.ar   60  C60         0.0000
   1251  C6        57.3100   19.4100   15.4210 C.ar   60  C60         0.0000
   1252  OP1       52.6560   19.3940   13.1670 O.2    60  C60        -0.5000
   1253  OP2       53.6160   18.0890   15.1650 O.co2  60  C60        -0.5000
   1254  P         55.3860   18.7880   10.2530 P.3    61  G61         0.0000
   1255  C5'       57.8250   18.2070    9.5120 C.3    61  G61         0.0000
   1256  O5'       56.7320   17.9520   10.3790 O.3    61  G61         0.0000
   1257  C4'       58.8440   17.1110    9.6390 C.3    61  G61         0.0000
   1258  O4'       59.4200   17.1540   10.9700 O.3    61  G61         0.0000
   1259  C3'       58.3050   15.6960    9.5190 C.3    61  G61         0.0000
   1260  O3'       58.1670   15.3270    8.1460 O.3    61  G61         0.0000
   1261  C2'       59.3990   14.9010   10.2240 C.3    61  G61         0.0000
   1262  O2'       60.5310   14.6970    9.4040 O.3    61  G61         0.0000
   1263  C1'       59.7710   15.8430   11.3760 C.3    61  G61         0.0000
   1264  N1        59.3370   12.6700   15.3300 N.ar   61  G61         0.0000
   1265  C2        60.2630   12.6800   14.3150 C.ar   61  G61         0.0000
   1266  N2        61.1710   11.6980   14.3400 N.pl3  61  G61         0.0000
   1267  N3        60.2950   13.5840   13.3460 N.ar   61  G61         0.0000
   1268  C4        59.3080   14.4920   13.4700 C.ar   61  G61         0.0000
   1269  C5        58.3340   14.5760   14.4430 C.ar   61  G61         0.0000
   1270  C6        58.3100   13.5970   15.4810 C.ar   61  G61         0.0000
   1271  O6        57.5220   13.4960   16.4330 O.2    61  G61         0.0000
   1272  N7        57.5070   15.6670   14.2170 N.ar   61  G61         0.0000
   1273  C8        57.9800   16.2130   13.1290 C.ar   61  G61         0.0000
   1274  N9        59.0570   15.5380   12.6120 N.ar   61  G61         0.0000
   1275  OP1       55.1110   19.0190    8.8140 O.2    61  G61        -0.5000
   1276  OP2       54.3590   18.1240   11.0990 O.co2  61  G61        -0.5000
   1277  P         57.2140   14.0900    7.7290 P.3    62  G62         0.0000
   1278  C5'       59.2620   12.4740    7.7280 C.3    62  G62         0.0000
   1279  O5'       57.9950   12.8130    8.2620 O.3    62  G62         0.0000
   1280  C4'       59.8380   11.3070    8.4760 C.3    62  G62         0.0000
   1281  O4'       60.0870   11.6900    9.8510 O.3    62  G62         0.0000
   1282  C3'       58.9030   10.1280    8.6010 C.3    62  G62         0.0000
   1283  O3'       58.9380    9.3470    7.4230 O.3    62  G62         0.0000
   1284  C2'       59.4680    9.4040    9.8130 C.3    62  G62         0.0000
   1285  O2'       60.6120    8.6460    9.4960 O.3    62  G62         0.0000
   1286  C1'       59.8590   10.5820   10.7060 C.3    62  G62         0.0000
   1287  N1        57.2460    9.2740   14.8610 N.ar   62  G62         0.0000
   1288  C2        58.2920    8.6260   14.2620 C.ar   62  G62         0.0000
   1289  N2        58.6640    7.4780   14.8360 N.pl3  62  G62         0.0000
   1290  N3        58.9190    9.0730   13.1830 N.ar   62  G62         0.0000
   1291  C4        58.3970   10.2420   12.7480 C.ar   62  G62         0.0000
   1292  C5        57.3530   10.9690   13.2820 C.ar   62  G62         0.0000
   1293  C6        56.6960   10.4740   14.4330 C.ar   62  G62         0.0000
   1294  O6        55.7500   10.9640   15.0480 O.2    62  G62         0.0000
   1295  N7        57.1270   12.1220   12.5440 N.ar   62  G62         0.0000
   1296  C8        58.0130   12.0730   11.5870 C.ar   62  G62         0.0000
   1297  N9        58.8070   10.9540   11.6440 N.ar   62  G62         0.0000
   1298  OP1       57.1770   14.0300    6.2420 O.2    62  G62        -0.5000
   1299  OP2       55.9440   14.1750    8.4860 O.co2  62  G62        -0.5000
   1300  P         57.5960    8.6400    6.9130 P.3    63  C63         0.0000
   1301  C5'       58.4220    6.3520    7.8720 C.3    63  C63         0.0000
   1302  O5'       57.4430    7.3790    7.8750 O.3    63  C63         0.0000
   1303  C4'       58.2670    5.4690    9.0820 C.3    63  C63         0.0000
   1304  O4'       58.4160    6.2670   10.2870 O.3    63  C63         0.0000
   1305  C3'       56.9060    4.8370    9.2830 C.3    63  C63         0.0000
   1306  O3'       56.6670    3.7340    8.4230 O.3    63  C63         0.0000
   1307  C2'       56.9520    4.4640   10.7620 C.3    63  C63         0.0000
   1308  O2'       57.7100    3.3110   11.0640 O.3    63  C63         0.0000
   1309  C1'       57.6440    5.6940   11.3400 C.3    63  C63         0.0000
   1310  N1        56.6490    6.6760   11.7830 N.ar   63  C63         0.0000
   1311  C2        55.9210    6.4020   12.9340 C.ar   63  C63         0.0000
   1312  O2        56.1760    5.3680   13.5620 O.2    63  C63         0.0000
   1313  N3        54.9610    7.2700   13.3320 N.ar   63  C63         0.0000
   1314  C4        54.7310    8.3790   12.6250 C.ar   63  C63         0.0000
   1315  N4        53.7670    9.1980   13.0420 N.pl3  63  C63         0.0000
   1316  C5        55.4780    8.6940   11.4560 C.ar   63  C63         0.0000
   1317  C6        56.4200    7.8250   11.0750 C.ar   63  C63         0.0000
   1318  OP1       57.8360    8.1590    5.5370 O.2    63  C63        -0.5000
   1319  OP2       56.4880    9.5830    7.1720 O.co2  63  C63        -0.5000
   1320  P         55.1660    3.4620    7.9110 P.3    64  G64         0.0000
   1321  C5'       54.8330    1.6740    9.7880 C.3    64  G64         0.0000
   1322  O5'       54.4250    2.8990    9.2070 O.3    64  G64         0.0000
   1323  C4'       54.0740    1.4260   11.0580 C.3    64  G64         0.0000
   1324  O4'       54.3520    2.5060   11.9810 O.3    64  G64         0.0000
   1325  C3'       52.5600    1.4550   10.9550 C.3    64  G64         0.0000
   1326  O3'       52.0160    0.2370   10.4840 O.3    64  G64         0.0000
   1327  C2'       52.1710    1.6960   12.4010 C.3    64  G64         0.0000
   1328  O2'       52.2950    0.5280   13.1910 O.3    64  G64         0.0000
   1329  C1'       53.2090    2.7430   12.7900 C.3    64  G64         0.0000
   1330  N1        50.2240    6.5700   14.2160 N.ar   64  G64         0.0000
   1331  C2        50.4600    5.3730   14.8390 C.ar   64  G64         0.0000
   1332  N2        49.8130    5.1690   16.0010 N.pl3  64  G64         0.0000
   1333  N3        51.2720    4.4420   14.3620 N.ar   64  G64         0.0000
   1334  C4        51.8320    4.8110   13.1960 C.ar   64  G64         0.0000
   1335  C5        51.6620    5.9790   12.4900 C.ar   64  G64         0.0000
   1336  C6        50.7910    6.9700   13.0100 C.ar   64  G64         0.0000
   1337  O6        50.5060    8.0760   12.5320 O.3    64  G64         0.0000
   1338  N7        52.4250    5.9690   11.3290 N.ar   64  G64         0.0000
   1339  C8        53.0320    4.8150   11.3540 C.ar   64  G64         0.0000
   1340  N9        52.7150    4.0670   12.4610 N.ar   64  G64         0.0000
   1341  OP1       55.1740    2.4010    6.8650 O.2    64  G64        -0.5000
   1342  OP2       54.5930    4.8010    7.5960 O.co2  64  G64        -0.5000
   1343  P         50.6060    0.2480    9.7070 P.3    65  G65         0.0000
   1344  C5'       49.3140   -0.0280   11.9620 C.3    65  G65         0.0000
   1345  O5'       49.5510    0.7450   10.7950 O.3    65  G65         0.0000
   1346  C4'       48.4570    0.7330   12.9430 C.3    65  G65         0.0000
   1347  O4'       49.0240    2.0500   13.1530 O.3    65  G65         0.0000
   1348  C3'       47.0320    1.0620   12.5330 C.3    65  G65         0.0000
   1349  O3'       46.1690   -0.0630   12.7020 O.3    65  G65         0.0000
   1350  C2'       46.6870    2.1550   13.5370 C.3    65  G65         0.0000
   1351  O2'       46.4000    1.6070   14.7990 O.3    65  G65         0.0000
   1352  C1'       48.0100    2.9140   13.6330 C.3    65  G65         0.0000
   1353  N1        46.2080    7.6400   13.2850 N.ar   65  G65         0.0000
   1354  C2        45.9870    6.6870   14.2500 C.ar   65  G65         0.0000
   1355  N2        45.1720    7.0420   15.2590 N.pl3  65  G65         0.0000
   1356  N3        46.5230    5.4760   14.2290 N.ar   65  G65         0.0000
   1357  C4        47.3130    5.2900   13.1490 C.ar   65  G65         0.0000
   1358  C5        47.6000    6.1730   12.1300 C.ar   65  G65         0.0000
   1359  C6        47.0160    7.4760   12.1670 C.ar   65  G65         0.0000
   1360  O6        47.1490    8.4110   11.3620 O.2    65  G65         0.0000
   1361  N7        48.4630    5.5920   11.2060 N.ar   65  G65         0.0000
   1362  C8        48.6810    4.3910   11.6740 C.ar   65  G65         0.0000
   1363  N9        48.0110    4.1420   12.8470 N.ar   65  G65         0.0000
   1364  OP1       50.2980   -1.1690    9.3890 O.3    65  G65        -0.5000
   1365  OP2       50.6670    1.2590    8.6130 O.co2  65  G65        -0.5000
   1366  P         44.7720   -0.1350   11.8930 P.3    66  G66         0.0000
   1367  C5'       43.3200    1.2960   13.5270 C.3    66  G66         0.0000
   1368  O5'       44.0130    1.2010   12.2980 O.3    66  G66         0.0000
   1369  C4'       42.6090    2.6190   13.6110 C.3    66  G66         0.0000
   1370  O4'       43.5870    3.6920   13.6230 O.3    66  G66         0.0000
   1371  C3'       41.7040    2.9600   12.4450 C.3    66  G66         0.0000
   1372  O3'       40.4450    2.3230   12.6220 O.3    66  G66         0.0000
   1373  C2'       41.6170    4.4700   12.5970 C.3    66  G66         0.0000
   1374  O2'       40.7970    4.8500   13.6850 O.3    66  G66         0.0000
   1375  C1'       43.0670    4.8130   12.9390 C.3    66  G66         0.0000
   1376  N1        44.3540    8.0110    9.2050 N.ar   66  G66         0.0000
   1377  C2        43.5270    8.2170   10.2850 C.ar   66  G66         0.0000
   1378  N2        42.9630    9.4240   10.3670 N.pl3  66  G66         0.0000
   1379  N3        43.2760    7.3070   11.2110 N.ar   66  G66         0.0000
   1380  C4        43.9340    6.1520   10.9730 C.ar   66  G66         0.0000
   1381  C5        44.7870    5.8440    9.9300 C.ar   66  G66         0.0000
   1382  C6        45.0450    6.8340    8.9390 C.ar   66  G66         0.0000
   1383  O6        45.7700    6.7600    7.9370 O.2    66  G66         0.0000
   1384  N7        45.2660    4.5480   10.0530 N.ar   66  G66         0.0000
   1385  C8        44.7050    4.0980   11.1430 C.ar   66  G66         0.0000
   1386  N9        43.8740    5.0150   11.7420 N.ar   66  G66         0.0000
   1387  OP1       44.0010   -1.2820   12.4350 O.3    66  G66        -0.5000
   1388  OP2       45.0270   -0.0400   10.4290 O.co2  66  G66        -0.5000
   1389  P         39.5140    1.9810   11.3470 P.3    67  U67         0.0000
   1390  C5'       37.0560    2.8620   10.9000 C.3    67  U67         0.0000
   1391  O5'       38.3710    3.0990   11.4100 O.3    67  U67         0.0000
   1392  C4'       36.0690    3.8020   11.5550 C.3    67  U67         0.0000
   1393  O4'       36.1450    3.5920   12.9720 O.3    67  U67         0.0000
   1394  C3'       36.3940    5.2710   11.3560 C.3    67  U67         0.0000
   1395  O3'       35.6470    5.8510   10.2700 O.3    67  U67         0.0000
   1396  C2'       35.9490    5.9510   12.6520 C.3    67  U67         0.0000
   1397  O2'       34.6750    6.5040   12.5590 O.3    67  U67         0.0000
   1398  C1'       35.8590    4.7950   13.6380 C.3    67  U67         0.0000
   1399  N1        36.6850    4.8660   14.8410 N.ar   67  U67         0.0000
   1400  C2        36.0600    5.2530   16.0040 C.ar   67  U67         0.0000
   1401  O2        34.8970    5.6180   16.0420 O.2    67  U67         0.0000
   1402  N3        36.8410    5.1960   17.1220 N.ar   67  U67         0.0000
   1403  C4        38.1640    4.8160   17.1830 C.ar   67  U67         0.0000
   1404  O4        38.7300    4.7800   18.2770 O.2    67  U67         0.0000
   1405  C5        38.7490    4.4730   15.9200 C.ar   67  U67         0.0000
   1406  C6        38.0040    4.5170   14.8200 C.ar   67  U67         0.0000
   1407  OP1       38.8900    0.6640   11.6040 O.3    67  U67        -0.5000
   1408  OP2       40.2920    2.1830   10.1040 O.co2  67  U67        -0.5000
   1409  P         34.2540    5.1860    9.7450 P.3    68  G68         0.0000
   1410  C5'       33.7230    7.6320    9.0100 C.3    68  G68         0.0000
   1411  O5'       33.7920    6.2540    8.6630 O.3    68  G68         0.0000
   1412  C4'       34.7360    8.4280    8.2210 C.3    68  G68         0.0000
   1413  O4'       36.0860    8.0740    8.6150 O.3    68  G68         0.0000
   1414  C3'       34.7290    8.1840    6.7250 C.3    68  G68         0.0000
   1415  O3'       33.6770    8.8950    6.0980 O.3    68  G68         0.0000
   1416  C2'       36.1110    8.6720    6.3050 C.3    68  G68         0.0000
   1417  O2'       36.1670   10.0750    6.1470 O.3    68  G68         0.0000
   1418  C1'       36.9610    8.2240    7.5000 C.3    68  G68         0.0000
   1419  N1        40.3120    5.5580    4.7090 N.ar   68  G68         0.0000
   1420  C2        39.8670    6.8480    4.5350 C.ar   68  G68         0.0000
   1421  N2        40.3760    7.4960    3.4810 N.pl3  68  G68         0.0000
   1422  N3        38.9870    7.4510    5.3310 N.ar   68  G68         0.0000
   1423  C4        38.5730    6.6410    6.3260 C.ar   68  G68         0.0000
   1424  C5        38.9520    5.3380    6.5870 C.ar   68  G68         0.0000
   1425  C6        39.9030    4.7060    5.7280 C.ar   68  G68         0.0000
   1426  O6        40.3670    3.5500    5.7950 O.2    68  G68         0.0000
   1427  N7        38.2900    4.8490    7.7020 N.ar   68  G68         0.0000
   1428  C8        37.5340    5.8380    8.0900 C.ar   68  G68         0.0000
   1429  N9        37.6590    6.9560    7.3060 N.ar   68  G68         0.0000
   1430  OP1       33.2420    5.2340   10.8250 O.3    68  G68        -0.5000
   1431  OP2       34.5040    3.9000    9.0430 O.co2  68  G68        -0.5000
   1432  P         32.7840    8.1540    4.9960 P.3    69  C69         0.0000
   1433  C5'       34.1520    9.2170    3.0370 C.3    69  C69         0.0000
   1434  O5'       33.7810    8.0460    3.7580 O.3    69  C69         0.0000
   1435  C4'       35.1780    8.8900    1.9830 C.3    69  C69         0.0000
   1436  O4'       36.4080    8.4920    2.6290 O.3    69  C69         0.0000
   1437  C3'       34.8400    7.7250    1.0750 C.3    69  C69         0.0000
   1438  O3'       34.0340    8.1350   -0.0060 O.3    69  C69         0.0000
   1439  C2'       36.2110    7.2840    0.6020 C.3    69  C69         0.0000
   1440  O2'       36.7110    8.1270   -0.4100 O.3    69  C69         0.0000
   1441  C1'       37.0260    7.4600    1.8810 C.3    69  C69         0.0000
   1442  N1        37.0450    6.2550    2.7190 N.ar   69  C69         0.0000
   1443  C2        37.8990    5.2180    2.3710 C.ar   69  C69         0.0000
   1444  O2        38.5910    5.3380    1.3510 O.2    69  C69         0.0000
   1445  N3        37.9510    4.1130    3.1530 N.ar   69  C69         0.0000
   1446  C4        37.1840    4.0300    4.2430 C.ar   69  C69         0.0000
   1447  N4        37.2800    2.9310    4.9940 N.pl3  69  C69         0.0000
   1448  C5        36.2880    5.0740    4.6120 C.ar   69  C69         0.0000
   1449  C6        36.2490    6.1570    3.8280 C.ar   69  C69         0.0000
   1450  OP1       31.6670    9.0610    4.6340 O.2    69  C69        -0.5000
   1451  OP2       32.4820    6.7930    5.5050 O.co2  69  C69        -0.5000
   1452  P         32.9050    7.1410   -0.5580 P.3    70  C70         0.0000
   1453  C5'       34.4500    6.4080   -2.5450 C.3    70  C70         0.0000
   1454  O5'       33.7340    6.0500   -1.3710 O.3    70  C70         0.0000
   1455  C4'       35.2340    5.2270   -3.0520 C.3    70  C70         0.0000
   1456  O4'       36.2410    4.8550   -2.0790 O.3    70  C70         0.0000
   1457  C3'       34.4430    3.9470   -3.2130 C.3    70  C70         0.0000
   1458  O3'       33.7040    3.9520   -4.4180 O.3    70  C70         0.0000
   1459  C2'       35.5460    2.9000   -3.2220 C.3    70  C70         0.0000
   1460  O2'       36.2430    2.8290   -4.4440 O.3    70  C70         0.0000
   1461  C1'       36.4830    3.4590   -2.1600 C.3    70  C70         0.0000
   1462  N1        36.2310    2.8560   -0.8500 N.ar   70  C70         0.0000
   1463  C2        36.7240    1.5780   -0.6110 C.ar   70  C70         0.0000
   1464  O2        37.3460    1.0110   -1.5110 O.2    70  C70         0.0000
   1465  N3        36.5110    0.9960    0.5910 N.ar   70  C70         0.0000
   1466  C4        35.8320    1.6530    1.5340 C.ar   70  C70         0.0000
   1467  N4        35.6500    1.0490    2.7080 N.pl3  70  C70         0.0000
   1468  C5        35.3110    2.9630    1.3130 C.ar   70  C70         0.0000
   1469  C6        35.5310    3.5210    0.1170 C.ar   70  C70         0.0000
   1470  OP1       32.0430    7.9030   -1.5020 O.2    70  C70        -0.5000
   1471  OP2       32.2870    6.4610    0.6140 O.co2  70  C70        -0.5000
   1472  P         32.3290    3.1350   -4.5000 P.3    71  C71         0.0000
   1473  C5'       33.3780    1.1550   -5.8660 C.3    71  C71         0.0000
   1474  O5'       32.7910    1.6190   -4.6570 O.3    71  C71         0.0000
   1475  C4'       33.8040   -0.2850   -5.7170 C.3    71  C71         0.0000
   1476  O4'       34.8150   -0.3770   -4.6740 O.3    71  C71         0.0000
   1477  C3'       32.7360   -1.2410   -5.2280 C.3    71  C71         0.0000
   1478  O3'       31.8450   -1.6520   -6.2470 O.3    71  C71         0.0000
   1479  C2'       33.5690   -2.3860   -4.6780 C.3    71  C71         0.0000
   1480  O2'       34.1070   -3.2210   -5.6820 O.3    71  C71         0.0000
   1481  C1'       34.6870   -1.6130   -3.9840 C.3    71  C71         0.0000
   1482  N1        34.3680   -1.3220   -2.5760 N.ar   71  C71         0.0000
   1483  C2        34.5720   -2.3250   -1.6110 C.ar   71  C71         0.0000
   1484  O2        35.0170   -3.4250   -1.9720 O.2    71  C71         0.0000
   1485  N3        34.2750   -2.0660   -0.3130 N.ar   71  C71         0.0000
   1486  C4        33.7950   -0.8680    0.0340 C.ar   71  C71         0.0000
   1487  N4        33.5170   -0.6570    1.3200 N.pl3  71  C71         0.0000
   1488  C5        33.5800    0.1670   -0.9270 C.ar   71  C71         0.0000
   1489  C6        33.8770   -0.1010   -2.2070 C.ar   71  C71         0.0000
   1490  OP1       31.6570    3.5760   -5.7440 O.2    71  C71        -0.5000
   1491  OP2       31.6340    3.2870   -3.2030 O.co2  71  C71        -0.5000
   1492  P         30.2900   -1.8520   -5.8850 P.3    72  U72         0.0000
   1493  C5'       30.6100   -4.4340   -5.7500 C.3    72  U72         0.0000
   1494  O5'       30.2650   -3.2280   -5.0830 O.3    72  U72         0.0000
   1495  C4'       30.8910   -5.5320   -4.7590 C.3    72  U72         0.0000
   1496  O4'       31.9320   -5.1000   -3.8470 O.3    72  U72         0.0000
   1497  C3'       29.7580   -5.9180   -3.8270 C.3    72  U72         0.0000
   1498  O3'       28.8350   -6.7910   -4.4630 O.3    72  U72         0.0000
   1499  C2'       30.5310   -6.6320   -2.7340 C.3    72  U72         0.0000
   1500  O2'       31.0120   -7.8870   -3.1770 O.3    72  U72         0.0000
   1501  C1'       31.7140   -5.6820   -2.5700 C.3    72  U72         0.0000
   1502  N1        31.4260   -4.6030   -1.6150 N.ar   72  U72         0.0000
   1503  C2        31.5070   -4.8960   -0.2610 C.ar   72  U72         0.0000
   1504  O2        31.8030   -6.0020    0.1670 O.2    72  U72         0.0000
   1505  N3        31.2280   -3.8440    0.5740 N.ar   72  U72         0.0000
   1506  C4        30.8840   -2.5610    0.2070 C.ar   72  U72         0.0000
   1507  O4        30.6780   -1.7180    1.0810 O.2    72  U72         0.0000
   1508  C5        30.8160   -2.3390   -1.2060 C.ar   72  U72         0.0000
   1509  C6        31.0840   -3.3440   -2.0470 C.ar   72  U72         0.0000
   1510  OP1       29.5130   -2.0820   -7.1360 O.2    72  U72        -0.5000
   1511  OP2       29.9380   -0.7060   -4.9890 O.co2  72  U72        -0.5000
   1512  P         27.2670   -6.6940   -4.1060 P.3    73  G73         0.0000
   1513  C5'       27.5080   -8.8820   -2.6860 C.3    73  G73         0.0000
   1514  O5'       27.1210   -7.5160   -2.7480 O.3    73  G73         0.0000
   1515  C4'       27.5780   -9.3330   -1.2540 C.3    73  G73         0.0000
   1516  O4'       28.6060   -8.5790   -0.5640 O.3    73  G73         0.0000
   1517  C3'       26.3330   -9.0570   -0.4400 C.3    73  G73         0.0000
   1518  O3'       25.3680  -10.0710   -0.6540 O.3    73  G73         0.0000
   1519  C2'       26.8770   -9.0680    0.9800 C.3    73  G73         0.0000
   1520  O2'       27.0940  -10.3740    1.4610 O.3    73  G73         0.0000
   1521  C1'       28.2230   -8.3730    0.7830 C.3    73  G73         0.0000
   1522  N1        28.2240   -4.7420    4.3000 N.ar   73  G73         0.0000
   1523  C2        28.2590   -6.1070    4.4510 C.ar   73  G73         0.0000
   1524  N2        28.3150   -6.5650    5.7120 N.pl3  73  G73         0.0000
   1525  N3        28.2420   -6.9580    3.4440 N.ar   73  G73         0.0000
   1526  C4        28.1910   -6.3270    2.2540 C.ar   73  G73         0.0000
   1527  C5        28.1530   -4.9700    1.9930 C.ar   73  G73         0.0000
   1528  C6        28.1680   -4.0680    3.0830 C.ar   73  G73         0.0000
   1529  O6        28.1360   -2.8330    3.0630 O.2    73  G73         0.0000
   1530  N7        28.1020   -4.7300    0.6230 N.ar   73  G73         0.0000
   1531  C8        28.1160   -5.9230    0.0890 C.ar   73  G73         0.0000
   1532  N9        28.1750   -6.9360    1.0250 N.ar   73  G73         0.0000
   1533  OP1       26.5260   -7.4170   -5.1700 O.2    73  G73        -0.5000
   1534  OP2       26.9510   -5.2700   -3.8270 O.co2  73  G73        -0.5000
   1535  P         23.8110   -9.6870   -0.6730 P.3    74  C74         0.0000
   1536  C5'       23.6930  -10.4150    1.8430 C.3    74  C74         0.0000
   1537  O5'       23.4660   -9.4110    0.8600 O.3    74  C74         0.0000
   1538  C4'       23.6800   -9.8140    3.2260 C.3    74  C74         0.0000
   1539  O4'       24.8610   -8.9910    3.4350 O.3    74  C74         0.0000
   1540  C3'       22.5420   -8.8640    3.5390 C.3    74  C74         0.0000
   1541  O3'       21.3450   -9.5640    3.8370 O.3    74  C74         0.0000
   1542  C2'       23.0960   -8.1480    4.7620 C.3    74  C74         0.0000
   1543  O2'       23.0450   -8.9650    5.9180 O.3    74  C74         0.0000
   1544  C1'       24.5520   -7.9380    4.3380 C.3    74  C74         0.0000
   1545  N1        24.7270   -6.6570    3.6370 N.ar   74  C74         0.0000
   1546  C2        24.7630   -5.4800    4.3890 C.ar   74  C74         0.0000
   1547  O2        24.6910   -5.5570    5.6160 O.2    74  C74         0.0000
   1548  N3        24.8750   -4.2910    3.7600 N.ar   74  C74         0.0000
   1549  C4        24.9600   -4.2500    2.4310 C.ar   74  C74         0.0000
   1550  N4        25.0640   -3.0550    1.8540 N.pl3  74  C74         0.0000
   1551  C5        24.9420   -5.4370    1.6370 C.ar   74  C74         0.0000
   1552  C6        24.8290   -6.6070    2.2760 C.ar   74  C74         0.0000
   1553  OP1       23.0820  -10.8920   -1.1360 O.3    74  C74        -0.5000
   1554  OP2       23.6640   -8.4050   -1.4110 O.co2  74  C74        -0.5000
   1555  P         19.9290   -8.9470    3.3850 P.3    75  G75         0.0000
   1556  C5'       19.5030   -7.9590    5.7770 C.3    75  G75         0.0000
   1557  O5'       19.6910   -7.7300    4.3850 O.3    75  G75         0.0000
   1558  C4'       19.5910   -6.6590    6.5430 C.3    75  G75         0.0000
   1559  O4'       20.9320   -6.1040    6.4280 O.3    75  G75         0.0000
   1560  C3'       18.7050   -5.5240    6.0630 C.3    75  G75         0.0000
   1561  O3'       17.3750   -5.6620    6.5310 O.3    75  G75         0.0000
   1562  C2'       19.3980   -4.3280    6.6940 C.3    75  G75         0.0000
   1563  O2'       19.1780   -4.2760    8.0830 O.3    75  G75         0.0000
   1564  C1'       20.8610   -4.6840    6.4440 C.3    75  G75         0.0000
   1565  N1        22.1920   -0.5820    3.7880 N.ar   75  G75         0.0000
   1566  C2        21.8730   -0.6990    5.1160 C.ar   75  G75         0.0000
   1567  N2        21.8940    0.4330    5.8260 N.pl3  75  G75         0.0000
   1568  N3        21.5590   -1.8400    5.7040 N.ar   75  G75         0.0000
   1569  C4        21.5870   -2.8760    4.8420 C.ar   75  G75         0.0000
   1570  C5        21.8930   -2.8710    3.4990 C.ar   75  G75         0.0000
   1571  C6        22.2320   -1.6320    2.8790 C.ar   75  G75         0.0000
   1572  O6        22.5380   -1.4120    1.6990 O.2    75  G75         0.0000
   1573  N7        21.8070   -4.1540    2.9690 N.ar   75  G75         0.0000
   1574  C8        21.4560   -4.8980    3.9820 C.ar   75  G75         0.0000
   1575  N9        21.2930   -4.1820    5.1440 N.ar   75  G75         0.0000
   1576  OP1       18.8900   -9.9870    3.6370 O.3    75  G75        -0.5000
   1577  OP2       20.1000   -8.3890    2.0150 O.co2  75  G75        -0.5000
   1578  P         16.1540   -5.0950    5.6440 P.3    76  G76         0.0000
   1579  C5'       15.8580   -3.0460    7.2520 C.3    76  G76         0.0000
   1580  O5'       16.1240   -3.5270    5.9430 O.3    76  G76         0.0000
   1581  C4'       16.0850   -1.5600    7.3140 C.3    76  G76         0.0000
   1582  O4'       17.4690   -1.2790    6.9880 O.3    76  G76         0.0000
   1583  C3'       15.3040   -0.7410    6.3050 C.3    76  G76         0.0000
   1584  O3'       13.9810   -0.4940    6.7680 O.3    76  G76         0.0000
   1585  C2'       16.1380    0.5350    6.2140 C.3    76  G76         0.0000
   1586  O2'       15.9040    1.4670    7.2520 O.3    76  G76         0.0000
   1587  C1'       17.5560   -0.0270    6.3290 C.3    76  G76         0.0000
   1588  N1        19.7940    2.2010    2.3660 N.ar   76  G76         0.0000
   1589  C2        19.2530    2.7660    3.4930 C.ar   76  G76         0.0000
   1590  N2        19.3270    4.0990    3.5790 N.pl3  76  G76         0.0000
   1591  N3        18.6820    2.0730    4.4630 N.ar   76  G76         0.0000
   1592  C4        18.6930    0.7460    4.2110 C.ar   76  G76         0.0000
   1593  C5        19.2040    0.0800    3.1170 C.ar   76  G76         0.0000
   1594  C6        19.8170    0.8370    2.0820 C.ar   76  G76         0.0000
   1595  O6        20.3330    0.4340    1.0290 O.2    76  G76         0.0000
   1596  N7        19.0150   -1.2910    3.2420 N.ar   76  G76         0.0000
   1597  C8        18.4080   -1.4290    4.3910 C.ar   76  G76         0.0000
   1598  N9        18.1880   -0.2330    5.0320 N.ar   76  G76         0.0000
   1599  OP1       14.9140   -5.6930    6.1990 O.3    76  G76        -0.5000
   1600  OP2       16.4820   -5.2860    4.2050 O.co2  76  G76        -0.5000
   1601  P         12.7610   -0.4470    5.7170 P.3    77  U77         0.0000
   1602  C5'       12.7420    2.1480    6.0440 C.3    77  U77         0.0000
   1603  O5'       12.7930    1.0420    5.1570 O.3    77  U77         0.0000
   1604  C4'       13.2840    3.3810    5.3700 C.3    77  U77         0.0000
   1605  O4'       14.6940    3.2060    5.0650 O.3    77  U77         0.0000
   1606  C3'       12.6650    3.7100    4.0260 C.3    77  U77         0.0000
   1607  O3'       11.4330    4.3900    4.1910 O.3    77  U77         0.0000
   1608  C2'       13.7290    4.6020    3.3950 C.3    77  U77         0.0000
   1609  O2'       13.6620    5.9470    3.8290 O.3    77  U77         0.0000
   1610  C1'       15.0170    3.9300    3.8830 C.3    77  U77         0.0000
   1611  N1        15.5800    2.9940    2.8970 N.ar   77  U77         0.0000
   1612  C2        16.3140    3.5280    1.8590 C.ar   77  U77         0.0000
   1613  O2        16.5180    4.7240    1.7450 O.2    77  U77         0.0000
   1614  N3        16.8040    2.6100    0.9630 N.ar   77  U77         0.0000
   1615  C4        16.6400    1.2370    1.0030 C.ar   77  U77         0.0000
   1616  O4        17.1340    0.5400    0.1140 O.2    77  U77         0.0000
   1617  C5        15.8740    0.7630    2.1110 C.ar   77  U77         0.0000
   1618  C6        15.3810    1.6360    2.9970 C.ar   77  U77         0.0000
   1619  OP1       11.4970   -0.6190    6.4760 O.3    77  U77        -0.5000
   1620  OP2       13.0900   -1.3850    4.6060 O.co2  77  U77        -0.5000
   1621  P         10.2060    4.0600    3.2130 P.3    78  C78         0.0000
   1622  C5'       10.6740    6.1880    1.7580 C.3    78  C78         0.0000
   1623  O5'       10.6060    4.7700    1.8380 O.3    78  C78         0.0000
   1624  C4'       11.4810    6.6230    0.5570 C.3    78  C78         0.0000
   1625  O4'       12.8000    6.0190    0.5930 O.3    78  C78         0.0000
   1626  C3'       10.9670    6.2340   -0.8190 C.3    78  C78         0.0000
   1627  O3'        9.9110    7.0980   -1.2330 O.3    78  C78         0.0000
   1628  C2'       12.2200    6.4200   -1.6830 C.3    78  C78         0.0000
   1629  O2'       12.4840    7.7450   -2.1040 O.3    78  C78         0.0000
   1630  C1'       13.3270    5.9760   -0.7250 C.3    78  C78         0.0000
   1631  N1        13.8130    4.6200   -1.0200 N.ar   78  C78         0.0000
   1632  C2        14.5990    4.4300   -2.1620 C.ar   78  C78         0.0000
   1633  O2        14.8500    5.4070   -2.8830 O.2    78  C78         0.0000
   1634  N3        15.0630    3.1970   -2.4520 N.ar   78  C78         0.0000
   1635  C4        14.7690    2.1770   -1.6540 C.ar   78  C78         0.0000
   1636  N4        15.2520    0.9830   -1.9740 N.pl3  78  C78         0.0000
   1637  C5        13.9660    2.3370   -0.4860 C.ar   78  C78         0.0000
   1638  C6        13.5140    3.5650   -0.2090 C.ar   78  C78         0.0000
   1639  OP1        9.0150    4.7660    3.7550 O.3    78  C78        -0.5000
   1640  OP2       10.1700    2.5800    3.0350 O.co2  78  C78        -0.5000
   1641  P          8.8870    6.6270   -2.3830 P.3    79  U79         0.0000
   1642  C5'        7.4260    5.5390   -0.4970 C.3    79  U79         0.0000
   1643  O5'        8.0920    5.4050   -1.7430 O.3    79  U79         0.0000
   1644  C4'        6.0610    4.8940   -0.5570 C.3    79  U79         0.0000
   1645  O4'        5.8110    4.4230   -1.9110 O.3    79  U79         0.0000
   1646  C3'        6.0130    3.6520    0.3260 C.3    79  U79         0.0000
   1647  O3'        4.9430    3.6380    1.2740 O.3    79  U79         0.0000
   1648  C2'        6.2300    2.4550   -0.5990 C.3    79  U79         0.0000
   1649  O2'        5.3820    1.3760   -0.3050 O.3    79  U79         0.0000
   1650  C1'        5.7580    3.0160   -1.9350 C.3    79  U79         0.0000
   1651  N1         6.3070    2.4920   -3.1940 N.pl3  79  U79         0.0000
   1652  C2         6.4160    1.1210   -3.3160 C.3    79  U79         0.0000
   1653  O2         6.1400    0.3590   -2.4160 O.3    79  U79         0.0000
   1654  N3         6.8640    0.6740   -4.5360 N.am   79  U79         0.0000
   1655  C4         7.2190    1.4440   -5.6250 C.2    79  U79         0.0000
   1656  O4         7.5960    0.8880   -6.6590 O.2    79  U79         0.0000
   1657  C5         7.1010    2.8620   -5.4190 C.2    79  U79         0.0000
   1658  C6         6.6630    3.3260   -4.2360 C.2    79  U79         0.0000
   1659  OP1        9.6610    6.0880   -3.5340 O.2    79  U79        -0.5000
   1660  OP2        7.9460    7.7660   -2.5920 O.co2  79  U79        -0.5000
   1661  P          4.9100    2.5320    2.4460 P.3    80  U80         0.0000
   1662  C5'        2.7960    1.7260    3.7620 C.3    80  U80         0.0000
   1663  O5'        3.3700    2.1350    2.5290 O.3    80  U80         0.0000
   1664  C4'        2.5130    0.2450    3.7410 C.3    80  U80         0.0000
   1665  O4'        1.4250   -0.0310    2.8280 O.3    80  U80         0.0000
   1666  C3'        3.6270   -0.6370    3.2130 C.3    80  U80         0.0000
   1667  O3'        4.6200   -0.8740    4.2010 O.3    80  U80         0.0000
   1668  C2'        2.8690   -1.9110    2.8700 C.3    80  U80         0.0000
   1669  O2'        2.5850   -2.6700    4.0240 O.3    80  U80         0.0000
   1670  C1'        1.5580   -1.3480    2.3260 C.3    80  U80         0.0000
   1671  N1         1.4780   -1.3110    0.8580 N.ar   80  U80         0.0000
   1672  C2         1.1540   -2.4930    0.2140 C.ar   80  U80         0.0000
   1673  O2         0.9550   -3.5370    0.8100 O.2    80  U80         0.0000
   1674  N3         1.0700   -2.4050   -1.1530 N.ar   80  U80         0.0000
   1675  C4         1.2690   -1.2830   -1.9250 C.ar   80  U80         0.0000
   1676  O4         1.1290   -1.3620   -3.1430 O.2    80  U80         0.0000
   1677  C5         1.6120   -0.1000   -1.1890 C.ar   80  U80         0.0000
   1678  C6         1.7050   -0.1540    0.1450 C.ar   80  U80         0.0000
   1679  OP1        5.2760    3.1770    3.7280 O.3    80  U80        -0.5000
   1680  OP2        5.6760    1.3450    1.9960 O.co2  80  U80        -0.5000
   1681  P          6.0760   -1.4020    3.7580 P.3    81  C81         0.0000
   1682  C5'        5.4160   -3.9300    3.9500 C.3    81  C81         0.0000
   1683  O5'        5.8050   -2.8410    3.1290 O.3    81  C81         0.0000
   1684  C4'        5.1540   -5.1470    3.1020 C.3    81  C81         0.0000
   1685  O4'        4.0910   -4.8670    2.1540 O.3    81  C81         0.0000
   1686  C3'        6.3040   -5.5810    2.2160 C.3    81  C81         0.0000
   1687  O3'        7.2330   -6.3450    2.9720 O.3    81  C81         0.0000
   1688  C2'        5.5890   -6.4180    1.1590 C.3    81  C81         0.0000
   1689  O2'        5.2620   -7.7270    1.5870 O.3    81  C81         0.0000
   1690  C1'        4.2970   -5.6260    0.9740 C.3    81  C81         0.0000
   1691  N1         4.3030   -4.7110   -0.1810 N.ar   81  C81         0.0000
   1692  C2         4.2890   -5.2570   -1.4830 C.ar   81  C81         0.0000
   1693  O2         4.3260   -6.4930   -1.6200 O.2    81  C81         0.0000
   1694  N3         4.2400   -4.4220   -2.5510 N.ar   81  C81         0.0000
   1695  C4         4.2140   -3.0970   -2.3610 C.ar   81  C81         0.0000
   1696  N4         4.1470   -2.3130   -3.4390 N.pl3  81  C81         0.0000
   1697  C5         4.2520   -2.5180   -1.0530 C.ar   81  C81         0.0000
   1698  C6         4.2990   -3.3540   -0.0030 C.ar   81  C81         0.0000
   1699  OP1        6.9050   -1.6030    4.9760 O.3    81  C81        -0.5000
   1700  OP2        6.5590   -0.4960    2.6830 O.co2  81  C81        -0.5000
   1701  P          8.7550   -6.4600    2.4800 P.3    82  C82         0.0000
   1702  C5'        8.4610   -8.6670    1.1200 C.3    82  C82         0.0000
   1703  O5'        8.6480   -7.2600    1.1070 O.3    82  C82         0.0000
   1704  C4'        8.4900   -9.2210   -0.2800 C.3    82  C82         0.0000
   1705  O4'        7.3960   -8.6530   -1.0480 O.3    82  C82         0.0000
   1706  C3'        9.7010   -8.8970   -1.1390 C.3    82  C82         0.0000
   1707  O3'       10.8300   -9.7100   -0.8370 O.3    82  C82         0.0000
   1708  C2'        9.1620   -9.2180   -2.5230 C.3    82  C82         0.0000
   1709  O2'        9.0920  -10.6120   -2.7500 O.3    82  C82         0.0000
   1710  C1'        7.7450   -8.6570   -2.4190 C.3    82  C82         0.0000
   1711  N1         7.6360   -7.2910   -2.9330 N.ar   82  C82         0.0000
   1712  C2         7.7520   -7.0870   -4.3160 C.ar   82  C82         0.0000
   1713  O2         7.9980   -8.0620   -5.0480 O.2    82  C82         0.0000
   1714  N3         7.5930   -5.8400   -4.8190 N.ar   82  C82         0.0000
   1715  C4         7.3360   -4.8200   -3.9980 C.ar   82  C82         0.0000
   1716  N4         7.1600   -3.6100   -4.5440 N.pl3  82  C82         0.0000
   1717  C5         7.2440   -4.9960   -2.5800 C.ar   82  C82         0.0000
   1718  C6         7.4020   -6.2380   -2.0970 C.ar   82  C82         0.0000
   1719  OP1        9.4710   -7.3410    3.4470 O.3    82  C82        -0.5000
   1720  OP2        9.2590   -5.0790    2.2110 O.co2  82  C82        -0.5000
   1721  P         12.2930   -9.2530   -1.3370 P.3    83  U83         0.0000
   1722  C5'       12.4140  -10.5990   -3.5890 C.3    83  U83         0.0000
   1723  O5'       12.2160   -9.3540   -2.9260 O.3    83  U83         0.0000
   1724  C4'       12.5130  -10.3850   -5.0790 C.3    83  U83         0.0000
   1725  O4'       11.2840   -9.7720   -5.5530 O.3    83  U83         0.0000
   1726  C3'       13.5820   -9.4080   -5.5370 C.3    83  U83         0.0000
   1727  O3'       14.8670  -10.0140   -5.6070 O.3    83  U83         0.0000
   1728  C2'       13.0620   -9.0040   -6.9080 C.3    83  U83         0.0000
   1729  O2'       13.2500  -10.0040   -7.8920 O.3    83  U83         0.0000
   1730  C1'       11.5740   -8.8790   -6.6140 C.3    83  U83         0.0000
   1731  N1        11.2230   -7.5240   -6.1830 N.ar   83  U83         0.0000
   1732  C2        10.9530   -6.6050   -7.1740 C.ar   83  U83         0.0000
   1733  O2        11.0120   -6.8850   -8.3540 O.2    83  U83         0.0000
   1734  N3        10.6090   -5.3490   -6.7300 N.ar   83  U83         0.0000
   1735  C4        10.5130   -4.9320   -5.4110 C.ar   83  U83         0.0000
   1736  O4        10.1930   -3.7640   -5.1660 O.2    83  U83         0.0000
   1737  C5        10.8190   -5.9490   -4.4370 C.ar   83  U83         0.0000
   1738  C6        11.1590   -7.1810   -4.8500 C.ar   83  U83         0.0000
   1739  OP1       13.2820  -10.2530   -0.8700 O.3    83  U83        -0.5000
   1740  OP2       12.4790   -7.8190   -0.9880 O.co2  83  U83        -0.5000
   1741  P         16.1740   -9.0840   -5.6480 P.3    84  G84         0.0000
   1742  C5'       16.4110   -9.1520   -8.2660 C.3    84  G84         0.0000
   1743  O5'       16.1160   -8.4070   -7.0890 O.3    84  G84         0.0000
   1744  C4'       16.5060   -8.2250   -9.4490 C.3    84  G84         0.0000
   1745  O4'       15.1920   -7.6850   -9.7440 O.3    84  G84         0.0000
   1746  C3'       17.3820   -7.0090   -9.2130 C.3    84  G84         0.0000
   1747  O3'       18.7430   -7.3270   -9.4840 O.3    84  G84         0.0000
   1748  C2'       16.7880   -5.9890  -10.1790 C.3    84  G84         0.0000
   1749  O2'       17.2080   -6.1510  -11.5180 O.3    84  G84         0.0000
   1750  C1'       15.2950   -6.3090  -10.0740 C.3    84  G84         0.0000
   1751  N1        12.9020   -2.0050   -8.8070 N.ar   84  G84         0.0000
   1752  C2        13.3640   -2.4140  -10.0340 C.ar   84  G84         0.0000
   1753  N2        13.1870   -1.5560  -11.0390 N.pl3  84  G84         0.0000
   1754  N3        13.9570   -3.5750  -10.2550 N.ar   84  G84         0.0000
   1755  C4        14.0570   -4.3070   -9.1270 C.ar   84  G84         0.0000
   1756  C5        13.6280   -3.9900   -7.8510 C.ar   84  G84         0.0000
   1757  C6        12.9970   -2.7430   -7.6300 C.ar   84  G84         0.0000
   1758  O6        12.5590   -2.2780   -6.5660 O.2    84  G84         0.0000
   1759  N7        13.9210   -5.0150   -6.9610 N.ar   84  G84         0.0000
   1760  C8        14.5130   -5.9190   -7.6950 C.ar   84  G84         0.0000
   1761  N9        14.6410   -5.5470   -9.0160 N.ar   84  G84         0.0000
   1762  OP1       17.3600   -9.9690   -5.5570 O.2    84  G84        -0.5000
   1763  OP2       15.9880   -8.0060   -4.6510 O.co2  84  G84        -0.5000
   1764  P         19.9150   -6.4960   -8.7650 P.3    85  C85         0.0000
   1765  C5'       19.9930   -4.8820  -10.8190 C.3    85  C85         0.0000
   1766  O5'       19.7770   -5.0460   -9.4170 O.3    85  C85         0.0000
   1767  C4'       19.5960   -3.5040  -11.2770 C.3    85  C85         0.0000
   1768  O4'       18.1680   -3.3170  -11.1460 O.3    85  C85         0.0000
   1769  C3'       20.1780   -2.3530  -10.4900 C.3    85  C85         0.0000
   1770  O3'       21.4990   -2.0980  -10.9200 O.3    85  C85         0.0000
   1771  C2'       19.2370   -1.2190  -10.8670 C.3    85  C85         0.0000
   1772  O2'       19.5190   -0.6510  -12.1310 O.3    85  C85         0.0000
   1773  C1'       17.8930   -1.9480  -10.9000 C.3    85  C85         0.0000
   1774  N1        17.2120   -1.8260   -9.6040 N.ar   85  C85         0.0000
   1775  C2        16.4740   -0.6680   -9.3510 C.ar   85  C85         0.0000
   1776  O2        16.3830    0.1880  -10.2450 O.2    85  C85         0.0000
   1777  N3        15.8840   -0.5080   -8.1450 N.ar   85  C85         0.0000
   1778  C4        16.0090   -1.4540   -7.2150 C.ar   85  C85         0.0000
   1779  N4        15.4250   -1.2450   -6.0400 N.pl3  85  C85         0.0000
   1780  C5        16.7400   -2.6570   -7.4500 C.ar   85  C85         0.0000
   1781  C6        17.3160   -2.8020   -8.6500 C.ar   85  C85         0.0000
   1782  OP1       21.2200   -7.0720   -9.1860 O.2    85  C85        -0.5000
   1783  OP2       19.5810   -6.4330   -7.3270 O.co2  85  C85        -0.5000
   1784  P         22.5370   -1.3900   -9.9240 P.3    86  G86         0.0000
   1785  C5'       21.8170    1.0100  -10.6860 C.3    86  G86         0.0000
   1786  O5'       21.9050    0.0470   -9.6490 O.3    86  G86         0.0000
   1787  C4'       21.0470    2.2270  -10.2200 C.3    86  G86         0.0000
   1788  O4'       19.6780    1.8600   -9.9070 O.3    86  G86         0.0000
   1789  C3'       21.5060    2.9130   -8.9440 C.3    86  G86         0.0000
   1790  O3'       22.6330    3.7440   -9.1660 O.3    86  G86         0.0000
   1791  C2'       20.2800    3.7410   -8.5940 C.3    86  G86         0.0000
   1792  O2'       20.1410    4.8810   -9.4060 O.3    86  G86         0.0000
   1793  C1'       19.1610    2.7660   -8.9440 C.3    86  G86         0.0000
   1794  N1        16.7280    3.0510   -4.5280 N.ar   86  G86         0.0000
   1795  C2        16.9310    4.0210   -5.4840 C.ar   86  G86         0.0000
   1796  N2        16.4230    5.2400   -5.2220 N.pl3  86  G86         0.0000
   1797  N3        17.5850    3.8140   -6.6140 N.ar   86  G86         0.0000
   1798  C4        18.0290    2.5390   -6.7150 C.ar   86  G86         0.0000
   1799  C5        17.8830    1.5000   -5.8230 C.ar   86  G86         0.0000
   1800  C6        17.1840    1.7340   -4.6110 C.ar   86  G86         0.0000
   1801  O6        16.9630    0.9410   -3.6840 O.2    86  G86         0.0000
   1802  N7        18.4890    0.3460   -6.3060 N.ar   86  G86         0.0000
   1803  C8        18.9840    0.7010   -7.4610 C.ar   86  G86         0.0000
   1804  N9        18.7430    2.0210   -7.7640 N.ar   86  G86         0.0000
   1805  OP1       23.7950   -1.2550  -10.7100 O.2    86  G86        -0.5000
   1806  OP2       22.5470   -2.1370   -8.6400 O.co2  86  G86        -0.5000
   1807  P         23.6950    3.9690   -7.9840 P.3    87  A87         0.0000
   1808  C5'       22.6240    6.3210   -7.5710 C.3    87  A87         0.0000
   1809  O5'       22.9930    5.0490   -7.0530 O.3    87  A87         0.0000
   1810  C4'       21.8490    7.1010   -6.5400 C.3    87  A87         0.0000
   1811  O4'       20.5870    6.4320   -6.2790 O.3    87  A87         0.0000
   1812  C3'       22.4810    7.2020   -5.1630 C.3    87  A87         0.0000
   1813  O3'       23.4840    8.2120   -5.1110 O.3    87  A87         0.0000
   1814  C2'       21.2710    7.5370   -4.3020 C.3    87  A87         0.0000
   1815  O2'       20.8690    8.8900   -4.4570 O.3    87  A87         0.0000
   1816  C1'       20.2150    6.6230   -4.9230 C.3    87  A87         0.0000
   1817  N1        18.0820    3.8000   -1.1690 N.ar   87  A87         0.0000
   1818  C2        17.9860    5.0970   -1.4840 C.ar   87  A87         0.0000
   1819  N3        18.5770    5.7760   -2.4660 N.ar   87  A87         0.0000
   1820  C4        19.3620    4.9680   -3.1960 C.ar   87  A87         0.0000
   1821  C5        19.5650    3.6120   -2.9980 C.ar   87  A87         0.0000
   1822  C6        18.8800    3.0110   -1.9180 C.ar   87  A87         0.0000
   1823  N6        18.9760    1.7160   -1.5980 N.pl3  87  A87         0.0000
   1824  N7        20.4400    3.1040   -3.9510 N.ar   87  A87         0.0000
   1825  C8        20.7410    4.1460   -4.6900 C.ar   87  A87         0.0000
   1826  N9        20.1170    5.3050   -4.2960 N.ar   87  A87         0.0000
   1827  OP1       24.8980    4.5780   -8.5930 O.2    87  A87        -0.5000
   1828  OP2       23.8210    2.7010   -7.2200 O.co2  87  A87        -0.5000
   1829  P         24.7490    8.0180   -4.1380 P.3    88  C88         0.0000
   1830  C5'       23.5260    9.4420   -2.3400 C.3    88  C88         0.0000
   1831  O5'       24.1270    8.2130   -2.6900 O.3    88  C88         0.0000
   1832  C4'       22.8520    9.3220   -1.0070 C.3    88  C88         0.0000
   1833  O4'       21.7510    8.3840   -1.1040 O.3    88  C88         0.0000
   1834  C3'       23.7030    8.7370    0.1000 C.3    88  C88         0.0000
   1835  O3'       24.5840    9.7080    0.6500 O.3    88  C88         0.0000
   1836  C2'       22.6360    8.2950    1.0910 C.3    88  C88         0.0000
   1837  O2'       22.0900    9.3870    1.8060 O.3    88  C88         0.0000
   1838  C1'       21.5760    7.7330    0.1430 C.3    88  C88         0.0000
   1839  N1        21.7220    6.2910   -0.0650 N.ar   88  C88         0.0000
   1840  C2        21.0720    5.4180    0.8100 C.ar   88  C88         0.0000
   1841  O2        20.3850    5.8920    1.7230 O.2    88  C88         0.0000
   1842  N3        21.2070    4.0830    0.6390 N.ar   88  C88         0.0000
   1843  C4        21.9550    3.6130   -0.3600 C.ar   88  C88         0.0000
   1844  N4        22.0630    2.2900   -0.4900 N.pl3  88  C88         0.0000
   1845  C5        22.6270    4.4820   -1.2710 C.ar   88  C88         0.0000
   1846  C6        22.4830    5.8030   -1.0880 C.ar   88  C88         0.0000
   1847  OP1       25.7170    9.1210   -4.3690 O.2    88  C88        -0.5000
   1848  OP2       25.1930    6.5990   -4.2800 O.co2  88  C88        -0.5000
   1849  P         25.7410    9.2390    1.6540 P.3    89  C89         0.0000
   1850  C5'       25.4570    7.9600    3.9350 C.3    89  C89         0.0000
   1851  O5'       24.9370    8.8780    2.9780 O.3    89  C89         0.0000
   1852  C4'       24.3330    7.4100    4.7750 C.3    89  C89         0.0000
   1853  O4'       23.3750    6.7780    3.8900 O.3    89  C89         0.0000
   1854  C3'       24.7210    6.3420    5.7910 C.3    89  C89         0.0000
   1855  O3'       25.0640    6.9490    7.0400 O.3    89  C89         0.0000
   1856  C2'       23.4350    5.5290    5.9160 C.3    89  C89         0.0000
   1857  O2'       22.4960    6.1070    6.7990 O.3    89  C89         0.0000
   1858  C1'       22.8870    5.5950    4.4900 C.3    89  C89         0.0000
   1859  N1        23.2970    4.4640    3.6550 N.ar   89  C89         0.0000
   1860  C2        22.8150    3.1980    3.9630 C.ar   89  C89         0.0000
   1861  O2        22.0630    3.0690    4.9290 O.2    89  C89         0.0000
   1862  N3        23.1770    2.1450    3.2000 N.ar   89  C89         0.0000
   1863  C4        23.9900    2.3270    2.1620 C.ar   89  C89         0.0000
   1864  N4        24.3170    1.2620    1.4380 N.pl3  89  C89         0.0000
   1865  C5        24.5020    3.6130    1.8220 C.ar   89  C89         0.0000
   1866  C6        24.1330    4.6460    2.5900 C.ar   89  C89         0.0000
   1867  OP1       26.5860   10.4200    1.9280 O.3    89  C89        -0.5000
   1868  OP2       26.3580    7.9930    1.1180 O.co2  89  C89        -0.5000
   1869  P         26.0690    6.2060    8.0550 P.3    90  G90         0.0000
   1870  C5'       24.2020    4.9650    9.4620 C.3    90  G90         0.0000
   1871  O5'       25.2980    4.8870    8.5450 O.3    90  G90         0.0000
   1872  C4'       23.8200    3.5870    9.9730 C.3    90  G90         0.0000
   1873  O4'       23.5780    2.7150    8.8480 O.3    90  G90         0.0000
   1874  C3'       24.9470    2.9370   10.7720 C.3    90  G90         0.0000
   1875  O3'       24.5060    2.1720   11.9050 O.3    90  G90         0.0000
   1876  C2'       25.6700    2.0280    9.7890 C.3    90  G90         0.0000
   1877  O2'       26.0310    0.8180   10.4150 O.3    90  G90         0.0000
   1878  C1'       24.5590    1.7140    8.7960 C.3    90  G90         0.0000
   1879  N1        24.9840   -1.9580    5.3500 N.ar   90  G90         0.0000
   1880  C2        24.6410   -2.0400    6.6740 C.ar   90  G90         0.0000
   1881  N2        24.3620   -3.2610    7.1400 N.pl3  90  G90         0.0000
   1882  N3        24.5760   -0.9960    7.4800 N.ar   90  G90         0.0000
   1883  C4        24.8800    0.1550    6.8450 C.ar   90  G90         0.0000
   1884  C5        25.2310    0.3430    5.5300 C.ar   90  G90         0.0000
   1885  C6        25.3050   -0.7800    4.6780 C.ar   90  G90         0.0000
   1886  O6        25.6090   -0.8150    3.4830 O.2    90  G90         0.0000
   1887  N7        25.4640    1.6840    5.2690 N.ar   90  G90         0.0000
   1888  C8        25.2560    2.2770    6.4130 C.ar   90  G90         0.0000
   1889  N9        24.8920    1.4070    7.4090 N.ar   90  G90         0.0000
   1890  OP1       26.2180    7.1030    9.2260 O.3    90  G90        -0.5000
   1891  OP2       27.2710    5.8290    7.2590 O.co2  90  G90        -0.5000
   1892  P         23.9200    2.8870   13.2220 P.3    91  U91         0.0000
   1893  C5'       21.2900    2.5710   13.2140 C.3    91  U91         0.0000
   1894  O5'       22.5850    2.0640   13.5620 O.3    91  U91         0.0000
   1895  C4'       20.2010    1.5120   13.3840 C.3    91  U91         0.0000
   1896  O4'       20.3460    0.4660   12.3850 O.3    91  U91         0.0000
   1897  C3'       20.2610    0.8110   14.7400 C.3    91  U91         0.0000
   1898  O3'       18.9760    0.6760   15.3530 O.3    91  U91         0.0000
   1899  C2'       20.9950   -0.5070   14.4890 C.3    91  U91         0.0000
   1900  O2'       20.4490   -1.5820   15.2180 O.3    91  U91         0.0000
   1901  C1'       20.6920   -0.7500   13.0080 C.3    91  U91         0.0000
   1902  N1        21.6550   -1.4860   12.1800 N.ar   91  U91         0.0000
   1903  C2        21.4410   -2.8440   12.0360 C.ar   91  U91         0.0000
   1904  O2        20.5120   -3.4200   12.5680 O.2    91  U91         0.0000
   1905  N3        22.3510   -3.4990   11.2410 N.ar   91  U91         0.0000
   1906  C4        23.4360   -2.9420   10.5880 C.ar   91  U91         0.0000
   1907  O4        24.1640   -3.6600    9.8930 O.2    91  U91         0.0000
   1908  C5        23.5920   -1.5300   10.7920 C.ar   91  U91         0.0000
   1909  C6        22.7160   -0.8680   11.5630 C.ar   91  U91         0.0000
   1910  OP1       23.5970    4.3170   12.9370 O.2    91  U91        -0.5000
   1911  OP2       24.8920    2.5480   14.2840 O.co2  91  U91        -0.5000
   1912  P         18.5030    1.6950   16.5040 P.3    92  U92         0.0000
   1913  C5'       17.3440    3.4290   14.9280 C.3    92  U92         0.0000
   1914  O5'       18.4340    3.1240   15.7890 O.3    92  U92         0.0000
   1915  C4'       17.0080    4.9100   14.9380 C.3    92  U92         0.0000
   1916  O4'       16.9520    5.3950   16.3070 O.3    92  U92         0.0000
   1917  C3'       18.0640    5.7650   14.2480 C.3    92  U92         0.0000
   1918  O3'       17.5710    6.6240   13.2330 O.3    92  U92         0.0000
   1919  C2'       18.9270    6.3810   15.3430 C.3    92  U92         0.0000
   1920  O2'       19.1720    7.7540   15.1050 O.3    92  U92         0.0000
   1921  C1'       17.9940    6.3170   16.5470 C.3    92  U92         0.0000
   1922  N1        18.6380    6.0220   17.8270 N.ar   92  U92         0.0000
   1923  C2        18.8950    7.1000   18.6550 C.ar   92  U92         0.0000
   1924  O2        18.5860    8.2470   18.3620 O.2    92  U92         0.0000
   1925  N3        19.5230    6.7880   19.8350 N.ar   92  U92         0.0000
   1926  C4        19.9080    5.5310   20.2630 C.ar   92  U92         0.0000
   1927  O4        20.4670    5.4080   21.3560 O.2    92  U92         0.0000
   1928  C5        19.5980    4.4680   19.3490 C.ar   92  U92         0.0000
   1929  C6        18.9850    4.7450   18.1910 C.ar   92  U92         0.0000
   1930  OP1       19.5280    1.6910   17.5780 O.3    92  U92        -0.5000
   1931  OP2       17.1020    1.3320   16.8330 O.co2  92  U92        -0.5000
   1932  P         17.0540    6.0020   11.8540 P.3    93  A93         0.0000
   1933  C5'       19.4440    6.0620   10.7850 C.3    93  A93         0.0000
   1934  O5'       18.3330    5.2970   11.2260 O.3    93  A93         0.0000
   1935  C4'       20.1040    5.3740    9.6240 C.3    93  A93         0.0000
   1936  O4'       20.5200    4.0530   10.0480 O.3    93  A93         0.0000
   1937  C3'       19.2020    5.1300    8.4230 C.3    93  A93         0.0000
   1938  O3'       19.2460    6.2540    7.5470 O.3    93  A93         0.0000
   1939  C2'       19.8560    3.9230    7.7660 C.3    93  A93         0.0000
   1940  O2'       20.9490    4.2970    6.9600 O.3    93  A93         0.0000
   1941  C1'       20.3600    3.1390    8.9790 C.3    93  A93         0.0000
   1942  N1        19.5430   -1.9200    9.3450 N.ar   93  A93         0.0000
   1943  C2        20.5600   -1.2110    8.8490 C.ar   93  A93         0.0000
   1944  N3        20.7120    0.1070    8.7790 N.ar   93  A93         0.0000
   1945  C4        19.6470    0.7350    9.3080 C.ar   93  A93         0.0000
   1946  C5        18.5270    0.1430    9.8570 C.ar   93  A93         0.0000
   1947  C6        18.4880   -1.2600    9.8640 C.ar   93  A93         0.0000
   1948  N6        17.4700   -1.9690   10.3480 N.pl3  93  A93         0.0000
   1949  N7        17.6360    1.1060   10.3070 N.ar   93  A93         0.0000
   1950  C8        18.2270    2.2400   10.0250 C.ar   93  A93         0.0000
   1951  N9        19.4460    2.0900    9.4190 N.ar   93  A93         0.0000
   1952  OP1       16.6530    7.1250   10.9740 O.2    93  A93        -0.5000
   1953  OP2       16.0710    4.9480   12.1980 O.co2  93  A93        -0.5000
   1954  P         17.9020    6.7740    6.8490 P.3    94  G94         0.0000
   1955  C5'       19.1900    7.6370    4.7510 C.3    94  G94         0.0000
   1956  O5'       18.3810    7.9390    5.8720 O.3    94  G94         0.0000
   1957  C4'       19.7050    8.8980    4.0880 C.3    94  G94         0.0000
   1958  O4'       18.6500    9.5290    3.3150 O.3    94  G94         0.0000
   1959  C3'       20.1650    9.9480    5.1070 C.3    94  G94         0.0000
   1960  O3'       21.4650   10.4350    4.7680 O.3    94  G94         0.0000
   1961  C2'       19.0150   10.9510    5.2230 C.3    94  G94         0.0000
   1962  O2'       19.4000   12.3080    5.2470 O.3    94  G94         0.0000
   1963  C1'       18.3630   10.7850    3.8630 C.3    94  G94         0.0000
   1964  N1        15.2970   13.1740    0.6710 N.ar   94  G94         0.0000
   1965  C2        16.5960   12.7790    0.5070 C.ar   94  G94         0.0000
   1966  N2        17.1710   13.1150   -0.6540 N.pl3  94  G94         0.0000
   1967  N3        17.2810   12.1060    1.4100 N.ar   94  G94         0.0000
   1968  C4        16.5450   11.8480    2.5090 C.ar   94  G94         0.0000
   1969  C5        15.2390   12.1880    2.7700 C.ar   94  G94         0.0000
   1970  C6        14.5180   12.9200    1.7910 C.ar   94  G94         0.0000
   1971  O6        13.3500   13.3270    1.8330 O.2    94  G94         0.0000
   1972  N7        14.8500   11.7200    4.0210 N.ar   94  G94         0.0000
   1973  C8        15.9150   11.1270    4.4900 C.ar   94  G94         0.0000
   1974  N9        16.9880   11.2010    3.6350 N.ar   94  G94         0.0000
   1975  OP1       17.0530    7.3810    7.8960 O.3    94  G94        -0.5000
   1976  OP2       17.3840    5.6410    6.0380 O.co2  94  G94        -0.5000
   1977  P         22.2240   11.5090    5.6950 P.3    95  A95         0.0000
   1978  C5'       24.0190   11.8530    3.8140 C.3    95  A95         0.0000
   1979  O5'       22.9920   12.4100    4.6290 O.3    95  A95         0.0000
   1980  C4'       24.0580   12.5520    2.4840 C.3    95  A95         0.0000
   1981  O4'       22.8040   12.3090    1.8030 O.3    95  A95         0.0000
   1982  C3'       24.1500   14.0690    2.5500 C.3    95  A95         0.0000
   1983  O3'       25.4940   14.5220    2.6730 O.3    95  A95         0.0000
   1984  C2'       23.5680   14.4840    1.2090 C.3    95  A95         0.0000
   1985  O2'       24.5150   14.4100    0.1620 O.3    95  A95         0.0000
   1986  C1'       22.4650   13.4400    1.0220 C.3    95  A95         0.0000
   1987  N1        18.4440   16.3390   -0.2900 N.ar   95  A95         0.0000
   1988  C2        19.6030   16.0640   -0.9010 C.ar   95  A95         0.0000
   1989  N3        20.6110   15.2950   -0.4930 N.ar   95  A95         0.0000
   1990  C4        20.3460   14.7590    0.7110 C.ar   95  A95         0.0000
   1991  C5        19.2020   14.9440    1.4690 C.ar   95  A95         0.0000
   1992  C6        18.2020   15.7850    0.9200 C.ar   95  A95         0.0000
   1993  N6        17.0400   16.0580    1.5230 N.pl3  95  A95         0.0000
   1994  N7        19.2850   14.2330    2.6620 N.ar   95  A95         0.0000
   1995  C8        20.4570   13.6440    2.5960 C.ar   95  A95         0.0000
   1996  N9        21.1490   13.9180    1.4410 N.ar   95  A95         0.0000
   1997  OP1       23.2240   10.7260    6.4670 O.3    95  A95        -0.5000
   1998  OP2       21.2880   12.4080    6.4120 O.co2  95  A95        -0.5000
   1999  P         25.8100   15.8560    3.5150 P.3    96  G96         0.0000
   2000  C5'       25.2520   17.4610    1.4930 C.3    96  G96         0.0000
   2001  O5'       24.9410   16.9900    2.8060 O.3    96  G96         0.0000
   2002  C4'       24.1980   18.4470    1.0270 C.3    96  G96         0.0000
   2003  O4'       22.9310   17.7620    0.8100 O.3    96  G96         0.0000
   2004  C3'       23.8500   19.5430    2.0230 C.3    96  G96         0.0000
   2005  O3'       24.7530   20.6330    1.9530 O.3    96  G96         0.0000
   2006  C2'       22.4630   19.9550    1.5620 C.3    96  G96         0.0000
   2007  O2'       22.5230   20.7540    0.4010 O.3    96  G96         0.0000
   2008  C1'       21.8580   18.5960    1.2290 C.3    96  G96         0.0000
   2009  N1        17.9350   18.6270    4.4360 N.ar   96  G96         0.0000
   2010  C2        18.1450   19.3850    3.3160 C.ar   96  G96         0.0000
   2011  N2        17.1850   20.2710    3.0190 N.pl3  96  G96         0.0000
   2012  N3        19.2130   19.2840    2.5440 N.ar   96  G96         0.0000
   2013  C4        20.0650   18.3440    2.9920 C.ar   96  G96         0.0000
   2014  C5        19.9450   17.5320    4.0970 C.ar   96  G96         0.0000
   2015  C6        18.8010   17.6550    4.9150 C.ar   96  G96         0.0000
   2016  O6        18.5180   17.0280    5.9420 O.2    96  G96         0.0000
   2017  N7        21.0400   16.6880    4.2100 N.ar   96  G96         0.0000
   2018  C8        21.7920   17.0010    3.1910 C.ar   96  G96         0.0000
   2019  N9        21.2610   18.0010    2.4170 N.ar   96  G96         0.0000
   2020  OP1       27.2510   16.1700    3.3220 O.2    96  G96        -0.5000
   2021  OP2       25.2730   15.6720    4.8860 O.co2  96  G96        -0.5000
   2022  P         24.8750   21.6360    3.2000 P.3    97  G97         0.0000
   2023  C5'       23.1670   23.3210    2.1270 C.3    97  G97         0.0000
   2024  O5'       23.5010   22.4400    3.1950 O.3    97  G97         0.0000
   2025  C4'       21.8470   23.9930    2.4120 C.3    97  G97         0.0000
   2026  O4'       20.7920   22.9910    2.4550 O.3    97  G97         0.0000
   2027  C3'       21.7570   24.6550    3.7730 C.3    97  G97         0.0000
   2028  O3'       22.3850   25.9340    3.7770 O.3    97  G97         0.0000
   2029  C2'       20.2510   24.7160    3.9880 C.3    97  G97         0.0000
   2030  O2'       19.6190   25.7590    3.2820 O.3    97  G97         0.0000
   2031  C1'       19.8120   23.3740    3.4020 C.3    97  G97         0.0000
   2032  N1        17.0990   21.5600    7.2650 N.ar   97  G97         0.0000
   2033  C2        16.8140   22.5840    6.4020 C.ar   97  G97         0.0000
   2034  N2        15.6570   23.2270    6.6020 N.pl3  97  G97         0.0000
   2035  N3        17.6030   22.9540    5.4130 N.ar   97  G97         0.0000
   2036  C4        18.7210   22.2040    5.3500 C.ar   97  G97         0.0000
   2037  C5        19.1030   21.1600    6.1600 C.ar   97  G97         0.0000
   2038  C6        18.2440   20.7760    7.2240 C.ar   97  G97         0.0000
   2039  O6        18.4020   19.8810    8.0580 O.2    97  G97         0.0000
   2040  N7        20.3310   20.6510    5.7590 N.ar   97  G97         0.0000
   2041  C8        20.6680   21.3840    4.7310 C.ar   97  G97         0.0000
   2042  N9        19.7410   22.3530    4.4390 N.ar   97  G97         0.0000
   2043  OP1       25.9890   22.5730    2.8770 O.2    97  G97        -0.5000
   2044  OP2       24.9000   20.8460    4.4670 O.co2  97  G97        -0.5000
   2045  P         23.0260   26.5010    5.1410 P.3    98  A98         0.0000
   2046  C5'       20.9180   28.0490    5.2820 C.3    98  A98         0.0000
   2047  O5'       21.7760   27.1080    5.9120 O.3    98  A98         0.0000
   2048  C4'       19.6740   28.2400    6.1080 C.3    98  A98         0.0000
   2049  O4'       18.8770   27.0270    6.0960 O.3    98  A98         0.0000
   2050  C3'       19.9450   28.4750    7.5770 C.3    98  A98         0.0000
   2051  O3'       20.2680   29.8300    7.8030 O.3    98  A98         0.0000
   2052  C2'       18.6260   28.0690    8.2100 C.3    98  A98         0.0000
   2053  O2'       17.6350   29.0630    8.0870 O.3    98  A98         0.0000
   2054  C1'       18.2510   26.8590    7.3550 C.3    98  A98         0.0000
   2055  N1        17.2730   23.0960   10.7100 N.ar   98  A98         0.0000
   2056  C2        16.5740   24.1760   10.3310 C.ar   98  A98         0.0000
   2057  N3        16.8850   25.1140    9.4380 N.ar   98  A98         0.0000
   2058  C4        18.0850   24.8630    8.8860 C.ar   98  A98         0.0000
   2059  C5        18.9210   23.7970    9.1650 C.ar   98  A98         0.0000
   2060  C6        18.4740   22.8710   10.1370 C.ar   98  A98         0.0000
   2061  N6        19.1650   21.7980   10.5200 N.pl3  98  A98         0.0000
   2062  N7        20.0790   23.8700    8.3970 N.ar   98  A98         0.0000
   2063  C8        19.9180   24.9600    7.6860 C.ar   98  A98         0.0000
   2064  N9        18.7370   25.6130    7.9380 N.ar   98  A98         0.0000
   2065  OP1       23.9550   27.6130    4.8000 O.2    98  A98        -0.5000
   2066  OP2       23.5160   25.3560    5.9480 O.co2  98  A98        -0.5000
   2067  P         21.1680   30.2190    9.0640 P.3    99  C99         0.0000
   2068  C5'       19.0250   30.6040   10.5230 C.3    99  C99         0.0000
   2069  O5'       20.2320   29.8830   10.3120 O.3    99  C99         0.0000
   2070  C4'       18.1560   29.9080   11.5450 C.3    99  C99         0.0000
   2071  O4'       17.8210   28.5750   11.0790 O.3    99  C99         0.0000
   2072  C3'       18.7800   29.6430   12.9000 C.3    99  C99         0.0000
   2073  O3'       18.7710   30.7800   13.7370 O.3    99  C99         0.0000
   2074  C2'       17.8800   28.5480   13.4530 C.3    99  C99         0.0000
   2075  O2'       16.6680   29.0120   14.0080 O.3    99  C99         0.0000
   2076  C1'       17.6300   27.7160   12.1970 C.3    99  C99         0.0000
   2077  N1        18.6170   26.6340   12.1290 N.ar   99  C99         0.0000
   2078  C2        18.4820   25.5550   13.0090 C.ar   99  C99         0.0000
   2079  O2        17.5120   25.5330   13.7890 O.2    99  C99         0.0000
   2080  N3        19.4090   24.5710   12.9960 N.ar   99  C99         0.0000
   2081  C4        20.4380   24.6370   12.1510 C.ar   99  C99         0.0000
   2082  N4        21.3360   23.6550   12.1900 N.pl3  99  C99         0.0000
   2083  C5        20.5910   25.7180   11.2310 C.ar   99  C99         0.0000
   2084  C6        19.6630   26.6830   11.2510 C.ar   99  C99         0.0000
   2085  OP1       21.3800   31.6870    8.9940 O.2    99  C99        -0.5000
   2086  OP2       22.3370   29.3090    9.0850 O.co2  99  C99        -0.5000
   2087  P         19.7160   30.8000   15.0300 P.3   100  U100        0.0000
   2088  C5'       17.9690   29.8860   16.7250 C.3   100  U100        0.0000
   2089  O5'       19.1230   29.6470   15.9440 O.3   100  U100        0.0000
   2090  C4'       17.8850   28.8750   17.8310 C.3   100  U100        0.0000
   2091  O4'       17.7680   27.5570   17.2420 O.3   100  U100        0.0000
   2092  C3'       19.1190   28.7850   18.7110 C.3   100  U100        0.0000
   2093  O3'       19.0960   29.7770   19.7330 O.3   100  U100        0.0000
   2094  C2'       19.0200   27.3650   19.2540 C.3   100  U100        0.0000
   2095  O2'       18.1260   27.2140   20.3390 O.3   100  U100        0.0000
   2096  C1'       18.4710   26.6210   18.0360 C.3   100  U100        0.0000
   2097  N1        19.5260   26.0220   17.2110 N.ar  100  U100        0.0000
   2098  C2        19.9990   24.7850   17.5960 C.ar  100  U100        0.0000
   2099  O2        19.5950   24.2060   18.5910 O.2   100  U100        0.0000
   2100  N3        20.9600   24.2530   16.7770 N.ar  100  U100        0.0000
   2101  C4        21.4840   24.8240   15.6440 C.ar  100  U100        0.0000
   2102  O4        22.3240   24.2040   14.9920 O.2   100  U100        0.0000
   2103  C5        20.9530   26.1170   15.3230 C.ar  100  U100        0.0000
   2104  C6        20.0160   26.6570   16.0990 C.ar  100  U100        0.0000
   2105  OP1       19.5230   32.0800   15.7580 O.3   100  U100       -0.5000
   2106  OP2       21.0760   30.4000   14.5810 O.co2 100  U100       -0.5000
   2107  P         20.3190   29.8770   20.7730 P.3   101  G101        0.0000
   2108  C5'       21.4090   27.9060   22.1640 C.3   101  G101        0.0000
   2109  O5'       20.2730   28.4570   21.5030 O.3   101  G101        0.0000
   2110  C4'       21.2550   26.4080   22.2640 C.3   101  G101        0.0000
   2111  O4'       21.1700   25.8720   20.9240 O.3   101  G101        0.0000
   2112  C3'       22.4030   25.6490   22.9120 C.3   101  G101        0.0000
   2113  O3'       22.2150   25.5610   24.3200 O.3   101  G101        0.0000
   2114  C2'       22.2850   24.2620   22.2880 C.3   101  G101        0.0000
   2115  O2'       21.3590   23.4470   22.9780 O.3   101  G101        0.0000
   2116  C1'       21.7670   24.5890   20.8860 C.3   101  G101        0.0000
   2117  N1        25.2360   21.8540   18.3800 N.ar  101  G101        0.0000
   2118  C2        24.5280   21.5300   19.5110 C.ar  101  G101        0.0000
   2119  N2        24.7460   20.3000   20.0250 N.pl3 101  G101        0.0000
   2120  N3        23.6680   22.3440   20.0980 N.ar  101  G101        0.0000
   2121  C4        23.5710   23.5210   19.4530 C.ar  101  G101        0.0000
   2122  C5        24.2360   23.9410   18.3190 C.ar  101  G101        0.0000
   2123  C6        25.1500   23.0640   17.7010 C.ar  101  G101        0.0000
   2124  O6        25.8310   23.2540   16.6860 O.2   101  G101        0.0000
   2125  N7        23.8600   25.2320   17.9720 N.ar  101  G101        0.0000
   2126  C8        22.9850   25.5670   18.8810 C.ar  101  G101        0.0000
   2127  N9        22.7450   24.5650   19.7990 N.ar  101  G101        0.0000
   2128  OP1       19.9660   30.9210   21.7690 O.3   101  G101       -0.5000
   2129  OP2       21.5850   30.0010   19.9980 O.co2 101  G101       -0.5000
   2130  P         23.4130   25.9610   25.3080 P.3   102  G102        0.0000
   2131  C5'       24.3490   23.5170   25.2950 C.3   102  G102        0.0000
   2132  O5'       24.5680   24.8960   25.0130 O.3   102  G102        0.0000
   2133  C4'       25.3930   22.6340   24.6330 C.3   102  G102        0.0000
   2134  O4'       25.5020   22.9630   23.2250 O.3   102  G102        0.0000
   2135  C3'       26.7890   22.8280   25.2110 C.3   102  G102        0.0000
   2136  O3'       27.4360   21.6010   25.5370 O.3   102  G102        0.0000
   2137  C2'       27.5270   23.7570   24.2570 C.3   102  G102        0.0000
   2138  O2'       28.8540   23.3270   24.0410 O.3   102  G102        0.0000
   2139  C1'       26.7600   23.5290   22.9540 C.3   102  G102        0.0000
   2140  N1        27.8220   25.4220   18.4020 N.ar  102  G102        0.0000
   2141  C2        28.0730   24.1710   18.9010 C.ar  102  G102        0.0000
   2142  N2        28.7180   23.3270   18.0830 N.pl3 102  G102        0.0000
   2143  N3        27.7160   23.7790   20.1110 N.ar  102  G102        0.0000
   2144  C4        27.0760   24.7580   20.7870 C.ar  102  G102        0.0000
   2145  C5        26.7730   26.0340   20.3710 C.ar  102  G102        0.0000
   2146  C6        27.1650   26.4400   19.0840 C.ar  102  G102        0.0000
   2147  O6        27.0000   27.5330   18.5470 O.2   102  G102        0.0000
   2148  N7        26.0930   26.7260   21.3620 N.ar  102  G102        0.0000
   2149  C8        26.0080   25.8760   22.3490 C.ar  102  G102        0.0000
   2150  N9        26.6030   24.6740   22.0710 N.ar  102  G102        0.0000
   2151  OP1       22.9230   25.7360   26.6850 O.3   102  G102       -0.5000
   2152  OP2       23.8620   27.3110   24.8940 O.co2 102  G102       -0.5000
   2153  P         27.5620   21.1470   27.0690 P.3   103  U103        0.0000
   2154  C5'       27.8270   22.7700   29.1320 C.3   103  U103        0.0000
   2155  O5'       28.1550   22.4560   27.7780 O.3   103  U103        0.0000
   2156  C4'       29.0840   22.8910   29.9590 C.3   103  U103        0.0000
   2157  O4'       28.7370   22.6770   31.3540 O.3   103  U103        0.0000
   2158  C3'       30.1110   21.8210   29.6360 C.3   103  U103        0.0000
   2159  O3'       31.3470   22.2540   29.0640 O.3   103  U103        0.0000
   2160  C2'       29.9430   20.7010   30.6600 C.3   103  U103        0.0000
   2161  O2'       31.1540   20.1820   31.1700 O.3   103  U103        0.0000
   2162  C1'       29.2070   21.4120   31.7970 C.3   103  U103        0.0000
   2163  OP1       28.5590   20.0330   27.1310 O.2   103  U103       -0.5000
   2164  OP2       26.1770   20.9080   27.5620 O.co2 103  U103       -0.5000
   2165  P         32.6060   22.6040   30.0150 P.3   104  A104        0.0000
   2166  C5'       33.1670   20.1580   29.3060 C.3   104  A104        0.0000
   2167  O5'       33.6320   21.4280   29.7160 O.3   104  A104        0.0000
   2168  C4'       34.2690   19.4310   28.6120 C.3   104  A104        0.0000
   2169  O4'       34.4010   19.8810   27.2500 O.3   104  A104        0.0000
   2170  C3'       35.6250   19.6820   29.2270 C.3   104  A104        0.0000
   2171  O3'       35.7350   18.8140   30.3500 O.3   104  A104        0.0000
   2172  C2'       36.5620   19.3290   28.0780 C.3   104  A104        0.0000
   2173  O2'       36.7600   17.9370   27.9660 O.3   104  A104        0.0000
   2174  C1'       35.7560   19.8050   26.8670 C.3   104  A104        0.0000
   2175  N1        38.4910   22.2730   23.3250 N.ar  104  A104        0.0000
   2176  C2        38.3460   20.9710   23.6050 C.ar  104  A104        0.0000
   2177  N3        37.6140   20.3920   24.5500 N.ar  104  A104        0.0000
   2178  C4        36.9750   21.3220   25.2800 C.ar  104  A104        0.0000
   2179  C5        37.0250   22.6930   25.1100 C.ar  104  A104        0.0000
   2180  C6        37.8240   23.1720   24.0740 C.ar  104  A104        0.0000
   2181  N6        37.9570   24.4660   23.7880 N.pl3 104  A104        0.0000
   2182  N7        36.2340   23.3350   26.0510 N.ar  104  A104        0.0000
   2183  C8        35.7320   22.3530   26.7580 C.ar  104  A104        0.0000
   2184  N9        36.1350   21.1080   26.3400 N.ar  104  A104        0.0000
   2185  OP1       32.1670   22.4900   31.4380 O.3   104  A104       -0.5000
   2186  OP2       33.2320   23.8770   29.5320 O.co2 104  A104       -0.5000
   2187  P         36.8400   19.0920   31.4750 P.3   105  A105        0.0000
   2188  C5'       39.3830   19.0370   31.0440 C.3   105  A105        0.0000
   2189  O5'       38.1340   18.4580   30.8190 O.3   105  A105        0.0000
   2190  C4'       40.3390   18.6150   29.9820 C.3   105  A105        0.0000
   2191  O4'       39.7780   18.8550   28.6630 O.3   105  A105        0.0000
   2192  C3'       41.5930   19.4560   30.0460 C.3   105  A105        0.0000
   2193  O3'       42.4540   18.8710   31.0090 O.3   105  A105        0.0000
   2194  C2'       42.0850   19.4200   28.6080 C.3   105  A105        0.0000
   2195  O2'       42.7850   18.2280   28.3220 O.3   105  A105        0.0000
   2196  C1'       40.7540   19.4740   27.8400 C.3   105  A105        0.0000
   2197  N1        41.0930   23.6590   24.8620 N.ar  105  A105        0.0000
   2198  C2        41.6360   22.4400   24.7530 C.ar  105  A105        0.0000
   2199  N3        41.4980   21.3840   25.5490 N.ar  105  A105        0.0000
   2200  C4        40.6770   21.6710   26.5730 C.ar  105  A105        0.0000
   2201  C5        40.0420   22.8720   26.8140 C.ar  105  A105        0.0000
   2202  C6        40.2760   23.9080   25.9100 C.ar  105  A105        0.0000
   2203  N6        39.7420   25.1210   26.0350 N.pl3 105  A105        0.0000
   2204  N7        39.2690   22.7980   27.9590 N.ar  105  A105        0.0000
   2205  C8        39.4550   21.5780   28.3840 C.ar  105  A105        0.0000
   2206  N9        40.3090   20.8450   27.6010 N.ar  105  A105        0.0000
   2207  OP1       36.5300   18.2910   32.6860 O.3   105  A105       -0.5000
   2208  OP2       37.0500   20.5560   31.5950 O.co2 105  A105       -0.5000
   2209  P         43.0660   19.7810   32.1710 P.3   106  A106        0.0000
   2210  C5'       45.2370   19.4380   30.7630 C.3   106  A106        0.0000
   2211  O5'       44.3940   20.3340   31.4790 O.3   106  A106        0.0000
   2212  C4'       45.7970   20.0780   29.5070 C.3   106  A106        0.0000
   2213  O4'       44.7490   20.4250   28.5570 O.3   106  A106        0.0000
   2214  C3'       46.5620   21.3770   29.6820 C.3   106  A106        0.0000
   2215  O3'       47.8640   21.1400   30.2050 O.3   106  A106        0.0000
   2216  C2'       46.5810   21.9160   28.2520 C.3   106  A106        0.0000
   2217  O2'       47.5570   21.3350   27.4110 O.3   106  A106        0.0000
   2218  C1'       45.1810   21.5330   27.7670 C.3   106  A106        0.0000
   2219  N1        43.3400   25.8920   25.7990 N.ar  106  A106        0.0000
   2220  C2        44.1230   24.9280   25.2890 C.ar  106  A106        0.0000
   2221  N3        44.5300   23.7960   25.8440 N.ar  106  A106        0.0000
   2222  C4        44.0460   23.6810   27.0940 C.ar  106  A106        0.0000
   2223  C5        43.2260   24.5800   27.7550 C.ar  106  A106        0.0000
   2224  C6        42.8610   25.7470   27.0510 C.ar  106  A106        0.0000
   2225  N6        42.0730   26.7060   27.5460 N.pl3 106  A106        0.0000
   2226  N7        42.9250   24.1190   29.0290 N.ar  106  A106        0.0000
   2227  C8        43.5640   22.9830   29.1130 C.ar  106  A106        0.0000
   2228  N9        44.2830   22.6660   27.9890 N.ar  106  A106        0.0000
   2229  OP1       43.4470   18.8810   33.2870 O.3   106  A106       -0.5000
   2230  OP2       42.0850   20.8720   32.4140 O.co2 106  A106       -0.5000
   2231  P         48.3390   21.9140   31.5230 P.3   107  A107        0.0000
   2232  C5'       48.8410   23.9840   30.0030 C.3   107  A107        0.0000
   2233  O5'       48.1670   23.4510   31.1380 O.3   107  A107        0.0000
   2234  C4'       48.2860   25.3420   29.6170 C.3   107  A107        0.0000
   2235  O4'       46.8740   25.2560   29.2450 O.3   107  A107        0.0000
   2236  C3'       48.2970   26.4360   30.6650 C.3   107  A107        0.0000
   2237  O3'       49.6090   26.9630   30.8580 O.3   107  A107        0.0000
   2238  C2'       47.3360   27.4370   30.0310 C.3   107  A107        0.0000
   2239  O2'       47.9080   28.1170   28.9360 O.3   107  A107        0.0000
   2240  C1'       46.2450   26.5050   29.4950 C.3   107  A107        0.0000
   2241  N1        42.3840   28.7470   31.9850 N.ar  107  A107        0.0000
   2242  C2        43.1740   29.1520   30.9800 C.ar  107  A107        0.0000
   2243  N3        44.1460   28.4950   30.3560 N.ar  107  A107        0.0000
   2244  C4        44.2850   27.2640   30.8710 C.ar  107  A107        0.0000
   2245  C5        43.5510   26.7040   31.9020 C.ar  107  A107        0.0000
   2246  C6        42.5550   27.5040   32.4810 C.ar  107  A107        0.0000
   2247  N6        41.7770   27.1130   33.4870 N.pl3 107  A107        0.0000
   2248  N7        43.9780   25.4120   32.1610 N.ar  107  A107        0.0000
   2249  C8        44.9510   25.2240   31.2940 C.ar  107  A107        0.0000
   2250  N9        45.2010   26.3140   30.5000 N.ar  107  A107        0.0000
   2251  OP1       49.7790   21.6210   31.6900 O.2   107  A107       -0.5000
   2252  OP2       47.3980   21.6030   32.6190 O.co2 107  A107       -0.5000
   2253  P         50.1810   27.1490   32.3610 P.3   108  C108        0.0000
   2254  C5'       48.7490   29.1100   33.3490 C.3   108  C108        0.0000
   2255  O5'       48.9320   27.7200   33.1550 O.3   108  C108        0.0000
   2256  C4'       47.7950   29.3300   34.4920 C.3   108  C108        0.0000
   2257  O4'       46.5410   28.6630   34.1840 O.3   108  C108        0.0000
   2258  C3'       48.2130   28.6800   35.7940 C.3   108  C108        0.0000
   2259  O3'       49.0730   29.5310   36.4960 O.3   108  C108        0.0000
   2260  C2'       46.8850   28.5670   36.5060 C.3   108  C108        0.0000
   2261  O2'       46.4390   29.8360   36.9050 O.3   108  C108        0.0000
   2262  C1'       45.9940   28.1000   35.3630 C.3   108  C108        0.0000
   2263  N1        45.9680   26.6370   35.2070 N.ar  108  C108        0.0000
   2264  C2        44.9770   25.9150   35.8620 C.ar  108  C108        0.0000
   2265  O2        44.1660   26.5190   36.5720 O.2   108  C108        0.0000
   2266  N3        44.9210   24.5790   35.7080 N.ar  108  C108        0.0000
   2267  C4        45.8070   23.9620   34.9350 C.ar  108  C108        0.0000
   2268  N4        45.6910   22.6610   34.7980 N.pl3 108  C108        0.0000
   2269  C5        46.8440   24.6650   34.2670 C.ar  108  C108        0.0000
   2270  C6        46.8880   25.9930   34.4310 C.ar  108  C108        0.0000
   2271  OP1       51.2290   28.2070   32.3250 O.2   108  C108       -0.5000
   2272  OP2       50.4960   25.8200   32.9790 O.co2 108  C108       -0.5000
   2273  P         50.2010   28.9070   37.4350 P.3   109  C109        0.0000
   2274  C5'       48.8890   29.4470   39.6360 C.3   109  C109        0.0000
   2275  O5'       49.4150   28.4660   38.7510 O.3   109  C109        0.0000
   2276  C4'       48.0020   28.8070   40.6730 C.3   109  C109        0.0000
   2277  O4'       46.9030   28.1260   40.0100 O.3   109  C109        0.0000
   2278  C3'       48.6660   27.7210   41.4950 C.3   109  C109        0.0000
   2279  O3'       49.3470   28.2500   42.6110 O.3   109  C109        0.0000
   2280  C2'       47.4900   26.8720   41.9460 C.3   109  C109        0.0000
   2281  O2'       46.8370   27.4220   43.0670 O.3   109  C109        0.0000
   2282  C1'       46.5920   26.9320   40.7130 C.3   109  C109        0.0000
   2283  N1        46.8360   25.7950   39.8240 N.ar  109  C109        0.0000
   2284  C2        46.1970   24.5950   40.1090 C.ar  109  C109        0.0000
   2285  O2        45.4730   24.5430   41.1150 O.2   109  C109        0.0000
   2286  N3        46.3820   23.5260   39.2850 N.ar  109  C109        0.0000
   2287  C4        47.1770   23.6440   38.2150 C.ar  109  C109        0.0000
   2288  N4        47.3240   22.5820   37.4230 N.pl3 109  C109        0.0000
   2289  C5        47.8560   24.8650   37.9130 C.ar  109  C109        0.0000
   2290  C6        47.6600   25.9030   38.7370 C.ar  109  C109        0.0000
   2291  OP1       51.1030   30.0370   37.7780 O.3   109  C109       -0.5000
   2292  OP2       50.7470   27.7110   36.7440 O.co2 109  C109       -0.5000
   2293  P         50.5940   27.4460   43.2020 P.3   110  A110        0.0000
   2294  C5'       49.0760   26.2760   44.9920 C.3   110  A110        0.0000
   2295  O5'       49.9500   26.1580   43.8810 O.3   110  A110        0.0000
   2296  C4'       48.5190   24.9250   45.3530 C.3   110  A110        0.0000
   2297  O4'       47.7730   24.4040   44.2200 O.3   110  A110        0.0000
   2298  C3'       49.5630   23.8500   45.6100 C.3   110  A110        0.0000
   2299  O3'       50.0800   23.9040   46.9330 O.3   110  A110        0.0000
   2300  C2'       48.7810   22.5650   45.3510 C.3   110  A110        0.0000
   2301  O2'       47.9780   22.1500   46.4360 O.3   110  A110        0.0000
   2302  C1'       47.8840   22.9870   44.1890 C.3   110  A110        0.0000
   2303  N1        48.2560   19.1390   40.8330 N.ar  110  A110        0.0000
   2304  C2        47.7460   19.2130   42.0670 C.ar  110  A110        0.0000
   2305  N3        47.6990   20.2480   42.8960 N.ar  110  A110        0.0000
   2306  C4        48.2790   21.3280   42.3370 C.ar  110  A110        0.0000
   2307  C5        48.8580   21.4050   41.0830 C.ar  110  A110        0.0000
   2308  C6        48.8270   20.2390   40.2980 C.ar  110  A110        0.0000
   2309  N6        49.3230   20.1590   39.0620 N.pl3 110  A110        0.0000
   2310  N7        49.3690   22.6750   40.8570 N.ar  110  A110        0.0000
   2311  C8        49.0780   23.3320   41.9560 C.ar  110  A110        0.0000
   2312  N9        48.4050   22.5820   42.8860 N.ar  110  A110        0.0000
   2313  OP1       51.2670   28.2740   44.2340 O.3   110  A110       -0.5000
   2314  OP2       51.3500   26.9910   42.0120 O.co2 110  A110       -0.5000
   2315  P         51.5620   23.3590   47.2140 P.3   111  C111        0.0000
   2316  C5'       50.4650   21.1760   48.1530 C.3   111  C111        0.0000
   2317  O5'       51.3750   21.7750   47.2350 O.3   111  C111        0.0000
   2318  C4'       50.2450   19.7220   47.8220 C.3   111  C111        0.0000
   2319  O4'       49.4910   19.5970   46.5880 O.3   111  C111        0.0000
   2320  C3'       51.4920   18.9000   47.5600 C.3   111  C111        0.0000
   2321  O3'       52.1490   18.5110   48.7560 O.3   111  C111        0.0000
   2322  C2'       50.9130   17.7080   46.8130 C.3   111  C111        0.0000
   2323  O2'       50.2920   16.7900   47.6810 O.3   111  C111        0.0000
   2324  C1'       49.8640   18.3930   45.9320 C.3   111  C111        0.0000
   2325  N1        50.4150   18.7310   44.6080 N.ar  111  C111        0.0000
   2326  C2        50.3450   17.7760   43.5810 C.ar  111  C111        0.0000
   2327  O2        49.7880   16.6890   43.8050 O.2   111  C111        0.0000
   2328  N3        50.8830   18.0650   42.3760 N.ar  111  C111        0.0000
   2329  C4        51.4660   19.2460   42.1720 C.ar  111  C111        0.0000
   2330  N4        51.9930   19.4800   40.9750 N.pl3 111  C111        0.0000
   2331  C5        51.5370   20.2390   43.1910 C.ar  111  C111        0.0000
   2332  C6        51.0020   19.9460   44.3810 C.ar  111  C111        0.0000
   2333  OP1       52.0060   23.8190   48.5600 O.3   111  C111       -0.5000
   2334  OP2       52.3610   23.7070   46.0160 O.co2 111  C111       -0.5000
   2335  P         53.7430   18.3090   48.7490 P.3   112  A112        0.0000
   2336  C5'       53.5250   15.7270   48.3240 C.3   112  A112        0.0000
   2337  O5'       53.9550   17.0040   47.8590 O.3   112  A112        0.0000
   2338  C4'       53.7640   14.6710   47.2720 C.3   112  A112        0.0000
   2339  O4'       52.8880   14.8970   46.1350 O.3   112  A112        0.0000
   2340  C3'       55.1390   14.6470   46.6340 C.3   112  A112        0.0000
   2341  O3'       56.1170   14.0410   47.4550 O.3   112  A112        0.0000
   2342  C2'       54.8690   13.8550   45.3620 C.3   112  A112        0.0000
   2343  O2'       54.7690   12.4530   45.5390 O.3   112  A112        0.0000
   2344  C1'       53.5240   14.4440   44.9480 C.3   112  A112        0.0000
   2345  N1        54.7550   15.9950   40.2230 N.ar  112  A112        0.0000
   2346  C2        54.5530   14.7780   40.7540 C.ar  112  A112        0.0000
   2347  N3        54.2100   14.4440   41.9930 N.ar  112  A112        0.0000
   2348  C4        54.0700   15.5440   42.7510 C.ar  112  A112        0.0000
   2349  C5        54.2340   16.8580   42.3510 C.ar  112  A112        0.0000
   2350  C6        54.5980   17.0740   41.0100 C.ar  112  A112        0.0000
   2351  N6        54.7930   18.2760   40.4800 N.pl3 112  A112        0.0000
   2352  N7        53.9960   17.7270   43.4110 N.ar  112  A112        0.0000
   2353  C8        53.7050   16.9320   44.4110 C.ar  112  A112        0.0000
   2354  N9        53.7430   15.5980   44.0830 N.ar  112  A112        0.0000
   2355  OP1       54.1790   18.0250   50.1310 O.3   112  A112       -0.5000
   2356  OP2       54.3400   19.4520   48.0260 O.co2 112  A112       -0.5000
   2357  P         57.6470   14.4920   47.3150 P.3   113  G113        0.0000
   2358  C5'       58.1400   12.5830   45.5910 C.3   113  G113        0.0000
   2359  O5'       58.0800   13.9720   45.8760 O.3   113  G113        0.0000
   2360  C4'       58.6360   12.3740   44.1850 C.3   113  G113        0.0000
   2361  O4'       57.7020   12.9730   43.2510 O.3   113  G113        0.0000
   2362  C3'       59.9240   13.0870   43.8290 C.3   113  G113        0.0000
   2363  O3'       61.0710   12.4240   44.3230 O.3   113  G113        0.0000
   2364  C2'       59.8730   13.0810   42.3090 C.3   113  G113        0.0000
   2365  O2'       60.2410   11.8410   41.7330 O.3   113  G113        0.0000
   2366  C1'       58.3920   13.3590   42.0700 C.3   113  G113        0.0000
   2367  N1        58.4290   17.1050   38.6450 N.ar  113  G113        0.0000
   2368  C2        58.6870   15.7720   38.4810 C.ar  113  G113        0.0000
   2369  N2        59.0010   15.3910   37.2450 N.pl3 113  G113        0.0000
   2370  N3        58.6360   14.8760   39.4570 N.ar  113  G113        0.0000
   2371  C4        58.2900   15.4340   40.6350 C.ar  113  G113        0.0000
   2372  C5        58.0040   16.7510   40.9070 C.ar  113  G113        0.0000
   2373  C6        58.0710   17.7050   39.8430 C.ar  113  G113        0.0000
   2374  O6        57.8580   18.9230   39.8760 O.2   113  G113        0.0000
   2375  N7        57.6840   16.9150   42.2470 N.ar  113  G113        0.0000
   2376  C8        57.7850   15.7170   42.7550 C.ar  113  G113        0.0000
   2377  N9        58.1570   14.7760   41.8350 N.ar  113  G113        0.0000
   2378  OP1       58.4370   13.7340   48.3120 O.3   113  G113       -0.5000
   2379  OP2       57.6790   15.9730   47.3160 O.co2 113  G113       -0.5000
   2380  P         62.3630   13.2890   44.7270 P.3   114  G114        0.0000
   2381  C5'       63.6320   12.7920   42.4960 C.3   114  G114        0.0000
   2382  O5'       62.9830   13.7400   43.3310 O.3   114  G114        0.0000
   2383  C4'       64.0090   13.4160   41.1780 C.3   114  G114        0.0000
   2384  O4'       62.8080   13.8860   40.5150 O.3   114  G114        0.0000
   2385  C3'       64.8520   14.6790   41.2140 C.3   114  G114        0.0000
   2386  O3'       66.2240   14.4450   41.4940 O.3   114  G114        0.0000
   2387  C2'       64.6440   15.1850   39.7980 C.3   114  G114        0.0000
   2388  O2'       65.3340   14.3950   38.8430 O.3   114  G114        0.0000
   2389  C1'       63.1390   14.9730   39.6560 C.3   114  G114        0.0000
   2390  N1        61.4630   19.5390   38.2880 N.ar  114  G114        0.0000
   2391  C2        62.0790   18.5740   37.5310 C.ar  114  G114        0.0000
   2392  N2        62.3130   18.8800   36.2470 N.pl3 114  G114        0.0000
   2393  N3        62.4390   17.3950   38.0000 N.ar  114  G114        0.0000
   2394  C4        62.1350   17.2590   39.3090 C.ar  114  G114        0.0000
   2395  C5        61.5220   18.1600   40.1490 C.ar  114  G114        0.0000
   2396  C6        61.1410   19.4170   39.6360 C.ar  114  G114        0.0000
   2397  O6        60.5940   20.3510   40.2250 O.2   114  G114        0.0000
   2398  N7        61.3940   17.6360   41.4260 N.ar  114  G114        0.0000
   2399  C8        61.9300   16.4490   41.3410 C.ar  114  G114        0.0000
   2400  N9        62.4170   16.1670   40.0880 N.ar  114  G114        0.0000
   2401  OP1       63.3200   12.3630   45.4050 O.2   114  G114       -0.5000
   2402  OP2       61.8870   14.5030   45.4280 O.co2 114  G114       -0.5000
   2403  P         66.9740   15.3680   42.5740 P.3   115  C115        0.0000
   2404  C5'       67.4630   17.9280   42.6920 C.3   115  C115        0.0000
   2405  O5'       67.0920   16.8060   41.9040 O.3   115  C115        0.0000
   2406  C4'       68.1680   18.9670   41.8520 C.3   115  C115        0.0000
   2407  O4'       69.3830   18.4040   41.3150 O.3   115  C115        0.0000
   2408  C3'       67.4340   19.4920   40.6270 C.3   115  C115        0.0000
   2409  O3'       66.5360   20.5350   40.9890 O.3   115  C115        0.0000
   2410  C2'       68.5800   20.0430   39.7770 C.3   115  C115        0.0000
   2411  O2'       68.9680   21.3720   40.0970 O.3   115  C115        0.0000
   2412  C1'       69.7160   19.0730   40.1130 C.3   115  C115        0.0000
   2413  N1        69.9450   18.0690   39.0750 N.ar  115  C115        0.0000
   2414  C2        70.7460   18.4090   37.9850 C.ar  115  C115        0.0000
   2415  O2        71.2180   19.5560   37.9250 O.2   115  C115        0.0000
   2416  N3        70.9850   17.4840   37.0270 N.ar  115  C115        0.0000
   2417  C4        70.4530   16.2620   37.1320 C.ar  115  C115        0.0000
   2418  N4        70.7190   15.3790   36.1670 N.pl3 115  C115        0.0000
   2419  C5        69.6250   15.8930   38.2320 C.ar  115  C115        0.0000
   2420  C6        69.3980   16.8190   39.1710 C.ar  115  C115        0.0000
   2421  OP1       68.3460   14.8330   42.7280 O.2   115  C115       -0.5000
   2422  OP2       66.0770   15.4820   43.7540 O.co2 115  C115       -0.5000
   2423  P         64.9860   20.4150   40.6060 P.3   116  G116        0.0000
   2424  C5'       65.2880   21.8870   38.4610 C.3   116  G116        0.0000
   2425  O5'       64.9670   20.6220   39.0250 O.3   116  G116        0.0000
   2426  C4'       65.8760   21.7200   37.0770 C.3   116  G116        0.0000
   2427  O4'       66.8940   20.6950   37.1180 O.3   116  G116        0.0000
   2428  C3'       64.9310   21.2810   35.9780 C.3   116  G116        0.0000
   2429  O3'       64.3140   22.4340   35.4240 O.3   116  G116        0.0000
   2430  C2'       65.8770   20.6330   34.9730 C.3   116  G116        0.0000
   2431  O2'       66.5120   21.5630   34.1220 O.3   116  G116        0.0000
   2432  C1'       66.9260   20.0060   35.8910 C.3   116  G116        0.0000
   2433  N1        68.0920   15.2760   34.5480 N.ar  116  G116        0.0000
   2434  C2        68.4520   16.4650   33.9670 C.ar  116  G116        0.0000
   2435  N2        69.2430   16.3870   32.8870 N.pl3 116  G116        0.0000
   2436  N3        68.0640   17.6450   34.4060 N.ar  116  G116        0.0000
   2437  C4        67.2700   17.5460   35.4880 C.ar  116  G116        0.0000
   2438  C5        66.8440   16.4150   36.1430 C.ar  116  G116        0.0000
   2439  C6        67.2700   15.1490   35.6620 C.ar  116  G116        0.0000
   2440  O6        67.0020   14.0250   36.1040 O.2   116  G116        0.0000
   2441  N7        66.0290   16.7470   37.2190 N.ar  116  G116        0.0000
   2442  C8        65.9790   18.0490   37.1940 C.ar  116  G116        0.0000
   2443  N9        66.7240   18.5940   36.1750 N.ar  116  G116        0.0000
   2444  OP1       64.2220   21.5410   41.2160 O.3   116  G116       -0.5000
   2445  OP2       64.6170   19.0090   40.9340 O.co2 116  G116       -0.5000
   2446  P         62.7570   22.4060   35.0410 P.3   117  A117        0.0000
   2447  C5'       63.1990   22.6850   32.4770 C.3   117  A117        0.0000
   2448  O5'       62.7640   21.8580   33.5490 O.3   117  A117        0.0000
   2449  C4'       63.4960   21.8490   31.2610 C.3   117  A117        0.0000
   2450  O4'       64.5290   20.8890   31.6020 O.3   117  A117        0.0000
   2451  C3'       62.3480   20.9980   30.7480 C.3   117  A117        0.0000
   2452  O3'       61.5260   21.7430   29.8530 O.3   117  A117        0.0000
   2453  C2'       63.1050   19.9310   29.9660 C.3   117  A117        0.0000
   2454  O2'       63.5440   20.4050   28.7120 O.3   117  A117        0.0000
   2455  C1'       64.3340   19.7050   30.8520 C.3   117  A117        0.0000
   2456  N1        65.9910   15.0380   32.2920 N.ar  117  A117        0.0000
   2457  C2        66.4180   15.8860   31.3400 C.ar  117  A117        0.0000
   2458  N3        65.9550   17.0950   31.0220 N.ar  117  A117        0.0000
   2459  C4        64.9140   17.4260   31.8100 C.ar  117  A117        0.0000
   2460  C5        64.3690   16.6620   32.8240 C.ar  117  A117        0.0000
   2461  C6        64.9520   15.4140   33.0710 C.ar  117  A117        0.0000
   2462  N6        64.5420   14.5940   34.0310 N.pl3 117  A117        0.0000
   2463  N7        63.3090   17.3230   33.4180 N.ar  117  A117        0.0000
   2464  C8        63.2360   18.4540   32.7670 C.ar  117  A117        0.0000
   2465  N9        64.1700   18.5820   31.7750 N.ar  117  A117        0.0000
   2466  OP1       62.2540   23.7970   34.9980 O.2   117  A117       -0.5000
   2467  OP2       62.0630   21.4120   35.8970 O.co2 117  A117       -0.5000
   2468  P         60.0830   22.3000   30.3270 P.3   118  C118        0.0000
   2469  C5'       59.1300   19.9180   29.6910 C.3   118  C118        0.0000
   2470  O5'       59.1690   21.0120   30.5990 O.3   118  C118        0.0000
   2471  C4'       59.2580   18.6100   30.4440 C.3   118  C118        0.0000
   2472  O4'       60.1580   18.8210   31.5700 O.3   118  C118        0.0000
   2473  C3'       58.0330   18.0130   31.1300 C.3   118  C118        0.0000
   2474  O3'       57.2010   17.2930   30.2250 O.3   118  C118        0.0000
   2475  C2'       58.7080   17.0440   32.0860 C.3   118  C118        0.0000
   2476  O2'       59.3290   15.9750   31.4060 O.3   118  C118        0.0000
   2477  C1'       59.8300   17.9190   32.6200 C.3   118  C118        0.0000
   2478  N1        59.4130   18.6870   33.8030 N.ar  118  C118        0.0000
   2479  C2        59.3630   18.0290   35.0270 C.ar  118  C118        0.0000
   2480  O2        59.6490   16.8330   35.0610 O.2   118  C118        0.0000
   2481  N3        59.0040   18.7120   36.1390 N.ar  118  C118        0.0000
   2482  C4        58.7010   20.0140   36.0520 C.ar  118  C118        0.0000
   2483  N4        58.3720   20.6600   37.1790 N.pl3 118  C118        0.0000
   2484  C5        58.7270   20.7110   34.8070 C.ar  118  C118        0.0000
   2485  C6        59.0860   20.0130   33.7170 C.ar  118  C118        0.0000
   2486  OP1       59.5290   23.0370   29.1580 O.2   118  C118       -0.5000
   2487  OP2       60.2470   23.0070   31.6330 O.co2 118  C118       -0.5000
   2488  P         55.6410   17.0820   30.5650 P.3   119  U119        0.0000
   2489  C5'       56.1930   14.6770   31.3490 C.3   119  U119        0.0000
   2490  O5'       55.6450   15.9380   31.6700 O.3   119  U119        0.0000
   2491  C4'       56.1260   13.7530   32.5260 C.3   119  U119        0.0000
   2492  O4'       56.9850   14.2390   33.5800 O.3   119  U119        0.0000
   2493  C3'       54.7760   13.5990   33.1930 C.3   119  U119        0.0000
   2494  O3'       53.9690   12.6660   32.4830 O.3   119  U119        0.0000
   2495  C2'       55.1910   13.0510   34.5490 C.3   119  U119        0.0000
   2496  O2'       55.5680   11.6910   34.4680 O.3   119  U119        0.0000
   2497  C1'       56.4350   13.8920   34.8330 C.3   119  U119        0.0000
   2498  N1        56.1050   15.1350   35.5330 N.ar  119  U119        0.0000
   2499  C2        55.8020   15.0530   36.8710 C.ar  119  U119        0.0000
   2500  O2        55.8010   13.9970   37.4790 O.2   119  U119        0.0000
   2501  N3        55.5040   16.2520   37.4690 N.ar  119  U119        0.0000
   2502  C4        55.4860   17.4920   36.8690 C.ar  119  U119        0.0000
   2503  O4        55.2130   18.4800   37.5370 O.2   119  U119        0.0000
   2504  C5        55.8110   17.4900   35.4800 C.ar  119  U119        0.0000
   2505  C6        56.1000   16.3400   34.8730 C.ar  119  U119        0.0000
   2506  OP1       55.0070   16.5050   29.3660 O.2   119  U119       -0.5000
   2507  OP2       55.1160   18.3510   31.1330 O.co2 119  U119       -0.5000
   2508  P         52.3690   12.7790   32.5550 P.3   120  G120        0.0000
   2509  C5'       51.9310   10.9220   34.3190 C.3   120  G120        0.0000
   2510  O5'       52.0090   12.2990   34.0230 O.3   120  G120        0.0000
   2511  C4'       51.4730   10.7350   35.7330 C.3   120  G120        0.0000
   2512  O4'       52.4000   11.4230   36.6120 O.3   120  G120        0.0000
   2513  C3'       50.1230   11.3420   36.0770 C.3   120  G120        0.0000
   2514  O3'       49.0900   10.4330   35.7150 O.3   120  G120        0.0000
   2515  C2'       50.2340   11.4800   37.5900 C.3   120  G120        0.0000
   2516  O2'       50.0130   10.2630   38.2750 O.3   120  G120        0.0000
   2517  C1'       51.7020   11.8920   37.7510 C.3   120  G120        0.0000
   2518  N1        51.2090   16.0010   40.6500 N.ar  120  G120        0.0000
   2519  C2        51.0340   14.6770   40.9710 C.ar  120  G120        0.0000
   2520  N2        50.6510   14.4180   42.2240 N.pl3 120  G120        0.0000
   2521  N3        51.2210   13.6830   40.1250 N.ar  120  G120        0.0000
   2522  C4        51.6000   14.1240   38.9080 C.ar  120  G120        0.0000
   2523  C5        51.8030   15.4180   38.4850 C.ar  120  G120        0.0000
   2524  C6        51.5990   16.4780   39.4040 C.ar  120  G120        0.0000
   2525  O6        51.7220   17.6950   39.2210 O.2   120  G120        0.0000
   2526  N7        52.1940   15.4430   37.1550 N.ar  120  G120        0.0000
   2527  C8        52.2120   14.1860   36.8000 C.ar  120  G120        0.0000
   2528  N9        51.8450   13.3390   37.8140 N.ar  120  G120        0.0000
   2529  OP1       51.8020   11.7850   31.6010 O.2   120  G120       -0.5000
   2530  OP2       51.9920   14.2140   32.4500 O.co2 120  G120       -0.5000
   2531  P         47.5790   10.9560   35.5220 P.3   121  U121        0.0000
   2532  C5'       46.7170   10.6390   37.9870 C.3   121  U121        0.0000
   2533  O5'       47.1510   11.5310   36.9510 O.3   121  U121        0.0000
   2534  C4'       46.3930   11.3930   39.2620 C.3   121  U121        0.0000
   2535  O4'       47.5480   12.1720   39.6520 O.3   121  U121        0.0000
   2536  C3'       45.2860   12.4310   39.1840 C.3   121  U121        0.0000
   2537  O3'       43.9970   11.8700   39.3310 O.3   121  U121        0.0000
   2538  C2'       45.6010   13.3280   40.3670 C.3   121  U121        0.0000
   2539  O2'       45.1890   12.7950   41.6170 O.3   121  U121        0.0000
   2540  C1'       47.1230   13.3730   40.2820 C.3   121  U121        0.0000
   2541  N1        47.6200   14.5290   39.5160 N.ar  121  U121        0.0000
   2542  C2        47.6290   15.7380   40.1630 C.ar  121  U121        0.0000
   2543  O2        47.2220   15.8700   41.2970 O.2   121  U121        0.0000
   2544  N3        48.1320   16.7860   39.4430 N.ar  121  U121        0.0000
   2545  C4        48.6200   16.7550   38.1640 C.ar  121  U121        0.0000
   2546  O4        49.0700   17.7880   37.6690 O.2   121  U121        0.0000
   2547  C5        48.5690   15.4690   37.5390 C.ar  121  U121        0.0000
   2548  C6        48.0750   14.4220   38.2210 C.ar  121  U121        0.0000
   2549  OP1       46.7480    9.7480   35.2970 O.3   121  U121       -0.5000
   2550  OP2       47.5890   12.0370   34.5120 O.co2 121  U121       -0.5000
   2551  P         42.7200   12.7260   38.8850 P.3   122  G122        0.0000
   2552  C5'       42.1140   13.5910   41.2640 C.3   122  G122        0.0000
   2553  O5'       42.6200   13.8730   39.9790 O.3   122  G122        0.0000
   2554  C4'       42.1200   14.8330   42.1030 C.3   122  G122        0.0000
   2555  O4'       43.4690   15.3670   42.1300 O.3   122  G122        0.0000
   2556  C3'       41.3000   15.9880   41.5660 C.3   122  G122        0.0000
   2557  O3'       39.9290   15.8510   41.9120 O.3   122  G122        0.0000
   2558  C2'       41.9490   17.1740   42.2620 C.3   122  G122        0.0000
   2559  O2'       41.5590   17.2430   43.6120 O.3   122  G122        0.0000
   2560  C1'       43.4230   16.7840   42.1910 C.3   122  G122        0.0000
   2561  N1        45.5580   20.7390   39.8560 N.ar  122  G122        0.0000
   2562  C2        45.0430   20.6590   41.1250 C.ar  122  G122        0.0000
   2563  N2        45.1130   21.7700   41.8660 N.pl3 122  G122        0.0000
   2564  N3        44.5040   19.5700   41.6330 N.ar  122  G122        0.0000
   2565  C4        44.5320   18.5490   40.7600 C.ar  122  G122        0.0000
   2566  C5        45.0250   18.5300   39.4730 C.ar  122  G122        0.0000
   2567  C6        45.5840   19.7000   38.9380 C.ar  122  G122        0.0000
   2568  O6        46.0540   19.8780   37.8060 O.2   122  G122        0.0000
   2569  N7        44.8650   17.2750   38.9040 N.ar  122  G122        0.0000
   2570  C8        44.2900   16.5700   39.8380 C.ar  122  G122        0.0000
   2571  N9        44.0580   17.2840   40.9860 N.ar  122  G122        0.0000
   2572  OP1       41.5170   11.8570   39.0020 O.3   122  G122       -0.5000
   2573  OP2       43.0660   13.3390   37.5740 O.co2 122  G122       -0.5000
   2574  P         38.8050   16.3350   40.8760 P.3   123  G123        0.0000
   2575  C5'       38.5140   18.4510   42.4300 C.3   123  G123        0.0000
   2576  O5'       38.7120   17.9100   41.1180 O.3   123  G123        0.0000
   2577  C4'       38.9720   19.8930   42.4860 C.3   123  G123        0.0000
   2578  O4'       40.4100   19.9500   42.2980 O.3   123  G123        0.0000
   2579  C3'       38.4320   20.8110   41.4020 C.3   123  G123        0.0000
   2580  O3'       37.1410   21.3070   41.7200 O.3   123  G123        0.0000
   2581  C2'       39.4660   21.9290   41.3870 C.3   123  G123        0.0000
   2582  O2'       39.2950   22.8710   42.4290 O.3   123  G123        0.0000
   2583  C1'       40.7580   21.1450   41.6160 C.3   123  G123        0.0000
   2584  N1        43.4630   22.8200   37.6770 N.ar  123  G123        0.0000
   2585  C2        43.0400   23.4960   38.7930 C.ar  123  G123        0.0000
   2586  N2        43.3770   24.7880   38.8650 N.pl3 123  G123        0.0000
   2587  N3        42.3420   22.9450   39.7680 N.ar  123  G123        0.0000
   2588  C4        42.1020   21.6400   39.5380 C.ar  123  G123        0.0000
   2589  C5        42.4820   20.8730   38.4580 C.ar  123  G123        0.0000
   2590  C6        43.2270   21.4720   37.4210 C.ar  123  G123        0.0000
   2591  O6        43.6620   20.9470   36.3810 O.2   123  G123        0.0000
   2592  N7        42.0370   19.5690   38.5990 N.ar  123  G123        0.0000
   2593  C8        41.4050   19.5670   39.7420 C.ar  123  G123        0.0000
   2594  N9        41.4000   20.7930   40.3570 N.ar  123  G123        0.0000
   2595  OP1       37.5250   15.6940   41.2580 O.3   123  G123       -0.5000
   2596  OP2       39.3490   16.1300   39.5120 O.co2 123  G123       -0.5000
   2597  P         36.1190   21.6660   40.5380 P.3   124  C124        0.0000
   2598  C5'       36.9800   24.1210   40.4290 C.3   124  C124        0.0000
   2599  O5'       36.8350   22.8690   39.7780 O.3   124  C124        0.0000
   2600  C4'       37.6260   25.1590   39.5280 C.3   124  C124        0.0000
   2601  O4'       38.9770   24.7820   39.1700 O.3   124  C124        0.0000
   2602  C3'       37.0460   25.4950   38.1640 C.3   124  C124        0.0000
   2603  O3'       35.8600   26.2740   38.2490 O.3   124  C124        0.0000
   2604  C2'       38.1670   26.3630   37.6060 C.3   124  C124        0.0000
   2605  O2'       38.1620   27.6460   38.1930 O.3   124  C124        0.0000
   2606  C1'       39.4020   25.6320   38.1230 C.3   124  C124        0.0000
   2607  N1        40.0760   24.8520   37.0800 N.ar  124  C124        0.0000
   2608  C2        40.9790   25.5220   36.2600 C.ar  124  C124        0.0000
   2609  O2        41.1600   26.7550   36.4420 O.2   124  C124        0.0000
   2610  N3        41.6300   24.8330   35.2980 N.ar  124  C124        0.0000
   2611  C4        41.4030   23.5320   35.1390 C.ar  124  C124        0.0000
   2612  N4        42.0790   22.9000   34.1770 N.pl3 124  C124        0.0000
   2613  C5        40.4780   22.8240   35.9550 C.ar  124  C124        0.0000
   2614  C6        39.8400   23.5170   36.9060 C.ar  124  C124        0.0000
   2615  OP1       34.8820   22.1820   41.1640 O.3   124  C124       -0.5000
   2616  OP2       36.0430   20.4960   39.6270 O.co2 124  C124       -0.5000
   2617  P         34.8300   26.2780   37.0200 P.3   125  A125        0.0000
   2618  C5'       35.4450   28.6820   36.1140 C.3   125  A125        0.0000
   2619  O5'       35.4710   27.2630   35.9320 O.3   125  A125        0.0000
   2620  C4'       35.9520   29.4100   34.8750 C.3   125  A125        0.0000
   2621  O4'       37.3800   29.1880   34.6880 O.3   125  A125        0.0000
   2622  C3'       35.3580   29.0150   33.5330 C.3   125  A125        0.0000
   2623  O3'       34.0930   29.6010   33.2910 O.3   125  A125        0.0000
   2624  C2'       36.3960   29.5580   32.5610 C.3   125  A125        0.0000
   2625  O2'       36.3120   30.9580   32.4000 O.3   125  A125        0.0000
   2626  C1'       37.6890   29.2100   33.2950 C.3   125  A125        0.0000
   2627  N1        40.3910   26.5890   29.7870 N.ar  125  A125        0.0000
   2628  C2        39.9740   27.8550   29.8380 C.ar  125  A125        0.0000
   2629  N3        39.2530   28.4680   30.7710 N.ar  125  A125        0.0000
   2630  C4        38.9420   27.6220   31.7640 C.ar  125  A125        0.0000
   2631  C5        39.2910   26.2880   31.8520 C.ar  125  A125        0.0000
   2632  C6        40.0600   25.7600   30.7990 C.ar  125  A125        0.0000
   2633  N6        40.4780   24.4940   30.7470 N.pl3 125  A125        0.0000
   2634  N7        38.7910   25.7260   33.0170 N.ar  125  A125        0.0000
   2635  C8        38.1670   26.7190   33.6020 C.ar  125  A125        0.0000
   2636  N9        38.2310   27.9010   32.9070 N.ar  125  A125        0.0000
   2637  OP1       33.5510   26.8640   37.4820 O.3   125  A125       -0.5000
   2638  OP2       34.8640   24.8940   36.4920 O.co2 125  A125       -0.5000
   2639  P         33.0820   28.8750   32.2840 P.3   126  U126        0.0000
   2640  C5'       34.0410   30.2560   30.2600 C.3   126  U126        0.0000
   2641  O5'       33.8100   28.9880   30.8710 O.3   126  U126        0.0000
   2642  C4'       34.8460   30.0930   28.9860 C.3   126  U126        0.0000
   2643  O4'       36.1270   29.4930   29.3090 O.3   126  U126        0.0000
   2644  C3'       34.2630   29.1820   27.9150 C.3   126  U126        0.0000
   2645  O3'       33.3640   29.8970   27.0720 O.3   126  U126        0.0000
   2646  C2'       35.5090   28.7620   27.1450 C.3   126  U126        0.0000
   2647  O2'       35.9630   29.7790   26.2750 O.3   126  U126        0.0000
   2648  C1'       36.5160   28.6020   28.2790 C.3   126  U126        0.0000
   2649  N1        36.5890   27.2480   28.8460 N.ar  126  U126        0.0000
   2650  C2        37.3520   26.3170   28.1770 C.ar  126  U126        0.0000
   2651  O2        37.9130   26.5640   27.1250 O.2   126  U126        0.0000
   2652  N3        37.4320   25.0860   28.7840 N.ar  126  U126        0.0000
   2653  C4        36.8240   24.6990   29.9670 C.ar  126  U126        0.0000
   2654  O4        37.0150   23.5650   30.4040 O.2   126  U126        0.0000
   2655  C5        36.0260   25.7140   30.5880 C.ar  126  U126        0.0000
   2656  C6        35.9360   26.9230   30.0190 C.ar  126  U126        0.0000
   2657  OP1       31.8240   29.6530   32.2200 O.2   126  U126       -0.5000
   2658  OP2       33.0370   27.4470   32.6780 O.co2 126  U126       -0.5000
   2659  P         32.3300   29.0880   26.1370 P.3   127  A127        0.0000
   2660  C5'       32.6100   27.8760   23.8250 C.3   127  A127        0.0000
   2661  O5'       33.2090   28.5890   24.9020 O.3   127  A127        0.0000
   2662  C4'       33.6290   27.5510   22.7530 C.3   127  A127        0.0000
   2663  O4'       34.5680   26.5490   23.2250 O.3   127  A127        0.0000
   2664  C3'       33.0130   26.9270   21.5150 C.3   127  A127        0.0000
   2665  O3'       32.5620   27.9550   20.6490 O.3   127  A127        0.0000
   2666  C2'       34.1650   26.1350   20.9130 C.3   127  A127        0.0000
   2667  O2'       35.0240   26.9080   20.1150 O.3   127  A127        0.0000
   2668  C1'       34.9040   25.6740   22.1650 C.3   127  A127        0.0000
   2669  N1        35.9790   20.6830   21.6670 N.ar  127  A127        0.0000
   2670  C2        36.4640   21.7770   21.0620 C.ar  127  A127        0.0000
   2671  N3        36.1210   23.0470   21.2220 N.ar  127  A127        0.0000
   2672  C4        35.1400   23.1600   22.1310 C.ar  127  A127        0.0000
   2673  C5        34.5330   22.1370   22.8300 C.ar  127  A127        0.0000
   2674  C6        34.9940   20.8320   22.5770 C.ar  127  A127        0.0000
   2675  N6        34.5170   19.7400   23.1840 N.pl3 127  A127        0.0000
   2676  N7        33.5490   22.6370   23.6750 N.ar  127  A127        0.0000
   2677  C8        33.5900   23.9320   23.4770 C.ar  127  A127        0.0000
   2678  N9        34.5450   24.3190   22.5700 N.ar  127  A127        0.0000
   2679  OP1       31.3370   30.0680   25.6300 O.2   127  A127       -0.5000
   2680  OP2       31.8680   27.8930   26.8970 O.co2 127  A127       -0.5000
   2681  P         31.0940   27.8620   20.0160 P.3   128  G128        0.0000
   2682  C5'       32.0460   27.3020   17.6540 C.3   128  G128        0.0000
   2683  O5'       31.2770   26.8820   18.7730 O.3   128  G128        0.0000
   2684  C4'       32.7220   26.1260   17.0030 C.3   128  G128        0.0000
   2685  O4'       33.5170   25.4030   17.9730 O.3   128  G128        0.0000
   2686  C3'       31.8040   25.0590   16.4490 C.3   128  G128        0.0000
   2687  O3'       31.3240   25.4770   15.1840 O.3   128  G128        0.0000
   2688  C2'       32.7560   23.8820   16.3320 C.3   128  G128        0.0000
   2689  O2'       33.6560   24.0520   15.2560 O.3   128  G128        0.0000
   2690  C1'       33.5300   24.0250   17.6380 C.3   128  G128        0.0000
   2691  N1        33.2500   19.6400   20.1430 N.ar  128  G128        0.0000
   2692  C2        33.9770   19.9620   19.0300 C.ar  128  G128        0.0000
   2693  N2        34.7400   18.9920   18.5340 N.pl3 128  G128        0.0000
   2694  N3        33.9560   21.1450   18.4490 N.ar  128  G128        0.0000
   2695  C4        33.1360   21.9990   19.0860 C.ar  128  G128        0.0000
   2696  C5        32.3650   21.7800   20.2030 C.ar  128  G128        0.0000
   2697  C6        32.3960   20.5020   20.8150 C.ar  128  G128        0.0000
   2698  O6        31.7850   20.1070   21.8160 O.2   128  G128        0.0000
   2699  N7        31.6590   22.9240   20.5440 N.ar  128  G128        0.0000
   2700  C8        32.0100   23.7990   19.6440 C.ar  128  G128        0.0000
   2701  N9        32.9120   23.3030   18.7390 N.ar  128  G128        0.0000
   2702  OP1       30.7500   29.2060   19.4770 O.2   128  G128       -0.5000
   2703  OP2       30.2110   27.2230   21.0250 O.co2 128  G128       -0.5000
   2704  P         29.8740   25.0130   14.7030 P.3   129  A129        0.0000
   2705  C5'       31.0430   23.3810   13.0190 C.3   129  A129        0.0000
   2706  O5'       30.1420   23.5610   14.1030 O.3   129  A129        0.0000
   2707  C4'       31.4670   21.9400   12.9290 C.3   129  A129        0.0000
   2708  O4'       32.1160   21.5670   14.1680 O.3   129  A129        0.0000
   2709  C3'       30.3670   20.9000   12.8020 C.3   129  A129        0.0000
   2710  O3'       29.9090   20.7780   11.4590 O.3   129  A129        0.0000
   2711  C2'       31.0980   19.6380   13.2330 C.3   129  A129        0.0000
   2712  O2'       31.9080   19.1150   12.1970 O.3   129  A129        0.0000
   2713  C1'       31.9770   20.1730   14.3640 C.3   129  A129        0.0000
   2714  N1        31.7210   16.9640   18.3640 N.ar  129  A129        0.0000
   2715  C2        32.3820   16.9040   17.2060 C.ar  129  A129        0.0000
   2716  N3        32.4060   17.7760   16.2040 N.ar  129  A129        0.0000
   2717  C4        31.6280   18.8410   16.4800 C.ar  129  A129        0.0000
   2718  C5        30.8870   19.0470   17.6270 C.ar  129  A129        0.0000
   2719  C6        30.9450   18.0410   18.6130 C.ar  129  A129        0.0000
   2720  N6        30.2780   18.0940   19.7710 N.pl3 129  A129        0.0000
   2721  N7        30.2120   20.2610   17.5620 N.ar  129  A129        0.0000
   2722  C8        30.5540   20.7500   16.3930 C.ar  129  A129        0.0000
   2723  N9        31.4060   19.9440   15.6870 N.ar  129  A129        0.0000
   2724  OP1       29.4680   25.9560   13.6270 O.2   129  A129       -0.5000
   2725  OP2       29.0310   24.8590   15.9220 O.co2 129  A129       -0.5000
   2726  P         28.5310   20.0010   11.1520 P.3   130  G130        0.0000
   2727  C5'       27.9910   17.4700   10.6930 C.3   130  G130        0.0000
   2728  O5'       28.9560   18.4580   11.0460 O.3   130  G130        0.0000
   2729  C4'       28.5720   16.0580   10.6790 C.3   130  G130        0.0000
   2730  O4'       29.5420   15.8920    9.6000 O.3   130  G130        0.0000
   2731  C3'       29.3280   15.7030   11.9590 C.3   130  G130        0.0000
   2732  O3'       28.9510   14.4450   12.5010 O.3   130  G130        0.0000
   2733  C2'       30.8170   15.8420   11.6430 C.3   130  G130        0.0000
   2734  O2'       31.5240   14.7330   12.1590 O.3   130  G130        0.0000
   2735  C1'       30.8160   15.6300   10.1370 C.3   130  G130        0.0000
   2736  N1        33.1810   19.6950    8.1600 N.ar  130  G130        0.0000
   2737  C2        32.1420   19.6510    9.0630 C.ar  130  G130        0.0000
   2738  N2        31.6690   20.8360    9.4810 N.pl3 130  G130        0.0000
   2739  N3        31.6080   18.5270    9.5240 N.ar  130  G130        0.0000
   2740  C4        32.2090   17.4340    9.0070 C.ar  130  G130        0.0000
   2741  C5        33.2570   17.3700    8.1060 C.ar  130  G130        0.0000
   2742  C6        33.8180   18.5800    7.6160 C.ar  130  G130        0.0000
   2743  O6        34.7510   18.7290    6.8070 O.2   130  G130        0.0000
   2744  N7        33.5830   16.0520    7.8220 N.ar  130  G130        0.0000
   2745  C8        32.7430   15.3530    8.5350 C.ar  130  G130        0.0000
   2746  N9        31.8770   16.1290    9.2690 N.ar  130  G130        0.0000
   2747  OP1       28.0710   20.4760    9.8230 O.2   130  G130       -0.5000
   2748  OP2       27.6460   20.1590   12.3340 O.co2 130  G130       -0.5000
   2749  P         27.7380   14.3480   13.5330 P.3   131  C131        0.0000
   2750  C5'       28.7420   13.8560   15.9120 C.3   131  C131        0.0000
   2751  O5'       28.3670   14.8110   14.9210 O.3   131  C131        0.0000
   2752  C4'       28.2620   14.3050   17.2680 C.3   131  C131        0.0000
   2753  O4'       28.8690   15.5860   17.5750 O.3   131  C131        0.0000
   2754  C3'       26.7710   14.5710   17.3590 C.3   131  C131        0.0000
   2755  O3'       26.0610   13.3500   17.5930 O.3   131  C131        0.0000
   2756  C2'       26.7000   15.5570   18.5200 C.3   131  C131        0.0000
   2757  O2'       26.8470   14.9360   19.7820 O.3   131  C131        0.0000
   2758  C1'       27.9440   16.4080   18.2630 C.3   131  C131        0.0000
   2759  N1        27.7070   17.6210   17.4550 N.ar  131  C131        0.0000
   2760  C2        27.0990   18.7280   18.0580 C.ar  131  C131        0.0000
   2761  O2        26.7940   18.6700   19.2600 O.2   131  C131        0.0000
   2762  N3        26.8580   19.8320   17.3210 N.ar  131  C131        0.0000
   2763  C4        27.2040   19.8620   16.0370 C.ar  131  C131        0.0000
   2764  N4        26.9380   20.9730   15.3510 N.pl3 131  C131        0.0000
   2765  C5        27.8350   18.7570   15.3990 C.ar  131  C131        0.0000
   2766  C6        28.0660   17.6670   16.1380 C.ar  131  C131        0.0000
   2767  OP1       27.3580   12.9160   13.6420 O.3   131  C131       -0.5000
   2768  OP2       26.7290   15.3490   13.1020 O.co2 131  C131       -0.5000
   2769  P         24.5800   13.1450   16.9760 P.3   132  A132        0.0000
   2770  C5'       23.5610   13.9520   19.2410 C.3   132  A132        0.0000
   2771  O5'       23.6920   14.1500   17.8360 O.3   132  A132        0.0000
   2772  C4'       22.7410   15.0540   19.8600 C.3   132  A132        0.0000
   2773  O4'       23.4720   16.3030   19.8110 O.3   132  A132        0.0000
   2774  C3'       21.4330   15.3810   19.1660 C.3   132  A132        0.0000
   2775  O3'       20.4130   14.4520   19.5230 O.3   132  A132        0.0000
   2776  C2'       21.1520   16.7760   19.7040 C.3   132  A132        0.0000
   2777  O2'       20.6460   16.7590   21.0200 O.3   132  A132        0.0000
   2778  C1'       22.5550   17.3780   19.7170 C.3   132  A132        0.0000
   2779  N1        21.8200   21.7390   17.0970 N.ar  132  A132        0.0000
   2780  C2        21.3820   21.3210   18.2930 C.ar  132  A132        0.0000
   2781  N3        21.6030   20.1620   18.9190 N.ar  132  A132        0.0000
   2782  C4        22.3850   19.3640   18.1710 C.ar  132  A132        0.0000
   2783  C5        22.9080   19.6490   16.9220 C.ar  132  A132        0.0000
   2784  C6        22.5990   20.9090   16.3710 C.ar  132  A132        0.0000
   2785  N6        23.0310   21.3210   15.1790 N.pl3 132  A132        0.0000
   2786  N7        23.6660   18.5830   16.4550 N.ar  132  A132        0.0000
   2787  C8        23.5900   17.6950   17.4180 C.ar  132  A132        0.0000
   2788  N9        22.8360   18.1050   18.4870 N.ar  132  A132        0.0000
   2789  OP1       24.1350   11.7690   17.3060 O.3   132  A132       -0.5000
   2790  OP2       24.6020   13.5850   15.5510 O.co2 132  A132       -0.5000
   2791  P         19.1880   14.1860   18.5150 P.3   133  G133        0.0000
   2792  C5'       17.8120   16.0800   19.6870 C.3   133  G133        0.0000
   2793  O5'       18.4170   15.5820   18.4970 O.3   133  G133        0.0000
   2794  C4'       17.1760   17.4240   19.4390 C.3   133  G133        0.0000
   2795  O4'       18.1950   18.4080   19.1280 O.3   133  G133        0.0000
   2796  C3'       16.2520   17.5170   18.2410 C.3   133  G133        0.0000
   2797  O3'       14.9710   16.9720   18.5150 O.3   133  G133        0.0000
   2798  C2'       16.1850   19.0230   18.0130 C.3   133  G133        0.0000
   2799  O2'       15.2760   19.6850   18.8750 O.3   133  G133        0.0000
   2800  C1'       17.6230   19.4400   18.3340 C.3   133  G133        0.0000
   2801  N1        18.8950   22.6430   14.6250 N.ar  133  G133        0.0000
   2802  C2        18.0410   22.8270   15.6800 C.ar  133  G133        0.0000
   2803  N2        17.4430   24.0240   15.7470 N.pl3 133  G133        0.0000
   2804  N3        17.7920   21.9050   16.5980 N.ar  133  G133        0.0000
   2805  C4        18.4790   20.7650   16.3660 C.ar  133  G133        0.0000
   2806  C5        19.3540   20.4810   15.3410 C.ar  133  G133        0.0000
   2807  C6        19.6120   21.4800   14.3670 C.ar  133  G133        0.0000
   2808  O6        20.3550   21.4250   13.3810 O.2   133  G133        0.0000
   2809  N7        19.8500   19.1900   15.4590 N.ar  133  G133        0.0000
   2810  C8        19.2760   18.7220   16.5350 C.ar  133  G133        0.0000
   2811  N9        18.4310   19.6270   17.1320 N.ar  133  G133        0.0000
   2812  OP1       18.3070   13.1790   19.1560 O.3   133  G133       -0.5000
   2813  OP2       19.7510   13.9120   17.1680 O.co2 133  G133       -0.5000
   2814  P         14.0100   16.5590   17.2950 P.3   134  U134        0.0000
   2815  C5'       12.6340   18.7830   17.2660 C.3   134  U134        0.0000
   2816  O5'       13.5930   17.9460   16.6330 O.3   134  U134        0.0000
   2817  C4'       12.3580   19.9940   16.4150 C.3   134  U134        0.0000
   2818  O4'       13.5780   20.7730   16.2910 O.3   134  U134        0.0000
   2819  C3'       11.9450   19.7130   14.9790 C.3   134  U134        0.0000
   2820  O3'       10.5460   19.4860   14.8740 O.3   134  U134        0.0000
   2821  C2'       12.3370   21.0060   14.2790 C.3   134  U134        0.0000
   2822  O2'       11.3770   22.0270   14.4670 O.3   134  U134        0.0000
   2823  C1'       13.6430   21.3530   14.9980 C.3   134  U134        0.0000
   2824  N1        14.8220   20.8070   14.3100 N.ar  134  U134        0.0000
   2825  C2        15.4760   21.6320   13.4230 C.ar  134  U134        0.0000
   2826  O2        15.1280   22.7730   13.2140 O.2   134  U134        0.0000
   2827  N3        16.5540   21.0700   12.7920 N.ar  134  U134        0.0000
   2828  C4        17.0340   19.7940   12.9570 C.ar  134  U134        0.0000
   2829  O4        18.0080   19.4280   12.3000 O.2   134  U134        0.0000
   2830  C5        16.3070   18.9990   13.9030 C.ar  134  U134        0.0000
   2831  C6        15.2520   19.5210   14.5320 C.ar  134  U134        0.0000
   2832  OP1       12.8070   15.9760   17.9330 O.3   134  U134       -0.5000
   2833  OP2       14.7710   15.7630   16.2970 O.co2 134  U134       -0.5000
   2834  P          9.9670   18.6870   13.6070 P.3   135  C135        0.0000
   2835  C5'        9.4120   20.8570   12.2540 C.3   135  C135        0.0000
   2836  O5'       10.2020   19.6850   12.3870 O.3   135  C135        0.0000
   2837  C4'        9.9770   21.7610   11.1860 C.3   135  C135        0.0000
   2838  O4'       11.3440   22.1200   11.5320 O.3   135  C135        0.0000
   2839  C3'       10.1270   21.1760    9.7930 C.3   135  C135        0.0000
   2840  O3'        8.9030   21.1600    9.0710 O.3   135  C135        0.0000
   2841  C2'       11.1310   22.1410    9.1790 C.3   135  C135        0.0000
   2842  O2'       10.5590   23.3950    8.8640 O.3   135  C135        0.0000
   2843  C1'       12.1040   22.3140   10.3440 C.3   135  C135        0.0000
   2844  N1        13.1750   21.3040   10.2960 N.ar  135  C135        0.0000
   2845  C2        14.2610   21.5150    9.4430 C.ar  135  C135        0.0000
   2846  O2        14.3010   22.5590    8.7780 O.2   135  C135        0.0000
   2847  N3        15.2360   20.5780    9.3640 N.ar  135  C135        0.0000
   2848  C4        15.1520   19.4660   10.1020 C.ar  135  C135        0.0000
   2849  N4        16.1260   18.5570    9.9900 N.pl3 135  C135        0.0000
   2850  C5        14.0610   19.2330   10.9890 C.ar  135  C135        0.0000
   2851  C6        13.1060   20.1700   11.0550 C.ar  135  C135        0.0000
   2852  OP1        8.5020   18.5480   13.8170 O.3   135  C135       -0.5000
   2853  OP2       10.8000   17.4690   13.3970 O.co2 135  C135       -0.5000
   2854  P          8.6620   20.0310    7.9480 P.3   136  C136        0.0000
   2855  C5'        9.2800   21.7720    6.1010 C.3   136  C136        0.0000
   2856  O5'        9.5290   20.5160    6.7060 O.3   136  C136        0.0000
   2857  C4'       10.4000   22.1270    5.1590 C.3   136  C136        0.0000
   2858  O4'       11.6520   22.1570    5.8950 O.3   136  C136        0.0000
   2859  C3'       10.6750   21.1230    4.0550 C.3   136  C136        0.0000
   2860  O3'        9.7810   21.2700    2.9630 O.3   136  C136        0.0000
   2861  C2'       12.0980   21.4880    3.6630 C.3   136  C136        0.0000
   2862  O2'       12.1480   22.6410    2.8490 O.3   136  C136        0.0000
   2863  C1'       12.7150   21.7720    5.0350 C.3   136  C136        0.0000
   2864  N1        13.3690   20.5870    5.6110 N.ar  136  C136        0.0000
   2865  C2        14.6290   20.2110    5.1260 C.ar  136  C136        0.0000
   2866  O2        15.1510   20.8820    4.2280 O.2   136  C136        0.0000
   2867  N3        15.2400   19.1290    5.6460 N.ar  136  C136        0.0000
   2868  C4        14.6440   18.4300    6.6120 C.ar  136  C136        0.0000
   2869  N4        15.2910   17.3720    7.0990 N.pl3 136  C136        0.0000
   2870  C5        13.3590   18.7850    7.1230 C.ar  136  C136        0.0000
   2871  C6        12.7640   19.8620    6.6000 C.ar  136  C136        0.0000
   2872  OP1        7.2290   20.0950    7.5660 O.2   136  C136       -0.5000
   2873  OP2        9.2430   18.7480    8.4230 O.co2 136  C136       -0.5000
   2874  P          9.1410   19.9620    2.2870 P.3   137  G137        0.0000
   2875  C5'       11.1900   19.7320    0.6580 C.3   137  G137        0.0000
   2876  O5'       10.4010   19.1740    1.7080 O.3   137  G137        0.0000
   2877  C4'       12.4940   18.9770    0.5160 C.3   137  G137        0.0000
   2878  O4'       13.2310   19.0650    1.7620 O.3   137  G137        0.0000
   2879  C3'       12.3760   17.4830    0.2600 C.3   137  G137        0.0000
   2880  O3'       12.1900   17.2080   -1.1260 O.3   137  G137        0.0000
   2881  C2'       13.7240   16.9720    0.7570 C.3   137  G137        0.0000
   2882  O2'       14.7730   17.1730   -0.1670 O.3   137  G137        0.0000
   2883  C1'       13.9450   17.8610    1.9800 C.3   137  G137        0.0000
   2884  N1        15.0220   14.6810    5.7650 N.ar  137  G137        0.0000
   2885  C2        15.7830   15.0330    4.6830 C.ar  137  G137        0.0000
   2886  N2        16.9930   14.4590    4.5910 N.pl3 137  G137        0.0000
   2887  N3        15.3900   15.8840    3.7570 N.ar  137  G137        0.0000
   2888  C4        14.1530   16.3630    4.0020 C.ar  137  G137        0.0000
   2889  C5        13.3140   16.0750    5.0510 C.ar  137  G137        0.0000
   2890  C6        13.7470   15.1610    6.0370 C.ar  137  G137        0.0000
   2891  O6        13.1500   14.7760    7.0420 O.2   137  G137        0.0000
   2892  N7        12.1260   16.7830    4.9410 N.ar  137  G137        0.0000
   2893  C8        12.2620   17.4710    3.8400 C.ar  137  G137        0.0000
   2894  N9        13.4680   17.2610    3.2220 N.ar  137  G137        0.0000
   2895  OP1        8.3210   20.4230    1.1340 O.2   137  G137       -0.5000
   2896  OP2        8.5160   19.1270    3.3540 O.co2 137  G137       -0.5000
   2897  P         10.8580   16.4490   -1.6190 P.3   138  G138        0.0000
   2898  C5'       11.9480   14.0670   -1.4030 C.3   138  G138        0.0000
   2899  O5'       11.3760   15.0710   -2.2390 O.3   138  G138        0.0000
   2900  C4'       12.4920   12.9190   -2.2280 C.3   138  G138        0.0000
   2901  O4'       13.2750   12.0630   -1.3640 O.3   138  G138        0.0000
   2902  C3'       11.3850   12.0380   -2.8040 C.3   138  G138        0.0000
   2903  O3'       11.6490   11.6660   -4.1610 O.3   138  G138        0.0000
   2904  C2'       11.2270   10.8750   -1.8230 C.3   138  G138        0.0000
   2905  O2'       10.9680    9.6430   -2.4760 O.3   138  G138        0.0000
   2906  C1'       12.6220   10.8290   -1.1950 C.3   138  G138        0.0000
   2907  N1        15.8330    8.3860    1.7800 N.ar  138  G138        0.0000
   2908  C2        15.9430    8.7340    0.4580 C.ar  138  G138        0.0000
   2909  N2        17.0670    8.3590   -0.1640 N.pl3 138  G138        0.0000
   2910  N3        15.0190    9.3990   -0.2030 N.ar  138  G138        0.0000
   2911  C4        13.9530    9.6860    0.5720 C.ar  138  G138        0.0000
   2912  C5        13.7420    9.3870    1.8950 C.ar  138  G138        0.0000
   2913  C6        14.7480    8.6790    2.5980 C.ar  138  G138        0.0000
   2914  O6        14.7580    8.3260    3.7790 O.2   138  G138        0.0000
   2915  N7        12.5100    9.8690    2.3180 N.ar  138  G138        0.0000
   2916  C8        12.0070   10.4390    1.2560 C.ar  138  G138        0.0000
   2917  N9        12.8330   10.3510    0.1640 N.ar  138  G138        0.0000
   2918  OP1       10.2910   17.2700   -2.7180 O.2   138  G138       -0.5000
   2919  OP2       10.0260   16.1410   -0.4200 O.co2 138  G138       -0.5000
   2920  P         10.4390   11.3590   -5.1630 P.3   139  G139        0.0000
   2921  C5'       11.6410    9.0200   -5.3980 C.3   139  G139        0.0000
   2922  O5'       10.4470    9.7870   -5.4400 O.3   139  G139        0.0000
   2923  C4'       12.0740    8.6030   -6.7940 C.3   139  G139        0.0000
   2924  O4'       13.3340    7.9010   -6.6200 O.3   139  G139        0.0000
   2925  C3'       11.2150    7.6130   -7.5900 C.3   139  G139        0.0000
   2926  O3'       10.2030    8.2110   -8.4030 O.3   139  G139        0.0000
   2927  C2'       12.2530    6.9730   -8.4990 C.3   139  G139        0.0000
   2928  O2'       12.6520    7.8200   -9.5610 O.3   139  G139        0.0000
   2929  C1'       13.4140    6.8190   -7.5290 C.3   139  G139        0.0000
   2930  N1        14.6680    1.9310   -7.5430 N.ar  139  G139        0.0000
   2931  C2        14.8660    2.9030   -8.5020 C.ar  139  G139        0.0000
   2932  N2        15.4970    2.5250   -9.6220 N.pl3 139  G139        0.0000
   2933  N3        14.4730    4.1550   -8.3730 N.ar  139  G139        0.0000
   2934  C4        13.8520    4.3740   -7.1950 C.ar  139  G139        0.0000
   2935  C5        13.5970    3.4870   -6.1720 C.ar  139  G139        0.0000
   2936  C6        14.0300    2.1330   -6.3200 C.ar  139  G139        0.0000
   2937  O6        13.9060    1.1900   -5.5280 O.2   139  G139        0.0000
   2938  N7        12.9270    4.1180   -5.1280 N.ar  139  G139        0.0000
   2939  C8        12.7970    5.3530   -5.5330 C.ar  139  G139        0.0000
   2940  N9        13.3480    5.5720   -6.7760 N.ar  139  G139        0.0000
   2941  OP1       10.7520   12.0640   -6.4330 O.2   139  G139       -0.5000
   2942  OP2        9.1850   11.6650   -4.4270 O.co2 139  G139       -0.5000
   2943  P          9.0540    7.2800   -9.0750 P.3   140  C140        0.0000
   2944  C5'       10.0240    6.6830  -11.4440 C.3   140  C140        0.0000
   2945  O5'        9.8160    6.3090  -10.0860 O.3   140  C140        0.0000
   2946  C4'       10.5710    5.5150  -12.2310 C.3   140  C140        0.0000
   2947  O4'       11.7000    4.9550  -11.5050 O.3   140  C140        0.0000
   2948  C3'        9.6670    4.3040  -12.4120 C.3   140  C140        0.0000
   2949  O3'        8.7150    4.4680  -13.4600 O.3   140  C140        0.0000
   2950  C2'       10.6830    3.2230  -12.7570 C.3   140  C140        0.0000
   2951  O2'       11.1660    3.3020  -14.0820 O.3   140  C140        0.0000
   2952  C1'       11.8120    3.5700  -11.7940 C.3   140  C140        0.0000
   2953  N1        11.6640    2.8070  -10.5530 N.ar  140  C140        0.0000
   2954  C2        12.1280    1.4930  -10.5310 C.ar  140  C140        0.0000
   2955  O2        12.6640    1.0340  -11.5500 O.2   140  C140        0.0000
   2956  N3        11.9800    0.7540   -9.4060 N.ar  140  C140        0.0000
   2957  C4        11.3970    1.2880   -8.3320 C.ar  140  C140        0.0000
   2958  N4        11.2710    0.5220   -7.2460 N.pl3 140  C140        0.0000
   2959  C5        10.9170    2.6330   -8.3270 C.ar  140  C140        0.0000
   2960  C6        11.0730    3.3500   -9.4480 C.ar  140  C140        0.0000
   2961  OP1        8.2010    8.1920   -9.8860 O.2   140  C140       -0.5000
   2962  OP2        8.4370    6.4200   -8.0200 O.co2 140  C140       -0.5000
   2963  P          7.4030    3.5330  -13.4980 P.3   141  A141        0.0000
   2964  C5'        8.6630    1.7290  -14.9140 C.3   141  A141        0.0000
   2965  O5'        7.9810    2.0650  -13.7130 O.3   141  A141        0.0000
   2966  C4'        9.1360    0.2990  -14.8670 C.3   141  A141        0.0000
   2967  O4'       10.1190    0.1420  -13.8080 O.3   141  A141        0.0000
   2968  C3'        8.0820   -0.7260  -14.5010 C.3   141  A141        0.0000
   2969  O3'        7.2480   -1.0450  -15.6040 O.3   141  A141        0.0000
   2970  C2'        8.9430   -1.9000  -14.0540 C.3   141  A141        0.0000
   2971  O2'        9.5230   -2.6020  -15.1380 O.3   141  A141        0.0000
   2972  C1'       10.0390   -1.1720  -13.2770 C.3   141  A141        0.0000
   2973  N1        10.1240   -3.6520   -8.7830 N.ar  141  A141        0.0000
   2974  C2        10.4720   -4.0190  -10.0270 C.ar  141  A141        0.0000
   2975  N3        10.4210   -3.3200  -11.1590 N.ar  141  A141        0.0000
   2976  C4         9.9410   -2.0840  -10.9270 C.ar  141  A141        0.0000
   2977  C5         9.5410   -1.5620   -9.7080 C.ar  141  A141        0.0000
   2978  C6         9.6480   -2.4040   -8.5880 C.ar  141  A141        0.0000
   2979  N6         9.3080   -2.0410   -7.3550 N.pl3 141  A141        0.0000
   2980  N7         9.0940   -0.2570   -9.8560 N.ar  141  A141        0.0000
   2981  C8         9.2380   -0.0180  -11.1380 C.ar  141  A141        0.0000
   2982  N9         9.7470   -1.0800  -11.8460 N.ar  141  A141        0.0000
   2983  OP1        6.6380    3.9150  -14.7150 O.2   141  A141       -0.5000
   2984  OP2        6.7350    3.5670  -12.1710 O.co2 141  A141       -0.5000
   2985  P          5.6900   -1.3570  -15.3530 P.3   142  G142        0.0000
   2986  C5'        6.2710   -3.9050  -15.4840 C.3   142  G142        0.0000
   2987  O5'        5.6990   -2.8320  -14.7480 O.3   142  G142        0.0000
   2988  C4'        6.5530   -5.0860  -14.5830 C.3   142  G142        0.0000
   2989  O4'        7.5630   -4.7330  -13.5980 O.3   142  G142        0.0000
   2990  C3'        5.4140   -5.5980  -13.7180 C.3   142  G142        0.0000
   2991  O3'        4.4900   -6.3930  -14.4380 O.3   142  G142        0.0000
   2992  C2'        6.1770   -6.4350  -12.7070 C.3   142  G142        0.0000
   2993  O2'        6.6090   -7.6610  -13.2520 O.3   142  G142        0.0000
   2994  C1'        7.3770   -5.5270  -12.4350 C.3   142  G142        0.0000
   2995  N1         7.1700   -5.2380   -7.3980 N.ar  142  G142        0.0000
   2996  C2         7.5830   -6.2690   -8.2060 C.ar  142  G142        0.0000
   2997  N2         7.9730   -7.3870   -7.5900 N.pl3 142  G142        0.0000
   2998  N3         7.6100   -6.2080   -9.5190 N.ar  142  G142        0.0000
   2999  C4         7.1890   -5.0110   -9.9810 C.ar  142  G142        0.0000
   3000  C5         6.7600   -3.9150   -9.2690 C.ar  142  G142        0.0000
   3001  C6         6.7300   -3.9970   -7.8450 C.ar  142  G142        0.0000
   3002  O6         6.3740   -3.1410   -7.0250 O.2   142  G142        0.0000
   3003  N7         6.4120   -2.8770  -10.1270 N.ar  142  G142        0.0000
   3004  C8         6.6300   -3.3580  -11.3210 C.ar  142  G142        0.0000
   3005  N9         7.0880   -4.6540  -11.3020 N.ar  142  G142        0.0000
   3006  OP1        5.0340   -1.4010  -16.6840 O.2   142  G142       -0.5000
   3007  OP2        5.1930   -0.4020  -14.3260 O.co2 142  G142       -0.5000
   3008  P          2.9260   -6.3220  -14.0650 P.3   143  G143        0.0000
   3009  C5'        2.9780   -8.5740  -12.7390 C.3   143  G143        0.0000
   3010  O5'        2.8060   -7.1630  -12.7130 O.3   143  G143        0.0000
   3011  C4'        3.3490   -9.0980  -11.3760 C.3   143  G143        0.0000
   3012  O4'        4.3180   -8.2000  -10.7800 O.3   143  G143        0.0000
   3013  C3'        2.2670   -9.1500  -10.3110 C.3   143  G143        0.0000
   3014  O3'        1.4210  -10.2900  -10.4580 O.3   143  G143        0.0000
   3015  C2'        3.1080   -9.2810   -9.0480 C.3   143  G143        0.0000
   3016  O2'        3.5840  -10.5950   -8.8360 O.3   143  G143        0.0000
   3017  C1'        4.2800   -8.3550   -9.3730 C.3   143  G143        0.0000
   3018  N1         4.1380   -5.9530   -4.9530 N.ar  143  G143        0.0000
   3019  C2         4.3890   -7.2820   -5.2360 C.ar  143  G143        0.0000
   3020  N2         4.6240   -8.0940   -4.1850 N.pl3 143  G143        0.0000
   3021  N3         4.4090   -7.7810   -6.4590 N.ar  143  G143        0.0000
   3022  C4         4.1530   -6.8390   -7.3950 C.ar  143  G143        0.0000
   3023  C5         3.8910   -5.4970   -7.2260 C.ar  143  G143        0.0000
   3024  C6         3.8740   -4.9660   -5.9060 C.ar  143  G143        0.0000
   3025  O6         3.6630   -3.7960   -5.5460 O.2   143  G143        0.0000
   3026  N7         3.6820   -4.8800   -8.4530 N.ar  143  G143        0.0000
   3027  C8         3.8160   -5.8440   -9.3240 C.ar  143  G143        0.0000
   3028  N9         4.0950   -7.0570   -8.7410 N.ar  143  G143        0.0000
   3029  OP1        2.2120   -7.0670  -15.1430 O.2   143  G143       -0.5000
   3030  OP2        2.5550   -4.9070  -13.7720 O.co2 143  G143       -0.5000
   3031  P         -0.0720  -10.2640   -9.8460 P.3   144  A144        0.0000
   3032  C5'        0.6300  -11.6070   -7.7020 C.3   144  A144        0.0000
   3033  O5'        0.1270  -10.4030   -8.2700 O.3   144  A144        0.0000
   3034  C4'        0.9550  -11.3970   -6.2410 C.3   144  A144        0.0000
   3035  O4'        1.8680  -10.2700   -6.1270 O.3   144  A144        0.0000
   3036  C3'       -0.2070  -11.0100   -5.3360 C.3   144  A144        0.0000
   3037  O3'       -0.9500  -12.1440   -4.8820 O.3   144  A144        0.0000
   3038  C2'        0.5160  -10.3290   -4.1800 C.3   144  A144        0.0000
   3039  O2'        1.1080  -11.2360   -3.2720 O.3   144  A144        0.0000
   3040  C1'        1.6110   -9.5720   -4.9210 C.3   144  A144        0.0000
   3041  N1         1.1250   -4.7850   -3.1640 N.ar  144  A144        0.0000
   3042  C2         1.4460   -5.9350   -2.5640 C.ar  144  A144        0.0000
   3043  N3         1.5180   -7.1590   -3.0750 N.ar  144  A144        0.0000
   3044  C4         1.2080   -7.1450   -4.3830 C.ar  144  A144        0.0000
   3045  C5         0.8450   -6.0460   -5.1370 C.ar  144  A144        0.0000
   3046  C6         0.8090   -4.8070   -4.4770 C.ar  144  A144        0.0000
   3047  N6         0.4810   -3.6610   -5.0740 N.pl3 144  A144        0.0000
   3048  N7         0.5890   -6.4150   -6.4510 N.ar  144  A144        0.0000
   3049  C8         0.8110   -7.7070   -6.4630 C.ar  144  A144        0.0000
   3050  N9         1.2130   -8.2090   -5.2510 N.ar  144  A144        0.0000
   3051  OP1       -0.7460  -11.4970  -10.3260 O.2   144  A144       -0.5000
   3052  OP2       -0.6890   -8.9320  -10.1060 O.co2 144  A144       -0.5000
   3053  P         -2.4410  -11.9440   -4.2940 P.3   145  A23145      0.0000
   3054  PC        -5.4780  -10.3540    0.5850 P.3   145  A23145      0.0000
   3055  C5'       -1.7450  -10.5280   -2.1610 C.3   145  A23145      0.0000
   3056  O5'       -2.3690  -10.5820   -3.4540 O.3   145  A23145      0.0000
   3057  C4'       -2.5700   -9.6800   -1.2210 C.3   145  A23145      0.0000
   3058  O4'       -2.3430   -8.2670   -1.3920 O.3   145  A23145      0.0000
   3059  C3'       -4.0520   -9.8820   -1.4180 C.3   145  A23145      0.0000
   3060  O3'       -4.4140  -10.9060   -0.4810 O.3   145  A23145      0.0000
   3061  C2'       -4.6800   -8.5740   -0.9530 C.3   145  A23145      0.0000
   3062  O2'       -5.2050   -8.7870    0.3660 O.3   145  A23145      0.0000
   3063  C1'       -3.5360   -7.5580   -1.0880 C.3   145  A23145      0.0000
   3064  N1        -1.5940   -3.4940   -3.4670 N.ar  145  A23145      0.0000
   3065  O1C       -6.8250  -10.7340    0.1140 O.co2 145  A23145     -0.5000
   3066  C2        -1.2750   -4.1110   -2.3230 C.ar  145  A23145      0.0000
   3067  O2C       -5.0680  -10.7630    1.9450 O.3   145  A23145     -0.5000
   3068  N3        -1.8630   -5.1360   -1.7310 N.ar  145  A23145      0.0000
   3069  C4        -2.9250   -5.5380   -2.4420 C.ar  145  A23145      0.0000
   3070  C5        -3.3890   -4.9970   -3.6250 C.ar  145  A23145      0.0000
   3071  C6        -2.6690   -3.9260   -4.1570 C.ar  145  A23145      0.0000
   3072  N6        -2.9840   -3.3200   -5.3050 N.pl3 145  A23145      0.0000
   3073  N7        -4.5270   -5.6650   -4.0570 N.ar  145  A23145      0.0000
   3074  C8        -4.7090   -6.5920   -3.1490 C.ar  145  A23145      0.0000
   3075  N9        -3.7460   -6.5980   -2.1670 N.ar  145  A23145      0.0000
   3076  OP1       -2.7130  -13.0660   -3.3540 O.co2 145  A23145     -0.5000
   3077  OP2       -3.3400  -11.7290   -5.4630 O.3   145  A23145     -0.5000
   3078 MG         46.0410   13.5390   24.3130 Mg    201  MG201       0.0000
   3079 MG         52.7340   22.6040   20.9700 Mg    202  MG202       0.0000
   3080 MG         50.7480    9.8190   10.7800 Mg    203  MG203       0.0000
   3081 MG          7.5240   -1.1660   -1.9800 Mg    204  MG204       0.0000
   3082  O         45.4810   14.6590   23.0020 O.3   303  HOH303      0.0000
   3083  O         45.4970   12.8700   26.0390 O.3   301  HOH301      0.0000
   3084  O         47.3430   13.0110   22.8170 O.3   302  HOH302      0.0000
   3085  O         69.3640   13.3850   32.6980 O.3   304  HOH304      0.0000
   3086  O         66.0320   11.3620   34.9590 O.3   305  HOH305      0.0000
   3087  O         58.1270   18.2260   20.2700 O.3   306  HOH306      0.0000
   3088  O         46.8790   22.6920   25.6570 O.3   307  HOH307      0.0000
   3089  O         50.6420   10.6270   40.7190 O.3   308  HOH308      0.0000
   3090  O         34.7710   26.0530   26.8100 O.3   309  HOH309      0.0000
   3091  O         35.3930   22.4000   31.5990 O.3   310  HOH310      0.0000
   3092  O         32.1920   26.2560   30.4490 O.3   311  HOH311      0.0000
   3093  O         30.4010   17.1700   22.5320 O.3   312  HOH312      0.0000
   3094  O         30.4310   25.1690   22.1100 O.3   313  HOH313      0.0000
   3095  O         41.7960    7.1980   13.7920 O.3   314  HOH314      0.0000
   3096  O         18.5430   -6.6520    2.4190 O.3   315  HOH315      0.0000
   3097  O         16.9180    7.8060   -6.1230 O.3   316  HOH316      0.0000
@<TRIPOS>BOND
     1    62  3078    1
     2   699  3078    1
     3   734  3078    1
     4   757  3078    1
     5  1337  3080    1
     6  1652  3081    1
     7  1653  3081    1
     8  3037  3053    1
     9  3053  3056    1
    10  3053  3076    2
    11  3053  3077    1
    12  3054  3060    1
    13  3054  3062    1
    14  3054  3065    2
    15  3054  3067    1
    16  3055  3057    1
    17  3055  3056    1
    18  3057  3058    1
    19  3057  3059    1
    20  3058  3063    1
    21  3059  3060    1
    22  3059  3061    1
    23  3061  3062    1
    24  3061  3063    1
    25  3063  3075    1
    26  3064  3066   ar
    27  3064  3071   ar
    28  3066  3068   ar
    29  3068  3069   ar
    30  3069  3070   ar
    31  3069  3075   ar
    32  3070  3071   ar
    33  3070  3073   ar
    34  3071  3072    1
    35  3073  3074   ar
    36  3074  3075   ar
    37  3078  3082    1
    38  3078  3083    1
    39  3078  3084    1
    40  3006  2985    2
    41  2969  2985    1
    42  2969  2968    1
    43  2986  2987    1
    44  2986  2988    1
    45  2985  2987    1
    46  2985  3007    1
    47  3029  3008    2
    48  2971  2970    1
    49  2964  2966    1
    50  2964  2965    1
    51  2966  2968    1
    52  2966  2967    1
    53  2983  2963    2
    54  2988  2990    1
    55  2988  2989    1
    56  2968  2970    1
    57  2991  3008    1
    58  2991  2990    1
    59  2951  2950    1
    60  3008  3030    1
    61  3008  3010    1
    62  2970  2972    1
    63  2967  2972    1
    64  2990  2992    1
    65  2965  2963    1
    66  2989  2994    1
    67  2963  2949    1
    68  2963  2984    1
    69  2949  2948    1
    70  2972  2982    1
    71  2993  2992    1
    72  2950  2948    1
    73  2950  2952    1
    74  3009  3010    1
    75  3009  3011    1
    76  2992  2994    1
    77  2994  3005    1
    78  2948  2946    1
    79  2946  2947    1
    80  2946  2944    1
    81  1772  1771    1
    82  2982  2981   ar
    83  2982  2976   ar
    84  2952  2947    1
    85  2952  2953    1
    86  2955  2954    2
    87  1749  1748    1
    88  2944  2945    1
    89  3011  3012    1
    90  3011  3013    1
    91  3004  3005   ar
    92  3004  3003   ar
    93  3005  2999   ar
    94  1767  1768    1
    95  1767  1765    1
    96  1767  1769    1
    97  2975  2976   ar
    98  2975  2974   ar
    99  1768  1773    1
   100  2981  2980   ar
   101  1753  1752    1
   102  2976  2977   ar
   103  1770  1769    1
   104  1770  1784    1
   105  1773  1771    1
   106  1773  1774    1
   107  1771  1769    1
   108  1765  1766    1
   109  3012  3017    1
   110  1805  1784    2
   111  1785  1787    1
   112  1785  1786    1
   113  2953  2954   ar
   114  2953  2960   ar
   115  2954  2956   ar
   116  3014  3013    1
   117  3014  3031    1
   118  3051  3031    2
   119  3013  3015    1
   120  1754  1752   ar
   121  1754  1755   ar
   122  1776  1775    2
   123  1787  1788    1
   124  1787  1789    1
   125  1748  1750    1
   126  1748  1746    1
   127  3003  3000   ar
   128  3052  3031    1
   129  2945  2943    1
   130  1750  1745    1
   131  1750  1761    1
   132  1752  1751   ar
   133  2974  2973   ar
   134  2999  2998   ar
   135  2999  3000   ar
   136  1784  1786    1
   137  1784  1806    1
   138  1788  1793    1
   139  2961  2943    2
   140  2980  2977   ar
   141  3031  3033    1
   142  1745  1744    1
   143  2977  2978   ar
   144  2932  2931    1
   145  1774  1775   ar
   146  1774  1781   ar
   147  2928  2927    1
   148  2998  2996   ar
   149  1747  1746    1
   150  1747  1764    1
   151  1744  1746    1
   152  1744  1742    1
   153  2960  2959   ar
   154  1766  1764    1
   155  2956  2957   ar
   156  1792  1791    1
   157  3017  3015    1
   158  3017  3028    1
   159  1775  1777   ar
   160  3027  3028   ar
   161  3027  3026   ar
   162  3000  3001   ar
   163  1782  1764    2
   164  1790  1789    1
   165  1790  1807    1
   166  1755  1761   ar
   167  1755  1756   ar
   168  2943  2926    1
   169  2943  2962    1
   170  3015  3016    1
   171  1761  1760   ar
   172  1793  1791    1
   173  1793  1804    1
   174  1789  1791    1
   175  1751  1757   ar
   176  2973  2978   ar
   177  1764  1783    1
   178  3028  3022   ar
   179  1781  1780   ar
   180  1827  1807    2
   181  2978  2979    1
   182  2931  2933   ar
   183  2931  2930   ar
   184  2927  2925    1
   185  2927  2929    1
   186  3026  3023   ar
   187  2926  2925    1
   188  2933  2934   ar
   189  1733  1732    2
   190  2957  2959   ar
   191  2957  2958    1
   192  3033  3032    1
   193  1742  1743    1
   194  2996  2997    1
   195  2996  2995   ar
   196  1777  1778   ar
   197  1807  1828    1
   198  1807  1809    1
   199  1729  1728    1
   200  1756  1757   ar
   201  1756  1759   ar
   202  3001  2995   ar
   203  3001  3002    2
   204  1804  1803   ar
   205  1804  1798   ar
   206  3032  3034    1
   207  1760  1759   ar
   208  1757  1758    2
   209  2925  2923    1
   210  1808  1809    1
   211  1808  1810    1
   212  2930  2936   ar
   213  2929  2940    1
   214  2929  2924    1
   215  1803  1802   ar
   216  1780  1778   ar
   217  3022  3023   ar
   218  3022  3021   ar
   219  3023  3024   ar
   220  1778  1779    1
   221  2934  2940   ar
   222  2934  2935   ar
   223  1732  1734   ar
   224  1732  1731   ar
   225  1510  1492    2
   226  1743  1741    1
   227  1728  1730    1
   228  1728  1726    1
   229  2923  2924    1
   230  2923  2921    1
   231  2940  2939   ar
   232  1734  1735   ar
   233  1798  1797   ar
   234  1798  1799   ar
   235  1656  1655    2
   236  1730  1731    1
   237  1730  1725    1
   238  1797  1795   ar
   239  1810  1811    1
   240  1810  1812    1
   241  3049  3048   ar
   242  3049  3050   ar
   243  3021  3019   ar
   244  3048  3045   ar
   245  2941  2920    2
   246  2936  2935   ar
   247  2936  2937    2
   248  1802  1799   ar
   249  1811  1816    1
   250  1478  1492    1
   251  1478  1477    1
   252  3034  3035    1
   253  3034  3036    1
   254  1731  1738   ar
   255  2935  2938   ar
   256  3035  3040    1
   257  3024  3025    2
   258  3024  3018   ar
   259  1492  1494    1
   260  1492  1511    1
   261  1473  1475    1
   262  1473  1474    1
   263  1799  1800   ar
   264  1493  1494    1
   265  1493  1495    1
   266  1490  1472    2
   267  1475  1477    1
   268  1475  1476    1
   269  1480  1479    1
   270  1741  1727    1
   271  1741  1762    2
   272  1741  1763    1
   273  1655  1657    1
   274  1655  1654   am
   275  1727  1726    1
   276  1725  1724    1
   277  1726  1724    1
   278  2939  2938   ar
   279  1795  1796    1
   280  1795  1794   ar
   281  2922  2921    1
   282  2922  2920    1
   283  1657  1658    2
   284  1735  1736    2
   285  1735  1737   ar
   286  3036  3037    1
   287  3036  3038    1
   288  3050  3040    1
   289  3050  3044   ar
   290  3019  3018   ar
   291  3019  3020    1
   292  1477  1479    1
   293  1533  1512    2
   294  2920  2942    1
   295  2920  2903    1
   296  1812  1813    1
   297  1812  1814    1
   298  3045  3046   ar
   299  3045  3044   ar
   300  1813  1829    1
   301  1724  1722    1
   302  3047  3046    1
   303  1713  1712    2
   304  1816  1814    1
   305  1816  1826    1
   306  3040  3038    1
   307  1738  1737   ar
   308  1714  1712   ar
   309  1714  1715   ar
   310  1495  1496    1
   311  1495  1497    1
   312  1825  1826   ar
   313  1825  1824   ar
   314  1479  1481    1
   315  1476  1481    1
   316  1474  1472    1
   317  1800  1794   ar
   318  1800  1801    2
   319  1716  1715    1
   320  1472  1458    1
   321  1472  1491    1
   322  3046  3041   ar
   323  1498  1512    1
   324  1498  1497    1
   325  1815  1814    1
   326  1460  1459    1
   327  1458  1457    1
   328  3044  3043   ar
   329  1847  1829    2
   330  1712  1711   ar
   331  1826  1820   ar
   332  1848  1829    1
   333  1658  1651    1
   334  3038  3039    1
   335  2903  2902    1
   336  1829  1831    1
   337  1512  1534    1
   338  1512  1514    1
   339  1715  1717   ar
   340  1481  1482    1
   341  1824  1821   ar
   342  1496  1501    1
   343  1497  1499    1
   344  1722  1723    1
   345  1659  1641    2
   346  1696  1695    1
   347  1459  1457    1
   348  1459  1461    1
   349  1457  1455    1
   350  1820  1821   ar
   351  1820  1819   ar
   352  1651  1650    1
   353  1500  1499    1
   354  3041  3042   ar
   355  1676  1675    2
   356  3043  3042   ar
   357  1455  1453    1
   358  1455  1456    1
   359  1821  1822   ar
   360  1711  1710    1
   361  1711  1718   ar
   362  1723  1721    1
   363  1633  1632    2
   364  2902  2900    1
   365  2902  2904    1
   366  1709  1708    1
   367  1514  1513    1
   368  1499  1501    1
   369  2918  2897    2
   370  1831  1830    1
   371  1513  1515    1
   372  1660  1641    1
   373  1717  1718   ar
   374  1482  1489   ar
   375  1482  1483   ar
   376  1501  1502    1
   377  1694  1695   ar
   378  1694  1692   ar
   379  1453  1454    1
   380  1708  1710    1
   381  1708  1706    1
   382  2905  2904    1
   383  1819  1818   ar
   384  1634  1632   ar
   385  1634  1635   ar
   386   945   944    1
   387  1710  1705    1
   388  1641  1643    1
   389  1641  1627    1
   390  1695  1697   ar
   391  1830  1832    1
   392  2899  2897    1
   393  2899  2898    1
   394  2900  2898    1
   395  2900  2901    1
   396  1489  1488   ar
   397  1632  1631   ar
   398  1461  1456    1
   399  1461  1462    1
   400  1629  1628    1
   401  1509  1502   ar
   402  1509  1508   ar
   403  1636  1635    1
   404  1484  1483    2
   405  1650  1645    1
   406  1650  1648    1
   407  1675  1677   ar
   408  1675  1674   ar
   409  1822  1823    1
   410  1822  1817   ar
   411  1645  1644    1
   412  2904  2906    1
   413  1643  1642    1
   414  1628  1626    1
   415  1628  1630    1
   416  1635  1637   ar
   417  1693  1692    2
   418  2897  2880    1
   419  2897  2919    1
   420  1502  1503   ar
   421  1483  1485   ar
   422  1464  1463    2
   423  1470  1452    2
   424  1818  1817   ar
   425  1692  1691   ar
   426  1554  1535    2
   427  1454  1452    1
   428  2901  2906    1
   429  1721  1740    2
   430  1721  1739    1
   431  1721  1707    1
   432  1845  1846   ar
   433  1845  1843   ar
   434  1515  1516    1
   435  1515  1517    1
   436  1627  1626    1
   437  1508  1506   ar
   438  2906  2917    1
   439  1677  1678   ar
   440   961   963    1
   441   961   962    1
   442  1674  1672   ar
   443  1706  1707    1
   444  1706  1704    1
   445  1553  1535    1
   446  2880  2879    1
   447  1833  1832    1
   448  1833  1838    1
   449  1846  1839   ar
   450  1697  1698   ar
   451  1705  1704    1
   452   943   942    1
   453   943   960    1
   454   944   946    1
   455   944   942    1
   456   940   941    1
   457   940   942    1
   458   940   938    1
   459   926   925    1
   460  1631  1630    1
   461  1631  1638   ar
   462  1832  1834    1
   463   978   960    2
   464  1488  1486   ar
   465  1988  1989   ar
   466  1988  1987   ar
   467  1462  1463   ar
   468  1462  1469   ar
   469  1626  1624    1
   470   941   946    1
   471   946   957    1
   472   963   964    1
   473   963   965    1
   474   922   921    1
   475  1630  1625    1
   476  1535  1518    1
   477  1535  1537    1
   478  1518  1517    1
   479  1966  1965    1
   480  1463  1465   ar
   481  1648  1649    1
   482  1648  1646    1
   483  1516  1521    1
   484  1452  1438    1
   485  1452  1471    1
   486  1644  1642    1
   487  1644  1646    1
   488  1989  1990   ar
   489  1844  1843    1
   490  1637  1638   ar
   491  1517  1519    1
   492  1440  1439    1
   493  1843  1842   ar
   494   998   980    2
   495   938   939    1
   496  1485  1486   ar
   497  1987  1992   ar
   498   966   965    1
   499   966   980    1
   500  1704  1702    1
   501  1503  1504    2
   502  1503  1505   ar
   503  2910  2908   ar
   504  2910  2911   ar
   505   964   969    1
   506  1691  1698   ar
   507  1691  1690    1
   508  2882  2881    1
   509  2909  2908    1
   510   960   962    1
   511   960   979    1
   512  1839  1838    1
   513  1839  1840   ar
   514   903   902    1
   515   968   967    1
   516   949   948    1
   517  1438  1437    1
   518   950   948   ar
   519   950   951   ar
   520  1486  1487    1
   521  1531  1530   ar
   522  1531  1532   ar
   523  1834  1835    1
   524  1834  1836    1
   525   925   927   ar
   526   925   924   ar
   527   927   928   ar
   528  1616  1615    2
   529  1469  1468   ar
   530  1838  1836    1
   531  1678  1671   ar
   532  1985  1984    1
   533  2917  2911   ar
   534  2917  2916   ar
   535  1506  1505   ar
   536  1506  1507    2
   537  1672  1673    2
   538  1672  1671   ar
   539  2879  2877    1
   540  2879  2881    1
   541   965   967    1
   542  1646  1647    1
   543  2007  2006    1
   544  2908  2907   ar
   545   981   982    1
   546   981   983    1
   547  1965  1964   ar
   548  1965  1967   ar
   549   921   923    1
   550   921   919    1
   551  2877  2875    1
   552  2877  2878    1
   553   957   951   ar
   554   957   956   ar
   555  1624  1625    1
   556  1624  1622    1
   557  2911  2912   ar
   558   980   982    1
   559   980   999    1
   560  1465  1466   ar
   561  1439  1437    1
   562  1439  1441    1
   563  1530  1527   ar
   564   948   947   ar
   565  1842  1840   ar
   566  1835  1849    1
   567  2875  2876    1
   568  1964  1970   ar
   569  1990  1996   ar
   570  1990  1991   ar
   571   969   967    1
   572   969   970    1
   573  2881  2883    1
   574   923   918    1
   575   923   934    1
   576  1521  1519    1
   577  1521  1532    1
   578  1840  1841    2
   579  2003  2002    1
   580  2003  2008    1
   581   951   952   ar
   582  1671  1670    1
   583  1537  1536    1
   584  1992  1991   ar
   585  1992  1993    1
   586  1018  1000    2
   587  1614  1615   ar
   588  1614  1612   ar
   589  1690  1688    1
   590  1690  1685    1
   591  1519  1520    1
   592  1615  1617   ar
   593  1986  1984    1
   594  1986  1996    1
   595  1986  1981    1
   596  1532  1526   ar
   597  2002  2000    1
   598  2002  2004    1
   599  1595  1594    2
   600   939   937    1
   601  1437  1435    1
   602  1836  1837    1
   603  1703  1702    1
   604  1703  1701    1
   605  1868  1849    2
   606  2895  2874    2
   607  1688  1689    1
   608  1688  1686    1
   609   924   930   ar
   610  1984  1982    1
   611  2008  2006    1
   612  2008  2019    1
   613  2916  2915   ar
   614   902   901   ar
   615   902   904   ar
   616  1647  1661    1
   617  1468  1466   ar
   618   983   984    1
   619   983   985    1
   620   928   934   ar
   621   928   929   ar
   622  1444  1443    2
   623  1967  1968   ar
   624   920   919    1
   625   920   937    1
   626   918   917    1
   627  1864  1863    1
   628  1996  1995   ar
   629  1991  1994   ar
   630  2000  2001    1
   631  1466  1467    1
   632  2006  2004    1
   633  1551  1552   ar
   634  1551  1549   ar
   635  1849  1867    1
   636  1849  1851    1
   637   934   933   ar
   638   956   955   ar
   639   919   917    1
   640  1572  1571    2
   641  2876  2874    1
   642   917   915    1
   643  1613  1612    2
   644  1622  1623    1
   645  2878  2883    1
   646  2907  2913   ar
   647  1970  1971    2
   648  1970  1969   ar
   649  1981  1980    1
   650   958   937    2
   651  1865  1863   ar
   652  1865  1866   ar
   653   901   907   ar
   654  1623  1621    1
   655  1536  1538    1
   656  1550  1549    1
   657  1612  1611   ar
   658  1441  1436    1
   659  1441  1442    1
   660  2912  2915   ar
   661  2912  2913   ar
   662  2005  2004    1
   663  2005  2022    1
   664   904   905   ar
   665   947   953   ar
   666  2883  2894    1
   667  1435  1436    1
   668  1435  1433    1
   669  1527  1526   ar
   670  1527  1528   ar
   671  1680  1661    2
   672   937   959    1
   673  1577  1555    2
   674   970   977   ar
   675   970   971   ar
   676  1594  1588   ar
   677  1594  1593   ar
   678  1617  1618   ar
   679  2023  2025    1
   680  2023  2024    1
   681  1685  1684    1
   682  1863  1862   ar
   683   984   989    1
   684   952   955   ar
   685   952   953   ar
   686  1720  1701    2
   687  1686  1687    1
   688  1686  1684    1
   689   986   985    1
   690   986  1000    1
   691  1526  1525   ar
   692   985   987    1
   693  1552  1545   ar
   694  2874  2860    1
   695  2874  2896    1
   696  1000  1019    1
   697  1000  1002    1
   698  1670  1665    1
   699  1670  1668    1
   700   977   976   ar
   701  1588  1589   ar
   702  1443  1442   ar
   703  1443  1445   ar
   704  2025  2026    1
   705  2025  2027    1
   706  2019  2013   ar
   707  2019  2018   ar
   708  1549  1548   ar
   709  1661  1663    1
   710  1661  1679    1
   711  2026  2031    1
   712   930   929   ar
   713   930   931    2
   714  1701  1687    1
   715  1701  1719    1
   716  1980  1982    1
   717  1980  1978    1
   718   929   932   ar
   719  1968  1969   ar
   720  1968  1974   ar
   721  1663  1662    1
   722  2012  2013   ar
   723  2012  2010   ar
   724  1982  1983    1
   725  1866  1859   ar
   726  1995  1994   ar
   727  2913  2914    2
   728  1983  1999    1
   729  1700  1681    2
   730   972   971    2
   731  1442  1449   ar
   732  1969  1972   ar
   733  2001  1999    1
   734  1665  1664    1
   735   953   954    2
   736  2862  2861    1
   737  1015  1014    2
   738  1668  1666    1
   739  1668  1669    1
   740  2043  2022    2
   741  1571  1570   ar
   742  1571  1565   ar
   743  1611  1618   ar
   744  1611  1610    1
   745   971   973   ar
   746  2860  2859    1
   747  1573  1570   ar
   748  1573  1574   ar
   749  1851  1850    1
   750  2013  2014   ar
   751   933   932   ar
   752  2011  2010    1
   753  1640  1621    2
   754  1433  1434    1
   755   915   916    1
   756  1529  1528    2
   757  1528  1522   ar
   758  1684  1682    1
   759  1593  1596   ar
   760  1593  1592   ar
   761   899   898    1
   762  1683  1681    1
   763  1683  1682    1
   764  1445  1446   ar
   765  2018  2017   ar
   766  2024  2022    1
   767  1862  1860   ar
   768  2022  2044    1
   769   907   908    2
   770   907   906   ar
   771  1666  1664    1
   772  1666  1667    1
   773  1621  1639    1
   774  1621  1607    1
   775  2894  2893   ar
   776  2894  2888   ar
   777  1538  1539    1
   778  1538  1540    1
   779  1596  1597   ar
   780  2030  2029    1
   781   905   906   ar
   782   905   911   ar
   783  1014  1013   ar
   784  1014  1016   ar
   785  1958  1963    1
   786  1958  1957    1
   787  2010  2009   ar
   788  2020  1999    2
   789  1002  1001    1
   790  1555  1576    1
   791  1555  1541    1
   792  1555  1557    1
   793  1041  1020    2
   794  1608  1609    1
   795  1608  1610    1
   796  1608  1606    1
   797  2031  2029    1
   798  2031  2042    1
   799   879   880   ar
   800   879   884   ar
   801  1539  1544    1
   802  1525  1523   ar
   803  1421  1420    1
   804  1886  1885    2
   805  1013  1011   ar
   806  1589  1590    1
   807  1589  1591   ar
   808  1570  1569   ar
   809   989   987    1
   810   989   990    1
   811  1999  2021    1
   812   976   974   ar
   813  1540  1541    1
   814  1540  1542    1
   815   880   881   ar
   816   987   988    1
   817  1974  1963    1
   818  1974  1973   ar
   819  1545  1544    1
   820  1545  1546   ar
   821  1859  1860   ar
   822  1859  1858    1
   823  2861  2859    1
   824  2861  2863    1
   825  1016  1017   ar
   826  1664  1662    1
   827  2887  2888   ar
   828  2887  2885   ar
   829  1434  1432    1
   830  1681  1667    1
   831  1681  1699    1
   832  1548  1546   ar
   833  2027  2028    1
   834  2027  2029    1
   835  2028  2045    1
   836  1565  1566   ar
   837  1978  1979    1
   838  1449  1448   ar
   839  2893  2892   ar
   840  1963  1961    1
   841  1008  1007    1
   842  1007  1005    1
   843  1007  1009    1
   844  1610  1605    1
   845  1853  1858    1
   846  1853  1852    1
   847  1850  1852    1
   848   898   900    1
   849   898   896    1
   850  1860  1861    2
   851   906   909   ar
   852  1011  1012    2
   853  1011  1010   ar
   854  1574  1575   ar
   855  2888  2889   ar
   856  1972  1973   ar
   857  1606  1607    1
   858  1606  1604    1
   859  2859  2857    1
   860   900   911    1
   861   900   895    1
   862  1957  1955    1
   863  1957  1959    1
   864  2014  2017   ar
   865  2014  2015   ar
   866   916   914    1
   867   973   974   ar
   868  1017  1010   ar
   869  1600  1578    2
   870  1592  1591   ar
   871  1592  1598   ar
   872  2866  2865    2
   873  1446  1448   ar
   874  1446  1447    1
   875   911   910   ar
   876   885   884    1
   877  1522  1523   ar
   878  1010  1009    1
   879  1544  1542    1
   880   990   997   ar
   881   990   991   ar
   882  1557  1556    1
   883  1546  1547    2
   884  1597  1598   ar
   885  2009  2015   ar
   886  2042  2041   ar
   887  2042  2036   ar
   888  1523  1524    1
   889   884   883   ar
   890  1005  1006    1
   891  1005  1003    1
   892  1858  1856    1
   893   974   975    2
   894  1420  1419   ar
   895  1420  1422   ar
   896   997   996   ar
   897  2886  2885    1
   898  1620  1601    2
   899  1979  1977    1
   900  1450  1432    2
   901  1885  1879   ar
   902  1885  1884   ar
   903  2885  2884   ar
   904  1001  1003    1
   905  1419  1425   ar
   906   881   882   ar
   907  2041  2040   ar
   908  1955  1956    1
   909  1542  1543    1
   910  1960  1959    1
   911  1960  1977    1
   912  1852  1854    1
   913   992   991    2
   914  2065  2045    2
   915  1020  1006    1
   916  1020  1040    1
   917  1020  1022    1
   918  1569  1575   ar
   919  1569  1568   ar
   920  1009  1004    1
   921  2015  2016    2
   922  2892  2889   ar
   923   991   993   ar
   924  1432  1451    1
   925  1432  1415    1
   926  1598  1587    1
   927  2863  2864    1
   928  2863  2858    1
   929  2889  2890   ar
   930  1605  1604    1
   931  1959  1961    1
   932  1566  1568   ar
   933  1566  1567    1
   934  2865  2864   ar
   935  2865  2867   ar
   936  2045  2047    1
   937  2045  2066    1
   938  1575  1564    1
   939  1603  1601    1
   940  1603  1602    1
   941  2857  2858    1
   942  2857  2855    1
   943  1021  1022    1
   944  1021  1023    1
   945   895   894    1
   946  1961  1962    1
   947  1887  1884   ar
   948  1887  1888   ar
   949  2046  2047    1
   950  2046  2048    1
   951  1422  1423   ar
   952   909   910   ar
   953   996   994   ar
   954  1879  1880   ar
   955  2036  2035   ar
   956  2036  2037   ar
   957  1604  1602    1
   958  1003  1004    1
   959  2035  2033   ar
   960   896   897    1
   961   896   894    1
   962   864   863    1
   963  1884  1883   ar
   964  1318  1300    2
   965   897   914    1
   966   914   935    2
   967   914   936    1
   968  2864  2871   ar
   969  1578  1580    1
   970  1578  1599    1
   971  1578  1561    1
   972  2867  2868   ar
   973  1977  1998    2
   974  1977  1997    1
   975  1601  1619    1
   976  1601  1584    1
   977  1425  1426    2
   978  1425  1424   ar
   979   883   882   ar
   980   883   886   ar
   981  2040  2037   ar
   982   993   994   ar
   983  2884  2890   ar
   984  1556  1558    1
   985   882   888   ar
   986  1854  1856    1
   987  1854  1855    1
   988  1956  1954    1
   989   894   892    1
   990  1856  1857    1
   991  1580  1579    1
   992   994   995    2
   993  2890  2891    2
   994  1976  1954    2
   995  1560  1561    1
   996  1560  1558    1
   997  1560  1562    1
   998  2049  2048    1
   999  2049  2054    1
  1000  1415  1414    1
  1001  2855  2856    1
  1002  2048  2050    1
  1003  1417  1416    1
  1004  2037  2038   ar
  1005  1023  1024    1
  1006  1023  1025    1
  1007  1585  1583    1
  1008  1585  1587    1
  1009  1585  1586    1
  1010  1298  1277    2
  1011  1583  1584    1
  1012  1583  1581    1
  1013  1416  1414    1
  1014  1416  1418    1
  1015  1423  1424   ar
  1016  1423  1429   ar
  1017  1587  1582    1
  1018  1024  1029    1
  1019  2033  2034    1
  1020  2033  2032   ar
  1021  1888  1889   ar
  1022  1559  1564    1
  1023  1559  1558    1
  1024  1564  1562    1
  1025  1424  1427   ar
  1026  2871  2870   ar
  1027  1060  1042    2
  1028  2868  2869    1
  1029  2868  2870   ar
  1030   863   862   ar
  1031   863   865   ar
  1032  1880  1881    1
  1033  1880  1882   ar
  1034  1562  1563    1
  1035  2856  2854    1
  1036  1414  1412    1
  1037   862   860   ar
  1038  2743  2742    2
  1039  1883  1889   ar
  1040  1883  1882   ar
  1041  1954  1938    1
  1042  1954  1975    1
  1043  1341  1320    2
  1044  1038  1037   ar
  1045  1038  1039   ar
  1046  1300  1319    1
  1047  1300  1283    1
  1048  1300  1302    1
  1049  1940  1939    1
  1050  1582  1581    1
  1051   886   887   ar
  1052  1855  1869    1
  1053   888   878    1
  1054   888   887   ar
  1055  2038  2032   ar
  1056  2038  2039    2
  1057  1579  1581    1
  1058  1891  1869    2
  1059  1037  1034   ar
  1060  1429  1418    1
  1061  1429  1428   ar
  1062  2054  2064    1
  1063  2054  2052    1
  1064   892   893    1
  1065  1889  1878    1
  1066  1283  1282    1
  1067  1418  1413    1
  1068  1938  1937    1
  1069  2872  2854    2
  1070  2050  2051    1
  1071  2050  2052    1
  1072  1025  1026    1
  1073  1025  1027    1
  1074  1342  1320    1
  1075   877   876    1
  1076  2742  2741   ar
  1077  2742  2736   ar
  1078   878   876    1
  1079   878   873    1
  1080  1029  1039    1
  1081  1029  1027    1
  1082  2063  2064   ar
  1083  2063  2062   ar
  1084  1427  1428   ar
  1085  1039  1033   ar
  1086  1278  1279    1
  1087  1278  1280    1
  1088  1277  1260    1
  1089  1277  1279    1
  1090  1277  1299    1
  1091   876   874    1
  1092  1939  1937    1
  1093  1939  1941    1
  1094   865   866   ar
  1095  2051  2067    1
  1096   893   891    1
  1097  2744  2741   ar
  1098  2744  2745   ar
  1099  1301  1302    1
  1100  1301  1303    1
  1101  1320  1306    1
  1102  1320  1322    1
  1103  1383  1382    2
  1104  2064  2058   ar
  1105   860   861    2
  1106   860   859   ar
  1107  2854  2873    1
  1108  2854  2840    1
  1109  1042  1026    1
  1110  1042  1061    1
  1111  1042  1044    1
  1112  1869  1871    1
  1113  1869  1890    1
  1114  2053  2052    1
  1115  2741  2740   ar
  1116  1260  1259    1
  1117  2736  2737   ar
  1118  1412  1413    1
  1119  1412  1410    1
  1120  1043  1044    1
  1121  1043  1045    1
  1122  1034  1033   ar
  1123  1034  1035   ar
  1124  1027  1028    1
  1125  2062  2059   ar
  1126  1937  1935    1
  1127  1306  1305    1
  1128  1280  1282    1
  1129  1280  1281    1
  1130  2745  2746   ar
  1131  1871  1870    1
  1132  1282  1284    1
  1133  1365  1343    2
  1134  1411  1410    1
  1135  1411  1409    1
  1136  1033  1032   ar
  1137  2846  2845    2
  1138  1944  1943   ar
  1139  1944  1945   ar
  1140  1878  1873    1
  1141  1878  1876    1
  1142  1275  1254    2
  1143  1873  1872    1
  1144  1943  1942   ar
  1145  2842  2841    1
  1146  2058  2059   ar
  1147  2058  2057   ar
  1148   873   872    1
  1149  1382  1376   ar
  1150  1382  1381   ar
  1151  1941  1951    1
  1152  1941  1936    1
  1153   866   859   ar
  1154  2085  2067    2
  1155  2740  2746   ar
  1156  2740  2739   ar
  1157  1431  1409    2
  1158  1080  1062    2
  1159  2737  2738    1
  1160  2737  2739   ar
  1161  2067  2086    1
  1162  2067  2069    1
  1163  2840  2839    1
  1164  1036  1035    1
  1165  1303  1305    1
  1166  1303  1304    1
  1167   859   858    1
  1168  2059  2060   ar
  1169   874   875    1
  1170   874   872    1
  1171  2841  2839    1
  1172  2841  2843    1
  1173  1376  1377   ar
  1174  1322  1321    1
  1175  1035  1030   ar
  1176  2746  2735    1
  1177  1305  1307    1
  1178  1945  1951   ar
  1179  1945  1946   ar
  1180  1942  1947   ar
  1181  2847  2845   ar
  1182  2847  2848   ar
  1183   891   913    2
  1184   891   875    1
  1185   891   912    1
  1186  1364  1343    1
  1187  1262  1261    1
  1188  1951  1950   ar
  1189  2057  2056   ar
  1190  2845  2844   ar
  1191  1045  1047    1
  1192  1045  1046    1
  1193  1870  1872    1
  1194  1285  1284    1
  1195  1255  1257    1
  1196  1255  1256    1
  1197  1259  1257    1
  1198  1259  1261    1
  1199  2730  2735    1
  1200  2730  2729    1
  1201  1935  1936    1
  1202  1935  1933    1
  1203  1257  1258    1
  1204  1048  1062    1
  1205  1048  1047    1
  1206  1032  1031   ar
  1207  1343  1326    1
  1208  1343  1345    1
  1209  1409  1395    1
  1210  1409  1430    1
  1211  1321  1323    1
  1212  1876  1877    1
  1213  1876  1874    1
  1214  2839  2837    1
  1215  1284  1286    1
  1216  2747  2726    2
  1217  1281  1286    1
  1218  1946  1947   ar
  1219  1946  1949   ar
  1220  1947  1948    1
  1221  1907  1906    2
  1222   872   870    1
  1223   867   849    2
  1224  1381  1384   ar
  1225  1381  1380   ar
  1226  1872  1874    1
  1227  1062  1081    1
  1228  1062  1064    1
  1229  2849  2848    1
  1230  1950  1949   ar
  1231  1384  1385   ar
  1232  2848  2850   ar
  1233  1408  1389    2
  1234  2060  2061    1
  1235  2060  2055   ar
  1236  2735  2733    1
  1237  1261  1263    1
  1238  1030  1031   ar
  1239  1254  1256    1
  1240  1254  1240    1
  1241  1254  1276    1
  1242  1395  1394    1
  1243  1377  1378    1
  1244  1377  1379   ar
  1245  1304  1309    1
  1246  2844  2843    1
  1247  2844  2851   ar
  1248  1047  1049    1
  1249  2069  2068    1
  1250  2056  2055   ar
  1251  2843  2838    1
  1252   858   856    1
  1253   858   853    1
  1254  1046  1051    1
  1255  1388  1366    2
  1256  1326  1325    1
  1257  2068  2070    1
  1258  1906  1908   ar
  1259  1906  1905   ar
  1260  2729  2727    1
  1261  2729  2731    1
  1262  2727  2728    1
  1263  1286  1297    1
  1264  1307  1308    1
  1265  1307  1309    1
  1266  1874  1875    1
  1267  1933  1934    1
  1268  1908  1909   ar
  1269  1345  1344    1
  1270   856   854    1
  1271   856   857    1
  1272   871   870    1
  1273   871   869    1
  1274  1390  1391    1
  1275  1390  1392    1
  1276  1240  1239    1
  1277  1325  1323    1
  1278  1325  1327    1
  1279  1258  1263    1
  1280  1380  1379   ar
  1281  1380  1386   ar
  1282  1952  1932    2
  1283  2850  2851   ar
  1284  2728  2726    1
  1285  1323  1324    1
  1286  1317  1316   ar
  1287  1317  1310   ar
  1288  2071  2070    1
  1289  2071  2076    1
  1290  1385  1386   ar
  1291  2726  2710    1
  1292  2726  2748    1
  1293  2837  2838    1
  1294  2837  2835    1
  1295  1242  1241    1
  1296  1361  1362   ar
  1297  1361  1358   ar
  1298  1934  1932    1
  1299  2083  2084   ar
  1300  2083  2081   ar
  1301  1905  1903   ar
  1302   849   851    1
  1303   849   868    1
  1304   849   832    1
  1305  2084  2077   ar
  1306   851   850    1
  1307  1338  1339   ar
  1308  1338  1335   ar
  1309  1050  1049    1
  1310  1309  1310    1
  1311  1389  1391    1
  1312  1389  1407    1
  1313  1389  1372    1
  1314  1339  1340   ar
  1315  1394  1392    1
  1316  1394  1396    1
  1317  1360  1359    2
  1318   853   852    1
  1319  1263  1274    1
  1320  1064  1063    1
  1321  1316  1314   ar
  1322  2710  2709    1
  1323  1049  1051    1
  1324   890   869    2
  1325  2070  2072    1
  1326  1392  1393    1
  1327  1909  1902   ar
  1328   854   852    1
  1329   854   855    1
  1330  1296  1297   ar
  1331  1296  1295   ar
  1332  2733  2731    1
  1333  2733  2734    1
  1334  1297  1291   ar
  1335  1362  1363   ar
  1336  1051  1052    1
  1337  1063  1065    1
  1338  1386  1375    1
  1339  1310  1311   ar
  1340  1932  1953    1
  1341  1932  1918    1
  1342  1366  1368    1
  1343  1366  1387    1
  1344  1366  1349    1
  1345  1875  1892    1
  1346  2731  2732    1
  1347  1344  1346    1
  1348  1324  1329    1
  1349  1903  1902   ar
  1350  1903  1904    2
  1351   869   855    1
  1352   869   889    1
  1353  2077  2076    1
  1354  2077  2078   ar
  1355  1358  1359   ar
  1356  1358  1357   ar
  1357  2081  2082    1
  1358  2081  2080   ar
  1359  1359  1353   ar
  1360  1902  1901    1
  1361  1241  1239    1
  1362  1241  1243    1
  1363  2712  2711    1
  1364  2076  2074    1
  1365  1103  1082    2
  1366  1239  1237    1
  1367  2835  2836    1
  1368   852   850    1
  1369  1368  1367    1
  1370  2829  2828    2
  1371  1104  1082    1
  1372   832   831    1
  1373  1059  1052   ar
  1374  1059  1058   ar
  1375  1896  1901    1
  1376  1896  1895    1
  1377  2836  2834    1
  1378  1327  1329    1
  1379  1327  1328    1
  1380  1371  1373    1
  1381  1371  1372    1
  1382  1371  1369    1
  1383  1340  1329    1
  1384  1340  1334   ar
  1385  1335  1336   ar
  1386  1335  1334   ar
  1387  2732  2749    1
  1388  1337  1336    1
  1389  1348  1349    1
  1390  1348  1346    1
  1391  1348  1350    1
  1392  1295  1292   ar
  1393  1397  1396    1
  1394   146   145    1
  1395  1373  1375    1
  1396  1373  1374    1
  1397  1274  1273   ar
  1398  1274  1268   ar
  1399  1314  1315    1
  1400  1314  1313   ar
  1401  1396  1398    1
  1402  1052  1053   ar
  1403  1291  1290   ar
  1404  1291  1292   ar
  1405   829   827    1
  1406   829   831    1
  1407   829   830    1
  1408  2827  2828   ar
  1409  2827  2825   ar
  1410  2709  2707    1
  1411  2709  2711    1
  1412   811   810    1
  1413  1363  1357   ar
  1414  1363  1352    1
  1415  2072  2074    1
  1416  2072  2073    1
  1417  2707  2705    1
  1418  2707  2708    1
  1419  1311  1313   ar
  1420  1311  1312    2
  1421  1910  1892    2
  1422  1375  1370    1
  1423  1346  1347    1
  1424  2828  2830   ar
  1425  1393  1398    1
  1426  1082  1068    1
  1427  1082  1084    1
  1428    37    36    2
  1429  2080  2078   ar
  1430  1237  1235    1
  1431  1237  1238    1
  1432  1901  1899    1
  1433  2078  2079    2
  1434  1336  1330   ar
  1435  2705  2706    1
  1436   827   828    1
  1437  2768  2749    2
  1438  1273  1272   ar
  1439  1357  1356   ar
  1440  1347  1352    1
  1441  1252  1234    2
  1442  1290  1288   ar
  1443  1334  1333   ar
  1444  1065  1067    1
  1445  1065  1066    1
  1446  2826  2825    2
  1447  1893  1895    1
  1448  1893  1894    1
  1449   831   833    1
  1450  1058  1056   ar
  1451  1892  1894    1
  1452  1892  1911    1
  1453  2711  2713    1
  1454  1918  1917    1
  1455  1292  1293   ar
  1456  1353  1354   ar
  1457  1267  1268   ar
  1458  1267  1265   ar
  1459   150   149    1
  1460   147   142    1
  1461   147   145    1
  1462   147   158    1
  1463  2808  2807    2
  1464  1895  1897    1
  1465  2853  2834    2
  1466  2825  2824   ar
  1467   142   141    1
  1468  2074  2075    1
  1469  1268  1269   ar
  1470  1367  1369    1
  1471  2749  2767    1
  1472  2749  2751    1
  1473  1350  1352    1
  1474  1350  1351    1
  1475  1243  1238    1
  1476  1243  1244    1
  1477   830   835    1
  1478  1068  1067    1
  1479  2834  2852    1
  1480  2834  2820    1
  1481  1369  1370    1
  1482  2724  2704    2
  1483  1398  1399    1
  1484   151   149   ar
  1485   151   152   ar
  1486  1235  1236    1
  1487  1246  1245    2
  1488  2073  2087    1
  1489   145   143    1
  1490  1067  1069    1
  1491  2830  2831   ar
  1492   141   143    1
  1493   141   139    1
  1494  1066  1071    1
  1495    36    30   ar
  1496    36    35   ar
  1497   847   826    2
  1498   149   148   ar
  1499  1053  1054    2
  1500  1053  1055   ar
  1501    30    31   ar
  1502   709   708    1
  1503  2706  2704    1
  1504   815   814    1
  1505   809   826    1
  1506   809   808    1
  1507  2708  2713    1
  1508  1330  1331   ar
  1509  1272  1269   ar
  1510  1356  1354   ar
  1511  1084  1083    1
  1512  1917  1915    1
  1513  1917  1919    1
  1514  1354  1355    1
  1515   810   812    1
  1516   810   808    1
  1517  1288  1289    1
  1518  1288  1287   ar
  1519  2821  2822    1
  1520  2821  2819    1
  1521  2821  2823    1
  1522  2824  2831   ar
  1523  2824  2823    1
  1524  1265  1266    1
  1525  1265  1264   ar
  1526   158   152   ar
  1527   158   157   ar
  1528  1333  1331   ar
  1529  2713  2723    1
  1530  2807  2801   ar
  1531  2807  2806   ar
  1532   134   133    1
  1533   828   826    1
  1534  1079  1078   ar
  1535  1079  1072   ar
  1536   152   153   ar
  1537  1293  1287   ar
  1538  1293  1294    2
  1539  1269  1270   ar
  1540  1899  1897    1
  1541  1899  1900    1
  1542  1245  1244   ar
  1543  1245  1247   ar
  1544   162   164    1
  1545   162   163    1
  1546  1244  1251   ar
  1547   838   837    1
  1548  1234  1236    1
  1549  1234  1253    1
  1550  1234  1220    1
  1551   835   833    1
  1552   835   846    1
  1553  2106  2087    2
  1554   165   164    1
  1555   165   170    1
  1556  1078  1076   ar
  1557   833   834    1
  1558  1056  1055   ar
  1559  1056  1057    2
  1560  2801  2802   ar
  1561   143   144    1
  1562   164   166    1
  1563   144   161    1
  1564   812   807    1
  1565   812   823    1
  1566  2704  2687    1
  1567  2704  2725    1
  1568   806   808    1
  1569   806   807    1
  1570   806   804    1
  1571    58    57    1
  1572   816   814   ar
  1573   816   817   ar
  1574  1897  1898    1
  1575   826   848    1
  1576   139   140    1
  1577  1406  1399   ar
  1578  1406  1405   ar
  1579  1331  1332    1
  1580  1399  1400   ar
  1581  2820  2819    1
  1582  2751  2750    1
  1583  1913  1915    1
  1584  1913  1914    1
  1585  1915  1916    1
  1586   839   837   ar
  1587   839   840   ar
  1588  2819  2817    1
  1589  2102  2101    2
  1590  2823  2818    1
  1591   148   154   ar
  1592    32    31    1
  1593  2087  2105    1
  1594  2087  2089    1
  1595   792   791    1
  1596  1083  1085    1
  1597   814   813   ar
  1598   135   133    1
  1599   135   130    1
  1600    35    38   ar
  1601    35    34   ar
  1602  1920  1919    1
  1603    31    33   ar
  1604   133   131    1
  1605  2785  2784    1
  1606  2687  2686    1
  1607   708   703   ar
  1608   708   707   ar
  1609    80    79    2
  1610  1071  1069    1
  1611  1071  1072    1
  1612  2689  2688    1
  1613   157   156   ar
  1614   169   168    1
  1615   703   704   ar
  1616  1247  1248   ar
  1617  2103  2101   ar
  1618  2103  2104   ar
  1619  1264  1270   ar
  1620  1069  1070    1
  1621  2806  2809   ar
  1622  2806  2805   ar
  1623  1919  1921    1
  1624  2764  2763    1
  1625  1898  1912    1
  1626    38    39   ar
  1627   837   836   ar
  1628  2765  2763   ar
  1629  2765  2766   ar
  1630  1251  1250   ar
  1631   153   154   ar
  1632   153   156   ar
  1633  2809  2810   ar
  1634  1072  1073   ar
  1635  1270  1271    2
  1636  1220  1219    1
  1637   182   161    2
  1638   170   168    1
  1639   170   181    1
  1640  2790  2769    2
  1641    73    79   ar
  1642    73    74   ar
  1643  2101  2100   ar
  1644   163   161    1
  1645  2802  2803    1
  1646  2802  2804   ar
  1647   804   805    1
  1648  2723  2722   ar
  1649  2723  2717   ar
  1650  1202  1203   ar
  1651  1202  1207   ar
  1652  1203  1204   ar
  1653  1914  1912    1
  1654   154   155    2
  1655   161   183    1
  1656   846   840   ar
  1657   846   845   ar
  1658   817   823   ar
  1659   817   818   ar
  1660   823   822   ar
  1661    57    56   ar
  1662    57    59   ar
  1663    41    20    2
  1664  2750  2752    1
  1665    75    74    1
  1666  1405  1403   ar
  1667   167   166    1
  1668   167   184    1
  1669   140   138    1
  1670  2089  2088    1
  1671   840   841   ar
  1672  1076  1077    1
  1673  1076  1075   ar
  1674   166   168    1
  1675    79    78   ar
  1676  1400  1401    2
  1677  1400  1402   ar
  1678  2763  2762   ar
  1679    34    33   ar
  1680    34    40   ar
  1681  2104  2097   ar
  1682  2766  2759   ar
  1683   130   129    1
  1684  1101  1100   ar
  1685  1101  1102   ar
  1686  1100  1097   ar
  1687  1248  1250   ar
  1688  1248  1249    1
  1689   788   787    1
  1690  2716  2717   ar
  1691  2716  2715   ar
  1692    56    54   ar
  1693  1204  1205   ar
  1694  2818  2817    1
  1695  1208  1207    1
  1696  2833  2814    2
  1697  1207  1206   ar
  1698  1916  1921    1
  1699   791   793   ar
  1700   791   790   ar
  1701  2688  2686    1
  1702  2688  2690    1
  1703   813   819   ar
  1704   707   710   ar
  1705   707   706   ar
  1706  2805  2804   ar
  1707  2805  2811   ar
  1708  2784  2783   ar
  1709  2784  2779   ar
  1710    74    76   ar
  1711     8     7    1
  1712  2722  2721   ar
  1713    42    20    1
  1714  2817  2815    1
  1715   704   705   ar
  1716  2686  2684    1
  1717  2786  2783   ar
  1718  2786  2787   ar
  1719  2717  2718   ar
  1720  1912  1931    2
  1721  1912  1930    1
  1722  1085  1086    1
  1723  1085  1087    1
  1724    39    40   ar
  1725  2810  2811   ar
  1726  1921  1922    1
  1727   118   117    2
  1728   793   794   ar
  1729   181   180   ar
  1730   181   175   ar
  1731  1086  1091    1
  1732  1184  1183    2
  1733    10    11   ar
  1734    10    15   ar
  1735   710   711   ar
  1736    11    12   ar
  1737  2816  2815    1
  1738  2816  2814    1
  1739   131   132    1
  1740   131   129    1
  1741    59    60   ar
  1742  2124  2123    2
  1743   541   523    2
  1744   836   842   ar
  1745  2088  2090    1
  1746  2100  2098   ar
  1747  1073  1075   ar
  1748  1073  1074    2
  1749  1196  1195    1
  1750  1196  1201    1
  1751    20    22    1
  1752    20     6    1
  1753  1222  1221    1
  1754  1205  1206   ar
  1755  1205  1211   ar
  1756   180   179   ar
  1757  1219  1217    1
  1758  1219  1221    1
  1759  2783  2782   ar
  1760  1213  1192    2
  1761  1206  1209   ar
  1762    98    97    2
  1763   132   138    1
  1764  2769  2789    1
  1765  2769  2755    1
  1766  2769  2771    1
  1767   129   127    1
  1768  2684  2682    1
  1769  2684  2685    1
  1770    40    29    1
  1771   805   803    1
  1772   204   184    2
  1773    22    21    1
  1774   845   844   ar
  1775    12    13   ar
  1776    16    15    1
  1777  2779  2780   ar
  1778  1126  1105    2
  1779  1402  1403   ar
  1780    15    14   ar
  1781  2811  2800    1
  1782    78    77   ar
  1783    78    81   ar
  1784   822   821   ar
  1785   818   819   ar
  1786   818   821   ar
  1787  2813  2791    2
  1788  1403  1404    2
  1789  2715  2714   ar
  1790  2097  2098   ar
  1791  2097  2096    1
  1792  2091  2090    1
  1793  2091  2096    1
  1794   790   796   ar
  1795  2752  2754    1
  1796  2752  2753    1
  1797   184   205    1
  1798   184   186    1
  1799   841   842   ar
  1800   841   844   ar
  1801  2814  2832    1
  1802  2814  2797    1
  1803   138   159    2
  1804   138   160    1
  1805  1195  1193    1
  1806  1195  1197    1
  1807  2762  2760   ar
  1808   787   789    1
  1809   787   785    1
  1810    54    55    2
  1811    54    53   ar
  1812  2754  2755    1
  1813  2754  2756    1
  1814  1087  1088    1
  1815  1087  1089    1
  1816   768   769   ar
  1817   768   773   ar
  1818    99    97   ar
  1819    99   100   ar
  1820  2787  2788   ar
  1821  1102  1091    1
  1822  1102  1096   ar
  1823   117   119   ar
  1824   117   116   ar
  1825   175   174   ar
  1826   175   176   ar
  1827  2759  2760   ar
  1828  2759  2758    1
  1829   706   705   ar
  1830   706   712   ar
  1831  1180  1179    1
  1832    76    77   ar
  1833   819   820    2
  1834  1097  1098   ar
  1835  1097  1096   ar
  1836   174   172   ar
  1837   119   120   ar
  1838  1211  1201    1
  1839  1211  1210   ar
  1840  1217  1218    1
  1841  1217  1215    1
  1842  2721  2718   ar
  1843  2753  2758    1
  1844  2098  2099    2
  1845    13    14   ar
  1846    13    19   ar
  1847  1209  1210   ar
  1848   769   770   ar
  1849  1099  1098    2
  1850  2718  2719   ar
  1851  2690  2685    1
  1852  2690  2701    1
  1853  1193  1194    1
  1854  2682  2683    1
  1855    14    17   ar
  1856  1201  1199    1
  1857  1221  1223    1
  1858  2123  2122   ar
  1859  2123  2117   ar
  1860  1183  1185   ar
  1861  1183  1182   ar
  1862    97    96   ar
  1863     7     9    1
  1864     7     5    1
  1865   842   843    2
  1866    60    53   ar
  1867   509   523    1
  1868   509   508    1
  1869  1091  1089    1
  1870    77    83   ar
  1871    81    82   ar
  1872  1922  1929   ar
  1873  1922  1923   ar
  1874  2090  2092    1
  1875  2771  2770    1
  1876   179   176   ar
  1877  1088  1105    1
  1878   711   712   ar
  1879   185   186    1
  1880   185   187    1
  1881   136   126    2
  1882   789   800    1
  1883   789   784    1
  1884   794   800   ar
  1885   794   795   ar
  1886   101   100    1
  1887  1185  1186   ar
  1888  2125  2122   ar
  1889  2125  2126   ar
  1890    24    29    1
  1891    24    23    1
  1892   521   503    2
  1893  2798  2796    1
  1894  2798  2800    1
  1895  2798  2799    1
  1896   523   542    1
  1897   523   525    1
  1898   824   803    2
  1899  2096  2094    1
  1900  2760  2761    2
  1901  2142  2141    1
  1902   786   803    1
  1903   786   785    1
  1904    21    23    1
  1905  1098  1092   ar
  1906    53    52    1
  1907   114   113    1
  1908  2782  2788   ar
  1909  2782  2781   ar
  1910    19     9    1
  1911    19    18   ar
  1912   504   506    1
  1913   504   505    1
  1914  1105  1125    1
  1915  1105  1107    1
  1916  1929  1928   ar
  1917   774   773    1
  1918   176   177   ar
  1919  1192  1212    1
  1920  1192  1194    1
  1921  1192  1178    1
  1922   803   825    1
  1923  2796  2797    1
  1924  2796  2794    1
  1925   100   102   ar
  1926    29    27    1
  1927  2758  2756    1
  1928  1223  1218    1
  1929  1223  1224    1
  1930   115   116    1
  1931   115   110    1
  1932   115   113    1
  1933    17    18   ar
  1934     6     5    1
  1935     9     4    1
  1936  2780  2781   ar
  1937  1096  1095   ar
  1938  2122  2121   ar
  1939   561   543    2
  1940  2800  2795    1
  1941  1924  1923    2
  1942  2714  2719   ar
  1943   524   525    1
  1944   524   526    1
  1945   116   123   ar
  1946  2117  2118   ar
  1947  1198  1197    1
  1948  1198  1214    1
  1949  2140  2141   ar
  1950  2140  2146   ar
  1951   712   702    1
  1952   127   128    1
  1953   773   772   ar
  1954  1181  1182    1
  1955  1181  1179    1
  1956  1181  1176    1
  1957   172   173    1
  1958   172   171   ar
  1959  2694  2692   ar
  1960  2694  2695   ar
  1961   506   508    1
  1962   506   507    1
  1963   120   121    1
  1964   120   122   ar
  1965  2788  2778    1
  1966  1160  1161   ar
  1967  1160  1165   ar
  1968   682   681    1
  1969  2793  2791    1
  1970  2793  2792    1
  1971  1215  1216    1
  1972   785   783    1
  1973   800   799   ar
  1974  2791  2812    1
  1975  2791  2775    1
  1976  2756  2757    1
  1977  1089  1090    1
  1978  2693  2692    1
  1979  1226  1225    2
  1980  2147  2146    2
  1981  1197  1199    1
  1982  2719  2720    1
  1983   796   795   ar
  1984   796   797    2
  1985  1121  1120    1
  1986  1923  1925   ar
  1987   511   510    1
  1988   752   751    2
  1989     5     3    1
  1990  2092  2094    1
  1991  2092  2093    1
  1992  1182  1189   ar
  1993  1179  1177    1
  1994  2701  2695   ar
  1995  2701  2700   ar
  1996  2683  2681    1
  1997   110   109    1
  1998  1161  1162   ar
  1999   770   771   ar
  2000   188   187    1
  2001   188   193    1
  2002   730   729    1
  2003    82    83   ar
  2004   128   126    1
  2005   784   783    1
  2006   187   189    1
  2007  2126  2127   ar
  2008    83    72    1
  2009    23    25    1
  2010   508   510    1
  2011  2141  2143   ar
  2012    96    95    1
  2013    96   103   ar
  2014   795   798   ar
  2015   678   677    1
  2016  1199  1200    1
  2017   113   111    1
  2018  2692  2691   ar
  2019   783   781    1
  2020  1122  1123   ar
  2021  1122  1119   ar
  2022  2146  2145   ar
  2023  2695  2696   ar
  2024   489   503    1
  2025   489   488    1
  2026   491   490    1
  2027  2795  2794    1
  2028  1186  1187    1
  2029  1186  1188   ar
  2030   126   137    1
  2031   126   112    1
  2032  2774  2775    1
  2033  2774  2776    1
  2034  2774  2772    1
  2035   529   543    1
  2036   529   528    1
  2037   177   171   ar
  2038   177   178    2
  2039  1176  1175    1
  2040  1166  1165    1
  2041    95    93    1
  2042    95    90    1
  2043   503   505    1
  2044   503   522    1
  2045  2770  2772    1
  2046  2094  2095    1
  2047  1216  1214    1
  2048    27    25    1
  2049    27    28    1
  2050   123   122   ar
  2051  1928  1926   ar
  2052   714   693    2
  2053   543   562    1
  2054   543   545    1
  2055   526   528    1
  2056   526   527    1
  2057    52    47    1
  2058    52    50    1
  2059  1178  1177    1
  2060  2794  2792    1
  2061  1233  1214    2
  2062  2121  2127   ar
  2063  2121  2120   ar
  2064  1177  1175    1
  2065  2702  2681    2
  2066   745   751   ar
  2067   745   746   ar
  2068  1165  1164   ar
  2069   102   103   ar
  2070  2118  2119    1
  2071  2118  2120   ar
  2072    94    93    1
  2073  1107  1106    1
  2074  1092  1093   ar
  2075   507   512    1
  2076  1225  1224   ar
  2077  1225  1227   ar
  2078  1224  1231   ar
  2079  1214  1232    1
  2080   510   512    1
  2081   681   683   ar
  2082   681   680   ar
  2083     4     3    1
  2084  2700  2699   ar
  2085   202   201   ar
  2086   202   203   ar
  2087  1095  1093   ar
  2088   751   750   ar
  2089   111   109    1
  2090   111   112    1
  2091  2776  2778    1
  2092  2776  2777    1
  2093  2778  2773    1
  2094   772   771   ar
  2095   772   775   ar
  2096  2093  2107    1
  2097  1123  1124   ar
  2098   109   107    1
  2099  2127  2116    1
  2100   702   700    1
  2101   702   697    1
  2102  2773  2772    1
  2103  1120  1119   ar
  2104  1120  1115   ar
  2105   771   777   ar
  2106  1925  1926   ar
  2107   799   798   ar
  2108   683   684   ar
  2109    72    67    1
  2110    72    70    1
  2111    93    91    1
  2112    25    26    1
  2113  1189  1188   ar
  2114  1119  1118   ar
  2115    47    46    1
  2116  1162  1163   ar
  2117  2129  2107    2
  2118   528   530    1
  2119     3     1    1
  2120  2681  2665    1
  2121  2681  2703    1
  2122  1175  1173    1
  2123   486   488    1
  2124   486   484    1
  2125   486   487    1
  2126   201   198   ar
  2127   677   679    1
  2128   677   675    1
  2129   747   746    1
  2130   193   203    1
  2131   193   191    1
  2132  2143  2144   ar
  2133  2667  2666    1
  2134  2691  2697   ar
  2135    90    89    1
  2136   729   728   ar
  2137   729   731   ar
  2138  2696  2699   ar
  2139  2696  2697   ar
  2140  1093  1094    1
  2141   488   490    1
  2142  1926  1927    2
  2143   512   513    1
  2144   189   190    1
  2145   189   191    1
  2146   203   197   ar
  2147   490   492    1
  2148  2145  2144   ar
  2149  2145  2148   ar
  2150   676   693    1
  2151   676   675    1
  2152   680   686   ar
  2153    50    51    1
  2154    50    48    1
  2155   484   485    1
  2156   695   693    1
  2157   695   694    1
  2158   781   782    1
  2159   746   748   ar
  2160   527   532    1
  2161   700   701    1
  2162   700   698    1
  2163   697   696    1
  2164   693   713    1
  2165  2665  2664    1
  2166    67    66    1
  2167   728   726   ar
  2168   190   206    1
  2169  1231  1230   ar
  2170   545   544    1
  2171  2107  2109    1
  2172  2107  2128    1
  2173  1106  1108    1
  2174  2144  2150   ar
  2175  1227  1228   ar
  2176  1164  1163   ar
  2177  1164  1167   ar
  2178    70    71    1
  2179    70    68    1
  2180  1149  1127    2
  2181  2697  2698    2
  2182  2116  2111    1
  2183  2116  2114    1
  2184   363   362    1
  2185  2666  2664    1
  2186  2666  2668    1
  2187   544   546    1
  2188  2111  2110    1
  2189  1115  1116   ar
  2190   487   492    1
  2191  1163  1169   ar
  2192   225   206    2
  2193   731   732   ar
  2194   679   690    1
  2195   679   674    1
  2196   775   776   ar
  2197   684   690   ar
  2198   684   685   ar
  2199   750   753   ar
  2200   750   749   ar
  2201     1     2    1
  2202  2670  2671   ar
  2203  2670  2669   ar
  2204   191   192    1
  2205   675   673    1
  2206   531   530    1
  2207   383   382    1
  2208   198   197   ar
  2209   198   199   ar
  2210  1124  1118   ar
  2211  1124  1114    1
  2212   777   767    1
  2213   777   776   ar
  2214   107   108    1
  2215   492   493    1
  2216   376   378    1
  2217   376   377    1
  2218   378   379    1
  2219   378   380    1
  2220    26    43    1
  2221  2671  2672   ar
  2222  1118  1117   ar
  2223   197   196   ar
  2224   530   532    1
  2225    48    46    1
  2226    48    49    1
  2227    46    44    1
  2228   108   106    1
  2229  2148  2149   ar
  2230  1148  1127    1
  2231   782   780    1
  2232    91    89    1
  2233    91    92    1
  2234    89    87    1
  2235    45    44    1
  2236    45    43    1
  2237  1173  1174    1
  2238   501   483    2
  2239  2109  2108    1
  2240  2664  2662    1
  2241   690   689   ar
  2242   694   696    1
  2243   766   765    1
  2244   381   380    1
  2245   381   395    1
  2246   468   467    1
  2247   686   685   ar
  2248   686   687    2
  2249   206   224    1
  2250   206   208    1
  2251   765   767    1
  2252   765   763    1
  2253   753   754   ar
  2254  2669  2674   ar
  2255   513   520   ar
  2256   513   514   ar
  2257   532   533    1
  2258   485   483    1
  2259   767   762    1
  2260   696   698    1
  2261   379   384    1
  2262   748   749   ar
  2263  1174  1172    1
  2264   415   395    2
  2265  1127  1111    1
  2266  1127  1129    1
  2267  1109  1108    1
  2268  1109  1114    1
  2269  1110  1108    1
  2270  1110  1111    1
  2271  1110  1112    1
  2272    61    43    2
  2273   584   563    2
  2274   685   688   ar
  2275   698   699    1
  2276   673   674    1
  2277   673   671    1
  2278  1230  1228   ar
  2279   396   398    1
  2280   396   397    1
  2281   393   375    2
  2282   200   199    1
  2283   749   755   ar
  2284   199   194   ar
  2285  1228  1229    2
  2286    68    66    1
  2287    68    69    1
  2288  1167  1168   ar
  2289   520   519   ar
  2290   726   727    2
  2291   726   725   ar
  2292    43    62    1
  2293  2150  2149   ar
  2294  2150  2139    1
  2295    66    64    1
  2296   361   375    1
  2297   361   360    1
  2298  1116  1117   ar
  2299   540   533   ar
  2300   540   539   ar
  2301   380   382    1
  2302  2672  2678   ar
  2303  2672  2673   ar
  2304  2108  2110    1
  2305  2668  2678    1
  2306  2668  2663    1
  2307   196   195   ar
  2308   583   563    1
  2309    92   106    1
  2310  1114  1112    1
  2311    65    64    1
  2312    65    63    1
  2313  2110  2112    1
  2314   382   384    1
  2315   495   494    2
  2316  2114  2112    1
  2317  2114  2115    1
  2318   732   725   ar
  2319   362   364    1
  2320   362   360    1
  2321  1169  1168   ar
  2322  1169  1159    1
  2323   546   548    1
  2324   546   547    1
  2325   515   514    2
  2326   483   466    1
  2327   483   502    1
  2328    85    63    2
  2329   358   360    1
  2330   358   359    1
  2331   358   356    1
  2332   384   385    1
  2333   665   664    2
  2334   472   471    1
  2335   662   661    2
  2336   377   375    1
  2337   663   664   ar
  2338   663   661   ar
  2339   466   465    1
  2340   395   397    1
  2341   395   416    1
  2342   398   399    1
  2343   398   400    1
  2344  2678  2677   ar
  2345    87    88    1
  2346  2674  2673   ar
  2347  2674  2675    1
  2348   549   563    1
  2349   549   548    1
  2350   563   565    1
  2351   493   494   ar
  2352   493   500   ar
  2353   533   534   ar
  2354    49    63    1
  2355   344   343    1
  2356   514   516   ar
  2357   106   125    2
  2358   106   124    1
  2359  1157  1158    1
  2360  1157  1159    1
  2361  1157  1155    1
  2362   435   417    2
  2363  1112  1113    1
  2364   689   688   ar
  2365    88    86    1
  2366   375   394    1
  2367  2662  2663    1
  2368  2662  2660    1
  2369   364   359    1
  2370   364   365    1
  2371   467   465    1
  2372   467   469    1
  2373  2673  2676   ar
  2374   725   724    1
  2375   539   537   ar
  2376   194   195   ar
  2377  2112  2113    1
  2378   763   764    1
  2379   763   761    1
  2380   754   755   ar
  2381   548   550    1
  2382   780   801    2
  2383   780   764    1
  2384   780   802    1
  2385  2139  2134    1
  2386  2139  2137    1
  2387   222   223   ar
  2388   222   220   ar
  2389    63    84    1
  2390   401   400    1
  2391   401   417    1
  2392   208   207    1
  2393  1159  1154    1
  2394  1129  1128    1
  2395   494   496   ar
  2396   664   666   ar
  2397   661   660   ar
  2398   762   761    1
  2399   356   357    1
  2400   221   220    1
  2401   547   552    1
  2402   755   744    1
  2403    69    86    1
  2404  2134  2133    1
  2405   367   366    2
  2406   399   404    1
  2407   519   517   ar
  2408   671   672    1
  2409   105    86    2
  2410  1172  1191    2
  2411  1172  1190    1
  2412  1172  1156    1
  2413  2175  2176   ar
  2414  2175  2180   ar
  2415   473   471   ar
  2416   473   474   ar
  2417   500   499   ar
  2418   465   463    1
  2419  2677  2676   ar
  2420   340   339    1
  2421   223   216   ar
  2422   471   470   ar
  2423   560   559   ar
  2424   560   553   ar
  2425  2176  2177   ar
  2426   400   402    1
  2427   417   436    1
  2428   417   419    1
  2429   220   219   ar
  2430  1171  1150    2
  2431  1128  1130    1
  2432  1155  1156    1
  2433  1155  1153    1
  2434   559   557   ar
  2435    86   104    1
  2436   207   209    1
  2437  2181  2180    1
  2438  2660  2661    1
  2439   645   644    2
  2440   469   464    1
  2441   469   480    1
  2442   385   392   ar
  2443   385   386   ar
  2444   343   345   ar
  2445   343   342   ar
  2446   761   759    1
  2447   403   402    1
  2448   516   517   ar
  2449   534   535    2
  2450   534   536   ar
  2451   672   670    1
  2452   463   464    1
  2453   463   461    1
  2454  2138  2137    1
  2455  2180  2179   ar
  2456   345   346   ar
  2457   365   366   ar
  2458   365   372   ar
  2459   387   386    2
  2460   565   564    1
  2461  2137  2135    1
  2462   366   368   ar
  2463   724   719    1
  2464   724   722    1
  2465   537   536   ar
  2466   537   538    2
  2467  2113  2130    1
  2468   517   518    2
  2469   210   209    1
  2470   210   215    1
  2471   392   391   ar
  2472   660   667   ar
  2473   660   659    1
  2474  1154  1153    1
  2475   496   497   ar
  2476   715   717    1
  2477   715   733    1
  2478   715   734    1
  2479   550   552    1
  2480   550   551    1
  2481   404   402    1
  2482   404   414    1
  2483   666   667   ar
  2484   552   553    1
  2485   624   623    2
  2486   658   657    1
  2487   744   742    1
  2488   744   739    1
  2489   357   355    1
  2490   717   716    1
  2491  2177  2178   ar
  2492   474   480   ar
  2493   474   475   ar
  2494   553   554   ar
  2495  2133  2135    1
  2496  2133  2131    1
  2497   386   388   ar
  2498   657   659    1
  2499   657   655    1
  2500   216   217   ar
  2501   216   215    1
  2502   760   759    1
  2503   760   758    1
  2504   470   476   ar
  2505   219   217   ar
  2506  2198  2197   ar
  2507  2198  2199   ar
  2508   339   341    1
  2509   339   337    1
  2510   499   497   ar
  2511   418   419    1
  2512   418   420    1
  2513  1152  1150    1
  2514  1152  1151    1
  2515   719   718    1
  2516   480   479   ar
  2517   742   740    1
  2518   742   743    1
  2519  2197  2202   ar
  2520   342   348   ar
  2521  1153  1151    1
  2522   209   211    1
  2523  2152  2130    2
  2524  2661  2659    1
  2525  1150  1170    1
  2526  1150  1133    1
  2527  1130  1131    1
  2528  1130  1132    1
  2529   644   643   ar
  2530   644   646   ar
  2531   557   558    2
  2532   557   556   ar
  2533   373   355    2
  2534  2132  2131    1
  2535  2132  2130    1
  2536   779   758    2
  2537   659   654    1
  2538   722   720    1
  2539   722   723    1
  2540   564   566    1
  2541   449   448    1
  2542   606   585    2
  2543  2179  2178   ar
  2544  2179  2182   ar
  2545   461   462    1
  2546   341   352    1
  2547   341   336    1
  2548   643   641   ar
  2549  2135  2136    1
  2550   372   371   ar
  2551   497   498    1
  2552  2178  2184   ar
  2553  2220  2219   ar
  2554  2220  2221   ar
  2555   217   218    2
  2556   215   213    1
  2557  2130  2151    1
  2558  1139  1138    1
  2559   757   735    1
  2560   346   352   ar
  2561   346   347   ar
  2562   338   355    1
  2563   338   337    1
  2564   740   738    1
  2565   740   741    1
  2566   739   738    1
  2567   368   369   ar
  2568   355   374    1
  2569  2136  2153    1
  2570  2199  2200   ar
  2571  1131  1136    1
  2572   720   718    1
  2573   720   721    1
  2574   414   413   ar
  2575   414   408   ar
  2576   670   691    2
  2577   670   656    1
  2578   670   692    1
  2579  2679  2659    2
  2580   413   412   ar
  2581   623   617   ar
  2582   623   622   ar
  2583   391   389   ar
  2584   580   581   ar
  2585   580   577   ar
  2586   758   741    1
  2587   758   778    1
  2588   321   320   ar
  2589   321   322   ar
  2590  2219  2224   ar
  2591   716   718    1
  2592   211   213    1
  2593   211   212    1
  2594   475   476   ar
  2595   475   478   ar
  2596   655   656    1
  2597   655   653    1
  2598  2221  2222   ar
  2599   337   335    1
  2600   476   477    2
  2601   554   556   ar
  2602   554   555    2
  2603  2202  2203    1
  2604  2202  2201   ar
  2605   581   582   ar
  2606   352   351   ar
  2607   388   389   ar
  2608  1132  1133    1
  2609  1132  1134    1
  2610   336   335    1
  2611  2182  2183   ar
  2612   646   647   ar
  2613   241   240    2
  2614   462   460    1
  2615   335   333    1
  2616   420   421    1
  2617   420   422    1
  2618  2659  2680    1
  2619  2659  2645    1
  2620   479   478   ar
  2621  1138  1140   ar
  2622  1138  1137   ar
  2623   320   325   ar
  2624   601   600    1
  2625   348   347   ar
  2626   348   349    2
  2627   617   618   ar
  2628  2647  2646    1
  2629   738   736    1
  2630  1140  1141   ar
  2631  2184  2183   ar
  2632  2184  2174    1
  2633   585   605    1
  2634   585   569    1
  2635   585   587    1
  2636   448   450   ar
  2637   448   447   ar
  2638   641   642    2
  2639   641   640   ar
  2640   625   622   ar
  2641   625   626   ar
  2642   654   653    1
  2643   371   369   ar
  2644   245   226    2
  2645   566   568    1
  2646   566   567    1
  2647   389   390    1
  2648   213   214    1
  2649   347   350   ar
  2650   322   323   ar
  2651  2200  2201   ar
  2652  2200  2206   ar
  2653   736   737    1
  2654   369   370    1
  2655   622   621   ar
  2656   568   569    1
  2657   568   570    1
  2658   445   444    1
  2659   421   426    1
  2660   579   578    1
  2661   212   226    1
  2662   602   603   ar
  2663   602   599   ar
  2664   735   721    1
  2665   735   737    1
  2666   735   756    2
  2667  1137  1143   ar
  2668  2201  2204   ar
  2669   450   451   ar
  2670   412   409   ar
  2671  2174  2169    1
  2672  2174  2172    1
  2673   408   407   ar
  2674   408   409   ar
  2675   567   572    1
  2676  1136  1134    1
  2677  1136  1147    1
  2678   242   240   ar
  2679   242   243   ar
  2680   653   651    1
  2681   577   578   ar
  2682   577   576   ar
  2683   240   239   ar
  2684  2224  2225    1
  2685  2224  2223   ar
  2686  2153  2163    2
  2687  2153  2164    1
  2688  2153  2155    1
  2689  2645  2644    1
  2690  2222  2223   ar
  2691  2222  2228   ar
  2692  2651  2650    2
  2693  2646  2644    1
  2694  2646  2648    1
  2695   423   422    1
  2696   447   453   ar
  2697  1141  1147   ar
  2698  1141  1142   ar
  2699   422   424    1
  2700   582   572    1
  2701   582   576   ar
  2702   481   460    2
  2703  2169  2168    1
  2704   647   640   ar
  2705   351   350   ar
  2706  1134  1135    1
  2707   407   406   ar
  2708   600   599   ar
  2709   600   595   ar
  2710  2217  2216    1
  2711   640   639    1
  2712   298   299   ar
  2713   298   303   ar
  2714   333   334    1
  2715   434   433   ar
  2716   434   427   ar
  2717   226   244    1
  2718   226   228    1
  2719   325   326    1
  2720   325   324   ar
  2721   460   443    1
  2722   460   482    1
  2723   578   573   ar
  2724   444   446    1
  2725   444   442    1
  2726  1147  1146   ar
  2727   587   586    1
  2728   618   619    1
  2729   618   620   ar
  2730   603   604   ar
  2731  2206  2196    1
  2732  2206  2205   ar
  2733   626   627   ar
  2734   599   598   ar
  2735   409   410   ar
  2736   299   300   ar
  2737  1143  1142   ar
  2738  1143  1144    2
  2739  2223  2226   ar
  2740  2218  2228    1
  2741  2218  2216    1
  2742  2218  2213    1
  2743   433   431   ar
  2744  2155  2154    1
  2745   572   570    1
  2746   652   651    1
  2747   652   650    1
  2748   323   324   ar
  2749   323   329   ar
  2750   261   260    2
  2751   318   317    1
  2752  2196  2194    1
  2753  2196  2191    1
  2754   621   620   ar
  2755   621   627   ar
  2756   570   571    1
  2757  2644  2642    1
  2758  1142  1145   ar
  2759   576   575   ar
  2760  2204  2205   ar
  2761  2173  2172    1
  2762  2228  2227   ar
  2763   443   442    1
  2764   282   281    1
  2765   426   427    1
  2766   426   424    1
  2767  2172  2170    1
  2768   243   236   ar
  2769   451   457   ar
  2770   451   452   ar
  2771  2650  2652   ar
  2772  2650  2649   ar
  2773   669   650    2
  2774  2216  2214    1
  2775   629   607    2
  2776  2648  2649    1
  2777  2648  2643    1
  2778   239   237   ar
  2779   304   303    1
  2780  2195  2194    1
  2781   324   327   ar
  2782   427   428   ar
  2783   446   457    1
  2784   446   441    1
  2785   595   596   ar
  2786   424   425    1
  2787  1146  1145   ar
  2788   303   302   ar
  2789   334   332    1
  2790   453   452   ar
  2791   453   454    2
  2792   317   319    1
  2793   317   315    1
  2794   627   616    1
  2795  2213  2212    1
  2796   228   227    1
  2797   442   440    1
  2798   649   630    2
  2799  2194  2192    1
  2800  2168  2170    1
  2801  2168  2166    1
  2802   406   405   ar
  2803   276   281   ar
  2804   276   277   ar
  2805  2191  2190    1
  2806  2454  2453    1
  2807   639   637    1
  2808   639   634    1
  2809   637   635    1
  2810   637   638    1
  2811   319   329    1
  2812   319   314    1
  2813  2652  2653   ar
  2814   573   574   ar
  2815   300   301   ar
  2816  2649  2656   ar
  2817   329   328   ar
  2818   586   588    1
  2819   650   668    1
  2820   650   636    1
  2821   604   598   ar
  2822   604   594    1
  2823   457   456   ar
  2824  2239  2238    1
  2825   598   597   ar
  2826  2642  2643    1
  2827  2642  2640    1
  2828   281   280   ar
  2829   260   259   ar
  2830   260   262   ar
  2831   410   405   ar
  2832   410   411    1
  2833   452   455   ar
  2834  2226  2227   ar
  2835  2159  2158    1
  2836  2159  2165    1
  2837   431   432    2
  2838   431   430   ar
  2839  2154  2156    1
  2840  2486  2468    2
  2841  2170  2171    1
  2842  2235  2240    1
  2843  2235  2234    1
  2844   575   574   ar
  2845   635   636    1
  2846   635   633    1
  2847   236   237   ar
  2848   236   235    1
  2849  2166  2167    1
  2850  2506  2488    2
  2851   237   238    2
  2852   440   441    1
  2853   440   438    1
  2854  2240  2238    1
  2855  2240  2250    1
  2856  2212  2214    1
  2857  2212  2210    1
  2858  2186  2165    2
  2859   277   278   ar
  2860  2234  2232    1
  2861  2234  2236    1
  2862   590   588    1
  2863   590   591    1
  2864   590   592    1
  2865  2158  2156    1
  2866  2158  2160    1
  2867   227   229    1
  2868   596   597   ar
  2869  2214  2215    1
  2870  2469  2471    1
  2871  2469  2470    1
  2872  2167  2165    1
  2873   259   257   ar
  2874   632   630    1
  2875   632   631    1
  2876   634   633    1
  2877   589   588    1
  2878   589   594    1
  2879   428   430   ar
  2880   428   429    2
  2881   607   591    1
  2882   607   609    1
  2883   607   628    1
  2884   327   328   ar
  2885  2627  2628   ar
  2886  2627  2632   ar
  2887   302   301   ar
  2888   302   305   ar
  2889   608   609    1
  2890   608   610    1
  2891   262   263   ar
  2892  2628  2629   ar
  2893  2452  2468    1
  2894  2452  2451    1
  2895   301   307   ar
  2896   630   613    1
  2897   630   648    1
  2898   616   611    1
  2899   616   614    1
  2900  2156  2157    1
  2901   230   235    1
  2902   230   229    1
  2903  2453  2451    1
  2904  2453  2455    1
  2905  2653  2654    2
  2906  2653  2655   ar
  2907   315   316    1
  2908   315   313    1
  2909  2190  2192    1
  2910  2190  2188    1
  2911  2232  2233    1
  2912  2165  2185    1
  2913   612   614    1
  2914   612   610    1
  2915   612   613    1
  2916  2656  2655   ar
  2917   314   313    1
  2918  2238  2236    1
  2919   332   316    1
  2920   332   353    2
  2921   332   354    1
  2922  2192  2193    1
  2923   594   592    1
  2924   611   610    1
  2925   456   455   ar
  2926  2215  2231    1
  2927  2474  2488    1
  2928  2474  2473    1
  2929  2640  2641    1
  2930  2468  2470    1
  2931  2468  2487    1
  2932  2171  2187    1
  2933  2243  2244   ar
  2934  2243  2242   ar
  2935   633   631    1
  2936   592   593    1
  2937   280   283   ar
  2938   280   279   ar
  2939   614   615    1
  2940   235   233    1
  2941  2471  2473    1
  2942  2471  2472    1
  2943  2250  2244   ar
  2944  2250  2249   ar
  2945  2488  2507    1
  2946  2488  2490    1
  2947   313   311    1
  2948   229   231    1
  2949  2160  2161    1
  2950  2160  2162    1
  2951  2236  2237    1
  2952  2633  2632    1
  2953  2451  2449    1
  2954  2210  2211    1
  2955  2629  2630   ar
  2956  2632  2631   ar
  2957  2189  2188    1
  2958  2189  2187    1
  2959  2455  2450    1
  2960  2455  2465    1
  2961  2237  2253    1
  2962  2641  2639    1
  2963  2244  2245   ar
  2964   438   439    1
  2965   278   279   ar
  2966  2242  2241   ar
  2967  2193  2209    1
  2968  2458  2457   ar
  2969  2458  2459   ar
  2970   257   258    2
  2971   257   256   ar
  2972   305   306   ar
  2973   283   284   ar
  2974   263   256   ar
  2975  2473  2475    1
  2976  2233  2231    1
  2977   231   233    1
  2978   231   232    1
  2979   307   297    1
  2980   307   306   ar
  2981   279   285   ar
  2982  2449  2450    1
  2983  2449  2447    1
  2984  2249  2248   ar
  2985  2457  2456   ar
  2986  2489  2490    1
  2987  2489  2491    1
  2988  2157  2162    1
  2989  2476  2475    1
  2990  2187  2208    2
  2991  2187  2207    1
  2992  2211  2209    1
  2993   439   437    1
  2994  2231  2251    2
  2995  2231  2252    1
  2996   233   234    1
  2997  2472  2477    1
  2998  2529  2508    2
  2999   265   246    2
  3000   256   255    1
  3001  2630  2631   ar
  3002  2630  2636   ar
  3003   297   295    1
  3004   297   292    1
  3005  2465  2459   ar
  3006  2465  2464   ar
  3007  2459  2460   ar
  3008  2631  2634   ar
  3009   296   295    1
  3010  2245  2248   ar
  3011  2245  2246   ar
  3012   295   293    1
  3013  2241  2246   ar
  3014  2475  2477    1
  3015   311   312    1
  3016  2209  2230    2
  3017  2209  2229    1
  3018  2657  2639    2
  3019  2639  2658    1
  3020  2639  2623    1
  3021  2456  2461   ar
  3022   232   246    1
  3023  2271  2253    2
  3024   284   285   ar
  3025  2253  2272    1
  3026  2253  2255    1
  3027  2625  2624    1
  3028  2530  2508    1
  3029  2447  2448    1
  3030  2246  2247    1
  3031  2494  2508    1
  3032  2494  2493    1
  3033   458   437    1
  3034   285   275    1
  3035  2491  2493    1
  3036  2491  2492    1
  3037  2508  2510    1
  3038   312   310    1
  3039  2624  2626    1
  3040  2624  2622    1
  3041  2477  2478    1
  3042  2464  2463   ar
  3043   246   248    1
  3044   246   264    1
  3045  2460  2461   ar
  3046  2460  2463   ar
  3047   437   459    1
  3048  2435  2434    1
  3049  2636  2626    1
  3050  2636  2635   ar
  3051  2634  2635   ar
  3052   292   291    1
  3053  2461  2462    1
  3054   255   250    1
  3055   255   253    1
  3056  2255  2254    1
  3057  2493  2495    1
  3058   248   247    1
  3059  2623  2622    1
  3060  2626  2621    1
  3061   293   294    1
  3062   293   291    1
  3063  2254  2256    1
  3064   250   249    1
  3065  2622  2620    1
  3066  2448  2446    1
  3067  2492  2497    1
  3068  2485  2478   ar
  3069  2485  2484   ar
  3070   275   273    1
  3071   275   270    1
  3072  2478  2479   ar
  3073  2434  2436   ar
  3074  2434  2433   ar
  3075   294   310    1
  3076   310   331    2
  3077   310   330    1
  3078  2510  2509    1
  3079   291   289    1
  3080   253   251    1
  3081   253   254    1
  3082  2431  2430    1
  3083  2612  2611    1
  3084  2257  2256    1
  3085  2257  2262    1
  3086  2269  2270   ar
  3087  2269  2267   ar
  3088  2509  2511    1
  3089   273   274    1
  3090   273   271    1
  3091   247   249    1
  3092  2436  2437   ar
  3093  2270  2263   ar
  3094  2496  2495    1
  3095   251   249    1
  3096   251   252    1
  3097  2256  2258    1
  3098   287   266    2
  3099  2550  2531    2
  3100  2433  2439   ar
  3101  2495  2497    1
  3102  2621  2620    1
  3103   270   269    1
  3104  2268  2267    1
  3105  2484  2482   ar
  3106  2497  2498    1
  3107   290   289    1
  3108   290   288    1
  3109  2505  2504   ar
  3110  2505  2498   ar
  3111  2620  2618    1
  3112  2267  2266   ar
  3113  2430  2432    1
  3114  2430  2428    1
  3115  2466  2446    2
  3116  2479  2480    2
  3117  2479  2481   ar
  3118  2446  2429    1
  3119  2446  2467    1
  3120  2611  2610   ar
  3121  2611  2613   ar
  3122  2263  2262    1
  3123  2263  2264   ar
  3124   271   269    1
  3125   271   272    1
  3126   309   288    2
  3127  2549  2531    1
  3128  2610  2608   ar
  3129  2262  2260    1
  3130  2429  2428    1
  3131   268   266    1
  3132   268   267    1
  3133  2504  2502   ar
  3134  2437  2438   ar
  3135  2437  2443   ar
  3136  2531  2514    1
  3137  2531  2533    1
  3138  2498  2499   ar
  3139  2439  2440    2
  3140  2439  2438   ar
  3141   266   252    1
  3142   266   286    1
  3143  2266  2264   ar
  3144  2514  2513    1
  3145  2511  2513    1
  3146  2511  2512    1
  3147  2258  2259    1
  3148  2258  2260    1
  3149   269   267    1
  3150  2264  2265    2
  3151  2432  2443    1
  3152  2432  2427    1
  3153   288   272    1
  3154   288   308    1
  3155  2619  2618    1
  3156  2619  2617    1
  3157  2613  2614   ar
  3158  2428  2426    1
  3159  2482  2481   ar
  3160  2482  2483    1
  3161  2513  2515    1
  3162  2438  2441   ar
  3163  2418  2417    1
  3164  2443  2442   ar
  3165  2392  2391    1
  3166  2608  2609    2
  3167  2608  2607   ar
  3168  2591  2590    2
  3169  2638  2617    2
  3170  2259  2273    1
  3171  2260  2261    1
  3172  2512  2517    1
  3173  2292  2273    2
  3174  2527  2526   ar
  3175  2527  2528   ar
  3176  2502  2501   ar
  3177  2502  2503    2
  3178  2499  2501   ar
  3179  2499  2500    2
  3180  2614  2607   ar
  3181  2533  2532    1
  3182  2617  2637    1
  3183  2617  2603    1
  3184  2416  2417   ar
  3185  2416  2414   ar
  3186  2426  2427    1
  3187  2426  2424    1
  3188  2607  2606    1
  3189  2417  2419   ar
  3190  2526  2523   ar
  3191  2442  2441   ar
  3192  2369  2368    1
  3193  2590  2584   ar
  3194  2590  2589   ar
  3195  2288  2287    1
  3196  2273  2291    1
  3197  2273  2275    1
  3198  2391  2393   ar
  3199  2391  2390   ar
  3200  2547  2545   ar
  3201  2547  2548   ar
  3202  2573  2551    2
  3203  2515  2517    1
  3204  2515  2516    1
  3205  2604  2606    1
  3206  2604  2602    1
  3207  2604  2605    1
  3208  2546  2545    2
  3209  2584  2585   ar
  3210  2517  2528    1
  3211  2568  2567    2
  3212  2528  2522   ar
  3213  2289  2287   ar
  3214  2289  2290   ar
  3215  2415  2414    2
  3216  2414  2413   ar
  3217  2532  2534    1
  3218  2393  2394   ar
  3219  2606  2601    1
  3220  2545  2544   ar
  3221  2602  2603    1
  3222  2602  2600    1
  3223  2287  2286   ar
  3224  2548  2541   ar
  3225  2419  2420   ar
  3226  2390  2396   ar
  3227  2589  2592   ar
  3228  2589  2588   ar
  3229  2424  2425    1
  3230  2368  2367   ar
  3231  2368  2370   ar
  3232  2523  2522   ar
  3233  2523  2524   ar
  3234  2592  2593   ar
  3235  2367  2373   ar
  3236  2290  2283   ar
  3237  2275  2274    1
  3238  2585  2586    1
  3239  2585  2587   ar
  3240  2388  2387    1
  3241  2551  2572    1
  3242  2551  2537    1
  3243  2551  2553    1
  3244  2569  2566   ar
  3245  2569  2570   ar
  3246  2522  2521   ar
  3247  2567  2566   ar
  3248  2567  2561   ar
  3249  2425  2423    1
  3250  2309  2308    1
  3251  2413  2420   ar
  3252  2413  2412    1
  3253  2601  2600    1
  3254  2536  2534    1
  3255  2536  2537    1
  3256  2536  2538    1
  3257  2525  2524    2
  3258  2534  2535    1
  3259  2286  2284   ar
  3260  2394  2400   ar
  3261  2394  2395   ar
  3262  2524  2518   ar
  3263  2544  2542   ar
  3264  2370  2371   ar
  3265  2566  2565   ar
  3266  2596  2574    2
  3267  2541  2542   ar
  3268  2541  2540    1
  3269  2600  2598    1
  3270  2588  2587   ar
  3271  2588  2594   ar
  3272  2616  2597    2
  3273  2274  2276    1
  3274  2396  2395   ar
  3275  2396  2397    2
  3276  2535  2540    1
  3277  2389  2387    1
  3278  2389  2400    1
  3279  2389  2384    1
  3280  2593  2594   ar
  3281  2410  2411    1
  3282  2410  2412    1
  3283  2410  2408    1
  3284  2599  2598    1
  3285  2599  2597    1
  3286  2387  2385    1
  3287  2283  2284   ar
  3288  2283  2282    1
  3289  2570  2571   ar
  3290  2373  2374    2
  3291  2373  2372   ar
  3292  2561  2562   ar
  3293  2553  2552    1
  3294  2277  2276    1
  3295  2277  2282    1
  3296  2400  2399   ar
  3297  2284  2285    2
  3298  2412  2407    1
  3299  2521  2519   ar
  3300  2395  2398   ar
  3301  2542  2543    2
  3302  2345  2346   ar
  3303  2345  2350   ar
  3304  2540  2538    1
  3305  2308  2303   ar
  3306  2308  2307   ar
  3307  2594  2583    1
  3308  2538  2539    1
  3309  2351  2350    1
  3310  2384  2383    1
  3311  2597  2615    1
  3312  2597  2580    1
  3313  2423  2445    2
  3314  2423  2409    1
  3315  2423  2444    1
  3316  2408  2409    1
  3317  2408  2406    1
  3318  2371  2372   ar
  3319  2371  2377   ar
  3320  2518  2519   ar
  3321  2276  2278    1
  3322  2282  2280    1
  3323  2346  2347   ar
  3324  2565  2571   ar
  3325  2565  2564   ar
  3326  2303  2304   ar
  3327  2310  2307   ar
  3328  2310  2311   ar
  3329  2574  2576    1
  3330  2574  2595    1
  3331  2574  2557    1
  3332  2372  2375   ar
  3333  2519  2520    1
  3334  2330  2329    1
  3335  2571  2560    1
  3336  2350  2349   ar
  3337  2307  2306   ar
  3338  2576  2575    1
  3339  2562  2564   ar
  3340  2562  2563    1
  3341  2383  2385    1
  3342  2383  2381    1
  3343  2385  2386    1
  3344  2552  2554    1
  3345  2407  2406    1
  3346  2399  2398   ar
  3347  2581  2579    1
  3348  2581  2583    1
  3349  2581  2582    1
  3350  2579  2580    1
  3351  2579  2577    1
  3352  2386  2403    1
  3353  2278  2280    1
  3354  2278  2279    1
  3355  2556  2557    1
  3356  2556  2554    1
  3357  2556  2558    1
  3358  2583  2578    1
  3359  2365  2364    1
  3360  2377  2366    1
  3361  2377  2376   ar
  3362  2406  2404    1
  3363  2405  2403    1
  3364  2405  2404    1
  3365  2280  2281    1
  3366  2311  2312   ar
  3367  2347  2348   ar
  3368  2314  2293    2
  3369  2304  2305   ar
  3370  2366  2364    1
  3371  2366  2361    1
  3372  2554  2555    1
  3373  2555  2560    1
  3374  2329  2328   ar
  3375  2329  2331   ar
  3376  2560  2558    1
  3377  2375  2376   ar
  3378  2558  2559    1
  3379  2578  2577    1
  3380  2364  2362    1
  3381  2306  2312   ar
  3382  2306  2305   ar
  3383  2349  2348   ar
  3384  2349  2352   ar
  3385  2328  2326   ar
  3386  2575  2577    1
  3387  2381  2382    1
  3388  2403  2421    2
  3389  2403  2422    1
  3390  2279  2293    1
  3391  2348  2354   ar
  3392  2312  2302    1
  3393  2331  2332   ar
  3394  2293  2295    1
  3395  2293  2313    1
  3396  2361  2360    1
  3397  2382  2380    1
  3398  2352  2353   ar
  3399  2326  2327    2
  3400  2326  2325   ar
  3401  2362  2360    1
  3402  2362  2363    1
  3403  2295  2294    1
  3404  2354  2353   ar
  3405  2354  2344    1
  3406  2360  2358    1
  3407  2302  2297    1
  3408  2302  2300    1
  3409  2297  2296    1
  3410  2363  2380    1
  3411  2332  2325   ar
  3412  2325  2324    1
  3413  2380  2401    2
  3414  2380  2402    1
  3415  2344  2342    1
  3416  2344  2339    1
  3417  2294  2296    1
  3418  2300  2298    1
  3419  2300  2301    1
  3420  2296  2298    1
  3421  2342  2343    1
  3422  2342  2340    1
  3423  2358  2359    1
  3424  2298  2299    1
  3425  2359  2357    1
  3426  2324  2319    1
  3427  2324  2322    1
  3428  2334  2315    2
  3429  2339  2338    1
  3430  2319  2318    1
  3431  2340  2338    1
  3432  2340  2341    1
  3433  2322  2320    1
  3434  2322  2323    1
  3435  2299  2315    1
  3436  2315  2317    1
  3437  2315  2333    1
  3438  2317  2316    1
  3439  2338  2336    1
  3440  2357  2379    2
  3441  2357  2341    1
  3442  2357  2378    1
  3443  2320  2318    1
  3444  2320  2321    1
  3445  2318  2316    1
  3446  2337  2336    1
  3447  2337  2335    1
  3448  2356  2335    2
  3449  2335  2321    1
  3450  2335  2355    1
