ligand
  PyMOL2.2          3D                             0

 16 16  0  0  0  0  0  0  0  0999 V2000
   51.6330   35.2200   53.4490 P   0  0  0  0  0  0  0  0  0  0  0  0
   51.7600   36.6930   53.5780 O   0  0  0  0  0  0  0  0  0  0  0  0
   52.8090   34.5100   54.2940 O   0  5  0  0  0  0  0  0  0  0  0  0
   51.7560   34.8210   51.8860 O   0  0  0  0  0  0  0  0  0  0  0  0
   46.7230   32.8260   55.3850 C   0  0  0  0  0  0  0  0  0  0  0  0
   46.3410   31.5640   54.7920 O   0  0  0  0  0  0  0  0  0  0  0  0
   45.7860   33.9730   54.9070 C   0  0  0  0  0  0  0  0  0  0  0  0
   44.3910   33.6490   55.2580 N   0  0  0  0  0  0  0  0  0  0  0  0
   45.9260   34.1210   53.3760 C   0  0  0  0  0  0  0  0  0  0  0  0
   45.0750   35.1800   52.9060 O   0  0  0  0  0  0  0  0  0  0  0  0
   47.4010   34.4580   53.0740 C   0  0  0  0  0  0  0  0  0  0  0  0
   47.5710   34.5960   51.6530 O   0  0  0  0  0  0  0  0  0  0  0  0
   48.2870   33.2880   53.6020 C   0  0  0  0  0  0  0  0  0  0  0  0
   48.1140   33.1230   55.0410 O   0  0  0  0  0  0  0  0  0  0  0  0
   49.7770   33.5700   53.3490 C   0  0  0  0  0  0  0  0  0  0  0  0
   50.1930   34.7640   54.0350 O   0  0  0  0  0  0  0  0  0  0  0  0
  1  2  1  0  0  0  0
  1  3  1  0  0  0  0
  1  4  2  0  0  0  0
  5  6  1  0  0  0  0
  5  7  1  0  0  0  0
  5 14  1  0  0  0  0
  7  8  1  0  0  0  0
  7  9  1  0  0  0  0
  9 10  1  0  0  0  0
  9 11  1  0  0  0  0
 11 12  1  0  0  0  0
 11 13  1  0  0  0  0
 13 14  1  0  0  0  0
 13 15  1  0  0  0  0
 15 16  1  0  0  0  0
  1 16  1  0  0  0  0
M  END
$$$$
