ligand
 OpenBabel11021811463D
libRbt.so/2013.1/901 2013/11/27
 16 16  0  0  0  0  0  0  0  0999 V2000
   51.9690   35.1368   53.7121 P   0  0  2  0  0  0  0  0  0  0  0  0
   52.4986   36.4538   54.1453 O   0  0  0  0  0  0  0  0  0  0  0  0
   52.8039   33.9640   54.4390 O   0  5  0  0  0  0  0  0  0  0  0  0
   52.1257   35.0145   52.1065 O   0  0  0  0  0  0  0  0  0  0  0  0
   46.8585   33.6469   55.8876 C   0  0  2  0  0  0  0  0  0  0  0  0
   46.3858   32.3174   55.5726 O   0  0  0  0  0  0  0  0  0  0  0  0
   45.9819   34.7293   55.1933 C   0  0  2  0  0  0  0  0  0  0  0  0
   44.5787   34.5754   55.6192 N   0  0  0  0  0  0  0  0  0  0  0  0
   46.0934   34.5499   53.6633 C   0  0  1  0  0  0  0  0  0  0  0  0
   45.2975   35.5425   52.9940 O   0  0  0  0  0  0  0  0  0  0  0  0
   47.5785   34.7214   53.2817 C   0  0  2  0  0  0  0  0  0  0  0  0
   47.7220   34.5529   51.8610 O   0  0  0  0  0  0  0  0  0  0  0  0
   48.4040   33.6301   54.0302 C   0  0  2  0  0  0  0  0  0  0  0  0
   48.2562   33.7761   55.4741 O   0  0  0  0  0  0  0  0  0  0  0  0
   49.9018   33.7570   53.7077 C   0  0  0  0  0  0  0  0  0  0  0  0
   50.4084   35.0337   54.1351 O   0  0  0  0  0  0  0  0  0  0  0  0
  1  2  1  1  0  0  0
  1  3  1  0  0  0  0
  1  4  2  0  0  0  0
  1 16  1  0  0  0  0
  5  6  1  6  0  0  0
  5  7  1  0  0  0  0
  5 14  1  0  0  0  0
  7  8  1  1  0  0  0
  7  9  1  0  0  0  0
  9 10  1  6  0  0  0
  9 11  1  0  0  0  0
 11 12  1  6  0  0  0
 11 13  1  0  0  0  0
 13 14  1  0  0  0  0
 13 15  1  1  0  0  0
 15 16  1  0  0  0  0
M  CHG  1   3  -1
M  END
>  <CHROM.1>
61.37243526,-177.51988796,179.80644665,48.87059235,34.51952420,54.06374848
-0.20515747,0.03823696,2.09028511

>  <Name>
ligand

>  <RI>
0

>  <Rbt.Current_Directory>
/home/itssahil/PROJECTS/Mol_Feturizer/New_Systems/rnas/3B4A

>  <Rbt.Executable>
rbdock ($Id: //depot/dev/client3/rdock/2013.1/src/exe/rbdock.cxx#4 $)

>  <Rbt.Library>
libRbt.so (2013.1, Build901 2013/11/27)

>  <Rbt.Parameter_File>
/export/apps/rDock/src/rDock_2013.1_src/data/scripts/dock_solv.prm

>  <Rbt.Receptor>
prm/pocket_docking_2.prm

>  <SCORE>
-4.85099

>  <SCORE.INTER>
-3.3399

>  <SCORE.INTER.CONST>
1

>  <SCORE.INTER.POLAR>
0

>  <SCORE.INTER.ROT>
3

>  <SCORE.INTER.SOLV>
11.7708

>  <SCORE.INTER.VDW>
-11.7502

>  <SCORE.INTER.norm>
-0.208744

>  <SCORE.INTRA>
-1.51109

>  <SCORE.INTRA.DIHEDRAL>
-2.01997

>  <SCORE.INTRA.DIHEDRAL.0>
2.05999

>  <SCORE.INTRA.POLAR>
0

>  <SCORE.INTRA.POLAR.0>
0

>  <SCORE.INTRA.REPUL>
0

>  <SCORE.INTRA.REPUL.0>
0

>  <SCORE.INTRA.SOLV>
-0.200423

>  <SCORE.INTRA.SOLV.lig_0>
-58.7001

>  <SCORE.INTRA.VDW>
-0.400893

>  <SCORE.INTRA.VDW.0>
-0.401036

>  <SCORE.INTRA.norm>
-0.0944429

>  <SCORE.RESTR>
0

>  <SCORE.RESTR.CAVITY>
0

>  <SCORE.RESTR.norm>
0

>  <SCORE.SYSTEM>
0

>  <SCORE.SYSTEM.CONST>
0

>  <SCORE.SYSTEM.DIHEDRAL>
0

>  <SCORE.SYSTEM.SOLV>
0

>  <SCORE.SYSTEM.norm>
0

>  <SCORE.heavy>
16

>  <SCORE.norm>
-0.303187

>  <RMSD>
0.682

$$$$
ligand
 OpenBabel11021811463D
libRbt.so/2013.1/901 2013/11/27
 16 16  0  0  0  0  0  0  0  0999 V2000
   51.9604   35.2980   53.7147 P   0  0  2  0  0  0  0  0  0  0  0  0
   52.4964   36.5479   54.3087 O   0  0  0  0  0  0  0  0  0  0  0  0
   52.7824   34.0386   54.2972 O   0  5  0  0  0  0  0  0  0  0  0  0
   52.1265   35.3717   52.1071 O   0  0  0  0  0  0  0  0  0  0  0  0
   46.9137   33.5952   55.8369 C   0  0  2  0  0  0  0  0  0  0  0  0
   46.4680   32.2725   55.4597 O   0  0  0  0  0  0  0  0  0  0  0  0
   45.9960   34.6900   55.2193 C   0  0  2  0  0  0  0  0  0  0  0  0
   44.6063   34.4769   55.6635 N   0  0  0  0  0  0  0  0  0  0  0  0
   46.0802   34.5959   53.6800 C   0  0  1  0  0  0  0  0  0  0  0  0
   45.2459   35.6017   53.0810 O   0  0  0  0  0  0  0  0  0  0  0  0
   47.5522   34.8262   53.2795 C   0  0  2  0  0  0  0  0  0  0  0  0
   47.6704   34.7380   51.8493 O   0  0  0  0  0  0  0  0  0  0  0  0
   48.4201   33.7183   53.9517 C   0  0  2  0  0  0  0  0  0  0  0  0
   48.2989   33.7828   55.4040 O   0  0  0  0  0  0  0  0  0  0  0  0
   49.9073   33.9013   53.6076 C   0  0  0  0  0  0  0  0  0  0  0  0
   50.3964   35.1560   54.1133 O   0  0  0  0  0  0  0  0  0  0  0  0
  1  2  1  1  0  0  0
  1  3  1  0  0  0  0
  1  4  2  0  0  0  0
  1 16  1  0  0  0  0
  5  6  1  6  0  0  0
  5  7  1  0  0  0  0
  5 14  1  0  0  0  0
  7  8  1  6  0  0  0
  7  9  1  0  0  0  0
  9 10  1  6  0  0  0
  9 11  1  0  0  0  0
 11 12  1  6  0  0  0
 11 13  1  0  0  0  0
 13 14  1  0  0  0  0
 13 15  1  1  0  0  0
 15 16  1  0  0  0  0
M  CHG  1   3  -1
M  END
>  <CHROM.1>
62.35546352,-179.66137760,-176.32958995,48.87288360,34.60375515,54.04956996
-0.22068774,0.05201486,2.14048025

>  <Name>
ligand

>  <RI>
0

>  <Rbt.Current_Directory>
/home/itssahil/PROJECTS/Mol_Feturizer/New_Systems/rnas/3B4A

>  <Rbt.Executable>
rbdock ($Id: //depot/dev/client3/rdock/2013.1/src/exe/rbdock.cxx#4 $)

>  <Rbt.Library>
libRbt.so (2013.1, Build901 2013/11/27)

>  <Rbt.Parameter_File>
/export/apps/rDock/src/rDock_2013.1_src/data/scripts/dock_solv.prm

>  <Rbt.Receptor>
prm/pocket_docking_2.prm

>  <SCORE>
-4.86555

>  <SCORE.INTER>
-3.37417

>  <SCORE.INTER.CONST>
1

>  <SCORE.INTER.POLAR>
0

>  <SCORE.INTER.ROT>
3

>  <SCORE.INTER.SOLV>
11.7108

>  <SCORE.INTER.VDW>
-11.7531

>  <SCORE.INTER.norm>
-0.210885

>  <SCORE.INTRA>
-1.49139

>  <SCORE.INTRA.DIHEDRAL>
-2.01405

>  <SCORE.INTRA.DIHEDRAL.0>
2.05999

>  <SCORE.INTRA.POLAR>
0

>  <SCORE.INTRA.POLAR.0>
0

>  <SCORE.INTRA.REPUL>
0

>  <SCORE.INTRA.REPUL.0>
0

>  <SCORE.INTRA.SOLV>
-0.20364

>  <SCORE.INTRA.SOLV.lig_0>
-58.7001

>  <SCORE.INTRA.VDW>
-0.382544

>  <SCORE.INTRA.VDW.0>
-0.401036

>  <SCORE.INTRA.norm>
-0.0932118

>  <SCORE.RESTR>
0

>  <SCORE.RESTR.CAVITY>
0

>  <SCORE.RESTR.norm>
0

>  <SCORE.SYSTEM>
0

>  <SCORE.SYSTEM.CONST>
0

>  <SCORE.SYSTEM.DIHEDRAL>
0

>  <SCORE.SYSTEM.SOLV>
0

>  <SCORE.SYSTEM.norm>
0

>  <SCORE.heavy>
16

>  <SCORE.norm>
-0.304097

>  <RMSD>
0.685

$$$$
ligand
 OpenBabel11021811463D
libRbt.so/2013.1/901 2013/11/27
 16 16  0  0  0  0  0  0  0  0999 V2000
   52.0697   35.3618   53.4742 P   0  0  2  0  0  0  0  0  0  0  0  0
   52.4505   36.7913   53.5933 O   0  0  0  0  0  0  0  0  0  0  0  0
   53.1111   34.4634   54.3165 O   0  5  0  0  0  0  0  0  0  0  0  0
   52.1110   34.9397   51.9129 O   0  0  0  0  0  0  0  0  0  0  0  0
   47.0423   33.4036   55.8886 C   0  0  2  0  0  0  0  0  0  0  0  0
   46.6074   32.1139   55.4008 O   0  0  0  0  0  0  0  0  0  0  0  0
   46.1869   34.5494   55.2742 C   0  0  2  0  0  0  0  0  0  0  0  0
   44.7657   34.3352   55.6036 N   0  0  0  0  0  0  0  0  0  0  0  0
   46.3816   34.5456   53.7420 C   0  0  1  0  0  0  0  0  0  0  0  0
   45.6069   35.6001   53.1467 O   0  0  0  0  0  0  0  0  0  0  0  0
   47.8819   34.7731   53.4630 C   0  0  2  0  0  0  0  0  0  0  0  0
   48.1027   34.7680   52.0423 O   0  0  0  0  0  0  0  0  0  0  0  0
   48.6835   33.6118   54.1275 C   0  0  2  0  0  0  0  0  0  0  0  0
   48.4577   33.5919   55.5685 O   0  0  0  0  0  0  0  0  0  0  0  0
   50.1942   33.7884   53.9028 C   0  0  0  0  0  0  0  0  0  0  0  0
   50.5767   35.1648   54.0716 O   0  0  0  0  0  0  0  0  0  0  0  0
  1  2  1  1  0  0  0
  1  3  1  0  0  0  0
  1  4  2  0  0  0  0
  1 16  1  0  0  0  0
  5  6  1  6  0  0  0
  5  7  1  0  0  0  0
  5 14  1  0  0  0  0
  7  8  1  6  0  0  0
  7  9  1  0  0  0  0
  9 10  1  6  0  0  0
  9 11  1  0  0  0  0
 11 12  1  6  0  0  0
 11 13  1  0  0  0  0
 13 14  1  0  0  0  0
 13 15  1  1  0  0  0
 15 16  1  0  0  0  0
M  CHG  1   3  -1
M  END
>  <CHROM.1>
41.69525242,-166.10659507,177.68691865,49.07151040,34.56461109,54.02434646
0.29972343,-0.02001793,-0.89388848

>  <Name>
ligand

>  <RI>
0

>  <Rbt.Current_Directory>
/home/itssahil/PROJECTS/Mol_Feturizer/New_Systems/rnas/3B4A

>  <Rbt.Executable>
rbdock ($Id: //depot/dev/client3/rdock/2013.1/src/exe/rbdock.cxx#4 $)

>  <Rbt.Library>
libRbt.so (2013.1, Build901 2013/11/27)

>  <Rbt.Parameter_File>
/export/apps/rDock/src/rDock_2013.1_src/data/scripts/dock_solv.prm

>  <Rbt.Receptor>
prm/pocket_docking_2.prm

>  <SCORE>
-3.40783

>  <SCORE.INTER>
-3.29293

>  <SCORE.INTER.CONST>
1

>  <SCORE.INTER.POLAR>
0

>  <SCORE.INTER.ROT>
3

>  <SCORE.INTER.SOLV>
11.2607

>  <SCORE.INTER.VDW>
-11.5488

>  <SCORE.INTER.norm>
-0.205808

>  <SCORE.INTRA>
-0.114988

>  <SCORE.INTRA.DIHEDRAL>
-0.0205265

>  <SCORE.INTRA.DIHEDRAL.0>
2.05999

>  <SCORE.INTRA.POLAR>
0

>  <SCORE.INTRA.POLAR.0>
0

>  <SCORE.INTRA.REPUL>
0

>  <SCORE.INTRA.REPUL.0>
0

>  <SCORE.INTRA.SOLV>
0.293629

>  <SCORE.INTRA.SOLV.lig_0>
-58.7001

>  <SCORE.INTRA.VDW>
-0.251539

>  <SCORE.INTRA.VDW.0>
-0.401036

>  <SCORE.INTRA.norm>
-0.00718677

>  <SCORE.RESTR>
8.6688e-05

>  <SCORE.RESTR.CAVITY>
8.6688e-05

>  <SCORE.RESTR.norm>
5.418e-06

>  <SCORE.SYSTEM>
0

>  <SCORE.SYSTEM.CONST>
0

>  <SCORE.SYSTEM.DIHEDRAL>
0

>  <SCORE.SYSTEM.SOLV>
0

>  <SCORE.SYSTEM.norm>
0

>  <SCORE.heavy>
16

>  <SCORE.norm>
-0.21299

>  <RMSD>
0.694

$$$$
ligand
 OpenBabel11021811463D
libRbt.so/2013.1/901 2013/11/27
 16 16  0  0  0  0  0  0  0  0999 V2000
   51.5535   35.6632   53.2508 P   0  0  2  0  0  0  0  0  0  0  0  0
   51.8876   37.1070   53.1711 O   0  0  0  0  0  0  0  0  0  0  0  0
   52.5505   34.9448   54.2954 O   0  5  0  0  0  0  0  0  0  0  0  0
   51.7239   35.0067   51.7820 O   0  0  0  0  0  0  0  0  0  0  0  0
   46.6688   33.5976   55.8793 C   0  0  2  0  0  0  0  0  0  0  0  0
   46.1828   32.3504   55.3330 O   0  0  0  0  0  0  0  0  0  0  0  0
   45.7785   34.7902   55.4242 C   0  0  2  0  0  0  0  0  0  0  0  0
   44.3864   34.5576   55.8509 N   0  0  0  0  0  0  0  0  0  0  0  0
   45.8490   34.9015   53.8853 C   0  0  1  0  0  0  0  0  0  0  0  0
   45.0396   36.0013   53.4358 O   0  0  0  0  0  0  0  0  0  0  0  0
   47.3241   35.1432   53.5033 C   0  0  2  0  0  0  0  0  0  0  0  0
   47.4295   35.2447   52.0730 O   0  0  0  0  0  0  0  0  0  0  0  0
   48.1647   33.9316   54.0114 C   0  0  2  0  0  0  0  0  0  0  0  0
   48.0557   33.8037   55.4604 O   0  0  0  0  0  0  0  0  0  0  0  0
   49.6541   34.1184   53.6787 C   0  0  0  0  0  0  0  0  0  0  0  0
   50.0249   35.5056   53.7642 O   0  0  0  0  0  0  0  0  0  0  0  0
  1  2  1  6  0  0  0
  1  3  1  0  0  0  0
  1  4  2  0  0  0  0
  1 16  1  0  0  0  0
  5  6  1  6  0  0  0
  5  7  1  0  0  0  0
  5 14  1  0  0  0  0
  7  8  1  6  0  0  0
  7  9  1  0  0  0  0
  9 10  1  1  0  0  0
  9 11  1  0  0  0  0
 11 12  1  6  0  0  0
 11 13  1  0  0  0  0
 13 14  1  0  0  0  0
 13 15  1  1  0  0  0
 15 16  1  0  0  0  0
M  CHG  1   3  -1
M  END
>  <CHROM.1>
34.80314499,-173.95277047,172.85734038,48.57140740,34.86945448,53.96211712
0.34236145,0.03702251,-0.82696104

>  <Name>
ligand

>  <RI>
0

>  <Rbt.Current_Directory>
/home/itssahil/PROJECTS/Mol_Feturizer/New_Systems/rnas/3B4A

>  <Rbt.Executable>
rbdock ($Id: //depot/dev/client3/rdock/2013.1/src/exe/rbdock.cxx#4 $)

>  <Rbt.Library>
libRbt.so (2013.1, Build901 2013/11/27)

>  <Rbt.Parameter_File>
/export/apps/rDock/src/rDock_2013.1_src/data/scripts/dock_solv.prm

>  <Rbt.Receptor>
prm/pocket_docking_2.prm

>  <SCORE>
-3.19018

>  <SCORE.INTER>
-3.20906

>  <SCORE.INTER.CONST>
1

>  <SCORE.INTER.POLAR>
0

>  <SCORE.INTER.ROT>
3

>  <SCORE.INTER.SOLV>
12.8549

>  <SCORE.INTER.VDW>
-12.0243

>  <SCORE.INTER.norm>
-0.200566

>  <SCORE.INTRA>
0.0188743

>  <SCORE.INTRA.DIHEDRAL>
0.180149

>  <SCORE.INTRA.DIHEDRAL.0>
2.05999

>  <SCORE.INTRA.POLAR>
0

>  <SCORE.INTRA.POLAR.0>
0

>  <SCORE.INTRA.REPUL>
0

>  <SCORE.INTRA.REPUL.0>
0

>  <SCORE.INTRA.SOLV>
-0.0136896

>  <SCORE.INTRA.SOLV.lig_0>
-58.7001

>  <SCORE.INTRA.VDW>
-0.0643555

>  <SCORE.INTRA.VDW.0>
-0.401036

>  <SCORE.INTRA.norm>
0.00117964

>  <SCORE.RESTR>
0

>  <SCORE.RESTR.CAVITY>
0

>  <SCORE.RESTR.norm>
0

>  <SCORE.SYSTEM>
0

>  <SCORE.SYSTEM.CONST>
0

>  <SCORE.SYSTEM.DIHEDRAL>
0

>  <SCORE.SYSTEM.SOLV>
0

>  <SCORE.SYSTEM.norm>
0

>  <SCORE.heavy>
16

>  <SCORE.norm>
-0.199386

>  <RMSD>
0.799

$$$$
ligand
 OpenBabel11021811463D
libRbt.so/2013.1/901 2013/11/27
 16 16  0  0  0  0  0  0  0  0999 V2000
   51.9569   34.9669   53.7294 P   0  0  2  0  0  0  0  0  0  0  0  0
   51.7979   36.1269   54.6414 O   0  0  0  0  0  0  0  0  0  0  0  0
   52.8063   33.8173   54.4764 O   0  5  0  0  0  0  0  0  0  0  0  0
   52.7359   35.4537   52.3976 O   0  0  0  0  0  0  0  0  0  0  0  0
   46.4675   32.6058   55.4066 C   0  0  2  0  0  0  0  0  0  0  0  0
   46.3158   31.5775   54.4017 O   0  0  0  0  0  0  0  0  0  0  0  0
   45.6243   33.8640   55.0486 C   0  0  2  0  0  0  0  0  0  0  0  0
   44.2049   33.4862   54.9194 N   0  0  0  0  0  0  0  0  0  0  0  0
   46.1416   34.4431   53.7135 C   0  0  1  0  0  0  0  0  0  0  0  0
   45.3841   35.6126   53.3601 O   0  0  0  0  0  0  0  0  0  0  0  0
   47.6251   34.8173   53.9123 C   0  0  2  0  0  0  0  0  0  0  0  0
   48.1439   35.3545   52.6837 O   0  0  0  0  0  0  0  0  0  0  0  0
   48.4075   33.5240   54.2967 C   0  0  2  0  0  0  0  0  0  0  0  0
   47.8827   32.9559   55.5335 O   0  0  0  0  0  0  0  0  0  0  0  0
   49.8959   33.8311   54.5290 C   0  0  0  0  0  0  0  0  0  0  0  0
   50.4901   34.3952   53.3466 O   0  0  0  0  0  0  0  0  0  0  0  0
  1  2  1  1  0  0  0
  1  3  1  0  0  0  0
  1  4  2  0  0  0  0
  1 16  1  0  0  0  0
  5  6  1  6  0  0  0
  5  7  1  0  0  0  0
  5 14  1  0  0  0  0
  7  8  1  6  0  0  0
  7  9  1  0  0  0  0
  9 10  1  1  0  0  0
  9 11  1  0  0  0  0
 11 12  1  6  0  0  0
 11 13  1  0  0  0  0
 13 14  1  0  0  0  0
 13 15  1  1  0  0  0
 15 16  1  0  0  0  0
M  CHG  1   3  -1
M  END
>  <CHROM.1>
-59.21933336,168.89696600,-67.31337998,48.81813102,34.25137929,54.09651040
0.24779156,-0.00973806,-0.56869360

>  <Name>
ligand

>  <RI>
0

>  <Rbt.Current_Directory>
/home/itssahil/PROJECTS/Mol_Feturizer/New_Systems/rnas/3B4A

>  <Rbt.Executable>
rbdock ($Id: //depot/dev/client3/rdock/2013.1/src/exe/rbdock.cxx#4 $)

>  <Rbt.Library>
libRbt.so (2013.1, Build901 2013/11/27)

>  <Rbt.Parameter_File>
/export/apps/rDock/src/rDock_2013.1_src/data/scripts/dock_solv.prm

>  <Rbt.Receptor>
prm/pocket_docking_2.prm

>  <SCORE>
-3.6868

>  <SCORE.INTER>
-2.80177

>  <SCORE.INTER.CONST>
1

>  <SCORE.INTER.POLAR>
0

>  <SCORE.INTER.ROT>
3

>  <SCORE.INTER.SOLV>
11.3752

>  <SCORE.INTER.VDW>
-11.2596

>  <SCORE.INTER.norm>
-0.175111

>  <SCORE.INTRA>
-0.887385

>  <SCORE.INTRA.DIHEDRAL>
-1.37705

>  <SCORE.INTRA.DIHEDRAL.0>
2.05999

>  <SCORE.INTRA.POLAR>
0

>  <SCORE.INTRA.POLAR.0>
0

>  <SCORE.INTRA.REPUL>
0

>  <SCORE.INTRA.REPUL.0>
0

>  <SCORE.INTRA.SOLV>
-0.470138

>  <SCORE.INTRA.SOLV.lig_0>
-58.7001

>  <SCORE.INTRA.VDW>
0.0362069

>  <SCORE.INTRA.VDW.0>
-0.401036

>  <SCORE.INTRA.norm>
-0.0554616

>  <SCORE.RESTR>
0.00236469

>  <SCORE.RESTR.CAVITY>
0.00236469

>  <SCORE.RESTR.norm>
0.000147793

>  <SCORE.SYSTEM>
0

>  <SCORE.SYSTEM.CONST>
0

>  <SCORE.SYSTEM.DIHEDRAL>
0

>  <SCORE.SYSTEM.SOLV>
0

>  <SCORE.SYSTEM.norm>
0

>  <SCORE.heavy>
16

>  <SCORE.norm>
-0.230425

>  <RMSD>
0.829

$$$$
ligand
 OpenBabel11021811463D
libRbt.so/2013.1/901 2013/11/27
 16 16  0  0  0  0  0  0  0  0999 V2000
   52.0214   34.9653   53.7213 P   0  0  2  0  0  0  0  0  0  0  0  0
   51.8654   36.1306   54.6269 O   0  0  0  0  0  0  0  0  0  0  0  0
   52.8564   33.8123   54.4792 O   0  5  0  0  0  0  0  0  0  0  0  0
   52.8132   35.4398   52.3927 O   0  0  0  0  0  0  0  0  0  0  0  0
   46.5209   32.5855   55.3470 C   0  0  2  0  0  0  0  0  0  0  0  0
   46.3862   31.5676   54.3292 O   0  0  0  0  0  0  0  0  0  0  0  0
   45.6700   33.8406   54.9965 C   0  0  2  0  0  0  0  0  0  0  0  0
   44.2549   33.4523   54.8513 N   0  0  0  0  0  0  0  0  0  0  0  0
   46.1932   34.4394   53.6725 C   0  0  1  0  0  0  0  0  0  0  0  0
   45.4286   35.6065   53.3263 O   0  0  0  0  0  0  0  0  0  0  0  0
   47.6718   34.8239   53.8878 C   0  0  2  0  0  0  0  0  0  0  0  0
   48.1960   35.3795   52.6697 O   0  0  0  0  0  0  0  0  0  0  0  0
   48.4621   33.5328   54.2638 C   0  0  2  0  0  0  0  0  0  0  0  0
   47.9320   32.9461   55.4896 O   0  0  0  0  0  0  0  0  0  0  0  0
   49.9458   33.8498   54.5119 C   0  0  0  0  0  0  0  0  0  0  0  0
   50.5527   34.4036   53.3310 O   0  0  0  0  0  0  0  0  0  0  0  0
  1  2  1  1  0  0  0
  1  3  1  0  0  0  0
  1  4  2  0  0  0  0
  1 16  1  0  0  0  0
  5  6  1  6  0  0  0
  5  7  1  0  0  0  0
  5 14  1  0  0  0  0
  7  8  1  6  0  0  0
  7  9  1  0  0  0  0
  9 10  1  1  0  0  0
  9 11  1  0  0  0  0
 11 12  1  6  0  0  0
 11 13  1  0  0  0  0
 13 14  1  0  0  0  0
 13 15  1  1  0  0  0
 15 16  1  0  0  0  0
M  CHG  1   3  -1
M  END
>  <CHROM.1>
-60.56490390,169.79505330,-67.30463730,48.87469536,34.24819663,54.06745956
0.24470182,-0.01474862,-0.55946449

>  <Name>
ligand

>  <RI>
0

>  <Rbt.Current_Directory>
/home/itssahil/PROJECTS/Mol_Feturizer/New_Systems/rnas/3B4A

>  <Rbt.Executable>
rbdock ($Id: //depot/dev/client3/rdock/2013.1/src/exe/rbdock.cxx#4 $)

>  <Rbt.Library>
libRbt.so (2013.1, Build901 2013/11/27)

>  <Rbt.Parameter_File>
/export/apps/rDock/src/rDock_2013.1_src/data/scripts/dock_solv.prm

>  <Rbt.Receptor>
prm/pocket_docking_2.prm

>  <SCORE>
-3.72845

>  <SCORE.INTER>
-2.76344

>  <SCORE.INTER.CONST>
1

>  <SCORE.INTER.POLAR>
0

>  <SCORE.INTER.ROT>
3

>  <SCORE.INTER.SOLV>
11.0311

>  <SCORE.INTER.VDW>
-11.1193

>  <SCORE.INTER.norm>
-0.172715

>  <SCORE.INTRA>
-0.973976

>  <SCORE.INTRA.DIHEDRAL>
-1.4683

>  <SCORE.INTRA.DIHEDRAL.0>
2.05999

>  <SCORE.INTRA.POLAR>
0

>  <SCORE.INTRA.POLAR.0>
0

>  <SCORE.INTRA.REPUL>
0

>  <SCORE.INTRA.REPUL.0>
0

>  <SCORE.INTRA.SOLV>
-0.486306

>  <SCORE.INTRA.SOLV.lig_0>
-58.7001

>  <SCORE.INTRA.VDW>
0.00332924

>  <SCORE.INTRA.VDW.0>
-0.401036

>  <SCORE.INTRA.norm>
-0.0608735

>  <SCORE.RESTR>
0.00896744

>  <SCORE.RESTR.CAVITY>
0.00896744

>  <SCORE.RESTR.norm>
0.000560465

>  <SCORE.SYSTEM>
0

>  <SCORE.SYSTEM.CONST>
0

>  <SCORE.SYSTEM.DIHEDRAL>
0

>  <SCORE.SYSTEM.SOLV>
0

>  <SCORE.SYSTEM.norm>
0

>  <SCORE.heavy>
16

>  <SCORE.norm>
-0.233028

>  <RMSD>
0.838

$$$$
ligand
 OpenBabel11021811463D
libRbt.so/2013.1/901 2013/11/27
 16 16  0  0  0  0  0  0  0  0999 V2000
   51.3009   35.9069   53.2537 P   0  0  2  0  0  0  0  0  0  0  0  0
   51.6290   37.3348   53.4901 O   0  0  0  0  0  0  0  0  0  0  0  0
   52.2429   34.9850   54.1831 O   0  5  0  0  0  0  0  0  0  0  0  0
   51.5573   35.5644   51.6935 O   0  0  0  0  0  0  0  0  0  0  0  0
   46.5460   33.9326   55.8082 C   0  0  2  0  0  0  0  0  0  0  0  0
   46.2630   32.5242   55.6453 O   0  0  0  0  0  0  0  0  0  0  0  0
   45.4942   34.8027   55.0607 C   0  0  2  0  0  0  0  0  0  0  0  0
   44.1458   34.4937   55.5713 N   0  0  0  0  0  0  0  0  0  0  0  0
   45.5737   34.4873   53.5509 C   0  0  1  0  0  0  0  0  0  0  0  0
   44.6158   35.2830   52.8327 O   0  0  0  0  0  0  0  0  0  0  0  0
   47.0020   34.8298   53.0785 C   0  0  2  0  0  0  0  0  0  0  0  0
   47.1156   34.5408   51.6747 O   0  0  0  0  0  0  0  0  0  0  0  0
   48.0066   33.9491   53.8834 C   0  0  2  0  0  0  0  0  0  0  0  0
   47.8930   34.2178   55.3126 O   0  0  0  0  0  0  0  0  0  0  0  0
   49.4563   34.2556   53.4734 C   0  0  0  0  0  0  0  0  0  0  0  0
   49.7471   35.6548   53.6376 O   0  0  0  0  0  0  0  0  0  0  0  0
  1  2  1  1  0  0  0
  1  3  1  0  0  0  0
  1  4  2  0  0  0  0
  1 16  1  0  0  0  0
  5  6  1  6  0  0  0
  5  7  1  0  0  0  0
  5 14  1  0  0  0  0
  7  8  1  1  0  0  0
  7  9  1  0  0  0  0
  9 10  1  6  0  0  0
  9 11  1  0  0  0  0
 11 12  1  6  0  0  0
 11 13  1  0  0  0  0
 13 14  1  0  0  0  0
 13 15  1  6  0  0  0
 15 16  1  0  0  0  0
M  CHG  1   3  -1
M  END
>  <CHROM.1>
56.15036333,177.56582577,-176.99273137,48.33976995,34.89367886,53.81359711
-0.30885927,0.14871457,1.99931595

>  <Name>
ligand

>  <RI>
0

>  <Rbt.Current_Directory>
/home/itssahil/PROJECTS/Mol_Feturizer/New_Systems/rnas/3B4A

>  <Rbt.Executable>
rbdock ($Id: //depot/dev/client3/rdock/2013.1/src/exe/rbdock.cxx#4 $)

>  <Rbt.Library>
libRbt.so (2013.1, Build901 2013/11/27)

>  <Rbt.Parameter_File>
/export/apps/rDock/src/rDock_2013.1_src/data/scripts/dock_solv.prm

>  <Rbt.Receptor>
prm/pocket_docking_2.prm

>  <SCORE>
-4.89126

>  <SCORE.INTER>
-3.43498

>  <SCORE.INTER.CONST>
1

>  <SCORE.INTER.POLAR>
0

>  <SCORE.INTER.ROT>
3

>  <SCORE.INTER.SOLV>
12.4182

>  <SCORE.INTER.VDW>
-12.0294

>  <SCORE.INTER.norm>
-0.214686

>  <SCORE.INTRA>
-1.45628

>  <SCORE.INTRA.DIHEDRAL>
-1.96114

>  <SCORE.INTRA.DIHEDRAL.0>
2.05999

>  <SCORE.INTRA.POLAR>
0

>  <SCORE.INTRA.POLAR.0>
0

>  <SCORE.INTRA.REPUL>
0

>  <SCORE.INTRA.REPUL.0>
0

>  <SCORE.INTRA.SOLV>
-0.197486

>  <SCORE.INTRA.SOLV.lig_0>
-58.7001

>  <SCORE.INTRA.VDW>
-0.376961

>  <SCORE.INTRA.VDW.0>
-0.401036

>  <SCORE.INTRA.norm>
-0.0910172

>  <SCORE.RESTR>
0

>  <SCORE.RESTR.CAVITY>
0

>  <SCORE.RESTR.norm>
0

>  <SCORE.SYSTEM>
0

>  <SCORE.SYSTEM.CONST>
0

>  <SCORE.SYSTEM.DIHEDRAL>
0

>  <SCORE.SYSTEM.SOLV>
0

>  <SCORE.SYSTEM.norm>
0

>  <SCORE.heavy>
16

>  <SCORE.norm>
-0.305704

>  <RMSD>
0.855

$$$$
ligand
 OpenBabel11021811463D
libRbt.so/2013.1/901 2013/11/27
 16 16  0  0  0  0  0  0  0  0999 V2000
   51.3254   35.7912   53.1596 P   0  0  2  0  0  0  0  0  0  0  0  0
   51.7549   37.1668   53.5143 O   0  0  0  0  0  0  0  0  0  0  0  0
   52.2843   34.7280   53.9020 O   0  5  0  0  0  0  0  0  0  0  0  0
   51.4334   35.6085   51.5558 O   0  0  0  0  0  0  0  0  0  0  0  0
   46.5833   33.9483   55.8034 C   0  0  2  0  0  0  0  0  0  0  0  0
   46.2435   32.5547   55.6224 O   0  0  0  0  0  0  0  0  0  0  0  0
   45.5350   34.8715   55.1171 C   0  0  2  0  0  0  0  0  0  0  0  0
   44.1975   34.5987   55.6745 N   0  0  0  0  0  0  0  0  0  0  0  0
   45.5439   34.5874   53.5989 C   0  0  1  0  0  0  0  0  0  0  0  0
   44.5878   35.4322   52.9365 O   0  0  0  0  0  0  0  0  0  0  0  0
   46.9639   34.8899   53.0771 C   0  0  2  0  0  0  0  0  0  0  0  0
   47.0119   34.6286   51.6641 O   0  0  0  0  0  0  0  0  0  0  0  0
   47.9669   33.9566   53.8225 C   0  0  2  0  0  0  0  0  0  0  0  0
   47.9193   34.1969   55.2604 O   0  0  0  0  0  0  0  0  0  0  0  0
   49.4096   34.2209   53.3613 C   0  0  0  0  0  0  0  0  0  0  0  0
   49.7960   35.5762   53.6492 O   0  0  0  0  0  0  0  0  0  0  0  0
  1  2  1  1  0  0  0
  1  3  1  0  0  0  0
  1  4  2  0  0  0  0
  1 16  1  0  0  0  0
  5  6  1  6  0  0  0
  5  7  1  0  0  0  0
  5 14  1  0  0  0  0
  7  8  1  1  0  0  0
  7  9  1  0  0  0  0
  9 10  1  6  0  0  0
  9 11  1  0  0  0  0
 11 12  1  6  0  0  0
 11 13  1  0  0  0  0
 13 14  1  0  0  0  0
 13 15  1  6  0  0  0
 15 16  1  0  0  0  0
M  CHG  1   3  -1
M  END
>  <CHROM.1>
61.11742018,179.32466136,-177.20165060,48.33945712,34.88288810,53.78031196
-0.31740460,0.10164214,2.02003343

>  <Name>
ligand

>  <RI>
0

>  <Rbt.Current_Directory>
/home/itssahil/PROJECTS/Mol_Feturizer/New_Systems/rnas/3B4A

>  <Rbt.Executable>
rbdock ($Id: //depot/dev/client3/rdock/2013.1/src/exe/rbdock.cxx#4 $)

>  <Rbt.Library>
libRbt.so (2013.1, Build901 2013/11/27)

>  <Rbt.Parameter_File>
/export/apps/rDock/src/rDock_2013.1_src/data/scripts/dock_solv.prm

>  <Rbt.Receptor>
prm/pocket_docking_2.prm

>  <SCORE>
-4.87432

>  <SCORE.INTER>
-3.37113

>  <SCORE.INTER.CONST>
1

>  <SCORE.INTER.POLAR>
0

>  <SCORE.INTER.ROT>
3

>  <SCORE.INTER.SOLV>
11.8747

>  <SCORE.INTER.VDW>
-11.8056

>  <SCORE.INTER.norm>
-0.210696

>  <SCORE.INTRA>
-1.50319

>  <SCORE.INTRA.DIHEDRAL>
-2.03751

>  <SCORE.INTRA.DIHEDRAL.0>
2.05999

>  <SCORE.INTRA.POLAR>
0

>  <SCORE.INTRA.POLAR.0>
0

>  <SCORE.INTRA.REPUL>
0

>  <SCORE.INTRA.REPUL.0>
0

>  <SCORE.INTRA.SOLV>
-0.202514

>  <SCORE.INTRA.SOLV.lig_0>
-58.7001

>  <SCORE.INTRA.VDW>
-0.383174

>  <SCORE.INTRA.VDW.0>
-0.401036

>  <SCORE.INTRA.norm>
-0.0939492

>  <SCORE.RESTR>
0

>  <SCORE.RESTR.CAVITY>
0

>  <SCORE.RESTR.norm>
0

>  <SCORE.SYSTEM>
0

>  <SCORE.SYSTEM.CONST>
0

>  <SCORE.SYSTEM.DIHEDRAL>
0

>  <SCORE.SYSTEM.SOLV>
0

>  <SCORE.SYSTEM.norm>
0

>  <SCORE.heavy>
16

>  <SCORE.norm>
-0.304645

>  <RMSD>
0.865

$$$$
ligand
 OpenBabel11021811463D
libRbt.so/2013.1/901 2013/11/27
 16 16  0  0  0  0  0  0  0  0999 V2000
   51.2937   35.8876   53.2357 P   0  0  2  0  0  0  0  0  0  0  0  0
   51.6381   37.3115   53.4728 O   0  0  0  0  0  0  0  0  0  0  0  0
   52.2677   34.9522   54.1175 O   0  5  0  0  0  0  0  0  0  0  0  0
   51.4857   35.5596   51.6632 O   0  0  0  0  0  0  0  0  0  0  0  0
   46.5472   33.9488   55.8122 C   0  0  2  0  0  0  0  0  0  0  0  0
   46.2533   32.5426   55.6502 O   0  0  0  0  0  0  0  0  0  0  0  0
   45.4906   34.8271   55.0812 C   0  0  2  0  0  0  0  0  0  0  0  0
   44.1475   34.5252   55.6097 N   0  0  0  0  0  0  0  0  0  0  0  0
   45.5473   34.5146   53.5697 C   0  0  1  0  0  0  0  0  0  0  0  0
   44.5845   35.3178   52.8666 O   0  0  0  0  0  0  0  0  0  0  0  0
   46.9711   34.8494   53.0785 C   0  0  2  0  0  0  0  0  0  0  0  0
   47.0635   34.5628   51.6726 O   0  0  0  0  0  0  0  0  0  0  0  0
   47.9813   33.9607   53.8674 C   0  0  2  0  0  0  0  0  0  0  0  0
   47.8890   34.2269   55.2987 O   0  0  0  0  0  0  0  0  0  0  0  0
   49.4270   34.2592   53.4381 C   0  0  0  0  0  0  0  0  0  0  0  0
   49.7554   35.6388   53.6792 O   0  0  0  0  0  0  0  0  0  0  0  0
  1  2  1  1  0  0  0
  1  3  1  0  0  0  0
  1  4  2  0  0  0  0
  1 16  1  0  0  0  0
  5  6  1  6  0  0  0
  5  7  1  0  0  0  0
  5 14  1  0  0  0  0
  7  8  1  1  0  0  0
  7  9  1  0  0  0  0
  9 10  1  6  0  0  0
  9 11  1  0  0  0  0
 11 12  1  6  0  0  0
 11 13  1  0  0  0  0
 13 14  1  0  0  0  0
 13 15  1  6  0  0  0
 15 16  1  0  0  0  0
M  CHG  1   3  -1
M  END
>  <CHROM.1>
59.73242479,178.93812864,179.62518087,48.32493662,34.89884002,53.80987184
-0.31005410,0.13926646,1.99892755

>  <Name>
ligand

>  <RI>
0

>  <Rbt.Current_Directory>
/home/itssahil/PROJECTS/Mol_Feturizer/New_Systems/rnas/3B4A

>  <Rbt.Executable>
rbdock ($Id: //depot/dev/client3/rdock/2013.1/src/exe/rbdock.cxx#4 $)

>  <Rbt.Library>
libRbt.so (2013.1, Build901 2013/11/27)

>  <Rbt.Parameter_File>
/export/apps/rDock/src/rDock_2013.1_src/data/scripts/dock_solv.prm

>  <Rbt.Receptor>
prm/pocket_docking_2.prm

>  <SCORE>
-4.87736

>  <SCORE.INTER>
-3.36301

>  <SCORE.INTER.CONST>
1

>  <SCORE.INTER.POLAR>
0

>  <SCORE.INTER.ROT>
3

>  <SCORE.INTER.SOLV>
12.3569

>  <SCORE.INTER.VDW>
-11.961

>  <SCORE.INTER.norm>
-0.210188

>  <SCORE.INTRA>
-1.51435

>  <SCORE.INTRA.DIHEDRAL>
-2.05159

>  <SCORE.INTRA.DIHEDRAL.0>
2.05999

>  <SCORE.INTRA.POLAR>
0

>  <SCORE.INTRA.POLAR.0>
0

>  <SCORE.INTRA.REPUL>
0

>  <SCORE.INTRA.REPUL.0>
0

>  <SCORE.INTRA.SOLV>
-0.200791

>  <SCORE.INTRA.SOLV.lig_0>
-58.7001

>  <SCORE.INTRA.VDW>
-0.38816

>  <SCORE.INTRA.VDW.0>
-0.401036

>  <SCORE.INTRA.norm>
-0.0946468

>  <SCORE.RESTR>
0

>  <SCORE.RESTR.CAVITY>
0

>  <SCORE.RESTR.norm>
0

>  <SCORE.SYSTEM>
0

>  <SCORE.SYSTEM.CONST>
0

>  <SCORE.SYSTEM.DIHEDRAL>
0

>  <SCORE.SYSTEM.SOLV>
0

>  <SCORE.SYSTEM.norm>
0

>  <SCORE.heavy>
16

>  <SCORE.norm>
-0.304835

>  <RMSD>
0.866

$$$$
ligand
 OpenBabel11021811463D
libRbt.so/2013.1/901 2013/11/27
 16 16  0  0  0  0  0  0  0  0999 V2000
   51.3066   35.8402   53.2562 P   0  0  2  0  0  0  0  0  0  0  0  0
   51.6726   37.2503   53.5391 O   0  0  0  0  0  0  0  0  0  0  0  0
   52.2164   34.8639   54.1617 O   0  5  0  0  0  0  0  0  0  0  0  0
   51.5637   35.5394   51.6875 O   0  0  0  0  0  0  0  0  0  0  0  0
   46.5346   34.0104   55.8035 C   0  0  2  0  0  0  0  0  0  0  0  0
   46.2499   32.5965   55.7038 O   0  0  0  0  0  0  0  0  0  0  0  0
   45.4743   34.8484   55.0317 C   0  0  2  0  0  0  0  0  0  0  0  0
   44.1318   34.5619   55.5702 N   0  0  0  0  0  0  0  0  0  0  0  0
   45.5368   34.4691   53.5358 C   0  0  1  0  0  0  0  0  0  0  0  0
   44.5707   35.2340   52.7954 O   0  0  0  0  0  0  0  0  0  0  0  0
   46.9596   34.7908   53.0332 C   0  0  2  0  0  0  0  0  0  0  0  0
   47.0574   34.4423   51.6418 O   0  0  0  0  0  0  0  0  0  0  0  0
   47.9734   33.9447   53.8633 C   0  0  2  0  0  0  0  0  0  0  0  0
   47.8759   34.2738   55.2811 O   0  0  0  0  0  0  0  0  0  0  0  0
   49.4183   34.2329   53.4243 C   0  0  0  0  0  0  0  0  0  0  0  0
   49.7439   35.6199   53.6231 O   0  0  0  0  0  0  0  0  0  0  0  0
  1  2  1  1  0  0  0
  1  3  1  0  0  0  0
  1  4  2  0  0  0  0
  1 16  1  0  0  0  0
  5  6  1  6  0  0  0
  5  7  1  0  0  0  0
  5 14  1  0  0  0  0
  7  8  1  1  0  0  0
  7  9  1  0  0  0  0
  9 10  1  6  0  0  0
  9 11  1  0  0  0  0
 11 12  1  6  0  0  0
 11 13  1  0  0  0  0
 13 14  1  0  0  0  0
 13 15  1  6  0  0  0
 15 16  1  0  0  0  0
M  CHG  1   3  -1
M  END
>  <CHROM.1>
60.59593308,175.56975503,-176.51002247,48.32296597,34.87313584,53.80293609
-0.28880277,0.15058025,1.94656990

>  <Name>
ligand

>  <RI>
0

>  <Rbt.Current_Directory>
/home/itssahil/PROJECTS/Mol_Feturizer/New_Systems/rnas/3B4A

>  <Rbt.Executable>
rbdock ($Id: //depot/dev/client3/rdock/2013.1/src/exe/rbdock.cxx#4 $)

>  <Rbt.Library>
libRbt.so (2013.1, Build901 2013/11/27)

>  <Rbt.Parameter_File>
/export/apps/rDock/src/rDock_2013.1_src/data/scripts/dock_solv.prm

>  <Rbt.Receptor>
prm/pocket_docking_2.prm

>  <SCORE>
-5.00273

>  <SCORE.INTER>
-3.55988

>  <SCORE.INTER.CONST>
1

>  <SCORE.INTER.POLAR>
0

>  <SCORE.INTER.ROT>
3

>  <SCORE.INTER.SOLV>
12.3569

>  <SCORE.INTER.VDW>
-12.0922

>  <SCORE.INTER.norm>
-0.222493

>  <SCORE.INTRA>
-1.44285

>  <SCORE.INTRA.DIHEDRAL>
-1.93958

>  <SCORE.INTRA.DIHEDRAL.0>
2.05999

>  <SCORE.INTRA.POLAR>
0

>  <SCORE.INTRA.POLAR.0>
0

>  <SCORE.INTRA.REPUL>
0

>  <SCORE.INTRA.REPUL.0>
0

>  <SCORE.INTRA.SOLV>
-0.197632

>  <SCORE.INTRA.SOLV.lig_0>
-58.7001

>  <SCORE.INTRA.VDW>
-0.374239

>  <SCORE.INTRA.VDW.0>
-0.401036

>  <SCORE.INTRA.norm>
-0.0901779

>  <SCORE.RESTR>
0

>  <SCORE.RESTR.CAVITY>
0

>  <SCORE.RESTR.norm>
0

>  <SCORE.SYSTEM>
0

>  <SCORE.SYSTEM.CONST>
0

>  <SCORE.SYSTEM.DIHEDRAL>
0

>  <SCORE.SYSTEM.SOLV>
0

>  <SCORE.SYSTEM.norm>
0

>  <SCORE.heavy>
16

>  <SCORE.norm>
-0.312671

>  <RMSD>
0.873

$$$$
ligand
 OpenBabel11021811463D
libRbt.so/2013.1/901 2013/11/27
 16 16  0  0  0  0  0  0  0  0999 V2000
   51.2871   35.8996   53.2638 P   0  0  2  0  0  0  0  0  0  0  0  0
   51.5806   37.3453   53.4261 O   0  0  0  0  0  0  0  0  0  0  0  0
   52.2066   35.0538   54.2837 O   0  5  0  0  0  0  0  0  0  0  0  0
   51.6123   35.4696   51.7385 O   0  0  0  0  0  0  0  0  0  0  0  0
   46.5461   34.0293   55.8211 C   0  0  2  0  0  0  0  0  0  0  0  0
   46.3202   32.6015   55.7999 O   0  0  0  0  0  0  0  0  0  0  0  0
   45.4648   34.7773   54.9883 C   0  0  2  0  0  0  0  0  0  0  0  0
   44.1269   34.4671   55.5250 N   0  0  0  0  0  0  0  0  0  0  0  0
   45.5655   34.3157   53.5179 C   0  0  1  0  0  0  0  0  0  0  0  0
   44.5808   34.9964   52.7219 O   0  0  0  0  0  0  0  0  0  0  0  0
   46.9817   34.6662   53.0160 C   0  0  2  0  0  0  0  0  0  0  0  0
   47.1148   34.2428   51.6485 O   0  0  0  0  0  0  0  0  0  0  0  0
   48.0159   33.9116   53.9069 C   0  0  2  0  0  0  0  0  0  0  0  0
   47.8835   34.3173   55.3018 O   0  0  0  0  0  0  0  0  0  0  0  0
   49.4546   34.2333   53.4707 C   0  0  0  0  0  0  0  0  0  0  0  0
   49.7237   35.6404   53.6009 O   0  0  0  0  0  0  0  0  0  0  0  0
  1  2  1  1  0  0  0
  1  3  1  0  0  0  0
  1  4  2  0  0  0  0
  1 16  1  0  0  0  0
  5  6  1  6  0  0  0
  5  7  1  0  0  0  0
  5 14  1  0  0  0  0
  7  8  1  1  0  0  0
  7  9  1  0  0  0  0
  9 10  1  6  0  0  0
  9 11  1  0  0  0  0
 11 12  1  6  0  0  0
 11 13  1  0  0  0  0
 13 14  1  0  0  0  0
 13 15  1  6  0  0  0
 15 16  1  0  0  0  0
M  CHG  1   3  -1
M  END
>  <CHROM.1>
60.96067380,174.71095800,-178.71987118,48.33180131,34.84672140,53.80861008
-0.28248435,0.19537280,1.88494236

>  <Name>
ligand

>  <RI>
0

>  <Rbt.Current_Directory>
/home/itssahil/PROJECTS/Mol_Feturizer/New_Systems/rnas/3B4A

>  <Rbt.Executable>
rbdock ($Id: //depot/dev/client3/rdock/2013.1/src/exe/rbdock.cxx#4 $)

>  <Rbt.Library>
libRbt.so (2013.1, Build901 2013/11/27)

>  <Rbt.Parameter_File>
/export/apps/rDock/src/rDock_2013.1_src/data/scripts/dock_solv.prm

>  <Rbt.Receptor>
prm/pocket_docking_2.prm

>  <SCORE>
-4.87445

>  <SCORE.INTER>
-3.43487

>  <SCORE.INTER.CONST>
1

>  <SCORE.INTER.POLAR>
0

>  <SCORE.INTER.ROT>
3

>  <SCORE.INTER.SOLV>
12.7546

>  <SCORE.INTER.VDW>
-12.1414

>  <SCORE.INTER.norm>
-0.214679

>  <SCORE.INTRA>
-1.43958

>  <SCORE.INTRA.DIHEDRAL>
-1.91403

>  <SCORE.INTRA.DIHEDRAL.0>
2.05999

>  <SCORE.INTRA.POLAR>
0

>  <SCORE.INTRA.POLAR.0>
0

>  <SCORE.INTRA.REPUL>
0

>  <SCORE.INTRA.REPUL.0>
0

>  <SCORE.INTRA.SOLV>
-0.194572

>  <SCORE.INTRA.SOLV.lig_0>
-58.7001

>  <SCORE.INTRA.VDW>
-0.385282

>  <SCORE.INTRA.VDW.0>
-0.401036

>  <SCORE.INTRA.norm>
-0.0899739

>  <SCORE.RESTR>
0

>  <SCORE.RESTR.CAVITY>
0

>  <SCORE.RESTR.norm>
0

>  <SCORE.SYSTEM>
0

>  <SCORE.SYSTEM.CONST>
0

>  <SCORE.SYSTEM.DIHEDRAL>
0

>  <SCORE.SYSTEM.SOLV>
0

>  <SCORE.SYSTEM.norm>
0

>  <SCORE.heavy>
16

>  <SCORE.norm>
-0.304653

>  <RMSD>
0.882

$$$$
ligand
 OpenBabel11021811463D
libRbt.so/2013.1/901 2013/11/27
 16 16  0  0  0  0  0  0  0  0999 V2000
   51.2778   35.8937   53.2185 P   0  0  2  0  0  0  0  0  0  0  0  0
   51.6223   37.3141   53.4759 O   0  0  0  0  0  0  0  0  0  0  0  0
   52.2226   34.9469   54.1195 O   0  5  0  0  0  0  0  0  0  0  0  0
   51.5115   35.5767   51.6493 O   0  0  0  0  0  0  0  0  0  0  0  0
   46.5359   33.9955   55.8007 C   0  0  2  0  0  0  0  0  0  0  0  0
   46.2640   32.5797   55.6928 O   0  0  0  0  0  0  0  0  0  0  0  0
   45.4683   34.8284   55.0334 C   0  0  2  0  0  0  0  0  0  0  0  0
   44.1283   34.5267   55.5697 N   0  0  0  0  0  0  0  0  0  0  0  0
   45.5347   34.4583   53.5354 C   0  0  1  0  0  0  0  0  0  0  0  0
   44.5620   35.2187   52.7990 O   0  0  0  0  0  0  0  0  0  0  0  0
   46.9547   34.7955   53.0352 C   0  0  2  0  0  0  0  0  0  0  0  0
   47.0560   34.4560   51.6417 O   0  0  0  0  0  0  0  0  0  0  0  0
   47.9758   33.9539   53.8607 C   0  0  2  0  0  0  0  0  0  0  0  0
   47.8749   34.2740   55.2803 O   0  0  0  0  0  0  0  0  0  0  0  0
   49.4182   34.2575   53.4239 C   0  0  0  0  0  0  0  0  0  0  0  0
   49.7266   35.6492   53.6174 O   0  0  0  0  0  0  0  0  0  0  0  0
  1  2  1  1  0  0  0
  1  3  1  0  0  0  0
  1  4  2  0  0  0  0
  1 16  1  0  0  0  0
  5  6  1  6  0  0  0
  5  7  1  0  0  0  0
  5 14  1  0  0  0  0
  7  8  1  1  0  0  0
  7  9  1  0  0  0  0
  9 10  1  6  0  0  0
  9 11  1  0  0  0  0
 11 12  1  6  0  0  0
 11 13  1  0  0  0  0
 13 14  1  0  0  0  0
 13 15  1  6  0  0  0
 15 16  1  0  0  0  0
M  CHG  1   3  -1
M  END
>  <CHROM.1>
59.98454749,176.94344528,-177.36336036,48.31171734,34.88986545,53.78814508
-0.30198320,0.15693501,1.95676201

>  <Name>
ligand

>  <RI>
0

>  <Rbt.Current_Directory>
/home/itssahil/PROJECTS/Mol_Feturizer/New_Systems/rnas/3B4A

>  <Rbt.Executable>
rbdock ($Id: //depot/dev/client3/rdock/2013.1/src/exe/rbdock.cxx#4 $)

>  <Rbt.Library>
libRbt.so (2013.1, Build901 2013/11/27)

>  <Rbt.Parameter_File>
/export/apps/rDock/src/rDock_2013.1_src/data/scripts/dock_solv.prm

>  <Rbt.Receptor>
prm/pocket_docking_2.prm

>  <SCORE>
-5.01215

>  <SCORE.INTER>
-3.5352

>  <SCORE.INTER.CONST>
1

>  <SCORE.INTER.POLAR>
0

>  <SCORE.INTER.ROT>
3

>  <SCORE.INTER.SOLV>
12.3093

>  <SCORE.INTER.VDW>
-12.0599

>  <SCORE.INTER.norm>
-0.22095

>  <SCORE.INTRA>
-1.47718

>  <SCORE.INTRA.DIHEDRAL>
-2.00005

>  <SCORE.INTRA.DIHEDRAL.0>
2.05999

>  <SCORE.INTRA.POLAR>
0

>  <SCORE.INTRA.POLAR.0>
0

>  <SCORE.INTRA.REPUL>
0

>  <SCORE.INTRA.REPUL.0>
0

>  <SCORE.INTRA.SOLV>
-0.199313

>  <SCORE.INTRA.SOLV.lig_0>
-58.7001

>  <SCORE.INTRA.VDW>
-0.377499

>  <SCORE.INTRA.VDW.0>
-0.401036

>  <SCORE.INTRA.norm>
-0.0923238

>  <SCORE.RESTR>
0.000235075

>  <SCORE.RESTR.CAVITY>
0.000235075

>  <SCORE.RESTR.norm>
1.46922e-05

>  <SCORE.SYSTEM>
0

>  <SCORE.SYSTEM.CONST>
0

>  <SCORE.SYSTEM.DIHEDRAL>
0

>  <SCORE.SYSTEM.SOLV>
0

>  <SCORE.SYSTEM.norm>
0

>  <SCORE.heavy>
16

>  <SCORE.norm>
-0.313259

>  <RMSD>
0.884

$$$$
ligand
 OpenBabel11021811463D
libRbt.so/2013.1/901 2013/11/27
 16 16  0  0  0  0  0  0  0  0999 V2000
   51.2875   35.8822   53.2219 P   0  0  2  0  0  0  0  0  0  0  0  0
   51.6606   37.2888   53.5130 O   0  0  0  0  0  0  0  0  0  0  0  0
   52.2307   34.8946   54.0800 O   0  5  0  0  0  0  0  0  0  0  0  0
   51.4897   35.6056   51.6408 O   0  0  0  0  0  0  0  0  0  0  0  0
   46.5393   33.9710   55.8134 C   0  0  2  0  0  0  0  0  0  0  0  0
   46.2304   32.5689   55.6433 O   0  0  0  0  0  0  0  0  0  0  0  0
   45.4867   34.8649   55.0956 C   0  0  2  0  0  0  0  0  0  0  0  0
   44.1442   34.5725   55.6306 N   0  0  0  0  0  0  0  0  0  0  0  0
   45.5306   34.5627   53.5816 C   0  0  1  0  0  0  0  0  0  0  0  0
   44.5713   35.3804   52.8905 O   0  0  0  0  0  0  0  0  0  0  0  0
   46.9544   34.8869   53.0834 C   0  0  2  0  0  0  0  0  0  0  0  0
   47.0349   34.6096   51.6749 O   0  0  0  0  0  0  0  0  0  0  0  0
   47.9608   33.9827   53.8594 C   0  0  2  0  0  0  0  0  0  0  0  0
   47.8804   34.2395   55.2931 O   0  0  0  0  0  0  0  0  0  0  0  0
   49.4066   34.2699   53.4228 C   0  0  0  0  0  0  0  0  0  0  0  0
   49.7392   35.6525   53.6403 O   0  0  0  0  0  0  0  0  0  0  0  0
  1  2  1  1  0  0  0
  1  3  1  0  0  0  0
  1  4  2  0  0  0  0
  1 16  1  0  0  0  0
  5  6  1  6  0  0  0
  5  7  1  0  0  0  0
  5 14  1  0  0  0  0
  7  8  1  1  0  0  0
  7  9  1  0  0  0  0
  9 10  1  6  0  0  0
  9 11  1  0  0  0  0
 11 12  1  6  0  0  0
 11 13  1  0  0  0  0
 13 14  1  0  0  0  0
 13 15  1  6  0  0  0
 15 16  1  0  0  0  0
M  CHG  1   3  -1
M  END
>  <CHROM.1>
58.28097054,177.66651309,-176.93550051,48.31310248,34.91815988,53.80690759
-0.31186488,0.12753699,2.00728764

>  <Name>
ligand

>  <RI>
0

>  <Rbt.Current_Directory>
/home/itssahil/PROJECTS/Mol_Feturizer/New_Systems/rnas/3B4A

>  <Rbt.Executable>
rbdock ($Id: //depot/dev/client3/rdock/2013.1/src/exe/rbdock.cxx#4 $)

>  <Rbt.Library>
libRbt.so (2013.1, Build901 2013/11/27)

>  <Rbt.Parameter_File>
/export/apps/rDock/src/rDock_2013.1_src/data/scripts/dock_solv.prm

>  <Rbt.Receptor>
prm/pocket_docking_2.prm

>  <SCORE>
-4.95453

>  <SCORE.INTER>
-3.50291

>  <SCORE.INTER.CONST>
1

>  <SCORE.INTER.POLAR>
0

>  <SCORE.INTER.ROT>
3

>  <SCORE.INTER.SOLV>
12.3167

>  <SCORE.INTER.VDW>
-12.0408

>  <SCORE.INTER.norm>
-0.218932

>  <SCORE.INTRA>
-1.45161

>  <SCORE.INTRA.DIHEDRAL>
-2.00504

>  <SCORE.INTRA.DIHEDRAL.0>
2.05999

>  <SCORE.INTRA.POLAR>
0

>  <SCORE.INTRA.POLAR.0>
0

>  <SCORE.INTRA.REPUL>
0

>  <SCORE.INTRA.REPUL.0>
0

>  <SCORE.INTRA.SOLV>
-0.199176

>  <SCORE.INTRA.SOLV.lig_0>
-58.7001

>  <SCORE.INTRA.VDW>
-0.349506

>  <SCORE.INTRA.VDW.0>
-0.401036

>  <SCORE.INTRA.norm>
-0.0907258

>  <SCORE.RESTR>
0

>  <SCORE.RESTR.CAVITY>
0

>  <SCORE.RESTR.norm>
0

>  <SCORE.SYSTEM>
0

>  <SCORE.SYSTEM.CONST>
0

>  <SCORE.SYSTEM.DIHEDRAL>
0

>  <SCORE.SYSTEM.SOLV>
0

>  <SCORE.SYSTEM.norm>
0

>  <SCORE.heavy>
16

>  <SCORE.norm>
-0.309658

>  <RMSD>
0.890

$$$$
ligand
 OpenBabel11021811463D
libRbt.so/2013.1/901 2013/11/27
 16 16  0  0  0  0  0  0  0  0999 V2000
   51.2984   35.8744   53.2254 P   0  0  2  0  0  0  0  0  0  0  0  0
   51.6709   37.2857   53.4940 O   0  0  0  0  0  0  0  0  0  0  0  0
   52.2336   34.9015   54.1086 O   0  5  0  0  0  0  0  0  0  0  0  0
   51.5127   35.5691   51.6512 O   0  0  0  0  0  0  0  0  0  0  0  0
   46.5478   33.9877   55.8164 C   0  0  2  0  0  0  0  0  0  0  0  0
   46.2340   32.5863   55.6499 O   0  0  0  0  0  0  0  0  0  0  0  0
   45.4949   34.8836   55.1017 C   0  0  2  0  0  0  0  0  0  0  0  0
   44.1538   34.5961   55.6428 N   0  0  0  0  0  0  0  0  0  0  0  0
   45.5315   34.5789   53.5880 C   0  0  1  0  0  0  0  0  0  0  0  0
   44.5717   35.3984   52.8996 O   0  0  0  0  0  0  0  0  0  0  0  0
   46.9541   34.8981   53.0833 C   0  0  2  0  0  0  0  0  0  0  0  0
   47.0279   34.6182   51.6749 O   0  0  0  0  0  0  0  0  0  0  0  0
   47.9611   33.9920   53.8565 C   0  0  2  0  0  0  0  0  0  0  0  0
   47.8875   34.2513   55.2901 O   0  0  0  0  0  0  0  0  0  0  0  0
   49.4059   34.2742   53.4134 C   0  0  0  0  0  0  0  0  0  0  0  0
   49.7466   35.6540   53.6357 O   0  0  0  0  0  0  0  0  0  0  0  0
  1  2  1  1  0  0  0
  1  3  1  0  0  0  0
  1  4  2  0  0  0  0
  1 16  1  0  0  0  0
  5  6  1  6  0  0  0
  5  7  1  0  0  0  0
  5 14  1  0  0  0  0
  7  8  1  1  0  0  0
  7  9  1  0  0  0  0
  9 10  1  6  0  0  0
  9 11  1  0  0  0  0
 11 12  1  6  0  0  0
 11 13  1  0  0  0  0
 13 14  1  0  0  0  0
 13 15  1  6  0  0  0
 15 16  1  0  0  0  0
M  CHG  1   3  -1
M  END
>  <CHROM.1>
58.67320525,177.04687000,-178.15613840,48.31886934,34.92403335,53.80990982
-0.30921225,0.12452337,2.00327713

>  <Name>
ligand

>  <RI>
0

>  <Rbt.Current_Directory>
/home/itssahil/PROJECTS/Mol_Feturizer/New_Systems/rnas/3B4A

>  <Rbt.Executable>
rbdock ($Id: //depot/dev/client3/rdock/2013.1/src/exe/rbdock.cxx#4 $)

>  <Rbt.Library>
libRbt.so (2013.1, Build901 2013/11/27)

>  <Rbt.Parameter_File>
/export/apps/rDock/src/rDock_2013.1_src/data/scripts/dock_solv.prm

>  <Rbt.Receptor>
prm/pocket_docking_2.prm

>  <SCORE>
-4.98699

>  <SCORE.INTER>
-3.51043

>  <SCORE.INTER.CONST>
1

>  <SCORE.INTER.POLAR>
0

>  <SCORE.INTER.ROT>
3

>  <SCORE.INTER.SOLV>
12.3685

>  <SCORE.INTER.VDW>
-12.0631

>  <SCORE.INTER.norm>
-0.219402

>  <SCORE.INTRA>
-1.47656

>  <SCORE.INTRA.DIHEDRAL>
-2.00298

>  <SCORE.INTRA.DIHEDRAL.0>
2.05999

>  <SCORE.INTRA.POLAR>
0

>  <SCORE.INTRA.POLAR.0>
0

>  <SCORE.INTRA.REPUL>
0

>  <SCORE.INTRA.REPUL.0>
0

>  <SCORE.INTRA.SOLV>
-0.198034

>  <SCORE.INTRA.SOLV.lig_0>
-58.7001

>  <SCORE.INTRA.VDW>
-0.376048

>  <SCORE.INTRA.VDW.0>
-0.401036

>  <SCORE.INTRA.norm>
-0.0922848

>  <SCORE.RESTR>
0

>  <SCORE.RESTR.CAVITY>
0

>  <SCORE.RESTR.norm>
0

>  <SCORE.SYSTEM>
0

>  <SCORE.SYSTEM.CONST>
0

>  <SCORE.SYSTEM.DIHEDRAL>
0

>  <SCORE.SYSTEM.SOLV>
0

>  <SCORE.SYSTEM.norm>
0

>  <SCORE.heavy>
16

>  <SCORE.norm>
-0.311687

>  <RMSD>
0.895

$$$$
ligand
 OpenBabel11021811463D
libRbt.so/2013.1/901 2013/11/27
 16 16  0  0  0  0  0  0  0  0999 V2000
   51.2865   35.8954   53.2271 P   0  0  2  0  0  0  0  0  0  0  0  0
   51.6343   37.3122   53.4993 O   0  0  0  0  0  0  0  0  0  0  0  0
   52.2156   34.9375   54.1327 O   0  5  0  0  0  0  0  0  0  0  0  0
   51.5383   35.5888   51.6587 O   0  0  0  0  0  0  0  0  0  0  0  0
   46.5433   34.0346   55.8104 C   0  0  2  0  0  0  0  0  0  0  0  0
   46.2815   32.6147   55.7363 O   0  0  0  0  0  0  0  0  0  0  0  0
   45.4706   34.8413   55.0225 C   0  0  2  0  0  0  0  0  0  0  0  0
   44.1323   34.5430   55.5648 N   0  0  0  0  0  0  0  0  0  0  0  0
   45.5410   34.4358   53.5338 C   0  0  1  0  0  0  0  0  0  0  0  0
   44.5637   35.1715   52.7786 O   0  0  0  0  0  0  0  0  0  0  0  0
   46.9591   34.7711   53.0268 C   0  0  2  0  0  0  0  0  0  0  0  0
   47.0642   34.3989   51.6420 O   0  0  0  0  0  0  0  0  0  0  0  0
   47.9853   33.9567   53.8731 C   0  0  2  0  0  0  0  0  0  0  0  0
   47.8808   34.3100   55.2845 O   0  0  0  0  0  0  0  0  0  0  0  0
   49.4260   34.2600   53.4303 C   0  0  0  0  0  0  0  0  0  0  0  0
   49.7294   35.6552   53.6050 O   0  0  0  0  0  0  0  0  0  0  0  0
  1  2  1  1  0  0  0
  1  3  1  0  0  0  0
  1  4  2  0  0  0  0
  1 16  1  0  0  0  0
  5  6  1  6  0  0  0
  5  7  1  0  0  0  0
  5 14  1  0  0  0  0
  7  8  1  1  0  0  0
  7  9  1  0  0  0  0
  9 10  1  6  0  0  0
  9 11  1  0  0  0  0
 11 12  1  6  0  0  0
 11 13  1  0  0  0  0
 13 14  1  0  0  0  0
 13 15  1  6  0  0  0
 15 16  1  0  0  0  0
M  CHG  1   3  -1
M  END
>  <CHROM.1>
60.64117969,175.90166988,-175.90260204,48.31930443,34.88984408,53.79320833
-0.29533757,0.16543665,1.93016846

>  <Name>
ligand

>  <RI>
0

>  <Rbt.Current_Directory>
/home/itssahil/PROJECTS/Mol_Feturizer/New_Systems/rnas/3B4A

>  <Rbt.Executable>
rbdock ($Id: //depot/dev/client3/rdock/2013.1/src/exe/rbdock.cxx#4 $)

>  <Rbt.Library>
libRbt.so (2013.1, Build901 2013/11/27)

>  <Rbt.Parameter_File>
/export/apps/rDock/src/rDock_2013.1_src/data/scripts/dock_solv.prm

>  <Rbt.Receptor>
prm/pocket_docking_2.prm

>  <SCORE>
-4.97724

>  <SCORE.INTER>
-3.53448

>  <SCORE.INTER.CONST>
1

>  <SCORE.INTER.POLAR>
0

>  <SCORE.INTER.ROT>
3

>  <SCORE.INTER.SOLV>
12.3933

>  <SCORE.INTER.VDW>
-12.0874

>  <SCORE.INTER.norm>
-0.220905

>  <SCORE.INTRA>
-1.44276

>  <SCORE.INTRA.DIHEDRAL>
-1.94568

>  <SCORE.INTRA.DIHEDRAL.0>
2.05999

>  <SCORE.INTRA.POLAR>
0

>  <SCORE.INTRA.POLAR.0>
0

>  <SCORE.INTRA.REPUL>
0

>  <SCORE.INTRA.REPUL.0>
0

>  <SCORE.INTRA.SOLV>
-0.198835

>  <SCORE.INTRA.SOLV.lig_0>
-58.7001

>  <SCORE.INTRA.VDW>
-0.370504

>  <SCORE.INTRA.VDW.0>
-0.401036

>  <SCORE.INTRA.norm>
-0.0901724

>  <SCORE.RESTR>
0

>  <SCORE.RESTR.CAVITY>
0

>  <SCORE.RESTR.norm>
0

>  <SCORE.SYSTEM>
0

>  <SCORE.SYSTEM.CONST>
0

>  <SCORE.SYSTEM.DIHEDRAL>
0

>  <SCORE.SYSTEM.SOLV>
0

>  <SCORE.SYSTEM.norm>
0

>  <SCORE.heavy>
16

>  <SCORE.norm>
-0.311078

>  <RMSD>
0.896

$$$$
ligand
 OpenBabel11021811463D
libRbt.so/2013.1/901 2013/11/27
 16 16  0  0  0  0  0  0  0  0999 V2000
   52.2229   34.9576   54.0534 P   0  0  2  0  0  0  0  0  0  0  0  0
   52.8094   36.1660   54.6844 O   0  0  0  0  0  0  0  0  0  0  0  0
   52.9351   33.6437   54.6595 O   0  5  0  0  0  0  0  0  0  0  0  0
   52.4675   35.0327   52.4559 O   0  0  0  0  0  0  0  0  0  0  0  0
   46.9187   33.4292   55.7544 C   0  0  2  0  0  0  0  0  0  0  0  0
   46.3640   32.2433   55.1408 O   0  0  0  0  0  0  0  0  0  0  0  0
   46.1662   34.7063   55.2802 C   0  0  2  0  0  0  0  0  0  0  0  0
   44.7342   34.5864   55.6108 N   0  0  0  0  0  0  0  0  0  0  0  0
   46.3468   34.8489   53.7530 C   0  0  1  0  0  0  0  0  0  0  0  0
   45.6664   36.0263   53.2867 O   0  0  0  0  0  0  0  0  0  0  0  0
   47.8592   34.9694   53.4725 C   0  0  2  0  0  0  0  0  0  0  0  0
   48.0665   35.0966   52.0554 O   0  0  0  0  0  0  0  0  0  0  0  0
   48.5572   33.6765   53.9957 C   0  0  2  0  0  0  0  0  0  0  0  0
   48.3426   33.5229   55.4304 O   0  0  0  0  0  0  0  0  0  0  0  0
   50.0757   33.7399   53.7637 C   0  0  0  0  0  0  0  0  0  0  0  0
   50.6363   34.9133   54.3786 O   0  0  0  0  0  0  0  0  0  0  0  0
  1  2  1  1  0  0  0
  1  3  1  0  0  0  0
  1  4  2  0  0  0  0
  1 16  1  0  0  0  0
  5  6  1  6  0  0  0
  5  7  1  0  0  0  0
  5 14  1  0  0  0  0
  7  8  1  6  0  0  0
  7  9  1  0  0  0  0
  9 10  1  1  0  0  0
  9 11  1  0  0  0  0
 11 12  1  6  0  0  0
 11 13  1  0  0  0  0
 13 14  1  0  0  0  0
 13 15  1  1  0  0  0
 15 16  1  0  0  0  0
M  CHG  1   3  -1
M  END
>  <CHROM.1>
56.28630805,-177.80883449,179.99379597,49.08178083,34.51474115,54.20522112
-0.13954718,-0.00557359,2.31411876

>  <Name>
ligand

>  <RI>
0

>  <Rbt.Current_Directory>
/home/itssahil/PROJECTS/Mol_Feturizer/New_Systems/rnas/3B4A

>  <Rbt.Executable>
rbdock ($Id: //depot/dev/client3/rdock/2013.1/src/exe/rbdock.cxx#4 $)

>  <Rbt.Library>
libRbt.so (2013.1, Build901 2013/11/27)

>  <Rbt.Parameter_File>
/export/apps/rDock/src/rDock_2013.1_src/data/scripts/dock_solv.prm

>  <Rbt.Receptor>
prm/pocket_docking_3.prm

>  <SCORE>
-5.0456

>  <SCORE.INTER>
-3.57469

>  <SCORE.INTER.CONST>
1

>  <SCORE.INTER.POLAR>
0

>  <SCORE.INTER.ROT>
3

>  <SCORE.INTER.SOLV>
12.1934

>  <SCORE.INTER.VDW>
-12.0476

>  <SCORE.INTER.norm>
-0.223418

>  <SCORE.INTRA>
-1.47091

>  <SCORE.INTRA.DIHEDRAL>
-1.98526

>  <SCORE.INTRA.DIHEDRAL.0>
2.05999

>  <SCORE.INTRA.POLAR>
0

>  <SCORE.INTRA.POLAR.0>
0

>  <SCORE.INTRA.REPUL>
0

>  <SCORE.INTRA.REPUL.0>
0

>  <SCORE.INTRA.SOLV>
-0.198166

>  <SCORE.INTRA.SOLV.lig_0>
-58.7001

>  <SCORE.INTRA.VDW>
-0.379199

>  <SCORE.INTRA.VDW.0>
-0.401036

>  <SCORE.INTRA.norm>
-0.091932

>  <SCORE.RESTR>
0

>  <SCORE.RESTR.CAVITY>
0

>  <SCORE.RESTR.norm>
0

>  <SCORE.SYSTEM>
0

>  <SCORE.SYSTEM.CONST>
0

>  <SCORE.SYSTEM.DIHEDRAL>
0

>  <SCORE.SYSTEM.SOLV>
0

>  <SCORE.SYSTEM.norm>
0

>  <SCORE.heavy>
16

>  <SCORE.norm>
-0.31535

>  <RMSD>
0.899

$$$$
ligand
 OpenBabel11021811463D
libRbt.so/2013.1/901 2013/11/27
 16 16  0  0  0  0  0  0  0  0999 V2000
   51.8821   34.9279   53.8801 P   0  0  2  0  0  0  0  0  0  0  0  0
   51.8714   36.3024   54.4397 O   0  0  0  0  0  0  0  0  0  0  0  0
   53.0563   34.0768   54.5859 O   0  5  0  0  0  0  0  0  0  0  0  0
   52.1438   35.0160   52.2860 O   0  0  0  0  0  0  0  0  0  0  0  0
   46.5985   33.8808   55.6686 C   0  0  2  0  0  0  0  0  0  0  0  0
   46.5069   32.4904   55.2831 O   0  0  0  0  0  0  0  0  0  0  0  0
   45.4369   34.7094   55.0472 C   0  0  2  0  0  0  0  0  0  0  0  0
   44.1440   34.1473   55.4789 N   0  0  0  0  0  0  0  0  0  0  0  0
   45.5534   34.6483   53.5083 C   0  0  1  0  0  0  0  0  0  0  0  0
   44.4949   35.4120   52.9058 O   0  0  0  0  0  0  0  0  0  0  0  0
   46.9211   35.2479   53.1209 C   0  0  2  0  0  0  0  0  0  0  0  0
   47.0682   35.2004   51.6914 O   0  0  0  0  0  0  0  0  0  0  0  0
   48.0376   34.3936   53.7965 C   0  0  2  0  0  0  0  0  0  0  0  0
   47.8934   34.4171   55.2479 O   0  0  0  0  0  0  0  0  0  0  0  0
   49.4316   34.9510   53.4655 C   0  0  0  0  0  0  0  0  0  0  0  0
   50.4513   34.2287   54.1781 O   0  0  0  0  0  0  0  0  0  0  0  0
  1  2  1  1  0  0  0
  1  3  1  0  0  0  0
  1  4  2  0  0  0  0
  1 16  1  0  0  0  0
  5  6  1  6  0  0  0
  5  7  1  0  0  0  0
  5 14  1  0  0  0  0
  7  8  1  6  0  0  0
  7  9  1  0  0  0  0
  9 10  1  6  0  0  0
  9 11  1  0  0  0  0
 11 12  1  6  0  0  0
 11 13  1  0  0  0  0
 13 14  1  0  0  0  0
 13 15  1  1  0  0  0
 15 16  1  0  0  0  0
M  CHG  1   3  -1
M  END
>  <CHROM.1>
175.25459452,-175.75755398,64.47980307,48.55956483,34.65029583,54.00893308
-0.09422841,0.03225275,2.06906389

>  <Name>
ligand

>  <RI>
0

>  <Rbt.Current_Directory>
/home/itssahil/PROJECTS/Mol_Feturizer/New_Systems/rnas/3B4A

>  <Rbt.Executable>
rbdock ($Id: //depot/dev/client3/rdock/2013.1/src/exe/rbdock.cxx#4 $)

>  <Rbt.Library>
libRbt.so (2013.1, Build901 2013/11/27)

>  <Rbt.Parameter_File>
/export/apps/rDock/src/rDock_2013.1_src/data/scripts/dock_solv.prm

>  <Rbt.Receptor>
prm/pocket_docking_2.prm

>  <SCORE>
-5.27005

>  <SCORE.INTER>
-3.7438

>  <SCORE.INTER.CONST>
1

>  <SCORE.INTER.POLAR>
0

>  <SCORE.INTER.ROT>
3

>  <SCORE.INTER.SOLV>
11.612

>  <SCORE.INTER.VDW>
-11.9665

>  <SCORE.INTER.norm>
-0.233987

>  <SCORE.INTRA>
-1.52626

>  <SCORE.INTRA.DIHEDRAL>
-1.85649

>  <SCORE.INTRA.DIHEDRAL.0>
2.05999

>  <SCORE.INTRA.POLAR>
0

>  <SCORE.INTRA.POLAR.0>
0

>  <SCORE.INTRA.REPUL>
0

>  <SCORE.INTRA.REPUL.0>
0

>  <SCORE.INTRA.SOLV>
-1.00043

>  <SCORE.INTRA.SOLV.lig_0>
-58.7001

>  <SCORE.INTRA.VDW>
-0.0977973

>  <SCORE.INTRA.VDW.0>
-0.401036

>  <SCORE.INTRA.norm>
-0.0953911

>  <SCORE.RESTR>
0

>  <SCORE.RESTR.CAVITY>
0

>  <SCORE.RESTR.norm>
0

>  <SCORE.SYSTEM>
0

>  <SCORE.SYSTEM.CONST>
0

>  <SCORE.SYSTEM.DIHEDRAL>
0

>  <SCORE.SYSTEM.SOLV>
0

>  <SCORE.SYSTEM.norm>
0

>  <SCORE.heavy>
16

>  <SCORE.norm>
-0.329378

>  <RMSD>
0.905

$$$$
ligand
 OpenBabel11021811463D
libRbt.so/2013.1/901 2013/11/27
 16 16  0  0  0  0  0  0  0  0999 V2000
   51.8798   34.8540   53.8800 P   0  0  2  0  0  0  0  0  0  0  0  0
   51.8787   36.2155   54.4704 O   0  0  0  0  0  0  0  0  0  0  0  0
   53.0451   33.9776   54.5693 O   0  5  0  0  0  0  0  0  0  0  0  0
   52.1463   34.9758   52.2890 O   0  0  0  0  0  0  0  0  0  0  0  0
   46.5887   33.8722   55.6845 C   0  0  2  0  0  0  0  0  0  0  0  0
   46.4779   32.4855   55.2909 O   0  0  0  0  0  0  0  0  0  0  0  0
   45.4357   34.7194   55.0720 C   0  0  2  0  0  0  0  0  0  0  0  0
   44.1371   34.1712   55.5048 N   0  0  0  0  0  0  0  0  0  0  0  0
   45.5462   34.6661   53.5324 C   0  0  1  0  0  0  0  0  0  0  0  0
   44.4957   35.4469   52.9381 O   0  0  0  0  0  0  0  0  0  0  0  0
   46.9203   35.2504   53.1439 C   0  0  2  0  0  0  0  0  0  0  0  0
   47.0619   35.2098   51.7137 O   0  0  0  0  0  0  0  0  0  0  0  0
   48.0279   34.3779   53.8106 C   0  0  2  0  0  0  0  0  0  0  0  0
   47.8889   34.3945   55.2626 O   0  0  0  0  0  0  0  0  0  0  0  0
   49.4279   34.9194   53.4782 C   0  0  0  0  0  0  0  0  0  0  0  0
   50.4425   34.1599   54.1587 O   0  0  0  0  0  0  0  0  0  0  0  0
  1  2  1  1  0  0  0
  1  3  1  0  0  0  0
  1  4  2  0  0  0  0
  1 16  1  0  0  0  0
  5  6  1  6  0  0  0
  5  7  1  0  0  0  0
  5 14  1  0  0  0  0
  7  8  1  6  0  0  0
  7  9  1  0  0  0  0
  9 10  1  6  0  0  0
  9 11  1  0  0  0  0
 11 12  1  6  0  0  0
 11 13  1  0  0  0  0
 13 14  1  0  0  0  0
 13 15  1  1  0  0  0
 15 16  1  0  0  0  0
M  CHG  1   3  -1
M  END
>  <CHROM.1>
176.59368781,-174.95736528,63.53531708,48.55410179,34.62342197,54.02108210
-0.09101639,0.01788260,2.07555495

>  <Name>
ligand

>  <RI>
0

>  <Rbt.Current_Directory>
/home/itssahil/PROJECTS/Mol_Feturizer/New_Systems/rnas/3B4A

>  <Rbt.Executable>
rbdock ($Id: //depot/dev/client3/rdock/2013.1/src/exe/rbdock.cxx#4 $)

>  <Rbt.Library>
libRbt.so (2013.1, Build901 2013/11/27)

>  <Rbt.Parameter_File>
/export/apps/rDock/src/rDock_2013.1_src/data/scripts/dock_solv.prm

>  <Rbt.Receptor>
prm/pocket_docking_2.prm

>  <SCORE>
-5.32508

>  <SCORE.INTER>
-3.77894

>  <SCORE.INTER.CONST>
1

>  <SCORE.INTER.POLAR>
0

>  <SCORE.INTER.ROT>
3

>  <SCORE.INTER.SOLV>
11.6457

>  <SCORE.INTER.VDW>
-12.0012

>  <SCORE.INTER.norm>
-0.236184

>  <SCORE.INTRA>
-1.54614

>  <SCORE.INTRA.DIHEDRAL>
-1.87135

>  <SCORE.INTRA.DIHEDRAL.0>
2.05999

>  <SCORE.INTRA.POLAR>
0

>  <SCORE.INTRA.POLAR.0>
0

>  <SCORE.INTRA.REPUL>
0

>  <SCORE.INTRA.REPUL.0>
0

>  <SCORE.INTRA.SOLV>
-1.01267

>  <SCORE.INTRA.SOLV.lig_0>
-58.7001

>  <SCORE.INTRA.VDW>
-0.104134

>  <SCORE.INTRA.VDW.0>
-0.401036

>  <SCORE.INTRA.norm>
-0.0966339

>  <SCORE.RESTR>
0

>  <SCORE.RESTR.CAVITY>
0

>  <SCORE.RESTR.norm>
0

>  <SCORE.SYSTEM>
0

>  <SCORE.SYSTEM.CONST>
0

>  <SCORE.SYSTEM.DIHEDRAL>
0

>  <SCORE.SYSTEM.SOLV>
0

>  <SCORE.SYSTEM.norm>
0

>  <SCORE.heavy>
16

>  <SCORE.norm>
-0.332818

>  <RMSD>
0.915

$$$$
ligand
 OpenBabel11021811463D
libRbt.so/2013.1/901 2013/11/27
 16 16  0  0  0  0  0  0  0  0999 V2000
   51.8598   34.8363   53.8580 P   0  0  2  0  0  0  0  0  0  0  0  0
   51.8540   36.1999   54.4436 O   0  0  0  0  0  0  0  0  0  0  0  0
   53.0227   33.9639   54.5563 O   0  5  0  0  0  0  0  0  0  0  0  0
   52.1342   34.9528   52.2679 O   0  0  0  0  0  0  0  0  0  0  0  0
   46.5822   33.8638   55.6842 C   0  0  2  0  0  0  0  0  0  0  0  0
   46.4556   32.4818   55.2789 O   0  0  0  0  0  0  0  0  0  0  0  0
   45.4303   34.7264   55.0915 C   0  0  2  0  0  0  0  0  0  0  0  0
   44.1316   34.1851   55.5324 N   0  0  0  0  0  0  0  0  0  0  0  0
   45.5247   34.6865   53.5504 C   0  0  1  0  0  0  0  0  0  0  0  0
   44.4749   35.4818   52.9742 O   0  0  0  0  0  0  0  0  0  0  0  0
   46.8997   35.2629   53.1533 C   0  0  2  0  0  0  0  0  0  0  0  0
   47.0264   35.2345   51.7214 O   0  0  0  0  0  0  0  0  0  0  0  0
   48.0066   34.3749   53.8005 C   0  0  2  0  0  0  0  0  0  0  0  0
   47.8825   34.3790   55.2539 O   0  0  0  0  0  0  0  0  0  0  0  0
   49.4077   34.9076   53.4587 C   0  0  0  0  0  0  0  0  0  0  0  0
   50.4221   34.1413   54.1319 O   0  0  0  0  0  0  0  0  0  0  0  0
  1  2  1  1  0  0  0
  1  3  1  0  0  0  0
  1  4  2  0  0  0  0
  1 16  1  0  0  0  0
  5  6  1  6  0  0  0
  5  7  1  0  0  0  0
  5 14  1  0  0  0  0
  7  8  1  6  0  0  0
  7  9  1  0  0  0  0
  9 10  1  6  0  0  0
  9 11  1  0  0  0  0
 11 12  1  6  0  0  0
 11 13  1  0  0  0  0
 13 14  1  0  0  0  0
 13 15  1  1  0  0  0
 15 16  1  0  0  0  0
M  CHG  1   3  -1
M  END
>  <CHROM.1>
176.03827152,-174.30645979,62.75418543,48.53586532,34.62089486,54.01660899
-0.09380552,0.00995860,2.08408747

>  <Name>
ligand

>  <RI>
0

>  <Rbt.Current_Directory>
/home/itssahil/PROJECTS/Mol_Feturizer/New_Systems/rnas/3B4A

>  <Rbt.Executable>
rbdock ($Id: //depot/dev/client3/rdock/2013.1/src/exe/rbdock.cxx#4 $)

>  <Rbt.Library>
libRbt.so (2013.1, Build901 2013/11/27)

>  <Rbt.Parameter_File>
/export/apps/rDock/src/rDock_2013.1_src/data/scripts/dock_solv.prm

>  <Rbt.Receptor>
prm/pocket_docking_2.prm

>  <SCORE>
-5.32218

>  <SCORE.INTER>
-3.80098

>  <SCORE.INTER.CONST>
1

>  <SCORE.INTER.POLAR>
0

>  <SCORE.INTER.ROT>
3

>  <SCORE.INTER.SOLV>
11.6415

>  <SCORE.INTER.VDW>
-12.0145

>  <SCORE.INTER.norm>
-0.237561

>  <SCORE.INTRA>
-1.52471

>  <SCORE.INTRA.DIHEDRAL>
-1.83084

>  <SCORE.INTRA.DIHEDRAL.0>
2.05999

>  <SCORE.INTRA.POLAR>
0

>  <SCORE.INTRA.POLAR.0>
0

>  <SCORE.INTRA.REPUL>
0

>  <SCORE.INTRA.REPUL.0>
0

>  <SCORE.INTRA.SOLV>
-1.01758

>  <SCORE.INTRA.SOLV.lig_0>
-58.7001

>  <SCORE.INTRA.VDW>
-0.100504

>  <SCORE.INTRA.VDW.0>
-0.401036

>  <SCORE.INTRA.norm>
-0.0952946

>  <SCORE.RESTR>
0.00351449

>  <SCORE.RESTR.CAVITY>
0.00351449

>  <SCORE.RESTR.norm>
0.000219656

>  <SCORE.SYSTEM>
0

>  <SCORE.SYSTEM.CONST>
0

>  <SCORE.SYSTEM.DIHEDRAL>
0

>  <SCORE.SYSTEM.SOLV>
0

>  <SCORE.SYSTEM.norm>
0

>  <SCORE.heavy>
16

>  <SCORE.norm>
-0.332636

>  <RMSD>
0.917

$$$$
ligand
 OpenBabel11021811463D
libRbt.so/2013.1/901 2013/11/27
 16 16  0  0  0  0  0  0  0  0999 V2000
   51.8711   34.8346   53.8698 P   0  0  2  0  0  0  0  0  0  0  0  0
   51.8681   36.2077   54.4330 O   0  0  0  0  0  0  0  0  0  0  0  0
   53.0331   33.9718   54.5814 O   0  5  0  0  0  0  0  0  0  0  0  0
   52.1445   34.9246   52.2778 O   0  0  0  0  0  0  0  0  0  0  0  0
   46.5875   33.8764   55.6973 C   0  0  2  0  0  0  0  0  0  0  0  0
   46.4656   32.4900   55.3058 O   0  0  0  0  0  0  0  0  0  0  0  0
   45.4359   34.7302   55.0915 C   0  0  2  0  0  0  0  0  0  0  0  0
   44.1368   34.1905   55.5333 N   0  0  0  0  0  0  0  0  0  0  0  0
   45.5361   34.6747   53.5512 C   0  0  1  0  0  0  0  0  0  0  0  0
   44.4865   35.4616   52.9631 O   0  0  0  0  0  0  0  0  0  0  0  0
   46.9112   35.2501   53.1533 C   0  0  2  0  0  0  0  0  0  0  0  0
   47.0432   35.2072   51.7222 O   0  0  0  0  0  0  0  0  0  0  0  0
   48.0177   34.3713   53.8136 C   0  0  2  0  0  0  0  0  0  0  0  0
   47.8882   34.3901   55.2664 O   0  0  0  0  0  0  0  0  0  0  0  0
   49.4188   34.9037   53.4714 C   0  0  0  0  0  0  0  0  0  0  0  0
   50.4324   34.1467   54.1562 O   0  0  0  0  0  0  0  0  0  0  0  0
  1  2  1  1  0  0  0
  1  3  1  0  0  0  0
  1  4  2  0  0  0  0
  1 16  1  0  0  0  0
  5  6  1  6  0  0  0
  5  7  1  0  0  0  0
  5 14  1  0  0  0  0
  7  8  1  6  0  0  0
  7  9  1  0  0  0  0
  9 10  1  6  0  0  0
  9 11  1  0  0  0  0
 11 12  1  6  0  0  0
 11 13  1  0  0  0  0
 13 14  1  0  0  0  0
 13 15  1  1  0  0  0
 15 16  1  0  0  0  0
M  CHG  1   3  -1
M  END
>  <CHROM.1>
176.04006042,-174.79200163,62.74511849,48.54614812,34.61794269,54.02514193
-0.09269318,0.01186367,2.07382714

>  <Name>
ligand

>  <RI>
0

>  <Rbt.Current_Directory>
/home/itssahil/PROJECTS/Mol_Feturizer/New_Systems/rnas/3B4A

>  <Rbt.Executable>
rbdock ($Id: //depot/dev/client3/rdock/2013.1/src/exe/rbdock.cxx#4 $)

>  <Rbt.Library>
libRbt.so (2013.1, Build901 2013/11/27)

>  <Rbt.Parameter_File>
/export/apps/rDock/src/rDock_2013.1_src/data/scripts/dock_solv.prm

>  <Rbt.Receptor>
prm/pocket_docking_2.prm

>  <SCORE>
-5.32037

>  <SCORE.INTER>
-3.78335

>  <SCORE.INTER.CONST>
1

>  <SCORE.INTER.POLAR>
0

>  <SCORE.INTER.ROT>
3

>  <SCORE.INTER.SOLV>
11.6947

>  <SCORE.INTER.VDW>
-12.0205

>  <SCORE.INTER.norm>
-0.236459

>  <SCORE.INTRA>
-1.53731

>  <SCORE.INTRA.DIHEDRAL>
-1.85674

>  <SCORE.INTRA.DIHEDRAL.0>
2.05999

>  <SCORE.INTRA.POLAR>
0

>  <SCORE.INTRA.POLAR.0>
0

>  <SCORE.INTRA.REPUL>
0

>  <SCORE.INTRA.REPUL.0>
0

>  <SCORE.INTRA.SOLV>
-1.01866

>  <SCORE.INTRA.SOLV.lig_0>
-58.7001

>  <SCORE.INTRA.VDW>
-0.0996126

>  <SCORE.INTRA.VDW.0>
-0.401036

>  <SCORE.INTRA.norm>
-0.0960819

>  <SCORE.RESTR>
0.000287092

>  <SCORE.RESTR.CAVITY>
0.000287092

>  <SCORE.RESTR.norm>
1.79432e-05

>  <SCORE.SYSTEM>
0

>  <SCORE.SYSTEM.CONST>
0

>  <SCORE.SYSTEM.DIHEDRAL>
0

>  <SCORE.SYSTEM.SOLV>
0

>  <SCORE.SYSTEM.norm>
0

>  <SCORE.heavy>
16

>  <SCORE.norm>
-0.332523

>  <RMSD>
0.917

$$$$
ligand
 OpenBabel11021811463D
libRbt.so/2013.1/901 2013/11/27
 16 16  0  0  0  0  0  0  0  0999 V2000
   51.8615   34.8215   53.8590 P   0  0  2  0  0  0  0  0  0  0  0  0
   51.8643   36.1922   54.4278 O   0  0  0  0  0  0  0  0  0  0  0  0
   53.0232   33.9523   54.5634 O   0  5  0  0  0  0  0  0  0  0  0  0
   52.1303   34.9173   52.2666 O   0  0  0  0  0  0  0  0  0  0  0  0
   46.5855   33.8721   55.6944 C   0  0  2  0  0  0  0  0  0  0  0  0
   46.4517   32.4884   55.2974 O   0  0  0  0  0  0  0  0  0  0  0  0
   45.4361   34.7365   55.0996 C   0  0  2  0  0  0  0  0  0  0  0  0
   44.1361   34.2037   55.5470 N   0  0  0  0  0  0  0  0  0  0  0  0
   45.5264   34.6874   53.5585 C   0  0  1  0  0  0  0  0  0  0  0  0
   44.4786   35.4840   52.9805 O   0  0  0  0  0  0  0  0  0  0  0  0
   46.9029   35.2553   53.1547 C   0  0  2  0  0  0  0  0  0  0  0  0
   47.0258   35.2180   51.7227 O   0  0  0  0  0  0  0  0  0  0  0  0
   48.0074   34.3659   53.8041 C   0  0  2  0  0  0  0  0  0  0  0  0
   47.8871   34.3790   55.2578 O   0  0  0  0  0  0  0  0  0  0  0  0
   49.4100   34.8903   53.4558 C   0  0  0  0  0  0  0  0  0  0  0  0
   50.4217   34.1366   54.1469 O   0  0  0  0  0  0  0  0  0  0  0  0
  1  2  1  1  0  0  0
  1  3  1  0  0  0  0
  1  4  2  0  0  0  0
  1 16  1  0  0  0  0
  5  6  1  6  0  0  0
  5  7  1  0  0  0  0
  5 14  1  0  0  0  0
  7  8  1  6  0  0  0
  7  9  1  0  0  0  0
  9 10  1  6  0  0  0
  9 11  1  0  0  0  0
 11 12  1  6  0  0  0
 11 13  1  0  0  0  0
 13 14  1  0  0  0  0
 13 15  1  1  0  0  0
 15 16  1  0  0  0  0
M  CHG  1   3  -1
M  END
>  <CHROM.1>
175.14951994,-174.50354826,63.40460940,48.53787966,34.61503147,54.02122105
-0.09327926,0.00709660,2.07794925

>  <Name>
ligand

>  <RI>
0

>  <Rbt.Current_Directory>
/home/itssahil/PROJECTS/Mol_Feturizer/New_Systems/rnas/3B4A

>  <Rbt.Executable>
rbdock ($Id: //depot/dev/client3/rdock/2013.1/src/exe/rbdock.cxx#4 $)

>  <Rbt.Library>
libRbt.so (2013.1, Build901 2013/11/27)

>  <Rbt.Parameter_File>
/export/apps/rDock/src/rDock_2013.1_src/data/scripts/dock_solv.prm

>  <Rbt.Receptor>
prm/pocket_docking_2.prm

>  <SCORE>
-5.31428

>  <SCORE.INTER>
-3.80859

>  <SCORE.INTER.CONST>
1

>  <SCORE.INTER.POLAR>
0

>  <SCORE.INTER.ROT>
3

>  <SCORE.INTER.SOLV>
11.6634

>  <SCORE.INTER.VDW>
-12.0269

>  <SCORE.INTER.norm>
-0.238037

>  <SCORE.INTRA>
-1.50569

>  <SCORE.INTRA.DIHEDRAL>
-1.80718

>  <SCORE.INTRA.DIHEDRAL.0>
2.05999

>  <SCORE.INTRA.POLAR>
0

>  <SCORE.INTRA.POLAR.0>
0

>  <SCORE.INTRA.REPUL>
0

>  <SCORE.INTRA.REPUL.0>
0

>  <SCORE.INTRA.SOLV>
-1.00872

>  <SCORE.INTRA.SOLV.lig_0>
-58.7001

>  <SCORE.INTRA.VDW>
-0.0977403

>  <SCORE.INTRA.VDW.0>
-0.401036

>  <SCORE.INTRA.norm>
-0.0941055

>  <SCORE.RESTR>
0

>  <SCORE.RESTR.CAVITY>
0

>  <SCORE.RESTR.norm>
0

>  <SCORE.SYSTEM>
0

>  <SCORE.SYSTEM.CONST>
0

>  <SCORE.SYSTEM.DIHEDRAL>
0

>  <SCORE.SYSTEM.SOLV>
0

>  <SCORE.SYSTEM.norm>
0

>  <SCORE.heavy>
16

>  <SCORE.norm>
-0.332142

>  <RMSD>
0.917

$$$$
ligand
 OpenBabel11021811463D
libRbt.so/2013.1/901 2013/11/27
 16 16  0  0  0  0  0  0  0  0999 V2000
   51.8724   34.8524   53.8790 P   0  0  2  0  0  0  0  0  0  0  0  0
   51.8688   36.2192   54.4573 O   0  0  0  0  0  0  0  0  0  0  0  0
   53.0365   33.9830   54.5792 O   0  5  0  0  0  0  0  0  0  0  0  0
   52.1432   34.9604   52.2877 O   0  0  0  0  0  0  0  0  0  0  0  0
   46.5890   33.8827   55.6916 C   0  0  2  0  0  0  0  0  0  0  0  0
   46.4684   32.4961   55.3004 O   0  0  0  0  0  0  0  0  0  0  0  0
   45.4374   34.7355   55.0845 C   0  0  2  0  0  0  0  0  0  0  0  0
   44.1382   34.1950   55.5250 N   0  0  0  0  0  0  0  0  0  0  0  0
   45.5392   34.6798   53.5443 C   0  0  1  0  0  0  0  0  0  0  0  0
   44.4897   35.4657   52.9549 O   0  0  0  0  0  0  0  0  0  0  0  0
   46.9143   35.2561   53.1477 C   0  0  2  0  0  0  0  0  0  0  0  0
   47.0478   35.2130   51.7168 O   0  0  0  0  0  0  0  0  0  0  0  0
   48.0207   34.3782   53.8093 C   0  0  2  0  0  0  0  0  0  0  0  0
   47.8898   34.3972   55.2620 O   0  0  0  0  0  0  0  0  0  0  0  0
   49.4218   34.9115   53.4686 C   0  0  0  0  0  0  0  0  0  0  0  0
   50.4349   34.1598   54.1599 O   0  0  0  0  0  0  0  0  0  0  0  0
  1  2  1  1  0  0  0
  1  3  1  0  0  0  0
  1  4  2  0  0  0  0
  1 16  1  0  0  0  0
  5  6  1  6  0  0  0
  5  7  1  0  0  0  0
  5 14  1  0  0  0  0
  7  8  1  6  0  0  0
  7  9  1  0  0  0  0
  9 10  1  6  0  0  0
  9 11  1  0  0  0  0
 11 12  1  6  0  0  0
 11 13  1  0  0  0  0
 13 14  1  0  0  0  0
 13 15  1  1  0  0  0
 15 16  1  0  0  0  0
M  CHG  1   3  -1
M  END
>  <CHROM.1>
175.74346211,-174.57181568,63.60583023,48.54830490,34.62834120,54.02491827
-0.09139288,0.01481735,2.07371853

>  <Name>
ligand

>  <RI>
0

>  <Rbt.Current_Directory>
/home/itssahil/PROJECTS/Mol_Feturizer/New_Systems/rnas/3B4A

>  <Rbt.Executable>
rbdock ($Id: //depot/dev/client3/rdock/2013.1/src/exe/rbdock.cxx#4 $)

>  <Rbt.Library>
libRbt.so (2013.1, Build901 2013/11/27)

>  <Rbt.Parameter_File>
/export/apps/rDock/src/rDock_2013.1_src/data/scripts/dock_solv.prm

>  <Rbt.Receptor>
prm/pocket_docking_2.prm

>  <SCORE>
-5.32716

>  <SCORE.INTER>
-3.80801

>  <SCORE.INTER.CONST>
1

>  <SCORE.INTER.POLAR>
0

>  <SCORE.INTER.ROT>
3

>  <SCORE.INTER.SOLV>
11.677

>  <SCORE.INTER.VDW>
-12.031

>  <SCORE.INTER.norm>
-0.238001

>  <SCORE.INTRA>
-1.51915

>  <SCORE.INTRA.DIHEDRAL>
-1.8277

>  <SCORE.INTRA.DIHEDRAL.0>
2.05999

>  <SCORE.INTRA.POLAR>
0

>  <SCORE.INTRA.POLAR.0>
0

>  <SCORE.INTRA.REPUL>
0

>  <SCORE.INTRA.REPUL.0>
0

>  <SCORE.INTRA.SOLV>
-1.0086

>  <SCORE.INTRA.SOLV.lig_0>
-58.7001

>  <SCORE.INTRA.VDW>
-0.100998

>  <SCORE.INTRA.VDW.0>
-0.401036

>  <SCORE.INTRA.norm>
-0.0949467

>  <SCORE.RESTR>
0

>  <SCORE.RESTR.CAVITY>
0

>  <SCORE.RESTR.norm>
0

>  <SCORE.SYSTEM>
0

>  <SCORE.SYSTEM.CONST>
0

>  <SCORE.SYSTEM.DIHEDRAL>
0

>  <SCORE.SYSTEM.SOLV>
0

>  <SCORE.SYSTEM.norm>
0

>  <SCORE.heavy>
16

>  <SCORE.norm>
-0.332947

>  <RMSD>
0.919

$$$$
ligand
 OpenBabel11021811463D
libRbt.so/2013.1/901 2013/11/27
 16 16  0  0  0  0  0  0  0  0999 V2000
   51.8737   34.7986   53.8674 P   0  0  2  0  0  0  0  0  0  0  0  0
   51.8894   36.1783   54.4140 O   0  0  0  0  0  0  0  0  0  0  0  0
   53.0296   33.9311   54.5832 O   0  5  0  0  0  0  0  0  0  0  0  0
   52.1395   34.8663   52.2730 O   0  0  0  0  0  0  0  0  0  0  0  0
   46.5815   33.8904   55.6977 C   0  0  2  0  0  0  0  0  0  0  0  0
   46.4495   32.5022   55.3161 O   0  0  0  0  0  0  0  0  0  0  0  0
   45.4368   34.7484   55.0849 C   0  0  2  0  0  0  0  0  0  0  0  0
   44.1333   34.2216   55.5295 N   0  0  0  0  0  0  0  0  0  0  0  0
   45.5377   34.6811   53.5451 C   0  0  1  0  0  0  0  0  0  0  0  0
   44.4945   35.4715   52.9505 O   0  0  0  0  0  0  0  0  0  0  0  0
   46.9174   35.2434   53.1442 C   0  0  2  0  0  0  0  0  0  0  0  0
   47.0502   35.1892   51.7136 O   0  0  0  0  0  0  0  0  0  0  0  0
   48.0168   34.3611   53.8117 C   0  0  2  0  0  0  0  0  0  0  0  0
   47.8864   34.3913   55.2643 O   0  0  0  0  0  0  0  0  0  0  0  0
   49.4221   34.8806   53.4669 C   0  0  0  0  0  0  0  0  0  0  0  0
   50.4288   34.1308   54.1696 O   0  0  0  0  0  0  0  0  0  0  0  0
  1  2  1  1  0  0  0
  1  3  1  0  0  0  0
  1  4  2  0  0  0  0
  1 16  1  0  0  0  0
  5  6  1  6  0  0  0
  5  7  1  0  0  0  0
  5 14  1  0  0  0  0
  7  8  1  6  0  0  0
  7  9  1  0  0  0  0
  9 10  1  6  0  0  0
  9 11  1  0  0  0  0
 11 12  1  6  0  0  0
 11 13  1  0  0  0  0
 13 14  1  0  0  0  0
 13 15  1  1  0  0  0
 15 16  1  0  0  0  0
M  CHG  1   3  -1
M  END
>  <CHROM.1>
175.39031250,-175.29050410,63.49343800,48.54693226,34.60623884,54.02181908
-0.08868008,0.00601021,2.06648611

>  <Name>
ligand

>  <RI>
0

>  <Rbt.Current_Directory>
/home/itssahil/PROJECTS/Mol_Feturizer/New_Systems/rnas/3B4A

>  <Rbt.Executable>
rbdock ($Id: //depot/dev/client3/rdock/2013.1/src/exe/rbdock.cxx#4 $)

>  <Rbt.Library>
libRbt.so (2013.1, Build901 2013/11/27)

>  <Rbt.Parameter_File>
/export/apps/rDock/src/rDock_2013.1_src/data/scripts/dock_solv.prm

>  <Rbt.Receptor>
prm/pocket_docking_2.prm

>  <SCORE>
-5.33107

>  <SCORE.INTER>
-3.80357

>  <SCORE.INTER.CONST>
1

>  <SCORE.INTER.POLAR>
0

>  <SCORE.INTER.ROT>
3

>  <SCORE.INTER.SOLV>
11.6413

>  <SCORE.INTER.VDW>
-12.0161

>  <SCORE.INTER.norm>
-0.237723

>  <SCORE.INTRA>
-1.5295

>  <SCORE.INTRA.DIHEDRAL>
-1.85342

>  <SCORE.INTRA.DIHEDRAL.0>
2.05999

>  <SCORE.INTRA.POLAR>
0

>  <SCORE.INTRA.POLAR.0>
0

>  <SCORE.INTRA.REPUL>
0

>  <SCORE.INTRA.REPUL.0>
0

>  <SCORE.INTRA.SOLV>
-1.01003

>  <SCORE.INTRA.SOLV.lig_0>
-58.7001

>  <SCORE.INTRA.VDW>
-0.0977741

>  <SCORE.INTRA.VDW.0>
-0.401036

>  <SCORE.INTRA.norm>
-0.0955937

>  <SCORE.RESTR>
0.00199914

>  <SCORE.RESTR.CAVITY>
0.00199914

>  <SCORE.RESTR.norm>
0.000124946

>  <SCORE.SYSTEM>
0

>  <SCORE.SYSTEM.CONST>
0

>  <SCORE.SYSTEM.DIHEDRAL>
0

>  <SCORE.SYSTEM.SOLV>
0

>  <SCORE.SYSTEM.norm>
0

>  <SCORE.heavy>
16

>  <SCORE.norm>
-0.333192

>  <RMSD>
0.919

$$$$
ligand
 OpenBabel11021811463D
libRbt.so/2013.1/901 2013/11/27
 16 16  0  0  0  0  0  0  0  0999 V2000
   51.8728   34.8175   53.8716 P   0  0  2  0  0  0  0  0  0  0  0  0
   51.8809   36.1829   54.4531 O   0  0  0  0  0  0  0  0  0  0  0  0
   53.0335   33.9385   54.5652 O   0  5  0  0  0  0  0  0  0  0  0  0
   52.1382   34.9274   52.2795 O   0  0  0  0  0  0  0  0  0  0  0  0
   46.5852   33.8836   55.6924 C   0  0  2  0  0  0  0  0  0  0  0  0
   46.4571   32.4963   55.3061 O   0  0  0  0  0  0  0  0  0  0  0  0
   45.4378   34.7403   55.0829 C   0  0  2  0  0  0  0  0  0  0  0  0
   44.1360   34.2084   55.5262 N   0  0  0  0  0  0  0  0  0  0  0  0
   45.5383   34.6786   53.5430 C   0  0  1  0  0  0  0  0  0  0  0  0
   44.4926   35.4681   52.9514 O   0  0  0  0  0  0  0  0  0  0  0  0
   46.9162   35.2462   53.1434 C   0  0  2  0  0  0  0  0  0  0  0  0
   47.0486   35.1973   51.7126 O   0  0  0  0  0  0  0  0  0  0  0  0
   48.0184   34.3648   53.8075 C   0  0  2  0  0  0  0  0  0  0  0  0
   47.8885   34.3897   55.2602 O   0  0  0  0  0  0  0  0  0  0  0  0
   49.4221   34.8894   53.4639 C   0  0  0  0  0  0  0  0  0  0  0  0
   50.4317   34.1342   54.1565 O   0  0  0  0  0  0  0  0  0  0  0  0
  1  2  1  1  0  0  0
  1  3  1  0  0  0  0
  1  4  2  0  0  0  0
  1 16  1  0  0  0  0
  5  6  1  6  0  0  0
  5  7  1  0  0  0  0
  5 14  1  0  0  0  0
  7  8  1  6  0  0  0
  7  9  1  0  0  0  0
  9 10  1  6  0  0  0
  9 11  1  0  0  0  0
 11 12  1  6  0  0  0
 11 13  1  0  0  0  0
 13 14  1  0  0  0  0
 13 15  1  1  0  0  0
 15 16  1  0  0  0  0
M  CHG  1   3  -1
M  END
>  <CHROM.1>
175.78566541,-174.60710140,63.96935609,48.54748880,34.61243065,54.02125879
-0.08952632,0.00954574,2.07035503

>  <Name>
ligand

>  <RI>
0

>  <Rbt.Current_Directory>
/home/itssahil/PROJECTS/Mol_Feturizer/New_Systems/rnas/3B4A

>  <Rbt.Executable>
rbdock ($Id: //depot/dev/client3/rdock/2013.1/src/exe/rbdock.cxx#4 $)

>  <Rbt.Library>
libRbt.so (2013.1, Build901 2013/11/27)

>  <Rbt.Parameter_File>
/export/apps/rDock/src/rDock_2013.1_src/data/scripts/dock_solv.prm

>  <Rbt.Receptor>
prm/pocket_docking_2.prm

>  <SCORE>
-5.32565

>  <SCORE.INTER>
-3.80814

>  <SCORE.INTER.CONST>
1

>  <SCORE.INTER.POLAR>
0

>  <SCORE.INTER.ROT>
3

>  <SCORE.INTER.SOLV>
11.6369

>  <SCORE.INTER.VDW>
-12.0177

>  <SCORE.INTER.norm>
-0.238009

>  <SCORE.INTRA>
-1.51751

>  <SCORE.INTRA.DIHEDRAL>
-1.82632

>  <SCORE.INTRA.DIHEDRAL.0>
2.05999

>  <SCORE.INTRA.POLAR>
0

>  <SCORE.INTRA.POLAR.0>
0

>  <SCORE.INTRA.REPUL>
0

>  <SCORE.INTRA.REPUL.0>
0

>  <SCORE.INTRA.SOLV>
-1.00511

>  <SCORE.INTRA.SOLV.lig_0>
-58.7001

>  <SCORE.INTRA.VDW>
-0.101799

>  <SCORE.INTRA.VDW.0>
-0.401036

>  <SCORE.INTRA.norm>
-0.0948445

>  <SCORE.RESTR>
0

>  <SCORE.RESTR.CAVITY>
0

>  <SCORE.RESTR.norm>
0

>  <SCORE.SYSTEM>
0

>  <SCORE.SYSTEM.CONST>
0

>  <SCORE.SYSTEM.DIHEDRAL>
0

>  <SCORE.SYSTEM.SOLV>
0

>  <SCORE.SYSTEM.norm>
0

>  <SCORE.heavy>
16

>  <SCORE.norm>
-0.332853

>  <RMSD>
0.919

$$$$
ligand
 OpenBabel11021811463D
libRbt.so/2013.1/901 2013/11/27
 16 16  0  0  0  0  0  0  0  0999 V2000
   51.8711   34.8285   53.8760 P   0  0  2  0  0  0  0  0  0  0  0  0
   51.8678   36.2010   54.4403 O   0  0  0  0  0  0  0  0  0  0  0  0
   53.0320   33.9647   54.5881 O   0  5  0  0  0  0  0  0  0  0  0  0
   52.1464   34.9198   52.2844 O   0  0  0  0  0  0  0  0  0  0  0  0
   46.5874   33.8856   55.7039 C   0  0  2  0  0  0  0  0  0  0  0  0
   46.4618   32.4979   55.3184 O   0  0  0  0  0  0  0  0  0  0  0  0
   45.4375   34.7396   55.0952 C   0  0  2  0  0  0  0  0  0  0  0  0
   44.1373   34.2051   55.5402 N   0  0  0  0  0  0  0  0  0  0  0  0
   45.5365   34.6774   53.5552 C   0  0  1  0  0  0  0  0  0  0  0  0
   44.4885   35.4643   52.9644 O   0  0  0  0  0  0  0  0  0  0  0  0
   46.9127   35.2478   53.1539 C   0  0  2  0  0  0  0  0  0  0  0  0
   47.0437   35.1985   51.7229 O   0  0  0  0  0  0  0  0  0  0  0  0
   48.0175   34.3691   53.8172 C   0  0  2  0  0  0  0  0  0  0  0  0
   47.8891   34.3943   55.2700 O   0  0  0  0  0  0  0  0  0  0  0  0
   49.4197   34.8966   53.4719 C   0  0  0  0  0  0  0  0  0  0  0  0
   50.4319   34.1407   54.1600 O   0  0  0  0  0  0  0  0  0  0  0  0
  1  2  1  1  0  0  0
  1  3  1  0  0  0  0
  1  4  2  0  0  0  0
  1 16  1  0  0  0  0
  5  6  1  6  0  0  0
  5  7  1  0  0  0  0
  5 14  1  0  0  0  0
  7  8  1  6  0  0  0
  7  9  1  0  0  0  0
  9 10  1  6  0  0  0
  9 11  1  0  0  0  0
 11 12  1  6  0  0  0
 11 13  1  0  0  0  0
 13 14  1  0  0  0  0
 13 15  1  1  0  0  0
 15 16  1  0  0  0  0
M  CHG  1   3  -1
M  END
>  <CHROM.1>
175.99557488,-174.50064762,62.89225251,48.54636964,34.61728649,54.02995572
-0.09147785,0.01066712,2.06957917

>  <Name>
ligand

>  <RI>
0

>  <Rbt.Current_Directory>
/home/itssahil/PROJECTS/Mol_Feturizer/New_Systems/rnas/3B4A

>  <Rbt.Executable>
rbdock ($Id: //depot/dev/client3/rdock/2013.1/src/exe/rbdock.cxx#4 $)

>  <Rbt.Library>
libRbt.so (2013.1, Build901 2013/11/27)

>  <Rbt.Parameter_File>
/export/apps/rDock/src/rDock_2013.1_src/data/scripts/dock_solv.prm

>  <Rbt.Receptor>
prm/pocket_docking_2.prm

>  <SCORE>
-5.32231

>  <SCORE.INTER>
-3.79433

>  <SCORE.INTER.CONST>
1

>  <SCORE.INTER.POLAR>
0

>  <SCORE.INTER.ROT>
3

>  <SCORE.INTER.SOLV>
11.7184

>  <SCORE.INTER.VDW>
-12.0357

>  <SCORE.INTER.norm>
-0.237146

>  <SCORE.INTRA>
-1.5281

>  <SCORE.INTRA.DIHEDRAL>
-1.83892

>  <SCORE.INTRA.DIHEDRAL.0>
2.05999

>  <SCORE.INTRA.POLAR>
0

>  <SCORE.INTRA.POLAR.0>
0

>  <SCORE.INTRA.REPUL>
0

>  <SCORE.INTRA.REPUL.0>
0

>  <SCORE.INTRA.SOLV>
-1.01645

>  <SCORE.INTRA.SOLV.lig_0>
-58.7001

>  <SCORE.INTRA.VDW>
-0.100416

>  <SCORE.INTRA.VDW.0>
-0.401036

>  <SCORE.INTRA.norm>
-0.0955065

>  <SCORE.RESTR>
0.000127509

>  <SCORE.RESTR.CAVITY>
0.000127509

>  <SCORE.RESTR.norm>
7.96929e-06

>  <SCORE.SYSTEM>
0

>  <SCORE.SYSTEM.CONST>
0

>  <SCORE.SYSTEM.DIHEDRAL>
0

>  <SCORE.SYSTEM.SOLV>
0

>  <SCORE.SYSTEM.norm>
0

>  <SCORE.heavy>
16

>  <SCORE.norm>
-0.332644

>  <RMSD>
0.920

$$$$
ligand
 OpenBabel11021811463D
libRbt.so/2013.1/901 2013/11/27
 16 16  0  0  0  0  0  0  0  0999 V2000
   51.8772   34.8361   53.9010 P   0  0  2  0  0  0  0  0  0  0  0  0
   51.8790   36.1983   54.4898 O   0  0  0  0  0  0  0  0  0  0  0  0
   53.0387   33.9571   54.5934 O   0  5  0  0  0  0  0  0  0  0  0  0
   52.1470   34.9553   52.3103 O   0  0  0  0  0  0  0  0  0  0  0  0
   46.5857   33.8815   55.6938 C   0  0  2  0  0  0  0  0  0  0  0  0
   46.4631   32.4939   55.3069 O   0  0  0  0  0  0  0  0  0  0  0  0
   45.4384   34.7351   55.0796 C   0  0  2  0  0  0  0  0  0  0  0  0
   44.1363   34.1994   55.5175 N   0  0  0  0  0  0  0  0  0  0  0  0
   45.5454   34.6737   53.5400 C   0  0  1  0  0  0  0  0  0  0  0  0
   44.5000   35.4602   52.9442 O   0  0  0  0  0  0  0  0  0  0  0  0
   46.9234   35.2452   53.1462 C   0  0  2  0  0  0  0  0  0  0  0  0
   47.0618   35.1968   51.7159 O   0  0  0  0  0  0  0  0  0  0  0  0
   48.0253   34.3669   53.8148 C   0  0  2  0  0  0  0  0  0  0  0  0
   47.8893   34.3913   55.2669 O   0  0  0  0  0  0  0  0  0  0  0  0
   49.4289   34.8955   53.4771 C   0  0  0  0  0  0  0  0  0  0  0  0
   50.4374   34.1465   54.1779 O   0  0  0  0  0  0  0  0  0  0  0  0
  1  2  1  1  0  0  0
  1  3  1  0  0  0  0
  1  4  2  0  0  0  0
  1 16  1  0  0  0  0
  5  6  1  6  0  0  0
  5  7  1  0  0  0  0
  5 14  1  0  0  0  0
  7  8  1  6  0  0  0
  7  9  1  0  0  0  0
  9 10  1  6  0  0  0
  9 11  1  0  0  0  0
 11 12  1  6  0  0  0
 11 13  1  0  0  0  0
 13 14  1  0  0  0  0
 13 15  1  1  0  0  0
 15 16  1  0  0  0  0
M  CHG  1   3  -1
M  END
>  <CHROM.1>
175.55968625,-174.48721754,64.44915113,48.55244366,34.61811751,54.03304942
-0.08679695,0.01523771,2.07036839

>  <Name>
ligand

>  <RI>
0

>  <Rbt.Current_Directory>
/home/itssahil/PROJECTS/Mol_Feturizer/New_Systems/rnas/3B4A

>  <Rbt.Executable>
rbdock ($Id: //depot/dev/client3/rdock/2013.1/src/exe/rbdock.cxx#4 $)

>  <Rbt.Library>
libRbt.so (2013.1, Build901 2013/11/27)

>  <Rbt.Parameter_File>
/export/apps/rDock/src/rDock_2013.1_src/data/scripts/dock_solv.prm

>  <Rbt.Receptor>
prm/pocket_docking_2.prm

>  <SCORE>
-5.32988

>  <SCORE.INTER>
-3.82556

>  <SCORE.INTER.CONST>
1

>  <SCORE.INTER.POLAR>
0

>  <SCORE.INTER.ROT>
3

>  <SCORE.INTER.SOLV>
11.7016

>  <SCORE.INTER.VDW>
-12.0509

>  <SCORE.INTER.norm>
-0.239097

>  <SCORE.INTRA>
-1.50433

>  <SCORE.INTRA.DIHEDRAL>
-1.8064

>  <SCORE.INTRA.DIHEDRAL.0>
2.05999

>  <SCORE.INTRA.POLAR>
0

>  <SCORE.INTRA.POLAR.0>
0

>  <SCORE.INTRA.REPUL>
0

>  <SCORE.INTRA.REPUL.0>
0

>  <SCORE.INTRA.SOLV>
-0.999305

>  <SCORE.INTRA.SOLV.lig_0>
-58.7001

>  <SCORE.INTRA.VDW>
-0.10147

>  <SCORE.INTRA.VDW.0>
-0.401036

>  <SCORE.INTRA.norm>
-0.0940203

>  <SCORE.RESTR>
0

>  <SCORE.RESTR.CAVITY>
0

>  <SCORE.RESTR.norm>
0

>  <SCORE.SYSTEM>
0

>  <SCORE.SYSTEM.CONST>
0

>  <SCORE.SYSTEM.DIHEDRAL>
0

>  <SCORE.SYSTEM.SOLV>
0

>  <SCORE.SYSTEM.norm>
0

>  <SCORE.heavy>
16

>  <SCORE.norm>
-0.333118

>  <RMSD>
0.920

$$$$
ligand
 OpenBabel11021811463D
libRbt.so/2013.1/901 2013/11/27
 16 16  0  0  0  0  0  0  0  0999 V2000
   51.8667   34.8906   53.8356 P   0  0  2  0  0  0  0  0  0  0  0  0
   51.8503   36.2705   54.3816 O   0  0  0  0  0  0  0  0  0  0  0  0
   53.0359   34.0475   54.5591 O   0  5  0  0  0  0  0  0  0  0  0  0
   52.1412   34.9633   52.2429 O   0  0  0  0  0  0  0  0  0  0  0  0
   46.5974   33.9000   55.6954 C   0  0  2  0  0  0  0  0  0  0  0  0
   46.4851   32.5124   55.3053 O   0  0  0  0  0  0  0  0  0  0  0  0
   45.4364   34.7440   55.0939 C   0  0  2  0  0  0  0  0  0  0  0  0
   44.1435   34.1941   55.5414 N   0  0  0  0  0  0  0  0  0  0  0  0
   45.5306   34.6883   53.5532 C   0  0  1  0  0  0  0  0  0  0  0  0
   44.4723   35.4662   52.9690 O   0  0  0  0  0  0  0  0  0  0  0  0
   46.8993   35.2746   53.1492 C   0  0  2  0  0  0  0  0  0  0  0  0
   47.0257   35.2318   51.7176 O   0  0  0  0  0  0  0  0  0  0  0  0
   48.0156   34.4052   53.8054 C   0  0  2  0  0  0  0  0  0  0  0  0
   47.8921   34.4239   55.2588 O   0  0  0  0  0  0  0  0  0  0  0  0
   49.4110   34.9487   53.4572 C   0  0  0  0  0  0  0  0  0  0  0  0
   50.4342   34.1930   54.1290 O   0  0  0  0  0  0  0  0  0  0  0  0
  1  2  1  1  0  0  0
  1  3  1  0  0  0  0
  1  4  2  0  0  0  0
  1 16  1  0  0  0  0
  5  6  1  6  0  0  0
  5  7  1  0  0  0  0
  5 14  1  0  0  0  0
  7  8  1  6  0  0  0
  7  9  1  0  0  0  0
  9 10  1  6  0  0  0
  9 11  1  0  0  0  0
 11 12  1  6  0  0  0
 11 13  1  0  0  0  0
 13 14  1  0  0  0  0
 13 15  1  1  0  0  0
 15 16  1  0  0  0  0
M  CHG  1   3  -1
M  END
>  <CHROM.1>
176.54403848,-174.87037741,61.52817060,48.54349648,34.65275201,54.01103979
-0.10092808,0.01497493,2.07315094

>  <Name>
ligand

>  <RI>
0

>  <Rbt.Current_Directory>
/home/itssahil/PROJECTS/Mol_Feturizer/New_Systems/rnas/3B4A

>  <Rbt.Executable>
rbdock ($Id: //depot/dev/client3/rdock/2013.1/src/exe/rbdock.cxx#4 $)

>  <Rbt.Library>
libRbt.so (2013.1, Build901 2013/11/27)

>  <Rbt.Parameter_File>
/export/apps/rDock/src/rDock_2013.1_src/data/scripts/dock_solv.prm

>  <Rbt.Receptor>
prm/pocket_docking_2.prm

>  <SCORE>
-5.27415

>  <SCORE.INTER>
-3.72019

>  <SCORE.INTER.CONST>
1

>  <SCORE.INTER.POLAR>
0

>  <SCORE.INTER.ROT>
3

>  <SCORE.INTER.SOLV>
11.6494

>  <SCORE.INTER.VDW>
-11.9633

>  <SCORE.INTER.norm>
-0.232512

>  <SCORE.INTRA>
-1.55396

>  <SCORE.INTRA.DIHEDRAL>
-1.88254

>  <SCORE.INTRA.DIHEDRAL.0>
2.05999

>  <SCORE.INTRA.POLAR>
0

>  <SCORE.INTRA.POLAR.0>
0

>  <SCORE.INTRA.REPUL>
0

>  <SCORE.INTRA.REPUL.0>
0

>  <SCORE.INTRA.SOLV>
-1.03265

>  <SCORE.INTRA.SOLV.lig_0>
-58.7001

>  <SCORE.INTRA.VDW>
-0.0963645

>  <SCORE.INTRA.VDW.0>
-0.401036

>  <SCORE.INTRA.norm>
-0.0971224

>  <SCORE.RESTR>
0

>  <SCORE.RESTR.CAVITY>
0

>  <SCORE.RESTR.norm>
0

>  <SCORE.SYSTEM>
0

>  <SCORE.SYSTEM.CONST>
0

>  <SCORE.SYSTEM.DIHEDRAL>
0

>  <SCORE.SYSTEM.SOLV>
0

>  <SCORE.SYSTEM.norm>
0

>  <SCORE.heavy>
16

>  <SCORE.norm>
-0.329635

>  <RMSD>
0.922

$$$$
ligand
 OpenBabel11021811463D
libRbt.so/2013.1/901 2013/11/27
 16 16  0  0  0  0  0  0  0  0999 V2000
   51.8623   34.8681   53.8628 P   0  0  2  0  0  0  0  0  0  0  0  0
   51.8513   36.2387   54.4317 O   0  0  0  0  0  0  0  0  0  0  0  0
   53.0287   34.0088   54.5715 O   0  5  0  0  0  0  0  0  0  0  0  0
   52.1362   34.9662   52.2714 O   0  0  0  0  0  0  0  0  0  0  0  0
   46.5899   33.8907   55.6936 C   0  0  2  0  0  0  0  0  0  0  0  0
   46.4668   32.5043   55.3022 O   0  0  0  0  0  0  0  0  0  0  0  0
   45.4354   34.7442   55.0931 C   0  0  2  0  0  0  0  0  0  0  0  0
   44.1384   34.2039   55.5404 N   0  0  0  0  0  0  0  0  0  0  0  0
   45.5288   34.6893   53.5524 C   0  0  1  0  0  0  0  0  0  0  0  0
   44.4763   35.4759   52.9691 O   0  0  0  0  0  0  0  0  0  0  0  0
   46.9019   35.2654   53.1486 C   0  0  2  0  0  0  0  0  0  0  0  0
   47.0277   35.2230   51.7170 O   0  0  0  0  0  0  0  0  0  0  0  0
   48.0116   34.3868   53.8038 C   0  0  2  0  0  0  0  0  0  0  0  0
   47.8885   34.4051   55.2572 O   0  0  0  0  0  0  0  0  0  0  0  0
   49.4110   34.9199   53.4557 C   0  0  0  0  0  0  0  0  0  0  0  0
   50.4273   34.1710   54.1453 O   0  0  0  0  0  0  0  0  0  0  0  0
  1  2  1  1  0  0  0
  1  3  1  0  0  0  0
  1  4  2  0  0  0  0
  1 16  1  0  0  0  0
  5  6  1  6  0  0  0
  5  7  1  0  0  0  0
  5 14  1  0  0  0  0
  7  8  1  6  0  0  0
  7  9  1  0  0  0  0
  9 10  1  6  0  0  0
  9 11  1  0  0  0  0
 11 12  1  6  0  0  0
 11 13  1  0  0  0  0
 13 14  1  0  0  0  0
 13 15  1  1  0  0  0
 15 16  1  0  0  0  0
M  CHG  1   3  -1
M  END
>  <CHROM.1>
175.51119069,-174.28023308,63.13043069,48.53992728,34.63975167,54.02043975
-0.09514173,0.01389867,2.07389612

>  <Name>
ligand

>  <RI>
0

>  <Rbt.Current_Directory>
/home/itssahil/PROJECTS/Mol_Feturizer/New_Systems/rnas/3B4A

>  <Rbt.Executable>
rbdock ($Id: //depot/dev/client3/rdock/2013.1/src/exe/rbdock.cxx#4 $)

>  <Rbt.Library>
libRbt.so (2013.1, Build901 2013/11/27)

>  <Rbt.Parameter_File>
/export/apps/rDock/src/rDock_2013.1_src/data/scripts/dock_solv.prm

>  <Rbt.Receptor>
prm/pocket_docking_2.prm

>  <SCORE>
-5.32156

>  <SCORE.INTER>
-3.8125

>  <SCORE.INTER.CONST>
1

>  <SCORE.INTER.POLAR>
0

>  <SCORE.INTER.ROT>
3

>  <SCORE.INTER.SOLV>
11.6802

>  <SCORE.INTER.VDW>
-12.0351

>  <SCORE.INTER.norm>
-0.238281

>  <SCORE.INTRA>
-1.51024

>  <SCORE.INTRA.DIHEDRAL>
-1.80992

>  <SCORE.INTRA.DIHEDRAL.0>
2.05999

>  <SCORE.INTRA.POLAR>
0

>  <SCORE.INTRA.POLAR.0>
0

>  <SCORE.INTRA.REPUL>
0

>  <SCORE.INTRA.REPUL.0>
0

>  <SCORE.INTRA.SOLV>
-1.01212

>  <SCORE.INTRA.SOLV.lig_0>
-58.7001

>  <SCORE.INTRA.VDW>
-0.0992123

>  <SCORE.INTRA.VDW.0>
-0.401036

>  <SCORE.INTRA.norm>
-0.0943897

>  <SCORE.RESTR>
0.00117712

>  <SCORE.RESTR.CAVITY>
0.00117712

>  <SCORE.RESTR.norm>
7.35697e-05

>  <SCORE.SYSTEM>
0

>  <SCORE.SYSTEM.CONST>
0

>  <SCORE.SYSTEM.DIHEDRAL>
0

>  <SCORE.SYSTEM.SOLV>
0

>  <SCORE.SYSTEM.norm>
0

>  <SCORE.heavy>
16

>  <SCORE.norm>
-0.332597

>  <RMSD>
0.922

$$$$
ligand
 OpenBabel11021811463D
libRbt.so/2013.1/901 2013/11/27
 16 16  0  0  0  0  0  0  0  0999 V2000
   51.8570   34.7895   53.8820 P   0  0  2  0  0  0  0  0  0  0  0  0
   51.8589   36.1630   54.4440 O   0  0  0  0  0  0  0  0  0  0  0  0
   53.0136   33.9221   54.5967 O   0  5  0  0  0  0  0  0  0  0  0  0
   52.1341   34.8769   52.2905 O   0  0  0  0  0  0  0  0  0  0  0  0
   46.5820   33.8910   55.7115 C   0  0  2  0  0  0  0  0  0  0  0  0
   46.4316   32.5038   55.3330 O   0  0  0  0  0  0  0  0  0  0  0  0
   45.4401   34.7602   55.1093 C   0  0  2  0  0  0  0  0  0  0  0  0
   44.1358   34.2476   55.5677 N   0  0  0  0  0  0  0  0  0  0  0  0
   45.5247   34.6902   53.5687 C   0  0  1  0  0  0  0  0  0  0  0  0
   44.4838   35.4908   52.9837 O   0  0  0  0  0  0  0  0  0  0  0  0
   46.9060   35.2376   53.1531 C   0  0  2  0  0  0  0  0  0  0  0  0
   47.0237   35.1805   51.7213 O   0  0  0  0  0  0  0  0  0  0  0  0
   48.0028   34.3446   53.8105 C   0  0  2  0  0  0  0  0  0  0  0  0
   47.8875   34.3778   55.2643 O   0  0  0  0  0  0  0  0  0  0  0  0
   49.4099   34.8490   53.4509 C   0  0  0  0  0  0  0  0  0  0  0  0
   50.4146   34.1082   54.1658 O   0  0  0  0  0  0  0  0  0  0  0  0
  1  2  1  1  0  0  0
  1  3  1  0  0  0  0
  1  4  2  0  0  0  0
  1 16  1  0  0  0  0
  5  6  1  6  0  0  0
  5  7  1  0  0  0  0
  5 14  1  0  0  0  0
  7  8  1  1  0  0  0
  7  9  1  0  0  0  0
  9 10  1  6  0  0  0
  9 11  1  0  0  0  0
 11 12  1  6  0  0  0
 11 13  1  0  0  0  0
 13 14  1  0  0  0  0
 13 15  1  1  0  0  0
 15 16  1  0  0  0  0
M  CHG  1   3  -1
M  END
>  <CHROM.1>
174.17143291,-173.56697660,64.18473753,48.53494508,34.60238755,54.03572334
-0.08812217,0.00286696,2.06439482

>  <Name>
ligand

>  <RI>
0

>  <Rbt.Current_Directory>
/home/itssahil/PROJECTS/Mol_Feturizer/New_Systems/rnas/3B4A

>  <Rbt.Executable>
rbdock ($Id: //depot/dev/client3/rdock/2013.1/src/exe/rbdock.cxx#4 $)

>  <Rbt.Library>
libRbt.so (2013.1, Build901 2013/11/27)

>  <Rbt.Parameter_File>
/export/apps/rDock/src/rDock_2013.1_src/data/scripts/dock_solv.prm

>  <Rbt.Receptor>
prm/pocket_docking_2.prm

>  <SCORE>
-5.32609

>  <SCORE.INTER>
-3.87923

>  <SCORE.INTER.CONST>
1

>  <SCORE.INTER.POLAR>
0

>  <SCORE.INTER.ROT>
3

>  <SCORE.INTER.SOLV>
11.7414

>  <SCORE.INTER.VDW>
-12.1

>  <SCORE.INTER.norm>
-0.242452

>  <SCORE.INTRA>
-1.44686

>  <SCORE.INTRA.DIHEDRAL>
-1.70625

>  <SCORE.INTRA.DIHEDRAL.0>
2.05999

>  <SCORE.INTRA.POLAR>
0

>  <SCORE.INTRA.POLAR.0>
0

>  <SCORE.INTRA.REPUL>
0

>  <SCORE.INTRA.REPUL.0>
0

>  <SCORE.INTRA.SOLV>
-0.995886

>  <SCORE.INTRA.SOLV.lig_0>
-58.7001

>  <SCORE.INTRA.VDW>
-0.0957928

>  <SCORE.INTRA.VDW.0>
-0.401036

>  <SCORE.INTRA.norm>
-0.0904288

>  <SCORE.RESTR>
0

>  <SCORE.RESTR.CAVITY>
0

>  <SCORE.RESTR.norm>
0

>  <SCORE.SYSTEM>
0

>  <SCORE.SYSTEM.CONST>
0

>  <SCORE.SYSTEM.DIHEDRAL>
0

>  <SCORE.SYSTEM.SOLV>
0

>  <SCORE.SYSTEM.norm>
0

>  <SCORE.heavy>
16

>  <SCORE.norm>
-0.332881

>  <RMSD>
0.924

$$$$
ligand
 OpenBabel11021811463D
libRbt.so/2013.1/901 2013/11/27
 16 16  0  0  0  0  0  0  0  0999 V2000
   51.8665   34.7951   53.8957 P   0  0  2  0  0  0  0  0  0  0  0  0
   51.8764   36.1617   54.4745 O   0  0  0  0  0  0  0  0  0  0  0  0
   53.0245   33.9153   54.5928 O   0  5  0  0  0  0  0  0  0  0  0  0
   52.1344   34.9012   52.3038 O   0  0  0  0  0  0  0  0  0  0  0  0
   46.5822   33.9090   55.7080 C   0  0  2  0  0  0  0  0  0  0  0  0
   46.4372   32.5173   55.3442 O   0  0  0  0  0  0  0  0  0  0  0  0
   45.4420   34.7687   55.0893 C   0  0  2  0  0  0  0  0  0  0  0  0
   44.1361   34.2583   55.5458 N   0  0  0  0  0  0  0  0  0  0  0  0
   45.5358   34.6816   53.5501 C   0  0  1  0  0  0  0  0  0  0  0  0
   44.4966   35.4731   52.9500 O   0  0  0  0  0  0  0  0  0  0  0  0
   46.9183   35.2274   53.1365 C   0  0  2  0  0  0  0  0  0  0  0  0
   47.0446   35.1544   51.7061 O   0  0  0  0  0  0  0  0  0  0  0  0
   48.0132   34.3444   53.8103 C   0  0  2  0  0  0  0  0  0  0  0  0
   47.8892   34.3937   55.2629 O   0  0  0  0  0  0  0  0  0  0  0  0
   49.4213   34.8479   53.4533 C   0  0  0  0  0  0  0  0  0  0  0  0
   50.4236   34.1152   54.1799 O   0  0  0  0  0  0  0  0  0  0  0  0
  1  2  1  1  0  0  0
  1  3  1  0  0  0  0
  1  4  2  0  0  0  0
  1 16  1  0  0  0  0
  5  6  1  6  0  0  0
  5  7  1  0  0  0  0
  5 14  1  0  0  0  0
  7  8  1  1  0  0  0
  7  9  1  0  0  0  0
  9 10  1  6  0  0  0
  9 11  1  0  0  0  0
 11 12  1  6  0  0  0
 11 13  1  0  0  0  0
 13 14  1  0  0  0  0
 13 15  1  1  0  0  0
 15 16  1  0  0  0  0
M  CHG  1   3  -1
M  END
>  <CHROM.1>
174.31870900,-173.64070522,65.60596957,48.54359262,34.60454880,54.03423887
-0.08431915,0.00674685,2.05386972

>  <Name>
ligand

>  <RI>
0

>  <Rbt.Current_Directory>
/home/itssahil/PROJECTS/Mol_Feturizer/New_Systems/rnas/3B4A

>  <Rbt.Executable>
rbdock ($Id: //depot/dev/client3/rdock/2013.1/src/exe/rbdock.cxx#4 $)

>  <Rbt.Library>
libRbt.so (2013.1, Build901 2013/11/27)

>  <Rbt.Parameter_File>
/export/apps/rDock/src/rDock_2013.1_src/data/scripts/dock_solv.prm

>  <Rbt.Receptor>
prm/pocket_docking_2.prm

>  <SCORE>
-5.32643

>  <SCORE.INTER>
-3.89184

>  <SCORE.INTER.CONST>
1

>  <SCORE.INTER.POLAR>
0

>  <SCORE.INTER.ROT>
3

>  <SCORE.INTER.SOLV>
11.7055

>  <SCORE.INTER.VDW>
-12.0964

>  <SCORE.INTER.norm>
-0.24324

>  <SCORE.INTRA>
-1.43459

>  <SCORE.INTRA.DIHEDRAL>
-1.69414

>  <SCORE.INTRA.DIHEDRAL.0>
2.05999

>  <SCORE.INTRA.POLAR>
0

>  <SCORE.INTRA.POLAR.0>
0

>  <SCORE.INTRA.REPUL>
0

>  <SCORE.INTRA.REPUL.0>
0

>  <SCORE.INTRA.SOLV>
-0.981984

>  <SCORE.INTRA.SOLV.lig_0>
-58.7001

>  <SCORE.INTRA.VDW>
-0.0965302

>  <SCORE.INTRA.VDW.0>
-0.401036

>  <SCORE.INTRA.norm>
-0.0896621

>  <SCORE.RESTR>
0

>  <SCORE.RESTR.CAVITY>
0

>  <SCORE.RESTR.norm>
0

>  <SCORE.SYSTEM>
0

>  <SCORE.SYSTEM.CONST>
0

>  <SCORE.SYSTEM.DIHEDRAL>
0

>  <SCORE.SYSTEM.SOLV>
0

>  <SCORE.SYSTEM.norm>
0

>  <SCORE.heavy>
16

>  <SCORE.norm>
-0.332902

>  <RMSD>
0.926

$$$$
ligand
 OpenBabel11021811463D
libRbt.so/2013.1/901 2013/11/27
 16 16  0  0  0  0  0  0  0  0999 V2000
   51.8735   34.8697   53.8976 P   0  0  2  0  0  0  0  0  0  0  0  0
   51.8580   36.1971   54.5612 O   0  0  0  0  0  0  0  0  0  0  0  0
   53.0370   33.9636   54.5506 O   0  5  0  0  0  0  0  0  0  0  0  0
   52.1558   35.0795   52.3185 O   0  0  0  0  0  0  0  0  0  0  0  0
   46.5840   33.8867   55.6497 C   0  0  2  0  0  0  0  0  0  0  0  0
   46.4591   32.5049   55.2431 O   0  0  0  0  0  0  0  0  0  0  0  0
   45.4384   34.7509   55.0473 C   0  0  2  0  0  0  0  0  0  0  0  0
   44.1352   34.2113   55.4772 N   0  0  0  0  0  0  0  0  0  0  0  0
   45.5458   34.7112   53.5071 C   0  0  1  0  0  0  0  0  0  0  0  0
   44.5019   35.5079   52.9222 O   0  0  0  0  0  0  0  0  0  0  0  0
   46.9249   35.2858   53.1219 C   0  0  2  0  0  0  0  0  0  0  0  0
   47.0637   35.2575   51.6911 O   0  0  0  0  0  0  0  0  0  0  0  0
   48.0250   34.3962   53.7782 C   0  0  2  0  0  0  0  0  0  0  0  0
   47.8886   34.4002   55.2306 O   0  0  0  0  0  0  0  0  0  0  0  0
   49.4297   34.9271   53.4485 C   0  0  0  0  0  0  0  0  0  0  0  0
   50.4378   34.1535   54.1228 O   0  0  0  0  0  0  0  0  0  0  0  0
  1  2  1  1  0  0  0
  1  3  1  0  0  0  0
  1  4  2  0  0  0  0
  1 16  1  0  0  0  0
  5  6  1  6  0  0  0
  5  7  1  0  0  0  0
  5 14  1  0  0  0  0
  7  8  1  6  0  0  0
  7  9  1  0  0  0  0
  9 10  1  6  0  0  0
  9 11  1  0  0  0  0
 11 12  1  6  0  0  0
 11 13  1  0  0  0  0
 13 14  1  0  0  0  0
 13 15  1  1  0  0  0
 15 16  1  0  0  0  0
M  CHG  1   3  -1
M  END
>  <CHROM.1>
176.44257226,-172.70523296,64.80415314,48.55105750,34.64809324,54.00952311
-0.08298627,0.01752017,2.08514905

>  <Name>
ligand

>  <RI>
0

>  <Rbt.Current_Directory>
/home/itssahil/PROJECTS/Mol_Feturizer/New_Systems/rnas/3B4A

>  <Rbt.Executable>
rbdock ($Id: //depot/dev/client3/rdock/2013.1/src/exe/rbdock.cxx#4 $)

>  <Rbt.Library>
libRbt.so (2013.1, Build901 2013/11/27)

>  <Rbt.Parameter_File>
/export/apps/rDock/src/rDock_2013.1_src/data/scripts/dock_solv.prm

>  <Rbt.Receptor>
prm/pocket_docking_2.prm

>  <SCORE>
-5.27687

>  <SCORE.INTER>
-3.81281

>  <SCORE.INTER.CONST>
1

>  <SCORE.INTER.POLAR>
0

>  <SCORE.INTER.ROT>
3

>  <SCORE.INTER.SOLV>
11.4773

>  <SCORE.INTER.VDW>
-11.9676

>  <SCORE.INTER.norm>
-0.2383

>  <SCORE.INTRA>
-1.46406

>  <SCORE.INTRA.DIHEDRAL>
-1.71565

>  <SCORE.INTRA.DIHEDRAL.0>
2.05999

>  <SCORE.INTRA.POLAR>
0

>  <SCORE.INTRA.POLAR.0>
0

>  <SCORE.INTRA.REPUL>
0

>  <SCORE.INTRA.REPUL.0>
0

>  <SCORE.INTRA.SOLV>
-0.994087

>  <SCORE.INTRA.SOLV.lig_0>
-58.7001

>  <SCORE.INTRA.VDW>
-0.109198

>  <SCORE.INTRA.VDW.0>
-0.401036

>  <SCORE.INTRA.norm>
-0.091504

>  <SCORE.RESTR>
0

>  <SCORE.RESTR.CAVITY>
0

>  <SCORE.RESTR.norm>
0

>  <SCORE.SYSTEM>
0

>  <SCORE.SYSTEM.CONST>
0

>  <SCORE.SYSTEM.DIHEDRAL>
0

>  <SCORE.SYSTEM.SOLV>
0

>  <SCORE.SYSTEM.norm>
0

>  <SCORE.heavy>
16

>  <SCORE.norm>
-0.329804

>  <RMSD>
0.933

$$$$
ligand
 OpenBabel11021811463D
libRbt.so/2013.1/901 2013/11/27
 16 16  0  0  0  0  0  0  0  0999 V2000
   51.9012   34.8103   53.8627 P   0  0  2  0  0  0  0  0  0  0  0  0
   51.9455   36.1400   54.5203 O   0  0  0  0  0  0  0  0  0  0  0  0
   53.0530   33.8705   54.4882 O   0  5  0  0  0  0  0  0  0  0  0  0
   52.1469   35.0052   52.2756 O   0  0  0  0  0  0  0  0  0  0  0  0
   46.5861   33.8539   55.6750 C   0  0  2  0  0  0  0  0  0  0  0  0
   46.4619   32.4888   55.2154 O   0  0  0  0  0  0  0  0  0  0  0  0
   45.4443   34.7417   55.1004 C   0  0  2  0  0  0  0  0  0  0  0  0
   44.1385   34.1876   55.5028 N   0  0  0  0  0  0  0  0  0  0  0  0
   45.5594   34.7608   53.5603 C   0  0  1  0  0  0  0  0  0  0  0  0
   44.5192   35.5804   53.0010 O   0  0  0  0  0  0  0  0  0  0  0  0
   46.9409   35.3482   53.2042 C   0  0  2  0  0  0  0  0  0  0  0  0
   47.0870   35.3743   51.7741 O   0  0  0  0  0  0  0  0  0  0  0  0
   48.0370   34.4329   53.8316 C   0  0  2  0  0  0  0  0  0  0  0  0
   47.8932   34.3817   55.2823 O   0  0  0  0  0  0  0  0  0  0  0  0
   49.4438   34.9745   53.5294 C   0  0  0  0  0  0  0  0  0  0  0  0
   50.4504   34.1406   54.1300 O   0  0  0  0  0  0  0  0  0  0  0  0
  1  2  1  1  0  0  0
  1  3  1  0  0  0  0
  1  4  2  0  0  0  0
  1 16  1  0  0  0  0
  5  6  1  6  0  0  0
  5  7  1  0  0  0  0
  5 14  1  0  0  0  0
  7  8  1  6  0  0  0
  7  9  1  0  0  0  0
  9 10  1  6  0  0  0
  9 11  1  0  0  0  0
 11 12  1  6  0  0  0
 11 13  1  0  0  0  0
 13 14  1  0  0  0  0
 13 15  1  1  0  0  0
 15 16  1  0  0  0  0
M  CHG  1   3  -1
M  END
>  <CHROM.1>
178.97540269,-176.31617797,62.32182125,48.56784165,34.64236808,54.02794240
-0.08876681,-0.00304111,2.12480945

>  <Name>
ligand

>  <RI>
0

>  <Rbt.Current_Directory>
/home/itssahil/PROJECTS/Mol_Feturizer/New_Systems/rnas/3B4A

>  <Rbt.Executable>
rbdock ($Id: //depot/dev/client3/rdock/2013.1/src/exe/rbdock.cxx#4 $)

>  <Rbt.Library>
libRbt.so (2013.1, Build901 2013/11/27)

>  <Rbt.Parameter_File>
/export/apps/rDock/src/rDock_2013.1_src/data/scripts/dock_solv.prm

>  <Rbt.Receptor>
prm/pocket_docking_2.prm

>  <SCORE>
-5.24946

>  <SCORE.INTER>
-3.63504

>  <SCORE.INTER.CONST>
1

>  <SCORE.INTER.POLAR>
0

>  <SCORE.INTER.ROT>
3

>  <SCORE.INTER.SOLV>
11.5309

>  <SCORE.INTER.VDW>
-11.867

>  <SCORE.INTER.norm>
-0.22719

>  <SCORE.INTRA>
-1.61443

>  <SCORE.INTRA.DIHEDRAL>
-1.97837

>  <SCORE.INTRA.DIHEDRAL.0>
2.05999

>  <SCORE.INTRA.POLAR>
0

>  <SCORE.INTRA.POLAR.0>
0

>  <SCORE.INTRA.REPUL>
0

>  <SCORE.INTRA.REPUL.0>
0

>  <SCORE.INTRA.SOLV>
-1.03482

>  <SCORE.INTRA.SOLV.lig_0>
-58.7001

>  <SCORE.INTRA.VDW>
-0.10783

>  <SCORE.INTRA.VDW.0>
-0.401036

>  <SCORE.INTRA.norm>
-0.100902

>  <SCORE.RESTR>
0

>  <SCORE.RESTR.CAVITY>
0

>  <SCORE.RESTR.norm>
0

>  <SCORE.SYSTEM>
0

>  <SCORE.SYSTEM.CONST>
0

>  <SCORE.SYSTEM.DIHEDRAL>
0

>  <SCORE.SYSTEM.SOLV>
0

>  <SCORE.SYSTEM.norm>
0

>  <SCORE.heavy>
16

>  <SCORE.norm>
-0.328092

>  <RMSD>
0.951

$$$$
ligand
 OpenBabel11021811463D
libRbt.so/2013.1/901 2013/11/27
 16 16  0  0  0  0  0  0  0  0999 V2000
   52.2093   34.8914   54.0741 P   0  0  2  0  0  0  0  0  0  0  0  0
   52.8374   36.0533   54.7509 O   0  0  0  0  0  0  0  0  0  0  0  0
   52.8626   33.5302   54.6410 O   0  5  0  0  0  0  0  0  0  0  0  0
   52.4722   35.0106   52.4822 O   0  0  0  0  0  0  0  0  0  0  0  0
   46.8789   33.4884   55.7740 C   0  0  2  0  0  0  0  0  0  0  0  0
   46.2902   32.3246   55.1502 O   0  0  0  0  0  0  0  0  0  0  0  0
   46.1534   34.7895   55.3236 C   0  0  2  0  0  0  0  0  0  0  0  0
   44.7219   34.6998   55.6659 N   0  0  0  0  0  0  0  0  0  0  0  0
   46.3237   34.9480   53.7968 C   0  0  1  0  0  0  0  0  0  0  0  0
   45.6678   36.1476   53.3523 O   0  0  0  0  0  0  0  0  0  0  0  0
   47.8359   35.0358   53.5038 C   0  0  2  0  0  0  0  0  0  0  0  0
   48.0336   35.1767   52.0867 O   0  0  0  0  0  0  0  0  0  0  0  0
   48.5071   33.7195   54.0036 C   0  0  2  0  0  0  0  0  0  0  0  0
   48.3018   33.5521   55.4381 O   0  0  0  0  0  0  0  0  0  0  0  0
   50.0245   33.7493   53.7583 C   0  0  0  0  0  0  0  0  0  0  0  0
   50.6191   34.8999   54.3844 O   0  0  0  0  0  0  0  0  0  0  0  0
  1  2  1  1  0  0  0
  1  3  1  0  0  0  0
  1  4  2  0  0  0  0
  1 16  1  0  0  0  0
  5  6  1  6  0  0  0
  5  7  1  0  0  0  0
  5 14  1  0  0  0  0
  7  8  1  6  0  0  0
  7  9  1  0  0  0  0
  9 10  1  1  0  0  0
  9 11  1  0  0  0  0
 11 12  1  6  0  0  0
 11 13  1  0  0  0  0
 13 14  1  0  0  0  0
 13 15  1  1  0  0  0
 15 16  1  0  0  0  0
M  CHG  1   3  -1
M  END
>  <CHROM.1>
56.34429908,-179.12336483,-178.31069274,49.05598781,34.53474501,54.23039327
-0.12311016,-0.02804637,2.32487050

>  <Name>
ligand

>  <RI>
0

>  <Rbt.Current_Directory>
/home/itssahil/PROJECTS/Mol_Feturizer/New_Systems/rnas/3B4A

>  <Rbt.Executable>
rbdock ($Id: //depot/dev/client3/rdock/2013.1/src/exe/rbdock.cxx#4 $)

>  <Rbt.Library>
libRbt.so (2013.1, Build901 2013/11/27)

>  <Rbt.Parameter_File>
/export/apps/rDock/src/rDock_2013.1_src/data/scripts/dock_solv.prm

>  <Rbt.Receptor>
prm/pocket_docking_4.prm

>  <SCORE>
-5.0794

>  <SCORE.INTER>
-3.60706

>  <SCORE.INTER.CONST>
1

>  <SCORE.INTER.POLAR>
0

>  <SCORE.INTER.ROT>
3

>  <SCORE.INTER.SOLV>
12.6741

>  <SCORE.INTER.VDW>
-12.2294

>  <SCORE.INTER.norm>
-0.225441

>  <SCORE.INTRA>
-1.47235

>  <SCORE.INTRA.DIHEDRAL>
-2.00191

>  <SCORE.INTRA.DIHEDRAL.0>
2.05999

>  <SCORE.INTRA.POLAR>
0

>  <SCORE.INTRA.POLAR.0>
0

>  <SCORE.INTRA.REPUL>
0

>  <SCORE.INTRA.REPUL.0>
0

>  <SCORE.INTRA.SOLV>
-0.199201

>  <SCORE.INTRA.SOLV.lig_0>
-58.7001

>  <SCORE.INTRA.VDW>
-0.371791

>  <SCORE.INTRA.VDW.0>
-0.401036

>  <SCORE.INTRA.norm>
-0.0920218

>  <SCORE.RESTR>
0

>  <SCORE.RESTR.CAVITY>
0

>  <SCORE.RESTR.norm>
0

>  <SCORE.SYSTEM>
0

>  <SCORE.SYSTEM.CONST>
0

>  <SCORE.SYSTEM.DIHEDRAL>
0

>  <SCORE.SYSTEM.SOLV>
0

>  <SCORE.SYSTEM.norm>
0

>  <SCORE.heavy>
16

>  <SCORE.norm>
-0.317463

>  <RMSD>
0.960

$$$$
ligand
 OpenBabel11021811463D
libRbt.so/2013.1/901 2013/11/27
 16 16  0  0  0  0  0  0  0  0999 V2000
   52.2034   34.8441   54.1246 P   0  0  2  0  0  0  0  0  0  0  0  0
   52.8197   36.0651   54.7007 O   0  0  0  0  0  0  0  0  0  0  0  0
   52.8395   33.5432   54.8346 O   0  5  0  0  0  0  0  0  0  0  0  0
   52.5028   34.8093   52.5351 O   0  0  0  0  0  0  0  0  0  0  0  0
   46.8541   33.5121   55.8311 C   0  0  2  0  0  0  0  0  0  0  0  0
   46.2649   32.3327   55.2378 O   0  0  0  0  0  0  0  0  0  0  0  0
   46.1385   34.8023   55.3358 C   0  0  2  0  0  0  0  0  0  0  0  0
   44.7039   34.7294   55.6688 N   0  0  0  0  0  0  0  0  0  0  0  0
   46.3220   34.9141   53.8064 C   0  0  1  0  0  0  0  0  0  0  0  0
   45.6755   36.1026   53.3206 O   0  0  0  0  0  0  0  0  0  0  0  0
   47.8370   34.9861   53.5235 C   0  0  2  0  0  0  0  0  0  0  0  0
   48.0469   35.0834   52.1045 O   0  0  0  0  0  0  0  0  0  0  0  0
   48.4977   33.6824   54.0682 C   0  0  2  0  0  0  0  0  0  0  0  0
   48.2800   33.5592   55.5053 O   0  0  0  0  0  0  0  0  0  0  0  0
   50.0172   33.6980   53.8347 C   0  0  0  0  0  0  0  0  0  0  0  0
   50.6067   34.8839   54.3963 O   0  0  0  0  0  0  0  0  0  0  0  0
  1  2  1  1  0  0  0
  1  3  1  0  0  0  0
  1  4  2  0  0  0  0
  1 16  1  0  0  0  0
  5  6  1  6  0  0  0
  5  7  1  0  0  0  0
  5 14  1  0  0  0  0
  7  8  1  6  0  0  0
  7  9  1  0  0  0  0
  9 10  1  1  0  0  0
  9 11  1  0  0  0  0
 11 12  1  6  0  0  0
 11 13  1  0  0  0  0
 13 14  1  0  0  0  0
 13 15  1  1  0  0  0
 15 16  1  0  0  0  0
M  CHG  1   3  -1
M  END
>  <CHROM.1>
54.63184876,179.84784439,179.97895630,49.04821707,34.50335037,54.27157813
-0.11563943,-0.02626485,2.29435734

>  <Name>
ligand

>  <RI>
0

>  <Rbt.Current_Directory>
/home/itssahil/PROJECTS/Mol_Feturizer/New_Systems/rnas/3B4A

>  <Rbt.Executable>
rbdock ($Id: //depot/dev/client3/rdock/2013.1/src/exe/rbdock.cxx#4 $)

>  <Rbt.Library>
libRbt.so (2013.1, Build901 2013/11/27)

>  <Rbt.Parameter_File>
/export/apps/rDock/src/rDock_2013.1_src/data/scripts/dock_solv.prm

>  <Rbt.Receptor>
prm/pocket_docking_3.prm

>  <SCORE>
-5.07518

>  <SCORE.INTER>
-3.63629

>  <SCORE.INTER.CONST>
1

>  <SCORE.INTER.POLAR>
0

>  <SCORE.INTER.ROT>
3

>  <SCORE.INTER.SOLV>
13.0647

>  <SCORE.INTER.VDW>
-12.3791

>  <SCORE.INTER.norm>
-0.227268

>  <SCORE.INTRA>
-1.43889

>  <SCORE.INTRA.DIHEDRAL>
-1.95548

>  <SCORE.INTRA.DIHEDRAL.0>
2.05999

>  <SCORE.INTRA.POLAR>
0

>  <SCORE.INTRA.POLAR.0>
0

>  <SCORE.INTRA.REPUL>
0

>  <SCORE.INTRA.REPUL.0>
0

>  <SCORE.INTRA.SOLV>
-0.198304

>  <SCORE.INTRA.SOLV.lig_0>
-58.7001

>  <SCORE.INTRA.VDW>
-0.361996

>  <SCORE.INTRA.VDW.0>
-0.401036

>  <SCORE.INTRA.norm>
-0.0899306

>  <SCORE.RESTR>
0

>  <SCORE.RESTR.CAVITY>
0

>  <SCORE.RESTR.norm>
0

>  <SCORE.SYSTEM>
0

>  <SCORE.SYSTEM.CONST>
0

>  <SCORE.SYSTEM.DIHEDRAL>
0

>  <SCORE.SYSTEM.SOLV>
0

>  <SCORE.SYSTEM.norm>
0

>  <SCORE.heavy>
16

>  <SCORE.norm>
-0.317199

>  <RMSD>
0.968

$$$$
ligand
 OpenBabel11021811463D
libRbt.so/2013.1/901 2013/11/27
 16 16  0  0  0  0  0  0  0  0999 V2000
   51.5911   34.8706   53.7508 P   0  0  2  0  0  0  0  0  0  0  0  0
   51.6742   36.2489   54.2947 O   0  0  0  0  0  0  0  0  0  0  0  0
   52.7716   33.9762   54.3891 O   0  5  0  0  0  0  0  0  0  0  0  0
   51.7528   34.9343   52.1423 O   0  0  0  0  0  0  0  0  0  0  0  0
   46.3055   34.0741   55.7558 C   0  0  2  0  0  0  0  0  0  0  0  0
   46.2114   32.6577   55.4818 O   0  0  0  0  0  0  0  0  0  0  0  0
   45.1401   34.8518   55.0782 C   0  0  2  0  0  0  0  0  0  0  0  0
   43.8498   34.3261   55.5611 N   0  0  0  0  0  0  0  0  0  0  0  0
   45.2469   34.6694   53.5483 C   0  0  1  0  0  0  0  0  0  0  0  0
   44.1847   35.3838   52.8941 O   0  0  0  0  0  0  0  0  0  0  0  0
   46.6123   35.2358   53.1063 C   0  0  2  0  0  0  0  0  0  0  0  0
   46.7503   35.0757   51.6841 O   0  0  0  0  0  0  0  0  0  0  0  0
   47.7329   34.4369   53.8402 C   0  0  2  0  0  0  0  0  0  0  0  0
   47.5978   34.5749   55.2861 O   0  0  0  0  0  0  0  0  0  0  0  0
   49.1249   34.9657   53.4576 C   0  0  0  0  0  0  0  0  0  0  0  0
   50.1544   34.2354   54.1476 O   0  0  0  0  0  0  0  0  0  0  0  0
  1  2  1  1  0  0  0
  1  3  1  0  0  0  0
  1  4  2  0  0  0  0
  1 16  1  0  0  0  0
  5  6  1  6  0  0  0
  5  7  1  0  0  0  0
  5 14  1  0  0  0  0
  7  8  1  1  0  0  0
  7  9  1  0  0  0  0
  9 10  1  6  0  0  0
  9 11  1  0  0  0  0
 11 12  1  6  0  0  0
 11 13  1  0  0  0  0
 13 14  1  0  0  0  0
 13 15  1  6  0  0  0
 15 16  1  0  0  0  0
M  CHG  1   3  -1
M  END
>  <CHROM.1>
179.38623904,-177.86756598,66.43193101,48.26080698,34.67041802,53.98792039
-0.10961291,0.00689899,1.99434501

>  <Name>
ligand

>  <RI>
0

>  <Rbt.Current_Directory>
/home/itssahil/PROJECTS/Mol_Feturizer/New_Systems/rnas/3B4A

>  <Rbt.Executable>
rbdock ($Id: //depot/dev/client3/rdock/2013.1/src/exe/rbdock.cxx#4 $)

>  <Rbt.Library>
libRbt.so (2013.1, Build901 2013/11/27)

>  <Rbt.Parameter_File>
/export/apps/rDock/src/rDock_2013.1_src/data/scripts/dock_solv.prm

>  <Rbt.Receptor>
prm/pocket_docking_3.prm

>  <SCORE>
-5.8626

>  <SCORE.INTER>
-4.27033

>  <SCORE.INTER.CONST>
1

>  <SCORE.INTER.POLAR>
0

>  <SCORE.INTER.ROT>
3

>  <SCORE.INTER.SOLV>
12.2399

>  <SCORE.INTER.VDW>
-12.5269

>  <SCORE.INTER.norm>
-0.266895

>  <SCORE.INTRA>
-1.59227

>  <SCORE.INTRA.DIHEDRAL>
-1.96637

>  <SCORE.INTRA.DIHEDRAL.0>
2.05999

>  <SCORE.INTRA.POLAR>
0

>  <SCORE.INTRA.POLAR.0>
0

>  <SCORE.INTRA.REPUL>
0

>  <SCORE.INTRA.REPUL.0>
0

>  <SCORE.INTRA.SOLV>
-0.996872

>  <SCORE.INTRA.SOLV.lig_0>
-58.7001

>  <SCORE.INTRA.VDW>
-0.110651

>  <SCORE.INTRA.VDW.0>
-0.401036

>  <SCORE.INTRA.norm>
-0.099517

>  <SCORE.RESTR>
0

>  <SCORE.RESTR.CAVITY>
0

>  <SCORE.RESTR.norm>
0

>  <SCORE.SYSTEM>
0

>  <SCORE.SYSTEM.CONST>
0

>  <SCORE.SYSTEM.DIHEDRAL>
0

>  <SCORE.SYSTEM.SOLV>
0

>  <SCORE.SYSTEM.norm>
0

>  <SCORE.heavy>
16

>  <SCORE.norm>
-0.366412

>  <RMSD>
1.045

$$$$
ligand
 OpenBabel11021811463D
libRbt.so/2013.1/901 2013/11/27
 16 16  0  0  0  0  0  0  0  0999 V2000
   51.5791   34.8849   53.6825 P   0  0  2  0  0  0  0  0  0  0  0  0
   51.6287   36.2841   54.1748 O   0  0  0  0  0  0  0  0  0  0  0  0
   52.7627   34.0363   54.3755 O   0  5  0  0  0  0  0  0  0  0  0  0
   51.7694   34.8903   52.0760 O   0  0  0  0  0  0  0  0  0  0  0  0
   46.3306   34.0898   55.7448 C   0  0  2  0  0  0  0  0  0  0  0  0
   46.2148   32.6771   55.4600 O   0  0  0  0  0  0  0  0  0  0  0  0
   45.1604   34.8867   55.0987 C   0  0  2  0  0  0  0  0  0  0  0  0
   43.8745   34.3711   55.6035 N   0  0  0  0  0  0  0  0  0  0  0  0
   45.2334   34.7173   53.5653 C   0  0  1  0  0  0  0  0  0  0  0  0
   44.1661   35.4496   52.9398 O   0  0  0  0  0  0  0  0  0  0  0  0
   46.5956   35.2725   53.1001 C   0  0  2  0  0  0  0  0  0  0  0  0
   46.7024   35.1241   51.6740 O   0  0  0  0  0  0  0  0  0  0  0  0
   47.7221   34.4544   53.8033 C   0  0  2  0  0  0  0  0  0  0  0  0
   47.6185   34.5804   55.2528 O   0  0  0  0  0  0  0  0  0  0  0  0
   49.1117   34.9710   53.3965 C   0  0  0  0  0  0  0  0  0  0  0  0
   50.1464   34.2399   54.0778 O   0  0  0  0  0  0  0  0  0  0  0  0
  1  2  1  1  0  0  0
  1  3  1  0  0  0  0
  1  4  2  0  0  0  0
  1 16  1  0  0  0  0
  5  6  1  6  0  0  0
  5  7  1  0  0  0  0
  5 14  1  0  0  0  0
  7  8  1  1  0  0  0
  7  9  1  0  0  0  0
  9 10  1  6  0  0  0
  9 11  1  0  0  0  0
 11 12  1  6  0  0  0
 11 13  1  0  0  0  0
 13 14  1  0  0  0  0
 13 15  1  6  0  0  0
 15 16  1  0  0  0  0
M  CHG  1   3  -1
M  END
>  <CHROM.1>
178.28514322,-176.55295597,63.43371357,48.25461974,34.69524264,53.95928630
-0.11938910,-0.00306567,2.00142049

>  <Name>
ligand

>  <RI>
0

>  <Rbt.Current_Directory>
/home/itssahil/PROJECTS/Mol_Feturizer/New_Systems/rnas/3B4A

>  <Rbt.Executable>
rbdock ($Id: //depot/dev/client3/rdock/2013.1/src/exe/rbdock.cxx#4 $)

>  <Rbt.Library>
libRbt.so (2013.1, Build901 2013/11/27)

>  <Rbt.Parameter_File>
/export/apps/rDock/src/rDock_2013.1_src/data/scripts/dock_solv.prm

>  <Rbt.Receptor>
prm/pocket_docking_3.prm

>  <SCORE>
-5.79205

>  <SCORE.INTER>
-4.18798

>  <SCORE.INTER.CONST>
1

>  <SCORE.INTER.POLAR>
0

>  <SCORE.INTER.ROT>
3

>  <SCORE.INTER.SOLV>
12.0864

>  <SCORE.INTER.VDW>
-12.4208

>  <SCORE.INTER.norm>
-0.261749

>  <SCORE.INTRA>
-1.60407

>  <SCORE.INTRA.DIHEDRAL>
-1.96951

>  <SCORE.INTRA.DIHEDRAL.0>
2.05999

>  <SCORE.INTRA.POLAR>
0

>  <SCORE.INTRA.POLAR.0>
0

>  <SCORE.INTRA.REPUL>
0

>  <SCORE.INTRA.REPUL.0>
0

>  <SCORE.INTRA.SOLV>
-1.02175

>  <SCORE.INTRA.SOLV.lig_0>
-58.7001

>  <SCORE.INTRA.VDW>
-0.108439

>  <SCORE.INTRA.VDW.0>
-0.401036

>  <SCORE.INTRA.norm>
-0.100254

>  <SCORE.RESTR>
0

>  <SCORE.RESTR.CAVITY>
0

>  <SCORE.RESTR.norm>
0

>  <SCORE.SYSTEM>
0

>  <SCORE.SYSTEM.CONST>
0

>  <SCORE.SYSTEM.DIHEDRAL>
0

>  <SCORE.SYSTEM.SOLV>
0

>  <SCORE.SYSTEM.norm>
0

>  <SCORE.heavy>
16

>  <SCORE.norm>
-0.362003

>  <RMSD>
1.051

$$$$
ligand
 OpenBabel11021811463D
libRbt.so/2013.1/901 2013/11/27
 16 16  0  0  0  0  0  0  0  0999 V2000
   51.6371   34.9658   53.7198 P   0  0  2  0  0  0  0  0  0  0  0  0
   51.7049   36.3101   54.3448 O   0  0  0  0  0  0  0  0  0  0  0  0
   52.7947   34.0318   54.3433 O   0  5  0  0  0  0  0  0  0  0  0  0
   51.8511   35.1215   52.1238 O   0  0  0  0  0  0  0  0  0  0  0  0
   46.3639   34.0787   55.6445 C   0  0  2  0  0  0  0  0  0  0  0  0
   46.2080   32.7080   55.2121 O   0  0  0  0  0  0  0  0  0  0  0  0
   45.2194   34.9732   55.0860 C   0  0  2  0  0  0  0  0  0  0  0  0
   43.9174   34.4450   55.5334 N   0  0  0  0  0  0  0  0  0  0  0  0
   45.2923   34.9646   53.5432 C   0  0  1  0  0  0  0  0  0  0  0  0
   44.2487   35.7896   52.9985 O   0  0  0  0  0  0  0  0  0  0  0  0
   46.6716   35.5257   53.1394 C   0  0  2  0  0  0  0  0  0  0  0  0
   46.7785   35.5256   51.7056 O   0  0  0  0  0  0  0  0  0  0  0  0
   47.7715   34.6054   53.7524 C   0  0  2  0  0  0  0  0  0  0  0  0
   47.6671   34.5807   55.2072 O   0  0  0  0  0  0  0  0  0  0  0  0
   49.1769   35.1213   53.4026 C   0  0  0  0  0  0  0  0  0  0  0  0
   50.1872   34.3140   54.0326 O   0  0  0  0  0  0  0  0  0  0  0  0
  1  2  1  1  0  0  0
  1  3  1  0  0  0  0
  1  4  2  0  0  0  0
  1 16  1  0  0  0  0
  5  6  1  6  0  0  0
  5  7  1  0  0  0  0
  5 14  1  0  0  0  0
  7  8  1  6  0  0  0
  7  9  1  0  0  0  0
  9 10  1  6  0  0  0
  9 11  1  0  0  0  0
 11 12  1  6  0  0  0
 11 13  1  0  0  0  0
 13 14  1  0  0  0  0
 13 15  1  1  0  0  0
 15 16  1  0  0  0  0
M  CHG  1   3  -1
M  END
>  <CHROM.1>
176.72729316,-175.89128541,63.87568377,48.30939108,34.82495116,53.94875489
-0.10100834,-0.02027284,2.10641166

>  <Name>
ligand

>  <RI>
0

>  <Rbt.Current_Directory>
/home/itssahil/PROJECTS/Mol_Feturizer/New_Systems/rnas/3B4A

>  <Rbt.Executable>
rbdock ($Id: //depot/dev/client3/rdock/2013.1/src/exe/rbdock.cxx#4 $)

>  <Rbt.Library>
libRbt.so (2013.1, Build901 2013/11/27)

>  <Rbt.Parameter_File>
/export/apps/rDock/src/rDock_2013.1_src/data/scripts/dock_solv.prm

>  <Rbt.Receptor>
prm/pocket_docking_4.prm

>  <SCORE>
-5.85361

>  <SCORE.INTER>
-4.28805

>  <SCORE.INTER.CONST>
1

>  <SCORE.INTER.POLAR>
0

>  <SCORE.INTER.ROT>
3

>  <SCORE.INTER.SOLV>
11.4569

>  <SCORE.INTER.VDW>
-12.2777

>  <SCORE.INTER.norm>
-0.268003

>  <SCORE.INTRA>
-1.56556

>  <SCORE.INTRA.DIHEDRAL>
-1.91216

>  <SCORE.INTRA.DIHEDRAL.0>
2.05999

>  <SCORE.INTRA.POLAR>
0

>  <SCORE.INTRA.POLAR.0>
0

>  <SCORE.INTRA.REPUL>
0

>  <SCORE.INTRA.REPUL.0>
0

>  <SCORE.INTRA.SOLV>
-1.01131

>  <SCORE.INTRA.SOLV.lig_0>
-58.7001

>  <SCORE.INTRA.VDW>
-0.103823

>  <SCORE.INTRA.VDW.0>
-0.401036

>  <SCORE.INTRA.norm>
-0.0978473

>  <SCORE.RESTR>
0

>  <SCORE.RESTR.CAVITY>
0

>  <SCORE.RESTR.norm>
0

>  <SCORE.SYSTEM>
0

>  <SCORE.SYSTEM.CONST>
0

>  <SCORE.SYSTEM.DIHEDRAL>
0

>  <SCORE.SYSTEM.SOLV>
0

>  <SCORE.SYSTEM.norm>
0

>  <SCORE.heavy>
16

>  <SCORE.norm>
-0.365851

>  <RMSD>
1.105

$$$$
ligand
 OpenBabel11021811463D
libRbt.so/2013.1/901 2013/11/27
 16 16  0  0  0  0  0  0  0  0999 V2000
   51.6106   34.8939   53.7125 P   0  0  2  0  0  0  0  0  0  0  0  0
   51.7004   36.2570   54.2925 O   0  0  0  0  0  0  0  0  0  0  0  0
   52.7593   33.9652   54.3597 O   0  5  0  0  0  0  0  0  0  0  0  0
   51.8166   34.9941   52.1110 O   0  0  0  0  0  0  0  0  0  0  0  0
   46.3320   34.0942   55.6757 C   0  0  2  0  0  0  0  0  0  0  0  0
   46.1624   32.7192   55.2625 O   0  0  0  0  0  0  0  0  0  0  0  0
   45.1948   34.9917   55.1071 C   0  0  2  0  0  0  0  0  0  0  0  0
   43.8889   34.4819   55.5643 N   0  0  0  0  0  0  0  0  0  0  0  0
   45.2645   34.9611   53.5645 C   0  0  1  0  0  0  0  0  0  0  0  0
   44.2276   35.7884   53.0104 O   0  0  0  0  0  0  0  0  0  0  0  0
   46.6481   35.5037   53.1504 C   0  0  2  0  0  0  0  0  0  0  0  0
   46.7521   35.4828   51.7165 O   0  0  0  0  0  0  0  0  0  0  0  0
   47.7406   34.5815   53.7739 C   0  0  2  0  0  0  0  0  0  0  0  0
   47.6389   34.5779   55.2291 O   0  0  0  0  0  0  0  0  0  0  0  0
   49.1501   35.0794   53.4144 C   0  0  0  0  0  0  0  0  0  0  0  0
   50.1540   34.2727   54.0552 O   0  0  0  0  0  0  0  0  0  0  0  0
  1  2  1  1  0  0  0
  1  3  1  0  0  0  0
  1  4  2  0  0  0  0
  1 16  1  0  0  0  0
  5  6  1  6  0  0  0
  5  7  1  0  0  0  0
  5 14  1  0  0  0  0
  7  8  1  6  0  0  0
  7  9  1  0  0  0  0
  9 10  1  6  0  0  0
  9 11  1  0  0  0  0
 11 12  1  6  0  0  0
 11 13  1  0  0  0  0
 13 14  1  0  0  0  0
 13 15  1  1  0  0  0
 15 16  1  0  0  0  0
M  CHG  1   3  -1
M  END
>  <CHROM.1>
176.63319723,-176.71075759,63.38620138,48.28137020,34.79448557,53.96009670
-0.09943540,-0.03216818,2.09250790

>  <Name>
ligand

>  <RI>
0

>  <Rbt.Current_Directory>
/home/itssahil/PROJECTS/Mol_Feturizer/New_Systems/rnas/3B4A

>  <Rbt.Executable>
rbdock ($Id: //depot/dev/client3/rdock/2013.1/src/exe/rbdock.cxx#4 $)

>  <Rbt.Library>
libRbt.so (2013.1, Build901 2013/11/27)

>  <Rbt.Parameter_File>
/export/apps/rDock/src/rDock_2013.1_src/data/scripts/dock_solv.prm

>  <Rbt.Receptor>
prm/pocket_docking_3.prm

>  <SCORE>
-5.87603

>  <SCORE.INTER>
-4.2936

>  <SCORE.INTER.CONST>
1

>  <SCORE.INTER.POLAR>
0

>  <SCORE.INTER.ROT>
3

>  <SCORE.INTER.SOLV>
11.5694

>  <SCORE.INTER.VDW>
-12.3189

>  <SCORE.INTER.norm>
-0.26835

>  <SCORE.INTRA>
-1.58243

>  <SCORE.INTRA.DIHEDRAL>
-1.94549

>  <SCORE.INTRA.DIHEDRAL.0>
2.05999

>  <SCORE.INTRA.POLAR>
0

>  <SCORE.INTRA.POLAR.0>
0

>  <SCORE.INTRA.REPUL>
0

>  <SCORE.INTRA.REPUL.0>
0

>  <SCORE.INTRA.SOLV>
-1.01719

>  <SCORE.INTRA.SOLV.lig_0>
-58.7001

>  <SCORE.INTRA.VDW>
-0.10109

>  <SCORE.INTRA.VDW.0>
-0.401036

>  <SCORE.INTRA.norm>
-0.0989019

>  <SCORE.RESTR>
0

>  <SCORE.RESTR.CAVITY>
0

>  <SCORE.RESTR.norm>
0

>  <SCORE.SYSTEM>
0

>  <SCORE.SYSTEM.CONST>
0

>  <SCORE.SYSTEM.DIHEDRAL>
0

>  <SCORE.SYSTEM.SOLV>
0

>  <SCORE.SYSTEM.norm>
0

>  <SCORE.heavy>
16

>  <SCORE.norm>
-0.367252

>  <RMSD>
1.114

$$$$
ligand
 OpenBabel11021811463D
libRbt.so/2013.1/901 2013/11/27
 16 16  0  0  0  0  0  0  0  0999 V2000
   51.5130   34.9296   53.6618 P   0  0  2  0  0  0  0  0  0  0  0  0
   51.6207   36.3204   54.1684 O   0  0  0  0  0  0  0  0  0  0  0  0
   52.6963   34.0391   54.3006 O   0  5  0  0  0  0  0  0  0  0  0  0
   51.6445   34.9503   52.0495 O   0  0  0  0  0  0  0  0  0  0  0  0
   46.2861   34.0861   55.7727 C   0  0  2  0  0  0  0  0  0  0  0  0
   46.1521   32.6906   55.4193 O   0  0  0  0  0  0  0  0  0  0  0  0
   45.1146   34.9251   55.1847 C   0  0  2  0  0  0  0  0  0  0  0  0
   43.8311   34.3966   55.6821 N   0  0  0  0  0  0  0  0  0  0  0  0
   45.1639   34.8322   53.6438 C   0  0  1  0  0  0  0  0  0  0  0  0
   44.0951   35.6047   53.0716 O   0  0  0  0  0  0  0  0  0  0  0  0
   46.5248   35.3974   53.1868 C   0  0  2  0  0  0  0  0  0  0  0  0
   46.6096   35.3197   51.7536 O   0  0  0  0  0  0  0  0  0  0  0  0
   47.6530   34.5347   53.8314 C   0  0  2  0  0  0  0  0  0  0  0  0
   47.5716   34.5889   55.2868 O   0  0  0  0  0  0  0  0  0  0  0  0
   49.0418   35.0583   53.4304 C   0  0  0  0  0  0  0  0  0  0  0  0
   50.0778   34.3202   54.1020 O   0  0  0  0  0  0  0  0  0  0  0  0
  1  2  1  1  0  0  0
  1  3  1  0  0  0  0
  1  4  2  0  0  0  0
  1 16  1  0  0  0  0
  5  6  1  6  0  0  0
  5  7  1  0  0  0  0
  5 14  1  0  0  0  0
  7  8  1  1  0  0  0
  7  9  1  0  0  0  0
  9 10  1  6  0  0  0
  9 11  1  0  0  0  0
 11 12  1  6  0  0  0
 11 13  1  0  0  0  0
 13 14  1  0  0  0  0
 13 15  1  1  0  0  0
 15 16  1  0  0  0  0
M  CHG  1   3  -1
M  END
>  <CHROM.1>
175.89803461,-179.06986788,65.47167696,48.19036829,34.76035011,53.98653316
-0.12979421,-0.01982219,2.05059833

>  <Name>
ligand

>  <RI>
0

>  <Rbt.Current_Directory>
/home/itssahil/PROJECTS/Mol_Feturizer/New_Systems/rnas/3B4A

>  <Rbt.Executable>
rbdock ($Id: //depot/dev/client3/rdock/2013.1/src/exe/rbdock.cxx#4 $)

>  <Rbt.Library>
libRbt.so (2013.1, Build901 2013/11/27)

>  <Rbt.Parameter_File>
/export/apps/rDock/src/rDock_2013.1_src/data/scripts/dock_solv.prm

>  <Rbt.Receptor>
prm/pocket_docking_3.prm

>  <SCORE>
-5.77938

>  <SCORE.INTER>
-4.21285

>  <SCORE.INTER.CONST>
1

>  <SCORE.INTER.POLAR>
0

>  <SCORE.INTER.ROT>
3

>  <SCORE.INTER.SOLV>
12.3396

>  <SCORE.INTER.VDW>
-12.5218

>  <SCORE.INTER.norm>
-0.263303

>  <SCORE.INTRA>
-1.56654

>  <SCORE.INTRA.DIHEDRAL>
-1.94481

>  <SCORE.INTRA.DIHEDRAL.0>
2.05999

>  <SCORE.INTRA.POLAR>
0

>  <SCORE.INTRA.POLAR.0>
0

>  <SCORE.INTRA.REPUL>
0

>  <SCORE.INTRA.REPUL.0>
0

>  <SCORE.INTRA.SOLV>
-0.996231

>  <SCORE.INTRA.SOLV.lig_0>
-58.7001

>  <SCORE.INTRA.VDW>
-0.0960144

>  <SCORE.INTRA.VDW.0>
-0.401036

>  <SCORE.INTRA.norm>
-0.0979086

>  <SCORE.RESTR>
0

>  <SCORE.RESTR.CAVITY>
0

>  <SCORE.RESTR.norm>
0

>  <SCORE.SYSTEM>
0

>  <SCORE.SYSTEM.CONST>
0

>  <SCORE.SYSTEM.DIHEDRAL>
0

>  <SCORE.SYSTEM.SOLV>
0

>  <SCORE.SYSTEM.norm>
0

>  <SCORE.heavy>
16

>  <SCORE.norm>
-0.361212

>  <RMSD>
1.118

$$$$
ligand
 OpenBabel11021811463D
libRbt.so/2013.1/901 2013/11/27
 16 16  0  0  0  0  0  0  0  0999 V2000
   51.9653   35.1870   53.2855 P   0  0  2  0  0  0  0  0  0  0  0  0
   51.8235   35.0543   51.8142 O   0  0  0  0  0  0  0  0  0  0  0  0
   52.5541   36.6479   53.6322 O   0  5  0  0  0  0  0  0  0  0  0  0
   52.9770   34.0419   53.8172 O   0  0  0  0  0  0  0  0  0  0  0  0
   47.0069   33.5460   55.8953 C   0  0  2  0  0  0  0  0  0  0  0  0
   46.5018   32.2419   55.5286 O   0  0  0  0  0  0  0  0  0  0  0  0
   46.1402   34.6762   55.2680 C   0  0  2  0  0  0  0  0  0  0  0  0
   44.7420   34.5302   55.7129 N   0  0  0  0  0  0  0  0  0  0  0  0
   46.2206   34.5657   53.7296 C   0  0  1  0  0  0  0  0  0  0  0  0
   45.4331   35.6034   53.1217 O   0  0  0  0  0  0  0  0  0  0  0  0
   47.7017   34.7257   53.3283 C   0  0  2  0  0  0  0  0  0  0  0  0
   47.8163   34.6204   51.8990 O   0  0  0  0  0  0  0  0  0  0  0  0
   48.5182   33.5851   54.0103 C   0  0  2  0  0  0  0  0  0  0  0  0
   48.3994   33.6670   55.4619 O   0  0  0  0  0  0  0  0  0  0  0  0
   50.0123   33.6976   53.6658 C   0  0  0  0  0  0  0  0  0  0  0  0
   50.5077   35.0132   53.9711 O   0  0  0  0  0  0  0  0  0  0  0  0
  1  2  1  6  0  0  0
  1  3  1  0  0  0  0
  1  4  2  0  0  0  0
  1 16  1  0  0  0  0
  5  6  1  6  0  0  0
  5  7  1  0  0  0  0
  5 14  1  0  0  0  0
  7  8  1  1  0  0  0
  7  9  1  0  0  0  0
  9 10  1  6  0  0  0
  9 11  1  0  0  0  0
 11 12  1  6  0  0  0
 11 13  1  0  0  0  0
 13 14  1  0  0  0  0
 13 15  1  1  0  0  0
 15 16  1  0  0  0  0
M  CHG  1   3  -1
M  END
>  <CHROM.1>
53.28773259,-167.13031274,61.48708476,48.95267877,34.52555352,53.92922208
0.29334418,0.01648284,-0.94454528

>  <Name>
ligand

>  <RI>
0

>  <Rbt.Current_Directory>
/home/itssahil/PROJECTS/Mol_Feturizer/New_Systems/rnas/3B4A

>  <Rbt.Executable>
rbdock ($Id: //depot/dev/client3/rdock/2013.1/src/exe/rbdock.cxx#4 $)

>  <Rbt.Library>
libRbt.so (2013.1, Build901 2013/11/27)

>  <Rbt.Parameter_File>
/export/apps/rDock/src/rDock_2013.1_src/data/scripts/dock_solv.prm

>  <Rbt.Receptor>
prm/pocket_docking_2.prm

>  <SCORE>
-4.09206

>  <SCORE.INTER>
-2.90345

>  <SCORE.INTER.CONST>
1

>  <SCORE.INTER.POLAR>
0

>  <SCORE.INTER.ROT>
3

>  <SCORE.INTER.SOLV>
11.6911

>  <SCORE.INTER.VDW>
-11.4327

>  <SCORE.INTER.norm>
-0.181466

>  <SCORE.INTRA>
-1.18867

>  <SCORE.INTRA.DIHEDRAL>
-1.10769

>  <SCORE.INTRA.DIHEDRAL.0>
2.05999

>  <SCORE.INTRA.POLAR>
0

>  <SCORE.INTRA.POLAR.0>
0

>  <SCORE.INTRA.REPUL>
0

>  <SCORE.INTRA.REPUL.0>
0

>  <SCORE.INTRA.SOLV>
-0.794092

>  <SCORE.INTRA.SOLV.lig_0>
-58.7001

>  <SCORE.INTRA.VDW>
-0.237781

>  <SCORE.INTRA.VDW.0>
-0.401036

>  <SCORE.INTRA.norm>
-0.0742918

>  <SCORE.RESTR>
6.46939e-05

>  <SCORE.RESTR.CAVITY>
6.46939e-05

>  <SCORE.RESTR.norm>
4.04337e-06

>  <SCORE.SYSTEM>
0

>  <SCORE.SYSTEM.CONST>
0

>  <SCORE.SYSTEM.DIHEDRAL>
0

>  <SCORE.SYSTEM.SOLV>
0

>  <SCORE.SYSTEM.norm>
0

>  <SCORE.heavy>
16

>  <SCORE.norm>
-0.255754

>  <RMSD>
1.120

$$$$
ligand
 OpenBabel11021811463D
libRbt.so/2013.1/901 2013/11/27
 16 16  0  0  0  0  0  0  0  0999 V2000
   51.9798   35.1461   53.4557 P   0  0  2  0  0  0  0  0  0  0  0  0
   51.9478   34.9188   51.9894 O   0  0  0  0  0  0  0  0  0  0  0  0
   52.5514   36.6250   53.7510 O   0  5  0  0  0  0  0  0  0  0  0  0
   52.9405   34.0355   54.1346 O   0  0  0  0  0  0  0  0  0  0  0  0
   46.8932   33.6200   55.8985 C   0  0  2  0  0  0  0  0  0  0  0  0
   46.4136   32.2949   55.5755 O   0  0  0  0  0  0  0  0  0  0  0  0
   46.0550   34.7096   55.1688 C   0  0  2  0  0  0  0  0  0  0  0  0
   44.6363   34.5768   55.5482 N   0  0  0  0  0  0  0  0  0  0  0  0
   46.2154   34.5193   53.6445 C   0  0  1  0  0  0  0  0  0  0  0  0
   45.4558   35.5181   52.9432 O   0  0  0  0  0  0  0  0  0  0  0  0
   47.7146   34.6688   53.3122 C   0  0  2  0  0  0  0  0  0  0  0  0
   47.9035   34.4896   51.8982 O   0  0  0  0  0  0  0  0  0  0  0  0
   48.4998   33.5713   54.0944 C   0  0  2  0  0  0  0  0  0  0  0  0
   48.3056   33.7282   55.5316 O   0  0  0  0  0  0  0  0  0  0  0  0
   50.0092   33.6764   53.8218 C   0  0  0  0  0  0  0  0  0  0  0  0
   50.4737   35.0204   54.0393 O   0  0  0  0  0  0  0  0  0  0  0  0
  1  2  1  6  0  0  0
  1  3  1  0  0  0  0
  1  4  2  0  0  0  0
  1 16  1  0  0  0  0
  5  6  1  6  0  0  0
  5  7  1  0  0  0  0
  5 14  1  0  0  0  0
  7  8  1  6  0  0  0
  7  9  1  0  0  0  0
  9 10  1  6  0  0  0
  9 11  1  0  0  0  0
 11 12  1  6  0  0  0
 11 13  1  0  0  0  0
 13 14  1  0  0  0  0
 13 15  1  1  0  0  0
 15 16  1  0  0  0  0
M  CHG  1   3  -1
M  END
>  <CHROM.1>
51.36006971,-168.62551363,63.33084620,48.93627375,34.50498115,53.98297296
0.25385688,-0.01525907,-0.99763745

>  <Name>
ligand

>  <RI>
0

>  <Rbt.Current_Directory>
/home/itssahil/PROJECTS/Mol_Feturizer/New_Systems/rnas/3B4A

>  <Rbt.Executable>
rbdock ($Id: //depot/dev/client3/rdock/2013.1/src/exe/rbdock.cxx#4 $)

>  <Rbt.Library>
libRbt.so (2013.1, Build901 2013/11/27)

>  <Rbt.Parameter_File>
/export/apps/rDock/src/rDock_2013.1_src/data/scripts/dock_solv.prm

>  <Rbt.Receptor>
prm/pocket_docking_2.prm

>  <SCORE>
-4.18286

>  <SCORE.INTER>
-2.99644

>  <SCORE.INTER.CONST>
1

>  <SCORE.INTER.POLAR>
0

>  <SCORE.INTER.ROT>
3

>  <SCORE.INTER.SOLV>
11.72

>  <SCORE.INTER.VDW>
-11.5043

>  <SCORE.INTER.norm>
-0.187278

>  <SCORE.INTRA>
-1.18642

>  <SCORE.INTRA.DIHEDRAL>
-1.15655

>  <SCORE.INTRA.DIHEDRAL.0>
2.05999

>  <SCORE.INTRA.POLAR>
0

>  <SCORE.INTRA.POLAR.0>
0

>  <SCORE.INTRA.REPUL>
0

>  <SCORE.INTRA.REPUL.0>
0

>  <SCORE.INTRA.SOLV>
-0.776857

>  <SCORE.INTRA.SOLV.lig_0>
-58.7001

>  <SCORE.INTRA.VDW>
-0.219714

>  <SCORE.INTRA.VDW.0>
-0.401036

>  <SCORE.INTRA.norm>
-0.0741512

>  <SCORE.RESTR>
0

>  <SCORE.RESTR.CAVITY>
0

>  <SCORE.RESTR.norm>
0

>  <SCORE.SYSTEM>
0

>  <SCORE.SYSTEM.CONST>
0

>  <SCORE.SYSTEM.DIHEDRAL>
0

>  <SCORE.SYSTEM.SOLV>
0

>  <SCORE.SYSTEM.norm>
0

>  <SCORE.heavy>
16

>  <SCORE.norm>
-0.261429

>  <RMSD>
1.125

$$$$
ligand
 OpenBabel11021811463D
libRbt.so/2013.1/901 2013/11/27
 16 16  0  0  0  0  0  0  0  0999 V2000
   51.6039   34.9577   53.6582 P   0  0  2  0  0  0  0  0  0  0  0  0
   51.6845   36.2974   54.2915 O   0  0  0  0  0  0  0  0  0  0  0  0
   52.7660   34.0154   54.2603 O   0  5  0  0  0  0  0  0  0  0  0  0
   51.7978   35.1236   52.0607 O   0  0  0  0  0  0  0  0  0  0  0  0
   46.3531   34.0952   55.6558 C   0  0  2  0  0  0  0  0  0  0  0  0
   46.1865   32.7246   55.2267 O   0  0  0  0  0  0  0  0  0  0  0  0
   45.2046   34.9934   55.1115 C   0  0  2  0  0  0  0  0  0  0  0  0
   43.9068   34.4702   55.5764 N   0  0  0  0  0  0  0  0  0  0  0  0
   45.2572   34.9831   53.5679 C   0  0  1  0  0  0  0  0  0  0  0  0
   44.2096   35.8115   53.0362 O   0  0  0  0  0  0  0  0  0  0  0  0
   46.6331   35.5389   53.1455 C   0  0  2  0  0  0  0  0  0  0  0  0
   46.7212   35.5371   51.7105 O   0  0  0  0  0  0  0  0  0  0  0  0
   47.7377   34.6150   53.7449 C   0  0  2  0  0  0  0  0  0  0  0  0
   47.6522   34.5920   55.2009 O   0  0  0  0  0  0  0  0  0  0  0  0
   49.1402   35.1255   53.3762 C   0  0  0  0  0  0  0  0  0  0  0  0
   50.1558   34.3088   53.9853 O   0  0  0  0  0  0  0  0  0  0  0  0
  1  2  1  1  0  0  0
  1  3  1  0  0  0  0
  1  4  2  0  0  0  0
  1 16  1  0  0  0  0
  5  6  1  6  0  0  0
  5  7  1  0  0  0  0
  5 14  1  0  0  0  0
  7  8  1  6  0  0  0
  7  9  1  0  0  0  0
  9 10  1  6  0  0  0
  9 11  1  0  0  0  0
 11 12  1  6  0  0  0
 11 13  1  0  0  0  0
 13 14  1  0  0  0  0
 13 15  1  1  0  0  0
 15 16  1  0  0  0  0
M  CHG  1   3  -1
M  END
>  <CHROM.1>
177.17084434,-175.68841529,63.76058532,48.27891072,34.83147185,53.93276732
-0.11058608,-0.03085637,2.10555342

>  <Name>
ligand

>  <RI>
0

>  <Rbt.Current_Directory>
/home/itssahil/PROJECTS/Mol_Feturizer/New_Systems/rnas/3B4A

>  <Rbt.Executable>
rbdock ($Id: //depot/dev/client3/rdock/2013.1/src/exe/rbdock.cxx#4 $)

>  <Rbt.Library>
libRbt.so (2013.1, Build901 2013/11/27)

>  <Rbt.Parameter_File>
/export/apps/rDock/src/rDock_2013.1_src/data/scripts/dock_solv.prm

>  <Rbt.Receptor>
prm/pocket_docking_4.prm

>  <SCORE>
-5.94807

>  <SCORE.INTER>
-4.37798

>  <SCORE.INTER.CONST>
1

>  <SCORE.INTER.POLAR>
0

>  <SCORE.INTER.ROT>
3

>  <SCORE.INTER.SOLV>
11.4034

>  <SCORE.INTER.VDW>
-12.3198

>  <SCORE.INTER.norm>
-0.273624

>  <SCORE.INTRA>
-1.57009

>  <SCORE.INTRA.DIHEDRAL>
-1.91485

>  <SCORE.INTRA.DIHEDRAL.0>
2.05999

>  <SCORE.INTRA.POLAR>
0

>  <SCORE.INTRA.POLAR.0>
0

>  <SCORE.INTRA.REPUL>
0

>  <SCORE.INTRA.REPUL.0>
0

>  <SCORE.INTRA.SOLV>
-1.01352

>  <SCORE.INTRA.SOLV.lig_0>
-58.7001

>  <SCORE.INTRA.VDW>
-0.105904

>  <SCORE.INTRA.VDW.0>
-0.401036

>  <SCORE.INTRA.norm>
-0.0981306

>  <SCORE.RESTR>
0

>  <SCORE.RESTR.CAVITY>
0

>  <SCORE.RESTR.norm>
0

>  <SCORE.SYSTEM>
0

>  <SCORE.SYSTEM.CONST>
0

>  <SCORE.SYSTEM.DIHEDRAL>
0

>  <SCORE.SYSTEM.SOLV>
0

>  <SCORE.SYSTEM.norm>
0

>  <SCORE.heavy>
16

>  <SCORE.norm>
-0.371755

>  <RMSD>
1.125

$$$$
ligand
 OpenBabel11021811463D
libRbt.so/2013.1/901 2013/11/27
 16 16  0  0  0  0  0  0  0  0999 V2000
   51.5909   34.9527   53.6779 P   0  0  2  0  0  0  0  0  0  0  0  0
   51.6786   36.3006   54.2925 O   0  0  0  0  0  0  0  0  0  0  0  0
   52.7505   34.0138   54.2904 O   0  5  0  0  0  0  0  0  0  0  0  0
   51.7821   35.0958   52.0778 O   0  0  0  0  0  0  0  0  0  0  0  0
   46.3321   34.1035   55.6653 C   0  0  2  0  0  0  0  0  0  0  0  0
   46.1668   32.7308   55.2428 O   0  0  0  0  0  0  0  0  0  0  0  0
   45.1858   34.9991   55.1121 C   0  0  2  0  0  0  0  0  0  0  0  0
   43.8861   34.4787   55.5749 N   0  0  0  0  0  0  0  0  0  0  0  0
   45.2442   34.9808   53.5688 C   0  0  1  0  0  0  0  0  0  0  0  0
   44.1988   35.8066   53.0288 O   0  0  0  0  0  0  0  0  0  0  0  0
   46.6218   35.5340   53.1486 C   0  0  2  0  0  0  0  0  0  0  0  0
   46.7153   35.5247   51.7139 O   0  0  0  0  0  0  0  0  0  0  0  0
   47.7239   34.6131   53.7569 C   0  0  2  0  0  0  0  0  0  0  0  0
   47.6330   34.5977   55.2128 O   0  0  0  0  0  0  0  0  0  0  0  0
   49.1279   35.1213   53.3909 C   0  0  0  0  0  0  0  0  0  0  0  0
   50.1409   34.3144   54.0171 O   0  0  0  0  0  0  0  0  0  0  0  0
  1  2  1  1  0  0  0
  1  3  1  0  0  0  0
  1  4  2  0  0  0  0
  1 16  1  0  0  0  0
  5  6  1  6  0  0  0
  5  7  1  0  0  0  0
  5 14  1  0  0  0  0
  7  8  1  6  0  0  0
  7  9  1  0  0  0  0
  9 10  1  6  0  0  0
  9 11  1  0  0  0  0
 11 12  1  6  0  0  0
 11 13  1  0  0  0  0
 13 14  1  0  0  0  0
 13 15  1  1  0  0  0
 15 16  1  0  0  0  0
M  CHG  1   3  -1
M  END
>  <CHROM.1>
176.68840538,-176.28384307,64.17505996,48.26462256,34.82970893,53.94387967
-0.10781901,-0.02979922,2.10028633

>  <Name>
ligand

>  <RI>
0

>  <Rbt.Current_Directory>
/home/itssahil/PROJECTS/Mol_Feturizer/New_Systems/rnas/3B4A

>  <Rbt.Executable>
rbdock ($Id: //depot/dev/client3/rdock/2013.1/src/exe/rbdock.cxx#4 $)

>  <Rbt.Library>
libRbt.so (2013.1, Build901 2013/11/27)

>  <Rbt.Parameter_File>
/export/apps/rDock/src/rDock_2013.1_src/data/scripts/dock_solv.prm

>  <Rbt.Receptor>
prm/pocket_docking_3.prm

>  <SCORE>
-5.93572

>  <SCORE.INTER>
-4.3667

>  <SCORE.INTER.CONST>
1

>  <SCORE.INTER.POLAR>
0

>  <SCORE.INTER.ROT>
3

>  <SCORE.INTER.SOLV>
11.5237

>  <SCORE.INTER.VDW>
-12.3524

>  <SCORE.INTER.norm>
-0.272919

>  <SCORE.INTRA>
-1.56902

>  <SCORE.INTRA.DIHEDRAL>
-1.92236

>  <SCORE.INTRA.DIHEDRAL.0>
2.05999

>  <SCORE.INTRA.POLAR>
0

>  <SCORE.INTRA.POLAR.0>
0

>  <SCORE.INTRA.REPUL>
0

>  <SCORE.INTRA.REPUL.0>
0

>  <SCORE.INTRA.SOLV>
-1.00878

>  <SCORE.INTRA.SOLV.lig_0>
-58.7001

>  <SCORE.INTRA.VDW>
-0.103447

>  <SCORE.INTRA.VDW.0>
-0.401036

>  <SCORE.INTRA.norm>
-0.0980636

>  <SCORE.RESTR>
0

>  <SCORE.RESTR.CAVITY>
0

>  <SCORE.RESTR.norm>
0

>  <SCORE.SYSTEM>
0

>  <SCORE.SYSTEM.CONST>
0

>  <SCORE.SYSTEM.DIHEDRAL>
0

>  <SCORE.SYSTEM.SOLV>
0

>  <SCORE.SYSTEM.norm>
0

>  <SCORE.heavy>
16

>  <SCORE.norm>
-0.370982

>  <RMSD>
1.131

$$$$
ligand
 OpenBabel11021811463D
libRbt.so/2013.1/901 2013/11/27
 16 16  0  0  0  0  0  0  0  0999 V2000
   51.9793   35.0799   53.5036 P   0  0  2  0  0  0  0  0  0  0  0  0
   52.0605   34.7974   52.0489 O   0  0  0  0  0  0  0  0  0  0  0  0
   52.5600   36.5569   53.7905 O   0  5  0  0  0  0  0  0  0  0  0  0
   52.8555   33.9765   54.2986 O   0  0  0  0  0  0  0  0  0  0  0  0
   46.9375   33.6280   55.9428 C   0  0  2  0  0  0  0  0  0  0  0  0
   46.4387   32.3043   55.6443 O   0  0  0  0  0  0  0  0  0  0  0  0
   46.0602   34.7204   55.2652 C   0  0  2  0  0  0  0  0  0  0  0  0
   44.6654   34.5881   55.7248 N   0  0  0  0  0  0  0  0  0  0  0  0
   46.1329   34.5340   53.7337 C   0  0  1  0  0  0  0  0  0  0  0  0
   45.3355   35.5354   53.0796 O   0  0  0  0  0  0  0  0  0  0  0  0
   47.6107   34.6828   53.3164 C   0  0  2  0  0  0  0  0  0  0  0  0
   47.7181   34.5072   51.8934 O   0  0  0  0  0  0  0  0  0  0  0  0
   48.4382   33.5825   54.0495 C   0  0  2  0  0  0  0  0  0  0  0  0
   48.3268   33.7358   55.4958 O   0  0  0  0  0  0  0  0  0  0  0  0
   49.9296   33.6868   53.6912 C   0  0  0  0  0  0  0  0  0  0  0  0
   50.4284   35.0077   53.9666 O   0  0  0  0  0  0  0  0  0  0  0  0
  1  2  1  6  0  0  0
  1  3  1  0  0  0  0
  1  4  2  0  0  0  0
  1 16  1  0  0  0  0
  5  6  1  6  0  0  0
  5  7  1  0  0  0  0
  5 14  1  0  0  0  0
  7  8  1  1  0  0  0
  7  9  1  0  0  0  0
  9 10  1  6  0  0  0
  9 11  1  0  0  0  0
 11 12  1  6  0  0  0
 11 13  1  0  0  0  0
 13 14  1  0  0  0  0
 13 15  1  6  0  0  0
 15 16  1  0  0  0  0
M  CHG  1   3  -1
M  END
>  <CHROM.1>
55.05997006,-177.25830253,60.14129937,48.90611136,34.48778964,54.02371453
-0.24409636,0.00679064,2.12079316

>  <Name>
ligand

>  <RI>
0

>  <Rbt.Current_Directory>
/home/itssahil/PROJECTS/Mol_Feturizer/New_Systems/rnas/3B4A

>  <Rbt.Executable>
rbdock ($Id: //depot/dev/client3/rdock/2013.1/src/exe/rbdock.cxx#4 $)

>  <Rbt.Library>
libRbt.so (2013.1, Build901 2013/11/27)

>  <Rbt.Parameter_File>
/export/apps/rDock/src/rDock_2013.1_src/data/scripts/dock_solv.prm

>  <Rbt.Receptor>
prm/pocket_docking_2.prm

>  <SCORE>
-4.51093

>  <SCORE.INTER>
-2.91269

>  <SCORE.INTER.CONST>
1

>  <SCORE.INTER.POLAR>
0

>  <SCORE.INTER.ROT>
3

>  <SCORE.INTER.SOLV>
12.5741

>  <SCORE.INTER.VDW>
-11.7332

>  <SCORE.INTER.norm>
-0.182043

>  <SCORE.INTRA>
-1.59825

>  <SCORE.INTRA.DIHEDRAL>
-1.93417

>  <SCORE.INTRA.DIHEDRAL.0>
2.05999

>  <SCORE.INTRA.POLAR>
0

>  <SCORE.INTRA.POLAR.0>
0

>  <SCORE.INTRA.REPUL>
0

>  <SCORE.INTRA.REPUL.0>
0

>  <SCORE.INTRA.SOLV>
-0.863082

>  <SCORE.INTRA.SOLV.lig_0>
-58.7001

>  <SCORE.INTRA.VDW>
-0.199619

>  <SCORE.INTRA.VDW.0>
-0.401036

>  <SCORE.INTRA.norm>
-0.0998904

>  <SCORE.RESTR>
0

>  <SCORE.RESTR.CAVITY>
0

>  <SCORE.RESTR.norm>
0

>  <SCORE.SYSTEM>
0

>  <SCORE.SYSTEM.CONST>
0

>  <SCORE.SYSTEM.DIHEDRAL>
0

>  <SCORE.SYSTEM.SOLV>
0

>  <SCORE.SYSTEM.norm>
0

>  <SCORE.heavy>
16

>  <SCORE.norm>
-0.281933

>  <RMSD>
1.132

$$$$
ligand
 OpenBabel11021811463D
libRbt.so/2013.1/901 2013/11/27
 16 16  0  0  0  0  0  0  0  0999 V2000
   51.5908   34.9174   53.6737 P   0  0  2  0  0  0  0  0  0  0  0  0
   51.6682   36.2650   54.2905 O   0  0  0  0  0  0  0  0  0  0  0  0
   52.7459   33.9809   54.2981 O   0  5  0  0  0  0  0  0  0  0  0  0
   51.7992   35.0625   52.0760 O   0  0  0  0  0  0  0  0  0  0  0  0
   46.3393   34.1061   55.6727 C   0  0  2  0  0  0  0  0  0  0  0  0
   46.1579   32.7341   55.2543 O   0  0  0  0  0  0  0  0  0  0  0  0
   45.1980   35.0114   55.1252 C   0  0  2  0  0  0  0  0  0  0  0  0
   43.8965   34.5046   55.5979 N   0  0  0  0  0  0  0  0  0  0  0  0
   45.2458   34.9892   53.5816 C   0  0  1  0  0  0  0  0  0  0  0  0
   44.2047   35.8239   53.0467 O   0  0  0  0  0  0  0  0  0  0  0  0
   46.6257   35.5282   53.1509 C   0  0  2  0  0  0  0  0  0  0  0  0
   46.7094   35.5149   51.7156 O   0  0  0  0  0  0  0  0  0  0  0  0
   47.7230   34.5981   53.7538 C   0  0  2  0  0  0  0  0  0  0  0  0
   47.6418   34.5867   55.2102 O   0  0  0  0  0  0  0  0  0  0  0  0
   49.1293   35.0919   53.3771 C   0  0  0  0  0  0  0  0  0  0  0  0
   50.1387   34.2752   53.9963 O   0  0  0  0  0  0  0  0  0  0  0  0
  1  2  1  1  0  0  0
  1  3  1  0  0  0  0
  1  4  2  0  0  0  0
  1 16  1  0  0  0  0
  5  6  1  6  0  0  0
  5  7  1  0  0  0  0
  5 14  1  0  0  0  0
  7  8  1  6  0  0  0
  7  9  1  0  0  0  0
  9 10  1  6  0  0  0
  9 11  1  0  0  0  0
 11 12  1  6  0  0  0
 11 13  1  0  0  0  0
 13 14  1  0  0  0  0
 13 15  1  1  0  0  0
 15 16  1  0  0  0  0
M  CHG  1   3  -1
M  END
>  <CHROM.1>
176.79542484,-175.03737541,63.28797465,48.26649397,34.81633268,53.94630004
-0.10644902,-0.03704396,2.09765408

>  <Name>
ligand

>  <RI>
0

>  <Rbt.Current_Directory>
/home/itssahil/PROJECTS/Mol_Feturizer/New_Systems/rnas/3B4A

>  <Rbt.Executable>
rbdock ($Id: //depot/dev/client3/rdock/2013.1/src/exe/rbdock.cxx#4 $)

>  <Rbt.Library>
libRbt.so (2013.1, Build901 2013/11/27)

>  <Rbt.Parameter_File>
/export/apps/rDock/src/rDock_2013.1_src/data/scripts/dock_solv.prm

>  <Rbt.Receptor>
prm/pocket_docking_5.prm

>  <SCORE>
-5.93453

>  <SCORE.INTER>
-4.38087

>  <SCORE.INTER.CONST>
1

>  <SCORE.INTER.POLAR>
0

>  <SCORE.INTER.ROT>
3

>  <SCORE.INTER.SOLV>
11.4961

>  <SCORE.INTER.VDW>
-12.3526

>  <SCORE.INTER.norm>
-0.273804

>  <SCORE.INTRA>
-1.55366

>  <SCORE.INTRA.DIHEDRAL>
-1.88276

>  <SCORE.INTRA.DIHEDRAL.0>
2.05999

>  <SCORE.INTRA.POLAR>
0

>  <SCORE.INTRA.POLAR.0>
0

>  <SCORE.INTRA.REPUL>
0

>  <SCORE.INTRA.REPUL.0>
0

>  <SCORE.INTRA.SOLV>
-1.01595

>  <SCORE.INTRA.SOLV.lig_0>
-58.7001

>  <SCORE.INTRA.VDW>
-0.104302

>  <SCORE.INTRA.VDW.0>
-0.401036

>  <SCORE.INTRA.norm>
-0.0971037

>  <SCORE.RESTR>
0

>  <SCORE.RESTR.CAVITY>
0

>  <SCORE.RESTR.norm>
0

>  <SCORE.SYSTEM>
0

>  <SCORE.SYSTEM.CONST>
0

>  <SCORE.SYSTEM.DIHEDRAL>
0

>  <SCORE.SYSTEM.SOLV>
0

>  <SCORE.SYSTEM.norm>
0

>  <SCORE.heavy>
16

>  <SCORE.norm>
-0.370908

>  <RMSD>
1.132

$$$$
ligand
 OpenBabel11021811463D
libRbt.so/2013.1/901 2013/11/27
 16 16  0  0  0  0  0  0  0  0999 V2000
   52.0082   34.2786   53.2756 P   0  0  2  0  0  0  0  0  0  0  0  0
   52.2788   35.2194   54.3910 O   0  0  0  0  0  0  0  0  0  0  0  0
   52.6771   32.8502   53.6122 O   0  5  0  0  0  0  0  0  0  0  0  0
   52.6469   34.8827   51.9175 O   0  0  0  0  0  0  0  0  0  0  0  0
   46.4060   33.0259   55.6574 C   0  0  2  0  0  0  0  0  0  0  0  0
   45.9505   32.0730   54.6701 O   0  0  0  0  0  0  0  0  0  0  0  0
   45.7662   34.4245   55.4192 C   0  0  2  0  0  0  0  0  0  0  0  0
   44.2969   34.3092   55.4653 N   0  0  0  0  0  0  0  0  0  0  0  0
   46.2134   34.9442   54.0352 C   0  0  1  0  0  0  0  0  0  0  0  0
   45.6418   36.2402   53.7901 O   0  0  0  0  0  0  0  0  0  0  0  0
   47.7530   35.0424   54.0502 C   0  0  2  0  0  0  0  0  0  0  0  0
   48.2070   35.5171   52.7712 O   0  0  0  0  0  0  0  0  0  0  0  0
   48.3303   33.6191   54.3218 C   0  0  2  0  0  0  0  0  0  0  0  0
   47.8658   33.1147   55.6094 O   0  0  0  0  0  0  0  0  0  0  0  0
   49.8667   33.6494   54.3688 C   0  0  0  0  0  0  0  0  0  0  0  0
   50.4057   34.1025   53.1145 O   0  0  0  0  0  0  0  0  0  0  0  0
  1  2  1  1  0  0  0
  1  3  1  0  0  0  0
  1  4  2  0  0  0  0
  1 16  1  0  0  0  0
  5  6  1  6  0  0  0
  5  7  1  0  0  0  0
  5 14  1  0  0  0  0
  7  8  1  6  0  0  0
  7  9  1  0  0  0  0
  9 10  1  1  0  0  0
  9 11  1  0  0  0  0
 11 12  1  6  0  0  0
 11 13  1  0  0  0  0
 13 14  1  0  0  0  0
 13 15  1  1  0  0  0
 15 16  1  0  0  0  0
M  CHG  1   3  -1
M  END
>  <CHROM.1>
-60.73013340,173.52062800,-56.84895929,48.84582068,34.21335853,54.05804321
0.14081581,0.20954442,-0.53887673

>  <Name>
ligand

>  <RI>
0

>  <Rbt.Current_Directory>
/home/itssahil/PROJECTS/Mol_Feturizer/New_Systems/rnas/3B4A

>  <Rbt.Executable>
rbdock ($Id: //depot/dev/client3/rdock/2013.1/src/exe/rbdock.cxx#4 $)

>  <Rbt.Library>
libRbt.so (2013.1, Build901 2013/11/27)

>  <Rbt.Parameter_File>
/export/apps/rDock/src/rDock_2013.1_src/data/scripts/dock_solv.prm

>  <Rbt.Receptor>
prm/pocket_docking_4.prm

>  <SCORE>
-4.94689

>  <SCORE.INTER>
-3.76705

>  <SCORE.INTER.CONST>
1

>  <SCORE.INTER.POLAR>
0

>  <SCORE.INTER.ROT>
3

>  <SCORE.INTER.SOLV>
11.4252

>  <SCORE.INTER.VDW>
-11.9198

>  <SCORE.INTER.norm>
-0.23544

>  <SCORE.INTRA>
-1.17985

>  <SCORE.INTRA.DIHEDRAL>
-1.83426

>  <SCORE.INTRA.DIHEDRAL.0>
2.05999

>  <SCORE.INTRA.POLAR>
0

>  <SCORE.INTRA.POLAR.0>
0

>  <SCORE.INTRA.REPUL>
0

>  <SCORE.INTRA.REPUL.0>
0

>  <SCORE.INTRA.SOLV>
-0.624534

>  <SCORE.INTRA.SOLV.lig_0>
-58.7001

>  <SCORE.INTRA.VDW>
0.0495489

>  <SCORE.INTRA.VDW.0>
-0.401036

>  <SCORE.INTRA.norm>
-0.0737404

>  <SCORE.RESTR>
0

>  <SCORE.RESTR.CAVITY>
0

>  <SCORE.RESTR.norm>
0

>  <SCORE.SYSTEM>
0

>  <SCORE.SYSTEM.CONST>
0

>  <SCORE.SYSTEM.DIHEDRAL>
0

>  <SCORE.SYSTEM.SOLV>
0

>  <SCORE.SYSTEM.norm>
0

>  <SCORE.heavy>
16

>  <SCORE.norm>
-0.309181

>  <RMSD>
1.133

$$$$
ligand
 OpenBabel11021811463D
libRbt.so/2013.1/901 2013/11/27
 16 16  0  0  0  0  0  0  0  0999 V2000
   52.0022   35.1135   53.4594 P   0  0  2  0  0  0  0  0  0  0  0  0
   52.0539   34.8709   51.9962 O   0  0  0  0  0  0  0  0  0  0  0  0
   52.5904   36.5817   53.7749 O   0  5  0  0  0  0  0  0  0  0  0  0
   52.8927   33.9881   54.2063 O   0  0  0  0  0  0  0  0  0  0  0  0
   46.9662   33.6559   55.9058 C   0  0  2  0  0  0  0  0  0  0  0  0
   46.4670   32.3325   55.6066 O   0  0  0  0  0  0  0  0  0  0  0  0
   46.0879   34.7490   55.2308 C   0  0  2  0  0  0  0  0  0  0  0  0
   44.6938   34.6162   55.6925 N   0  0  0  0  0  0  0  0  0  0  0  0
   46.1581   34.5644   53.6990 C   0  0  1  0  0  0  0  0  0  0  0  0
   45.3597   35.5666   53.0473 O   0  0  0  0  0  0  0  0  0  0  0  0
   47.6353   34.7138   53.2796 C   0  0  2  0  0  0  0  0  0  0  0  0
   47.7405   34.5399   51.8562 O   0  0  0  0  0  0  0  0  0  0  0  0
   48.4639   33.6126   54.0101 C   0  0  2  0  0  0  0  0  0  0  0  0
   48.3548   33.7642   55.4568 O   0  0  0  0  0  0  0  0  0  0  0  0
   49.9548   33.7173   53.6496 C   0  0  0  0  0  0  0  0  0  0  0  0
   50.4607   35.0297   53.9511 O   0  0  0  0  0  0  0  0  0  0  0  0
  1  2  1  6  0  0  0
  1  3  1  0  0  0  0
  1  4  2  0  0  0  0
  1 16  1  0  0  0  0
  5  6  1  6  0  0  0
  5  7  1  0  0  0  0
  5 14  1  0  0  0  0
  7  8  1  1  0  0  0
  7  9  1  0  0  0  0
  9 10  1  6  0  0  0
  9 11  1  0  0  0  0
 11 12  1  6  0  0  0
 11 13  1  0  0  0  0
 13 14  1  0  0  0  0
 13 15  1  6  0  0  0
 15 16  1  0  0  0  0
M  CHG  1   3  -1
M  END
>  <CHROM.1>
56.23154015,-176.19081313,60.13182056,48.93115989,34.51884341,53.98429925
-0.24592644,0.00611593,2.12223657

>  <Name>
ligand

>  <RI>
0

>  <Rbt.Current_Directory>
/home/itssahil/PROJECTS/Mol_Feturizer/New_Systems/rnas/3B4A

>  <Rbt.Executable>
rbdock ($Id: //depot/dev/client3/rdock/2013.1/src/exe/rbdock.cxx#4 $)

>  <Rbt.Library>
libRbt.so (2013.1, Build901 2013/11/27)

>  <Rbt.Parameter_File>
/export/apps/rDock/src/rDock_2013.1_src/data/scripts/dock_solv.prm

>  <Rbt.Receptor>
prm/pocket_docking_2.prm

>  <SCORE>
-4.48988

>  <SCORE.INTER>
-2.87811

>  <SCORE.INTER.CONST>
1

>  <SCORE.INTER.POLAR>
0

>  <SCORE.INTER.ROT>
3

>  <SCORE.INTER.SOLV>
12.1643

>  <SCORE.INTER.VDW>
-11.5735

>  <SCORE.INTER.norm>
-0.179882

>  <SCORE.INTRA>
-1.61177

>  <SCORE.INTRA.DIHEDRAL>
-1.93607

>  <SCORE.INTRA.DIHEDRAL.0>
2.05999

>  <SCORE.INTRA.POLAR>
0

>  <SCORE.INTRA.POLAR.0>
0

>  <SCORE.INTRA.REPUL>
0

>  <SCORE.INTRA.REPUL.0>
0

>  <SCORE.INTRA.SOLV>
-0.866291

>  <SCORE.INTRA.SOLV.lig_0>
-58.7001

>  <SCORE.INTRA.VDW>
-0.210586

>  <SCORE.INTRA.VDW.0>
-0.401036

>  <SCORE.INTRA.norm>
-0.100735

>  <SCORE.RESTR>
0

>  <SCORE.RESTR.CAVITY>
0

>  <SCORE.RESTR.norm>
0

>  <SCORE.SYSTEM>
0

>  <SCORE.SYSTEM.CONST>
0

>  <SCORE.SYSTEM.DIHEDRAL>
0

>  <SCORE.SYSTEM.SOLV>
0

>  <SCORE.SYSTEM.norm>
0

>  <SCORE.heavy>
16

>  <SCORE.norm>
-0.280618

>  <RMSD>
1.135

$$$$
ligand
 OpenBabel11021811463D
libRbt.so/2013.1/901 2013/11/27
 16 16  0  0  0  0  0  0  0  0999 V2000
   51.9974   35.1498   53.4823 P   0  0  2  0  0  0  0  0  0  0  0  0
   52.0700   34.9362   52.0155 O   0  0  0  0  0  0  0  0  0  0  0  0
   52.5882   36.6082   53.8361 O   0  5  0  0  0  0  0  0  0  0  0  0
   52.8707   34.0049   54.2197 O   0  0  0  0  0  0  0  0  0  0  0  0
   46.9995   33.6204   55.9162 C   0  0  2  0  0  0  0  0  0  0  0  0
   46.4988   32.3049   55.5861 O   0  0  0  0  0  0  0  0  0  0  0  0
   46.1010   34.7304   55.2976 C   0  0  2  0  0  0  0  0  0  0  0  0
   44.7188   34.5760   55.7872 N   0  0  0  0  0  0  0  0  0  0  0  0
   46.1360   34.5956   53.7594 C   0  0  1  0  0  0  0  0  0  0  0  0
   45.3184   35.6144   53.1593 O   0  0  0  0  0  0  0  0  0  0  0  0
   47.6023   34.7655   53.3106 C   0  0  2  0  0  0  0  0  0  0  0  0
   47.6747   34.6381   51.8803 O   0  0  0  0  0  0  0  0  0  0  0  0
   48.4523   33.6455   53.9856 C   0  0  2  0  0  0  0  0  0  0  0  0
   48.3767   33.7498   55.4386 O   0  0  0  0  0  0  0  0  0  0  0  0
   49.9339   33.7690   53.5939 C   0  0  0  0  0  0  0  0  0  0  0  0
   50.4483   35.0646   53.9491 O   0  0  0  0  0  0  0  0  0  0  0  0
  1  2  1  6  0  0  0
  1  3  1  0  0  0  0
  1  4  2  0  0  0  0
  1 16  1  0  0  0  0
  5  6  1  6  0  0  0
  5  7  1  0  0  0  0
  5 14  1  0  0  0  0
  7  8  1  1  0  0  0
  7  9  1  0  0  0  0
  9 10  1  6  0  0  0
  9 11  1  0  0  0  0
 11 12  1  6  0  0  0
 11 13  1  0  0  0  0
 13 14  1  0  0  0  0
 13 15  1  6  0  0  0
 15 16  1  0  0  0  0
M  CHG  1   3  -1
M  END
>  <CHROM.1>
57.33041272,-178.66218456,59.20091932,48.92505226,34.54283930,54.00872420
-0.25113454,0.00293847,2.14628740

>  <Name>
ligand

>  <RI>
0

>  <Rbt.Current_Directory>
/home/itssahil/PROJECTS/Mol_Feturizer/New_Systems/rnas/3B4A

>  <Rbt.Executable>
rbdock ($Id: //depot/dev/client3/rdock/2013.1/src/exe/rbdock.cxx#4 $)

>  <Rbt.Library>
libRbt.so (2013.1, Build901 2013/11/27)

>  <Rbt.Parameter_File>
/export/apps/rDock/src/rDock_2013.1_src/data/scripts/dock_solv.prm

>  <Rbt.Receptor>
prm/pocket_docking_2.prm

>  <SCORE>
-4.50324

>  <SCORE.INTER>
-2.85698

>  <SCORE.INTER.CONST>
1

>  <SCORE.INTER.POLAR>
0

>  <SCORE.INTER.ROT>
3

>  <SCORE.INTER.SOLV>
12.5963

>  <SCORE.INTER.VDW>
-11.7034

>  <SCORE.INTER.norm>
-0.178561

>  <SCORE.INTRA>
-1.64738

>  <SCORE.INTRA.DIHEDRAL>
-2.02275

>  <SCORE.INTRA.DIHEDRAL.0>
2.05999

>  <SCORE.INTRA.POLAR>
0

>  <SCORE.INTRA.POLAR.0>
0

>  <SCORE.INTRA.REPUL>
0

>  <SCORE.INTRA.REPUL.0>
0

>  <SCORE.INTRA.SOLV>
-0.868783

>  <SCORE.INTRA.SOLV.lig_0>
-58.7001

>  <SCORE.INTRA.VDW>
-0.201612

>  <SCORE.INTRA.VDW.0>
-0.401036

>  <SCORE.INTRA.norm>
-0.102961

>  <SCORE.RESTR>
0.00112136

>  <SCORE.RESTR.CAVITY>
0.00112136

>  <SCORE.RESTR.norm>
7.00847e-05

>  <SCORE.SYSTEM>
0

>  <SCORE.SYSTEM.CONST>
0

>  <SCORE.SYSTEM.DIHEDRAL>
0

>  <SCORE.SYSTEM.SOLV>
0

>  <SCORE.SYSTEM.norm>
0

>  <SCORE.heavy>
16

>  <SCORE.norm>
-0.281452

>  <RMSD>
1.136

$$$$
ligand
 OpenBabel11021811463D
libRbt.so/2013.1/901 2013/11/27
 16 16  0  0  0  0  0  0  0  0999 V2000
   52.0256   35.1088   53.5627 P   0  0  2  0  0  0  0  0  0  0  0  0
   52.0894   34.8218   52.1080 O   0  0  0  0  0  0  0  0  0  0  0  0
   52.5833   36.5974   53.8348 O   0  5  0  0  0  0  0  0  0  0  0  0
   52.9342   34.0250   54.3483 O   0  0  0  0  0  0  0  0  0  0  0  0
   46.9129   33.6570   55.8934 C   0  0  2  0  0  0  0  0  0  0  0  0
   46.4320   32.3254   55.6001 O   0  0  0  0  0  0  0  0  0  0  0  0
   46.0625   34.7319   55.1563 C   0  0  2  0  0  0  0  0  0  0  0  0
   44.6493   34.6030   55.5570 N   0  0  0  0  0  0  0  0  0  0  0  0
   46.2028   34.5153   53.6335 C   0  0  1  0  0  0  0  0  0  0  0  0
   45.4316   35.5002   52.9251 O   0  0  0  0  0  0  0  0  0  0  0  0
   47.6971   34.6620   53.2784 C   0  0  2  0  0  0  0  0  0  0  0  0
   47.8673   34.4586   51.8653 O   0  0  0  0  0  0  0  0  0  0  0  0
   48.4952   33.5800   54.0689 C   0  0  2  0  0  0  0  0  0  0  0  0
   48.3200   33.7616   55.5056 O   0  0  0  0  0  0  0  0  0  0  0  0
   50.0005   33.6834   53.7742 C   0  0  0  0  0  0  0  0  0  0  0  0
   50.4836   35.0100   54.0501 O   0  0  0  0  0  0  0  0  0  0  0  0
  1  2  1  6  0  0  0
  1  3  1  0  0  0  0
  1  4  2  0  0  0  0
  1 16  1  0  0  0  0
  5  6  1  6  0  0  0
  5  7  1  0  0  0  0
  5 14  1  0  0  0  0
  7  8  1  1  0  0  0
  7  9  1  0  0  0  0
  9 10  1  6  0  0  0
  9 11  1  0  0  0  0
 11 12  1  6  0  0  0
 11 13  1  0  0  0  0
 13 14  1  0  0  0  0
 13 15  1  1  0  0  0
 15 16  1  0  0  0  0
M  CHG  1   3  -1
M  END
>  <CHROM.1>
55.30742000,-173.54421953,59.51942227,48.95121551,34.49692135,54.01319971
-0.22626324,0.02704930,2.10884574

>  <Name>
ligand

>  <RI>
0

>  <Rbt.Current_Directory>
/home/itssahil/PROJECTS/Mol_Feturizer/New_Systems/rnas/3B4A

>  <Rbt.Executable>
rbdock ($Id: //depot/dev/client3/rdock/2013.1/src/exe/rbdock.cxx#4 $)

>  <Rbt.Library>
libRbt.so (2013.1, Build901 2013/11/27)

>  <Rbt.Parameter_File>
/export/apps/rDock/src/rDock_2013.1_src/data/scripts/dock_solv.prm

>  <Rbt.Receptor>
prm/pocket_docking_2.prm

>  <SCORE>
-4.43554

>  <SCORE.INTER>
-2.90031

>  <SCORE.INTER.CONST>
1

>  <SCORE.INTER.POLAR>
0

>  <SCORE.INTER.ROT>
3

>  <SCORE.INTER.SOLV>
12.0149

>  <SCORE.INTER.VDW>
-11.5385

>  <SCORE.INTER.norm>
-0.181269

>  <SCORE.INTRA>
-1.53523

>  <SCORE.INTRA.DIHEDRAL>
-1.77562

>  <SCORE.INTRA.DIHEDRAL.0>
2.05999

>  <SCORE.INTRA.POLAR>
0

>  <SCORE.INTRA.POLAR.0>
0

>  <SCORE.INTRA.REPUL>
0

>  <SCORE.INTRA.REPUL.0>
0

>  <SCORE.INTRA.SOLV>
-0.877096

>  <SCORE.INTRA.SOLV.lig_0>
-58.7001

>  <SCORE.INTRA.VDW>
-0.208878

>  <SCORE.INTRA.VDW.0>
-0.401036

>  <SCORE.INTRA.norm>
-0.0959522

>  <SCORE.RESTR>
0

>  <SCORE.RESTR.CAVITY>
0

>  <SCORE.RESTR.norm>
0

>  <SCORE.SYSTEM>
0

>  <SCORE.SYSTEM.CONST>
0

>  <SCORE.SYSTEM.DIHEDRAL>
0

>  <SCORE.SYSTEM.SOLV>
0

>  <SCORE.SYSTEM.norm>
0

>  <SCORE.heavy>
16

>  <SCORE.norm>
-0.277221

>  <RMSD>
1.137

$$$$
ligand
 OpenBabel11021811463D
libRbt.so/2013.1/901 2013/11/27
 16 16  0  0  0  0  0  0  0  0999 V2000
   51.5686   34.9739   53.7145 P   0  0  2  0  0  0  0  0  0  0  0  0
   51.6330   36.3103   54.3566 O   0  0  0  0  0  0  0  0  0  0  0  0
   52.7297   34.0355   54.3247 O   0  5  0  0  0  0  0  0  0  0  0  0
   51.7803   35.1507   52.1204 O   0  0  0  0  0  0  0  0  0  0  0  0
   46.3180   34.0599   55.6643 C   0  0  2  0  0  0  0  0  0  0  0  0
   46.1488   32.6980   55.2093 O   0  0  0  0  0  0  0  0  0  0  0  0
   45.1713   34.9704   55.1370 C   0  0  2  0  0  0  0  0  0  0  0  0
   43.8723   34.4411   55.5918 N   0  0  0  0  0  0  0  0  0  0  0  0
   45.2241   34.9892   53.5935 C   0  0  1  0  0  0  0  0  0  0  0  0
   44.1781   35.8296   53.0774 O   0  0  0  0  0  0  0  0  0  0  0  0
   46.6011   35.5502   53.1818 C   0  0  2  0  0  0  0  0  0  0  0  0
   46.6894   35.5754   51.7470 O   0  0  0  0  0  0  0  0  0  0  0  0
   47.7038   34.6131   53.7637 C   0  0  2  0  0  0  0  0  0  0  0  0
   47.6181   34.5627   55.2190 O   0  0  0  0  0  0  0  0  0  0  0  0
   49.1074   35.1277   53.4049 C   0  0  0  0  0  0  0  0  0  0  0  0
   50.1211   34.3137   54.0206 O   0  0  0  0  0  0  0  0  0  0  0  0
  1  2  1  1  0  0  0
  1  3  1  0  0  0  0
  1  4  2  0  0  0  0
  1 16  1  0  0  0  0
  5  6  1  6  0  0  0
  5  7  1  0  0  0  0
  5 14  1  0  0  0  0
  7  8  1  6  0  0  0
  7  9  1  0  0  0  0
  9 10  1  6  0  0  0
  9 11  1  0  0  0  0
 11 12  1  6  0  0  0
 11 13  1  0  0  0  0
 13 14  1  0  0  0  0
 13 15  1  1  0  0  0
 15 16  1  0  0  0  0
M  CHG  1   3  -1
M  END
>  <CHROM.1>
176.00894264,-175.20770591,63.73802269,48.24472013,34.83392036,53.96728217
-0.10714031,-0.02657859,2.12359423

>  <Name>
ligand

>  <RI>
0

>  <Rbt.Current_Directory>
/home/itssahil/PROJECTS/Mol_Feturizer/New_Systems/rnas/3B4A

>  <Rbt.Executable>
rbdock ($Id: //depot/dev/client3/rdock/2013.1/src/exe/rbdock.cxx#4 $)

>  <Rbt.Library>
libRbt.so (2013.1, Build901 2013/11/27)

>  <Rbt.Parameter_File>
/export/apps/rDock/src/rDock_2013.1_src/data/scripts/dock_solv.prm

>  <Rbt.Receptor>
prm/pocket_docking_3.prm

>  <SCORE>
-5.79646

>  <SCORE.INTER>
-4.25761

>  <SCORE.INTER.CONST>
1

>  <SCORE.INTER.POLAR>
0

>  <SCORE.INTER.ROT>
3

>  <SCORE.INTER.SOLV>
11.7618

>  <SCORE.INTER.VDW>
-12.359

>  <SCORE.INTER.norm>
-0.266101

>  <SCORE.INTRA>
-1.53885

>  <SCORE.INTRA.DIHEDRAL>
-1.86558

>  <SCORE.INTRA.DIHEDRAL.0>
2.05999

>  <SCORE.INTRA.POLAR>
0

>  <SCORE.INTRA.POLAR.0>
0

>  <SCORE.INTRA.REPUL>
0

>  <SCORE.INTRA.REPUL.0>
0

>  <SCORE.INTRA.SOLV>
-1.00929

>  <SCORE.INTRA.SOLV.lig_0>
-58.7001

>  <SCORE.INTRA.VDW>
-0.101417

>  <SCORE.INTRA.VDW.0>
-0.401036

>  <SCORE.INTRA.norm>
-0.0961782

>  <SCORE.RESTR>
0

>  <SCORE.RESTR.CAVITY>
0

>  <SCORE.RESTR.norm>
0

>  <SCORE.SYSTEM>
0

>  <SCORE.SYSTEM.CONST>
0

>  <SCORE.SYSTEM.DIHEDRAL>
0

>  <SCORE.SYSTEM.SOLV>
0

>  <SCORE.SYSTEM.norm>
0

>  <SCORE.heavy>
16

>  <SCORE.norm>
-0.362279

>  <RMSD>
1.137

$$$$
ligand
 OpenBabel11021811463D
libRbt.so/2013.1/901 2013/11/27
 16 16  0  0  0  0  0  0  0  0999 V2000
   52.0500   35.1308   53.6559 P   0  0  2  0  0  0  0  0  0  0  0  0
   52.7802   34.2336   54.5857 O   0  0  0  0  0  0  0  0  0  0  0  0
   52.3030   34.6431   52.1396 O   0  5  0  0  0  0  0  0  0  0  0  0
   52.5976   36.6406   53.8505 O   0  0  0  0  0  0  0  0  0  0  0  0
   46.9365   33.6396   55.8779 C   0  0  2  0  0  0  0  0  0  0  0  0
   46.4720   32.3029   55.5817 O   0  0  0  0  0  0  0  0  0  0  0  0
   46.0643   34.7062   55.1542 C   0  0  2  0  0  0  0  0  0  0  0  0
   44.6568   34.5550   55.5668 N   0  0  0  0  0  0  0  0  0  0  0  0
   46.1940   34.4997   53.6291 C   0  0  1  0  0  0  0  0  0  0  0  0
   45.4024   35.4771   52.9329 O   0  0  0  0  0  0  0  0  0  0  0  0
   47.6827   34.6695   53.2614 C   0  0  2  0  0  0  0  0  0  0  0  0
   47.8431   34.4760   51.8458 O   0  0  0  0  0  0  0  0  0  0  0  0
   48.5032   33.5949   54.0389 C   0  0  2  0  0  0  0  0  0  0  0  0
   48.3384   33.7664   55.4782 O   0  0  0  0  0  0  0  0  0  0  0  0
   50.0043   33.7213   53.7314 C   0  0  0  0  0  0  0  0  0  0  0  0
   50.4667   35.0583   53.9918 O   0  0  0  0  0  0  0  0  0  0  0  0
  1  2  1  1  0  0  0
  1  3  1  0  0  0  0
  1  4  2  0  0  0  0
  1 16  1  0  0  0  0
  5  6  1  6  0  0  0
  5  7  1  0  0  0  0
  5 14  1  0  0  0  0
  7  8  1  1  0  0  0
  7  9  1  0  0  0  0
  9 10  1  6  0  0  0
  9 11  1  0  0  0  0
 11 12  1  6  0  0  0
 11 13  1  0  0  0  0
 13 14  1  0  0  0  0
 13 15  1  1  0  0  0
 15 16  1  0  0  0  0
M  CHG  1   3  -1
M  END
>  <CHROM.1>
54.47828470,179.81468667,-63.98592590,48.95931530,34.50339590,54.02997081
-0.21685740,0.04803883,2.07689568

>  <Name>
ligand

>  <RI>
0

>  <Rbt.Current_Directory>
/home/itssahil/PROJECTS/Mol_Feturizer/New_Systems/rnas/3B4A

>  <Rbt.Executable>
rbdock ($Id: //depot/dev/client3/rdock/2013.1/src/exe/rbdock.cxx#4 $)

>  <Rbt.Library>
libRbt.so (2013.1, Build901 2013/11/27)

>  <Rbt.Parameter_File>
/export/apps/rDock/src/rDock_2013.1_src/data/scripts/dock_solv.prm

>  <Rbt.Receptor>
prm/pocket_docking_2.prm

>  <SCORE>
-4.68467

>  <SCORE.INTER>
-3.12865

>  <SCORE.INTER.CONST>
1

>  <SCORE.INTER.POLAR>
0

>  <SCORE.INTER.ROT>
3

>  <SCORE.INTER.SOLV>
11.7574

>  <SCORE.INTER.VDW>
-11.6049

>  <SCORE.INTER.norm>
-0.195541

>  <SCORE.INTRA>
-1.55601

>  <SCORE.INTRA.DIHEDRAL>
-1.9236

>  <SCORE.INTRA.DIHEDRAL.0>
2.05999

>  <SCORE.INTRA.POLAR>
0

>  <SCORE.INTRA.POLAR.0>
0

>  <SCORE.INTRA.REPUL>
0

>  <SCORE.INTRA.REPUL.0>
0

>  <SCORE.INTRA.SOLV>
-0.803908

>  <SCORE.INTRA.SOLV.lig_0>
-58.7001

>  <SCORE.INTRA.VDW>
-0.192257

>  <SCORE.INTRA.VDW.0>
-0.401036

>  <SCORE.INTRA.norm>
-0.0972507

>  <SCORE.RESTR>
0

>  <SCORE.RESTR.CAVITY>
0

>  <SCORE.RESTR.norm>
0

>  <SCORE.SYSTEM>
0

>  <SCORE.SYSTEM.CONST>
0

>  <SCORE.SYSTEM.DIHEDRAL>
0

>  <SCORE.SYSTEM.SOLV>
0

>  <SCORE.SYSTEM.norm>
0

>  <SCORE.heavy>
16

>  <SCORE.norm>
-0.292792

>  <RMSD>
1.139

$$$$
ligand
 OpenBabel11021811463D
libRbt.so/2013.1/901 2013/11/27
 16 16  0  0  0  0  0  0  0  0999 V2000
   52.0050   35.0654   53.5474 P   0  0  2  0  0  0  0  0  0  0  0  0
   52.0761   34.7890   52.0910 O   0  0  0  0  0  0  0  0  0  0  0  0
   52.5882   36.5410   53.8365 O   0  5  0  0  0  0  0  0  0  0  0  0
   52.8862   33.9584   54.3318 O   0  0  0  0  0  0  0  0  0  0  0  0
   46.9419   33.6509   55.9368 C   0  0  2  0  0  0  0  0  0  0  0  0
   46.4392   32.3278   55.6424 O   0  0  0  0  0  0  0  0  0  0  0  0
   46.0701   34.7436   55.2526 C   0  0  2  0  0  0  0  0  0  0  0  0
   44.6737   34.6181   55.7092 N   0  0  0  0  0  0  0  0  0  0  0  0
   46.1460   34.5508   53.7221 C   0  0  1  0  0  0  0  0  0  0  0  0
   45.3538   35.5524   53.0619 O   0  0  0  0  0  0  0  0  0  0  0  0
   47.6254   34.6928   53.3079 C   0  0  2  0  0  0  0  0  0  0  0  0
   47.7358   34.5111   51.8860 O   0  0  0  0  0  0  0  0  0  0  0  0
   48.4471   33.5926   54.0475 C   0  0  2  0  0  0  0  0  0  0  0  0
   48.3326   33.7520   55.4930 O   0  0  0  0  0  0  0  0  0  0  0  0
   49.9398   33.6902   53.6926 C   0  0  0  0  0  0  0  0  0  0  0  0
   50.4572   34.9917   54.0206 O   0  0  0  0  0  0  0  0  0  0  0  0
  1  2  1  6  0  0  0
  1  3  1  0  0  0  0
  1  4  2  0  0  0  0
  1 16  1  0  0  0  0
  5  6  1  6  0  0  0
  5  7  1  0  0  0  0
  5 14  1  0  0  0  0
  7  8  1  1  0  0  0
  7  9  1  0  0  0  0
  9 10  1  6  0  0  0
  9 11  1  0  0  0  0
 11 12  1  6  0  0  0
 11 13  1  0  0  0  0
 13 14  1  0  0  0  0
 13 15  1  6  0  0  0
 15 16  1  0  0  0  0
M  CHG  1   3  -1
M  END
>  <CHROM.1>
57.67558606,-176.74245376,57.78761937,48.92214554,34.49229551,54.03544276
-0.23188602,0.00836648,2.11286393

>  <Name>
ligand

>  <RI>
0

>  <Rbt.Current_Directory>
/home/itssahil/PROJECTS/Mol_Feturizer/New_Systems/rnas/3B4A

>  <Rbt.Executable>
rbdock ($Id: //depot/dev/client3/rdock/2013.1/src/exe/rbdock.cxx#4 $)

>  <Rbt.Library>
libRbt.so (2013.1, Build901 2013/11/27)

>  <Rbt.Parameter_File>
/export/apps/rDock/src/rDock_2013.1_src/data/scripts/dock_solv.prm

>  <Rbt.Receptor>
prm/pocket_docking_2.prm

>  <SCORE>
-4.54004

>  <SCORE.INTER>
-2.91236

>  <SCORE.INTER.CONST>
1

>  <SCORE.INTER.POLAR>
0

>  <SCORE.INTER.ROT>
3

>  <SCORE.INTER.SOLV>
12.598

>  <SCORE.INTER.VDW>
-11.7409

>  <SCORE.INTER.norm>
-0.182023

>  <SCORE.INTRA>
-1.62768

>  <SCORE.INTRA.DIHEDRAL>
-1.97851

>  <SCORE.INTRA.DIHEDRAL.0>
2.05999

>  <SCORE.INTRA.POLAR>
0

>  <SCORE.INTRA.POLAR.0>
0

>  <SCORE.INTRA.REPUL>
0

>  <SCORE.INTRA.REPUL.0>
0

>  <SCORE.INTRA.SOLV>
-0.888713

>  <SCORE.INTRA.SOLV.lig_0>
-58.7001

>  <SCORE.INTRA.VDW>
-0.19407

>  <SCORE.INTRA.VDW.0>
-0.401036

>  <SCORE.INTRA.norm>
-0.10173

>  <SCORE.RESTR>
0

>  <SCORE.RESTR.CAVITY>
0

>  <SCORE.RESTR.norm>
0

>  <SCORE.SYSTEM>
0

>  <SCORE.SYSTEM.CONST>
0

>  <SCORE.SYSTEM.DIHEDRAL>
0

>  <SCORE.SYSTEM.SOLV>
0

>  <SCORE.SYSTEM.norm>
0

>  <SCORE.heavy>
16

>  <SCORE.norm>
-0.283753

>  <RMSD>
1.142

$$$$
ligand
 OpenBabel11021811463D
libRbt.so/2013.1/901 2013/11/27
 16 16  0  0  0  0  0  0  0  0999 V2000
   52.0190   35.0715   53.6654 P   0  0  2  0  0  0  0  0  0  0  0  0
   52.7363   34.1373   54.5682 O   0  0  0  0  0  0  0  0  0  0  0  0
   52.2520   34.6154   52.1361 O   0  5  0  0  0  0  0  0  0  0  0  0
   52.5992   36.5646   53.8922 O   0  0  0  0  0  0  0  0  0  0  0  0
   46.9119   33.6540   55.9034 C   0  0  2  0  0  0  0  0  0  0  0  0
   46.4250   32.3251   55.6082 O   0  0  0  0  0  0  0  0  0  0  0  0
   46.0401   34.7358   55.2021 C   0  0  2  0  0  0  0  0  0  0  0  0
   44.6387   34.5999   55.6400 N   0  0  0  0  0  0  0  0  0  0  0  0
   46.1389   34.5367   53.6737 C   0  0  1  0  0  0  0  0  0  0  0  0
   45.3471   35.5282   52.9979 O   0  0  0  0  0  0  0  0  0  0  0  0
   47.6226   34.6900   53.2794 C   0  0  2  0  0  0  0  0  0  0  0  0
   47.7543   34.5028   51.8599 O   0  0  0  0  0  0  0  0  0  0  0  0
   48.4436   33.6005   54.0354 C   0  0  2  0  0  0  0  0  0  0  0  0
   48.3077   33.7654   55.4783 O   0  0  0  0  0  0  0  0  0  0  0  0
   49.9402   33.7097   53.7007 C   0  0  0  0  0  0  0  0  0  0  0  0
   50.4367   35.0238   54.0104 O   0  0  0  0  0  0  0  0  0  0  0  0
  1  2  1  1  0  0  0
  1  3  1  0  0  0  0
  1  4  2  0  0  0  0
  1 16  1  0  0  0  0
  5  6  1  6  0  0  0
  5  7  1  0  0  0  0
  5 14  1  0  0  0  0
  7  8  1  1  0  0  0
  7  9  1  0  0  0  0
  9 10  1  6  0  0  0
  9 11  1  0  0  0  0
 11 12  1  6  0  0  0
 11 13  1  0  0  0  0
 13 14  1  0  0  0  0
 13 15  1  1  0  0  0
 15 16  1  0  0  0  0
M  CHG  1   3  -1
M  END
>  <CHROM.1>
56.78159143,178.92304134,-64.91086226,48.91749035,34.49490795,54.04953363
-0.21247850,0.03220398,2.07525537

>  <Name>
ligand

>  <RI>
0

>  <Rbt.Current_Directory>
/home/itssahil/PROJECTS/Mol_Feturizer/New_Systems/rnas/3B4A

>  <Rbt.Executable>
rbdock ($Id: //depot/dev/client3/rdock/2013.1/src/exe/rbdock.cxx#4 $)

>  <Rbt.Library>
libRbt.so (2013.1, Build901 2013/11/27)

>  <Rbt.Parameter_File>
/export/apps/rDock/src/rDock_2013.1_src/data/scripts/dock_solv.prm

>  <Rbt.Receptor>
prm/pocket_docking_2.prm

>  <SCORE>
-4.75083

>  <SCORE.INTER>
-3.15836

>  <SCORE.INTER.CONST>
1

>  <SCORE.INTER.POLAR>
0

>  <SCORE.INTER.ROT>
3

>  <SCORE.INTER.SOLV>
12.132

>  <SCORE.INTER.VDW>
-11.7496

>  <SCORE.INTER.norm>
-0.197398

>  <SCORE.INTRA>
-1.59247

>  <SCORE.INTRA.DIHEDRAL>
-1.97612

>  <SCORE.INTRA.DIHEDRAL.0>
2.05999

>  <SCORE.INTRA.POLAR>
0

>  <SCORE.INTRA.POLAR.0>
0

>  <SCORE.INTRA.REPUL>
0

>  <SCORE.INTRA.REPUL.0>
0

>  <SCORE.INTRA.SOLV>
-0.798564

>  <SCORE.INTRA.SOLV.lig_0>
-58.7001

>  <SCORE.INTRA.VDW>
-0.20513

>  <SCORE.INTRA.VDW.0>
-0.401036

>  <SCORE.INTRA.norm>
-0.0995295

>  <SCORE.RESTR>
0

>  <SCORE.RESTR.CAVITY>
0

>  <SCORE.RESTR.norm>
0

>  <SCORE.SYSTEM>
0

>  <SCORE.SYSTEM.CONST>
0

>  <SCORE.SYSTEM.DIHEDRAL>
0

>  <SCORE.SYSTEM.SOLV>
0

>  <SCORE.SYSTEM.norm>
0

>  <SCORE.heavy>
16

>  <SCORE.norm>
-0.296927

>  <RMSD>
1.144

$$$$
ligand
 OpenBabel11021811463D
libRbt.so/2013.1/901 2013/11/27
 16 16  0  0  0  0  0  0  0  0999 V2000
   52.0148   35.0511   53.6489 P   0  0  2  0  0  0  0  0  0  0  0  0
   52.7221   34.1293   54.5722 O   0  0  0  0  0  0  0  0  0  0  0  0
   52.2575   34.5693   52.1290 O   0  5  0  0  0  0  0  0  0  0  0  0
   52.5987   36.5456   53.8558 O   0  0  0  0  0  0  0  0  0  0  0  0
   46.9016   33.6548   55.8987 C   0  0  2  0  0  0  0  0  0  0  0  0
   46.4073   32.3290   55.6019 O   0  0  0  0  0  0  0  0  0  0  0  0
   46.0370   34.7422   55.1971 C   0  0  2  0  0  0  0  0  0  0  0  0
   44.6343   34.6142   55.6331 N   0  0  0  0  0  0  0  0  0  0  0  0
   46.1366   34.5437   53.6687 C   0  0  1  0  0  0  0  0  0  0  0  0
   45.3515   35.5403   52.9927 O   0  0  0  0  0  0  0  0  0  0  0  0
   47.6217   34.6886   53.2764 C   0  0  2  0  0  0  0  0  0  0  0  0
   47.7541   34.5018   51.8569 O   0  0  0  0  0  0  0  0  0  0  0  0
   48.4354   33.5937   54.0326 C   0  0  2  0  0  0  0  0  0  0  0  0
   48.2986   33.7584   55.4755 O   0  0  0  0  0  0  0  0  0  0  0  0
   49.9330   33.6945   53.6998 C   0  0  0  0  0  0  0  0  0  0  0  0
   50.4299   35.0144   53.9828 O   0  0  0  0  0  0  0  0  0  0  0  0
  1  2  1  1  0  0  0
  1  3  1  0  0  0  0
  1  4  2  0  0  0  0
  1 16  1  0  0  0  0
  5  6  1  6  0  0  0
  5  7  1  0  0  0  0
  5 14  1  0  0  0  0
  7  8  1  1  0  0  0
  7  9  1  0  0  0  0
  9 10  1  6  0  0  0
  9 11  1  0  0  0  0
 11 12  1  6  0  0  0
 11 13  1  0  0  0  0
 13 14  1  0  0  0  0
 13 15  1  1  0  0  0
 15 16  1  0  0  0  0
M  CHG  1   3  -1
M  END
>  <CHROM.1>
55.48170399,178.62159185,-64.50955485,48.91259186,34.48791977,54.04067945
-0.21258845,0.02652460,2.07848501

>  <Name>
ligand

>  <RI>
0

>  <Rbt.Current_Directory>
/home/itssahil/PROJECTS/Mol_Feturizer/New_Systems/rnas/3B4A

>  <Rbt.Executable>
rbdock ($Id: //depot/dev/client3/rdock/2013.1/src/exe/rbdock.cxx#4 $)

>  <Rbt.Library>
libRbt.so (2013.1, Build901 2013/11/27)

>  <Rbt.Parameter_File>
/export/apps/rDock/src/rDock_2013.1_src/data/scripts/dock_solv.prm

>  <Rbt.Receptor>
prm/pocket_docking_2.prm

>  <SCORE>
-4.75517

>  <SCORE.INTER>
-3.18528

>  <SCORE.INTER.CONST>
1

>  <SCORE.INTER.POLAR>
0

>  <SCORE.INTER.ROT>
3

>  <SCORE.INTER.SOLV>
11.9995

>  <SCORE.INTER.VDW>
-11.7233

>  <SCORE.INTER.norm>
-0.19908

>  <SCORE.INTRA>
-1.5699

>  <SCORE.INTRA.DIHEDRAL>
-1.94288

>  <SCORE.INTRA.DIHEDRAL.0>
2.05999

>  <SCORE.INTRA.POLAR>
0

>  <SCORE.INTRA.POLAR.0>
0

>  <SCORE.INTRA.REPUL>
0

>  <SCORE.INTRA.REPUL.0>
0

>  <SCORE.INTRA.SOLV>
-0.802729

>  <SCORE.INTRA.SOLV.lig_0>
-58.7001

>  <SCORE.INTRA.VDW>
-0.197095

>  <SCORE.INTRA.VDW.0>
-0.401036

>  <SCORE.INTRA.norm>
-0.0981187

>  <SCORE.RESTR>
0

>  <SCORE.RESTR.CAVITY>
0

>  <SCORE.RESTR.norm>
0

>  <SCORE.SYSTEM>
0

>  <SCORE.SYSTEM.CONST>
0

>  <SCORE.SYSTEM.DIHEDRAL>
0

>  <SCORE.SYSTEM.SOLV>
0

>  <SCORE.SYSTEM.norm>
0

>  <SCORE.heavy>
16

>  <SCORE.norm>
-0.297198

>  <RMSD>
1.144

$$$$
ligand
 OpenBabel11021811463D
libRbt.so/2013.1/901 2013/11/27
 16 16  0  0  0  0  0  0  0  0999 V2000
   52.0482   35.0920   53.6633 P   0  0  2  0  0  0  0  0  0  0  0  0
   52.1891   34.7158   52.2346 O   0  0  0  0  0  0  0  0  0  0  0  0
   52.5774   36.6015   53.8692 O   0  5  0  0  0  0  0  0  0  0  0  0
   52.9254   34.0706   54.5603 O   0  0  0  0  0  0  0  0  0  0  0  0
   46.9299   33.6129   55.9322 C   0  0  2  0  0  0  0  0  0  0  0  0
   46.4587   32.2791   55.6338 O   0  0  0  0  0  0  0  0  0  0  0  0
   46.0699   34.6846   55.2014 C   0  0  2  0  0  0  0  0  0  0  0  0
   44.6586   34.5431   55.6043 N   0  0  0  0  0  0  0  0  0  0  0  0
   46.2090   34.4759   53.6775 C   0  0  1  0  0  0  0  0  0  0  0  0
   45.4289   35.4580   52.9750 O   0  0  0  0  0  0  0  0  0  0  0  0
   47.7014   34.6356   53.3201 C   0  0  2  0  0  0  0  0  0  0  0  0
   47.8704   34.4397   51.9058 O   0  0  0  0  0  0  0  0  0  0  0  0
   48.5093   33.5562   54.1043 C   0  0  2  0  0  0  0  0  0  0  0  0
   48.3355   33.7300   55.5422 O   0  0  0  0  0  0  0  0  0  0  0  0
   50.0132   33.6724   53.8072 C   0  0  0  0  0  0  0  0  0  0  0  0
   50.4843   35.0045   54.0773 O   0  0  0  0  0  0  0  0  0  0  0  0
  1  2  1  6  0  0  0
  1  3  1  0  0  0  0
  1  4  2  0  0  0  0
  1 16  1  0  0  0  0
  5  6  1  6  0  0  0
  5  7  1  0  0  0  0
  5 14  1  0  0  0  0
  7  8  1  1  0  0  0
  7  9  1  0  0  0  0
  9 10  1  6  0  0  0
  9 11  1  0  0  0  0
 11 12  1  6  0  0  0
 11 13  1  0  0  0  0
 13 14  1  0  0  0  0
 13 15  1  1  0  0  0
 15 16  1  0  0  0  0
M  CHG  1   3  -1
M  END
>  <CHROM.1>
54.81951517,-176.63501897,57.08085611,48.96590643,34.46880890,54.07619578
-0.21828332,0.03683176,2.10689497

>  <Name>
ligand

>  <RI>
0

>  <Rbt.Current_Directory>
/home/itssahil/PROJECTS/Mol_Feturizer/New_Systems/rnas/3B4A

>  <Rbt.Executable>
rbdock ($Id: //depot/dev/client3/rdock/2013.1/src/exe/rbdock.cxx#4 $)

>  <Rbt.Library>
libRbt.so (2013.1, Build901 2013/11/27)

>  <Rbt.Parameter_File>
/export/apps/rDock/src/rDock_2013.1_src/data/scripts/dock_solv.prm

>  <Rbt.Receptor>
prm/pocket_docking_2.prm

>  <SCORE>
-4.50053

>  <SCORE.INTER>
-2.93816

>  <SCORE.INTER.CONST>
1

>  <SCORE.INTER.POLAR>
0

>  <SCORE.INTER.ROT>
3

>  <SCORE.INTER.SOLV>
12.6491

>  <SCORE.INTER.VDW>
-11.7752

>  <SCORE.INTER.norm>
-0.183635

>  <SCORE.INTRA>
-1.56237

>  <SCORE.INTRA.DIHEDRAL>
-1.89299

>  <SCORE.INTRA.DIHEDRAL.0>
2.05999

>  <SCORE.INTRA.POLAR>
0

>  <SCORE.INTRA.POLAR.0>
0

>  <SCORE.INTRA.REPUL>
0

>  <SCORE.INTRA.REPUL.0>
0

>  <SCORE.INTRA.SOLV>
-0.895223

>  <SCORE.INTRA.SOLV.lig_0>
-58.7001

>  <SCORE.INTRA.VDW>
-0.168267

>  <SCORE.INTRA.VDW.0>
-0.401036

>  <SCORE.INTRA.norm>
-0.0976482

>  <SCORE.RESTR>
0

>  <SCORE.RESTR.CAVITY>
0

>  <SCORE.RESTR.norm>
0

>  <SCORE.SYSTEM>
0

>  <SCORE.SYSTEM.CONST>
0

>  <SCORE.SYSTEM.DIHEDRAL>
0

>  <SCORE.SYSTEM.SOLV>
0

>  <SCORE.SYSTEM.norm>
0

>  <SCORE.heavy>
16

>  <SCORE.norm>
-0.281283

>  <RMSD>
1.144

$$$$
ligand
 OpenBabel11021811463D
libRbt.so/2013.1/901 2013/11/27
 16 16  0  0  0  0  0  0  0  0999 V2000
   51.6146   34.9853   53.6925 P   0  0  2  0  0  0  0  0  0  0  0  0
   51.6659   36.3343   54.3090 O   0  0  0  0  0  0  0  0  0  0  0  0
   52.7654   34.0609   54.3421 O   0  5  0  0  0  0  0  0  0  0  0  0
   51.8550   35.1307   52.0992 O   0  0  0  0  0  0  0  0  0  0  0  0
   46.3536   34.1269   55.6271 C   0  0  2  0  0  0  0  0  0  0  0  0
   46.1747   32.7615   55.1868 O   0  0  0  0  0  0  0  0  0  0  0  0
   45.2153   35.0405   55.0871 C   0  0  2  0  0  0  0  0  0  0  0  0
   43.9112   34.5265   55.5446 N   0  0  0  0  0  0  0  0  0  0  0  0
   45.2718   35.0419   53.5436 C   0  0  1  0  0  0  0  0  0  0  0  0
   44.2337   35.8846   53.0158 O   0  0  0  0  0  0  0  0  0  0  0  0
   46.6542   35.5875   53.1291 C   0  0  2  0  0  0  0  0  0  0  0  0
   46.7460   35.5961   51.6943 O   0  0  0  0  0  0  0  0  0  0  0  0
   47.7481   34.6482   53.7239 C   0  0  2  0  0  0  0  0  0  0  0  0
   47.6586   34.6146   55.1795 O   0  0  0  0  0  0  0  0  0  0  0  0
   49.1565   35.1478   53.3628 C   0  0  0  0  0  0  0  0  0  0  0  0
   50.1624   34.3293   53.9853 O   0  0  0  0  0  0  0  0  0  0  0  0
  1  2  1  1  0  0  0
  1  3  1  0  0  0  0
  1  4  2  0  0  0  0
  1 16  1  0  0  0  0
  5  6  1  6  0  0  0
  5  7  1  0  0  0  0
  5 14  1  0  0  0  0
  7  8  1  6  0  0  0
  7  9  1  0  0  0  0
  9 10  1  6  0  0  0
  9 11  1  0  0  0  0
 11 12  1  6  0  0  0
 11 13  1  0  0  0  0
 13 14  1  0  0  0  0
 13 15  1  1  0  0  0
 15 16  1  0  0  0  0
M  CHG  1   3  -1
M  END
>  <CHROM.1>
176.25187292,-174.46902837,62.34408270,48.28990545,34.86970126,53.93109267
-0.09981116,-0.02998711,2.11223107

>  <Name>
ligand

>  <RI>
0

>  <Rbt.Current_Directory>
/home/itssahil/PROJECTS/Mol_Feturizer/New_Systems/rnas/3B4A

>  <Rbt.Executable>
rbdock ($Id: //depot/dev/client3/rdock/2013.1/src/exe/rbdock.cxx#4 $)

>  <Rbt.Library>
libRbt.so (2013.1, Build901 2013/11/27)

>  <Rbt.Parameter_File>
/export/apps/rDock/src/rDock_2013.1_src/data/scripts/dock_solv.prm

>  <Rbt.Receptor>
prm/pocket_docking_3.prm

>  <SCORE>
-5.81557

>  <SCORE.INTER>
-4.28006

>  <SCORE.INTER.CONST>
1

>  <SCORE.INTER.POLAR>
0

>  <SCORE.INTER.ROT>
3

>  <SCORE.INTER.SOLV>
11.3421

>  <SCORE.INTER.VDW>
-12.2341

>  <SCORE.INTER.norm>
-0.267504

>  <SCORE.INTRA>
-1.53551

>  <SCORE.INTRA.DIHEDRAL>
-1.84901

>  <SCORE.INTRA.DIHEDRAL.0>
2.05999

>  <SCORE.INTRA.POLAR>
0

>  <SCORE.INTRA.POLAR.0>
0

>  <SCORE.INTRA.REPUL>
0

>  <SCORE.INTRA.REPUL.0>
0

>  <SCORE.INTRA.SOLV>
-1.02272

>  <SCORE.INTRA.SOLV.lig_0>
-58.7001

>  <SCORE.INTRA.VDW>
-0.0996481

>  <SCORE.INTRA.VDW.0>
-0.401036

>  <SCORE.INTRA.norm>
-0.0959695

>  <SCORE.RESTR>
0

>  <SCORE.RESTR.CAVITY>
0

>  <SCORE.RESTR.norm>
0

>  <SCORE.SYSTEM>
0

>  <SCORE.SYSTEM.CONST>
0

>  <SCORE.SYSTEM.DIHEDRAL>
0

>  <SCORE.SYSTEM.SOLV>
0

>  <SCORE.SYSTEM.norm>
0

>  <SCORE.heavy>
16

>  <SCORE.norm>
-0.363473

>  <RMSD>
1.144

$$$$
ligand
 OpenBabel11021811463D
libRbt.so/2013.1/901 2013/11/27
 16 16  0  0  0  0  0  0  0  0999 V2000
   52.0119   35.0697   53.5515 P   0  0  2  0  0  0  0  0  0  0  0  0
   52.1108   34.7374   52.1084 O   0  0  0  0  0  0  0  0  0  0  0  0
   52.5826   36.5586   53.7934 O   0  5  0  0  0  0  0  0  0  0  0  0
   52.8841   33.9988   54.3940 O   0  0  0  0  0  0  0  0  0  0  0  0
   46.9646   33.6438   55.9600 C   0  0  2  0  0  0  0  0  0  0  0  0
   46.4627   32.3203   55.6655 O   0  0  0  0  0  0  0  0  0  0  0  0
   46.0850   34.7365   55.2857 C   0  0  2  0  0  0  0  0  0  0  0  0
   44.6925   34.6063   55.7527 N   0  0  0  0  0  0  0  0  0  0  0  0
   46.1496   34.5483   53.7541 C   0  0  1  0  0  0  0  0  0  0  0  0
   45.3500   35.5500   53.1030 O   0  0  0  0  0  0  0  0  0  0  0  0
   47.6254   34.6950   53.3290 C   0  0  2  0  0  0  0  0  0  0  0  0
   47.7253   34.5178   51.9057 O   0  0  0  0  0  0  0  0  0  0  0  0
   48.4553   33.5945   54.0590 C   0  0  2  0  0  0  0  0  0  0  0  0
   48.3516   33.7494   55.5057 O   0  0  0  0  0  0  0  0  0  0  0  0
   49.9450   33.6966   53.6928 C   0  0  0  0  0  0  0  0  0  0  0  0
   50.4562   35.0058   53.9994 O   0  0  0  0  0  0  0  0  0  0  0  0
  1  2  1  6  0  0  0
  1  3  1  0  0  0  0
  1  4  2  0  0  0  0
  1 16  1  0  0  0  0
  5  6  1  6  0  0  0
  5  7  1  0  0  0  0
  5 14  1  0  0  0  0
  7  8  1  1  0  0  0
  7  9  1  0  0  0  0
  9 10  1  6  0  0  0
  9 11  1  0  0  0  0
 11 12  1  6  0  0  0
 11 13  1  0  0  0  0
 13 14  1  0  0  0  0
 13 15  1  6  0  0  0
 15 16  1  0  0  0  0
M  CHG  1   3  -1
M  END
>  <CHROM.1>
56.68278387,-178.25352531,56.85754685,48.93033594,34.49281050,54.05170105
-0.23626758,0.00726074,2.11416831

>  <Name>
ligand

>  <RI>
0

>  <Rbt.Current_Directory>
/home/itssahil/PROJECTS/Mol_Feturizer/New_Systems/rnas/3B4A

>  <Rbt.Executable>
rbdock ($Id: //depot/dev/client3/rdock/2013.1/src/exe/rbdock.cxx#4 $)

>  <Rbt.Library>
libRbt.so (2013.1, Build901 2013/11/27)

>  <Rbt.Parameter_File>
/export/apps/rDock/src/rDock_2013.1_src/data/scripts/dock_solv.prm

>  <Rbt.Receptor>
prm/pocket_docking_2.prm

>  <SCORE>
-4.5374

>  <SCORE.INTER>
-2.92423

>  <SCORE.INTER.CONST>
1

>  <SCORE.INTER.POLAR>
0

>  <SCORE.INTER.ROT>
3

>  <SCORE.INTER.SOLV>
12.794

>  <SCORE.INTER.VDW>
-11.8141

>  <SCORE.INTER.norm>
-0.182764

>  <SCORE.INTRA>
-1.61317

>  <SCORE.INTRA.DIHEDRAL>
-1.98769

>  <SCORE.INTRA.DIHEDRAL.0>
2.05999

>  <SCORE.INTRA.POLAR>
0

>  <SCORE.INTRA.POLAR.0>
0

>  <SCORE.INTRA.REPUL>
0

>  <SCORE.INTRA.REPUL.0>
0

>  <SCORE.INTRA.SOLV>
-0.89306

>  <SCORE.INTRA.SOLV.lig_0>
-58.7001

>  <SCORE.INTRA.VDW>
-0.172791

>  <SCORE.INTRA.VDW.0>
-0.401036

>  <SCORE.INTRA.norm>
-0.100823

>  <SCORE.RESTR>
0

>  <SCORE.RESTR.CAVITY>
0

>  <SCORE.RESTR.norm>
0

>  <SCORE.SYSTEM>
0

>  <SCORE.SYSTEM.CONST>
0

>  <SCORE.SYSTEM.DIHEDRAL>
0

>  <SCORE.SYSTEM.SOLV>
0

>  <SCORE.SYSTEM.norm>
0

>  <SCORE.heavy>
16

>  <SCORE.norm>
-0.283587

>  <RMSD>
1.149

$$$$
ligand
 OpenBabel11021811463D
libRbt.so/2013.1/901 2013/11/27
 16 16  0  0  0  0  0  0  0  0999 V2000
   51.6833   35.3563   53.0863 P   0  0  2  0  0  0  0  0  0  0  0  0
   52.7185   34.2972   52.9900 O   0  0  0  0  0  0  0  0  0  0  0  0
   50.9473   35.5102   51.6595 O   0  5  0  0  0  0  0  0  0  0  0  0
   52.3987   36.7491   53.4932 O   0  0  0  0  0  0  0  0  0  0  0  0
   46.8997   33.6450   55.8372 C   0  0  2  0  0  0  0  0  0  0  0  0
   46.4053   32.3282   55.5029 O   0  0  0  0  0  0  0  0  0  0  0  0
   46.1175   34.7469   55.0652 C   0  0  2  0  0  0  0  0  0  0  0  0
   44.6814   34.6479   55.3845 N   0  0  0  0  0  0  0  0  0  0  0  0
   46.3384   34.5416   53.5504 C   0  0  1  0  0  0  0  0  0  0  0  0
   45.6315   35.5513   52.8106 O   0  0  0  0  0  0  0  0  0  0  0  0
   47.8533   34.6560   53.2814 C   0  0  2  0  0  0  0  0  0  0  0  0
   48.0982   34.4620   51.8779 O   0  0  0  0  0  0  0  0  0  0  0  0
   48.5802   33.5477   54.1037 C   0  0  2  0  0  0  0  0  0  0  0  0
   48.3285   33.7197   55.5302 O   0  0  0  0  0  0  0  0  0  0  0  0
   50.1017   33.6180   53.8951 C   0  0  0  0  0  0  0  0  0  0  0  0
   50.5993   34.9299   54.2123 O   0  0  0  0  0  0  0  0  0  0  0  0
  1  2  1  6  0  0  0
  1  3  1  0  0  0  0
  1  4  2  0  0  0  0
  1 16  1  0  0  0  0
  5  6  1  6  0  0  0
  5  7  1  0  0  0  0
  5 14  1  0  0  0  0
  7  8  1  6  0  0  0
  7  9  1  0  0  0  0
  9 10  1  6  0  0  0
  9 11  1  0  0  0  0
 11 12  1  6  0  0  0
 11 13  1  0  0  0  0
 13 14  1  0  0  0  0
 13 15  1  1  0  0  0
 15 16  1  0  0  0  0
M  CHG  1   3  -1
M  END
>  <CHROM.1>
55.31938419,-137.70755780,-54.01896206,48.87383999,34.59218138,53.80472886
0.34985561,-0.00311620,-0.96584915

>  <Name>
ligand

>  <RI>
0

>  <Rbt.Current_Directory>
/home/itssahil/PROJECTS/Mol_Feturizer/New_Systems/rnas/3B4A

>  <Rbt.Executable>
rbdock ($Id: //depot/dev/client3/rdock/2013.1/src/exe/rbdock.cxx#4 $)

>  <Rbt.Library>
libRbt.so (2013.1, Build901 2013/11/27)

>  <Rbt.Parameter_File>
/export/apps/rDock/src/rDock_2013.1_src/data/scripts/dock_solv.prm

>  <Rbt.Receptor>
prm/pocket_docking_2.prm

>  <SCORE>
-0.955911

>  <SCORE.INTER>
-2.99538

>  <SCORE.INTER.CONST>
1

>  <SCORE.INTER.POLAR>
0

>  <SCORE.INTER.ROT>
3

>  <SCORE.INTER.SOLV>
10.4969

>  <SCORE.INTER.VDW>
-11.0959

>  <SCORE.INTER.norm>
-0.187211

>  <SCORE.INTRA>
2.03946

>  <SCORE.INTRA.DIHEDRAL>
3.8388

>  <SCORE.INTRA.DIHEDRAL.0>
2.05999

>  <SCORE.INTRA.POLAR>
0

>  <SCORE.INTRA.POLAR.0>
0

>  <SCORE.INTRA.REPUL>
0

>  <SCORE.INTRA.REPUL.0>
0

>  <SCORE.INTRA.SOLV>
1.15316

>  <SCORE.INTRA.SOLV.lig_0>
-58.7001

>  <SCORE.INTRA.VDW>
-0.456515

>  <SCORE.INTRA.VDW.0>
-0.401036

>  <SCORE.INTRA.norm>
0.127467

>  <SCORE.RESTR>
0

>  <SCORE.RESTR.CAVITY>
0

>  <SCORE.RESTR.norm>
0

>  <SCORE.SYSTEM>
0

>  <SCORE.SYSTEM.CONST>
0

>  <SCORE.SYSTEM.DIHEDRAL>
0

>  <SCORE.SYSTEM.SOLV>
0

>  <SCORE.SYSTEM.norm>
0

>  <SCORE.heavy>
16

>  <SCORE.norm>
-0.0597445

>  <RMSD>
1.155

$$$$
ligand
 OpenBabel11021811463D
libRbt.so/2013.1/901 2013/11/27
 16 16  0  0  0  0  0  0  0  0999 V2000
   52.0960   35.1180   53.7079 P   0  0  2  0  0  0  0  0  0  0  0  0
   52.2352   34.9219   52.2434 O   0  0  0  0  0  0  0  0  0  0  0  0
   52.7151   36.5512   54.1125 O   0  5  0  0  0  0  0  0  0  0  0  0
   52.8939   33.9351   54.4704 O   0  0  0  0  0  0  0  0  0  0  0  0
   46.9097   33.6668   55.8343 C   0  0  2  0  0  0  0  0  0  0  0  0
   46.3703   32.3990   55.3963 O   0  0  0  0  0  0  0  0  0  0  0  0
   46.1046   34.8538   55.2303 C   0  0  2  0  0  0  0  0  0  0  0  0
   44.6885   34.7412   55.6254 N   0  0  0  0  0  0  0  0  0  0  0  0
   46.2304   34.8052   53.6917 C   0  0  1  0  0  0  0  0  0  0  0  0
   45.5006   35.8962   53.1054 O   0  0  0  0  0  0  0  0  0  0  0  0
   47.7285   34.9268   53.3432 C   0  0  2  0  0  0  0  0  0  0  0  0
   47.8851   34.8776   51.9148 O   0  0  0  0  0  0  0  0  0  0  0  0
   48.4812   33.7290   53.9999 C   0  0  2  0  0  0  0  0  0  0  0  0
   48.3188   33.7541   55.4493 O   0  0  0  0  0  0  0  0  0  0  0  0
   49.9887   33.8003   53.7064 C   0  0  0  0  0  0  0  0  0  0  0  0
   50.5235   35.0777   54.0958 O   0  0  0  0  0  0  0  0  0  0  0  0
  1  2  1  6  0  0  0
  1  3  1  0  0  0  0
  1  4  2  0  0  0  0
  1 16  1  0  0  0  0
  5  6  1  6  0  0  0
  5  7  1  0  0  0  0
  5 14  1  0  0  0  0
  7  8  1  6  0  0  0
  7  9  1  0  0  0  0
  9 10  1  6  0  0  0
  9 11  1  0  0  0  0
 11 12  1  6  0  0  0
 11 13  1  0  0  0  0
 13 14  1  0  0  0  0
 13 15  1  1  0  0  0
 15 16  1  0  0  0  0
M  CHG  1   3  -1
M  END
>  <CHROM.1>
53.86857328,-177.67147194,59.69077750,48.98483994,34.61329574,54.06958085
-0.19208119,-0.00790190,2.21463919

>  <Name>
ligand

>  <RI>
0

>  <Rbt.Current_Directory>
/home/itssahil/PROJECTS/Mol_Feturizer/New_Systems/rnas/3B4A

>  <Rbt.Executable>
rbdock ($Id: //depot/dev/client3/rdock/2013.1/src/exe/rbdock.cxx#4 $)

>  <Rbt.Library>
libRbt.so (2013.1, Build901 2013/11/27)

>  <Rbt.Parameter_File>
/export/apps/rDock/src/rDock_2013.1_src/data/scripts/dock_solv.prm

>  <Rbt.Receptor>
prm/pocket_docking_3.prm

>  <SCORE>
-4.63398

>  <SCORE.INTER>
-3.06643

>  <SCORE.INTER.CONST>
1

>  <SCORE.INTER.POLAR>
0

>  <SCORE.INTER.ROT>
3

>  <SCORE.INTER.SOLV>
12.6035

>  <SCORE.INTER.VDW>
-11.8455

>  <SCORE.INTER.norm>
-0.191652

>  <SCORE.INTRA>
-1.56755

>  <SCORE.INTRA.DIHEDRAL>
-1.89768

>  <SCORE.INTRA.DIHEDRAL.0>
2.05999

>  <SCORE.INTRA.POLAR>
0

>  <SCORE.INTRA.POLAR.0>
0

>  <SCORE.INTRA.REPUL>
0

>  <SCORE.INTRA.REPUL.0>
0

>  <SCORE.INTRA.SOLV>
-0.866025

>  <SCORE.INTRA.SOLV.lig_0>
-58.7001

>  <SCORE.INTRA.VDW>
-0.1857

>  <SCORE.INTRA.VDW.0>
-0.401036

>  <SCORE.INTRA.norm>
-0.0979721

>  <SCORE.RESTR>
0

>  <SCORE.RESTR.CAVITY>
0

>  <SCORE.RESTR.norm>
0

>  <SCORE.SYSTEM>
0

>  <SCORE.SYSTEM.CONST>
0

>  <SCORE.SYSTEM.DIHEDRAL>
0

>  <SCORE.SYSTEM.SOLV>
0

>  <SCORE.SYSTEM.norm>
0

>  <SCORE.heavy>
16

>  <SCORE.norm>
-0.289624

>  <RMSD>
1.195

$$$$
ligand
 OpenBabel11021811463D
libRbt.so/2013.1/901 2013/11/27
 16 16  0  0  0  0  0  0  0  0999 V2000
   51.6020   34.9798   53.6684 P   0  0  2  0  0  0  0  0  0  0  0  0
   51.6950   36.2702   54.3955 O   0  0  0  0  0  0  0  0  0  0  0  0
   52.7419   33.9788   54.2159 O   0  5  0  0  0  0  0  0  0  0  0  0
   51.8187   35.2546   52.0889 O   0  0  0  0  0  0  0  0  0  0  0  0
   46.3632   34.0655   55.6144 C   0  0  2  0  0  0  0  0  0  0  0  0
   46.1358   32.7512   55.0566 O   0  0  0  0  0  0  0  0  0  0  0  0
   45.2399   35.0544   55.1872 C   0  0  2  0  0  0  0  0  0  0  0  0
   43.9320   34.5354   55.6279 N   0  0  0  0  0  0  0  0  0  0  0  0
   45.2628   35.1951   53.6493 C   0  0  1  0  0  0  0  0  0  0  0  0
   44.2379   36.1097   53.2255 O   0  0  0  0  0  0  0  0  0  0  0  0
   46.6508   35.7395   53.2525 C   0  0  2  0  0  0  0  0  0  0  0  0
   46.7114   35.8766   51.8225 O   0  0  0  0  0  0  0  0  0  0  0  0
   47.7301   34.7213   53.7329 C   0  0  2  0  0  0  0  0  0  0  0  0
   47.6716   34.5573   55.1812 O   0  0  0  0  0  0  0  0  0  0  0  0
   49.1440   35.2143   53.3844 C   0  0  0  0  0  0  0  0  0  0  0  0
   50.1402   34.3328   53.9321 O   0  0  0  0  0  0  0  0  0  0  0  0
  1  2  1  1  0  0  0
  1  3  1  0  0  0  0
  1  4  2  0  0  0  0
  1 16  1  0  0  0  0
  5  6  1  6  0  0  0
  5  7  1  0  0  0  0
  5 14  1  0  0  0  0
  7  8  1  6  0  0  0
  7  9  1  0  0  0  0
  9 10  1  1  0  0  0
  9 11  1  0  0  0  0
 11 12  1  6  0  0  0
 11 13  1  0  0  0  0
 13 14  1  0  0  0  0
 13 15  1  1  0  0  0
 15 16  1  0  0  0  0
M  CHG  1   3  -1
M  END
>  <CHROM.1>
174.91063178,-174.18882444,63.09121364,48.28208542,34.91690645,53.95750836
-0.10187406,-0.05998960,2.20244094

>  <Name>
ligand

>  <RI>
0

>  <Rbt.Current_Directory>
/home/itssahil/PROJECTS/Mol_Feturizer/New_Systems/rnas/3B4A

>  <Rbt.Executable>
rbdock ($Id: //depot/dev/client3/rdock/2013.1/src/exe/rbdock.cxx#4 $)

>  <Rbt.Library>
libRbt.so (2013.1, Build901 2013/11/27)

>  <Rbt.Parameter_File>
/export/apps/rDock/src/rDock_2013.1_src/data/scripts/dock_solv.prm

>  <Rbt.Receptor>
prm/pocket_docking_3.prm

>  <SCORE>
-5.84794

>  <SCORE.INTER>
-4.35402

>  <SCORE.INTER.CONST>
1

>  <SCORE.INTER.POLAR>
0

>  <SCORE.INTER.ROT>
3

>  <SCORE.INTER.SOLV>
11.3027

>  <SCORE.INTER.VDW>
-12.2702

>  <SCORE.INTER.norm>
-0.272126

>  <SCORE.INTRA>
-1.49392

>  <SCORE.INTRA.DIHEDRAL>
-1.78479

>  <SCORE.INTRA.DIHEDRAL.0>
2.05999

>  <SCORE.INTRA.POLAR>
0

>  <SCORE.INTRA.POLAR.0>
0

>  <SCORE.INTRA.REPUL>
0

>  <SCORE.INTRA.REPUL.0>
0

>  <SCORE.INTRA.SOLV>
-1.01054

>  <SCORE.INTRA.SOLV.lig_0>
-58.7001

>  <SCORE.INTRA.VDW>
-0.0962581

>  <SCORE.INTRA.VDW.0>
-0.401036

>  <SCORE.INTRA.norm>
-0.0933702

>  <SCORE.RESTR>
0

>  <SCORE.RESTR.CAVITY>
0

>  <SCORE.RESTR.norm>
0

>  <SCORE.SYSTEM>
0

>  <SCORE.SYSTEM.CONST>
0

>  <SCORE.SYSTEM.DIHEDRAL>
0

>  <SCORE.SYSTEM.SOLV>
0

>  <SCORE.SYSTEM.norm>
0

>  <SCORE.heavy>
16

>  <SCORE.norm>
-0.365496

>  <RMSD>
1.208

$$$$
ligand
 OpenBabel11021811463D
libRbt.so/2013.1/901 2013/11/27
 16 16  0  0  0  0  0  0  0  0999 V2000
   51.0439   36.2512   52.9768 P   0  0  2  0  0  0  0  0  0  0  0  0
   51.4728   37.5908   53.4502 O   0  0  0  0  0  0  0  0  0  0  0  0
   52.0126   35.1289   53.6117 O   0  5  0  0  0  0  0  0  0  0  0  0
   51.1376   36.2141   51.3622 O   0  0  0  0  0  0  0  0  0  0  0  0
   46.4445   34.1341   55.6245 C   0  0  2  0  0  0  0  0  0  0  0  0
   46.1274   32.7487   55.3596 O   0  0  0  0  0  0  0  0  0  0  0  0
   45.3449   35.0766   55.0546 C   0  0  2  0  0  0  0  0  0  0  0  0
   44.0415   34.7313   55.6514 N   0  0  0  0  0  0  0  0  0  0  0  0
   45.2883   34.9008   53.5212 C   0  0  1  0  0  0  0  0  0  0  0  0
   44.2836   35.7658   52.9653 O   0  0  0  0  0  0  0  0  0  0  0  0
   46.6751   35.2754   52.9584 C   0  0  2  0  0  0  0  0  0  0  0  0
   46.6621   35.1160   51.5295 O   0  0  0  0  0  0  0  0  0  0  0  0
   47.7326   34.3175   53.5883 C   0  0  2  0  0  0  0  0  0  0  0  0
   47.7475   34.4544   55.0405 O   0  0  0  0  0  0  0  0  0  0  0  0
   49.1456   34.6503   53.0822 C   0  0  0  0  0  0  0  0  0  0  0  0
   49.5197   35.9873   53.4587 O   0  0  0  0  0  0  0  0  0  0  0  0
  1  2  1  1  0  0  0
  1  3  1  0  0  0  0
  1  4  2  0  0  0  0
  1 16  1  0  0  0  0
  5  6  1  6  0  0  0
  5  7  1  0  0  0  0
  5 14  1  0  0  0  0
  7  8  1  1  0  0  0
  7  9  1  0  0  0  0
  9 10  1  6  0  0  0
  9 11  1  0  0  0  0
 11 12  1  6  0  0  0
 11 13  1  0  0  0  0
 13 14  1  0  0  0  0
 13 15  1  6  0  0  0
 15 16  1  0  0  0  0
M  CHG  1   3  -1
M  END
>  <CHROM.1>
61.61406296,176.71980578,-175.81148035,48.09308834,35.24320578,53.62210926
-0.35390066,0.10468262,2.09034642

>  <Name>
ligand

>  <RI>
0

>  <Rbt.Current_Directory>
/home/itssahil/PROJECTS/Mol_Feturizer/New_Systems/rnas/3B4A

>  <Rbt.Executable>
rbdock ($Id: //depot/dev/client3/rdock/2013.1/src/exe/rbdock.cxx#4 $)

>  <Rbt.Library>
libRbt.so (2013.1, Build901 2013/11/27)

>  <Rbt.Parameter_File>
/export/apps/rDock/src/rDock_2013.1_src/data/scripts/dock_solv.prm

>  <Rbt.Receptor>
prm/pocket_docking_3.prm

>  <SCORE>
-5.44098

>  <SCORE.INTER>
-3.98494

>  <SCORE.INTER.CONST>
1

>  <SCORE.INTER.POLAR>
0

>  <SCORE.INTER.ROT>
3

>  <SCORE.INTER.SOLV>
11.195

>  <SCORE.INTER.VDW>
-11.9883

>  <SCORE.INTER.norm>
-0.249059

>  <SCORE.INTRA>
-1.45604

>  <SCORE.INTRA.DIHEDRAL>
-1.96583

>  <SCORE.INTRA.DIHEDRAL.0>
2.05999

>  <SCORE.INTRA.POLAR>
0

>  <SCORE.INTRA.POLAR.0>
0

>  <SCORE.INTRA.REPUL>
0

>  <SCORE.INTRA.REPUL.0>
0

>  <SCORE.INTRA.SOLV>
-0.201381

>  <SCORE.INTRA.SOLV.lig_0>
-58.7001

>  <SCORE.INTRA.VDW>
-0.372437

>  <SCORE.INTRA.VDW.0>
-0.401036

>  <SCORE.INTRA.norm>
-0.0910026

>  <SCORE.RESTR>
0

>  <SCORE.RESTR.CAVITY>
0

>  <SCORE.RESTR.norm>
0

>  <SCORE.SYSTEM>
0

>  <SCORE.SYSTEM.CONST>
0

>  <SCORE.SYSTEM.DIHEDRAL>
0

>  <SCORE.SYSTEM.SOLV>
0

>  <SCORE.SYSTEM.norm>
0

>  <SCORE.heavy>
16

>  <SCORE.norm>
-0.340062

>  <RMSD>
1.241

$$$$
ligand
 OpenBabel11021811463D
libRbt.so/2013.1/901 2013/11/27
 16 16  0  0  0  0  0  0  0  0999 V2000
   50.9374   36.4024   53.0222 P   0  0  2  0  0  0  0  0  0  0  0  0
   51.2269   37.8196   53.3540 O   0  0  0  0  0  0  0  0  0  0  0  0
   51.9666   35.4500   53.8190 O   0  5  0  0  0  0  0  0  0  0  0  0
   51.1120   36.1941   51.4274 O   0  0  0  0  0  0  0  0  0  0  0  0
   46.4357   34.1289   55.7348 C   0  0  2  0  0  0  0  0  0  0  0  0
   46.2310   32.7074   55.5683 O   0  0  0  0  0  0  0  0  0  0  0  0
   45.2911   34.9398   55.0607 C   0  0  2  0  0  0  0  0  0  0  0  0
   43.9959   34.5421   55.6424 N   0  0  0  0  0  0  0  0  0  0  0  0
   45.3030   34.6461   53.5444 C   0  0  1  0  0  0  0  0  0  0  0  0
   44.2583   35.3883   52.8931 O   0  0  0  0  0  0  0  0  0  0  0  0
   46.6780   35.0818   52.9968 C   0  0  2  0  0  0  0  0  0  0  0  0
   46.7283   34.8154   51.5848 O   0  0  0  0  0  0  0  0  0  0  0  0
   47.7795   34.2568   53.7307 C   0  0  2  0  0  0  0  0  0  0  0  0
   47.7319   34.5026   55.1678 O   0  0  0  0  0  0  0  0  0  0  0  0
   49.1817   34.6572   53.2436 C   0  0  0  0  0  0  0  0  0  0  0  0
   49.4198   36.0573   53.4724 O   0  0  0  0  0  0  0  0  0  0  0  0
  1  2  1  1  0  0  0
  1  3  1  0  0  0  0
  1  4  2  0  0  0  0
  1 16  1  0  0  0  0
  5  6  1  6  0  0  0
  5  7  1  0  0  0  0
  5 14  1  0  0  0  0
  7  8  1  1  0  0  0
  7  9  1  0  0  0  0
  9 10  1  6  0  0  0
  9 11  1  0  0  0  0
 11 12  1  6  0  0  0
 11 13  1  0  0  0  0
 13 14  1  0  0  0  0
 13 15  1  6  0  0  0
 15 16  1  0  0  0  0
M  CHG  1   3  -1
M  END
>  <CHROM.1>
59.02854797,176.70784705,-175.58299912,48.06126644,35.21351439,53.68502357
-0.37074434,0.18444081,2.01910463

>  <Name>
ligand

>  <RI>
0

>  <Rbt.Current_Directory>
/home/itssahil/PROJECTS/Mol_Feturizer/New_Systems/rnas/3B4A

>  <Rbt.Executable>
rbdock ($Id: //depot/dev/client3/rdock/2013.1/src/exe/rbdock.cxx#4 $)

>  <Rbt.Library>
libRbt.so (2013.1, Build901 2013/11/27)

>  <Rbt.Parameter_File>
/export/apps/rDock/src/rDock_2013.1_src/data/scripts/dock_solv.prm

>  <Rbt.Receptor>
prm/pocket_docking_4.prm

>  <SCORE>
-5.45

>  <SCORE.INTER>
-4.00292

>  <SCORE.INTER.CONST>
1

>  <SCORE.INTER.POLAR>
0

>  <SCORE.INTER.ROT>
3

>  <SCORE.INTER.SOLV>
12.3862

>  <SCORE.INTER.VDW>
-12.3973

>  <SCORE.INTER.norm>
-0.250183

>  <SCORE.INTRA>
-1.44708

>  <SCORE.INTRA.DIHEDRAL>
-1.969

>  <SCORE.INTRA.DIHEDRAL.0>
2.05999

>  <SCORE.INTRA.POLAR>
0

>  <SCORE.INTRA.POLAR.0>
0

>  <SCORE.INTRA.REPUL>
0

>  <SCORE.INTRA.REPUL.0>
0

>  <SCORE.INTRA.SOLV>
-0.199119

>  <SCORE.INTRA.SOLV.lig_0>
-58.7001

>  <SCORE.INTRA.VDW>
-0.36302

>  <SCORE.INTRA.VDW.0>
-0.401036

>  <SCORE.INTRA.norm>
-0.0904424

>  <SCORE.RESTR>
0

>  <SCORE.RESTR.CAVITY>
0

>  <SCORE.RESTR.norm>
0

>  <SCORE.SYSTEM>
0

>  <SCORE.SYSTEM.CONST>
0

>  <SCORE.SYSTEM.DIHEDRAL>
0

>  <SCORE.SYSTEM.SOLV>
0

>  <SCORE.SYSTEM.norm>
0

>  <SCORE.heavy>
16

>  <SCORE.norm>
-0.340625

>  <RMSD>
1.241

$$$$
ligand
 OpenBabel11021811463D
libRbt.so/2013.1/901 2013/11/27
 16 16  0  0  0  0  0  0  0  0999 V2000
   51.7362   34.4392   54.0721 P   0  0  2  0  0  0  0  0  0  0  0  0
   52.5109   35.5946   54.5893 O   0  0  0  0  0  0  0  0  0  0  0  0
   52.1365   33.1168   54.9040 O   0  5  0  0  0  0  0  0  0  0  0  0
   52.0870   34.2354   52.5060 O   0  0  0  0  0  0  0  0  0  0  0  0
   46.1996   34.2175   55.6804 C   0  0  2  0  0  0  0  0  0  0  0  0
   45.4645   33.0341   55.2937 O   0  0  0  0  0  0  0  0  0  0  0  0
   45.6943   35.4669   54.9021 C   0  0  2  0  0  0  0  0  0  0  0  0
   44.2546   35.6580   55.1570 N   0  0  0  0  0  0  0  0  0  0  0  0
   45.9398   35.2431   53.3938 C   0  0  1  0  0  0  0  0  0  0  0  0
   45.4879   36.3865   52.6487 O   0  0  0  0  0  0  0  0  0  0  0  0
   47.4573   35.0503   53.1928 C   0  0  2  0  0  0  0  0  0  0  0  0
   47.7233   34.8312   51.7969 O   0  0  0  0  0  0  0  0  0  0  0  0
   47.9048   33.8053   54.0188 C   0  0  2  0  0  0  0  0  0  0  0  0
   47.6266   34.0039   55.4369 O   0  0  0  0  0  0  0  0  0  0  0  0
   49.4170   33.5670   53.8775 C   0  0  0  0  0  0  0  0  0  0  0  0
   50.1555   34.7406   54.2605 O   0  0  0  0  0  0  0  0  0  0  0  0
  1  2  1  1  0  0  0
  1  3  1  0  0  0  0
  1  4  2  0  0  0  0
  1 16  1  0  0  0  0
  5  6  1  6  0  0  0
  5  7  1  0  0  0  0
  5 14  1  0  0  0  0
  7  8  1  6  0  0  0
  7  9  1  0  0  0  0
  9 10  1  6  0  0  0
  9 11  1  0  0  0  0
 11 12  1  6  0  0  0
 11 13  1  0  0  0  0
 13 14  1  0  0  0  0
 13 15  1  1  0  0  0
 15 16  1  0  0  0  0
M  CHG  1   3  -1
M  END
>  <CHROM.1>
55.92434654,-179.21237797,-174.52341364,48.56180741,34.56760498,54.09186953
0.00532192,-0.11402385,2.10594257

>  <Name>
ligand

>  <RI>
0

>  <Rbt.Current_Directory>
/home/itssahil/PROJECTS/Mol_Feturizer/New_Systems/rnas/3B4A

>  <Rbt.Executable>
rbdock ($Id: //depot/dev/client3/rdock/2013.1/src/exe/rbdock.cxx#4 $)

>  <Rbt.Library>
libRbt.so (2013.1, Build901 2013/11/27)

>  <Rbt.Parameter_File>
/export/apps/rDock/src/rDock_2013.1_src/data/scripts/dock_solv.prm

>  <Rbt.Receptor>
prm/pocket_docking_3.prm

>  <SCORE>
-4.92437

>  <SCORE.INTER>
-3.50527

>  <SCORE.INTER.CONST>
1

>  <SCORE.INTER.POLAR>
0

>  <SCORE.INTER.ROT>
3

>  <SCORE.INTER.SOLV>
12.2756

>  <SCORE.INTER.VDW>
-12.0287

>  <SCORE.INTER.norm>
-0.21908

>  <SCORE.INTRA>
-1.4191

>  <SCORE.INTRA.DIHEDRAL>
-1.9467

>  <SCORE.INTRA.DIHEDRAL.0>
2.05999

>  <SCORE.INTRA.POLAR>
0

>  <SCORE.INTRA.POLAR.0>
0

>  <SCORE.INTRA.REPUL>
0

>  <SCORE.INTRA.REPUL.0>
0

>  <SCORE.INTRA.SOLV>
-0.200466

>  <SCORE.INTRA.SOLV.lig_0>
-58.7001

>  <SCORE.INTRA.VDW>
-0.345513

>  <SCORE.INTRA.VDW.0>
-0.401036

>  <SCORE.INTRA.norm>
-0.0886935

>  <SCORE.RESTR>
0

>  <SCORE.RESTR.CAVITY>
0

>  <SCORE.RESTR.norm>
0

>  <SCORE.SYSTEM>
0

>  <SCORE.SYSTEM.CONST>
0

>  <SCORE.SYSTEM.DIHEDRAL>
0

>  <SCORE.SYSTEM.SOLV>
0

>  <SCORE.SYSTEM.norm>
0

>  <SCORE.heavy>
16

>  <SCORE.norm>
-0.307773

>  <RMSD>
1.246

$$$$
ligand
 OpenBabel11021811463D
libRbt.so/2013.1/901 2013/11/27
 16 16  0  0  0  0  0  0  0  0999 V2000
   51.3835   35.4351   53.1205 P   0  0  2  0  0  0  0  0  0  0  0  0
   52.2204   34.9682   54.2537 O   0  0  0  0  0  0  0  0  0  0  0  0
   51.7079   34.5413   51.8178 O   0  5  0  0  0  0  0  0  0  0  0  0
   51.7254   36.9885   52.8252 O   0  0  0  0  0  0  0  0  0  0  0  0
   46.5384   34.0900   55.8917 C   0  0  2  0  0  0  0  0  0  0  0  0
   46.2677   32.6814   56.0724 O   0  0  0  0  0  0  0  0  0  0  0  0
   45.5110   34.7346   54.9165 C   0  0  2  0  0  0  0  0  0  0  0  0
   44.1461   34.5433   55.4408 N   0  0  0  0  0  0  0  0  0  0  0  0
   45.6473   34.0573   53.5352 C   0  0  1  0  0  0  0  0  0  0  0  0
   44.7129   34.6382   52.6100 O   0  0  0  0  0  0  0  0  0  0  0  0
   47.0904   34.2916   53.0424 C   0  0  2  0  0  0  0  0  0  0  0  0
   47.2568   33.6664   51.7584 O   0  0  0  0  0  0  0  0  0  0  0  0
   48.0687   33.6503   54.0741 C   0  0  2  0  0  0  0  0  0  0  0  0
   47.9015   34.2620   55.3878 O   0  0  0  0  0  0  0  0  0  0  0  0
   49.5311   33.8653   53.6514 C   0  0  0  0  0  0  0  0  0  0  0  0
   49.8217   35.2678   53.5176 O   0  0  0  0  0  0  0  0  0  0  0  0
  1  2  1  1  0  0  0
  1  3  1  0  0  0  0
  1  4  2  0  0  0  0
  1 16  1  0  0  0  0
  5  6  1  6  0  0  0
  5  7  1  0  0  0  0
  5 14  1  0  0  0  0
  7  8  1  1  0  0  0
  7  9  1  0  0  0  0
  9 10  1  6  0  0  0
  9 11  1  0  0  0  0
 11 12  1  6  0  0  0
 11 13  1  0  0  0  0
 13 14  1  0  0  0  0
 13 15  1  6  0  0  0
 15 16  1  0  0  0  0
M  CHG  1   3  -1
M  END
>  <CHROM.1>
58.05665123,178.13176588,-65.85490617,48.40106973,34.55975811,53.78954700
-0.27499317,0.17511247,1.73955802

>  <Name>
ligand

>  <RI>
0

>  <Rbt.Current_Directory>
/home/itssahil/PROJECTS/Mol_Feturizer/New_Systems/rnas/3B4A

>  <Rbt.Executable>
rbdock ($Id: //depot/dev/client3/rdock/2013.1/src/exe/rbdock.cxx#4 $)

>  <Rbt.Library>
libRbt.so (2013.1, Build901 2013/11/27)

>  <Rbt.Parameter_File>
/export/apps/rDock/src/rDock_2013.1_src/data/scripts/dock_solv.prm

>  <Rbt.Receptor>
prm/pocket_docking_2.prm

>  <SCORE>
-4.65524

>  <SCORE.INTER>
-3.06535

>  <SCORE.INTER.CONST>
1

>  <SCORE.INTER.POLAR>
0

>  <SCORE.INTER.ROT>
3

>  <SCORE.INTER.SOLV>
11.9042

>  <SCORE.INTER.VDW>
-11.6116

>  <SCORE.INTER.norm>
-0.191585

>  <SCORE.INTRA>
-1.58989

>  <SCORE.INTRA.DIHEDRAL>
-1.97152

>  <SCORE.INTRA.DIHEDRAL.0>
2.05999

>  <SCORE.INTRA.POLAR>
0

>  <SCORE.INTRA.POLAR.0>
0

>  <SCORE.INTRA.REPUL>
0

>  <SCORE.INTRA.REPUL.0>
0

>  <SCORE.INTRA.SOLV>
-0.792113

>  <SCORE.INTRA.SOLV.lig_0>
-58.7001

>  <SCORE.INTRA.VDW>
-0.208071

>  <SCORE.INTRA.VDW.0>
-0.401036

>  <SCORE.INTRA.norm>
-0.0993679

>  <SCORE.RESTR>
0

>  <SCORE.RESTR.CAVITY>
0

>  <SCORE.RESTR.norm>
0

>  <SCORE.SYSTEM>
0

>  <SCORE.SYSTEM.CONST>
0

>  <SCORE.SYSTEM.DIHEDRAL>
0

>  <SCORE.SYSTEM.SOLV>
0

>  <SCORE.SYSTEM.norm>
0

>  <SCORE.heavy>
16

>  <SCORE.norm>
-0.290953

>  <RMSD>
1.247

$$$$
ligand
 OpenBabel11021811463D
libRbt.so/2013.1/901 2013/11/27
 16 16  0  0  0  0  0  0  0  0999 V2000
   51.6100   34.8109   53.6661 P   0  0  2  0  0  0  0  0  0  0  0  0
   51.7739   36.1017   54.3799 O   0  0  0  0  0  0  0  0  0  0  0  0
   52.7120   33.7634   54.2042 O   0  5  0  0  0  0  0  0  0  0  0  0
   51.8128   35.0623   52.0809 O   0  0  0  0  0  0  0  0  0  0  0  0
   46.3799   34.0262   55.6867 C   0  0  2  0  0  0  0  0  0  0  0  0
   46.0686   32.7653   55.0516 O   0  0  0  0  0  0  0  0  0  0  0  0
   45.3005   35.0979   55.3573 C   0  0  2  0  0  0  0  0  0  0  0  0
   43.9784   34.6190   55.8010 N   0  0  0  0  0  0  0  0  0  0  0  0
   45.2917   35.3390   53.8318 C   0  0  1  0  0  0  0  0  0  0  0  0
   44.3066   36.3313   53.4979 O   0  0  0  0  0  0  0  0  0  0  0  0
   46.6962   35.8361   53.4311 C   0  0  2  0  0  0  0  0  0  0  0  0
   46.7277   36.0645   52.0119 O   0  0  0  0  0  0  0  0  0  0  0  0
   47.7315   34.7339   53.8130 C   0  0  2  0  0  0  0  0  0  0  0  0
   47.7012   34.4775   55.2487 O   0  0  0  0  0  0  0  0  0  0  0  0
   49.1604   35.1754   53.4565 C   0  0  0  0  0  0  0  0  0  0  0  0
   50.1247   34.2338   53.9593 O   0  0  0  0  0  0  0  0  0  0  0  0
  1  2  1  1  0  0  0
  1  3  1  0  0  0  0
  1  4  2  0  0  0  0
  1 16  1  0  0  0  0
  5  6  1  6  0  0  0
  5  7  1  0  0  0  0
  5 14  1  0  0  0  0
  7  8  1  6  0  0  0
  7  9  1  0  0  0  0
  9 10  1  1  0  0  0
  9 11  1  0  0  0  0
 11 12  1  6  0  0  0
 11 13  1  0  0  0  0
 13 14  1  0  0  0  0
 13 15  1  1  0  0  0
 15 16  1  0  0  0  0
M  CHG  1   3  -1
M  END
>  <CHROM.1>
172.81695427,-175.25956290,61.33624895,48.29921879,34.89089671,54.03890475
-0.09088329,-0.11482766,2.26685208

>  <Name>
ligand

>  <RI>
0

>  <Rbt.Current_Directory>
/home/itssahil/PROJECTS/Mol_Feturizer/New_Systems/rnas/3B4A

>  <Rbt.Executable>
rbdock ($Id: //depot/dev/client3/rdock/2013.1/src/exe/rbdock.cxx#4 $)

>  <Rbt.Library>
libRbt.so (2013.1, Build901 2013/11/27)

>  <Rbt.Parameter_File>
/export/apps/rDock/src/rDock_2013.1_src/data/scripts/dock_solv.prm

>  <Rbt.Receptor>
prm/pocket_docking_5.prm

>  <SCORE>
-5.78339

>  <SCORE.INTER>
-4.31516

>  <SCORE.INTER.CONST>
1

>  <SCORE.INTER.POLAR>
0

>  <SCORE.INTER.ROT>
3

>  <SCORE.INTER.SOLV>
11.9391

>  <SCORE.INTER.VDW>
-12.4565

>  <SCORE.INTER.norm>
-0.269698

>  <SCORE.INTRA>
-1.46823

>  <SCORE.INTRA.DIHEDRAL>
-1.76194

>  <SCORE.INTRA.DIHEDRAL.0>
2.05999

>  <SCORE.INTRA.POLAR>
0

>  <SCORE.INTRA.POLAR.0>
0

>  <SCORE.INTRA.REPUL>
0

>  <SCORE.INTRA.REPUL.0>
0

>  <SCORE.INTRA.SOLV>
-1.02412

>  <SCORE.INTRA.SOLV.lig_0>
-58.7001

>  <SCORE.INTRA.VDW>
-0.0751926

>  <SCORE.INTRA.VDW.0>
-0.401036

>  <SCORE.INTRA.norm>
-0.0917641

>  <SCORE.RESTR>
0

>  <SCORE.RESTR.CAVITY>
0

>  <SCORE.RESTR.norm>
0

>  <SCORE.SYSTEM>
0

>  <SCORE.SYSTEM.CONST>
0

>  <SCORE.SYSTEM.DIHEDRAL>
0

>  <SCORE.SYSTEM.SOLV>
0

>  <SCORE.SYSTEM.norm>
0

>  <SCORE.heavy>
16

>  <SCORE.norm>
-0.361462

>  <RMSD>
1.271

$$$$
ligand
 OpenBabel11021811463D
libRbt.so/2013.1/901 2013/11/27
 16 16  0  0  0  0  0  0  0  0999 V2000
   51.6125   34.6323   53.6869 P   0  0  2  0  0  0  0  0  0  0  0  0
   51.8240   35.8716   54.4755 O   0  0  0  0  0  0  0  0  0  0  0  0
   52.6855   33.5202   54.1484 O   0  5  0  0  0  0  0  0  0  0  0  0
   51.8086   34.9731   52.1176 O   0  0  0  0  0  0  0  0  0  0  0  0
   46.3529   33.9984   55.7235 C   0  0  2  0  0  0  0  0  0  0  0  0
   46.0278   32.7352   55.1000 O   0  0  0  0  0  0  0  0  0  0  0  0
   45.2942   35.0832   55.3706 C   0  0  2  0  0  0  0  0  0  0  0  0
   43.9602   34.6307   55.8064 N   0  0  0  0  0  0  0  0  0  0  0  0
   45.3045   35.3064   53.8424 C   0  0  1  0  0  0  0  0  0  0  0  0
   44.3389   36.3103   53.4870 O   0  0  0  0  0  0  0  0  0  0  0  0
   46.7208   35.7764   53.4503 C   0  0  2  0  0  0  0  0  0  0  0  0
   46.7701   35.9874   52.0289 O   0  0  0  0  0  0  0  0  0  0  0  0
   47.7344   34.6624   53.8555 C   0  0  2  0  0  0  0  0  0  0  0  0
   47.6856   34.4234   55.2937 O   0  0  0  0  0  0  0  0  0  0  0  0
   49.1737   35.0768   53.5085 C   0  0  0  0  0  0  0  0  0  0  0  0
   50.1124   34.0852   53.9612 O   0  0  0  0  0  0  0  0  0  0  0  0
  1  2  1  1  0  0  0
  1  3  1  0  0  0  0
  1  4  2  0  0  0  0
  1 16  1  0  0  0  0
  5  6  1  6  0  0  0
  5  7  1  0  0  0  0
  5 14  1  0  0  0  0
  7  8  1  6  0  0  0
  7  9  1  0  0  0  0
  9 10  1  1  0  0  0
  9 11  1  0  0  0  0
 11 12  1  6  0  0  0
 11 13  1  0  0  0  0
 13 14  1  0  0  0  0
 13 15  1  1  0  0  0
 15 16  1  0  0  0  0
M  CHG  1   3  -1
M  END
>  <CHROM.1>
176.31017257,-175.10128758,62.18434658,48.30124638,34.79675820,54.06226163
-0.07588111,-0.13228308,2.26060846

>  <Name>
ligand

>  <RI>
0

>  <Rbt.Current_Directory>
/home/itssahil/PROJECTS/Mol_Feturizer/New_Systems/rnas/3B4A

>  <Rbt.Executable>
rbdock ($Id: //depot/dev/client3/rdock/2013.1/src/exe/rbdock.cxx#4 $)

>  <Rbt.Library>
libRbt.so (2013.1, Build901 2013/11/27)

>  <Rbt.Parameter_File>
/export/apps/rDock/src/rDock_2013.1_src/data/scripts/dock_solv.prm

>  <Rbt.Receptor>
prm/pocket_docking_5.prm

>  <SCORE>
-5.73144

>  <SCORE.INTER>
-4.17851

>  <SCORE.INTER.CONST>
1

>  <SCORE.INTER.POLAR>
0

>  <SCORE.INTER.ROT>
3

>  <SCORE.INTER.SOLV>
12.157

>  <SCORE.INTER.VDW>
-12.438

>  <SCORE.INTER.norm>
-0.261157

>  <SCORE.INTRA>
-1.55293

>  <SCORE.INTRA.DIHEDRAL>
-1.88388

>  <SCORE.INTRA.DIHEDRAL.0>
2.05999

>  <SCORE.INTRA.POLAR>
0

>  <SCORE.INTRA.POLAR.0>
0

>  <SCORE.INTRA.REPUL>
0

>  <SCORE.INTRA.REPUL.0>
0

>  <SCORE.INTRA.SOLV>
-1.02574

>  <SCORE.INTRA.SOLV.lig_0>
-58.7001

>  <SCORE.INTRA.VDW>
-0.0981246

>  <SCORE.INTRA.VDW.0>
-0.401036

>  <SCORE.INTRA.norm>
-0.0970582

>  <SCORE.RESTR>
0

>  <SCORE.RESTR.CAVITY>
0

>  <SCORE.RESTR.norm>
0

>  <SCORE.SYSTEM>
0

>  <SCORE.SYSTEM.CONST>
0

>  <SCORE.SYSTEM.DIHEDRAL>
0

>  <SCORE.SYSTEM.SOLV>
0

>  <SCORE.SYSTEM.norm>
0

>  <SCORE.heavy>
16

>  <SCORE.norm>
-0.358215

>  <RMSD>
1.272

$$$$
ligand
 OpenBabel11021811463D
libRbt.so/2013.1/901 2013/11/27
 16 16  0  0  0  0  0  0  0  0999 V2000
   51.6105   34.8667   53.7052 P   0  0  2  0  0  0  0  0  0  0  0  0
   51.7488   36.1506   54.4366 O   0  0  0  0  0  0  0  0  0  0  0  0
   52.7192   33.8268   54.2441 O   0  5  0  0  0  0  0  0  0  0  0  0
   51.8295   35.1402   52.1258 O   0  0  0  0  0  0  0  0  0  0  0  0
   46.3859   34.0308   55.6868 C   0  0  2  0  0  0  0  0  0  0  0  0
   46.0795   32.7695   55.0500 O   0  0  0  0  0  0  0  0  0  0  0  0
   45.3017   35.0983   55.3599 C   0  0  2  0  0  0  0  0  0  0  0  0
   43.9820   34.6130   55.8040 N   0  0  0  0  0  0  0  0  0  0  0  0
   45.2905   35.3416   53.8348 C   0  0  1  0  0  0  0  0  0  0  0  0
   44.3009   36.3302   53.5033 O   0  0  0  0  0  0  0  0  0  0  0  0
   46.6925   35.8455   53.4336 C   0  0  2  0  0  0  0  0  0  0  0  0
   46.7218   36.0761   52.0148 O   0  0  0  0  0  0  0  0  0  0  0  0
   47.7329   34.7472   53.8130 C   0  0  2  0  0  0  0  0  0  0  0  0
   47.7049   34.4884   55.2483 O   0  0  0  0  0  0  0  0  0  0  0  0
   49.1595   35.1953   53.4559 C   0  0  0  0  0  0  0  0  0  0  0  0
   50.1293   34.2671   53.9728 O   0  0  0  0  0  0  0  0  0  0  0  0
  1  2  1  1  0  0  0
  1  3  1  0  0  0  0
  1  4  2  0  0  0  0
  1 16  1  0  0  0  0
  5  6  1  6  0  0  0
  5  7  1  0  0  0  0
  5 14  1  0  0  0  0
  7  8  1  6  0  0  0
  7  9  1  0  0  0  0
  9 10  1  1  0  0  0
  9 11  1  0  0  0  0
 11 12  1  6  0  0  0
 11 13  1  0  0  0  0
 13 14  1  0  0  0  0
 13 15  1  1  0  0  0
 15 16  1  0  0  0  0
M  CHG  1   3  -1
M  END
>  <CHROM.1>
172.00368542,-174.09571422,61.97777034,48.30004226,34.91588702,54.05451002
-0.09165765,-0.10467119,2.26745503

>  <Name>
ligand

>  <RI>
0

>  <Rbt.Current_Directory>
/home/itssahil/PROJECTS/Mol_Feturizer/New_Systems/rnas/3B4A

>  <Rbt.Executable>
rbdock ($Id: //depot/dev/client3/rdock/2013.1/src/exe/rbdock.cxx#4 $)

>  <Rbt.Library>
libRbt.so (2013.1, Build901 2013/11/27)

>  <Rbt.Parameter_File>
/export/apps/rDock/src/rDock_2013.1_src/data/scripts/dock_solv.prm

>  <Rbt.Receptor>
prm/pocket_docking_8.prm

>  <SCORE>
-5.85406

>  <SCORE.INTER>
-4.44432

>  <SCORE.INTER.CONST>
1

>  <SCORE.INTER.POLAR>
0

>  <SCORE.INTER.ROT>
3

>  <SCORE.INTER.SOLV>
12.0285

>  <SCORE.INTER.VDW>
-12.5724

>  <SCORE.INTER.norm>
-0.27777

>  <SCORE.INTRA>
-1.40974

>  <SCORE.INTRA.DIHEDRAL>
-1.65484

>  <SCORE.INTRA.DIHEDRAL.0>
2.05999

>  <SCORE.INTRA.POLAR>
0

>  <SCORE.INTRA.POLAR.0>
0

>  <SCORE.INTRA.REPUL>
0

>  <SCORE.INTRA.REPUL.0>
0

>  <SCORE.INTRA.SOLV>
-1.01325

>  <SCORE.INTRA.SOLV.lig_0>
-58.7001

>  <SCORE.INTRA.VDW>
-0.0756965

>  <SCORE.INTRA.VDW.0>
-0.401036

>  <SCORE.INTRA.norm>
-0.0881088

>  <SCORE.RESTR>
0

>  <SCORE.RESTR.CAVITY>
0

>  <SCORE.RESTR.norm>
0

>  <SCORE.SYSTEM>
0

>  <SCORE.SYSTEM.CONST>
0

>  <SCORE.SYSTEM.DIHEDRAL>
0

>  <SCORE.SYSTEM.SOLV>
0

>  <SCORE.SYSTEM.norm>
0

>  <SCORE.heavy>
16

>  <SCORE.norm>
-0.365879

>  <RMSD>
1.276

$$$$
ligand
 OpenBabel11021811463D
libRbt.so/2013.1/901 2013/11/27
 16 16  0  0  0  0  0  0  0  0999 V2000
   51.3539   35.5188   52.9375 P   0  0  2  0  0  0  0  0  0  0  0  0
   52.1986   35.1431   54.0983 O   0  0  0  0  0  0  0  0  0  0  0  0
   51.7038   34.5552   51.6925 O   0  5  0  0  0  0  0  0  0  0  0  0
   51.6585   37.0592   52.5479 O   0  0  0  0  0  0  0  0  0  0  0  0
   46.5347   34.1902   55.7757 C   0  0  2  0  0  0  0  0  0  0  0  0
   46.2885   32.7844   56.0064 O   0  0  0  0  0  0  0  0  0  0  0  0
   45.4984   34.7812   54.7763 C   0  0  2  0  0  0  0  0  0  0  0  0
   44.1359   34.5847   55.3047 N   0  0  0  0  0  0  0  0  0  0  0  0
   45.6499   34.0573   53.4204 C   0  0  1  0  0  0  0  0  0  0  0  0
   44.7077   34.5881   52.4733 O   0  0  0  0  0  0  0  0  0  0  0  0
   47.0899   34.2993   52.9220 C   0  0  2  0  0  0  0  0  0  0  0  0
   47.2703   33.6315   51.6615 O   0  0  0  0  0  0  0  0  0  0  0  0
   48.0768   33.7128   53.9778 C   0  0  2  0  0  0  0  0  0  0  0  0
   47.8958   34.3681   55.2684 O   0  0  0  0  0  0  0  0  0  0  0  0
   49.5362   33.9383   53.5502 C   0  0  0  0  0  0  0  0  0  0  0  0
   49.7955   35.3378   53.3419 O   0  0  0  0  0  0  0  0  0  0  0  0
  1  2  1  1  0  0  0
  1  3  1  0  0  0  0
  1  4  2  0  0  0  0
  1 16  1  0  0  0  0
  5  6  1  6  0  0  0
  5  7  1  0  0  0  0
  5 14  1  0  0  0  0
  7  8  1  1  0  0  0
  7  9  1  0  0  0  0
  9 10  1  6  0  0  0
  9 11  1  0  0  0  0
 11 12  1  6  0  0  0
 11 13  1  0  0  0  0
 13 14  1  0  0  0  0
 13 15  1  6  0  0  0
 15 16  1  0  0  0  0
M  CHG  1   3  -1
M  END
>  <CHROM.1>
56.95852606,178.34090665,-66.32973514,48.39077988,34.61640008,53.65035551
-0.28208819,0.19103082,1.70750775

>  <Name>
ligand

>  <RI>
0

>  <Rbt.Current_Directory>
/home/itssahil/PROJECTS/Mol_Feturizer/New_Systems/rnas/3B4A

>  <Rbt.Executable>
rbdock ($Id: //depot/dev/client3/rdock/2013.1/src/exe/rbdock.cxx#4 $)

>  <Rbt.Library>
libRbt.so (2013.1, Build901 2013/11/27)

>  <Rbt.Parameter_File>
/export/apps/rDock/src/rDock_2013.1_src/data/scripts/dock_solv.prm

>  <Rbt.Receptor>
prm/pocket_docking_2.prm

>  <SCORE>
-4.62808

>  <SCORE.INTER>
-3.06116

>  <SCORE.INTER.CONST>
1

>  <SCORE.INTER.POLAR>
0

>  <SCORE.INTER.ROT>
3

>  <SCORE.INTER.SOLV>
10.7582

>  <SCORE.INTER.VDW>
-11.2268

>  <SCORE.INTER.norm>
-0.191323

>  <SCORE.INTRA>
-1.56692

>  <SCORE.INTRA.DIHEDRAL>
-1.9464

>  <SCORE.INTRA.DIHEDRAL.0>
2.05999

>  <SCORE.INTRA.POLAR>
0

>  <SCORE.INTRA.POLAR.0>
0

>  <SCORE.INTRA.REPUL>
0

>  <SCORE.INTRA.REPUL.0>
0

>  <SCORE.INTRA.SOLV>
-0.785995

>  <SCORE.INTRA.SOLV.lig_0>
-58.7001

>  <SCORE.INTRA.VDW>
-0.200722

>  <SCORE.INTRA.VDW.0>
-0.401036

>  <SCORE.INTRA.norm>
-0.0979325

>  <SCORE.RESTR>
0

>  <SCORE.RESTR.CAVITY>
0

>  <SCORE.RESTR.norm>
0

>  <SCORE.SYSTEM>
0

>  <SCORE.SYSTEM.CONST>
0

>  <SCORE.SYSTEM.DIHEDRAL>
0

>  <SCORE.SYSTEM.SOLV>
0

>  <SCORE.SYSTEM.norm>
0

>  <SCORE.heavy>
16

>  <SCORE.norm>
-0.289255

>  <RMSD>
1.291

$$$$
ligand
 OpenBabel11021811463D
libRbt.so/2013.1/901 2013/11/27
 16 16  0  0  0  0  0  0  0  0999 V2000
   50.9075   36.4337   52.9952 P   0  0  2  0  0  0  0  0  0  0  0  0
   51.2488   37.8081   53.4392 O   0  0  0  0  0  0  0  0  0  0  0  0
   51.9231   35.3864   53.6828 O   0  5  0  0  0  0  0  0  0  0  0  0
   51.0408   36.3580   51.3847 O   0  0  0  0  0  0  0  0  0  0  0  0
   46.3823   34.1142   55.6176 C   0  0  2  0  0  0  0  0  0  0  0  0
   46.1440   32.7093   55.3735 O   0  0  0  0  0  0  0  0  0  0  0  0
   45.2475   34.9866   55.0068 C   0  0  2  0  0  0  0  0  0  0  0  0
   43.9514   34.5841   55.5832 N   0  0  0  0  0  0  0  0  0  0  0  0
   45.2333   34.7797   53.4763 C   0  0  1  0  0  0  0  0  0  0  0  0
   44.1970   35.5801   52.8829 O   0  0  0  0  0  0  0  0  0  0  0  0
   46.6105   35.2165   52.9349 C   0  0  2  0  0  0  0  0  0  0  0  0
   46.6367   35.0301   51.5095 O   0  0  0  0  0  0  0  0  0  0  0  0
   47.7028   34.3276   53.6052 C   0  0  2  0  0  0  0  0  0  0  0  0
   47.6791   34.4919   55.0545 O   0  0  0  0  0  0  0  0  0  0  0  0
   49.1071   34.7250   53.1219 C   0  0  0  0  0  0  0  0  0  0  0  0
   49.3898   36.0965   53.4512 O   0  0  0  0  0  0  0  0  0  0  0  0
  1  2  1  1  0  0  0
  1  3  1  0  0  0  0
  1  4  2  0  0  0  0
  1 16  1  0  0  0  0
  5  6  1  6  0  0  0
  5  7  1  0  0  0  0
  5 14  1  0  0  0  0
  7  8  1  1  0  0  0
  7  9  1  0  0  0  0
  9 10  1  6  0  0  0
  9 11  1  0  0  0  0
 11 12  1  6  0  0  0
 11 13  1  0  0  0  0
 13 14  1  0  0  0  0
 13 15  1  6  0  0  0
 15 16  1  0  0  0  0
M  CHG  1   3  -1
M  END
>  <CHROM.1>
60.22441736,176.83072584,-175.02394382,48.00853111,35.27600529,53.61733134
-0.36817831,0.15955934,2.07512497

>  <Name>
ligand

>  <RI>
0

>  <Rbt.Current_Directory>
/home/itssahil/PROJECTS/Mol_Feturizer/New_Systems/rnas/3B4A

>  <Rbt.Executable>
rbdock ($Id: //depot/dev/client3/rdock/2013.1/src/exe/rbdock.cxx#4 $)

>  <Rbt.Library>
libRbt.so (2013.1, Build901 2013/11/27)

>  <Rbt.Parameter_File>
/export/apps/rDock/src/rDock_2013.1_src/data/scripts/dock_solv.prm

>  <Rbt.Receptor>
prm/pocket_docking_4.prm

>  <SCORE>
-5.46725

>  <SCORE.INTER>
-4.0202

>  <SCORE.INTER.CONST>
1

>  <SCORE.INTER.POLAR>
0

>  <SCORE.INTER.ROT>
3

>  <SCORE.INTER.SOLV>
11.7074

>  <SCORE.INTER.VDW>
-12.1826

>  <SCORE.INTER.norm>
-0.251263

>  <SCORE.INTRA>
-1.44704

>  <SCORE.INTRA.DIHEDRAL>
-1.96721

>  <SCORE.INTRA.DIHEDRAL.0>
2.05999

>  <SCORE.INTRA.POLAR>
0

>  <SCORE.INTRA.POLAR.0>
0

>  <SCORE.INTRA.REPUL>
0

>  <SCORE.INTRA.REPUL.0>
0

>  <SCORE.INTRA.SOLV>
-0.200804

>  <SCORE.INTRA.SOLV.lig_0>
-58.7001

>  <SCORE.INTRA.VDW>
-0.363035

>  <SCORE.INTRA.VDW.0>
-0.401036

>  <SCORE.INTRA.norm>
-0.0904401

>  <SCORE.RESTR>
0

>  <SCORE.RESTR.CAVITY>
0

>  <SCORE.RESTR.norm>
0

>  <SCORE.SYSTEM>
0

>  <SCORE.SYSTEM.CONST>
0

>  <SCORE.SYSTEM.DIHEDRAL>
0

>  <SCORE.SYSTEM.SOLV>
0

>  <SCORE.SYSTEM.norm>
0

>  <SCORE.heavy>
16

>  <SCORE.norm>
-0.341703

>  <RMSD>
1.300

$$$$
ligand
 OpenBabel11021811463D
libRbt.so/2013.1/901 2013/11/27
 16 16  0  0  0  0  0  0  0  0999 V2000
   51.9016   33.8407   53.1517 P   0  0  2  0  0  0  0  0  0  0  0  0
   52.3239   34.9623   54.0270 O   0  0  0  0  0  0  0  0  0  0  0  0
   52.3812   32.4470   53.8066 O   0  5  0  0  0  0  0  0  0  0  0  0
   52.5812   34.0310   51.6959 O   0  0  0  0  0  0  0  0  0  0  0  0
   46.2327   33.4027   55.6662 C   0  0  2  0  0  0  0  0  0  0  0  0
   45.6765   32.4363   54.7460 O   0  0  0  0  0  0  0  0  0  0  0  0
   45.7291   34.8384   55.3386 C   0  0  2  0  0  0  0  0  0  0  0  0
   44.2562   34.8702   55.3984 N   0  0  0  0  0  0  0  0  0  0  0  0
   46.2099   35.2203   53.9214 C   0  0  1  0  0  0  0  0  0  0  0  0
   45.7642   36.5471   53.5935 O   0  0  0  0  0  0  0  0  0  0  0  0
   47.7519   35.1687   53.9234 C   0  0  2  0  0  0  0  0  0  0  0  0
   48.2361   35.5122   52.6140 O   0  0  0  0  0  0  0  0  0  0  0  0
   48.1912   33.7168   54.2863 C   0  0  2  0  0  0  0  0  0  0  0  0
   47.6937   33.3455   55.6063 O   0  0  0  0  0  0  0  0  0  0  0  0
   49.7237   33.6002   54.3247 C   0  0  0  0  0  0  0  0  0  0  0  0
   50.2865   33.8529   53.0252 O   0  0  0  0  0  0  0  0  0  0  0  0
  1  2  1  1  0  0  0
  1  3  1  0  0  0  0
  1  4  2  0  0  0  0
  1 16  1  0  0  0  0
  5  6  1  6  0  0  0
  5  7  1  0  0  0  0
  5 14  1  0  0  0  0
  7  8  1  6  0  0  0
  7  9  1  0  0  0  0
  9 10  1  1  0  0  0
  9 11  1  0  0  0  0
 11 12  1  6  0  0  0
 11 13  1  0  0  0  0
 13 14  1  0  0  0  0
 13 15  1  1  0  0  0
 15 16  1  0  0  0  0
M  CHG  1   3  -1
M  END
>  <CHROM.1>
-63.48223512,175.27379478,-64.10357489,48.75786541,34.19972134,53.97035425
0.04827104,0.28050775,-0.59078278

>  <Name>
ligand

>  <RI>
0

>  <Rbt.Current_Directory>
/home/itssahil/PROJECTS/Mol_Feturizer/New_Systems/rnas/3B4A

>  <Rbt.Executable>
rbdock ($Id: //depot/dev/client3/rdock/2013.1/src/exe/rbdock.cxx#4 $)

>  <Rbt.Library>
libRbt.so (2013.1, Build901 2013/11/27)

>  <Rbt.Parameter_File>
/export/apps/rDock/src/rDock_2013.1_src/data/scripts/dock_solv.prm

>  <Rbt.Receptor>
prm/pocket_docking_3.prm

>  <SCORE>
-4.88665

>  <SCORE.INTER>
-3.60209

>  <SCORE.INTER.CONST>
1

>  <SCORE.INTER.POLAR>
0

>  <SCORE.INTER.ROT>
3

>  <SCORE.INTER.SOLV>
11.3246

>  <SCORE.INTER.VDW>
-11.7763

>  <SCORE.INTER.norm>
-0.225131

>  <SCORE.INTRA>
-1.28456

>  <SCORE.INTRA.DIHEDRAL>
-1.87772

>  <SCORE.INTRA.DIHEDRAL.0>
2.05999

>  <SCORE.INTRA.POLAR>
0

>  <SCORE.INTRA.POLAR.0>
0

>  <SCORE.INTRA.REPUL>
0

>  <SCORE.INTRA.REPUL.0>
0

>  <SCORE.INTRA.SOLV>
-0.585717

>  <SCORE.INTRA.SOLV.lig_0>
-58.7001

>  <SCORE.INTRA.VDW>
-0.0528439

>  <SCORE.INTRA.VDW.0>
-0.401036

>  <SCORE.INTRA.norm>
-0.0802853

>  <SCORE.RESTR>
0

>  <SCORE.RESTR.CAVITY>
0

>  <SCORE.RESTR.norm>
0

>  <SCORE.SYSTEM>
0

>  <SCORE.SYSTEM.CONST>
0

>  <SCORE.SYSTEM.DIHEDRAL>
0

>  <SCORE.SYSTEM.SOLV>
0

>  <SCORE.SYSTEM.norm>
0

>  <SCORE.heavy>
16

>  <SCORE.norm>
-0.305416

>  <RMSD>
1.320

$$$$
ligand
 OpenBabel11021811463D
libRbt.so/2013.1/901 2013/11/27
 16 16  0  0  0  0  0  0  0  0999 V2000
   51.8253   34.9542   53.6843 P   0  0  2  0  0  0  0  0  0  0  0  0
   52.4312   34.4585   54.9451 O   0  0  0  0  0  0  0  0  0  0  0  0
   52.2594   33.9855   52.4702 O   0  5  0  0  0  0  0  0  0  0  0  0
   52.3533   36.4583   53.4083 O   0  0  0  0  0  0  0  0  0  0  0  0
   46.4643   34.2429   55.6161 C   0  0  2  0  0  0  0  0  0  0  0  0
   46.0442   32.8825   55.8675 O   0  0  0  0  0  0  0  0  0  0  0  0
   45.6876   34.8531   54.4135 C   0  0  2  0  0  0  0  0  0  0  0  0
   44.2397   34.8120   54.6893 N   0  0  0  0  0  0  0  0  0  0  0  0
   46.0089   34.0291   53.1473 C   0  0  1  0  0  0  0  0  0  0  0  0
   45.3090   34.5750   52.0165 O   0  0  0  0  0  0  0  0  0  0  0  0
   47.5317   34.1107   52.9130 C   0  0  2  0  0  0  0  0  0  0  0  0
   47.8697   33.3464   51.7430 O   0  0  0  0  0  0  0  0  0  0  0  0
   48.2504   33.5130   54.1615 C   0  0  2  0  0  0  0  0  0  0  0  0
   47.9052   34.2670   55.3616 O   0  0  0  0  0  0  0  0  0  0  0  0
   49.7779   33.5813   54.0011 C   0  0  0  0  0  0  0  0  0  0  0  0
   50.2124   34.9427   53.8371 O   0  0  0  0  0  0  0  0  0  0  0  0
  1  2  1  1  0  0  0
  1  3  1  0  0  0  0
  1  4  2  0  0  0  0
  1 16  1  0  0  0  0
  5  6  1  6  0  0  0
  5  7  1  0  0  0  0
  5 14  1  0  0  0  0
  7  8  1  1  0  0  0
  7  9  1  0  0  0  0
  9 10  1  6  0  0  0
  9 11  1  0  0  0  0
 11 12  1  6  0  0  0
 11 13  1  0  0  0  0
 13 14  1  0  0  0  0
 13 15  1  6  0  0  0
 15 16  1  0  0  0  0
M  CHG  1   3  -1
M  END
>  <CHROM.1>
59.65779522,179.58051423,-64.02813681,48.70624723,34.36279619,53.86335963
-0.08212806,0.11614679,1.61288721

>  <Name>
ligand

>  <RI>
0

>  <Rbt.Current_Directory>
/home/itssahil/PROJECTS/Mol_Feturizer/New_Systems/rnas/3B4A

>  <Rbt.Executable>
rbdock ($Id: //depot/dev/client3/rdock/2013.1/src/exe/rbdock.cxx#4 $)

>  <Rbt.Library>
libRbt.so (2013.1, Build901 2013/11/27)

>  <Rbt.Parameter_File>
/export/apps/rDock/src/rDock_2013.1_src/data/scripts/dock_solv.prm

>  <Rbt.Receptor>
prm/pocket_docking_2.prm

>  <SCORE>
-4.78107

>  <SCORE.INTER>
-3.14188

>  <SCORE.INTER.CONST>
1

>  <SCORE.INTER.POLAR>
0

>  <SCORE.INTER.ROT>
3

>  <SCORE.INTER.SOLV>
9.87646

>  <SCORE.INTER.VDW>
-10.9867

>  <SCORE.INTER.norm>
-0.196367

>  <SCORE.INTRA>
-1.63919

>  <SCORE.INTRA.DIHEDRAL>
-2.0299

>  <SCORE.INTRA.DIHEDRAL.0>
2.05999

>  <SCORE.INTRA.POLAR>
0

>  <SCORE.INTRA.POLAR.0>
0

>  <SCORE.INTRA.REPUL>
0

>  <SCORE.INTRA.REPUL.0>
0

>  <SCORE.INTRA.SOLV>
-0.807187

>  <SCORE.INTRA.SOLV.lig_0>
-58.7001

>  <SCORE.INTRA.VDW>
-0.220651

>  <SCORE.INTRA.VDW.0>
-0.401036

>  <SCORE.INTRA.norm>
-0.10245

>  <SCORE.RESTR>
0

>  <SCORE.RESTR.CAVITY>
0

>  <SCORE.RESTR.norm>
0

>  <SCORE.SYSTEM>
0

>  <SCORE.SYSTEM.CONST>
0

>  <SCORE.SYSTEM.DIHEDRAL>
0

>  <SCORE.SYSTEM.SOLV>
0

>  <SCORE.SYSTEM.norm>
0

>  <SCORE.heavy>
16

>  <SCORE.norm>
-0.298817

>  <RMSD>
1.326

$$$$
ligand
 OpenBabel11021811463D
libRbt.so/2013.1/901 2013/11/27
 16 16  0  0  0  0  0  0  0  0999 V2000
   51.8444   34.8479   53.7865 P   0  0  2  0  0  0  0  0  0  0  0  0
   52.3788   34.1975   55.0087 O   0  0  0  0  0  0  0  0  0  0  0  0
   52.2785   33.9866   52.4940 O   0  5  0  0  0  0  0  0  0  0  0  0
   52.4514   36.3440   53.6842 O   0  0  0  0  0  0  0  0  0  0  0  0
   46.4357   34.2492   55.5876 C   0  0  2  0  0  0  0  0  0  0  0  0
   45.9493   32.8954   55.7323 O   0  0  0  0  0  0  0  0  0  0  0  0
   45.6994   34.9856   54.4311 C   0  0  2  0  0  0  0  0  0  0  0  0
   44.2488   34.9932   54.6955 N   0  0  0  0  0  0  0  0  0  0  0  0
   45.9924   34.2457   53.1073 C   0  0  1  0  0  0  0  0  0  0  0  0
   45.3291   34.9088   52.0179 O   0  0  0  0  0  0  0  0  0  0  0  0
   47.5193   34.2717   52.8878 C   0  0  2  0  0  0  0  0  0  0  0  0
   47.8309   33.5832   51.6647 O   0  0  0  0  0  0  0  0  0  0  0  0
   48.1978   33.5470   54.0908 C   0  0  2  0  0  0  0  0  0  0  0  0
   47.8783   34.2234   55.3431 O   0  0  0  0  0  0  0  0  0  0  0  0
   49.7282   33.5539   53.9439 C   0  0  0  0  0  0  0  0  0  0  0  0
   50.2280   34.9015   53.8845 O   0  0  0  0  0  0  0  0  0  0  0  0
  1  2  1  1  0  0  0
  1  3  1  0  0  0  0
  1  4  2  0  0  0  0
  1 16  1  0  0  0  0
  5  6  1  6  0  0  0
  5  7  1  0  0  0  0
  5 14  1  0  0  0  0
  7  8  1  1  0  0  0
  7  9  1  0  0  0  0
  9 10  1  6  0  0  0
  9 11  1  0  0  0  0
 11 12  1  6  0  0  0
 11 13  1  0  0  0  0
 13 14  1  0  0  0  0
 13 15  1  6  0  0  0
 15 16  1  0  0  0  0
M  CHG  1   3  -1
M  END
>  <CHROM.1>
59.57371250,177.89586304,-61.89748435,48.69744038,34.39458507,53.87693952
-0.06266377,0.07039959,1.68291128

>  <Name>
ligand

>  <RI>
0

>  <Rbt.Current_Directory>
/home/itssahil/PROJECTS/Mol_Feturizer/New_Systems/rnas/3B4A

>  <Rbt.Executable>
rbdock ($Id: //depot/dev/client3/rdock/2013.1/src/exe/rbdock.cxx#4 $)

>  <Rbt.Library>
libRbt.so (2013.1, Build901 2013/11/27)

>  <Rbt.Parameter_File>
/export/apps/rDock/src/rDock_2013.1_src/data/scripts/dock_solv.prm

>  <Rbt.Receptor>
prm/pocket_docking_3.prm

>  <SCORE>
-4.97905

>  <SCORE.INTER>
-3.33246

>  <SCORE.INTER.CONST>
1

>  <SCORE.INTER.POLAR>
0

>  <SCORE.INTER.ROT>
3

>  <SCORE.INTER.SOLV>
9.7838

>  <SCORE.INTER.VDW>
-11.0829

>  <SCORE.INTER.norm>
-0.208279

>  <SCORE.INTRA>
-1.64659

>  <SCORE.INTRA.DIHEDRAL>
-2.02933

>  <SCORE.INTRA.DIHEDRAL.0>
2.05999

>  <SCORE.INTRA.POLAR>
0

>  <SCORE.INTRA.POLAR.0>
0

>  <SCORE.INTRA.REPUL>
0

>  <SCORE.INTRA.REPUL.0>
0

>  <SCORE.INTRA.SOLV>
-0.833888

>  <SCORE.INTRA.SOLV.lig_0>
-58.7001

>  <SCORE.INTRA.VDW>
-0.214984

>  <SCORE.INTRA.VDW.0>
-0.401036

>  <SCORE.INTRA.norm>
-0.102912

>  <SCORE.RESTR>
0

>  <SCORE.RESTR.CAVITY>
0

>  <SCORE.RESTR.norm>
0

>  <SCORE.SYSTEM>
0

>  <SCORE.SYSTEM.CONST>
0

>  <SCORE.SYSTEM.DIHEDRAL>
0

>  <SCORE.SYSTEM.SOLV>
0

>  <SCORE.SYSTEM.norm>
0

>  <SCORE.heavy>
16

>  <SCORE.norm>
-0.311191

>  <RMSD>
1.335

$$$$
ligand
 OpenBabel11021811463D
libRbt.so/2013.1/901 2013/11/27
 16 16  0  0  0  0  0  0  0  0999 V2000
   51.9146   34.8841   53.7425 P   0  0  2  0  0  0  0  0  0  0  0  0
   52.2361   34.1823   52.4749 O   0  0  0  0  0  0  0  0  0  0  0  0
   52.4602   36.3997   53.6630 O   0  5  0  0  0  0  0  0  0  0  0  0
   52.6276   34.1025   54.9664 O   0  0  0  0  0  0  0  0  0  0  0  0
   46.5032   34.2397   55.5465 C   0  0  2  0  0  0  0  0  0  0  0  0
   46.0589   32.8847   55.7851 O   0  0  0  0  0  0  0  0  0  0  0  0
   45.7623   34.8629   54.3280 C   0  0  2  0  0  0  0  0  0  0  0  0
   44.3081   34.8411   54.5709 N   0  0  0  0  0  0  0  0  0  0  0  0
   46.1009   34.0372   53.0675 C   0  0  1  0  0  0  0  0  0  0  0  0
   45.4343   34.5949   51.9224 O   0  0  0  0  0  0  0  0  0  0  0  0
   47.6296   34.0984   52.8678 C   0  0  2  0  0  0  0  0  0  0  0  0
   47.9835   33.3319   51.7040 O   0  0  0  0  0  0  0  0  0  0  0  0
   48.3116   33.4883   54.1309 C   0  0  2  0  0  0  0  0  0  0  0  0
   47.9496   34.2445   55.3246 O   0  0  0  0  0  0  0  0  0  0  0  0
   49.8431   33.5360   54.0052 C   0  0  0  0  0  0  0  0  0  0  0  0
   50.3069   34.8963   53.9425 O   0  0  0  0  0  0  0  0  0  0  0  0
  1  2  1  6  0  0  0
  1  3  1  0  0  0  0
  1  4  2  0  0  0  0
  1 16  1  0  0  0  0
  5  6  1  6  0  0  0
  5  7  1  0  0  0  0
  5 14  1  0  0  0  0
  7  8  1  1  0  0  0
  7  9  1  0  0  0  0
  9 10  1  6  0  0  0
  9 11  1  0  0  0  0
 11 12  1  6  0  0  0
 11 13  1  0  0  0  0
 13 14  1  0  0  0  0
 13 15  1  6  0  0  0
 15 16  1  0  0  0  0
M  CHG  1   3  -1
M  END
>  <CHROM.1>
63.43285083,-177.42665173,60.39188018,48.78617944,34.33439802,53.85660039
-0.05335845,0.10282171,1.63674838

>  <Name>
ligand

>  <RI>
0

>  <Rbt.Current_Directory>
/home/itssahil/PROJECTS/Mol_Feturizer/New_Systems/rnas/3B4A

>  <Rbt.Executable>
rbdock ($Id: //depot/dev/client3/rdock/2013.1/src/exe/rbdock.cxx#4 $)

>  <Rbt.Library>
libRbt.so (2013.1, Build901 2013/11/27)

>  <Rbt.Parameter_File>
/export/apps/rDock/src/rDock_2013.1_src/data/scripts/dock_solv.prm

>  <Rbt.Receptor>
prm/pocket_docking_3.prm

>  <SCORE>
-4.39021

>  <SCORE.INTER>
-2.73571

>  <SCORE.INTER.CONST>
1

>  <SCORE.INTER.POLAR>
0

>  <SCORE.INTER.ROT>
3

>  <SCORE.INTER.SOLV>
10.7651

>  <SCORE.INTER.VDW>
-11.0122

>  <SCORE.INTER.norm>
-0.170982

>  <SCORE.INTRA>
-1.6545

>  <SCORE.INTRA.DIHEDRAL>
-1.98114

>  <SCORE.INTRA.DIHEDRAL.0>
2.05999

>  <SCORE.INTRA.POLAR>
0

>  <SCORE.INTRA.POLAR.0>
0

>  <SCORE.INTRA.REPUL>
0

>  <SCORE.INTRA.REPUL.0>
0

>  <SCORE.INTRA.SOLV>
-0.864028

>  <SCORE.INTRA.SOLV.lig_0>
-58.7001

>  <SCORE.INTRA.VDW>
-0.231915

>  <SCORE.INTRA.VDW.0>
-0.401036

>  <SCORE.INTRA.norm>
-0.103406

>  <SCORE.RESTR>
0

>  <SCORE.RESTR.CAVITY>
0

>  <SCORE.RESTR.norm>
0

>  <SCORE.SYSTEM>
0

>  <SCORE.SYSTEM.CONST>
0

>  <SCORE.SYSTEM.DIHEDRAL>
0

>  <SCORE.SYSTEM.SOLV>
0

>  <SCORE.SYSTEM.norm>
0

>  <SCORE.heavy>
16

>  <SCORE.norm>
-0.274388

>  <RMSD>
1.347

$$$$
ligand
 OpenBabel11021811463D
libRbt.so/2013.1/901 2013/11/27
 16 16  0  0  0  0  0  0  0  0999 V2000
   51.8621   34.2066   53.6045 P   0  0  2  0  0  0  0  0  0  0  0  0
   51.9782   33.6809   52.2215 O   0  0  0  0  0  0  0  0  0  0  0  0
   52.0528   35.8079   53.5812 O   0  5  0  0  0  0  0  0  0  0  0  0
   53.0098   33.5257   54.5190 O   0  0  0  0  0  0  0  0  0  0  0  0
   46.5798   34.0277   55.8007 C   0  0  2  0  0  0  0  0  0  0  0  0
   46.3657   32.6096   55.6182 O   0  0  0  0  0  0  0  0  0  0  0  0
   45.4654   34.8549   55.0965 C   0  0  2  0  0  0  0  0  0  0  0  0
   44.1485   34.4671   55.6346 N   0  0  0  0  0  0  0  0  0  0  0  0
   45.5220   34.5709   53.5794 C   0  0  1  0  0  0  0  0  0  0  0  0
   44.5059   35.3282   52.9006 O   0  0  0  0  0  0  0  0  0  0  0  0
   46.9179   34.9957   53.0781 C   0  0  2  0  0  0  0  0  0  0  0  0
   47.0099   34.7379   51.6667 O   0  0  0  0  0  0  0  0  0  0  0  0
   47.9872   34.1544   53.8407 C   0  0  2  0  0  0  0  0  0  0  0  0
   47.8970   34.3914   55.2772 O   0  0  0  0  0  0  0  0  0  0  0  0
   49.4081   34.5431   53.4006 C   0  0  0  0  0  0  0  0  0  0  0  0
   50.3926   33.8439   54.1823 O   0  0  0  0  0  0  0  0  0  0  0  0
  1  2  1  6  0  0  0
  1  3  1  0  0  0  0
  1  4  2  0  0  0  0
  1 16  1  0  0  0  0
  5  6  1  6  0  0  0
  5  7  1  0  0  0  0
  5 14  1  0  0  0  0
  7  8  1  1  0  0  0
  7  9  1  0  0  0  0
  9 10  1  6  0  0  0
  9 11  1  0  0  0  0
 11 12  1  6  0  0  0
 11 13  1  0  0  0  0
 13 14  1  0  0  0  0
 13 15  1  6  0  0  0
 15 16  1  0  0  0  0
M  CHG  1   3  -1
M  END
>  <CHROM.1>
175.33121050,175.85862721,-64.66732264,48.53476336,34.33821517,53.95188918
-0.09823465,-0.08413377,1.94663094

>  <Name>
ligand

>  <RI>
0

>  <Rbt.Current_Directory>
/home/itssahil/PROJECTS/Mol_Feturizer/New_Systems/rnas/3B4A

>  <Rbt.Executable>
rbdock ($Id: //depot/dev/client3/rdock/2013.1/src/exe/rbdock.cxx#4 $)

>  <Rbt.Library>
libRbt.so (2013.1, Build901 2013/11/27)

>  <Rbt.Parameter_File>
/export/apps/rDock/src/rDock_2013.1_src/data/scripts/dock_solv.prm

>  <Rbt.Receptor>
prm/pocket_docking_2.prm

>  <SCORE>
-4.1685

>  <SCORE.INTER>
-2.6879

>  <SCORE.INTER.CONST>
1

>  <SCORE.INTER.POLAR>
0

>  <SCORE.INTER.ROT>
3

>  <SCORE.INTER.SOLV>
12.4388

>  <SCORE.INTER.VDW>
-11.5382

>  <SCORE.INTER.norm>
-0.167994

>  <SCORE.INTRA>
-1.4806

>  <SCORE.INTRA.DIHEDRAL>
-1.86068

>  <SCORE.INTRA.DIHEDRAL.0>
2.05999

>  <SCORE.INTRA.POLAR>
0

>  <SCORE.INTRA.POLAR.0>
0

>  <SCORE.INTRA.REPUL>
0

>  <SCORE.INTRA.REPUL.0>
0

>  <SCORE.INTRA.SOLV>
-1.02047

>  <SCORE.INTRA.SOLV.lig_0>
-58.7001

>  <SCORE.INTRA.VDW>
-0.040019

>  <SCORE.INTRA.VDW.0>
-0.401036

>  <SCORE.INTRA.norm>
-0.0925372

>  <SCORE.RESTR>
0

>  <SCORE.RESTR.CAVITY>
0

>  <SCORE.RESTR.norm>
0

>  <SCORE.SYSTEM>
0

>  <SCORE.SYSTEM.CONST>
0

>  <SCORE.SYSTEM.DIHEDRAL>
0

>  <SCORE.SYSTEM.SOLV>
0

>  <SCORE.SYSTEM.norm>
0

>  <SCORE.heavy>
16

>  <SCORE.norm>
-0.260531

>  <RMSD>
1.352

$$$$
ligand
 OpenBabel11021811463D
libRbt.so/2013.1/901 2013/11/27
 16 16  0  0  0  0  0  0  0  0999 V2000
   51.8771   34.1330   53.6872 P   0  0  2  0  0  0  0  0  0  0  0  0
   52.8837   33.4327   54.5233 O   0  0  0  0  0  0  0  0  0  0  0  0
   52.0294   33.6486   52.1564 O   0  5  0  0  0  0  0  0  0  0  0  0
   52.1312   35.7273   53.7912 O   0  0  0  0  0  0  0  0  0  0  0  0
   46.5596   34.0048   55.8172 C   0  0  2  0  0  0  0  0  0  0  0  0
   46.3362   32.5894   55.6249 O   0  0  0  0  0  0  0  0  0  0  0  0
   45.4638   34.8449   55.0991 C   0  0  2  0  0  0  0  0  0  0  0  0
   44.1352   34.4662   55.6145 N   0  0  0  0  0  0  0  0  0  0  0  0
   45.5419   34.5670   53.5819 C   0  0  1  0  0  0  0  0  0  0  0  0
   44.5434   35.3362   52.8905 O   0  0  0  0  0  0  0  0  0  0  0  0
   46.9493   34.9818   53.1047 C   0  0  2  0  0  0  0  0  0  0  0  0
   47.0615   34.7293   51.6937 O   0  0  0  0  0  0  0  0  0  0  0  0
   47.9990   34.1278   53.8803 C   0  0  2  0  0  0  0  0  0  0  0  0
   47.8880   34.3593   55.3163 O   0  0  0  0  0  0  0  0  0  0  0  0
   49.4300   34.5060   53.4645 C   0  0  0  0  0  0  0  0  0  0  0  0
   50.3957   33.7623   54.2284 O   0  0  0  0  0  0  0  0  0  0  0  0
  1  2  1  1  0  0  0
  1  3  1  0  0  0  0
  1  4  2  0  0  0  0
  1 16  1  0  0  0  0
  5  6  1  6  0  0  0
  5  7  1  0  0  0  0
  5 14  1  0  0  0  0
  7  8  1  1  0  0  0
  7  9  1  0  0  0  0
  9 10  1  6  0  0  0
  9 11  1  0  0  0  0
 11 12  1  6  0  0  0
 11 13  1  0  0  0  0
 13 14  1  0  0  0  0
 13 15  1  6  0  0  0
 15 16  1  0  0  0  0
M  CHG  1   3  -1
M  END
>  <CHROM.1>
177.21897181,176.58155297,176.62988988,48.54285952,34.30146413,53.98540506
-0.09053167,-0.08917729,1.93688332

>  <Name>
ligand

>  <RI>
0

>  <Rbt.Current_Directory>
/home/itssahil/PROJECTS/Mol_Feturizer/New_Systems/rnas/3B4A

>  <Rbt.Executable>
rbdock ($Id: //depot/dev/client3/rdock/2013.1/src/exe/rbdock.cxx#4 $)

>  <Rbt.Library>
libRbt.so (2013.1, Build901 2013/11/27)

>  <Rbt.Parameter_File>
/export/apps/rDock/src/rDock_2013.1_src/data/scripts/dock_solv.prm

>  <Rbt.Receptor>
prm/pocket_docking_2.prm

>  <SCORE>
-4.51265

>  <SCORE.INTER>
-3.09437

>  <SCORE.INTER.CONST>
1

>  <SCORE.INTER.POLAR>
0

>  <SCORE.INTER.ROT>
3

>  <SCORE.INTER.SOLV>
11.9165

>  <SCORE.INTER.VDW>
-11.6351

>  <SCORE.INTER.norm>
-0.193398

>  <SCORE.INTRA>
-1.41866

>  <SCORE.INTRA.DIHEDRAL>
-1.95441

>  <SCORE.INTRA.DIHEDRAL.0>
2.05999

>  <SCORE.INTRA.POLAR>
0

>  <SCORE.INTRA.POLAR.0>
0

>  <SCORE.INTRA.REPUL>
0

>  <SCORE.INTRA.REPUL.0>
0

>  <SCORE.INTRA.SOLV>
-0.410926

>  <SCORE.INTRA.SOLV.lig_0>
-58.7001

>  <SCORE.INTRA.VDW>
-0.235987

>  <SCORE.INTRA.VDW.0>
-0.401036

>  <SCORE.INTRA.norm>
-0.0886661

>  <SCORE.RESTR>
0.000379969

>  <SCORE.RESTR.CAVITY>
0.000379969

>  <SCORE.RESTR.norm>
2.37481e-05

>  <SCORE.SYSTEM>
0

>  <SCORE.SYSTEM.CONST>
0

>  <SCORE.SYSTEM.DIHEDRAL>
0

>  <SCORE.SYSTEM.SOLV>
0

>  <SCORE.SYSTEM.norm>
0

>  <SCORE.heavy>
16

>  <SCORE.norm>
-0.282041

>  <RMSD>
1.361

$$$$
ligand
 OpenBabel11021811463D
libRbt.so/2013.1/901 2013/11/27
 16 16  0  0  0  0  0  0  0  0999 V2000
   51.8688   34.1167   53.6701 P   0  0  2  0  0  0  0  0  0  0  0  0
   52.8758   33.4283   54.5154 O   0  0  0  0  0  0  0  0  0  0  0  0
   52.0236   33.6148   52.1452 O   0  5  0  0  0  0  0  0  0  0  0  0
   52.1195   35.7127   53.7557 O   0  0  0  0  0  0  0  0  0  0  0  0
   46.5580   33.9900   55.8164 C   0  0  2  0  0  0  0  0  0  0  0  0
   46.3270   32.5779   55.6089 O   0  0  0  0  0  0  0  0  0  0  0  0
   45.4638   34.8434   55.1117 C   0  0  2  0  0  0  0  0  0  0  0  0
   44.1352   34.4653   55.6274 N   0  0  0  0  0  0  0  0  0  0  0  0
   45.5354   34.5823   53.5911 C   0  0  1  0  0  0  0  0  0  0  0  0
   44.5383   35.3640   52.9120 O   0  0  0  0  0  0  0  0  0  0  0  0
   46.9432   34.9956   53.1138 C   0  0  2  0  0  0  0  0  0  0  0  0
   47.0493   34.7586   51.6996 O   0  0  0  0  0  0  0  0  0  0  0  0
   47.9914   34.1279   53.8760 C   0  0  2  0  0  0  0  0  0  0  0  0
   47.8864   34.3437   55.3149 O   0  0  0  0  0  0  0  0  0  0  0  0
   49.4227   34.5039   53.4595 C   0  0  0  0  0  0  0  0  0  0  0  0
   50.3875   33.7494   54.2140 O   0  0  0  0  0  0  0  0  0  0  0  0
  1  2  1  1  0  0  0
  1  3  1  0  0  0  0
  1  4  2  0  0  0  0
  1 16  1  0  0  0  0
  5  6  1  6  0  0  0
  5  7  1  0  0  0  0
  5 14  1  0  0  0  0
  7  8  1  1  0  0  0
  7  9  1  0  0  0  0
  9 10  1  6  0  0  0
  9 11  1  0  0  0  0
 11 12  1  6  0  0  0
 11 13  1  0  0  0  0
 13 14  1  0  0  0  0
 13 15  1  6  0  0  0
 15 16  1  0  0  0  0
M  CHG  1   3  -1
M  END
>  <CHROM.1>
177.07168647,176.47677130,175.41677108,48.53637837,34.29769384,53.98132395
-0.09190360,-0.09502677,1.94847573

>  <Name>
ligand

>  <RI>
0

>  <Rbt.Current_Directory>
/home/itssahil/PROJECTS/Mol_Feturizer/New_Systems/rnas/3B4A

>  <Rbt.Executable>
rbdock ($Id: //depot/dev/client3/rdock/2013.1/src/exe/rbdock.cxx#4 $)

>  <Rbt.Library>
libRbt.so (2013.1, Build901 2013/11/27)

>  <Rbt.Parameter_File>
/export/apps/rDock/src/rDock_2013.1_src/data/scripts/dock_solv.prm

>  <Rbt.Receptor>
prm/pocket_docking_2.prm

>  <SCORE>
-4.51706

>  <SCORE.INTER>
-3.11512

>  <SCORE.INTER.CONST>
1

>  <SCORE.INTER.POLAR>
0

>  <SCORE.INTER.ROT>
3

>  <SCORE.INTER.SOLV>
11.8524

>  <SCORE.INTER.VDW>
-11.6275

>  <SCORE.INTER.norm>
-0.194695

>  <SCORE.INTRA>
-1.40236

>  <SCORE.INTRA.DIHEDRAL>
-1.93215

>  <SCORE.INTRA.DIHEDRAL.0>
2.05999

>  <SCORE.INTRA.POLAR>
0

>  <SCORE.INTRA.POLAR.0>
0

>  <SCORE.INTRA.REPUL>
0

>  <SCORE.INTRA.REPUL.0>
0

>  <SCORE.INTRA.SOLV>
-0.411121

>  <SCORE.INTRA.SOLV.lig_0>
-58.7001

>  <SCORE.INTRA.VDW>
-0.23073

>  <SCORE.INTRA.VDW.0>
-0.401036

>  <SCORE.INTRA.norm>
-0.0876478

>  <SCORE.RESTR>
0.000424562

>  <SCORE.RESTR.CAVITY>
0.000424562

>  <SCORE.RESTR.norm>
2.65351e-05

>  <SCORE.SYSTEM>
0

>  <SCORE.SYSTEM.CONST>
0

>  <SCORE.SYSTEM.DIHEDRAL>
0

>  <SCORE.SYSTEM.SOLV>
0

>  <SCORE.SYSTEM.norm>
0

>  <SCORE.heavy>
16

>  <SCORE.norm>
-0.282316

>  <RMSD>
1.363

$$$$
ligand
 OpenBabel11021811463D
libRbt.so/2013.1/901 2013/11/27
 16 16  0  0  0  0  0  0  0  0999 V2000
   51.8296   33.8072   53.0810 P   0  0  2  0  0  0  0  0  0  0  0  0
   52.3427   34.7413   54.1138 O   0  0  0  0  0  0  0  0  0  0  0  0
   52.2239   32.2973   53.4882 O   0  5  0  0  0  0  0  0  0  0  0  0
   52.4954   34.1882   51.6566 O   0  0  0  0  0  0  0  0  0  0  0  0
   46.1956   33.4035   55.6774 C   0  0  2  0  0  0  0  0  0  0  0  0
   45.6335   32.4548   54.7424 O   0  0  0  0  0  0  0  0  0  0  0  0
   45.6814   34.8435   55.3875 C   0  0  2  0  0  0  0  0  0  0  0  0
   44.2091   34.8664   55.4649 N   0  0  0  0  0  0  0  0  0  0  0  0
   46.1438   35.2591   53.9737 C   0  0  1  0  0  0  0  0  0  0  0  0
   45.6879   36.5905   53.6804 O   0  0  0  0  0  0  0  0  0  0  0  0
   47.6860   35.2153   53.9568 C   0  0  2  0  0  0  0  0  0  0  0  0
   48.1533   35.5901   52.6498 O   0  0  0  0  0  0  0  0  0  0  0  0
   48.1365   33.7580   54.2824 C   0  0  2  0  0  0  0  0  0  0  0  0
   47.6561   33.3550   55.5995 O   0  0  0  0  0  0  0  0  0  0  0  0
   49.6699   33.6483   54.3006 C   0  0  0  0  0  0  0  0  0  0  0  0
   50.2171   33.9445   53.0037 O   0  0  0  0  0  0  0  0  0  0  0  0
  1  2  1  1  0  0  0
  1  3  1  0  0  0  0
  1  4  2  0  0  0  0
  1 16  1  0  0  0  0
  5  6  1  6  0  0  0
  5  7  1  0  0  0  0
  5 14  1  0  0  0  0
  7  8  1  6  0  0  0
  7  9  1  0  0  0  0
  9 10  1  1  0  0  0
  9 11  1  0  0  0  0
 11 12  1  6  0  0  0
 11 13  1  0  0  0  0
 13 14  1  0  0  0  0
 13 15  1  1  0  0  0
 15 16  1  0  0  0  0
M  CHG  1   3  -1
M  END
>  <CHROM.1>
-62.95918891,-179.74995860,-58.43922231,48.69553171,34.20666397,53.95991175
-0.04308336,-0.30101968,2.57331175

>  <Name>
ligand

>  <RI>
0

>  <Rbt.Current_Directory>
/home/itssahil/PROJECTS/Mol_Feturizer/New_Systems/rnas/3B4A

>  <Rbt.Executable>
rbdock ($Id: //depot/dev/client3/rdock/2013.1/src/exe/rbdock.cxx#4 $)

>  <Rbt.Library>
libRbt.so (2013.1, Build901 2013/11/27)

>  <Rbt.Parameter_File>
/export/apps/rDock/src/rDock_2013.1_src/data/scripts/dock_solv.prm

>  <Rbt.Receptor>
prm/pocket_docking_3.prm

>  <SCORE>
-4.95347

>  <SCORE.INTER>
-3.60718

>  <SCORE.INTER.CONST>
1

>  <SCORE.INTER.POLAR>
0

>  <SCORE.INTER.ROT>
3

>  <SCORE.INTER.SOLV>
11.4906

>  <SCORE.INTER.VDW>
-11.835

>  <SCORE.INTER.norm>
-0.225449

>  <SCORE.INTRA>
-1.34629

>  <SCORE.INTRA.DIHEDRAL>
-2.02246

>  <SCORE.INTRA.DIHEDRAL.0>
2.05999

>  <SCORE.INTRA.POLAR>
0

>  <SCORE.INTRA.POLAR.0>
0

>  <SCORE.INTRA.REPUL>
0

>  <SCORE.INTRA.REPUL.0>
0

>  <SCORE.INTRA.SOLV>
-0.673033

>  <SCORE.INTRA.SOLV.lig_0>
-58.7001

>  <SCORE.INTRA.VDW>
0.00145356

>  <SCORE.INTRA.VDW.0>
-0.401036

>  <SCORE.INTRA.norm>
-0.0841433

>  <SCORE.RESTR>
0

>  <SCORE.RESTR.CAVITY>
0

>  <SCORE.RESTR.norm>
0

>  <SCORE.SYSTEM>
0

>  <SCORE.SYSTEM.CONST>
0

>  <SCORE.SYSTEM.DIHEDRAL>
0

>  <SCORE.SYSTEM.SOLV>
0

>  <SCORE.SYSTEM.norm>
0

>  <SCORE.heavy>
16

>  <SCORE.norm>
-0.309592

>  <RMSD>
1.379

$$$$
ligand
 OpenBabel11021811463D
libRbt.so/2013.1/901 2013/11/27
 16 16  0  0  0  0  0  0  0  0999 V2000
   51.8774   34.8441   53.8207 P   0  0  2  0  0  0  0  0  0  0  0  0
   52.3944   34.1891   55.0480 O   0  0  0  0  0  0  0  0  0  0  0  0
   52.3127   33.9765   52.5327 O   0  5  0  0  0  0  0  0  0  0  0  0
   52.5020   36.3332   53.7219 O   0  0  0  0  0  0  0  0  0  0  0  0
   46.4114   34.3616   55.5001 C   0  0  2  0  0  0  0  0  0  0  0  0
   45.9093   33.0186   55.6854 O   0  0  0  0  0  0  0  0  0  0  0  0
   45.7176   35.0545   54.2914 C   0  0  2  0  0  0  0  0  0  0  0  0
   44.2597   35.0834   54.5098 N   0  0  0  0  0  0  0  0  0  0  0  0
   46.0452   34.2579   53.0094 C   0  0  1  0  0  0  0  0  0  0  0  0
   45.4216   34.8798   51.8731 O   0  0  0  0  0  0  0  0  0  0  0  0
   47.5784   34.2637   52.8369 C   0  0  2  0  0  0  0  0  0  0  0  0
   47.9218   33.5226   51.6537 O   0  0  0  0  0  0  0  0  0  0  0  0
   48.2131   33.5851   54.0895 C   0  0  2  0  0  0  0  0  0  0  0  0
   47.8606   34.3153   55.3021 O   0  0  0  0  0  0  0  0  0  0  0  0
   49.7473   33.5749   53.9905 C   0  0  0  0  0  0  0  0  0  0  0  0
   50.2610   34.9158   53.9052 O   0  0  0  0  0  0  0  0  0  0  0  0
  1  2  1  1  0  0  0
  1  3  1  0  0  0  0
  1  4  2  0  0  0  0
  1 16  1  0  0  0  0
  5  6  1  6  0  0  0
  5  7  1  0  0  0  0
  5 14  1  0  0  0  0
  7  8  1  1  0  0  0
  7  9  1  0  0  0  0
  9 10  1  6  0  0  0
  9 11  1  0  0  0  0
 11 12  1  6  0  0  0
 11 13  1  0  0  0  0
 13 14  1  0  0  0  0
 13 15  1  6  0  0  0
 15 16  1  0  0  0  0
M  CHG  1   3  -1
M  END
>  <CHROM.1>
60.18059592,179.34726601,-60.68682249,48.72585959,34.41886415,53.84711462
-0.03570482,0.06492100,1.64092724

>  <Name>
ligand

>  <RI>
0

>  <Rbt.Current_Directory>
/home/itssahil/PROJECTS/Mol_Feturizer/New_Systems/rnas/3B4A

>  <Rbt.Executable>
rbdock ($Id: //depot/dev/client3/rdock/2013.1/src/exe/rbdock.cxx#4 $)

>  <Rbt.Library>
libRbt.so (2013.1, Build901 2013/11/27)

>  <Rbt.Parameter_File>
/export/apps/rDock/src/rDock_2013.1_src/data/scripts/dock_solv.prm

>  <Rbt.Receptor>
prm/pocket_docking_4.prm

>  <SCORE>
-5.00655

>  <SCORE.INTER>
-3.34426

>  <SCORE.INTER.CONST>
1

>  <SCORE.INTER.POLAR>
0

>  <SCORE.INTER.ROT>
3

>  <SCORE.INTER.SOLV>
9.58168

>  <SCORE.INTER.VDW>
-11.0234

>  <SCORE.INTER.norm>
-0.209017

>  <SCORE.INTRA>
-1.66229

>  <SCORE.INTRA.DIHEDRAL>
-2.05452

>  <SCORE.INTRA.DIHEDRAL.0>
2.05999

>  <SCORE.INTRA.POLAR>
0

>  <SCORE.INTRA.POLAR.0>
0

>  <SCORE.INTRA.REPUL>
0

>  <SCORE.INTRA.REPUL.0>
0

>  <SCORE.INTRA.SOLV>
-0.84191

>  <SCORE.INTRA.SOLV.lig_0>
-58.7001

>  <SCORE.INTRA.VDW>
-0.214072

>  <SCORE.INTRA.VDW.0>
-0.401036

>  <SCORE.INTRA.norm>
-0.103893

>  <SCORE.RESTR>
0

>  <SCORE.RESTR.CAVITY>
0

>  <SCORE.RESTR.norm>
0

>  <SCORE.SYSTEM>
0

>  <SCORE.SYSTEM.CONST>
0

>  <SCORE.SYSTEM.DIHEDRAL>
0

>  <SCORE.SYSTEM.SOLV>
0

>  <SCORE.SYSTEM.norm>
0

>  <SCORE.heavy>
16

>  <SCORE.norm>
-0.312909

>  <RMSD>
1.395

$$$$
ligand
 OpenBabel11021811463D
libRbt.so/2013.1/901 2013/11/27
 16 16  0  0  0  0  0  0  0  0999 V2000
   51.8820   34.8377   53.8359 P   0  0  2  0  0  0  0  0  0  0  0  0
   52.4043   34.1907   55.0652 O   0  0  0  0  0  0  0  0  0  0  0  0
   52.3120   33.9619   52.5516 O   0  5  0  0  0  0  0  0  0  0  0  0
   52.5059   36.3262   53.7249 O   0  0  0  0  0  0  0  0  0  0  0  0
   46.4146   34.3614   55.5072 C   0  0  2  0  0  0  0  0  0  0  0  0
   45.9128   33.0191   55.6988 O   0  0  0  0  0  0  0  0  0  0  0  0
   45.7213   35.0480   54.2948 C   0  0  2  0  0  0  0  0  0  0  0  0
   44.2632   35.0775   54.5120 N   0  0  0  0  0  0  0  0  0  0  0  0
   46.0501   34.2453   53.0168 C   0  0  1  0  0  0  0  0  0  0  0  0
   45.4270   34.8613   51.8771 O   0  0  0  0  0  0  0  0  0  0  0  0
   47.5833   34.2508   52.8453 C   0  0  2  0  0  0  0  0  0  0  0  0
   47.9279   33.5041   51.6660 O   0  0  0  0  0  0  0  0  0  0  0  0
   48.2175   33.5785   54.1018 C   0  0  2  0  0  0  0  0  0  0  0  0
   47.8639   34.3146   55.3105 O   0  0  0  0  0  0  0  0  0  0  0  0
   49.7517   33.5684   54.0038 C   0  0  0  0  0  0  0  0  0  0  0  0
   50.2660   34.9097   53.9267 O   0  0  0  0  0  0  0  0  0  0  0  0
  1  2  1  1  0  0  0
  1  3  1  0  0  0  0
  1  4  2  0  0  0  0
  1 16  1  0  0  0  0
  5  6  1  6  0  0  0
  5  7  1  0  0  0  0
  5 14  1  0  0  0  0
  7  8  1  1  0  0  0
  7  9  1  0  0  0  0
  9 10  1  6  0  0  0
  9 11  1  0  0  0  0
 11 12  1  6  0  0  0
 11 13  1  0  0  0  0
 13 14  1  0  0  0  0
 13 15  1  6  0  0  0
 15 16  1  0  0  0  0
M  CHG  1   3  -1
M  END
>  <CHROM.1>
60.79641120,179.61298286,-61.48656623,48.73026876,34.41137147,53.85810480
-0.03375560,0.06544878,1.63533442

>  <Name>
ligand

>  <RI>
0

>  <Rbt.Current_Directory>
/home/itssahil/PROJECTS/Mol_Feturizer/New_Systems/rnas/3B4A

>  <Rbt.Executable>
rbdock ($Id: //depot/dev/client3/rdock/2013.1/src/exe/rbdock.cxx#4 $)

>  <Rbt.Library>
libRbt.so (2013.1, Build901 2013/11/27)

>  <Rbt.Parameter_File>
/export/apps/rDock/src/rDock_2013.1_src/data/scripts/dock_solv.prm

>  <Rbt.Receptor>
prm/pocket_docking_3.prm

>  <SCORE>
-5.0021

>  <SCORE.INTER>
-3.34018

>  <SCORE.INTER.CONST>
1

>  <SCORE.INTER.POLAR>
0

>  <SCORE.INTER.ROT>
3

>  <SCORE.INTER.SOLV>
9.62873

>  <SCORE.INTER.VDW>
-11.0364

>  <SCORE.INTER.norm>
-0.208761

>  <SCORE.INTRA>
-1.66192

>  <SCORE.INTRA.DIHEDRAL>
-2.05069

>  <SCORE.INTRA.DIHEDRAL.0>
2.05999

>  <SCORE.INTRA.POLAR>
0

>  <SCORE.INTRA.POLAR.0>
0

>  <SCORE.INTRA.REPUL>
0

>  <SCORE.INTRA.REPUL.0>
0

>  <SCORE.INTRA.SOLV>
-0.833408

>  <SCORE.INTRA.SOLV.lig_0>
-58.7001

>  <SCORE.INTRA.VDW>
-0.219867

>  <SCORE.INTRA.VDW.0>
-0.401036

>  <SCORE.INTRA.norm>
-0.10387

>  <SCORE.RESTR>
0

>  <SCORE.RESTR.CAVITY>
0

>  <SCORE.RESTR.norm>
0

>  <SCORE.SYSTEM>
0

>  <SCORE.SYSTEM.CONST>
0

>  <SCORE.SYSTEM.DIHEDRAL>
0

>  <SCORE.SYSTEM.SOLV>
0

>  <SCORE.SYSTEM.norm>
0

>  <SCORE.heavy>
16

>  <SCORE.norm>
-0.312631

>  <RMSD>
1.397

$$$$
ligand
 OpenBabel11021811463D
libRbt.so/2013.1/901 2013/11/27
 16 16  0  0  0  0  0  0  0  0999 V2000
   50.8864   36.3100   53.0222 P   0  0  2  0  0  0  0  0  0  0  0  0
   51.7481   35.9417   54.1731 O   0  0  0  0  0  0  0  0  0  0  0  0
   51.3694   35.4965   51.7160 O   0  5  0  0  0  0  0  0  0  0  0  0
   51.0157   37.9015   52.7624 O   0  0  0  0  0  0  0  0  0  0  0  0
   46.3731   34.1919   55.8403 C   0  0  2  0  0  0  0  0  0  0  0  0
   46.2818   32.7518   55.9289 O   0  0  0  0  0  0  0  0  0  0  0  0
   45.2294   34.7699   54.9571 C   0  0  2  0  0  0  0  0  0  0  0  0
   43.9246   34.3779   55.5211 N   0  0  0  0  0  0  0  0  0  0  0  0
   45.3776   34.2088   53.5258 C   0  0  1  0  0  0  0  0  0  0  0  0
   44.3362   34.7318   52.6840 O   0  0  0  0  0  0  0  0  0  0  0  0
   46.7565   34.6508   52.9932 C   0  0  2  0  0  0  0  0  0  0  0  0
   46.9330   34.1386   51.6614 O   0  0  0  0  0  0  0  0  0  0  0  0
   47.8538   34.0663   53.9350 C   0  0  2  0  0  0  0  0  0  0  0  0
   47.6795   34.5631   55.2954 O   0  0  0  0  0  0  0  0  0  0  0  0
   49.2575   34.4869   53.4699 C   0  0  0  0  0  0  0  0  0  0  0  0
   49.3528   35.9186   53.3684 O   0  0  0  0  0  0  0  0  0  0  0  0
  1  2  1  1  0  0  0
  1  3  1  0  0  0  0
  1  4  2  0  0  0  0
  1 16  1  0  0  0  0
  5  6  1  6  0  0  0
  5  7  1  0  0  0  0
  5 14  1  0  0  0  0
  7  8  1  1  0  0  0
  7  9  1  0  0  0  0
  9 10  1  6  0  0  0
  9 11  1  0  0  0  0
 11 12  1  6  0  0  0
 11 13  1  0  0  0  0
 13 14  1  0  0  0  0
 13 15  1  6  0  0  0
 15 16  1  0  0  0  0
M  CHG  1   3  -1
M  END
>  <CHROM.1>
55.44106286,174.36128119,-65.89114709,48.06320596,35.02873547,53.71959981
-0.33814362,0.28710852,1.82450873

>  <Name>
ligand

>  <RI>
0

>  <Rbt.Current_Directory>
/home/itssahil/PROJECTS/Mol_Feturizer/New_Systems/rnas/3B4A

>  <Rbt.Executable>
rbdock ($Id: //depot/dev/client3/rdock/2013.1/src/exe/rbdock.cxx#4 $)

>  <Rbt.Library>
libRbt.so (2013.1, Build901 2013/11/27)

>  <Rbt.Parameter_File>
/export/apps/rDock/src/rDock_2013.1_src/data/scripts/dock_solv.prm

>  <Rbt.Receptor>
prm/pocket_docking_4.prm

>  <SCORE>
-5.27155

>  <SCORE.INTER>
-3.81624

>  <SCORE.INTER.CONST>
1

>  <SCORE.INTER.POLAR>
0

>  <SCORE.INTER.ROT>
3

>  <SCORE.INTER.SOLV>
13.4357

>  <SCORE.INTER.VDW>
-12.6227

>  <SCORE.INTER.norm>
-0.238515

>  <SCORE.INTRA>
-1.4553

>  <SCORE.INTRA.DIHEDRAL>
-1.77188

>  <SCORE.INTRA.DIHEDRAL.0>
2.05999

>  <SCORE.INTRA.POLAR>
0

>  <SCORE.INTRA.POLAR.0>
0

>  <SCORE.INTRA.REPUL>
0

>  <SCORE.INTRA.REPUL.0>
0

>  <SCORE.INTRA.SOLV>
-0.796243

>  <SCORE.INTRA.SOLV.lig_0>
-58.7001

>  <SCORE.INTRA.VDW>
-0.17124

>  <SCORE.INTRA.VDW.0>
-0.401036

>  <SCORE.INTRA.norm>
-0.0909565

>  <SCORE.RESTR>
0

>  <SCORE.RESTR.CAVITY>
0

>  <SCORE.RESTR.norm>
0

>  <SCORE.SYSTEM>
0

>  <SCORE.SYSTEM.CONST>
0

>  <SCORE.SYSTEM.DIHEDRAL>
0

>  <SCORE.SYSTEM.SOLV>
0

>  <SCORE.SYSTEM.norm>
0

>  <SCORE.heavy>
16

>  <SCORE.norm>
-0.329472

>  <RMSD>
1.514

$$$$
ligand
 OpenBabel11021811463D
libRbt.so/2013.1/901 2013/11/27
 16 16  0  0  0  0  0  0  0  0999 V2000
   51.1612   36.0007   52.7522 P   0  0  2  0  0  0  0  0  0  0  0  0
   51.0151   35.9515   51.2761 O   0  0  0  0  0  0  0  0  0  0  0  0
   51.7691   37.4327   53.1777 O   0  5  0  0  0  0  0  0  0  0  0  0
   52.1593   34.8154   53.2171 O   0  0  0  0  0  0  0  0  0  0  0  0
   46.5526   34.1348   55.6797 C   0  0  2  0  0  0  0  0  0  0  0  0
   46.0616   32.8190   55.3367 O   0  0  0  0  0  0  0  0  0  0  0  0
   45.5498   35.2380   55.2333 C   0  0  2  0  0  0  0  0  0  0  0  0
   44.2413   35.0025   55.8710 N   0  0  0  0  0  0  0  0  0  0  0  0
   45.4070   35.1846   53.6963 C   0  0  1  0  0  0  0  0  0  0  0  0
   44.4897   36.1991   53.2537 O   0  0  0  0  0  0  0  0  0  0  0  0
   46.8032   35.4370   53.0902 C   0  0  2  0  0  0  0  0  0  0  0  0
   46.7100   35.3869   51.6563 O   0  0  0  0  0  0  0  0  0  0  0  0
   47.7649   34.3189   53.5976 C   0  0  2  0  0  0  0  0  0  0  0  0
   47.8583   34.3446   55.0531 O   0  0  0  0  0  0  0  0  0  0  0  0
   49.1846   34.5225   53.0437 C   0  0  0  0  0  0  0  0  0  0  0  0
   49.7028   35.8074   53.4307 O   0  0  0  0  0  0  0  0  0  0  0  0
  1  2  1  6  0  0  0
  1  3  1  0  0  0  0
  1  4  2  0  0  0  0
  1 16  1  0  0  0  0
  5  6  1  6  0  0  0
  5  7  1  0  0  0  0
  5 14  1  0  0  0  0
  7  8  1  1  0  0  0
  7  9  1  0  0  0  0
  9 10  1  6  0  0  0
  9 11  1  0  0  0  0
 11 12  1  6  0  0  0
 11 13  1  0  0  0  0
 13 14  1  0  0  0  0
 13 15  1  6  0  0  0
 15 16  1  0  0  0  0
M  CHG  1   3  -1
M  END
>  <CHROM.1>
58.44199071,-176.84413705,60.93241670,48.20226980,35.23600659,53.60910753
-0.37378349,-0.03422355,2.20054238

>  <Name>
ligand

>  <RI>
0

>  <Rbt.Current_Directory>
/home/itssahil/PROJECTS/Mol_Feturizer/New_Systems/rnas/3B4A

>  <Rbt.Executable>
rbdock ($Id: //depot/dev/client3/rdock/2013.1/src/exe/rbdock.cxx#4 $)

>  <Rbt.Library>
libRbt.so (2013.1, Build901 2013/11/27)

>  <Rbt.Parameter_File>
/export/apps/rDock/src/rDock_2013.1_src/data/scripts/dock_solv.prm

>  <Rbt.Receptor>
prm/pocket_docking_4.prm

>  <SCORE>
-4.60692

>  <SCORE.INTER>
-2.95314

>  <SCORE.INTER.CONST>
1

>  <SCORE.INTER.POLAR>
0

>  <SCORE.INTER.ROT>
3

>  <SCORE.INTER.SOLV>
11.9754

>  <SCORE.INTER.VDW>
-11.5606

>  <SCORE.INTER.norm>
-0.184571

>  <SCORE.INTRA>
-1.65378

>  <SCORE.INTRA.DIHEDRAL>
-1.99874

>  <SCORE.INTRA.DIHEDRAL.0>
2.05999

>  <SCORE.INTRA.POLAR>
0

>  <SCORE.INTRA.POLAR.0>
0

>  <SCORE.INTRA.REPUL>
0

>  <SCORE.INTRA.REPUL.0>
0

>  <SCORE.INTRA.SOLV>
-0.85738

>  <SCORE.INTRA.SOLV.lig_0>
-58.7001

>  <SCORE.INTRA.VDW>
-0.225723

>  <SCORE.INTRA.VDW.0>
-0.401036

>  <SCORE.INTRA.norm>
-0.103361

>  <SCORE.RESTR>
0

>  <SCORE.RESTR.CAVITY>
0

>  <SCORE.RESTR.norm>
0

>  <SCORE.SYSTEM>
0

>  <SCORE.SYSTEM.CONST>
0

>  <SCORE.SYSTEM.DIHEDRAL>
0

>  <SCORE.SYSTEM.SOLV>
0

>  <SCORE.SYSTEM.norm>
0

>  <SCORE.heavy>
16

>  <SCORE.norm>
-0.287933

>  <RMSD>
1.536

$$$$
ligand
 OpenBabel11021811463D
libRbt.so/2013.1/901 2013/11/27
 16 16  0  0  0  0  0  0  0  0999 V2000
   50.8981   36.1290   52.6305 P   0  0  2  0  0  0  0  0  0  0  0  0
   50.6685   35.8095   51.1995 O   0  0  0  0  0  0  0  0  0  0  0  0
   51.2984   37.6851   52.7691 O   0  5  0  0  0  0  0  0  0  0  0  0
   52.0978   35.1971   53.1867 O   0  0  0  0  0  0  0  0  0  0  0  0
   46.4519   34.1773   55.8694 C   0  0  2  0  0  0  0  0  0  0  0  0
   46.1396   32.7723   55.7333 O   0  0  0  0  0  0  0  0  0  0  0  0
   45.3741   35.0581   55.1731 C   0  0  2  0  0  0  0  0  0  0  0  0
   44.0510   34.7733   55.7583 N   0  0  0  0  0  0  0  0  0  0  0  0
   45.3671   34.7307   53.6637 C   0  0  1  0  0  0  0  0  0  0  0  0
   44.3835   35.5359   52.9921 O   0  0  0  0  0  0  0  0  0  0  0  0
   46.7726   35.0481   53.1121 C   0  0  2  0  0  0  0  0  0  0  0  0
   46.8057   34.7474   51.7065 O   0  0  0  0  0  0  0  0  0  0  0  0
   47.8062   34.1579   53.8684 C   0  0  2  0  0  0  0  0  0  0  0  0
   47.7742   34.4384   55.2995 O   0  0  0  0  0  0  0  0  0  0  0  0
   49.2359   34.4392   53.3782 C   0  0  0  0  0  0  0  0  0  0  0  0
   49.5342   35.8442   53.4573 O   0  0  0  0  0  0  0  0  0  0  0  0
  1  2  1  6  0  0  0
  1  3  1  0  0  0  0
  1  4  2  0  0  0  0
  1 16  1  0  0  0  0
  5  6  1  6  0  0  0
  5  7  1  0  0  0  0
  5 14  1  0  0  0  0
  7  8  1  1  0  0  0
  7  9  1  0  0  0  0
  9 10  1  6  0  0  0
  9 11  1  0  0  0  0
 11 12  1  6  0  0  0
 11 13  1  0  0  0  0
 13 14  1  0  0  0  0
 13 15  1  6  0  0  0
 15 16  1  0  0  0  0
M  CHG  1   3  -1
M  END
>  <CHROM.1>
53.47651990,-167.35247228,63.62683633,48.07891992,35.12933669,53.62297340
0.44145406,-0.07559440,-1.08686812

>  <Name>
ligand

>  <RI>
0

>  <Rbt.Current_Directory>
/home/itssahil/PROJECTS/Mol_Feturizer/New_Systems/rnas/3B4A

>  <Rbt.Executable>
rbdock ($Id: //depot/dev/client3/rdock/2013.1/src/exe/rbdock.cxx#4 $)

>  <Rbt.Library>
libRbt.so (2013.1, Build901 2013/11/27)

>  <Rbt.Parameter_File>
/export/apps/rDock/src/rDock_2013.1_src/data/scripts/dock_solv.prm

>  <Rbt.Receptor>
prm/pocket_docking_3.prm

>  <SCORE>
-4.24283

>  <SCORE.INTER>
-3.04634

>  <SCORE.INTER.CONST>
1

>  <SCORE.INTER.POLAR>
0

>  <SCORE.INTER.ROT>
3

>  <SCORE.INTER.SOLV>
12.5066

>  <SCORE.INTER.VDW>
-11.7998

>  <SCORE.INTER.norm>
-0.190396

>  <SCORE.INTRA>
-1.19649

>  <SCORE.INTRA.DIHEDRAL>
-1.12443

>  <SCORE.INTRA.DIHEDRAL.0>
2.05999

>  <SCORE.INTRA.POLAR>
0

>  <SCORE.INTRA.POLAR.0>
0

>  <SCORE.INTRA.REPUL>
0

>  <SCORE.INTRA.REPUL.0>
0

>  <SCORE.INTRA.SOLV>
-0.775803

>  <SCORE.INTRA.SOLV.lig_0>
-58.7001

>  <SCORE.INTRA.VDW>
-0.246376

>  <SCORE.INTRA.VDW.0>
-0.401036

>  <SCORE.INTRA.norm>
-0.0747809

>  <SCORE.RESTR>
0

>  <SCORE.RESTR.CAVITY>
0

>  <SCORE.RESTR.norm>
0

>  <SCORE.SYSTEM>
0

>  <SCORE.SYSTEM.CONST>
0

>  <SCORE.SYSTEM.DIHEDRAL>
0

>  <SCORE.SYSTEM.SOLV>
0

>  <SCORE.SYSTEM.norm>
0

>  <SCORE.heavy>
16

>  <SCORE.norm>
-0.265177

>  <RMSD>
1.540

$$$$
ligand
 OpenBabel11021811463D
libRbt.so/2013.1/901 2013/11/27
 16 16  0  0  0  0  0  0  0  0999 V2000
   51.1361   36.0253   52.8110 P   0  0  2  0  0  0  0  0  0  0  0  0
   50.9910   36.0580   51.3344 O   0  0  0  0  0  0  0  0  0  0  0  0
   51.7709   37.4204   53.3128 O   0  5  0  0  0  0  0  0  0  0  0  0
   52.1104   34.7977   53.2122 O   0  0  0  0  0  0  0  0  0  0  0  0
   46.5413   34.1313   55.7101 C   0  0  2  0  0  0  0  0  0  0  0  0
   46.0616   32.8111   55.3675 O   0  0  0  0  0  0  0  0  0  0  0  0
   45.5232   35.2249   55.2746 C   0  0  2  0  0  0  0  0  0  0  0  0
   44.2225   34.9737   55.9220 N   0  0  0  0  0  0  0  0  0  0  0  0
   45.3688   35.1739   53.7387 C   0  0  1  0  0  0  0  0  0  0  0  0
   44.4372   36.1797   53.3060 O   0  0  0  0  0  0  0  0  0  0  0  0
   46.7573   35.4427   53.1222 C   0  0  2  0  0  0  0  0  0  0  0  0
   46.6533   35.3953   51.6890 O   0  0  0  0  0  0  0  0  0  0  0  0
   47.7350   34.3336   53.6190 C   0  0  2  0  0  0  0  0  0  0  0  0
   47.8396   34.3566   55.0737 O   0  0  0  0  0  0  0  0  0  0  0  0
   49.1479   34.5539   53.0544 C   0  0  0  0  0  0  0  0  0  0  0  0
   49.6732   35.8243   53.4778 O   0  0  0  0  0  0  0  0  0  0  0  0
  1  2  1  6  0  0  0
  1  3  1  0  0  0  0
  1  4  2  0  0  0  0
  1 16  1  0  0  0  0
  5  6  1  6  0  0  0
  5  7  1  0  0  0  0
  5 14  1  0  0  0  0
  7  8  1  1  0  0  0
  7  9  1  0  0  0  0
  9 10  1  6  0  0  0
  9 11  1  0  0  0  0
 11 12  1  6  0  0  0
 11 13  1  0  0  0  0
 13 14  1  0  0  0  0
 13 15  1  6  0  0  0
 15 16  1  0  0  0  0
M  CHG  1   3  -1
M  END
>  <CHROM.1>
60.37281639,-177.94344577,62.63852064,48.17374024,35.24432203,53.65201723
-0.37289475,-0.02525861,2.19584805

>  <Name>
ligand

>  <RI>
0

>  <Rbt.Current_Directory>
/home/itssahil/PROJECTS/Mol_Feturizer/New_Systems/rnas/3B4A

>  <Rbt.Executable>
rbdock ($Id: //depot/dev/client3/rdock/2013.1/src/exe/rbdock.cxx#4 $)

>  <Rbt.Library>
libRbt.so (2013.1, Build901 2013/11/27)

>  <Rbt.Parameter_File>
/export/apps/rDock/src/rDock_2013.1_src/data/scripts/dock_solv.prm

>  <Rbt.Receptor>
prm/pocket_docking_4.prm

>  <SCORE>
-4.62183

>  <SCORE.INTER>
-2.95246

>  <SCORE.INTER.CONST>
1

>  <SCORE.INTER.POLAR>
0

>  <SCORE.INTER.ROT>
3

>  <SCORE.INTER.SOLV>
12.5972

>  <SCORE.INTER.VDW>
-11.7674

>  <SCORE.INTER.norm>
-0.184529

>  <SCORE.INTRA>
-1.66937

>  <SCORE.INTRA.DIHEDRAL>
-2.02457

>  <SCORE.INTRA.DIHEDRAL.0>
2.05999

>  <SCORE.INTRA.POLAR>
0

>  <SCORE.INTRA.POLAR.0>
0

>  <SCORE.INTRA.REPUL>
0

>  <SCORE.INTRA.REPUL.0>
0

>  <SCORE.INTRA.SOLV>
-0.838284

>  <SCORE.INTRA.SOLV.lig_0>
-58.7001

>  <SCORE.INTRA.VDW>
-0.237942

>  <SCORE.INTRA.VDW.0>
-0.401036

>  <SCORE.INTRA.norm>
-0.104336

>  <SCORE.RESTR>
0

>  <SCORE.RESTR.CAVITY>
0

>  <SCORE.RESTR.norm>
0

>  <SCORE.SYSTEM>
0

>  <SCORE.SYSTEM.CONST>
0

>  <SCORE.SYSTEM.DIHEDRAL>
0

>  <SCORE.SYSTEM.SOLV>
0

>  <SCORE.SYSTEM.norm>
0

>  <SCORE.heavy>
16

>  <SCORE.norm>
-0.288865

>  <RMSD>
1.545

$$$$
ligand
 OpenBabel11021811463D
libRbt.so/2013.1/901 2013/11/27
 16 16  0  0  0  0  0  0  0  0999 V2000
   50.8934   36.3511   53.0190 P   0  0  2  0  0  0  0  0  0  0  0  0
   51.7630   35.8949   54.1318 O   0  0  0  0  0  0  0  0  0  0  0  0
   51.3172   35.5834   51.6654 O   0  5  0  0  0  0  0  0  0  0  0  0
   51.0805   37.9472   52.8318 O   0  0  0  0  0  0  0  0  0  0  0  0
   46.3774   34.2081   55.8354 C   0  0  2  0  0  0  0  0  0  0  0  0
   46.2110   32.7725   55.7963 O   0  0  0  0  0  0  0  0  0  0  0  0
   45.2400   34.9229   55.0495 C   0  0  2  0  0  0  0  0  0  0  0  0
   43.9338   34.5477   55.6216 N   0  0  0  0  0  0  0  0  0  0  0  0
   45.3135   34.4897   53.5688 C   0  0  1  0  0  0  0  0  0  0  0  0
   44.2766   35.1407   52.8155 O   0  0  0  0  0  0  0  0  0  0  0  0
   46.6973   34.9079   53.0297 C   0  0  2  0  0  0  0  0  0  0  0  0
   46.8048   34.5126   51.6515 O   0  0  0  0  0  0  0  0  0  0  0  0
   47.7898   34.1836   53.8750 C   0  0  2  0  0  0  0  0  0  0  0  0
   47.6845   34.5609   55.2801 O   0  0  0  0  0  0  0  0  0  0  0  0
   49.1993   34.5730   53.4003 C   0  0  0  0  0  0  0  0  0  0  0  0
   49.3528   36.0032   53.3801 O   0  0  0  0  0  0  0  0  0  0  0  0
  1  2  1  1  0  0  0
  1  3  1  0  0  0  0
  1  4  2  0  0  0  0
  1 16  1  0  0  0  0
  5  6  1  6  0  0  0
  5  7  1  0  0  0  0
  5 14  1  0  0  0  0
  7  8  1  1  0  0  0
  7  9  1  0  0  0  0
  9 10  1  6  0  0  0
  9 11  1  0  0  0  0
 11 12  1  6  0  0  0
 11 13  1  0  0  0  0
 13 14  1  0  0  0  0
 13 15  1  6  0  0  0
 15 16  1  0  0  0  0
M  CHG  1   3  -1
M  END
>  <CHROM.1>
53.38289238,174.36706173,-66.56413920,48.03810442,35.15226651,53.72408160
-0.36500600,0.22371873,1.92647817

>  <Name>
ligand

>  <RI>
0

>  <Rbt.Current_Directory>
/home/itssahil/PROJECTS/Mol_Feturizer/New_Systems/rnas/3B4A

>  <Rbt.Executable>
rbdock ($Id: //depot/dev/client3/rdock/2013.1/src/exe/rbdock.cxx#4 $)

>  <Rbt.Library>
libRbt.so (2013.1, Build901 2013/11/27)

>  <Rbt.Parameter_File>
/export/apps/rDock/src/rDock_2013.1_src/data/scripts/dock_solv.prm

>  <Rbt.Receptor>
prm/pocket_docking_5.prm

>  <SCORE>
-5.36615

>  <SCORE.INTER>
-3.98134

>  <SCORE.INTER.CONST>
1

>  <SCORE.INTER.POLAR>
0

>  <SCORE.INTER.ROT>
3

>  <SCORE.INTER.SOLV>
13.2096

>  <SCORE.INTER.VDW>
-12.6574

>  <SCORE.INTER.norm>
-0.248834

>  <SCORE.INTRA>
-1.38481

>  <SCORE.INTRA.DIHEDRAL>
-1.67731

>  <SCORE.INTRA.DIHEDRAL.0>
2.05999

>  <SCORE.INTRA.POLAR>
0

>  <SCORE.INTRA.POLAR.0>
0

>  <SCORE.INTRA.REPUL>
0

>  <SCORE.INTRA.REPUL.0>
0

>  <SCORE.INTRA.SOLV>
-0.787706

>  <SCORE.INTRA.SOLV.lig_0>
-58.7001

>  <SCORE.INTRA.VDW>
-0.152308

>  <SCORE.INTRA.VDW.0>
-0.401036

>  <SCORE.INTRA.norm>
-0.0865509

>  <SCORE.RESTR>
0

>  <SCORE.RESTR.CAVITY>
0

>  <SCORE.RESTR.norm>
0

>  <SCORE.SYSTEM>
0

>  <SCORE.SYSTEM.CONST>
0

>  <SCORE.SYSTEM.DIHEDRAL>
0

>  <SCORE.SYSTEM.SOLV>
0

>  <SCORE.SYSTEM.norm>
0

>  <SCORE.heavy>
16

>  <SCORE.norm>
-0.335385

>  <RMSD>
1.547

$$$$
ligand
 OpenBabel11021811463D
libRbt.so/2013.1/901 2013/11/27
 16 16  0  0  0  0  0  0  0  0999 V2000
   51.9327   33.8048   52.8612 P   0  0  2  0  0  0  0  0  0  0  0  0
   52.4241   33.9665   51.4702 O   0  0  0  0  0  0  0  0  0  0  0  0
   52.5262   34.9937   53.7752 O   0  5  0  0  0  0  0  0  0  0  0  0
   52.4285   32.3721   53.4260 O   0  0  0  0  0  0  0  0  0  0  0  0
   46.4504   33.3262   55.7475 C   0  0  2  0  0  0  0  0  0  0  0  0
   45.8802   32.3410   54.8561 O   0  0  0  0  0  0  0  0  0  0  0  0
   45.8699   34.7411   55.4593 C   0  0  2  0  0  0  0  0  0  0  0  0
   44.4030   34.7120   55.6068 N   0  0  0  0  0  0  0  0  0  0  0  0
   46.2490   35.1477   54.0183 C   0  0  1  0  0  0  0  0  0  0  0  0
   45.7306   36.4562   53.7256 O   0  0  0  0  0  0  0  0  0  0  0  0
   47.7892   35.1597   53.9282 C   0  0  2  0  0  0  0  0  0  0  0  0
   48.1799   35.5276   52.5943 O   0  0  0  0  0  0  0  0  0  0  0  0
   48.3085   33.7258   54.2553 C   0  0  2  0  0  0  0  0  0  0  0  0
   47.9063   33.3294   55.6003 O   0  0  0  0  0  0  0  0  0  0  0  0
   49.8440   33.6722   54.2017 C   0  0  0  0  0  0  0  0  0  0  0  0
   50.3143   33.8795   52.8581 O   0  0  0  0  0  0  0  0  0  0  0  0
  1  2  1  6  0  0  0
  1  3  1  0  0  0  0
  1  4  2  0  0  0  0
  1 16  1  0  0  0  0
  5  6  1  6  0  0  0
  5  7  1  0  0  0  0
  5 14  1  0  0  0  0
  7  8  1  6  0  0  0
  7  9  1  0  0  0  0
  9 10  1  1  0  0  0
  9 11  1  0  0  0  0
 11 12  1  6  0  0  0
 11 13  1  0  0  0  0
 13 14  1  0  0  0  0
 13 15  1  1  0  0  0
 15 16  1  0  0  0  0
M  CHG  1   3  -1
M  END
>  <CHROM.1>
-66.66511439,-179.69879888,177.88467436,48.83340700,34.16076478,53.90214299
0.08490666,0.32563027,-0.59017776

>  <Name>
ligand

>  <RI>
0

>  <Rbt.Current_Directory>
/home/itssahil/PROJECTS/Mol_Feturizer/New_Systems/rnas/3B4A

>  <Rbt.Executable>
rbdock ($Id: //depot/dev/client3/rdock/2013.1/src/exe/rbdock.cxx#4 $)

>  <Rbt.Library>
libRbt.so (2013.1, Build901 2013/11/27)

>  <Rbt.Parameter_File>
/export/apps/rDock/src/rDock_2013.1_src/data/scripts/dock_solv.prm

>  <Rbt.Receptor>
prm/pocket_docking_3.prm

>  <SCORE>
-4.49006

>  <SCORE.INTER>
-3.23654

>  <SCORE.INTER.CONST>
1

>  <SCORE.INTER.POLAR>
0

>  <SCORE.INTER.ROT>
3

>  <SCORE.INTER.SOLV>
12.2236

>  <SCORE.INTER.VDW>
-11.8322

>  <SCORE.INTER.norm>
-0.202284

>  <SCORE.INTRA>
-1.25352

>  <SCORE.INTRA.DIHEDRAL>
-1.89274

>  <SCORE.INTRA.DIHEDRAL.0>
2.05999

>  <SCORE.INTRA.POLAR>
0

>  <SCORE.INTRA.POLAR.0>
0

>  <SCORE.INTRA.REPUL>
0

>  <SCORE.INTRA.REPUL.0>
0

>  <SCORE.INTRA.SOLV>
-0.0465599

>  <SCORE.INTRA.SOLV.lig_0>
-58.7001

>  <SCORE.INTRA.VDW>
-0.283874

>  <SCORE.INTRA.VDW.0>
-0.401036

>  <SCORE.INTRA.norm>
-0.0783451

>  <SCORE.RESTR>
0

>  <SCORE.RESTR.CAVITY>
0

>  <SCORE.RESTR.norm>
0

>  <SCORE.SYSTEM>
0

>  <SCORE.SYSTEM.CONST>
0

>  <SCORE.SYSTEM.DIHEDRAL>
0

>  <SCORE.SYSTEM.SOLV>
0

>  <SCORE.SYSTEM.norm>
0

>  <SCORE.heavy>
16

>  <SCORE.norm>
-0.280629

>  <RMSD>
1.548

$$$$
ligand
 OpenBabel11021811463D
libRbt.so/2013.1/901 2013/11/27
 16 16  0  0  0  0  0  0  0  0999 V2000
   50.9163   36.2971   52.8054 P   0  0  2  0  0  0  0  0  0  0  0  0
   50.9629   35.8703   51.3848 O   0  0  0  0  0  0  0  0  0  0  0  0
   51.1985   37.8826   52.8926 O   0  5  0  0  0  0  0  0  0  0  0  0
   52.0479   35.4872   53.6305 O   0  0  0  0  0  0  0  0  0  0  0  0
   46.4365   34.2008   55.7660 C   0  0  2  0  0  0  0  0  0  0  0  0
   46.2078   32.7768   55.6655 O   0  0  0  0  0  0  0  0  0  0  0  0
   45.3052   34.9987   55.0550 C   0  0  2  0  0  0  0  0  0  0  0  0
   44.0040   34.6502   55.6545 N   0  0  0  0  0  0  0  0  0  0  0  0
   45.3110   34.6349   53.5540 C   0  0  1  0  0  0  0  0  0  0  0  0
   44.2784   35.3636   52.8689 O   0  0  0  0  0  0  0  0  0  0  0  0
   46.6927   35.0216   52.9867 C   0  0  2  0  0  0  0  0  0  0  0  0
   46.7375   34.6893   51.5886 O   0  0  0  0  0  0  0  0  0  0  0  0
   47.7808   34.2131   53.7582 C   0  0  2  0  0  0  0  0  0  0  0  0
   47.7384   34.5260   55.1823 O   0  0  0  0  0  0  0  0  0  0  0  0
   49.1891   34.5669   53.2530 C   0  0  0  0  0  0  0  0  0  0  0  0
   49.4451   35.9745   53.4024 O   0  0  0  0  0  0  0  0  0  0  0  0
  1  2  1  6  0  0  0
  1  3  1  0  0  0  0
  1  4  2  0  0  0  0
  1 16  1  0  0  0  0
  5  6  1  6  0  0  0
  5  7  1  0  0  0  0
  5 14  1  0  0  0  0
  7  8  1  1  0  0  0
  7  9  1  0  0  0  0
  9 10  1  6  0  0  0
  9 11  1  0  0  0  0
 11 12  1  6  0  0  0
 11 13  1  0  0  0  0
 13 14  1  0  0  0  0
 13 15  1  6  0  0  0
 15 16  1  0  0  0  0
M  CHG  1   3  -1
M  END
>  <CHROM.1>
58.35956212,-177.92359916,57.77354297,48.05783311,35.17923911,53.61970140
-0.39653430,0.15795206,2.00471486

>  <Name>
ligand

>  <RI>
0

>  <Rbt.Current_Directory>
/home/itssahil/PROJECTS/Mol_Feturizer/New_Systems/rnas/3B4A

>  <Rbt.Executable>
rbdock ($Id: //depot/dev/client3/rdock/2013.1/src/exe/rbdock.cxx#4 $)

>  <Rbt.Library>
libRbt.so (2013.1, Build901 2013/11/27)

>  <Rbt.Parameter_File>
/export/apps/rDock/src/rDock_2013.1_src/data/scripts/dock_solv.prm

>  <Rbt.Receptor>
prm/pocket_docking_4.prm

>  <SCORE>
-4.62875

>  <SCORE.INTER>
-2.9827

>  <SCORE.INTER.CONST>
1

>  <SCORE.INTER.POLAR>
0

>  <SCORE.INTER.ROT>
3

>  <SCORE.INTER.SOLV>
13.1618

>  <SCORE.INTER.VDW>
-11.9757

>  <SCORE.INTER.norm>
-0.186419

>  <SCORE.INTRA>
-1.64604

>  <SCORE.INTRA.DIHEDRAL>
-2.01898

>  <SCORE.INTRA.DIHEDRAL.0>
2.05999

>  <SCORE.INTRA.POLAR>
0

>  <SCORE.INTRA.POLAR.0>
0

>  <SCORE.INTRA.REPUL>
0

>  <SCORE.INTRA.REPUL.0>
0

>  <SCORE.INTRA.SOLV>
-0.885801

>  <SCORE.INTRA.SOLV.lig_0>
-58.7001

>  <SCORE.INTRA.VDW>
-0.193653

>  <SCORE.INTRA.VDW.0>
-0.401036

>  <SCORE.INTRA.norm>
-0.102878

>  <SCORE.RESTR>
0

>  <SCORE.RESTR.CAVITY>
0

>  <SCORE.RESTR.norm>
0

>  <SCORE.SYSTEM>
0

>  <SCORE.SYSTEM.CONST>
0

>  <SCORE.SYSTEM.DIHEDRAL>
0

>  <SCORE.SYSTEM.SOLV>
0

>  <SCORE.SYSTEM.norm>
0

>  <SCORE.heavy>
16

>  <SCORE.norm>
-0.289297

>  <RMSD>
1.551

$$$$
ligand
 OpenBabel11021811463D
libRbt.so/2013.1/901 2013/11/27
 16 16  0  0  0  0  0  0  0  0999 V2000
   50.8155   36.3834   52.9433 P   0  0  2  0  0  0  0  0  0  0  0  0
   51.7452   35.9081   53.9979 O   0  0  0  0  0  0  0  0  0  0  0  0
   51.1721   35.6501   51.5518 O   0  5  0  0  0  0  0  0  0  0  0  0
   50.9827   37.9846   52.7840 O   0  0  0  0  0  0  0  0  0  0  0  0
   46.3523   34.1880   55.8496 C   0  0  2  0  0  0  0  0  0  0  0  0
   46.2034   32.7504   55.8127 O   0  0  0  0  0  0  0  0  0  0  0  0
   45.2051   34.8878   55.0646 C   0  0  2  0  0  0  0  0  0  0  0  0
   43.9046   34.4975   55.6394 N   0  0  0  0  0  0  0  0  0  0  0  0
   45.2816   34.4535   53.5844 C   0  0  1  0  0  0  0  0  0  0  0  0
   44.2356   35.0909   52.8319 O   0  0  0  0  0  0  0  0  0  0  0  0
   46.6593   34.8878   53.0425 C   0  0  2  0  0  0  0  0  0  0  0  0
   46.7694   34.4920   51.6647 O   0  0  0  0  0  0  0  0  0  0  0  0
   47.7619   34.1780   53.8870 C   0  0  2  0  0  0  0  0  0  0  0  0
   47.6543   34.5558   55.2919 O   0  0  0  0  0  0  0  0  0  0  0  0
   49.1658   34.5839   53.4096 C   0  0  0  0  0  0  0  0  0  0  0  0
   49.2982   36.0159   53.3766 O   0  0  0  0  0  0  0  0  0  0  0  0
  1  2  1  1  0  0  0
  1  3  1  0  0  0  0
  1  4  2  0  0  0  0
  1 16  1  0  0  0  0
  5  6  1  6  0  0  0
  5  7  1  0  0  0  0
  5 14  1  0  0  0  0
  7  8  1  1  0  0  0
  7  9  1  0  0  0  0
  9 10  1  6  0  0  0
  9 11  1  0  0  0  0
 11 12  1  6  0  0  0
 11 13  1  0  0  0  0
 13 14  1  0  0  0  0
 13 15  1  6  0  0  0
 15 16  1  0  0  0  0
M  CHG  1   3  -1
M  END
>  <CHROM.1>
52.90519422,177.06134736,-64.89611690,47.98963207,35.15005109,53.70460484
-0.38761215,0.22864654,1.93247991

>  <Name>
ligand

>  <RI>
0

>  <Rbt.Current_Directory>
/home/itssahil/PROJECTS/Mol_Feturizer/New_Systems/rnas/3B4A

>  <Rbt.Executable>
rbdock ($Id: //depot/dev/client3/rdock/2013.1/src/exe/rbdock.cxx#4 $)

>  <Rbt.Library>
libRbt.so (2013.1, Build901 2013/11/27)

>  <Rbt.Parameter_File>
/export/apps/rDock/src/rDock_2013.1_src/data/scripts/dock_solv.prm

>  <Rbt.Receptor>
prm/pocket_docking_4.prm

>  <SCORE>
-5.37148

>  <SCORE.INTER>
-3.89807

>  <SCORE.INTER.CONST>
1

>  <SCORE.INTER.POLAR>
0

>  <SCORE.INTER.ROT>
3

>  <SCORE.INTER.SOLV>
13.2819

>  <SCORE.INTER.VDW>
-12.626

>  <SCORE.INTER.norm>
-0.243629

>  <SCORE.INTRA>
-1.47341

>  <SCORE.INTRA.DIHEDRAL>
-1.79808

>  <SCORE.INTRA.DIHEDRAL.0>
2.05999

>  <SCORE.INTRA.POLAR>
0

>  <SCORE.INTRA.POLAR.0>
0

>  <SCORE.INTRA.REPUL>
0

>  <SCORE.INTRA.REPUL.0>
0

>  <SCORE.INTRA.SOLV>
-0.801038

>  <SCORE.INTRA.SOLV.lig_0>
-58.7001

>  <SCORE.INTRA.VDW>
-0.173854

>  <SCORE.INTRA.VDW.0>
-0.401036

>  <SCORE.INTRA.norm>
-0.0920884

>  <SCORE.RESTR>
0

>  <SCORE.RESTR.CAVITY>
0

>  <SCORE.RESTR.norm>
0

>  <SCORE.SYSTEM>
0

>  <SCORE.SYSTEM.CONST>
0

>  <SCORE.SYSTEM.DIHEDRAL>
0

>  <SCORE.SYSTEM.SOLV>
0

>  <SCORE.SYSTEM.norm>
0

>  <SCORE.heavy>
16

>  <SCORE.norm>
-0.335717

>  <RMSD>
1.576

$$$$
ligand
 OpenBabel11021811463D
libRbt.so/2013.1/901 2013/11/27
 16 16  0  0  0  0  0  0  0  0999 V2000
   52.0270   33.6741   52.9685 P   0  0  2  0  0  0  0  0  0  0  0  0
   52.5485   33.8803   51.5945 O   0  0  0  0  0  0  0  0  0  0  0  0
   52.6234   34.8155   53.9393 O   0  5  0  0  0  0  0  0  0  0  0  0
   52.4858   32.2117   53.4863 O   0  0  0  0  0  0  0  0  0  0  0  0
   46.4848   33.2346   55.7451 C   0  0  2  0  0  0  0  0  0  0  0  0
   45.9180   32.2673   54.8323 O   0  0  0  0  0  0  0  0  0  0  0  0
   45.9294   34.6606   55.4620 C   0  0  2  0  0  0  0  0  0  0  0  0
   44.4598   34.6503   55.5817 N   0  0  0  0  0  0  0  0  0  0  0  0
   46.3412   35.0776   54.0330 C   0  0  1  0  0  0  0  0  0  0  0  0
   45.8465   36.3963   53.7453 O   0  0  0  0  0  0  0  0  0  0  0  0
   47.8829   35.0690   53.9718 C   0  0  2  0  0  0  0  0  0  0  0  0
   48.3037   35.4460   52.6497 O   0  0  0  0  0  0  0  0  0  0  0  0
   48.3761   33.6245   54.2926 C   0  0  2  0  0  0  0  0  0  0  0  0
   47.9432   33.2191   55.6253 O   0  0  0  0  0  0  0  0  0  0  0  0
   49.9115   33.5500   54.2671 C   0  0  0  0  0  0  0  0  0  0  0  0
   50.4105   33.7790   52.9375 O   0  0  0  0  0  0  0  0  0  0  0  0
  1  2  1  6  0  0  0
  1  3  1  0  0  0  0
  1  4  2  0  0  0  0
  1 16  1  0  0  0  0
  5  6  1  6  0  0  0
  5  7  1  0  0  0  0
  5 14  1  0  0  0  0
  7  8  1  6  0  0  0
  7  9  1  0  0  0  0
  9 10  1  1  0  0  0
  9 11  1  0  0  0  0
 11 12  1  6  0  0  0
 11 13  1  0  0  0  0
 13 14  1  0  0  0  0
 13 15  1  1  0  0  0
 15 16  1  0  0  0  0
M  CHG  1   3  -1
M  END
>  <CHROM.1>
-66.07432880,-179.43541676,178.79962792,48.91360408,34.05807217,53.95453626
0.06252410,0.31698908,-0.57173121

>  <Name>
ligand

>  <RI>
0

>  <Rbt.Current_Directory>
/home/itssahil/PROJECTS/Mol_Feturizer/New_Systems/rnas/3B4A

>  <Rbt.Executable>
rbdock ($Id: //depot/dev/client3/rdock/2013.1/src/exe/rbdock.cxx#4 $)

>  <Rbt.Library>
libRbt.so (2013.1, Build901 2013/11/27)

>  <Rbt.Parameter_File>
/export/apps/rDock/src/rDock_2013.1_src/data/scripts/dock_solv.prm

>  <Rbt.Receptor>
prm/pocket_docking_4.prm

>  <SCORE>
-4.58497

>  <SCORE.INTER>
-3.3286

>  <SCORE.INTER.CONST>
1

>  <SCORE.INTER.POLAR>
0

>  <SCORE.INTER.ROT>
3

>  <SCORE.INTER.SOLV>
12.5797

>  <SCORE.INTER.VDW>
-12.0123

>  <SCORE.INTER.norm>
-0.208037

>  <SCORE.INTRA>
-1.25637

>  <SCORE.INTRA.DIHEDRAL>
-1.92311

>  <SCORE.INTRA.DIHEDRAL.0>
2.05999

>  <SCORE.INTRA.POLAR>
0

>  <SCORE.INTRA.POLAR.0>
0

>  <SCORE.INTRA.REPUL>
0

>  <SCORE.INTRA.REPUL.0>
0

>  <SCORE.INTRA.SOLV>
-0.0436799

>  <SCORE.INTRA.SOLV.lig_0>
-58.7001

>  <SCORE.INTRA.VDW>
-0.272975

>  <SCORE.INTRA.VDW.0>
-0.401036

>  <SCORE.INTRA.norm>
-0.0785232

>  <SCORE.RESTR>
0

>  <SCORE.RESTR.CAVITY>
0

>  <SCORE.RESTR.norm>
0

>  <SCORE.SYSTEM>
0

>  <SCORE.SYSTEM.CONST>
0

>  <SCORE.SYSTEM.DIHEDRAL>
0

>  <SCORE.SYSTEM.SOLV>
0

>  <SCORE.SYSTEM.norm>
0

>  <SCORE.heavy>
16

>  <SCORE.norm>
-0.28656

>  <RMSD>
1.577

$$$$
ligand
 OpenBabel11021811463D
libRbt.so/2013.1/901 2013/11/27
 16 16  0  0  0  0  0  0  0  0999 V2000
   50.8182   36.3971   52.9637 P   0  0  2  0  0  0  0  0  0  0  0  0
   51.7347   35.9331   54.0347 O   0  0  0  0  0  0  0  0  0  0  0  0
   51.1997   35.6582   51.5818 O   0  5  0  0  0  0  0  0  0  0  0  0
   50.9785   37.9984   52.7977 O   0  0  0  0  0  0  0  0  0  0  0  0
   46.3635   34.1939   55.8396 C   0  0  2  0  0  0  0  0  0  0  0  0
   46.2276   32.7547   55.8176 O   0  0  0  0  0  0  0  0  0  0  0  0
   45.2069   34.8753   55.0524 C   0  0  2  0  0  0  0  0  0  0  0  0
   43.9122   34.4790   55.6363 N   0  0  0  0  0  0  0  0  0  0  0  0
   45.2813   34.4270   53.5763 C   0  0  1  0  0  0  0  0  0  0  0  0
   44.2266   35.0473   52.8217 O   0  0  0  0  0  0  0  0  0  0  0  0
   46.6528   34.8684   53.0245 C   0  0  2  0  0  0  0  0  0  0  0  0
   46.7610   34.4598   51.6502 O   0  0  0  0  0  0  0  0  0  0  0  0
   47.7652   34.1771   53.8715 C   0  0  2  0  0  0  0  0  0  0  0  0
   47.6598   34.5680   55.2729 O   0  0  0  0  0  0  0  0  0  0  0  0
   49.1634   34.5910   53.3843 C   0  0  0  0  0  0  0  0  0  0  0  0
   49.2967   36.0233   53.3763 O   0  0  0  0  0  0  0  0  0  0  0  0
  1  2  1  1  0  0  0
  1  3  1  0  0  0  0
  1  4  2  0  0  0  0
  1 16  1  0  0  0  0
  5  6  1  6  0  0  0
  5  7  1  0  0  0  0
  5 14  1  0  0  0  0
  7  8  1  1  0  0  0
  7  9  1  0  0  0  0
  9 10  1  6  0  0  0
  9 11  1  0  0  0  0
 11 12  1  6  0  0  0
 11 13  1  0  0  0  0
 13 14  1  0  0  0  0
 13 15  1  6  0  0  0
 15 16  1  0  0  0  0
M  CHG  1   3  -1
M  END
>  <CHROM.1>
54.70318046,175.79582760,-66.25309711,47.99224855,35.14802477,53.70486444
-0.37931940,0.24105077,1.91753039

>  <Name>
ligand

>  <RI>
0

>  <Rbt.Current_Directory>
/home/itssahil/PROJECTS/Mol_Feturizer/New_Systems/rnas/3B4A

>  <Rbt.Executable>
rbdock ($Id: //depot/dev/client3/rdock/2013.1/src/exe/rbdock.cxx#4 $)

>  <Rbt.Library>
libRbt.so (2013.1, Build901 2013/11/27)

>  <Rbt.Parameter_File>
/export/apps/rDock/src/rDock_2013.1_src/data/scripts/dock_solv.prm

>  <Rbt.Receptor>
prm/pocket_docking_4.prm

>  <SCORE>
-5.3479

>  <SCORE.INTER>
-3.88415

>  <SCORE.INTER.CONST>
1

>  <SCORE.INTER.POLAR>
0

>  <SCORE.INTER.ROT>
3

>  <SCORE.INTER.SOLV>
13.3608

>  <SCORE.INTER.VDW>
-12.643

>  <SCORE.INTER.norm>
-0.242759

>  <SCORE.INTRA>
-1.46374

>  <SCORE.INTRA.DIHEDRAL>
-1.80789

>  <SCORE.INTRA.DIHEDRAL.0>
2.05999

>  <SCORE.INTRA.POLAR>
0

>  <SCORE.INTRA.POLAR.0>
0

>  <SCORE.INTRA.REPUL>
0

>  <SCORE.INTRA.REPUL.0>
0

>  <SCORE.INTRA.SOLV>
-0.790414

>  <SCORE.INTRA.SOLV.lig_0>
-58.7001

>  <SCORE.INTRA.VDW>
-0.164593

>  <SCORE.INTRA.VDW.0>
-0.401036

>  <SCORE.INTRA.norm>
-0.091484

>  <SCORE.RESTR>
0

>  <SCORE.RESTR.CAVITY>
0

>  <SCORE.RESTR.norm>
0

>  <SCORE.SYSTEM>
0

>  <SCORE.SYSTEM.CONST>
0

>  <SCORE.SYSTEM.DIHEDRAL>
0

>  <SCORE.SYSTEM.SOLV>
0

>  <SCORE.SYSTEM.norm>
0

>  <SCORE.heavy>
16

>  <SCORE.norm>
-0.334243

>  <RMSD>
1.577

$$$$
ligand
 OpenBabel11021811463D
libRbt.so/2013.1/901 2013/11/27
 16 16  0  0  0  0  0  0  0  0999 V2000
   50.7864   36.4640   52.9306 P   0  0  2  0  0  0  0  0  0  0  0  0
   51.7009   36.0168   54.0105 O   0  0  0  0  0  0  0  0  0  0  0  0
   51.1833   35.7185   51.5567 O   0  5  0  0  0  0  0  0  0  0  0  0
   50.9326   38.0655   52.7536 O   0  0  0  0  0  0  0  0  0  0  0  0
   46.3565   34.2181   55.8259 C   0  0  2  0  0  0  0  0  0  0  0  0
   46.2252   32.7787   55.7918 O   0  0  0  0  0  0  0  0  0  0  0  0
   45.1960   34.9025   55.0468 C   0  0  2  0  0  0  0  0  0  0  0  0
   43.9039   34.4969   55.6300 N   0  0  0  0  0  0  0  0  0  0  0  0
   45.2689   34.4670   53.5668 C   0  0  1  0  0  0  0  0  0  0  0  0
   44.2106   35.0902   52.8197 O   0  0  0  0  0  0  0  0  0  0  0  0
   46.6378   34.9176   53.0160 C   0  0  2  0  0  0  0  0  0  0  0  0
   46.7446   34.5211   51.6381 O   0  0  0  0  0  0  0  0  0  0  0  0
   47.7542   34.2227   53.8548 C   0  0  2  0  0  0  0  0  0  0  0  0
   47.6504   34.6012   55.2597 O   0  0  0  0  0  0  0  0  0  0  0  0
   49.1501   34.6453   53.3683 C   0  0  0  0  0  0  0  0  0  0  0  0
   49.2662   36.0787   53.3371 O   0  0  0  0  0  0  0  0  0  0  0  0
  1  2  1  1  0  0  0
  1  3  1  0  0  0  0
  1  4  2  0  0  0  0
  1 16  1  0  0  0  0
  5  6  1  6  0  0  0
  5  7  1  0  0  0  0
  5 14  1  0  0  0  0
  7  8  1  1  0  0  0
  7  9  1  0  0  0  0
  9 10  1  6  0  0  0
  9 11  1  0  0  0  0
 11 12  1  6  0  0  0
 11 13  1  0  0  0  0
 13 14  1  0  0  0  0
 13 15  1  6  0  0  0
 15 16  1  0  0  0  0
M  CHG  1   3  -1
M  END
>  <CHROM.1>
53.11157181,175.63675753,-65.67659632,47.97339523,35.19704141,53.68497848
-0.38929654,0.24122713,1.93038231

>  <Name>
ligand

>  <RI>
0

>  <Rbt.Current_Directory>
/home/itssahil/PROJECTS/Mol_Feturizer/New_Systems/rnas/3B4A

>  <Rbt.Executable>
rbdock ($Id: //depot/dev/client3/rdock/2013.1/src/exe/rbdock.cxx#4 $)

>  <Rbt.Library>
libRbt.so (2013.1, Build901 2013/11/27)

>  <Rbt.Parameter_File>
/export/apps/rDock/src/rDock_2013.1_src/data/scripts/dock_solv.prm

>  <Rbt.Receptor>
prm/pocket_docking_4.prm

>  <SCORE>
-5.29871

>  <SCORE.INTER>
-3.8755

>  <SCORE.INTER.CONST>
1

>  <SCORE.INTER.POLAR>
0

>  <SCORE.INTER.ROT>
3

>  <SCORE.INTER.SOLV>
13.2547

>  <SCORE.INTER.VDW>
-12.6019

>  <SCORE.INTER.norm>
-0.242219

>  <SCORE.INTRA>
-1.42321

>  <SCORE.INTRA.DIHEDRAL>
-1.74385

>  <SCORE.INTRA.DIHEDRAL.0>
2.05999

>  <SCORE.INTRA.POLAR>
0

>  <SCORE.INTRA.POLAR.0>
0

>  <SCORE.INTRA.REPUL>
0

>  <SCORE.INTRA.REPUL.0>
0

>  <SCORE.INTRA.SOLV>
-0.795423

>  <SCORE.INTRA.SOLV.lig_0>
-58.7001

>  <SCORE.INTRA.VDW>
-0.153573

>  <SCORE.INTRA.VDW.0>
-0.401036

>  <SCORE.INTRA.norm>
-0.0889506

>  <SCORE.RESTR>
0

>  <SCORE.RESTR.CAVITY>
0

>  <SCORE.RESTR.norm>
0

>  <SCORE.SYSTEM>
0

>  <SCORE.SYSTEM.CONST>
0

>  <SCORE.SYSTEM.DIHEDRAL>
0

>  <SCORE.SYSTEM.SOLV>
0

>  <SCORE.SYSTEM.norm>
0

>  <SCORE.heavy>
16

>  <SCORE.norm>
-0.33117

>  <RMSD>
1.613

$$$$
ligand
 OpenBabel11021811463D
libRbt.so/2013.1/901 2013/11/27
 16 16  0  0  0  0  0  0  0  0999 V2000
   51.5822   34.0379   53.2859 P   0  0  2  0  0  0  0  0  0  0  0  0
   51.5674   34.1714   51.8079 O   0  0  0  0  0  0  0  0  0  0  0  0
   52.1022   35.4181   53.9383 O   0  5  0  0  0  0  0  0  0  0  0  0
   52.5748   32.8260   53.6900 O   0  0  0  0  0  0  0  0  0  0  0  0
   46.3895   33.9891   55.7317 C   0  0  2  0  0  0  0  0  0  0  0  0
   45.9241   32.7798   55.0906 O   0  0  0  0  0  0  0  0  0  0  0  0
   45.4325   35.1804   55.4366 C   0  0  2  0  0  0  0  0  0  0  0  0
   44.0737   34.8491   55.9037 N   0  0  0  0  0  0  0  0  0  0  0  0
   45.4203   35.4402   53.9141 C   0  0  1  0  0  0  0  0  0  0  0  0
   44.5479   36.5420   53.6118 O   0  0  0  0  0  0  0  0  0  0  0  0
   46.8639   35.7799   53.4885 C   0  0  2  0  0  0  0  0  0  0  0  0
   46.8924   36.0211   52.0714 O   0  0  0  0  0  0  0  0  0  0  0  0
   47.7747   34.5626   53.8367 C   0  0  2  0  0  0  0  0  0  0  0  0
   47.7444   34.2931   55.2700 O   0  0  0  0  0  0  0  0  0  0  0  0
   49.2370   34.8435   53.4541 C   0  0  0  0  0  0  0  0  0  0  0  0
   50.0772   33.7283   53.8000 O   0  0  0  0  0  0  0  0  0  0  0  0
  1  2  1  6  0  0  0
  1  3  1  0  0  0  0
  1  4  2  0  0  0  0
  1 16  1  0  0  0  0
  5  6  1  6  0  0  0
  5  7  1  0  0  0  0
  5 14  1  0  0  0  0
  7  8  1  6  0  0  0
  7  9  1  0  0  0  0
  9 10  1  1  0  0  0
  9 11  1  0  0  0  0
 11 12  1  6  0  0  0
 11 13  1  0  0  0  0
 13 14  1  0  0  0  0
 13 15  1  1  0  0  0
 15 16  1  0  0  0  0
M  CHG  1   3  -1
M  END
>  <CHROM.1>
178.92005140,176.24963137,-62.21447619,48.34309350,34.59439461,53.93936016
-0.04677476,-0.26488651,2.31386922

>  <Name>
ligand

>  <RI>
0

>  <Rbt.Current_Directory>
/home/itssahil/PROJECTS/Mol_Feturizer/New_Systems/rnas/3B4A

>  <Rbt.Executable>
rbdock ($Id: //depot/dev/client3/rdock/2013.1/src/exe/rbdock.cxx#4 $)

>  <Rbt.Library>
libRbt.so (2013.1, Build901 2013/11/27)

>  <Rbt.Parameter_File>
/export/apps/rDock/src/rDock_2013.1_src/data/scripts/dock_solv.prm

>  <Rbt.Receptor>
prm/pocket_docking_4.prm

>  <SCORE>
-4.72626

>  <SCORE.INTER>
-3.156

>  <SCORE.INTER.CONST>
1

>  <SCORE.INTER.POLAR>
0

>  <SCORE.INTER.ROT>
3

>  <SCORE.INTER.SOLV>
12.8022

>  <SCORE.INTER.VDW>
-11.9714

>  <SCORE.INTER.norm>
-0.19725

>  <SCORE.INTRA>
-1.57026

>  <SCORE.INTRA.DIHEDRAL>
-1.97648

>  <SCORE.INTRA.DIHEDRAL.0>
2.05999

>  <SCORE.INTRA.POLAR>
0

>  <SCORE.INTRA.POLAR.0>
0

>  <SCORE.INTRA.REPUL>
0

>  <SCORE.INTRA.REPUL.0>
0

>  <SCORE.INTRA.SOLV>
-1.05532

>  <SCORE.INTRA.SOLV.lig_0>
-58.7001

>  <SCORE.INTRA.VDW>
-0.0543627

>  <SCORE.INTRA.VDW.0>
-0.401036

>  <SCORE.INTRA.norm>
-0.0981412

>  <SCORE.RESTR>
0

>  <SCORE.RESTR.CAVITY>
0

>  <SCORE.RESTR.norm>
0

>  <SCORE.SYSTEM>
0

>  <SCORE.SYSTEM.CONST>
0

>  <SCORE.SYSTEM.DIHEDRAL>
0

>  <SCORE.SYSTEM.SOLV>
0

>  <SCORE.SYSTEM.norm>
0

>  <SCORE.heavy>
16

>  <SCORE.norm>
-0.295391

>  <RMSD>
1.631

$$$$
ligand
 OpenBabel11021811463D
libRbt.so/2013.1/901 2013/11/27
 16 16  0  0  0  0  0  0  0  0999 V2000
   52.0703   33.4670   54.3523 P   0  0  2  0  0  0  0  0  0  0  0  0
   52.8464   32.4173   55.0581 O   0  0  0  0  0  0  0  0  0  0  0  0
   52.4072   33.4067   52.7762 O   0  5  0  0  0  0  0  0  0  0  0  0
   52.4828   34.9120   54.9516 O   0  0  0  0  0  0  0  0  0  0  0  0
   46.5549   33.5803   55.8212 C   0  0  2  0  0  0  0  0  0  0  0  0
   46.1552   32.3638   55.1499 O   0  0  0  0  0  0  0  0  0  0  0  0
   45.6953   34.7875   55.3463 C   0  0  2  0  0  0  0  0  0  0  0  0
   44.2703   34.5103   55.6044 N   0  0  0  0  0  0  0  0  0  0  0  0
   45.9284   34.9967   53.8339 C   0  0  1  0  0  0  0  0  0  0  0  0
   45.1504   36.1120   53.3676 O   0  0  0  0  0  0  0  0  0  0  0  0
   47.4310   35.2813   53.6296 C   0  0  2  0  0  0  0  0  0  0  0  0
   47.6874   35.4743   52.2281 O   0  0  0  0  0  0  0  0  0  0  0  0
   48.2360   34.0511   54.1505 C   0  0  2  0  0  0  0  0  0  0  0  0
   47.9745   33.8305   55.5685 O   0  0  0  0  0  0  0  0  0  0  0  0
   49.7484   34.2779   53.9934 C   0  0  0  0  0  0  0  0  0  0  0  0
   50.4897   33.1934   54.5797 O   0  0  0  0  0  0  0  0  0  0  0  0
  1  2  1  1  0  0  0
  1  3  1  0  0  0  0
  1  4  2  0  0  0  0
  1 16  1  0  0  0  0
  5  6  1  6  0  0  0
  5  7  1  0  0  0  0
  5 14  1  0  0  0  0
  7  8  1  6  0  0  0
  7  9  1  0  0  0  0
  9 10  1  1  0  0  0
  9 11  1  0  0  0  0
 11 12  1  6  0  0  0
 11 13  1  0  0  0  0
 13 14  1  0  0  0  0
 13 15  1  1  0  0  0
 15 16  1  0  0  0  0
M  CHG  1   3  -1
M  END
>  <CHROM.1>
175.00916380,178.59872928,175.00733071,48.78272913,34.09920005,54.38229264
0.09252754,-0.16260410,2.29282543

>  <Name>
ligand

>  <RI>
0

>  <Rbt.Current_Directory>
/home/itssahil/PROJECTS/Mol_Feturizer/New_Systems/rnas/3B4A

>  <Rbt.Executable>
rbdock ($Id: //depot/dev/client3/rdock/2013.1/src/exe/rbdock.cxx#4 $)

>  <Rbt.Library>
libRbt.so (2013.1, Build901 2013/11/27)

>  <Rbt.Parameter_File>
/export/apps/rDock/src/rDock_2013.1_src/data/scripts/dock_solv.prm

>  <Rbt.Receptor>
prm/pocket_docking_3.prm

>  <SCORE>
-5.91621

>  <SCORE.INTER>
-4.53721

>  <SCORE.INTER.CONST>
1

>  <SCORE.INTER.POLAR>
0

>  <SCORE.INTER.ROT>
3

>  <SCORE.INTER.SOLV>
13.8092

>  <SCORE.INTER.VDW>
-13.2279

>  <SCORE.INTER.norm>
-0.283576

>  <SCORE.INTRA>
-1.379

>  <SCORE.INTRA.DIHEDRAL>
-1.91916

>  <SCORE.INTRA.DIHEDRAL.0>
2.05999

>  <SCORE.INTRA.POLAR>
0

>  <SCORE.INTRA.POLAR.0>
0

>  <SCORE.INTRA.REPUL>
0

>  <SCORE.INTRA.REPUL.0>
0

>  <SCORE.INTRA.SOLV>
-0.398785

>  <SCORE.INTRA.SOLV.lig_0>
-58.7001

>  <SCORE.INTRA.VDW>
-0.220029

>  <SCORE.INTRA.VDW.0>
-0.401036

>  <SCORE.INTRA.norm>
-0.0861877

>  <SCORE.RESTR>
0

>  <SCORE.RESTR.CAVITY>
0

>  <SCORE.RESTR.norm>
0

>  <SCORE.SYSTEM>
0

>  <SCORE.SYSTEM.CONST>
0

>  <SCORE.SYSTEM.DIHEDRAL>
0

>  <SCORE.SYSTEM.SOLV>
0

>  <SCORE.SYSTEM.norm>
0

>  <SCORE.heavy>
16

>  <SCORE.norm>
-0.369763

>  <RMSD>
1.654

$$$$
ligand
 OpenBabel11021811463D
libRbt.so/2013.1/901 2013/11/27
 16 16  0  0  0  0  0  0  0  0999 V2000
   52.0648   33.4696   54.3419 P   0  0  2  0  0  0  0  0  0  0  0  0
   52.8403   32.4019   55.0209 O   0  0  0  0  0  0  0  0  0  0  0  0
   52.3992   33.4467   52.7643 O   0  5  0  0  0  0  0  0  0  0  0  0
   52.4806   34.8991   54.9752 O   0  0  0  0  0  0  0  0  0  0  0  0
   46.5439   33.5728   55.8146 C   0  0  2  0  0  0  0  0  0  0  0  0
   46.1492   32.3618   55.1306 O   0  0  0  0  0  0  0  0  0  0  0  0
   45.6841   34.7828   55.3471 C   0  0  2  0  0  0  0  0  0  0  0  0
   44.2585   34.5007   55.5967 N   0  0  0  0  0  0  0  0  0  0  0  0
   45.9232   35.0062   53.8376 C   0  0  1  0  0  0  0  0  0  0  0  0
   45.1451   36.1243   53.3783 O   0  0  0  0  0  0  0  0  0  0  0  0
   47.4261   35.2952   53.6423 C   0  0  2  0  0  0  0  0  0  0  0  0
   47.6879   35.5015   52.2437 O   0  0  0  0  0  0  0  0  0  0  0  0
   48.2311   34.0618   54.1554 C   0  0  2  0  0  0  0  0  0  0  0  0
   47.9640   33.8278   55.5702 O   0  0  0  0  0  0  0  0  0  0  0  0
   49.7438   34.2927   54.0066 C   0  0  0  0  0  0  0  0  0  0  0  0
   50.4841   33.1931   54.5652 O   0  0  0  0  0  0  0  0  0  0  0  0
  1  2  1  1  0  0  0
  1  3  1  0  0  0  0
  1  4  2  0  0  0  0
  1 16  1  0  0  0  0
  5  6  1  6  0  0  0
  5  7  1  0  0  0  0
  5 14  1  0  0  0  0
  7  8  1  6  0  0  0
  7  9  1  0  0  0  0
  9 10  1  1  0  0  0
  9 11  1  0  0  0  0
 11 12  1  6  0  0  0
 11 13  1  0  0  0  0
 13 14  1  0  0  0  0
 13 15  1  1  0  0  0
 15 16  1  0  0  0  0
M  CHG  1   3  -1
M  END
>  <CHROM.1>
176.02288551,178.35989866,174.99183821,48.77649546,34.10386996,54.38013604
0.09271497,-0.16256488,2.30321510

>  <Name>
ligand

>  <RI>
0

>  <Rbt.Current_Directory>
/home/itssahil/PROJECTS/Mol_Feturizer/New_Systems/rnas/3B4A

>  <Rbt.Executable>
rbdock ($Id: //depot/dev/client3/rdock/2013.1/src/exe/rbdock.cxx#4 $)

>  <Rbt.Library>
libRbt.so (2013.1, Build901 2013/11/27)

>  <Rbt.Parameter_File>
/export/apps/rDock/src/rDock_2013.1_src/data/scripts/dock_solv.prm

>  <Rbt.Receptor>
prm/pocket_docking_3.prm

>  <SCORE>
-5.90928

>  <SCORE.INTER>
-4.50927

>  <SCORE.INTER.CONST>
1

>  <SCORE.INTER.POLAR>
0

>  <SCORE.INTER.ROT>
3

>  <SCORE.INTER.SOLV>
13.8059

>  <SCORE.INTER.VDW>
-13.2082

>  <SCORE.INTER.norm>
-0.281829

>  <SCORE.INTRA>
-1.40002

>  <SCORE.INTRA.DIHEDRAL>
-1.94761

>  <SCORE.INTRA.DIHEDRAL.0>
2.05999

>  <SCORE.INTRA.POLAR>
0

>  <SCORE.INTRA.POLAR.0>
0

>  <SCORE.INTRA.REPUL>
0

>  <SCORE.INTRA.REPUL.0>
0

>  <SCORE.INTRA.SOLV>
-0.402877

>  <SCORE.INTRA.SOLV.lig_0>
-58.7001

>  <SCORE.INTRA.VDW>
-0.224772

>  <SCORE.INTRA.VDW.0>
-0.401036

>  <SCORE.INTRA.norm>
-0.0875009

>  <SCORE.RESTR>
0

>  <SCORE.RESTR.CAVITY>
0

>  <SCORE.RESTR.norm>
0

>  <SCORE.SYSTEM>
0

>  <SCORE.SYSTEM.CONST>
0

>  <SCORE.SYSTEM.DIHEDRAL>
0

>  <SCORE.SYSTEM.SOLV>
0

>  <SCORE.SYSTEM.norm>
0

>  <SCORE.heavy>
16

>  <SCORE.norm>
-0.36933

>  <RMSD>
1.655

$$$$
ligand
 OpenBabel11021811463D
libRbt.so/2013.1/901 2013/11/27
 16 16  0  0  0  0  0  0  0  0999 V2000
   51.9857   33.4777   54.3068 P   0  0  2  0  0  0  0  0  0  0  0  0
   52.7566   32.4202   55.0066 O   0  0  0  0  0  0  0  0  0  0  0  0
   52.3088   33.4130   52.7280 O   0  5  0  0  0  0  0  0  0  0  0  0
   52.4184   34.9186   54.9018 O   0  0  0  0  0  0  0  0  0  0  0  0
   46.5174   33.7502   55.8864 C   0  0  2  0  0  0  0  0  0  0  0  0
   46.0733   32.5131   55.2842 O   0  0  0  0  0  0  0  0  0  0  0  0
   45.6683   34.9526   55.3811 C   0  0  2  0  0  0  0  0  0  0  0  0
   44.2464   34.7181   55.6932 N   0  0  0  0  0  0  0  0  0  0  0  0
   45.8600   35.0872   53.8545 C   0  0  1  0  0  0  0  0  0  0  0  0
   45.0909   36.1963   53.3597 O   0  0  0  0  0  0  0  0  0  0  0  0
   47.3612   35.3297   53.5936 C   0  0  2  0  0  0  0  0  0  0  0  0
   47.5792   35.4528   52.1778 O   0  0  0  0  0  0  0  0  0  0  0  0
   48.1566   34.1077   54.1474 C   0  0  2  0  0  0  0  0  0  0  0  0
   47.9334   33.9580   55.5812 O   0  0  0  0  0  0  0  0  0  0  0  0
   49.6679   34.2946   53.9360 C   0  0  0  0  0  0  0  0  0  0  0  0
   50.4043   33.2208   54.5476 O   0  0  0  0  0  0  0  0  0  0  0  0
  1  2  1  1  0  0  0
  1  3  1  0  0  0  0
  1  4  2  0  0  0  0
  1 16  1  0  0  0  0
  5  6  1  6  0  0  0
  5  7  1  0  0  0  0
  5 14  1  0  0  0  0
  7  8  1  6  0  0  0
  7  9  1  0  0  0  0
  9 10  1  1  0  0  0
  9 11  1  0  0  0  0
 11 12  1  6  0  0  0
 11 13  1  0  0  0  0
 13 14  1  0  0  0  0
 13 15  1  1  0  0  0
 15 16  1  0  0  0  0
M  CHG  1   3  -1
M  END
>  <CHROM.1>
175.14716640,-179.42716125,176.50942779,48.71205770,34.16466873,54.37675964
0.08563263,-0.19031578,2.24210740

>  <Name>
ligand

>  <RI>
0

>  <Rbt.Current_Directory>
/home/itssahil/PROJECTS/Mol_Feturizer/New_Systems/rnas/3B4A

>  <Rbt.Executable>
rbdock ($Id: //depot/dev/client3/rdock/2013.1/src/exe/rbdock.cxx#4 $)

>  <Rbt.Library>
libRbt.so (2013.1, Build901 2013/11/27)

>  <Rbt.Parameter_File>
/export/apps/rDock/src/rDock_2013.1_src/data/scripts/dock_solv.prm

>  <Rbt.Receptor>
prm/pocket_docking_3.prm

>  <SCORE>
-5.86416

>  <SCORE.INTER>
-4.46391

>  <SCORE.INTER.CONST>
1

>  <SCORE.INTER.POLAR>
0

>  <SCORE.INTER.ROT>
3

>  <SCORE.INTER.SOLV>
14.1396

>  <SCORE.INTER.VDW>
-13.2891

>  <SCORE.INTER.norm>
-0.278995

>  <SCORE.INTRA>
-1.40024

>  <SCORE.INTRA.DIHEDRAL>
-1.95278

>  <SCORE.INTRA.DIHEDRAL.0>
2.05999

>  <SCORE.INTRA.POLAR>
0

>  <SCORE.INTRA.POLAR.0>
0

>  <SCORE.INTRA.REPUL>
0

>  <SCORE.INTRA.REPUL.0>
0

>  <SCORE.INTRA.SOLV>
-0.391363

>  <SCORE.INTRA.SOLV.lig_0>
-58.7001

>  <SCORE.INTRA.VDW>
-0.228173

>  <SCORE.INTRA.VDW.0>
-0.401036

>  <SCORE.INTRA.norm>
-0.0875152

>  <SCORE.RESTR>
0

>  <SCORE.RESTR.CAVITY>
0

>  <SCORE.RESTR.norm>
0

>  <SCORE.SYSTEM>
0

>  <SCORE.SYSTEM.CONST>
0

>  <SCORE.SYSTEM.DIHEDRAL>
0

>  <SCORE.SYSTEM.SOLV>
0

>  <SCORE.SYSTEM.norm>
0

>  <SCORE.heavy>
16

>  <SCORE.norm>
-0.36651

>  <RMSD>
1.678

$$$$
ligand
 OpenBabel11021811463D
libRbt.so/2013.1/901 2013/11/27
 16 16  0  0  0  0  0  0  0  0999 V2000
   50.6317   36.5521   52.7839 P   0  0  2  0  0  0  0  0  0  0  0  0
   51.5932   36.1387   53.8362 O   0  0  0  0  0  0  0  0  0  0  0  0
   51.0164   35.8231   51.3977 O   0  5  0  0  0  0  0  0  0  0  0  0
   50.7123   38.1580   52.6058 O   0  0  0  0  0  0  0  0  0  0  0  0
   46.3046   34.2061   55.7667 C   0  0  2  0  0  0  0  0  0  0  0  0
   46.2469   32.7617   55.7918 O   0  0  0  0  0  0  0  0  0  0  0  0
   45.1166   34.7976   54.9538 C   0  0  2  0  0  0  0  0  0  0  0  0
   43.8425   34.3509   55.5465 N   0  0  0  0  0  0  0  0  0  0  0  0
   45.2223   34.3057   53.4935 C   0  0  1  0  0  0  0  0  0  0  0  0
   44.1392   34.8427   52.7157 O   0  0  0  0  0  0  0  0  0  0  0  0
   46.5706   34.8025   52.9316 C   0  0  2  0  0  0  0  0  0  0  0  0
   46.7074   34.3555   51.5720 O   0  0  0  0  0  0  0  0  0  0  0  0
   47.7147   34.2009   53.8044 C   0  0  2  0  0  0  0  0  0  0  0  0
   47.5815   34.6312   55.1918 O   0  0  0  0  0  0  0  0  0  0  0  0
   49.0908   34.6738   53.3081 C   0  0  0  0  0  0  0  0  0  0  0  0
   49.1394   36.1095   53.2334 O   0  0  0  0  0  0  0  0  0  0  0  0
  1  2  1  1  0  0  0
  1  3  1  0  0  0  0
  1  4  2  0  0  0  0
  1 16  1  0  0  0  0
  5  6  1  6  0  0  0
  5  7  1  0  0  0  0
  5 14  1  0  0  0  0
  7  8  1  1  0  0  0
  7  9  1  0  0  0  0
  9 10  1  6  0  0  0
  9 11  1  0  0  0  0
 11 12  1  6  0  0  0
 11 13  1  0  0  0  0
 13 14  1  0  0  0  0
 13 15  1  6  0  0  0
 15 16  1  0  0  0  0
M  CHG  1   3  -1
M  END
>  <CHROM.1>
53.80949831,176.97082269,-63.79811117,47.88362506,35.17670564,53.58813725
-0.40443529,0.29040425,1.89197763

>  <Name>
ligand

>  <RI>
0

>  <Rbt.Current_Directory>
/home/itssahil/PROJECTS/Mol_Feturizer/New_Systems/rnas/3B4A

>  <Rbt.Executable>
rbdock ($Id: //depot/dev/client3/rdock/2013.1/src/exe/rbdock.cxx#4 $)

>  <Rbt.Library>
libRbt.so (2013.1, Build901 2013/11/27)

>  <Rbt.Parameter_File>
/export/apps/rDock/src/rDock_2013.1_src/data/scripts/dock_solv.prm

>  <Rbt.Receptor>
prm/pocket_docking_3.prm

>  <SCORE>
-5.27472

>  <SCORE.INTER>
-3.75892

>  <SCORE.INTER.CONST>
1

>  <SCORE.INTER.POLAR>
0

>  <SCORE.INTER.ROT>
3

>  <SCORE.INTER.SOLV>
13.0695

>  <SCORE.INTER.VDW>
-12.4625

>  <SCORE.INTER.norm>
-0.234932

>  <SCORE.INTRA>
-1.5158

>  <SCORE.INTRA.DIHEDRAL>
-1.85327

>  <SCORE.INTRA.DIHEDRAL.0>
2.05999

>  <SCORE.INTRA.POLAR>
0

>  <SCORE.INTRA.POLAR.0>
0

>  <SCORE.INTRA.REPUL>
0

>  <SCORE.INTRA.REPUL.0>
0

>  <SCORE.INTRA.SOLV>
-0.81285

>  <SCORE.INTRA.SOLV.lig_0>
-58.7001

>  <SCORE.INTRA.VDW>
-0.18274

>  <SCORE.INTRA.VDW.0>
-0.401036

>  <SCORE.INTRA.norm>
-0.0947376

>  <SCORE.RESTR>
0

>  <SCORE.RESTR.CAVITY>
0

>  <SCORE.RESTR.norm>
0

>  <SCORE.SYSTEM>
0

>  <SCORE.SYSTEM.CONST>
0

>  <SCORE.SYSTEM.DIHEDRAL>
0

>  <SCORE.SYSTEM.SOLV>
0

>  <SCORE.SYSTEM.norm>
0

>  <SCORE.heavy>
16

>  <SCORE.norm>
-0.32967

>  <RMSD>
1.682

$$$$
ligand
 OpenBabel11021811463D
libRbt.so/2013.1/901 2013/11/27
 16 16  0  0  0  0  0  0  0  0999 V2000
   52.1066   33.3879   54.3957 P   0  0  2  0  0  0  0  0  0  0  0  0
   52.8625   32.3184   55.0937 O   0  0  0  0  0  0  0  0  0  0  0  0
   52.4848   33.3683   52.8280 O   0  5  0  0  0  0  0  0  0  0  0  0
   52.5050   34.8158   55.0435 O   0  0  0  0  0  0  0  0  0  0  0  0
   46.5784   33.5589   55.8137 C   0  0  2  0  0  0  0  0  0  0  0  0
   46.1729   32.3459   55.1395 O   0  0  0  0  0  0  0  0  0  0  0  0
   45.7356   34.7743   55.3294 C   0  0  2  0  0  0  0  0  0  0  0  0
   44.3054   34.5117   55.5739 N   0  0  0  0  0  0  0  0  0  0  0  0
   45.9856   34.9797   53.8192 C   0  0  1  0  0  0  0  0  0  0  0  0
   45.2235   36.1024   53.3444 O   0  0  0  0  0  0  0  0  0  0  0  0
   47.4929   35.2489   53.6293 C   0  0  2  0  0  0  0  0  0  0  0  0
   47.7648   35.4380   52.2302 O   0  0  0  0  0  0  0  0  0  0  0  0
   48.2803   34.0111   54.1591 C   0  0  2  0  0  0  0  0  0  0  0  0
   48.0027   33.7945   55.5747 O   0  0  0  0  0  0  0  0  0  0  0  0
   49.7964   34.2225   54.0165 C   0  0  0  0  0  0  0  0  0  0  0  0
   50.5202   33.1115   54.5743 O   0  0  0  0  0  0  0  0  0  0  0  0
  1  2  1  1  0  0  0
  1  3  1  0  0  0  0
  1  4  2  0  0  0  0
  1 16  1  0  0  0  0
  5  6  1  6  0  0  0
  5  7  1  0  0  0  0
  5 14  1  0  0  0  0
  7  8  1  6  0  0  0
  7  9  1  0  0  0  0
  9 10  1  1  0  0  0
  9 11  1  0  0  0  0
 11 12  1  6  0  0  0
 11 13  1  0  0  0  0
 13 14  1  0  0  0  0
 13 15  1  1  0  0  0
 15 16  1  0  0  0  0
M  CHG  1   3  -1
M  END
>  <CHROM.1>
176.78183261,179.97121148,174.10181844,48.82530226,34.05371903,54.39506520
0.10635696,-0.16408622,2.29404901

>  <Name>
ligand

>  <RI>
0

>  <Rbt.Current_Directory>
/home/itssahil/PROJECTS/Mol_Feturizer/New_Systems/rnas/3B4A

>  <Rbt.Executable>
rbdock ($Id: //depot/dev/client3/rdock/2013.1/src/exe/rbdock.cxx#4 $)

>  <Rbt.Library>
libRbt.so (2013.1, Build901 2013/11/27)

>  <Rbt.Parameter_File>
/export/apps/rDock/src/rDock_2013.1_src/data/scripts/dock_solv.prm

>  <Rbt.Receptor>
prm/pocket_docking_4.prm

>  <SCORE>
-5.95977

>  <SCORE.INTER>
-4.55299

>  <SCORE.INTER.CONST>
1

>  <SCORE.INTER.POLAR>
0

>  <SCORE.INTER.ROT>
3

>  <SCORE.INTER.SOLV>
13.7766

>  <SCORE.INTER.VDW>
-13.2275

>  <SCORE.INTER.norm>
-0.284562

>  <SCORE.INTRA>
-1.40678

>  <SCORE.INTRA.DIHEDRAL>
-1.96456

>  <SCORE.INTRA.DIHEDRAL.0>
2.05999

>  <SCORE.INTRA.POLAR>
0

>  <SCORE.INTRA.POLAR.0>
0

>  <SCORE.INTRA.REPUL>
0

>  <SCORE.INTRA.REPUL.0>
0

>  <SCORE.INTRA.SOLV>
-0.400655

>  <SCORE.INTRA.SOLV.lig_0>
-58.7001

>  <SCORE.INTRA.VDW>
-0.224173

>  <SCORE.INTRA.VDW.0>
-0.401036

>  <SCORE.INTRA.norm>
-0.0879238

>  <SCORE.RESTR>
0

>  <SCORE.RESTR.CAVITY>
0

>  <SCORE.RESTR.norm>
0

>  <SCORE.SYSTEM>
0

>  <SCORE.SYSTEM.CONST>
0

>  <SCORE.SYSTEM.DIHEDRAL>
0

>  <SCORE.SYSTEM.SOLV>
0

>  <SCORE.SYSTEM.norm>
0

>  <SCORE.heavy>
16

>  <SCORE.norm>
-0.372486

>  <RMSD>
1.684

$$$$
ligand
 OpenBabel11021811463D
libRbt.so/2013.1/901 2013/11/27
 16 16  0  0  0  0  0  0  0  0999 V2000
   51.8944   33.7529   54.3163 P   0  0  2  0  0  0  0  0  0  0  0  0
   52.1381   32.3146   54.5886 O   0  0  0  0  0  0  0  0  0  0  0  0
   52.2208   34.0625   52.7675 O   0  5  0  0  0  0  0  0  0  0  0  0
   52.8569   34.6348   55.2719 O   0  0  0  0  0  0  0  0  0  0  0  0
   46.3046   33.2995   55.6369 C   0  0  2  0  0  0  0  0  0  0  0  0
   45.4892   32.5242   54.7290 O   0  0  0  0  0  0  0  0  0  0  0  0
   45.9322   34.8091   55.5703 C   0  0  2  0  0  0  0  0  0  0  0  0
   44.5048   34.9800   55.8983 N   0  0  0  0  0  0  0  0  0  0  0  0
   46.2128   35.3256   54.1420 C   0  0  1  0  0  0  0  0  0  0  0  0
   45.8836   36.7221   54.0523 O   0  0  0  0  0  0  0  0  0  0  0  0
   47.7156   35.1200   53.8597 C   0  0  2  0  0  0  0  0  0  0  0  0
   48.0129   35.5840   52.5317 O   0  0  0  0  0  0  0  0  0  0  0  0
   48.0291   33.5962   53.9706 C   0  0  2  0  0  0  0  0  0  0  0  0
   47.7172   33.1046   55.3081 O   0  0  0  0  0  0  0  0  0  0  0  0
   49.5208   33.3226   53.7182 C   0  0  0  0  0  0  0  0  0  0  0  0
   50.3388   34.0884   54.6202 O   0  0  0  0  0  0  0  0  0  0  0  0
  1  2  1  1  0  0  0
  1  3  1  0  0  0  0
  1  4  2  0  0  0  0
  1 16  1  0  0  0  0
  5  6  1  6  0  0  0
  5  7  1  0  0  0  0
  5 14  1  0  0  0  0
  7  8  1  6  0  0  0
  7  9  1  0  0  0  0
  9 10  1  1  0  0  0
  9 11  1  0  0  0  0
 11 12  1  6  0  0  0
 11 13  1  0  0  0  0
 13 14  1  0  0  0  0
 13 15  1  1  0  0  0
 15 16  1  0  0  0  0
M  CHG  1   3  -1
M  END
>  <CHROM.1>
56.05705106,179.59788110,-62.75125705,48.74546864,34.16315945,54.41149265
0.08022426,-0.16033452,2.61581866

>  <Name>
ligand

>  <RI>
0

>  <Rbt.Current_Directory>
/home/itssahil/PROJECTS/Mol_Feturizer/New_Systems/rnas/3B4A

>  <Rbt.Executable>
rbdock ($Id: //depot/dev/client3/rdock/2013.1/src/exe/rbdock.cxx#4 $)

>  <Rbt.Library>
libRbt.so (2013.1, Build901 2013/11/27)

>  <Rbt.Parameter_File>
/export/apps/rDock/src/rDock_2013.1_src/data/scripts/dock_solv.prm

>  <Rbt.Receptor>
prm/pocket_docking_4.prm

>  <SCORE>
-5.59415

>  <SCORE.INTER>
-3.98824

>  <SCORE.INTER.CONST>
1

>  <SCORE.INTER.POLAR>
0

>  <SCORE.INTER.ROT>
3

>  <SCORE.INTER.SOLV>
15.0672

>  <SCORE.INTER.VDW>
-13.2812

>  <SCORE.INTER.norm>
-0.249265

>  <SCORE.INTRA>
-1.60591

>  <SCORE.INTRA.DIHEDRAL>
-1.98955

>  <SCORE.INTRA.DIHEDRAL.0>
2.05999

>  <SCORE.INTRA.POLAR>
0

>  <SCORE.INTRA.POLAR.0>
0

>  <SCORE.INTRA.REPUL>
0

>  <SCORE.INTRA.REPUL.0>
0

>  <SCORE.INTRA.SOLV>
-0.817767

>  <SCORE.INTRA.SOLV.lig_0>
-58.7001

>  <SCORE.INTRA.VDW>
-0.202248

>  <SCORE.INTRA.VDW.0>
-0.401036

>  <SCORE.INTRA.norm>
-0.100369

>  <SCORE.RESTR>
0

>  <SCORE.RESTR.CAVITY>
0

>  <SCORE.RESTR.norm>
0

>  <SCORE.SYSTEM>
0

>  <SCORE.SYSTEM.CONST>
0

>  <SCORE.SYSTEM.DIHEDRAL>
0

>  <SCORE.SYSTEM.SOLV>
0

>  <SCORE.SYSTEM.norm>
0

>  <SCORE.heavy>
16

>  <SCORE.norm>
-0.349634

>  <RMSD>
1.686

$$$$
ligand
 OpenBabel11021811463D
libRbt.so/2013.1/901 2013/11/27
 16 16  0  0  0  0  0  0  0  0999 V2000
   51.9039   33.4556   53.0804 P   0  0  2  0  0  0  0  0  0  0  0  0
   52.1576   32.0855   53.5913 O   0  0  0  0  0  0  0  0  0  0  0  0
   52.5425   33.5990   51.6065 O   0  5  0  0  0  0  0  0  0  0  0  0
   52.5880   34.5221   54.0864 O   0  0  0  0  0  0  0  0  0  0  0  0
   46.2704   33.4560   55.6987 C   0  0  2  0  0  0  0  0  0  0  0  0
   45.6756   32.5009   54.7909 O   0  0  0  0  0  0  0  0  0  0  0  0
   45.8086   34.9043   55.3656 C   0  0  2  0  0  0  0  0  0  0  0  0
   44.3379   34.9823   55.4390 N   0  0  0  0  0  0  0  0  0  0  0  0
   46.2871   35.2612   53.9411 C   0  0  1  0  0  0  0  0  0  0  0  0
   45.8797   36.5989   53.6078 O   0  0  0  0  0  0  0  0  0  0  0  0
   47.8267   35.1617   53.9289 C   0  0  2  0  0  0  0  0  0  0  0  0
   48.3087   35.4808   52.6124 O   0  0  0  0  0  0  0  0  0  0  0  0
   48.2243   33.6994   54.2981 C   0  0  2  0  0  0  0  0  0  0  0  0
   47.7283   33.3529   55.6254 O   0  0  0  0  0  0  0  0  0  0  0  0
   49.7527   33.5354   54.3228 C   0  0  0  0  0  0  0  0  0  0  0  0
   50.3040   33.6995   53.0043 O   0  0  0  0  0  0  0  0  0  0  0  0
  1  2  1  1  0  0  0
  1  3  1  0  0  0  0
  1  4  2  0  0  0  0
  1 16  1  0  0  0  0
  5  6  1  6  0  0  0
  5  7  1  0  0  0  0
  5 14  1  0  0  0  0
  7  8  1  6  0  0  0
  7  9  1  0  0  0  0
  9 10  1  1  0  0  0
  9 11  1  0  0  0  0
 11 12  1  6  0  0  0
 11 13  1  0  0  0  0
 13 14  1  0  0  0  0
 13 15  1  1  0  0  0
 15 16  1  0  0  0  0
M  CHG  1   3  -1
M  END
>  <CHROM.1>
-66.18513251,-177.66594764,59.26606182,48.79521406,34.07986380,53.95668918
0.00156707,-0.32995330,2.55258767

>  <Name>
ligand

>  <RI>
0

>  <Rbt.Current_Directory>
/home/itssahil/PROJECTS/Mol_Feturizer/New_Systems/rnas/3B4A

>  <Rbt.Executable>
rbdock ($Id: //depot/dev/client3/rdock/2013.1/src/exe/rbdock.cxx#4 $)

>  <Rbt.Library>
libRbt.so (2013.1, Build901 2013/11/27)

>  <Rbt.Parameter_File>
/export/apps/rDock/src/rDock_2013.1_src/data/scripts/dock_solv.prm

>  <Rbt.Receptor>
prm/pocket_docking_4.prm

>  <SCORE>
-5.34967

>  <SCORE.INTER>
-3.96995

>  <SCORE.INTER.CONST>
1

>  <SCORE.INTER.POLAR>
0

>  <SCORE.INTER.ROT>
3

>  <SCORE.INTER.SOLV>
10.9555

>  <SCORE.INTER.VDW>
-11.8985

>  <SCORE.INTER.norm>
-0.248122

>  <SCORE.INTRA>
-1.37972

>  <SCORE.INTRA.DIHEDRAL>
-1.89451

>  <SCORE.INTRA.DIHEDRAL.0>
2.05999

>  <SCORE.INTRA.POLAR>
0

>  <SCORE.INTRA.POLAR.0>
0

>  <SCORE.INTRA.REPUL>
0

>  <SCORE.INTRA.REPUL.0>
0

>  <SCORE.INTRA.SOLV>
-0.733656

>  <SCORE.INTRA.SOLV.lig_0>
-58.7001

>  <SCORE.INTRA.VDW>
-0.0656385

>  <SCORE.INTRA.VDW.0>
-0.401036

>  <SCORE.INTRA.norm>
-0.0862325

>  <SCORE.RESTR>
0

>  <SCORE.RESTR.CAVITY>
0

>  <SCORE.RESTR.norm>
0

>  <SCORE.SYSTEM>
0

>  <SCORE.SYSTEM.CONST>
0

>  <SCORE.SYSTEM.DIHEDRAL>
0

>  <SCORE.SYSTEM.SOLV>
0

>  <SCORE.SYSTEM.norm>
0

>  <SCORE.heavy>
16

>  <SCORE.norm>
-0.334354

>  <RMSD>
1.726

$$$$
ligand
 OpenBabel11021811463D
libRbt.so/2013.1/901 2013/11/27
 16 16  0  0  0  0  0  0  0  0999 V2000
   51.8470   33.6415   54.4012 P   0  0  2  0  0  0  0  0  0  0  0  0
   52.0434   32.2437   54.8595 O   0  0  0  0  0  0  0  0  0  0  0  0
   52.2213   33.7442   52.8358 O   0  5  0  0  0  0  0  0  0  0  0  0
   52.8092   34.6135   55.2653 O   0  0  0  0  0  0  0  0  0  0  0  0
   46.2061   33.3421   55.5837 C   0  0  2  0  0  0  0  0  0  0  0  0
   45.3998   32.5563   54.6767 O   0  0  0  0  0  0  0  0  0  0  0  0
   45.8754   34.8573   55.4538 C   0  0  2  0  0  0  0  0  0  0  0  0
   44.4433   35.0750   55.7294 N   0  0  0  0  0  0  0  0  0  0  0  0
   46.2141   35.3166   54.0186 C   0  0  1  0  0  0  0  0  0  0  0  0
   45.9243   36.7169   53.8708 O   0  0  0  0  0  0  0  0  0  0  0  0
   47.7192   35.0640   53.7921 C   0  0  2  0  0  0  0  0  0  0  0  0
   48.0701   35.4740   52.4595 O   0  0  0  0  0  0  0  0  0  0  0  0
   47.9893   33.5376   53.9649 C   0  0  2  0  0  0  0  0  0  0  0  0
   47.6228   33.1009   55.3075 O   0  0  0  0  0  0  0  0  0  0  0  0
   49.4806   33.2184   53.7703 C   0  0  0  0  0  0  0  0  0  0  0  0
   50.2941   34.0508   54.6155 O   0  0  0  0  0  0  0  0  0  0  0  0
  1  2  1  1  0  0  0
  1  3  1  0  0  0  0
  1  4  2  0  0  0  0
  1 16  1  0  0  0  0
  5  6  1  6  0  0  0
  5  7  1  0  0  0  0
  5 14  1  0  0  0  0
  7  8  1  6  0  0  0
  7  9  1  0  0  0  0
  9 10  1  1  0  0  0
  9 11  1  0  0  0  0
 11 12  1  6  0  0  0
 11 13  1  0  0  0  0
 13 14  1  0  0  0  0
 13 15  1  1  0  0  0
 15 16  1  0  0  0  0
M  CHG  1   3  -1
M  END
>  <CHROM.1>
52.66290952,178.34830421,-64.09444034,48.70687909,34.11330981,54.39786530
0.11193403,-0.14682543,2.59472285

>  <Name>
ligand

>  <RI>
0

>  <Rbt.Current_Directory>
/home/itssahil/PROJECTS/Mol_Feturizer/New_Systems/rnas/3B4A

>  <Rbt.Executable>
rbdock ($Id: //depot/dev/client3/rdock/2013.1/src/exe/rbdock.cxx#4 $)

>  <Rbt.Library>
libRbt.so (2013.1, Build901 2013/11/27)

>  <Rbt.Parameter_File>
/export/apps/rDock/src/rDock_2013.1_src/data/scripts/dock_solv.prm

>  <Rbt.Receptor>
prm/pocket_docking_3.prm

>  <SCORE>
-5.52737

>  <SCORE.INTER>
-4.0365

>  <SCORE.INTER.CONST>
1

>  <SCORE.INTER.POLAR>
0

>  <SCORE.INTER.ROT>
3

>  <SCORE.INTER.SOLV>
14.4209

>  <SCORE.INTER.VDW>
-13.098

>  <SCORE.INTER.norm>
-0.252281

>  <SCORE.INTRA>
-1.49087

>  <SCORE.INTRA.DIHEDRAL>
-1.8266

>  <SCORE.INTRA.DIHEDRAL.0>
2.05999

>  <SCORE.INTRA.POLAR>
0

>  <SCORE.INTRA.POLAR.0>
0

>  <SCORE.INTRA.REPUL>
0

>  <SCORE.INTRA.REPUL.0>
0

>  <SCORE.INTRA.SOLV>
-0.806238

>  <SCORE.INTRA.SOLV.lig_0>
-58.7001

>  <SCORE.INTRA.VDW>
-0.17445

>  <SCORE.INTRA.VDW.0>
-0.401036

>  <SCORE.INTRA.norm>
-0.0931793

>  <SCORE.RESTR>
0

>  <SCORE.RESTR.CAVITY>
0

>  <SCORE.RESTR.norm>
0

>  <SCORE.SYSTEM>
0

>  <SCORE.SYSTEM.CONST>
0

>  <SCORE.SYSTEM.DIHEDRAL>
0

>  <SCORE.SYSTEM.SOLV>
0

>  <SCORE.SYSTEM.norm>
0

>  <SCORE.heavy>
16

>  <SCORE.norm>
-0.345461

>  <RMSD>
1.728

$$$$
ligand
 OpenBabel11021811463D
libRbt.so/2013.1/901 2013/11/27
 16 16  0  0  0  0  0  0  0  0999 V2000
   51.8603   33.4074   53.0392 P   0  0  2  0  0  0  0  0  0  0  0  0
   52.0789   32.0110   53.4917 O   0  0  0  0  0  0  0  0  0  0  0  0
   52.5019   33.5961   51.5716 O   0  5  0  0  0  0  0  0  0  0  0  0
   52.5721   34.4128   54.0879 O   0  0  0  0  0  0  0  0  0  0  0  0
   46.2380   33.4588   55.6773 C   0  0  2  0  0  0  0  0  0  0  0  0
   45.6315   32.5195   54.7607 O   0  0  0  0  0  0  0  0  0  0  0  0
   45.7895   34.9151   55.3612 C   0  0  2  0  0  0  0  0  0  0  0  0
   44.3199   35.0067   55.4394 N   0  0  0  0  0  0  0  0  0  0  0  0
   46.2680   35.2828   53.9394 C   0  0  1  0  0  0  0  0  0  0  0  0
   45.8728   36.6280   53.6218 O   0  0  0  0  0  0  0  0  0  0  0  0
   47.8065   35.1684   53.9220 C   0  0  2  0  0  0  0  0  0  0  0  0
   48.2882   35.4972   52.6079 O   0  0  0  0  0  0  0  0  0  0  0  0
   48.1906   33.6983   54.2742 C   0  0  2  0  0  0  0  0  0  0  0  0
   47.6946   33.3422   55.5990 O   0  0  0  0  0  0  0  0  0  0  0  0
   49.7174   33.5191   54.2932 C   0  0  0  0  0  0  0  0  0  0  0  0
   50.2672   33.6953   52.9756 O   0  0  0  0  0  0  0  0  0  0  0  0
  1  2  1  1  0  0  0
  1  3  1  0  0  0  0
  1  4  2  0  0  0  0
  1 16  1  0  0  0  0
  5  6  1  6  0  0  0
  5  7  1  0  0  0  0
  5 14  1  0  0  0  0
  7  8  1  6  0  0  0
  7  9  1  0  0  0  0
  9 10  1  1  0  0  0
  9 11  1  0  0  0  0
 11 12  1  6  0  0  0
 11 13  1  0  0  0  0
 13 14  1  0  0  0  0
 13 15  1  1  0  0  0
 15 16  1  0  0  0  0
M  CHG  1   3  -1
M  END
>  <CHROM.1>
-66.04784288,-176.60881263,60.52218688,48.76287319,34.06778001,53.93374571
0.01164348,-0.34023429,2.56497201

>  <Name>
ligand

>  <RI>
0

>  <Rbt.Current_Directory>
/home/itssahil/PROJECTS/Mol_Feturizer/New_Systems/rnas/3B4A

>  <Rbt.Executable>
rbdock ($Id: //depot/dev/client3/rdock/2013.1/src/exe/rbdock.cxx#4 $)

>  <Rbt.Library>
libRbt.so (2013.1, Build901 2013/11/27)

>  <Rbt.Parameter_File>
/export/apps/rDock/src/rDock_2013.1_src/data/scripts/dock_solv.prm

>  <Rbt.Receptor>
prm/pocket_docking_3.prm

>  <SCORE>
-5.33445

>  <SCORE.INTER>
-3.96103

>  <SCORE.INTER.CONST>
1

>  <SCORE.INTER.POLAR>
0

>  <SCORE.INTER.ROT>
3

>  <SCORE.INTER.SOLV>
10.8822

>  <SCORE.INTER.VDW>
-11.8681

>  <SCORE.INTER.norm>
-0.247564

>  <SCORE.INTRA>
-1.37343

>  <SCORE.INTRA.DIHEDRAL>
-1.87108

>  <SCORE.INTRA.DIHEDRAL.0>
2.05999

>  <SCORE.INTRA.POLAR>
0

>  <SCORE.INTRA.POLAR.0>
0

>  <SCORE.INTRA.REPUL>
0

>  <SCORE.INTRA.REPUL.0>
0

>  <SCORE.INTRA.SOLV>
-0.733173

>  <SCORE.INTRA.SOLV.lig_0>
-58.7001

>  <SCORE.INTRA.VDW>
-0.0712987

>  <SCORE.INTRA.VDW.0>
-0.401036

>  <SCORE.INTRA.norm>
-0.0858392

>  <SCORE.RESTR>
0

>  <SCORE.RESTR.CAVITY>
0

>  <SCORE.RESTR.norm>
0

>  <SCORE.SYSTEM>
0

>  <SCORE.SYSTEM.CONST>
0

>  <SCORE.SYSTEM.DIHEDRAL>
0

>  <SCORE.SYSTEM.SOLV>
0

>  <SCORE.SYSTEM.norm>
0

>  <SCORE.heavy>
16

>  <SCORE.norm>
-0.333403

>  <RMSD>
1.748

$$$$
ligand
 OpenBabel11021811463D
libRbt.so/2013.1/901 2013/11/27
 16 16  0  0  0  0  0  0  0  0999 V2000
   51.8447   33.3960   53.0121 P   0  0  2  0  0  0  0  0  0  0  0  0
   52.0766   32.0176   53.5110 O   0  0  0  0  0  0  0  0  0  0  0  0
   52.4676   33.5360   51.5311 O   0  5  0  0  0  0  0  0  0  0  0  0
   52.5631   34.4416   54.0160 O   0  0  0  0  0  0  0  0  0  0  0  0
   46.2462   33.4691   55.6991 C   0  0  2  0  0  0  0  0  0  0  0  0
   45.6325   32.5238   54.7936 O   0  0  0  0  0  0  0  0  0  0  0  0
   45.7938   34.9231   55.3780 C   0  0  2  0  0  0  0  0  0  0  0  0
   44.3249   35.0140   55.4685 N   0  0  0  0  0  0  0  0  0  0  0  0
   46.2595   35.2825   53.9499 C   0  0  1  0  0  0  0  0  0  0  0  0
   45.8604   36.6254   53.6275 O   0  0  0  0  0  0  0  0  0  0  0  0
   47.7979   35.1691   53.9198 C   0  0  2  0  0  0  0  0  0  0  0  0
   48.2678   35.4903   52.5995 O   0  0  0  0  0  0  0  0  0  0  0  0
   48.1863   33.7016   54.2776 C   0  0  2  0  0  0  0  0  0  0  0  0
   47.7022   33.3532   55.6088 O   0  0  0  0  0  0  0  0  0  0  0  0
   49.7133   33.5237   54.2843 C   0  0  0  0  0  0  0  0  0  0  0  0
   50.2493   33.6730   52.9577 O   0  0  0  0  0  0  0  0  0  0  0  0
  1  2  1  1  0  0  0
  1  3  1  0  0  0  0
  1  4  2  0  0  0  0
  1 16  1  0  0  0  0
  5  6  1  6  0  0  0
  5  7  1  0  0  0  0
  5 14  1  0  0  0  0
  7  8  1  6  0  0  0
  7  9  1  0  0  0  0
  9 10  1  1  0  0  0
  9 11  1  0  0  0  0
 11 12  1  6  0  0  0
 11 13  1  0  0  0  0
 13 14  1  0  0  0  0
 13 15  1  1  0  0  0
 15 16  1  0  0  0  0
M  CHG  1   3  -1
M  END
>  <CHROM.1>
-66.88572629,-176.93904656,59.79149854,48.75497423,34.06554535,53.92962368
0.00761049,-0.34806562,2.55781587

>  <Name>
ligand

>  <RI>
0

>  <Rbt.Current_Directory>
/home/itssahil/PROJECTS/Mol_Feturizer/New_Systems/rnas/3B4A

>  <Rbt.Executable>
rbdock ($Id: //depot/dev/client3/rdock/2013.1/src/exe/rbdock.cxx#4 $)

>  <Rbt.Library>
libRbt.so (2013.1, Build901 2013/11/27)

>  <Rbt.Parameter_File>
/export/apps/rDock/src/rDock_2013.1_src/data/scripts/dock_solv.prm

>  <Rbt.Receptor>
prm/pocket_docking_3.prm

>  <SCORE>
-5.3165

>  <SCORE.INTER>
-3.94139

>  <SCORE.INTER.CONST>
1

>  <SCORE.INTER.POLAR>
0

>  <SCORE.INTER.ROT>
3

>  <SCORE.INTER.SOLV>
10.948

>  <SCORE.INTER.VDW>
-11.8769

>  <SCORE.INTER.norm>
-0.246337

>  <SCORE.INTRA>
-1.37511

>  <SCORE.INTRA.DIHEDRAL>
-1.84374

>  <SCORE.INTRA.DIHEDRAL.0>
2.05999

>  <SCORE.INTRA.POLAR>
0

>  <SCORE.INTRA.POLAR.0>
0

>  <SCORE.INTRA.REPUL>
0

>  <SCORE.INTRA.REPUL.0>
0

>  <SCORE.INTRA.SOLV>
-0.744185

>  <SCORE.INTRA.SOLV.lig_0>
-58.7001

>  <SCORE.INTRA.VDW>
-0.0811444

>  <SCORE.INTRA.VDW.0>
-0.401036

>  <SCORE.INTRA.norm>
-0.0859443

>  <SCORE.RESTR>
0

>  <SCORE.RESTR.CAVITY>
0

>  <SCORE.RESTR.norm>
0

>  <SCORE.SYSTEM>
0

>  <SCORE.SYSTEM.CONST>
0

>  <SCORE.SYSTEM.DIHEDRAL>
0

>  <SCORE.SYSTEM.SOLV>
0

>  <SCORE.SYSTEM.norm>
0

>  <SCORE.heavy>
16

>  <SCORE.norm>
-0.332281

>  <RMSD>
1.752

$$$$
ligand
 OpenBabel11021811463D
libRbt.so/2013.1/901 2013/11/27
 16 16  0  0  0  0  0  0  0  0999 V2000
   51.9166   33.0708   54.0706 P   0  0  2  0  0  0  0  0  0  0  0  0
   52.8023   32.4861   55.1080 O   0  0  0  0  0  0  0  0  0  0  0  0
   52.0236   32.1901   52.7238 O   0  5  0  0  0  0  0  0  0  0  0  0
   52.3891   34.5901   53.7777 O   0  0  0  0  0  0  0  0  0  0  0  0
   46.5458   34.2218   55.7686 C   0  0  2  0  0  0  0  0  0  0  0  0
   46.1884   32.8543   56.0730 O   0  0  0  0  0  0  0  0  0  0  0  0
   45.5675   34.8347   54.7249 C   0  0  2  0  0  0  0  0  0  0  0  0
   44.1894   34.7743   55.2456 N   0  0  0  0  0  0  0  0  0  0  0  0
   45.6736   34.0267   53.4129 C   0  0  1  0  0  0  0  0  0  0  0  0
   44.7840   34.5754   52.4260 O   0  0  0  0  0  0  0  0  0  0  0  0
   47.1324   34.1280   52.9207 C   0  0  2  0  0  0  0  0  0  0  0  0
   47.2709   33.3790   51.7012 O   0  0  0  0  0  0  0  0  0  0  0  0
   48.0613   33.5265   54.0198 C   0  0  2  0  0  0  0  0  0  0  0  0
   47.9209   34.2649   55.2700 O   0  0  0  0  0  0  0  0  0  0  0  0
   49.5375   33.6139   53.5993 C   0  0  0  0  0  0  0  0  0  0  0  0
   50.3897   33.0504   54.6120 O   0  0  0  0  0  0  0  0  0  0  0  0
  1  2  1  1  0  0  0
  1  3  1  0  0  0  0
  1  4  2  0  0  0  0
  1 16  1  0  0  0  0
  5  6  1  6  0  0  0
  5  7  1  0  0  0  0
  5 14  1  0  0  0  0
  7  8  1  1  0  0  0
  7  9  1  0  0  0  0
  9 10  1  6  0  0  0
  9 11  1  0  0  0  0
 11 12  1  6  0  0  0
 11 13  1  0  0  0  0
 13 14  1  0  0  0  0
 13 15  1  6  0  0  0
 15 16  1  0  0  0  0
M  CHG  1   3  -1
M  END
>  <CHROM.1>
-179.63307038,175.91713927,-179.78812338,48.61253067,33.65290159,54.07974657
-0.02561940,-0.18155882,1.58197998

>  <Name>
ligand

>  <RI>
0

>  <Rbt.Current_Directory>
/home/itssahil/PROJECTS/Mol_Feturizer/New_Systems/rnas/3B4A

>  <Rbt.Executable>
rbdock ($Id: //depot/dev/client3/rdock/2013.1/src/exe/rbdock.cxx#4 $)

>  <Rbt.Library>
libRbt.so (2013.1, Build901 2013/11/27)

>  <Rbt.Parameter_File>
/export/apps/rDock/src/rDock_2013.1_src/data/scripts/dock_solv.prm

>  <Rbt.Receptor>
prm/pocket_docking_3.prm

>  <SCORE>
-5.13554

>  <SCORE.INTER>
-3.68628

>  <SCORE.INTER.CONST>
1

>  <SCORE.INTER.POLAR>
0

>  <SCORE.INTER.ROT>
3

>  <SCORE.INTER.SOLV>
12.6904

>  <SCORE.INTER.VDW>
-12.2877

>  <SCORE.INTER.norm>
-0.230393

>  <SCORE.INTRA>
-1.44926

>  <SCORE.INTRA.DIHEDRAL>
-1.97492

>  <SCORE.INTRA.DIHEDRAL.0>
2.05999

>  <SCORE.INTRA.POLAR>
0

>  <SCORE.INTRA.POLAR.0>
0

>  <SCORE.INTRA.REPUL>
0

>  <SCORE.INTRA.REPUL.0>
0

>  <SCORE.INTRA.SOLV>
-0.423417

>  <SCORE.INTRA.SOLV.lig_0>
-58.7001

>  <SCORE.INTRA.VDW>
-0.250093

>  <SCORE.INTRA.VDW.0>
-0.401036

>  <SCORE.INTRA.norm>
-0.0905789

>  <SCORE.RESTR>
0

>  <SCORE.RESTR.CAVITY>
0

>  <SCORE.RESTR.norm>
0

>  <SCORE.SYSTEM>
0

>  <SCORE.SYSTEM.CONST>
0

>  <SCORE.SYSTEM.DIHEDRAL>
0

>  <SCORE.SYSTEM.SOLV>
0

>  <SCORE.SYSTEM.norm>
0

>  <SCORE.heavy>
16

>  <SCORE.norm>
-0.320971

>  <RMSD>
1.771

$$$$
ligand
 OpenBabel11021811463D
libRbt.so/2013.1/901 2013/11/27
 16 16  0  0  0  0  0  0  0  0999 V2000
   51.9314   33.0618   54.0704 P   0  0  2  0  0  0  0  0  0  0  0  0
   52.8159   32.4807   55.1108 O   0  0  0  0  0  0  0  0  0  0  0  0
   52.0405   32.1768   52.7265 O   0  5  0  0  0  0  0  0  0  0  0  0
   52.4038   34.5803   53.7732 O   0  0  0  0  0  0  0  0  0  0  0  0
   46.5611   34.2244   55.7644 C   0  0  2  0  0  0  0  0  0  0  0  0
   46.2007   32.8576   56.0677 O   0  0  0  0  0  0  0  0  0  0  0  0
   45.5852   34.8396   54.7198 C   0  0  2  0  0  0  0  0  0  0  0  0
   44.2063   34.7816   55.2390 N   0  0  0  0  0  0  0  0  0  0  0  0
   45.6912   34.0320   53.4076 C   0  0  1  0  0  0  0  0  0  0  0  0
   44.8037   34.5828   52.4199 O   0  0  0  0  0  0  0  0  0  0  0  0
   47.1507   34.1308   52.9170 C   0  0  2  0  0  0  0  0  0  0  0  0
   47.2891   33.3821   51.6974 O   0  0  0  0  0  0  0  0  0  0  0  0
   48.0772   33.5271   54.0169 C   0  0  2  0  0  0  0  0  0  0  0  0
   47.9368   34.2651   55.2672 O   0  0  0  0  0  0  0  0  0  0  0  0
   49.5540   33.6118   53.5981 C   0  0  0  0  0  0  0  0  0  0  0  0
   50.4037   33.0426   54.6097 O   0  0  0  0  0  0  0  0  0  0  0  0
  1  2  1  1  0  0  0
  1  3  1  0  0  0  0
  1  4  2  0  0  0  0
  1 16  1  0  0  0  0
  5  6  1  6  0  0  0
  5  7  1  0  0  0  0
  5 14  1  0  0  0  0
  7  8  1  1  0  0  0
  7  9  1  0  0  0  0
  9 10  1  6  0  0  0
  9 11  1  0  0  0  0
 11 12  1  6  0  0  0
 11 13  1  0  0  0  0
 13 14  1  0  0  0  0
 13 15  1  6  0  0  0
 15 16  1  0  0  0  0
M  CHG  1   3  -1
M  END
>  <CHROM.1>
-179.45843305,175.96492350,179.78193587,48.62852901,33.65151442,54.07697459
-0.02470468,-0.18381691,1.58275562

>  <Name>
ligand

>  <RI>
0

>  <Rbt.Current_Directory>
/home/itssahil/PROJECTS/Mol_Feturizer/New_Systems/rnas/3B4A

>  <Rbt.Executable>
rbdock ($Id: //depot/dev/client3/rdock/2013.1/src/exe/rbdock.cxx#4 $)

>  <Rbt.Library>
libRbt.so (2013.1, Build901 2013/11/27)

>  <Rbt.Parameter_File>
/export/apps/rDock/src/rDock_2013.1_src/data/scripts/dock_solv.prm

>  <Rbt.Receptor>
prm/pocket_docking_3.prm

>  <SCORE>
-5.14569

>  <SCORE.INTER>
-3.69436

>  <SCORE.INTER.CONST>
1

>  <SCORE.INTER.POLAR>
0

>  <SCORE.INTER.ROT>
3

>  <SCORE.INTER.SOLV>
12.6256

>  <SCORE.INTER.VDW>
-12.2714

>  <SCORE.INTER.norm>
-0.230897

>  <SCORE.INTRA>
-1.45133

>  <SCORE.INTRA.DIHEDRAL>
-1.97621

>  <SCORE.INTRA.DIHEDRAL.0>
2.05999

>  <SCORE.INTRA.POLAR>
0

>  <SCORE.INTRA.POLAR.0>
0

>  <SCORE.INTRA.REPUL>
0

>  <SCORE.INTRA.REPUL.0>
0

>  <SCORE.INTRA.SOLV>
-0.423857

>  <SCORE.INTRA.SOLV.lig_0>
-58.7001

>  <SCORE.INTRA.VDW>
-0.251298

>  <SCORE.INTRA.VDW.0>
-0.401036

>  <SCORE.INTRA.norm>
-0.0907081

>  <SCORE.RESTR>
0

>  <SCORE.RESTR.CAVITY>
0

>  <SCORE.RESTR.norm>
0

>  <SCORE.SYSTEM>
0

>  <SCORE.SYSTEM.CONST>
0

>  <SCORE.SYSTEM.DIHEDRAL>
0

>  <SCORE.SYSTEM.SOLV>
0

>  <SCORE.SYSTEM.norm>
0

>  <SCORE.heavy>
16

>  <SCORE.norm>
-0.321605

>  <RMSD>
1.774

$$$$
ligand
 OpenBabel11021811463D
libRbt.so/2013.1/901 2013/11/27
 16 16  0  0  0  0  0  0  0  0999 V2000
   52.5182   33.2095   54.4931 P   0  0  2  0  0  0  0  0  0  0  0  0
   53.2684   32.0956   55.1248 O   0  0  0  0  0  0  0  0  0  0  0  0
   52.9446   33.3240   52.9419 O   0  5  0  0  0  0  0  0  0  0  0  0
   52.8750   34.5840   55.2682 O   0  0  0  0  0  0  0  0  0  0  0  0
   46.9385   33.2688   55.7372 C   0  0  2  0  0  0  0  0  0  0  0  0
   46.5792   32.0669   55.0185 O   0  0  0  0  0  0  0  0  0  0  0  0
   46.0935   34.4823   55.2519 C   0  0  2  0  0  0  0  0  0  0  0  0
   44.6599   34.1903   55.4360 N   0  0  0  0  0  0  0  0  0  0  0  0
   46.3957   34.7300   53.7576 C   0  0  1  0  0  0  0  0  0  0  0  0
   45.6325   35.8518   53.2825 O   0  0  0  0  0  0  0  0  0  0  0  0
   47.9041   35.0284   53.6311 C   0  0  2  0  0  0  0  0  0  0  0  0
   48.2244   35.2573   52.2483 O   0  0  0  0  0  0  0  0  0  0  0  0
   48.6925   33.7905   54.1592 C   0  0  2  0  0  0  0  0  0  0  0  0
   48.3665   33.5335   55.5576 O   0  0  0  0  0  0  0  0  0  0  0  0
   50.2090   34.0301   54.0789 C   0  0  0  0  0  0  0  0  0  0  0  0
   50.9314   32.8995   54.5978 O   0  0  0  0  0  0  0  0  0  0  0  0
  1  2  1  1  0  0  0
  1  3  1  0  0  0  0
  1  4  2  0  0  0  0
  1 16  1  0  0  0  0
  5  6  1  6  0  0  0
  5  7  1  0  0  0  0
  5 14  1  0  0  0  0
  7  8  1  6  0  0  0
  7  9  1  0  0  0  0
  9 10  1  1  0  0  0
  9 11  1  0  0  0  0
 11 12  1  6  0  0  0
 11 13  1  0  0  0  0
 13 14  1  0  0  0  0
 13 15  1  1  0  0  0
 15 16  1  0  0  0  0
M  CHG  1   3  -1
M  END
>  <CHROM.1>
178.56437169,-179.79759073,175.53672757,49.22783296,33.83074710,54.40522238
0.12070271,-0.13121180,2.32207821

>  <Name>
ligand

>  <RI>
0

>  <Rbt.Current_Directory>
/home/itssahil/PROJECTS/Mol_Feturizer/New_Systems/rnas/3B4A

>  <Rbt.Executable>
rbdock ($Id: //depot/dev/client3/rdock/2013.1/src/exe/rbdock.cxx#4 $)

>  <Rbt.Library>
libRbt.so (2013.1, Build901 2013/11/27)

>  <Rbt.Parameter_File>
/export/apps/rDock/src/rDock_2013.1_src/data/scripts/dock_solv.prm

>  <Rbt.Receptor>
prm/pocket_docking_4.prm

>  <SCORE>
-5.96865

>  <SCORE.INTER>
-4.51803

>  <SCORE.INTER.CONST>
1

>  <SCORE.INTER.POLAR>
0

>  <SCORE.INTER.ROT>
3

>  <SCORE.INTER.SOLV>
12.8146

>  <SCORE.INTER.VDW>
-12.8835

>  <SCORE.INTER.norm>
-0.282377

>  <SCORE.INTRA>
-1.45061

>  <SCORE.INTRA.DIHEDRAL>
-2.01785

>  <SCORE.INTRA.DIHEDRAL.0>
2.05999

>  <SCORE.INTRA.POLAR>
0

>  <SCORE.INTRA.POLAR.0>
0

>  <SCORE.INTRA.REPUL>
0

>  <SCORE.INTRA.REPUL.0>
0

>  <SCORE.INTRA.SOLV>
-0.404645

>  <SCORE.INTRA.SOLV.lig_0>
-58.7001

>  <SCORE.INTRA.VDW>
-0.239365

>  <SCORE.INTRA.VDW.0>
-0.401036

>  <SCORE.INTRA.norm>
-0.0906633

>  <SCORE.RESTR>
0

>  <SCORE.RESTR.CAVITY>
0

>  <SCORE.RESTR.norm>
0

>  <SCORE.SYSTEM>
0

>  <SCORE.SYSTEM.CONST>
0

>  <SCORE.SYSTEM.DIHEDRAL>
0

>  <SCORE.SYSTEM.SOLV>
0

>  <SCORE.SYSTEM.norm>
0

>  <SCORE.heavy>
16

>  <SCORE.norm>
-0.37304

>  <RMSD>
1.775

$$$$
ligand
 OpenBabel11021811463D
libRbt.so/2013.1/901 2013/11/27
 16 16  0  0  0  0  0  0  0  0999 V2000
   52.4996   33.2149   54.5239 P   0  0  2  0  0  0  0  0  0  0  0  0
   53.2467   32.0960   55.1503 O   0  0  0  0  0  0  0  0  0  0  0  0
   52.9368   33.3446   52.9770 O   0  5  0  0  0  0  0  0  0  0  0  0
   52.8492   34.5824   55.3145 O   0  0  0  0  0  0  0  0  0  0  0  0
   46.9167   33.2524   55.7327 C   0  0  2  0  0  0  0  0  0  0  0  0
   46.5589   32.0603   54.9970 O   0  0  0  0  0  0  0  0  0  0  0  0
   46.0738   34.4727   55.2610 C   0  0  2  0  0  0  0  0  0  0  0  0
   44.6395   34.1791   55.4369 N   0  0  0  0  0  0  0  0  0  0  0  0
   46.3806   34.7400   53.7711 C   0  0  1  0  0  0  0  0  0  0  0  0
   45.6195   35.8685   53.3086 O   0  0  0  0  0  0  0  0  0  0  0  0
   47.8896   35.0392   53.6531 C   0  0  2  0  0  0  0  0  0  0  0  0
   48.2142   35.2863   52.2744 O   0  0  0  0  0  0  0  0  0  0  0  0
   48.6757   33.7940   54.1671 C   0  0  2  0  0  0  0  0  0  0  0  0
   48.3453   33.5187   55.5610 O   0  0  0  0  0  0  0  0  0  0  0  0
   50.1926   34.0338   54.0945 C   0  0  0  0  0  0  0  0  0  0  0  0
   50.9125   32.9021   54.6145 O   0  0  0  0  0  0  0  0  0  0  0  0
  1  2  1  1  0  0  0
  1  3  1  0  0  0  0
  1  4  2  0  0  0  0
  1 16  1  0  0  0  0
  5  6  1  6  0  0  0
  5  7  1  0  0  0  0
  5 14  1  0  0  0  0
  7  8  1  6  0  0  0
  7  9  1  0  0  0  0
  9 10  1  1  0  0  0
  9 11  1  0  0  0  0
 11 12  1  6  0  0  0
 11 13  1  0  0  0  0
 13 14  1  0  0  0  0
 13 15  1  1  0  0  0
 15 16  1  0  0  0  0
M  CHG  1   3  -1
M  END
>  <CHROM.1>
177.91660993,-179.55636533,175.84320520,49.21016392,33.83384826,54.42240890
0.12465403,-0.12663655,2.33477153

>  <Name>
ligand

>  <RI>
0

>  <Rbt.Current_Directory>
/home/itssahil/PROJECTS/Mol_Feturizer/New_Systems/rnas/3B4A

>  <Rbt.Executable>
rbdock ($Id: //depot/dev/client3/rdock/2013.1/src/exe/rbdock.cxx#4 $)

>  <Rbt.Library>
libRbt.so (2013.1, Build901 2013/11/27)

>  <Rbt.Parameter_File>
/export/apps/rDock/src/rDock_2013.1_src/data/scripts/dock_solv.prm

>  <Rbt.Receptor>
prm/pocket_docking_6.prm

>  <SCORE>
-5.98673

>  <SCORE.INTER>
-4.54115

>  <SCORE.INTER.CONST>
1

>  <SCORE.INTER.POLAR>
0

>  <SCORE.INTER.ROT>
3

>  <SCORE.INTER.SOLV>
12.9692

>  <SCORE.INTER.VDW>
-12.9505

>  <SCORE.INTER.norm>
-0.283822

>  <SCORE.INTRA>
-1.44558

>  <SCORE.INTRA.DIHEDRAL>
-2.01334

>  <SCORE.INTRA.DIHEDRAL.0>
2.05999

>  <SCORE.INTRA.POLAR>
0

>  <SCORE.INTRA.POLAR.0>
0

>  <SCORE.INTRA.REPUL>
0

>  <SCORE.INTRA.REPUL.0>
0

>  <SCORE.INTRA.SOLV>
-0.401319

>  <SCORE.INTRA.SOLV.lig_0>
-58.7001

>  <SCORE.INTRA.VDW>
-0.238251

>  <SCORE.INTRA.VDW.0>
-0.401036

>  <SCORE.INTRA.norm>
-0.0903488

>  <SCORE.RESTR>
0

>  <SCORE.RESTR.CAVITY>
0

>  <SCORE.RESTR.norm>
0

>  <SCORE.SYSTEM>
0

>  <SCORE.SYSTEM.CONST>
0

>  <SCORE.SYSTEM.DIHEDRAL>
0

>  <SCORE.SYSTEM.SOLV>
0

>  <SCORE.SYSTEM.norm>
0

>  <SCORE.heavy>
16

>  <SCORE.norm>
-0.374171

>  <RMSD>
1.776

$$$$
ligand
 OpenBabel11021811463D
libRbt.so/2013.1/901 2013/11/27
 16 16  0  0  0  0  0  0  0  0999 V2000
   52.4769   33.1984   54.5466 P   0  0  2  0  0  0  0  0  0  0  0  0
   53.2110   32.0976   55.2187 O   0  0  0  0  0  0  0  0  0  0  0  0
   52.9276   33.2699   52.9998 O   0  5  0  0  0  0  0  0  0  0  0  0
   52.8296   34.5909   55.2909 O   0  0  0  0  0  0  0  0  0  0  0  0
   46.8803   33.2192   55.6764 C   0  0  2  0  0  0  0  0  0  0  0  0
   46.5278   32.0474   54.9064 O   0  0  0  0  0  0  0  0  0  0  0  0
   46.0470   34.4540   55.2257 C   0  0  2  0  0  0  0  0  0  0  0  0
   44.6098   34.1610   55.3768 N   0  0  0  0  0  0  0  0  0  0  0  0
   46.3728   34.7580   53.7469 C   0  0  1  0  0  0  0  0  0  0  0  0
   45.6208   35.9004   53.3041 O   0  0  0  0  0  0  0  0  0  0  0  0
   47.8840   35.0548   53.6547 C   0  0  2  0  0  0  0  0  0  0  0  0
   48.2261   35.3357   52.2868 O   0  0  0  0  0  0  0  0  0  0  0  0
   48.6599   33.7943   54.1464 C   0  0  2  0  0  0  0  0  0  0  0  0
   48.3118   33.4848   55.5287 O   0  0  0  0  0  0  0  0  0  0  0  0
   50.1783   34.0306   54.0982 C   0  0  0  0  0  0  0  0  0  0  0  0
   50.8870   32.8997   54.6350 O   0  0  0  0  0  0  0  0  0  0  0  0
  1  2  1  1  0  0  0
  1  3  1  0  0  0  0
  1  4  2  0  0  0  0
  1 16  1  0  0  0  0
  5  6  1  6  0  0  0
  5  7  1  0  0  0  0
  5 14  1  0  0  0  0
  7  8  1  6  0  0  0
  7  9  1  0  0  0  0
  9 10  1  1  0  0  0
  9 11  1  0  0  0  0
 11 12  1  6  0  0  0
 11 13  1  0  0  0  0
 13 14  1  0  0  0  0
 13 15  1  1  0  0  0
 15 16  1  0  0  0  0
M  CHG  1   3  -1
M  END
>  <CHROM.1>
176.19293414,179.49988706,174.48833829,49.19117122,33.82763780,54.41338675
0.13655226,-0.11873937,2.36190868

>  <Name>
ligand

>  <RI>
0

>  <Rbt.Current_Directory>
/home/itssahil/PROJECTS/Mol_Feturizer/New_Systems/rnas/3B4A

>  <Rbt.Executable>
rbdock ($Id: //depot/dev/client3/rdock/2013.1/src/exe/rbdock.cxx#4 $)

>  <Rbt.Library>
libRbt.so (2013.1, Build901 2013/11/27)

>  <Rbt.Parameter_File>
/export/apps/rDock/src/rDock_2013.1_src/data/scripts/dock_solv.prm

>  <Rbt.Receptor>
prm/pocket_docking_4.prm

>  <SCORE>
-5.97189

>  <SCORE.INTER>
-4.57045

>  <SCORE.INTER.CONST>
1

>  <SCORE.INTER.POLAR>
0

>  <SCORE.INTER.ROT>
3

>  <SCORE.INTER.SOLV>
12.826

>  <SCORE.INTER.VDW>
-12.9223

>  <SCORE.INTER.norm>
-0.285653

>  <SCORE.INTRA>
-1.40143

>  <SCORE.INTRA.DIHEDRAL>
-1.95576

>  <SCORE.INTRA.DIHEDRAL.0>
2.05999

>  <SCORE.INTRA.POLAR>
0

>  <SCORE.INTRA.POLAR.0>
0

>  <SCORE.INTRA.REPUL>
0

>  <SCORE.INTRA.REPUL.0>
0

>  <SCORE.INTRA.SOLV>
-0.400098

>  <SCORE.INTRA.SOLV.lig_0>
-58.7001

>  <SCORE.INTRA.VDW>
-0.223505

>  <SCORE.INTRA.VDW.0>
-0.401036

>  <SCORE.INTRA.norm>
-0.0875896

>  <SCORE.RESTR>
0

>  <SCORE.RESTR.CAVITY>
0

>  <SCORE.RESTR.norm>
0

>  <SCORE.SYSTEM>
0

>  <SCORE.SYSTEM.CONST>
0

>  <SCORE.SYSTEM.DIHEDRAL>
0

>  <SCORE.SYSTEM.SOLV>
0

>  <SCORE.SYSTEM.norm>
0

>  <SCORE.heavy>
16

>  <SCORE.norm>
-0.373243

>  <RMSD>
1.780

$$$$
ligand
 OpenBabel11021811463D
libRbt.so/2013.1/901 2013/11/27
 16 16  0  0  0  0  0  0  0  0999 V2000
   51.0118   35.2794   51.8190 P   0  0  2  0  0  0  0  0  0  0  0  0
   51.7908   34.0982   52.2666 O   0  0  0  0  0  0  0  0  0  0  0  0
   51.2266   35.4871   50.2341 O   0  5  0  0  0  0  0  0  0  0  0  0
   51.5324   36.5827   52.6237 O   0  0  0  0  0  0  0  0  0  0  0  0
   46.3722   33.9404   55.7321 C   0  0  2  0  0  0  0  0  0  0  0  0
   45.9106   32.7514   55.0514 O   0  0  0  0  0  0  0  0  0  0  0  0
   45.4325   35.1474   55.4452 C   0  0  2  0  0  0  0  0  0  0  0  0
   44.0608   34.8174   55.8740 N   0  0  0  0  0  0  0  0  0  0  0  0
   45.4565   35.4442   53.9297 C   0  0  1  0  0  0  0  0  0  0  0  0
   44.6007   36.5611   53.6353 O   0  0  0  0  0  0  0  0  0  0  0  0
   46.9121   35.7806   53.5444 C   0  0  2  0  0  0  0  0  0  0  0  0
   46.9743   36.0559   52.1346 O   0  0  0  0  0  0  0  0  0  0  0  0
   47.8042   34.5468   53.8827 C   0  0  2  0  0  0  0  0  0  0  0  0
   47.7397   34.2429   55.3080 O   0  0  0  0  0  0  0  0  0  0  0  0
   49.2771   34.8234   53.5395 C   0  0  0  0  0  0  0  0  0  0  0  0
   49.4420   35.0190   52.1239 O   0  0  0  0  0  0  0  0  0  0  0  0
  1  2  1  1  0  0  0
  1  3  1  0  0  0  0
  1  4  2  0  0  0  0
  1 16  1  0  0  0  0
  5  6  1  6  0  0  0
  5  7  1  0  0  0  0
  5 14  1  0  0  0  0
  7  8  1  6  0  0  0
  7  9  1  0  0  0  0
  9 10  1  1  0  0  0
  9 11  1  0  0  0  0
 11 12  1  6  0  0  0
 11 13  1  0  0  0  0
 13 14  1  0  0  0  0
 13 15  1  1  0  0  0
 15 16  1  0  0  0  0
M  CHG  1   3  -1
M  END
>  <CHROM.1>
-64.07191257,-179.00679223,60.03827301,48.13903253,35.05776203,53.39417333
-0.41245026,-0.31040056,2.33217902

>  <Name>
ligand

>  <RI>
0

>  <Rbt.Current_Directory>
/home/itssahil/PROJECTS/Mol_Feturizer/New_Systems/rnas/3B4A

>  <Rbt.Executable>
rbdock ($Id: //depot/dev/client3/rdock/2013.1/src/exe/rbdock.cxx#4 $)

>  <Rbt.Library>
libRbt.so (2013.1, Build901 2013/11/27)

>  <Rbt.Parameter_File>
/export/apps/rDock/src/rDock_2013.1_src/data/scripts/dock_solv.prm

>  <Rbt.Receptor>
prm/pocket_docking_5.prm

>  <SCORE>
-4.15955

>  <SCORE.INTER>
-2.784

>  <SCORE.INTER.CONST>
1

>  <SCORE.INTER.POLAR>
0

>  <SCORE.INTER.ROT>
3

>  <SCORE.INTER.SOLV>
10.8202

>  <SCORE.INTER.VDW>
-11.0627

>  <SCORE.INTER.norm>
-0.174

>  <SCORE.INTRA>
-1.37555

>  <SCORE.INTRA.DIHEDRAL>
-1.99415

>  <SCORE.INTRA.DIHEDRAL.0>
2.05999

>  <SCORE.INTRA.POLAR>
0

>  <SCORE.INTRA.POLAR.0>
0

>  <SCORE.INTRA.REPUL>
0

>  <SCORE.INTRA.REPUL.0>
0

>  <SCORE.INTRA.SOLV>
-0.689671

>  <SCORE.INTRA.SOLV.lig_0>
-58.7001

>  <SCORE.INTRA.VDW>
-0.0336405

>  <SCORE.INTRA.VDW.0>
-0.401036

>  <SCORE.INTRA.norm>
-0.0859718

>  <SCORE.RESTR>
0

>  <SCORE.RESTR.CAVITY>
0

>  <SCORE.RESTR.norm>
0

>  <SCORE.SYSTEM>
0

>  <SCORE.SYSTEM.CONST>
0

>  <SCORE.SYSTEM.DIHEDRAL>
0

>  <SCORE.SYSTEM.SOLV>
0

>  <SCORE.SYSTEM.norm>
0

>  <SCORE.heavy>
16

>  <SCORE.norm>
-0.259972

>  <RMSD>
1.788

$$$$
ligand
 OpenBabel11021811463D
libRbt.so/2013.1/901 2013/11/27
 16 16  0  0  0  0  0  0  0  0999 V2000
   51.4765   33.8818   54.2416 P   0  0  2  0  0  0  0  0  0  0  0  0
   51.7373   32.7576   55.1747 O   0  0  0  0  0  0  0  0  0  0  0  0
   51.7229   33.3831   52.7278 O   0  5  0  0  0  0  0  0  0  0  0  0
   52.4842   35.0971   54.5951 O   0  0  0  0  0  0  0  0  0  0  0  0
   45.9086   34.3746   55.7122 C   0  0  2  0  0  0  0  0  0  0  0  0
   45.0498   33.2678   55.3551 O   0  0  0  0  0  0  0  0  0  0  0  0
   45.5775   35.6345   54.8607 C   0  0  2  0  0  0  0  0  0  0  0  0
   44.1638   36.0051   55.0571 N   0  0  0  0  0  0  0  0  0  0  0  0
   45.8378   35.3093   53.3735 C   0  0  1  0  0  0  0  0  0  0  0  0
   45.5461   36.4594   52.5618 O   0  0  0  0  0  0  0  0  0  0  0  0
   47.3269   34.9306   53.2337 C   0  0  2  0  0  0  0  0  0  0  0  0
   47.6049   34.6130   51.8593 O   0  0  0  0  0  0  0  0  0  0  0  0
   47.5998   33.6841   54.1307 C   0  0  2  0  0  0  0  0  0  0  0  0
   47.3067   33.9838   55.5278 O   0  0  0  0  0  0  0  0  0  0  0  0
   49.0766   33.2638   54.0523 C   0  0  0  0  0  0  0  0  0  0  0  0
   49.9375   34.3588   54.4116 O   0  0  0  0  0  0  0  0  0  0  0  0
  1  2  1  1  0  0  0
  1  3  1  0  0  0  0
  1  4  2  0  0  0  0
  1 16  1  0  0  0  0
  5  6  1  6  0  0  0
  5  7  1  0  0  0  0
  5 14  1  0  0  0  0
  7  8  1  6  0  0  0
  7  9  1  0  0  0  0
  9 10  1  6  0  0  0
  9 11  1  0  0  0  0
 11 12  1  6  0  0  0
 11 13  1  0  0  0  0
 13 14  1  0  0  0  0
 13 15  1  1  0  0  0
 15 16  1  0  0  0  0
M  CHG  1   3  -1
M  END
>  <CHROM.1>
56.15961844,-177.26618877,-62.25678949,48.34266387,34.38093241,54.17255686
0.07898072,-0.19717484,2.07011836

>  <Name>
ligand

>  <RI>
0

>  <Rbt.Current_Directory>
/home/itssahil/PROJECTS/Mol_Feturizer/New_Systems/rnas/3B4A

>  <Rbt.Executable>
rbdock ($Id: //depot/dev/client3/rdock/2013.1/src/exe/rbdock.cxx#4 $)

>  <Rbt.Library>
libRbt.so (2013.1, Build901 2013/11/27)

>  <Rbt.Parameter_File>
/export/apps/rDock/src/rDock_2013.1_src/data/scripts/dock_solv.prm

>  <Rbt.Receptor>
prm/pocket_docking_3.prm

>  <SCORE>
-5.76513

>  <SCORE.INTER>
-4.20135

>  <SCORE.INTER.CONST>
1

>  <SCORE.INTER.POLAR>
0

>  <SCORE.INTER.ROT>
3

>  <SCORE.INTER.SOLV>
12.5494

>  <SCORE.INTER.VDW>
-12.584

>  <SCORE.INTER.norm>
-0.262584

>  <SCORE.INTRA>
-1.56379

>  <SCORE.INTRA.DIHEDRAL>
-1.96041

>  <SCORE.INTRA.DIHEDRAL.0>
2.05999

>  <SCORE.INTRA.POLAR>
0

>  <SCORE.INTRA.POLAR.0>
0

>  <SCORE.INTRA.REPUL>
0

>  <SCORE.INTRA.REPUL.0>
0

>  <SCORE.INTRA.SOLV>
-0.786725

>  <SCORE.INTRA.SOLV.lig_0>
-58.7001

>  <SCORE.INTRA.VDW>
-0.190218

>  <SCORE.INTRA.VDW.0>
-0.401036

>  <SCORE.INTRA.norm>
-0.0977367

>  <SCORE.RESTR>
0

>  <SCORE.RESTR.CAVITY>
0

>  <SCORE.RESTR.norm>
0

>  <SCORE.SYSTEM>
0

>  <SCORE.SYSTEM.CONST>
0

>  <SCORE.SYSTEM.DIHEDRAL>
0

>  <SCORE.SYSTEM.SOLV>
0

>  <SCORE.SYSTEM.norm>
0

>  <SCORE.heavy>
16

>  <SCORE.norm>
-0.360321

>  <RMSD>
1.790

$$$$
ligand
 OpenBabel11021811463D
libRbt.so/2013.1/901 2013/11/27
 16 16  0  0  0  0  0  0  0  0999 V2000
   51.4229   33.9566   54.1773 P   0  0  2  0  0  0  0  0  0  0  0  0
   51.6919   32.8493   55.1282 O   0  0  0  0  0  0  0  0  0  0  0  0
   51.6662   33.4335   52.6712 O   0  5  0  0  0  0  0  0  0  0  0  0
   52.4265   35.1820   54.5067 O   0  0  0  0  0  0  0  0  0  0  0  0
   45.8639   34.4355   55.6852 C   0  0  2  0  0  0  0  0  0  0  0  0
   45.0090   33.3192   55.3488 O   0  0  0  0  0  0  0  0  0  0  0  0
   45.5183   35.6828   54.8209 C   0  0  2  0  0  0  0  0  0  0  0  0
   44.1041   36.0473   55.0241 N   0  0  0  0  0  0  0  0  0  0  0  0
   45.7686   35.3406   53.3357 C   0  0  1  0  0  0  0  0  0  0  0  0
   45.4635   36.4787   52.5122 O   0  0  0  0  0  0  0  0  0  0  0  0
   47.2588   34.9691   53.1885 C   0  0  2  0  0  0  0  0  0  0  0  0
   47.5277   34.6361   51.8159 O   0  0  0  0  0  0  0  0  0  0  0  0
   47.5465   33.7355   54.0986 C   0  0  2  0  0  0  0  0  0  0  0  0
   47.2628   34.0508   55.4943 O   0  0  0  0  0  0  0  0  0  0  0  0
   49.0251   33.3231   54.0134 C   0  0  0  0  0  0  0  0  0  0  0  0
   49.8824   34.4297   54.3448 O   0  0  0  0  0  0  0  0  0  0  0  0
  1  2  1  1  0  0  0
  1  3  1  0  0  0  0
  1  4  2  0  0  0  0
  1 16  1  0  0  0  0
  5  6  1  6  0  0  0
  5  7  1  0  0  0  0
  5 14  1  0  0  0  0
  7  8  1  6  0  0  0
  7  9  1  0  0  0  0
  9 10  1  6  0  0  0
  9 11  1  0  0  0  0
 11 12  1  6  0  0  0
 11 13  1  0  0  0  0
 13 14  1  0  0  0  0
 13 15  1  1  0  0  0
 15 16  1  0  0  0  0
M  CHG  1   3  -1
M  END
>  <CHROM.1>
55.83409060,-177.61323983,-61.97580557,48.28554266,34.43677817,54.12643743
0.06918686,-0.19574475,2.05558166

>  <Name>
ligand

>  <RI>
0

>  <Rbt.Current_Directory>
/home/itssahil/PROJECTS/Mol_Feturizer/New_Systems/rnas/3B4A

>  <Rbt.Executable>
rbdock ($Id: //depot/dev/client3/rdock/2013.1/src/exe/rbdock.cxx#4 $)

>  <Rbt.Library>
libRbt.so (2013.1, Build901 2013/11/27)

>  <Rbt.Parameter_File>
/export/apps/rDock/src/rDock_2013.1_src/data/scripts/dock_solv.prm

>  <Rbt.Receptor>
prm/pocket_docking_3.prm

>  <SCORE>
-5.86247

>  <SCORE.INTER>
-4.29562

>  <SCORE.INTER.CONST>
1

>  <SCORE.INTER.POLAR>
0

>  <SCORE.INTER.ROT>
3

>  <SCORE.INTER.SOLV>
12.4358

>  <SCORE.INTER.VDW>
-12.609

>  <SCORE.INTER.norm>
-0.268476

>  <SCORE.INTRA>
-1.56685

>  <SCORE.INTRA.DIHEDRAL>
-1.96184

>  <SCORE.INTRA.DIHEDRAL.0>
2.05999

>  <SCORE.INTRA.POLAR>
0

>  <SCORE.INTRA.POLAR.0>
0

>  <SCORE.INTRA.REPUL>
0

>  <SCORE.INTRA.REPUL.0>
0

>  <SCORE.INTRA.SOLV>
-0.799119

>  <SCORE.INTRA.SOLV.lig_0>
-58.7001

>  <SCORE.INTRA.VDW>
-0.186372

>  <SCORE.INTRA.VDW.0>
-0.401036

>  <SCORE.INTRA.norm>
-0.0979282

>  <SCORE.RESTR>
0

>  <SCORE.RESTR.CAVITY>
0

>  <SCORE.RESTR.norm>
0

>  <SCORE.SYSTEM>
0

>  <SCORE.SYSTEM.CONST>
0

>  <SCORE.SYSTEM.DIHEDRAL>
0

>  <SCORE.SYSTEM.SOLV>
0

>  <SCORE.SYSTEM.norm>
0

>  <SCORE.heavy>
16

>  <SCORE.norm>
-0.366405

>  <RMSD>
1.790

$$$$
ligand
 OpenBabel11021811463D
libRbt.so/2013.1/901 2013/11/27
 16 16  0  0  0  0  0  0  0  0999 V2000
   51.4201   33.9299   54.1810 P   0  0  2  0  0  0  0  0  0  0  0  0
   51.6819   32.8311   55.1436 O   0  0  0  0  0  0  0  0  0  0  0  0
   51.6650   33.3907   52.6808 O   0  5  0  0  0  0  0  0  0  0  0  0
   52.4281   35.1542   54.5006 O   0  0  0  0  0  0  0  0  0  0  0  0
   45.8620   34.4339   55.6802 C   0  0  2  0  0  0  0  0  0  0  0  0
   45.0032   33.3201   55.3455 O   0  0  0  0  0  0  0  0  0  0  0  0
   45.5215   35.6807   54.8133 C   0  0  2  0  0  0  0  0  0  0  0  0
   44.1086   36.0509   55.0151 N   0  0  0  0  0  0  0  0  0  0  0  0
   45.7714   35.3348   53.3290 C   0  0  1  0  0  0  0  0  0  0  0  0
   45.4709   36.4725   52.5032 O   0  0  0  0  0  0  0  0  0  0  0  0
   47.2603   34.9574   53.1833 C   0  0  2  0  0  0  0  0  0  0  0  0
   47.5287   34.6209   51.8115 O   0  0  0  0  0  0  0  0  0  0  0  0
   47.5429   33.7246   54.0959 C   0  0  2  0  0  0  0  0  0  0  0  0
   47.2596   34.0436   55.4908 O   0  0  0  0  0  0  0  0  0  0  0  0
   49.0201   33.3065   54.0124 C   0  0  0  0  0  0  0  0  0  0  0  0
   49.8813   34.4113   54.3397 O   0  0  0  0  0  0  0  0  0  0  0  0
  1  2  1  1  0  0  0
  1  3  1  0  0  0  0
  1  4  2  0  0  0  0
  1 16  1  0  0  0  0
  5  6  1  6  0  0  0
  5  7  1  0  0  0  0
  5 14  1  0  0  0  0
  7  8  1  6  0  0  0
  7  9  1  0  0  0  0
  9 10  1  6  0  0  0
  9 11  1  0  0  0  0
 11 12  1  6  0  0  0
 11 13  1  0  0  0  0
 13 14  1  0  0  0  0
 13 15  1  1  0  0  0
 15 16  1  0  0  0  0
M  CHG  1   3  -1
M  END
>  <CHROM.1>
55.72685298,-177.88251722,-62.18708497,48.28456605,34.42254682,54.12452727
0.07227833,-0.19868616,2.05378104

>  <Name>
ligand

>  <RI>
0

>  <Rbt.Current_Directory>
/home/itssahil/PROJECTS/Mol_Feturizer/New_Systems/rnas/3B4A

>  <Rbt.Executable>
rbdock ($Id: //depot/dev/client3/rdock/2013.1/src/exe/rbdock.cxx#4 $)

>  <Rbt.Library>
libRbt.so (2013.1, Build901 2013/11/27)

>  <Rbt.Parameter_File>
/export/apps/rDock/src/rDock_2013.1_src/data/scripts/dock_solv.prm

>  <Rbt.Receptor>
prm/pocket_docking_5.prm

>  <SCORE>
-5.86523

>  <SCORE.INTER>
-4.296

>  <SCORE.INTER.CONST>
1

>  <SCORE.INTER.POLAR>
0

>  <SCORE.INTER.ROT>
3

>  <SCORE.INTER.SOLV>
12.3852

>  <SCORE.INTER.VDW>
-12.5924

>  <SCORE.INTER.norm>
-0.2685

>  <SCORE.INTRA>
-1.56923

>  <SCORE.INTRA.DIHEDRAL>
-1.96316

>  <SCORE.INTRA.DIHEDRAL.0>
2.05999

>  <SCORE.INTRA.POLAR>
0

>  <SCORE.INTRA.POLAR.0>
0

>  <SCORE.INTRA.REPUL>
0

>  <SCORE.INTRA.REPUL.0>
0

>  <SCORE.INTRA.SOLV>
-0.804302

>  <SCORE.INTRA.SOLV.lig_0>
-58.7001

>  <SCORE.INTRA.VDW>
-0.185499

>  <SCORE.INTRA.VDW.0>
-0.401036

>  <SCORE.INTRA.norm>
-0.0980768

>  <SCORE.RESTR>
0

>  <SCORE.RESTR.CAVITY>
0

>  <SCORE.RESTR.norm>
0

>  <SCORE.SYSTEM>
0

>  <SCORE.SYSTEM.CONST>
0

>  <SCORE.SYSTEM.DIHEDRAL>
0

>  <SCORE.SYSTEM.SOLV>
0

>  <SCORE.SYSTEM.norm>
0

>  <SCORE.heavy>
16

>  <SCORE.norm>
-0.366577

>  <RMSD>
1.796

$$$$
ligand
 OpenBabel11021811463D
libRbt.so/2013.1/901 2013/11/27
 16 16  0  0  0  0  0  0  0  0999 V2000
   51.7313   33.3945   54.3712 P   0  0  2  0  0  0  0  0  0  0  0  0
   52.4256   32.3928   55.2180 O   0  0  0  0  0  0  0  0  0  0  0  0
   52.0804   33.1130   52.8220 O   0  5  0  0  0  0  0  0  0  0  0  0
   52.2360   34.8728   54.7925 O   0  0  0  0  0  0  0  0  0  0  0  0
   46.2449   34.1143   55.7701 C   0  0  2  0  0  0  0  0  0  0  0  0
   45.7510   32.8551   55.2598 O   0  0  0  0  0  0  0  0  0  0  0  0
   45.4788   35.3117   55.1367 C   0  0  2  0  0  0  0  0  0  0  0  0
   44.0376   35.1801   55.4189 N   0  0  0  0  0  0  0  0  0  0  0  0
   45.7224   35.3041   53.6115 C   0  0  1  0  0  0  0  0  0  0  0  0
   45.0307   36.4055   52.9991 O   0  0  0  0  0  0  0  0  0  0  0  0
   47.2417   35.4440   53.3822 C   0  0  2  0  0  0  0  0  0  0  0  0
   47.5076   35.4331   51.9693 O   0  0  0  0  0  0  0  0  0  0  0  0
   47.9517   34.2341   54.0639 C   0  0  2  0  0  0  0  0  0  0  0  0
   47.6786   34.2203   55.4968 O   0  0  0  0  0  0  0  0  0  0  0  0
   49.4766   34.3223   53.8889 C   0  0  0  0  0  0  0  0  0  0  0  0
   50.1333   33.2584   54.6004 O   0  0  0  0  0  0  0  0  0  0  0  0
  1  2  1  1  0  0  0
  1  3  1  0  0  0  0
  1  4  2  0  0  0  0
  1 16  1  0  0  0  0
  5  6  1  6  0  0  0
  5  7  1  0  0  0  0
  5 14  1  0  0  0  0
  7  8  1  6  0  0  0
  7  9  1  0  0  0  0
  9 10  1  6  0  0  0
  9 11  1  0  0  0  0
 11 12  1  6  0  0  0
 11 13  1  0  0  0  0
 13 14  1  0  0  0  0
 13 15  1  1  0  0  0
 15 16  1  0  0  0  0
M  CHG  1   3  -1
M  END
>  <CHROM.1>
175.83892115,179.55629875,173.93507272,48.50158933,34.27173259,54.29318484
0.14228030,-0.22108603,2.17150320

>  <Name>
ligand

>  <RI>
0

>  <Rbt.Current_Directory>
/home/itssahil/PROJECTS/Mol_Feturizer/New_Systems/rnas/3B4A

>  <Rbt.Executable>
rbdock ($Id: //depot/dev/client3/rdock/2013.1/src/exe/rbdock.cxx#4 $)

>  <Rbt.Library>
libRbt.so (2013.1, Build901 2013/11/27)

>  <Rbt.Parameter_File>
/export/apps/rDock/src/rDock_2013.1_src/data/scripts/dock_solv.prm

>  <Rbt.Receptor>
prm/pocket_docking_5.prm

>  <SCORE>
-5.68986

>  <SCORE.INTER>
-4.30396

>  <SCORE.INTER.CONST>
1

>  <SCORE.INTER.POLAR>
0

>  <SCORE.INTER.ROT>
3

>  <SCORE.INTER.SOLV>
13.6182

>  <SCORE.INTER.VDW>
-13.0087

>  <SCORE.INTER.norm>
-0.268997

>  <SCORE.INTRA>
-1.3859

>  <SCORE.INTRA.DIHEDRAL>
-1.93564

>  <SCORE.INTRA.DIHEDRAL.0>
2.05999

>  <SCORE.INTRA.POLAR>
0

>  <SCORE.INTRA.POLAR.0>
0

>  <SCORE.INTRA.REPUL>
0

>  <SCORE.INTRA.REPUL.0>
0

>  <SCORE.INTRA.SOLV>
-0.399175

>  <SCORE.INTRA.SOLV.lig_0>
-58.7001

>  <SCORE.INTRA.VDW>
-0.218495

>  <SCORE.INTRA.VDW.0>
-0.401036

>  <SCORE.INTRA.norm>
-0.086619

>  <SCORE.RESTR>
0

>  <SCORE.RESTR.CAVITY>
0

>  <SCORE.RESTR.norm>
0

>  <SCORE.SYSTEM>
0

>  <SCORE.SYSTEM.CONST>
0

>  <SCORE.SYSTEM.DIHEDRAL>
0

>  <SCORE.SYSTEM.SOLV>
0

>  <SCORE.SYSTEM.norm>
0

>  <SCORE.heavy>
16

>  <SCORE.norm>
-0.355616

>  <RMSD>
1.800

$$$$
ligand
 OpenBabel11021811463D
libRbt.so/2013.1/901 2013/11/27
 16 16  0  0  0  0  0  0  0  0999 V2000
   52.4467   33.6031   54.6259 P   0  0  2  0  0  0  0  0  0  0  0  0
   52.6839   32.2843   55.2639 O   0  0  0  0  0  0  0  0  0  0  0  0
   52.8690   33.5242   53.0714 O   0  5  0  0  0  0  0  0  0  0  0  0
   53.3390   34.7181   55.3860 O   0  0  0  0  0  0  0  0  0  0  0  0
   46.7845   33.1773   55.6231 C   0  0  2  0  0  0  0  0  0  0  0  0
   46.0458   32.2768   54.7665 O   0  0  0  0  0  0  0  0  0  0  0  0
   46.3964   34.6580   55.3424 C   0  0  2  0  0  0  0  0  0  0  0  0
   44.9473   34.8358   55.5487 N   0  0  0  0  0  0  0  0  0  0  0  0
   46.7691   34.9992   53.8829 C   0  0  1  0  0  0  0  0  0  0  0  0
   46.4274   36.3659   53.5964 O   0  0  0  0  0  0  0  0  0  0  0  0
   48.2908   34.7944   53.7311 C   0  0  2  0  0  0  0  0  0  0  0  0
   48.6739   35.0964   52.3787 O   0  0  0  0  0  0  0  0  0  0  0  0
   48.6172   33.3037   54.0535 C   0  0  2  0  0  0  0  0  0  0  0  0
   48.2192   32.9753   55.4179 O   0  0  0  0  0  0  0  0  0  0  0  0
   50.1266   33.0349   53.9392 C   0  0  0  0  0  0  0  0  0  0  0  0
   50.8721   33.9668   54.7423 O   0  0  0  0  0  0  0  0  0  0  0  0
  1  2  1  1  0  0  0
  1  3  1  0  0  0  0
  1  4  2  0  0  0  0
  1 16  1  0  0  0  0
  5  6  1  6  0  0  0
  5  7  1  0  0  0  0
  5 14  1  0  0  0  0
  7  8  1  6  0  0  0
  7  9  1  0  0  0  0
  9 10  1  1  0  0  0
  9 11  1  0  0  0  0
 11 12  1  6  0  0  0
 11 13  1  0  0  0  0
 13 14  1  0  0  0  0
 13 15  1  1  0  0  0
 15 16  1  0  0  0  0
M  CHG  1   3  -1
M  END
>  <CHROM.1>
53.31902305,177.96831171,-66.62093040,49.29304971,33.94187075,54.46200860
0.10037061,-0.09272194,2.49907387

>  <Name>
ligand

>  <RI>
0

>  <Rbt.Current_Directory>
/home/itssahil/PROJECTS/Mol_Feturizer/New_Systems/rnas/3B4A

>  <Rbt.Executable>
rbdock ($Id: //depot/dev/client3/rdock/2013.1/src/exe/rbdock.cxx#4 $)

>  <Rbt.Library>
libRbt.so (2013.1, Build901 2013/11/27)

>  <Rbt.Parameter_File>
/export/apps/rDock/src/rDock_2013.1_src/data/scripts/dock_solv.prm

>  <Rbt.Receptor>
prm/pocket_docking_4.prm

>  <SCORE>
-5.50686

>  <SCORE.INTER>
-4.0391

>  <SCORE.INTER.CONST>
1

>  <SCORE.INTER.POLAR>
0

>  <SCORE.INTER.ROT>
3

>  <SCORE.INTER.SOLV>
13.2541

>  <SCORE.INTER.VDW>
-12.7108

>  <SCORE.INTER.norm>
-0.252443

>  <SCORE.INTRA>
-1.46777

>  <SCORE.INTRA.DIHEDRAL>
-1.80821

>  <SCORE.INTRA.DIHEDRAL.0>
2.05999

>  <SCORE.INTRA.POLAR>
0

>  <SCORE.INTRA.POLAR.0>
0

>  <SCORE.INTRA.REPUL>
0

>  <SCORE.INTRA.REPUL.0>
0

>  <SCORE.INTRA.SOLV>
-0.781888

>  <SCORE.INTRA.SOLV.lig_0>
-58.7001

>  <SCORE.INTRA.VDW>
-0.17272

>  <SCORE.INTRA.VDW.0>
-0.401036

>  <SCORE.INTRA.norm>
-0.0917356

>  <SCORE.RESTR>
0

>  <SCORE.RESTR.CAVITY>
0

>  <SCORE.RESTR.norm>
0

>  <SCORE.SYSTEM>
0

>  <SCORE.SYSTEM.CONST>
0

>  <SCORE.SYSTEM.DIHEDRAL>
0

>  <SCORE.SYSTEM.SOLV>
0

>  <SCORE.SYSTEM.norm>
0

>  <SCORE.heavy>
16

>  <SCORE.norm>
-0.344179

>  <RMSD>
1.805

$$$$
ligand
 OpenBabel11021811463D
libRbt.so/2013.1/901 2013/11/27
 16 16  0  0  0  0  0  0  0  0999 V2000
   51.3898   33.9303   54.1918 P   0  0  2  0  0  0  0  0  0  0  0  0
   51.6413   32.8494   55.1772 O   0  0  0  0  0  0  0  0  0  0  0  0
   51.6236   33.3560   52.7030 O   0  5  0  0  0  0  0  0  0  0  0  0
   52.4135   35.1489   54.4821 O   0  0  0  0  0  0  0  0  0  0  0  0
   45.8222   34.5842   55.6262 C   0  0  2  0  0  0  0  0  0  0  0  0
   44.9491   33.4701   55.3317 O   0  0  0  0  0  0  0  0  0  0  0  0
   45.5140   35.7946   54.6977 C   0  0  2  0  0  0  0  0  0  0  0  0
   44.1050   36.1967   54.8628 N   0  0  0  0  0  0  0  0  0  0  0  0
   45.7771   35.3758   53.2346 C   0  0  1  0  0  0  0  0  0  0  0  0
   45.5065   36.4785   52.3528 O   0  0  0  0  0  0  0  0  0  0  0  0
   47.2612   34.9680   53.1270 C   0  0  2  0  0  0  0  0  0  0  0  0
   47.5415   34.5636   51.7761 O   0  0  0  0  0  0  0  0  0  0  0  0
   47.5112   33.7746   54.0996 C   0  0  2  0  0  0  0  0  0  0  0  0
   47.2153   34.1629   55.4742 O   0  0  0  0  0  0  0  0  0  0  0  0
   48.9820   33.3292   54.0557 C   0  0  0  0  0  0  0  0  0  0  0  0
   49.8574   34.4336   54.3444 O   0  0  0  0  0  0  0  0  0  0  0  0
  1  2  1  1  0  0  0
  1  3  1  0  0  0  0
  1  4  2  0  0  0  0
  1 16  1  0  0  0  0
  5  6  1  6  0  0  0
  5  7  1  0  0  0  0
  5 14  1  0  0  0  0
  7  8  1  6  0  0  0
  7  9  1  0  0  0  0
  9 10  1  6  0  0  0
  9 11  1  0  0  0  0
 11 12  1  6  0  0  0
 11 13  1  0  0  0  0
 13 14  1  0  0  0  0
 13 15  1  1  0  0  0
 15 16  1  0  0  0  0
M  CHG  1   3  -1
M  END
>  <CHROM.1>
55.78191055,-176.44056178,-61.65064198,48.26395866,34.46473416,54.09239867
0.08567391,-0.20832263,2.01480243

>  <Name>
ligand

>  <RI>
0

>  <Rbt.Current_Directory>
/home/itssahil/PROJECTS/Mol_Feturizer/New_Systems/rnas/3B4A

>  <Rbt.Executable>
rbdock ($Id: //depot/dev/client3/rdock/2013.1/src/exe/rbdock.cxx#4 $)

>  <Rbt.Library>
libRbt.so (2013.1, Build901 2013/11/27)

>  <Rbt.Parameter_File>
/export/apps/rDock/src/rDock_2013.1_src/data/scripts/dock_solv.prm

>  <Rbt.Receptor>
prm/pocket_docking_4.prm

>  <SCORE>
-5.76127

>  <SCORE.INTER>
-4.22553

>  <SCORE.INTER.CONST>
1

>  <SCORE.INTER.POLAR>
0

>  <SCORE.INTER.ROT>
3

>  <SCORE.INTER.SOLV>
12.3428

>  <SCORE.INTER.VDW>
-12.5313

>  <SCORE.INTER.norm>
-0.264096

>  <SCORE.INTRA>
-1.53574

>  <SCORE.INTRA.DIHEDRAL>
-1.92794

>  <SCORE.INTRA.DIHEDRAL.0>
2.05999

>  <SCORE.INTRA.POLAR>
0

>  <SCORE.INTRA.POLAR.0>
0

>  <SCORE.INTRA.REPUL>
0

>  <SCORE.INTRA.REPUL.0>
0

>  <SCORE.INTRA.SOLV>
-0.766585

>  <SCORE.INTRA.SOLV.lig_0>
-58.7001

>  <SCORE.INTRA.VDW>
-0.188473

>  <SCORE.INTRA.VDW.0>
-0.401036

>  <SCORE.INTRA.norm>
-0.0959836

>  <SCORE.RESTR>
0

>  <SCORE.RESTR.CAVITY>
0

>  <SCORE.RESTR.norm>
0

>  <SCORE.SYSTEM>
0

>  <SCORE.SYSTEM.CONST>
0

>  <SCORE.SYSTEM.DIHEDRAL>
0

>  <SCORE.SYSTEM.SOLV>
0

>  <SCORE.SYSTEM.norm>
0

>  <SCORE.heavy>
16

>  <SCORE.norm>
-0.360079

>  <RMSD>
1.856

$$$$
ligand
 OpenBabel11021811463D
libRbt.so/2013.1/901 2013/11/27
 16 16  0  0  0  0  0  0  0  0999 V2000
   51.6618   33.2172   53.3114 P   0  0  2  0  0  0  0  0  0  0  0  0
   52.0141   32.4003   54.4992 O   0  0  0  0  0  0  0  0  0  0  0  0
   52.2661   32.5190   51.9891 O   0  5  0  0  0  0  0  0  0  0  0  0
   52.2893   34.6974   53.4918 O   0  0  0  0  0  0  0  0  0  0  0  0
   46.0356   34.1320   55.7876 C   0  0  2  0  0  0  0  0  0  0  0  0
   45.4039   32.9662   55.2114 O   0  0  0  0  0  0  0  0  0  0  0  0
   45.6226   35.4242   55.0250 C   0  0  2  0  0  0  0  0  0  0  0  0
   44.1559   35.5714   55.0621 N   0  0  0  0  0  0  0  0  0  0  0  0
   46.1066   35.3121   53.5626 C   0  0  1  0  0  0  0  0  0  0  0  0
   45.7442   36.4971   52.8340 O   0  0  0  0  0  0  0  0  0  0  0  0
   47.6418   35.1607   53.5909 C   0  0  2  0  0  0  0  0  0  0  0  0
   48.1284   35.0456   52.2429 O   0  0  0  0  0  0  0  0  0  0  0  0
   47.9902   33.8684   54.3917 C   0  0  2  0  0  0  0  0  0  0  0  0
   47.4887   33.9614   55.7583 O   0  0  0  0  0  0  0  0  0  0  0  0
   49.5122   33.6674   54.4748 C   0  0  0  0  0  0  0  0  0  0  0  0
   50.0483   33.3003   53.1914 O   0  0  0  0  0  0  0  0  0  0  0  0
  1  2  1  1  0  0  0
  1  3  1  0  0  0  0
  1  4  2  0  0  0  0
  1 16  1  0  0  0  0
  5  6  1  6  0  0  0
  5  7  1  0  0  0  0
  5 14  1  0  0  0  0
  7  8  1  6  0  0  0
  7  9  1  0  0  0  0
  9 10  1  6  0  0  0
  9 11  1  0  0  0  0
 11 12  1  6  0  0  0
 11 13  1  0  0  0  0
 13 14  1  0  0  0  0
 13 15  1  1  0  0  0
 15 16  1  0  0  0  0
M  CHG  1   3  -1
M  END
>  <CHROM.1>
-70.61928336,175.57280594,49.01332616,48.57497936,34.13500907,53.94601871
0.02131155,-0.34590474,2.26093812

>  <Name>
ligand

>  <RI>
0

>  <Rbt.Current_Directory>
/home/itssahil/PROJECTS/Mol_Feturizer/New_Systems/rnas/3B4A

>  <Rbt.Executable>
rbdock ($Id: //depot/dev/client3/rdock/2013.1/src/exe/rbdock.cxx#4 $)

>  <Rbt.Library>
libRbt.so (2013.1, Build901 2013/11/27)

>  <Rbt.Parameter_File>
/export/apps/rDock/src/rDock_2013.1_src/data/scripts/dock_solv.prm

>  <Rbt.Receptor>
prm/pocket_docking_3.prm

>  <SCORE>
-5.32035

>  <SCORE.INTER>
-4.27525

>  <SCORE.INTER.CONST>
1

>  <SCORE.INTER.POLAR>
0

>  <SCORE.INTER.ROT>
3

>  <SCORE.INTER.SOLV>
10.3543

>  <SCORE.INTER.VDW>
-11.9016

>  <SCORE.INTER.norm>
-0.267203

>  <SCORE.INTRA>
-1.0451

>  <SCORE.INTRA.DIHEDRAL>
-1.37411

>  <SCORE.INTRA.DIHEDRAL.0>
2.05999

>  <SCORE.INTRA.POLAR>
0

>  <SCORE.INTRA.POLAR.0>
0

>  <SCORE.INTRA.REPUL>
0

>  <SCORE.INTRA.REPUL.0>
0

>  <SCORE.INTRA.SOLV>
-0.72782

>  <SCORE.INTRA.SOLV.lig_0>
-58.7001

>  <SCORE.INTRA.VDW>
0.00587175

>  <SCORE.INTRA.VDW.0>
-0.401036

>  <SCORE.INTRA.norm>
-0.0653185

>  <SCORE.RESTR>
0

>  <SCORE.RESTR.CAVITY>
0

>  <SCORE.RESTR.norm>
0

>  <SCORE.SYSTEM>
0

>  <SCORE.SYSTEM.CONST>
0

>  <SCORE.SYSTEM.DIHEDRAL>
0

>  <SCORE.SYSTEM.SOLV>
0

>  <SCORE.SYSTEM.norm>
0

>  <SCORE.heavy>
16

>  <SCORE.norm>
-0.332522

>  <RMSD>
1.867

$$$$
ligand
 OpenBabel11021811463D
libRbt.so/2013.1/901 2013/11/27
 16 16  0  0  0  0  0  0  0  0999 V2000
   52.6973   33.1156   54.6065 P   0  0  2  0  0  0  0  0  0  0  0  0
   53.4115   31.9975   55.2715 O   0  0  0  0  0  0  0  0  0  0  0  0
   53.1697   33.2061   53.0671 O   0  5  0  0  0  0  0  0  0  0  0  0
   53.0534   34.4931   55.3767 O   0  0  0  0  0  0  0  0  0  0  0  0
   47.1143   33.2534   55.7215 C   0  0  2  0  0  0  0  0  0  0  0  0
   46.7298   32.0731   54.9805 O   0  0  0  0  0  0  0  0  0  0  0  0
   46.3039   34.4959   55.2508 C   0  0  2  0  0  0  0  0  0  0  0  0
   44.8621   34.2376   55.4202 N   0  0  0  0  0  0  0  0  0  0  0  0
   46.6231   34.7604   53.7630 C   0  0  1  0  0  0  0  0  0  0  0  0
   45.8921   35.9090   53.3014 O   0  0  0  0  0  0  0  0  0  0  0  0
   48.1395   35.0223   53.6518 C   0  0  2  0  0  0  0  0  0  0  0  0
   48.4755   35.2657   52.2752 O   0  0  0  0  0  0  0  0  0  0  0  0
   48.8923   33.7562   54.1645 C   0  0  2  0  0  0  0  0  0  0  0  0
   48.5498   33.4846   55.5562 O   0  0  0  0  0  0  0  0  0  0  0  0
   50.4150   33.9583   54.0985 C   0  0  0  0  0  0  0  0  0  0  0  0
   51.1035   32.8314   54.6688 O   0  0  0  0  0  0  0  0  0  0  0  0
  1  2  1  1  0  0  0
  1  3  1  0  0  0  0
  1  4  2  0  0  0  0
  1 16  1  0  0  0  0
  5  6  1  6  0  0  0
  5  7  1  0  0  0  0
  5 14  1  0  0  0  0
  7  8  1  6  0  0  0
  7  9  1  0  0  0  0
  9 10  1  1  0  0  0
  9 11  1  0  0  0  0
 11 12  1  6  0  0  0
 11 13  1  0  0  0  0
 13 14  1  0  0  0  0
 13 15  1  1  0  0  0
 15 16  1  0  0  0  0
M  CHG  1   3  -1
M  END
>  <CHROM.1>
175.49573065,-178.57425865,176.40653895,49.42591048,33.79487323,54.44918733
0.14965080,-0.13076316,2.33713854

>  <Name>
ligand

>  <RI>
0

>  <Rbt.Current_Directory>
/home/itssahil/PROJECTS/Mol_Feturizer/New_Systems/rnas/3B4A

>  <Rbt.Executable>
rbdock ($Id: //depot/dev/client3/rdock/2013.1/src/exe/rbdock.cxx#4 $)

>  <Rbt.Library>
libRbt.so (2013.1, Build901 2013/11/27)

>  <Rbt.Parameter_File>
/export/apps/rDock/src/rDock_2013.1_src/data/scripts/dock_solv.prm

>  <Rbt.Receptor>
prm/pocket_docking_6.prm

>  <SCORE>
-5.86818

>  <SCORE.INTER>
-4.46611

>  <SCORE.INTER.CONST>
1

>  <SCORE.INTER.POLAR>
0

>  <SCORE.INTER.ROT>
3

>  <SCORE.INTER.SOLV>
12.9455

>  <SCORE.INTER.VDW>
-12.8926

>  <SCORE.INTER.norm>
-0.279132

>  <SCORE.INTRA>
-1.40207

>  <SCORE.INTRA.DIHEDRAL>
-1.95476

>  <SCORE.INTRA.DIHEDRAL.0>
2.05999

>  <SCORE.INTRA.POLAR>
0

>  <SCORE.INTRA.POLAR.0>
0

>  <SCORE.INTRA.REPUL>
0

>  <SCORE.INTRA.REPUL.0>
0

>  <SCORE.INTRA.SOLV>
-0.388936

>  <SCORE.INTRA.SOLV.lig_0>
-58.7001

>  <SCORE.INTRA.VDW>
-0.230223

>  <SCORE.INTRA.VDW.0>
-0.401036

>  <SCORE.INTRA.norm>
-0.0876294

>  <SCORE.RESTR>
0

>  <SCORE.RESTR.CAVITY>
0

>  <SCORE.RESTR.norm>
0

>  <SCORE.SYSTEM>
0

>  <SCORE.SYSTEM.CONST>
0

>  <SCORE.SYSTEM.DIHEDRAL>
0

>  <SCORE.SYSTEM.SOLV>
0

>  <SCORE.SYSTEM.norm>
0

>  <SCORE.heavy>
16

>  <SCORE.norm>
-0.366761

>  <RMSD>
1.902

$$$$
ligand
 OpenBabel11021811463D
libRbt.so/2013.1/901 2013/11/27
 16 16  0  0  0  0  0  0  0  0999 V2000
   50.2540   33.4816   50.7811 P   0  0  2  0  0  0  0  0  0  0  0  0
   51.2718   32.9000   51.6913 O   0  0  0  0  0  0  0  0  0  0  0  0
   50.2394   32.6487   49.4001 O   0  5  0  0  0  0  0  0  0  0  0  0
   50.6356   35.0269   50.4916 O   0  0  0  0  0  0  0  0  0  0  0  0
   46.4899   34.3753   55.6392 C   0  0  2  0  0  0  0  0  0  0  0  0
   46.0574   33.0001   55.7485 O   0  0  0  0  0  0  0  0  0  0  0  0
   45.3849   35.2573   54.9887 C   0  0  2  0  0  0  0  0  0  0  0  0
   44.1516   35.1756   55.7928 N   0  0  0  0  0  0  0  0  0  0  0  0
   45.1187   34.7418   53.5574 C   0  0  1  0  0  0  0  0  0  0  0  0
   44.1048   35.5434   52.9282 O   0  0  0  0  0  0  0  0  0  0  0  0
   46.4407   34.8521   52.7697 C   0  0  2  0  0  0  0  0  0  0  0  0
   46.2323   34.3723   51.4304 O   0  0  0  0  0  0  0  0  0  0  0  0
   47.5109   33.9726   53.4865 C   0  0  2  0  0  0  0  0  0  0  0  0
   47.7230   34.4357   54.8534 O   0  0  0  0  0  0  0  0  0  0  0  0
   48.8637   34.0531   52.7605 C   0  0  0  0  0  0  0  0  0  0  0  0
   48.7999   33.3837   51.4888 O   0  0  0  0  0  0  0  0  0  0  0  0
  1  2  1  1  0  0  0
  1  3  1  0  0  0  0
  1  4  2  0  0  0  0
  1 16  1  0  0  0  0
  5  6  1  6  0  0  0
  5  7  1  0  0  0  0
  5 14  1  0  0  0  0
  7  8  1  1  0  0  0
  7  9  1  0  0  0  0
  9 10  1  6  0  0  0
  9 11  1  0  0  0  0
 11 12  1  6  0  0  0
 11 13  1  0  0  0  0
 13 14  1  0  0  0  0
 13 15  1  6  0  0  0
 15 16  1  0  0  0  0
M  CHG  1   3  -1
M  END
>  <CHROM.1>
-69.85163947,-179.18401444,56.62727000,47.71110012,34.12604721,52.77149338
-0.61106675,-0.35223474,1.72692419

>  <Name>
ligand

>  <RI>
0

>  <Rbt.Current_Directory>
/home/itssahil/PROJECTS/Mol_Feturizer/New_Systems/rnas/3B4A

>  <Rbt.Executable>
rbdock ($Id: //depot/dev/client3/rdock/2013.1/src/exe/rbdock.cxx#4 $)

>  <Rbt.Library>
libRbt.so (2013.1, Build901 2013/11/27)

>  <Rbt.Parameter_File>
/export/apps/rDock/src/rDock_2013.1_src/data/scripts/dock_solv.prm

>  <Rbt.Receptor>
prm/pocket_docking_4.prm

>  <SCORE>
-3.93979

>  <SCORE.INTER>
-2.58937

>  <SCORE.INTER.CONST>
1

>  <SCORE.INTER.POLAR>
0

>  <SCORE.INTER.ROT>
3

>  <SCORE.INTER.SOLV>
11.7513

>  <SCORE.INTER.VDW>
-11.2434

>  <SCORE.INTER.norm>
-0.161836

>  <SCORE.INTRA>
-1.35042

>  <SCORE.INTRA.DIHEDRAL>
-1.69526

>  <SCORE.INTRA.DIHEDRAL.0>
2.05999

>  <SCORE.INTRA.POLAR>
0

>  <SCORE.INTRA.POLAR.0>
0

>  <SCORE.INTRA.REPUL>
0

>  <SCORE.INTRA.REPUL.0>
0

>  <SCORE.INTRA.SOLV>
-0.773208

>  <SCORE.INTRA.SOLV.lig_0>
-58.7001

>  <SCORE.INTRA.VDW>
-0.116182

>  <SCORE.INTRA.VDW.0>
-0.401036

>  <SCORE.INTRA.norm>
-0.084401

>  <SCORE.RESTR>
0

>  <SCORE.RESTR.CAVITY>
0

>  <SCORE.RESTR.norm>
0

>  <SCORE.SYSTEM>
0

>  <SCORE.SYSTEM.CONST>
0

>  <SCORE.SYSTEM.DIHEDRAL>
0

>  <SCORE.SYSTEM.SOLV>
0

>  <SCORE.SYSTEM.norm>
0

>  <SCORE.heavy>
16

>  <SCORE.norm>
-0.246237

>  <RMSD>
2.413

$$$$
ligand
 OpenBabel11021811463D
libRbt.so/2013.1/901 2013/11/27
 16 16  0  0  0  0  0  0  0  0999 V2000
   49.7121   35.0591   51.4043 P   0  0  2  0  0  0  0  0  0  0  0  0
   49.1569   35.8728   50.2942 O   0  0  0  0  0  0  0  0  0  0  0  0
   51.0396   35.7756   51.9750 O   0  5  0  0  0  0  0  0  0  0  0  0
   50.0765   33.5872   50.8402 O   0  0  0  0  0  0  0  0  0  0  0  0
   45.4654   33.7711   55.1953 C   0  0  2  0  0  0  0  0  0  0  0  0
   44.2851   33.1510   54.6363 O   0  0  0  0  0  0  0  0  0  0  0  0
   45.1833   35.2488   55.5939 C   0  0  2  0  0  0  0  0  0  0  0  0
   44.0766   35.2946   56.5672 N   0  0  0  0  0  0  0  0  0  0  0  0
   44.8037   36.0404   54.3231 C   0  0  1  0  0  0  0  0  0  0  0  0
   44.5434   37.4134   54.6603 O   0  0  0  0  0  0  0  0  0  0  0  0
   45.9964   35.9551   53.3481 C   0  0  2  0  0  0  0  0  0  0  0  0
   45.6750   36.6766   52.1468 O   0  0  0  0  0  0  0  0  0  0  0  0
   46.2458   34.4525   53.0124 C   0  0  2  0  0  0  0  0  0  0  0  0
   46.5572   33.7015   54.2235 O   0  0  0  0  0  0  0  0  0  0  0  0
   47.4388   34.2942   52.0556 C   0  0  0  0  0  0  0  0  0  0  0  0
   48.6045   34.9525   52.5819 O   0  0  0  0  0  0  0  0  0  0  0  0
  1  2  1  6  0  0  0
  1  3  1  0  0  0  0
  1  4  2  0  0  0  0
  1 16  1  0  0  0  0
  5  6  1  6  0  0  0
  5  7  1  0  0  0  0
  5 14  1  0  0  0  0
  7  8  1  1  0  0  0
  7  9  1  0  0  0  0
  9 10  1  1  0  0  0
  9 11  1  0  0  0  0
 11 12  1  6  0  0  0
 11 13  1  0  0  0  0
 13 14  1  0  0  0  0
 13 15  1  6  0  0  0
 15 16  1  0  0  0  0
M  CHG  1   3  -1
M  END
>  <CHROM.1>
53.75125989,-166.85408648,61.42808327,47.06788733,35.08027243,53.11619631
0.17132009,0.61864168,-0.33079359

>  <Name>
ligand

>  <RI>
0

>  <Rbt.Current_Directory>
/home/itssahil/PROJECTS/Mol_Feturizer/New_Systems/rnas/3B4A

>  <Rbt.Executable>
rbdock ($Id: //depot/dev/client3/rdock/2013.1/src/exe/rbdock.cxx#4 $)

>  <Rbt.Library>
libRbt.so (2013.1, Build901 2013/11/27)

>  <Rbt.Parameter_File>
/export/apps/rDock/src/rDock_2013.1_src/data/scripts/dock_solv.prm

>  <Rbt.Receptor>
prm/pocket_docking_5.prm

>  <SCORE>
-2.98346

>  <SCORE.INTER>
-1.79501

>  <SCORE.INTER.CONST>
1

>  <SCORE.INTER.POLAR>
0

>  <SCORE.INTER.ROT>
3

>  <SCORE.INTER.SOLV>
12.0663

>  <SCORE.INTER.VDW>
-10.8188

>  <SCORE.INTER.norm>
-0.112188

>  <SCORE.INTRA>
-1.18845

>  <SCORE.INTRA.DIHEDRAL>
-1.09637

>  <SCORE.INTRA.DIHEDRAL.0>
2.05999

>  <SCORE.INTRA.POLAR>
0

>  <SCORE.INTRA.POLAR.0>
0

>  <SCORE.INTRA.REPUL>
0

>  <SCORE.INTRA.REPUL.0>
0

>  <SCORE.INTRA.SOLV>
-0.795026

>  <SCORE.INTRA.SOLV.lig_0>
-58.7001

>  <SCORE.INTRA.VDW>
-0.242754

>  <SCORE.INTRA.VDW.0>
-0.401036

>  <SCORE.INTRA.norm>
-0.0742781

>  <SCORE.RESTR>
0

>  <SCORE.RESTR.CAVITY>
0

>  <SCORE.RESTR.norm>
0

>  <SCORE.SYSTEM>
0

>  <SCORE.SYSTEM.CONST>
0

>  <SCORE.SYSTEM.DIHEDRAL>
0

>  <SCORE.SYSTEM.SOLV>
0

>  <SCORE.SYSTEM.norm>
0

>  <SCORE.heavy>
16

>  <SCORE.norm>
-0.186467

>  <RMSD>
2.577

$$$$
ligand
 OpenBabel11021811463D
libRbt.so/2013.1/901 2013/11/27
 16 16  0  0  0  0  0  0  0  0999 V2000
   49.4632   32.1599   50.4335 P   0  0  2  0  0  0  0  0  0  0  0  0
   49.9102   33.5375   50.1094 O   0  0  0  0  0  0  0  0  0  0  0  0
   50.6749   31.3602   51.1358 O   0  5  0  0  0  0  0  0  0  0  0  0
   49.0298   31.4166   49.0635 O   0  0  0  0  0  0  0  0  0  0  0  0
   46.8423   34.1128   55.7219 C   0  0  2  0  0  0  0  0  0  0  0  0
   46.3267   32.8360   56.1626 O   0  0  0  0  0  0  0  0  0  0  0  0
   45.7103   34.9922   55.1160 C   0  0  2  0  0  0  0  0  0  0  0  0
   44.6499   35.1926   56.1208 N   0  0  0  0  0  0  0  0  0  0  0  0
   45.1353   34.2734   53.8757 C   0  0  1  0  0  0  0  0  0  0  0  0
   44.0897   35.0673   53.2899 O   0  0  0  0  0  0  0  0  0  0  0  0
   46.2879   34.0936   52.8661 C   0  0  2  0  0  0  0  0  0  0  0  0
   45.7899   33.4190   51.6982 O   0  0  0  0  0  0  0  0  0  0  0  0
   47.3988   33.2321   53.5417 C   0  0  2  0  0  0  0  0  0  0  0  0
   47.9042   33.8946   54.7390 O   0  0  0  0  0  0  0  0  0  0  0  0
   48.5908   33.0300   52.5921 C   0  0  0  0  0  0  0  0  0  0  0  0
   48.2056   32.2422   51.4518 O   0  0  0  0  0  0  0  0  0  0  0  0
  1  2  1  6  0  0  0
  1  3  1  0  0  0  0
  1  4  2  0  0  0  0
  1 16  1  0  0  0  0
  5  6  1  6  0  0  0
  5  7  1  0  0  0  0
  5 14  1  0  0  0  0
  7  8  1  1  0  0  0
  7  9  1  0  0  0  0
  9 10  1  6  0  0  0
  9 11  1  0  0  0  0
 11 12  1  6  0  0  0
 11 13  1  0  0  0  0
 13 14  1  0  0  0  0
 13 15  1  6  0  0  0
 15 16  1  0  0  0  0
M  CHG  1   3  -1
M  END
>  <CHROM.1>
-65.80156371,175.61945996,-54.64822386,47.44976946,33.30045516,52.74849899
-0.82785395,-0.44033257,1.48028976

>  <Name>
ligand

>  <RI>
0

>  <Rbt.Current_Directory>
/home/itssahil/PROJECTS/Mol_Feturizer/New_Systems/rnas/3B4A

>  <Rbt.Executable>
rbdock ($Id: //depot/dev/client3/rdock/2013.1/src/exe/rbdock.cxx#4 $)

>  <Rbt.Library>
libRbt.so (2013.1, Build901 2013/11/27)

>  <Rbt.Parameter_File>
/export/apps/rDock/src/rDock_2013.1_src/data/scripts/dock_solv.prm

>  <Rbt.Receptor>
prm/pocket_docking_5.prm

>  <SCORE>
-5.16278

>  <SCORE.INTER>
-3.88739

>  <SCORE.INTER.CONST>
1

>  <SCORE.INTER.POLAR>
0

>  <SCORE.INTER.ROT>
3

>  <SCORE.INTER.SOLV>
18.5509

>  <SCORE.INTER.VDW>
-14.3752

>  <SCORE.INTER.norm>
-0.242962

>  <SCORE.INTRA>
-1.27538

>  <SCORE.INTRA.DIHEDRAL>
-1.79723

>  <SCORE.INTRA.DIHEDRAL.0>
2.05999

>  <SCORE.INTRA.POLAR>
0

>  <SCORE.INTRA.POLAR.0>
0

>  <SCORE.INTRA.REPUL>
0

>  <SCORE.INTRA.REPUL.0>
0

>  <SCORE.INTRA.SOLV>
-0.701779

>  <SCORE.INTRA.SOLV.lig_0>
-58.7001

>  <SCORE.INTRA.VDW>
-0.0258782

>  <SCORE.INTRA.VDW.0>
-0.401036

>  <SCORE.INTRA.norm>
-0.0797115

>  <SCORE.RESTR>
0

>  <SCORE.RESTR.CAVITY>
0

>  <SCORE.RESTR.norm>
0

>  <SCORE.SYSTEM>
0

>  <SCORE.SYSTEM.CONST>
0

>  <SCORE.SYSTEM.DIHEDRAL>
0

>  <SCORE.SYSTEM.SOLV>
0

>  <SCORE.SYSTEM.norm>
0

>  <SCORE.heavy>
16

>  <SCORE.norm>
-0.322674

>  <RMSD>
2.941

$$$$
ligand
 OpenBabel11021811463D
libRbt.so/2013.1/901 2013/11/27
 16 16  0  0  0  0  0  0  0  0999 V2000
   50.2267   33.4974   53.5362 P   0  0  2  0  0  0  0  0  0  0  0  0
   49.6988   34.8789   53.6589 O   0  0  0  0  0  0  0  0  0  0  0  0
   50.9647   33.0873   54.9103 O   0  5  0  0  0  0  0  0  0  0  0  0
   51.2778   33.4481   52.3073 O   0  0  0  0  0  0  0  0  0  0  0  0
   45.9896   35.2881   53.0395 C   0  0  2  0  0  0  0  0  0  0  0  0
   46.8806   36.4046   53.2631 O   0  0  0  0  0  0  0  0  0  0  0  0
   44.8303   35.2833   54.0778 C   0  0  2  0  0  0  0  0  0  0  0  0
   44.0850   36.5526   53.9909 N   0  0  0  0  0  0  0  0  0  0  0  0
   45.4319   35.1183   55.4908 C   0  0  1  0  0  0  0  0  0  0  0  0
   44.3816   35.1038   56.4722 O   0  0  0  0  0  0  0  0  0  0  0  0
   46.1958   33.7781   55.5177 C   0  0  2  0  0  0  0  0  0  0  0  0
   46.7775   33.5939   56.8196 O   0  0  0  0  0  0  0  0  0  0  0  0
   47.3206   33.8356   54.4387 C   0  0  2  0  0  0  0  0  0  0  0  0
   46.7485   34.0390   53.1123 O   0  0  0  0  0  0  0  0  0  0  0  0
   48.1117   32.5180   54.3993 C   0  0  0  0  0  0  0  0  0  0  0  0
   48.9913   32.4858   53.2614 O   0  0  0  0  0  0  0  0  0  0  0  0
  1  2  1  1  0  0  0
  1  3  1  0  0  0  0
  1  4  2  0  0  0  0
  1 16  1  0  0  0  0
  5  6  1  1  0  0  0
  5  7  1  0  0  0  0
  5 14  1  0  0  0  0
  7  8  1  1  0  0  0
  7  9  1  0  0  0  0
  9 10  1  1  0  0  0
  9 11  1  0  0  0  0
 11 12  1  1  0  0  0
 11 13  1  0  0  0  0
 13 14  1  0  0  0  0
 13 15  1  6  0  0  0
 15 16  1  0  0  0  0
M  CHG  1   3  -1
M  END
>  <CHROM.1>
170.22739706,72.97065363,-63.02950361,47.64309458,34.23429625,54.21171615
0.02555605,0.42864720,-1.00833448

>  <Name>
ligand

>  <RI>
0

>  <Rbt.Current_Directory>
/home/itssahil/PROJECTS/Mol_Feturizer/New_Systems/rnas/3B4A

>  <Rbt.Executable>
rbdock ($Id: //depot/dev/client3/rdock/2013.1/src/exe/rbdock.cxx#4 $)

>  <Rbt.Library>
libRbt.so (2013.1, Build901 2013/11/27)

>  <Rbt.Parameter_File>
/export/apps/rDock/src/rDock_2013.1_src/data/scripts/dock_solv.prm

>  <Rbt.Receptor>
prm/pocket_docking_3.prm

>  <SCORE>
-5.70175

>  <SCORE.INTER>
-5.59058

>  <SCORE.INTER.CONST>
1

>  <SCORE.INTER.POLAR>
0

>  <SCORE.INTER.ROT>
3

>  <SCORE.INTER.SOLV>
14.9271

>  <SCORE.INTER.VDW>
-14.3027

>  <SCORE.INTER.norm>
-0.349411

>  <SCORE.INTRA>
-0.123003

>  <SCORE.INTRA.DIHEDRAL>
-0.908678

>  <SCORE.INTRA.DIHEDRAL.0>
2.05999

>  <SCORE.INTRA.POLAR>
0

>  <SCORE.INTRA.POLAR.0>
0

>  <SCORE.INTRA.REPUL>
0

>  <SCORE.INTRA.REPUL.0>
0

>  <SCORE.INTRA.SOLV>
0.286099

>  <SCORE.INTRA.SOLV.lig_0>
-58.7001

>  <SCORE.INTRA.VDW>
0.188287

>  <SCORE.INTRA.VDW.0>
-0.401036

>  <SCORE.INTRA.norm>
-0.00768768

>  <SCORE.RESTR>
0.0118297

>  <SCORE.RESTR.CAVITY>
0.0118297

>  <SCORE.RESTR.norm>
0.000739358

>  <SCORE.SYSTEM>
0

>  <SCORE.SYSTEM.CONST>
0

>  <SCORE.SYSTEM.DIHEDRAL>
0

>  <SCORE.SYSTEM.SOLV>
0

>  <SCORE.SYSTEM.norm>
0

>  <SCORE.heavy>
16

>  <SCORE.norm>
-0.35636

>  <RMSD>
3.040

$$$$
ligand
 OpenBabel11021811463D
libRbt.so/2013.1/901 2013/11/27
 16 16  0  0  0  0  0  0  0  0999 V2000
   50.1465   33.4847   53.4850 P   0  0  2  0  0  0  0  0  0  0  0  0
   49.6667   34.8635   53.7517 O   0  0  0  0  0  0  0  0  0  0  0  0
   50.9839   32.9586   54.7590 O   0  5  0  0  0  0  0  0  0  0  0  0
   51.0914   33.5063   52.1720 O   0  0  0  0  0  0  0  0  0  0  0  0
   45.9422   35.3807   53.0569 C   0  0  2  0  0  0  0  0  0  0  0  0
   46.8404   36.4865   53.3031 O   0  0  0  0  0  0  0  0  0  0  0  0
   44.7716   35.3742   54.0824 C   0  0  2  0  0  0  0  0  0  0  0  0
   44.0384   36.6510   54.0022 N   0  0  0  0  0  0  0  0  0  0  0  0
   45.3562   35.1875   55.4997 C   0  0  1  0  0  0  0  0  0  0  0  0
   44.2951   35.1710   56.4694 O   0  0  0  0  0  0  0  0  0  0  0  0
   46.1080   33.8404   55.5193 C   0  0  2  0  0  0  0  0  0  0  0  0
   46.6737   33.6359   56.8252 O   0  0  0  0  0  0  0  0  0  0  0  0
   47.2449   33.9003   54.4533 C   0  0  2  0  0  0  0  0  0  0  0  0
   46.6892   34.1241   53.1233 O   0  0  0  0  0  0  0  0  0  0  0  0
   48.0248   32.5762   54.4071 C   0  0  0  0  0  0  0  0  0  0  0  0
   48.8667   32.5214   53.2420 O   0  0  0  0  0  0  0  0  0  0  0  0
  1  2  1  1  0  0  0
  1  3  1  0  0  0  0
  1  4  2  0  0  0  0
  1 16  1  0  0  0  0
  5  6  1  1  0  0  0
  5  7  1  0  0  0  0
  5 14  1  0  0  0  0
  7  8  1  1  0  0  0
  7  9  1  0  0  0  0
  9 10  1  1  0  0  0
  9 11  1  0  0  0  0
 11 12  1  1  0  0  0
 11 13  1  0  0  0  0
 13 14  1  0  0  0  0
 13 15  1  6  0  0  0
 15 16  1  0  0  0  0
M  CHG  1   3  -1
M  END
>  <CHROM.1>
167.33745132,75.06672507,-58.15432695,47.56904768,34.27538322,54.19880543
0.02034850,0.44768639,-0.99075929

>  <Name>
ligand

>  <RI>
0

>  <Rbt.Current_Directory>
/home/itssahil/PROJECTS/Mol_Feturizer/New_Systems/rnas/3B4A

>  <Rbt.Executable>
rbdock ($Id: //depot/dev/client3/rdock/2013.1/src/exe/rbdock.cxx#4 $)

>  <Rbt.Library>
libRbt.so (2013.1, Build901 2013/11/27)

>  <Rbt.Parameter_File>
/export/apps/rDock/src/rDock_2013.1_src/data/scripts/dock_solv.prm

>  <Rbt.Receptor>
prm/pocket_docking_4.prm

>  <SCORE>
-5.98518

>  <SCORE.INTER>
-6.09629

>  <SCORE.INTER.CONST>
1

>  <SCORE.INTER.POLAR>
0

>  <SCORE.INTER.ROT>
3

>  <SCORE.INTER.SOLV>
14.8474

>  <SCORE.INTER.VDW>
-14.6133

>  <SCORE.INTER.norm>
-0.381018

>  <SCORE.INTRA>
0.111117

>  <SCORE.INTRA.DIHEDRAL>
-0.433183

>  <SCORE.INTRA.DIHEDRAL.0>
2.05999

>  <SCORE.INTRA.POLAR>
0

>  <SCORE.INTRA.POLAR.0>
0

>  <SCORE.INTRA.REPUL>
0

>  <SCORE.INTRA.REPUL.0>
0

>  <SCORE.INTRA.SOLV>
0.169523

>  <SCORE.INTRA.SOLV.lig_0>
-58.7001

>  <SCORE.INTRA.VDW>
0.242947

>  <SCORE.INTRA.VDW.0>
-0.401036

>  <SCORE.INTRA.norm>
0.00694481

>  <SCORE.RESTR>
0

>  <SCORE.RESTR.CAVITY>
0

>  <SCORE.RESTR.norm>
0

>  <SCORE.SYSTEM>
0

>  <SCORE.SYSTEM.CONST>
0

>  <SCORE.SYSTEM.DIHEDRAL>
0

>  <SCORE.SYSTEM.SOLV>
0

>  <SCORE.SYSTEM.norm>
0

>  <SCORE.heavy>
16

>  <SCORE.norm>
-0.374073

>  <RMSD>
3.083

$$$$
ligand
 OpenBabel11021811463D
libRbt.so/2013.1/901 2013/11/27
 16 16  0  0  0  0  0  0  0  0999 V2000
   51.3017   33.2720   53.6518 P   0  0  2  0  0  0  0  0  0  0  0  0
   51.6082   32.8099   55.0284 O   0  0  0  0  0  0  0  0  0  0  0  0
   50.8328   32.0118   52.7612 O   0  5  0  0  0  0  0  0  0  0  0  0
   52.6335   33.9345   53.0156 O   0  0  0  0  0  0  0  0  0  0  0  0
   46.3143   35.9842   52.8684 C   0  0  2  0  0  0  0  0  0  0  0  0
   46.7048   37.2336   53.4821 O   0  0  0  0  0  0  0  0  0  0  0  0
   45.0475   35.3972   53.5560 C   0  0  2  0  0  0  0  0  0  0  0  0
   43.9438   36.3713   53.4705 N   0  0  0  0  0  0  0  0  0  0  0  0
   45.3792   35.1015   55.0352 C   0  0  1  0  0  0  0  0  0  0  0  0
   44.2269   34.5509   55.6953 O   0  0  0  0  0  0  0  0  0  0  0  0
   46.5361   34.0809   55.0576 C   0  0  2  0  0  0  0  0  0  0  0  0
   46.8779   33.7867   56.4228 O   0  0  0  0  0  0  0  0  0  0  0  0
   47.7610   34.7156   54.3301 C   0  0  2  0  0  0  0  0  0  0  0  0
   47.4263   35.0361   52.9469 O   0  0  0  0  0  0  0  0  0  0  0  0
   48.9482   33.7393   54.2998 C   0  0  0  0  0  0  0  0  0  0  0  0
   50.1064   34.3637   53.7184 O   0  0  0  0  0  0  0  0  0  0  0  0
  1  2  1  1  0  0  0
  1  3  1  0  0  0  0
  1  4  2  0  0  0  0
  1 16  1  0  0  0  0
  5  6  1  1  0  0  0
  5  7  1  0  0  0  0
  5 14  1  0  0  0  0
  7  8  1  1  0  0  0
  7  9  1  0  0  0  0
  9 10  1  6  0  0  0
  9 11  1  0  0  0  0
 11 12  1  1  0  0  0
 11 13  1  0  0  0  0
 13 14  1  0  0  0  0
 13 15  1  6  0  0  0
 15 16  1  0  0  0  0
M  CHG  1   3  -1
M  END
>  <CHROM.1>
-175.66717593,-177.49748999,-60.11944099,48.17749215,34.41005536,54.05617917
-0.14577465,0.33618676,-0.85975905

>  <Name>
ligand

>  <RI>
0

>  <Rbt.Current_Directory>
/home/itssahil/PROJECTS/Mol_Feturizer/New_Systems/rnas/3B4A

>  <Rbt.Executable>
rbdock ($Id: //depot/dev/client3/rdock/2013.1/src/exe/rbdock.cxx#4 $)

>  <Rbt.Library>
libRbt.so (2013.1, Build901 2013/11/27)

>  <Rbt.Parameter_File>
/export/apps/rDock/src/rDock_2013.1_src/data/scripts/dock_solv.prm

>  <Rbt.Receptor>
prm/pocket_docking_5.prm

>  <SCORE>
-5.91137

>  <SCORE.INTER>
-4.32508

>  <SCORE.INTER.CONST>
1

>  <SCORE.INTER.POLAR>
0

>  <SCORE.INTER.ROT>
3

>  <SCORE.INTER.SOLV>
12.3952

>  <SCORE.INTER.VDW>
-12.6151

>  <SCORE.INTER.norm>
-0.270317

>  <SCORE.INTRA>
-1.58629

>  <SCORE.INTRA.DIHEDRAL>
-1.9578

>  <SCORE.INTRA.DIHEDRAL.0>
2.05999

>  <SCORE.INTRA.POLAR>
0

>  <SCORE.INTRA.POLAR.0>
0

>  <SCORE.INTRA.REPUL>
0

>  <SCORE.INTRA.REPUL.0>
0

>  <SCORE.INTRA.SOLV>
-1.04617

>  <SCORE.INTRA.SOLV.lig_0>
-58.7001

>  <SCORE.INTRA.VDW>
-0.0843089

>  <SCORE.INTRA.VDW.0>
-0.401036

>  <SCORE.INTRA.norm>
-0.0991432

>  <SCORE.RESTR>
0

>  <SCORE.RESTR.CAVITY>
0

>  <SCORE.RESTR.norm>
0

>  <SCORE.SYSTEM>
0

>  <SCORE.SYSTEM.CONST>
0

>  <SCORE.SYSTEM.DIHEDRAL>
0

>  <SCORE.SYSTEM.SOLV>
0

>  <SCORE.SYSTEM.norm>
0

>  <SCORE.heavy>
16

>  <SCORE.norm>
-0.36946

>  <RMSD>
3.119

$$$$
ligand
 OpenBabel11021811463D
libRbt.so/2013.1/901 2013/11/27
 16 16  0  0  0  0  0  0  0  0999 V2000
   50.7271   32.5467   49.6012 P   0  0  2  0  0  0  0  0  0  0  0  0
   49.9688   32.1042   48.4047 O   0  0  0  0  0  0  0  0  0  0  0  0
   51.6757   33.7875   49.1992 O   0  5  0  0  0  0  0  0  0  0  0  0
   51.6267   31.3122   50.1343 O   0  0  0  0  0  0  0  0  0  0  0  0
   47.7221   32.7127   54.4865 C   0  0  2  0  0  0  0  0  0  0  0  0
   46.7818   31.6363   54.7040 O   0  0  0  0  0  0  0  0  0  0  0  0
   46.9821   34.0653   54.2747 C   0  0  2  0  0  0  0  0  0  0  0  0
   46.1405   34.3564   55.4499 N   0  0  0  0  0  0  0  0  0  0  0  0
   46.1040   33.9562   53.0087 C   0  0  1  0  0  0  0  0  0  0  0  0
   45.4120   35.1960   52.7838 O   0  0  0  0  0  0  0  0  0  0  0  0
   47.0383   33.6518   51.8192 C   0  0  2  0  0  0  0  0  0  0  0  0
   46.2523   33.5356   50.6209 O   0  0  0  0  0  0  0  0  0  0  0  0
   47.7697   32.3043   52.1054 C   0  0  2  0  0  0  0  0  0  0  0  0
   48.5596   32.3993   53.3280 O   0  0  0  0  0  0  0  0  0  0  0  0
   48.7352   31.9499   50.9626 C   0  0  0  0  0  0  0  0  0  0  0  0
   49.6782   33.0140   50.7442 O   0  0  0  0  0  0  0  0  0  0  0  0
  1  2  1  6  0  0  0
  1  3  1  0  0  0  0
  1  4  2  0  0  0  0
  1 16  1  0  0  0  0
  5  6  1  6  0  0  0
  5  7  1  0  0  0  0
  5 14  1  0  0  0  0
  7  8  1  1  0  0  0
  7  9  1  0  0  0  0
  9 10  1  6  0  0  0
  9 11  1  0  0  0  0
 11 12  1  6  0  0  0
 11 13  1  0  0  0  0
 13 14  1  0  0  0  0
 13 15  1  6  0  0  0
 15 16  1  0  0  0  0
M  CHG  1   3  -1
M  END
>  <CHROM.1>
56.19731126,176.29026298,53.28131139,48.42420706,32.98410878,51.74737545
-0.62762423,-0.55664226,1.93971730

>  <Name>
ligand

>  <RI>
0

>  <Rbt.Current_Directory>
/home/itssahil/PROJECTS/Mol_Feturizer/New_Systems/rnas/3B4A

>  <Rbt.Executable>
rbdock ($Id: //depot/dev/client3/rdock/2013.1/src/exe/rbdock.cxx#4 $)

>  <Rbt.Library>
libRbt.so (2013.1, Build901 2013/11/27)

>  <Rbt.Parameter_File>
/export/apps/rDock/src/rDock_2013.1_src/data/scripts/dock_solv.prm

>  <Rbt.Receptor>
prm/pocket_docking_5.prm

>  <SCORE>
-5.39564

>  <SCORE.INTER>
-3.89214

>  <SCORE.INTER.CONST>
1

>  <SCORE.INTER.POLAR>
0

>  <SCORE.INTER.ROT>
3

>  <SCORE.INTER.SOLV>
10.7767

>  <SCORE.INTER.VDW>
-11.787

>  <SCORE.INTER.norm>
-0.243259

>  <SCORE.INTRA>
-1.5035

>  <SCORE.INTRA.DIHEDRAL>
-1.86559

>  <SCORE.INTRA.DIHEDRAL.0>
2.05999

>  <SCORE.INTRA.POLAR>
0

>  <SCORE.INTRA.POLAR.0>
0

>  <SCORE.INTRA.REPUL>
0

>  <SCORE.INTRA.REPUL.0>
0

>  <SCORE.INTRA.SOLV>
-0.902304

>  <SCORE.INTRA.SOLV.lig_0>
-58.7001

>  <SCORE.INTRA.VDW>
-0.11955

>  <SCORE.INTRA.VDW.0>
-0.401036

>  <SCORE.INTRA.norm>
-0.0939686

>  <SCORE.RESTR>
0

>  <SCORE.RESTR.CAVITY>
0

>  <SCORE.RESTR.norm>
0

>  <SCORE.SYSTEM>
0

>  <SCORE.SYSTEM.CONST>
0

>  <SCORE.SYSTEM.DIHEDRAL>
0

>  <SCORE.SYSTEM.SOLV>
0

>  <SCORE.SYSTEM.norm>
0

>  <SCORE.heavy>
16

>  <SCORE.norm>
-0.337227

>  <RMSD>
3.153

$$$$
ligand
 OpenBabel11021811463D
libRbt.so/2013.1/901 2013/11/27
 16 16  0  0  0  0  0  0  0  0999 V2000
   51.2921   33.0105   53.7791 P   0  0  2  0  0  0  0  0  0  0  0  0
   50.8169   31.6779   53.3311 O   0  0  0  0  0  0  0  0  0  0  0  0
   52.4851   33.5015   52.8111 O   0  5  0  0  0  0  0  0  0  0  0  0
   51.8285   32.8884   55.3005 O   0  0  0  0  0  0  0  0  0  0  0  0
   46.3353   35.7613   52.9539 C   0  0  2  0  0  0  0  0  0  0  0  0
   46.7385   37.0179   53.5443 O   0  0  0  0  0  0  0  0  0  0  0  0
   45.0627   35.2001   53.6521 C   0  0  2  0  0  0  0  0  0  0  0  0
   43.9689   36.1835   53.5485 N   0  0  0  0  0  0  0  0  0  0  0  0
   45.3916   34.9284   55.1365 C   0  0  1  0  0  0  0  0  0  0  0  0
   44.2339   34.4020   55.8068 O   0  0  0  0  0  0  0  0  0  0  0  0
   46.5381   33.8968   55.1779 C   0  0  2  0  0  0  0  0  0  0  0  0
   46.8771   33.6245   56.5484 O   0  0  0  0  0  0  0  0  0  0  0  0
   47.7693   34.5055   54.4389 C   0  0  2  0  0  0  0  0  0  0  0  0
   47.4377   34.8037   53.0500 O   0  0  0  0  0  0  0  0  0  0  0  0
   48.9466   33.5168   54.4267 C   0  0  0  0  0  0  0  0  0  0  0  0
   50.0613   34.0610   53.6984 O   0  0  0  0  0  0  0  0  0  0  0  0
  1  2  1  6  0  0  0
  1  3  1  0  0  0  0
  1  4  2  0  0  0  0
  1 16  1  0  0  0  0
  5  6  1  1  0  0  0
  5  7  1  0  0  0  0
  5 14  1  0  0  0  0
  7  8  1  1  0  0  0
  7  9  1  0  0  0  0
  9 10  1  1  0  0  0
  9 11  1  0  0  0  0
 11 12  1  1  0  0  0
 11 13  1  0  0  0  0
 13 14  1  0  0  0  0
 13 15  1  6  0  0  0
 15 16  1  0  0  0  0
M  CHG  1   3  -1
M  END
>  <CHROM.1>
177.71377694,177.31920623,53.12970754,48.18461374,34.19304783,54.17439466
-0.14787796,0.34429853,-0.89497949

>  <Name>
ligand

>  <RI>
0

>  <Rbt.Current_Directory>
/home/itssahil/PROJECTS/Mol_Feturizer/New_Systems/rnas/3B4A

>  <Rbt.Executable>
rbdock ($Id: //depot/dev/client3/rdock/2013.1/src/exe/rbdock.cxx#4 $)

>  <Rbt.Library>
libRbt.so (2013.1, Build901 2013/11/27)

>  <Rbt.Parameter_File>
/export/apps/rDock/src/rDock_2013.1_src/data/scripts/dock_solv.prm

>  <Rbt.Receptor>
prm/pocket_docking_3.prm

>  <SCORE>
-5.65259

>  <SCORE.INTER>
-4.15792

>  <SCORE.INTER.CONST>
1

>  <SCORE.INTER.POLAR>
0

>  <SCORE.INTER.ROT>
3

>  <SCORE.INTER.SOLV>
14.1028

>  <SCORE.INTER.VDW>
-13.0729

>  <SCORE.INTER.norm>
-0.25987

>  <SCORE.INTRA>
-1.49467

>  <SCORE.INTRA.DIHEDRAL>
-1.92737

>  <SCORE.INTRA.DIHEDRAL.0>
2.05999

>  <SCORE.INTRA.POLAR>
0

>  <SCORE.INTRA.POLAR.0>
0

>  <SCORE.INTRA.REPUL>
0

>  <SCORE.INTRA.REPUL.0>
0

>  <SCORE.INTRA.SOLV>
-1.12371

>  <SCORE.INTRA.SOLV.lig_0>
-58.7001

>  <SCORE.INTRA.VDW>
0.0308733

>  <SCORE.INTRA.VDW.0>
-0.401036

>  <SCORE.INTRA.norm>
-0.0934166

>  <SCORE.RESTR>
0

>  <SCORE.RESTR.CAVITY>
0

>  <SCORE.RESTR.norm>
0

>  <SCORE.SYSTEM>
0

>  <SCORE.SYSTEM.CONST>
0

>  <SCORE.SYSTEM.DIHEDRAL>
0

>  <SCORE.SYSTEM.SOLV>
0

>  <SCORE.SYSTEM.norm>
0

>  <SCORE.heavy>
16

>  <SCORE.norm>
-0.353287

>  <RMSD>
3.170

$$$$
ligand
 OpenBabel11021811463D
libRbt.so/2013.1/901 2013/11/27
 16 16  0  0  0  0  0  0  0  0999 V2000
   50.0858   33.5648   53.4634 P   0  0  2  0  0  0  0  0  0  0  0  0
   50.6450   33.2670   54.8055 O   0  0  0  0  0  0  0  0  0  0  0  0
   51.2281   33.3316   52.3490 O   0  5  0  0  0  0  0  0  0  0  0  0
   49.5908   35.1048   53.4349 O   0  0  0  0  0  0  0  0  0  0  0  0
   45.8851   35.4239   53.0299 C   0  0  2  0  0  0  0  0  0  0  0  0
   46.7963   36.5204   53.2704 O   0  0  0  0  0  0  0  0  0  0  0  0
   44.7314   35.4183   54.0744 C   0  0  2  0  0  0  0  0  0  0  0  0
   44.0075   36.7016   54.0167 N   0  0  0  0  0  0  0  0  0  0  0  0
   45.3375   35.2151   55.4804 C   0  0  1  0  0  0  0  0  0  0  0  0
   44.2923   35.1990   56.4672 O   0  0  0  0  0  0  0  0  0  0  0  0
   46.0785   33.8618   55.4766 C   0  0  2  0  0  0  0  0  0  0  0  0
   46.6638   33.6419   56.7713 O   0  0  0  0  0  0  0  0  0  0  0  0
   47.1983   33.9215   54.3926 C   0  0  2  0  0  0  0  0  0  0  0  0
   46.6228   34.1609   53.0737 O   0  0  0  0  0  0  0  0  0  0  0  0
   47.9665   32.5916   54.3228 C   0  0  0  0  0  0  0  0  0  0  0  0
   48.8406   32.5677   53.1805 O   0  0  0  0  0  0  0  0  0  0  0  0
  1  2  1  1  0  0  0
  1  3  1  0  0  0  0
  1  4  2  0  0  0  0
  1 16  1  0  0  0  0
  5  6  1  1  0  0  0
  5  7  1  0  0  0  0
  5 14  1  0  0  0  0
  7  8  1  1  0  0  0
  7  9  1  0  0  0  0
  9 10  1  1  0  0  0
  9 11  1  0  0  0  0
 11 12  1  1  0  0  0
 11 13  1  0  0  0  0
 13 14  1  0  0  0  0
 13 15  1  6  0  0  0
 15 16  1  0  0  0  0
M  CHG  1   3  -1
M  END
>  <CHROM.1>
170.30040035,72.34375928,48.96279269,47.51956763,34.33042497,54.16552895
0.01603749,0.44825632,-0.96318602

>  <Name>
ligand

>  <RI>
0

>  <Rbt.Current_Directory>
/home/itssahil/PROJECTS/Mol_Feturizer/New_Systems/rnas/3B4A

>  <Rbt.Executable>
rbdock ($Id: //depot/dev/client3/rdock/2013.1/src/exe/rbdock.cxx#4 $)

>  <Rbt.Library>
libRbt.so (2013.1, Build901 2013/11/27)

>  <Rbt.Parameter_File>
/export/apps/rDock/src/rDock_2013.1_src/data/scripts/dock_solv.prm

>  <Rbt.Receptor>
prm/pocket_docking_5.prm

>  <SCORE>
-5.5216

>  <SCORE.INTER>
-6.33886

>  <SCORE.INTER.CONST>
1

>  <SCORE.INTER.POLAR>
0

>  <SCORE.INTER.ROT>
3

>  <SCORE.INTER.SOLV>
13.9076

>  <SCORE.INTER.VDW>
-14.4618

>  <SCORE.INTER.norm>
-0.396179

>  <SCORE.INTRA>
0.817259

>  <SCORE.INTRA.DIHEDRAL>
-0.806771

>  <SCORE.INTRA.DIHEDRAL.0>
2.05999

>  <SCORE.INTRA.POLAR>
0

>  <SCORE.INTRA.POLAR.0>
0

>  <SCORE.INTRA.REPUL>
0

>  <SCORE.INTRA.REPUL.0>
0

>  <SCORE.INTRA.SOLV>
2.462

>  <SCORE.INTRA.SOLV.lig_0>
-58.7001

>  <SCORE.INTRA.VDW>
-0.0103561

>  <SCORE.INTRA.VDW.0>
-0.401036

>  <SCORE.INTRA.norm>
0.0510787

>  <SCORE.RESTR>
0

>  <SCORE.RESTR.CAVITY>
0

>  <SCORE.RESTR.norm>
0

>  <SCORE.SYSTEM>
0

>  <SCORE.SYSTEM.CONST>
0

>  <SCORE.SYSTEM.DIHEDRAL>
0

>  <SCORE.SYSTEM.SOLV>
0

>  <SCORE.SYSTEM.norm>
0

>  <SCORE.heavy>
16

>  <SCORE.norm>
-0.3451

>  <RMSD>
3.201

$$$$
ligand
 OpenBabel11021811463D
libRbt.so/2013.1/901 2013/11/27
 16 16  0  0  0  0  0  0  0  0999 V2000
   51.1383   33.1529   54.2562 P   0  0  2  0  0  0  0  0  0  0  0  0
   50.7337   31.7944   53.8169 O   0  0  0  0  0  0  0  0  0  0  0  0
   51.9406   33.8802   53.0611 O   0  5  0  0  0  0  0  0  0  0  0  0
   52.0881   33.0183   55.5590 O   0  0  0  0  0  0  0  0  0  0  0  0
   46.0931   36.2782   52.4808 C   0  0  2  0  0  0  0  0  0  0  0  0
   46.5492   37.5431   53.0121 O   0  0  0  0  0  0  0  0  0  0  0  0
   44.9863   35.6606   53.3839 C   0  0  2  0  0  0  0  0  0  0  0  0
   43.8567   36.6020   53.4932 N   0  0  0  0  0  0  0  0  0  0  0  0
   45.5838   35.3860   54.7814 C   0  0  1  0  0  0  0  0  0  0  0  0
   44.5838   34.8078   55.6371 O   0  0  0  0  0  0  0  0  0  0  0  0
   46.7560   34.3992   54.6006 C   0  0  2  0  0  0  0  0  0  0  0  0
   47.3432   34.1255   55.8841 O   0  0  0  0  0  0  0  0  0  0  0  0
   47.8131   35.0631   53.6655 C   0  0  2  0  0  0  0  0  0  0  0  0
   47.2289   35.3631   52.3630 O   0  0  0  0  0  0  0  0  0  0  0  0
   49.0044   34.1209   53.4273 C   0  0  0  0  0  0  0  0  0  0  0  0
   49.8086   34.0064   54.6146 O   0  0  0  0  0  0  0  0  0  0  0  0
  1  2  1  6  0  0  0
  1  3  1  0  0  0  0
  1  4  2  0  0  0  0
  1 16  1  0  0  0  0
  5  6  1  1  0  0  0
  5  7  1  0  0  0  0
  5 14  1  0  0  0  0
  7  8  1  1  0  0  0
  7  9  1  0  0  0  0
  9 10  1  1  0  0  0
  9 11  1  0  0  0  0
 11 12  1  1  0  0  0
 11 13  1  0  0  0  0
 13 14  1  0  0  0  0
 13 15  1  6  0  0  0
 15 16  1  0  0  0  0
M  CHG  1   3  -1
M  END
>  <CHROM.1>
-71.56236012,-173.20801189,-61.57076250,48.15679978,34.55883145,54.03889529
-0.31092933,0.33004236,-0.94498148

>  <Name>
ligand

>  <RI>
0

>  <Rbt.Current_Directory>
/home/itssahil/PROJECTS/Mol_Feturizer/New_Systems/rnas/3B4A

>  <Rbt.Executable>
rbdock ($Id: //depot/dev/client3/rdock/2013.1/src/exe/rbdock.cxx#4 $)

>  <Rbt.Library>
libRbt.so (2013.1, Build901 2013/11/27)

>  <Rbt.Parameter_File>
/export/apps/rDock/src/rDock_2013.1_src/data/scripts/dock_solv.prm

>  <Rbt.Receptor>
prm/pocket_docking_3.prm

>  <SCORE>
-4.68101

>  <SCORE.INTER>
-3.49273

>  <SCORE.INTER.CONST>
1

>  <SCORE.INTER.POLAR>
0

>  <SCORE.INTER.ROT>
3

>  <SCORE.INTER.SOLV>
13.6718

>  <SCORE.INTER.VDW>
-12.4858

>  <SCORE.INTER.norm>
-0.218295

>  <SCORE.INTRA>
-1.18849

>  <SCORE.INTRA.DIHEDRAL>
-1.36266

>  <SCORE.INTRA.DIHEDRAL.0>
2.05999

>  <SCORE.INTRA.POLAR>
0

>  <SCORE.INTRA.POLAR.0>
0

>  <SCORE.INTRA.REPUL>
0

>  <SCORE.INTRA.REPUL.0>
0

>  <SCORE.INTRA.SOLV>
-0.754773

>  <SCORE.INTRA.SOLV.lig_0>
-58.7001

>  <SCORE.INTRA.VDW>
-0.129769

>  <SCORE.INTRA.VDW.0>
-0.401036

>  <SCORE.INTRA.norm>
-0.0742805

>  <SCORE.RESTR>
0.000204914

>  <SCORE.RESTR.CAVITY>
0.000204914

>  <SCORE.RESTR.norm>
1.28071e-05

>  <SCORE.SYSTEM>
0

>  <SCORE.SYSTEM.CONST>
0

>  <SCORE.SYSTEM.DIHEDRAL>
0

>  <SCORE.SYSTEM.SOLV>
0

>  <SCORE.SYSTEM.norm>
0

>  <SCORE.heavy>
16

>  <SCORE.norm>
-0.292563

>  <RMSD>
3.265

$$$$
ligand
 OpenBabel11021811463D
libRbt.so/2013.1/901 2013/11/27
 16 16  0  0  0  0  0  0  0  0999 V2000
   49.5754   31.4364   50.2552 P   0  0  2  0  0  0  0  0  0  0  0  0
   50.2170   30.1234   50.5137 O   0  0  0  0  0  0  0  0  0  0  0  0
   48.8387   31.3938   48.8211 O   0  5  0  0  0  0  0  0  0  0  0  0
   50.7162   32.5836   50.2576 O   0  0  0  0  0  0  0  0  0  0  0  0
   46.7005   33.5650   54.7326 C   0  0  2  0  0  0  0  0  0  0  0  0
   45.6532   32.5685   54.7503 O   0  0  0  0  0  0  0  0  0  0  0  0
   46.1053   34.9972   54.6043 C   0  0  2  0  0  0  0  0  0  0  0  0
   45.1829   35.2504   55.7265 N   0  0  0  0  0  0  0  0  0  0  0  0
   45.3474   35.1000   53.2625 C   0  0  1  0  0  0  0  0  0  0  0  0
   44.7912   36.4171   53.1132 O   0  0  0  0  0  0  0  0  0  0  0  0
   46.3620   34.8261   52.1328 C   0  0  2  0  0  0  0  0  0  0  0  0
   45.6882   34.9061   50.8653 O   0  0  0  0  0  0  0  0  0  0  0  0
   46.9419   33.3924   52.3346 C   0  0  2  0  0  0  0  0  0  0  0  0
   47.6153   33.2885   53.6244 O   0  0  0  0  0  0  0  0  0  0  0  0
   47.9785   33.0614   51.2485 C   0  0  0  0  0  0  0  0  0  0  0  0
   48.4839   31.7252   51.4171 O   0  0  0  0  0  0  0  0  0  0  0  0
  1  2  1  1  0  0  0
  1  3  1  0  0  0  0
  1  4  2  0  0  0  0
  1 16  1  0  0  0  0
  5  6  1  6  0  0  0
  5  7  1  0  0  0  0
  5 14  1  0  0  0  0
  7  8  1  1  0  0  0
  7  9  1  0  0  0  0
  9 10  1  6  0  0  0
  9 11  1  0  0  0  0
 11 12  1  6  0  0  0
 11 13  1  0  0  0  0
 13 14  1  0  0  0  0
 13 15  1  6  0  0  0
 15 16  1  0  0  0  0
M  CHG  1   3  -1
M  END
>  <CHROM.1>
-178.44052334,-179.62350230,173.44801439,47.46795794,33.22860277,52.14842108
-0.39337801,-0.84241164,1.90269552

>  <Name>
ligand

>  <RI>
0

>  <Rbt.Current_Directory>
/home/itssahil/PROJECTS/Mol_Feturizer/New_Systems/rnas/3B4A

>  <Rbt.Executable>
rbdock ($Id: //depot/dev/client3/rdock/2013.1/src/exe/rbdock.cxx#4 $)

>  <Rbt.Library>
libRbt.so (2013.1, Build901 2013/11/27)

>  <Rbt.Parameter_File>
/export/apps/rDock/src/rDock_2013.1_src/data/scripts/dock_solv.prm

>  <Rbt.Receptor>
prm/pocket_docking_6.prm

>  <SCORE>
-5.44394

>  <SCORE.INTER>
-4.00938

>  <SCORE.INTER.CONST>
1

>  <SCORE.INTER.POLAR>
0

>  <SCORE.INTER.ROT>
3

>  <SCORE.INTER.SOLV>
15.5875

>  <SCORE.INTER.VDW>
-13.4688

>  <SCORE.INTER.norm>
-0.250586

>  <SCORE.INTRA>
-1.43457

>  <SCORE.INTRA.DIHEDRAL>
-1.9779

>  <SCORE.INTRA.DIHEDRAL.0>
2.05999

>  <SCORE.INTRA.POLAR>
0

>  <SCORE.INTRA.POLAR.0>
0

>  <SCORE.INTRA.REPUL>
0

>  <SCORE.INTRA.REPUL.0>
0

>  <SCORE.INTRA.SOLV>
-0.415832

>  <SCORE.INTRA.SOLV.lig_0>
-58.7001

>  <SCORE.INTRA.VDW>
-0.237702

>  <SCORE.INTRA.VDW.0>
-0.401036

>  <SCORE.INTRA.norm>
-0.0896603

>  <SCORE.RESTR>
0

>  <SCORE.RESTR.CAVITY>
0

>  <SCORE.RESTR.norm>
0

>  <SCORE.SYSTEM>
0

>  <SCORE.SYSTEM.CONST>
0

>  <SCORE.SYSTEM.DIHEDRAL>
0

>  <SCORE.SYSTEM.SOLV>
0

>  <SCORE.SYSTEM.norm>
0

>  <SCORE.heavy>
16

>  <SCORE.norm>
-0.340247

>  <RMSD>
3.410

$$$$
ligand
 OpenBabel11021811463D
libRbt.so/2013.1/901 2013/11/27
 16 16  0  0  0  0  0  0  0  0999 V2000
   49.7118   32.3708   50.6887 P   0  0  2  0  0  0  0  0  0  0  0  0
   49.9854   33.3663   49.6225 O   0  0  0  0  0  0  0  0  0  0  0  0
   51.0533   32.1364   51.5527 O   0  5  0  0  0  0  0  0  0  0  0  0
   49.2478   30.9827   49.9992 O   0  0  0  0  0  0  0  0  0  0  0  0
   45.6461   35.4371   53.3819 C   0  0  2  0  0  0  0  0  0  0  0  0
   46.0326   36.7482   53.8529 O   0  0  0  0  0  0  0  0  0  0  0  0
   45.3890   34.4699   54.5736 C   0  0  2  0  0  0  0  0  0  0  0  0
   44.3366   35.0272   55.4431 N   0  0  0  0  0  0  0  0  0  0  0  0
   46.7020   34.3059   55.3702 C   0  0  1  0  0  0  0  0  0  0  0  0
   46.4960   33.4105   56.4759 O   0  0  0  0  0  0  0  0  0  0  0  0
   47.7590   33.7218   54.4100 C   0  0  2  0  0  0  0  0  0  0  0  0
   49.0005   33.5620   55.1173 O   0  0  0  0  0  0  0  0  0  0  0  0
   47.9484   34.7202   53.2269 C   0  0  2  0  0  0  0  0  0  0  0  0
   46.6931   34.9070   52.5077 O   0  0  0  0  0  0  0  0  0  0  0  0
   48.9794   34.1876   52.2184 C   0  0  0  0  0  0  0  0  0  0  0  0
   48.5397   32.9410   51.6509 O   0  0  0  0  0  0  0  0  0  0  0  0
  1  2  1  6  0  0  0
  1  3  1  0  0  0  0
  1  4  2  0  0  0  0
  1 16  1  0  0  0  0
  5  6  1  1  0  0  0
  5  7  1  0  0  0  0
  5 14  1  0  0  0  0
  7  8  1  1  0  0  0
  7  9  1  0  0  0  0
  9 10  1  1  0  0  0
  9 11  1  0  0  0  0
 11 12  1  1  0  0  0
 11 13  1  0  0  0  0
 13 14  1  0  0  0  0
 13 15  1  6  0  0  0
 15 16  1  0  0  0  0
M  CHG  1   3  -1
M  END
>  <CHROM.1>
61.32691173,-175.60246015,-59.34416944,47.91620380,33.75401125,52.91179002
0.58339532,0.73465081,-1.30847331

>  <Name>
ligand

>  <RI>
0

>  <Rbt.Current_Directory>
/home/itssahil/PROJECTS/Mol_Feturizer/New_Systems/rnas/3B4A

>  <Rbt.Executable>
rbdock ($Id: //depot/dev/client3/rdock/2013.1/src/exe/rbdock.cxx#4 $)

>  <Rbt.Library>
libRbt.so (2013.1, Build901 2013/11/27)

>  <Rbt.Parameter_File>
/export/apps/rDock/src/rDock_2013.1_src/data/scripts/dock_solv.prm

>  <Rbt.Receptor>
prm/pocket_docking_6.prm

>  <SCORE>
-4.80773

>  <SCORE.INTER>
-3.24224

>  <SCORE.INTER.CONST>
1

>  <SCORE.INTER.POLAR>
0

>  <SCORE.INTER.ROT>
3

>  <SCORE.INTER.SOLV>
14.4185

>  <SCORE.INTER.VDW>
-12.5677

>  <SCORE.INTER.norm>
-0.20264

>  <SCORE.INTRA>
-1.56549

>  <SCORE.INTRA.DIHEDRAL>
-1.95505

>  <SCORE.INTRA.DIHEDRAL.0>
2.05999

>  <SCORE.INTRA.POLAR>
0

>  <SCORE.INTRA.POLAR.0>
0

>  <SCORE.INTRA.REPUL>
0

>  <SCORE.INTRA.REPUL.0>
0

>  <SCORE.INTRA.SOLV>
-0.771966

>  <SCORE.INTRA.SOLV.lig_0>
-58.7001

>  <SCORE.INTRA.VDW>
-0.201985

>  <SCORE.INTRA.VDW.0>
-0.401036

>  <SCORE.INTRA.norm>
-0.0978434

>  <SCORE.RESTR>
0

>  <SCORE.RESTR.CAVITY>
0

>  <SCORE.RESTR.norm>
0

>  <SCORE.SYSTEM>
0

>  <SCORE.SYSTEM.CONST>
0

>  <SCORE.SYSTEM.DIHEDRAL>
0

>  <SCORE.SYSTEM.SOLV>
0

>  <SCORE.SYSTEM.norm>
0

>  <SCORE.heavy>
16

>  <SCORE.norm>
-0.300483

>  <RMSD>
3.539

$$$$
ligand
 OpenBabel11021811463D
libRbt.so/2013.1/901 2013/11/27
 16 16  0  0  0  0  0  0  0  0999 V2000
   49.7319   32.3948   50.9582 P   0  0  2  0  0  0  0  0  0  0  0  0
   48.7687   31.3789   50.4657 O   0  0  0  0  0  0  0  0  0  0  0  0
   49.9654   33.5045   49.8114 O   0  5  0  0  0  0  0  0  0  0  0  0
   51.1296   31.6604   51.3107 O   0  0  0  0  0  0  0  0  0  0  0  0
   45.1489   35.3924   53.9009 C   0  0  2  0  0  0  0  0  0  0  0  0
   45.8551   36.6331   54.1289 O   0  0  0  0  0  0  0  0  0  0  0  0
   45.0910   34.5369   55.1997 C   0  0  2  0  0  0  0  0  0  0  0  0
   44.4303   35.3078   56.2691 N   0  0  0  0  0  0  0  0  0  0  0  0
   46.5329   34.1770   55.6201 C   0  0  1  0  0  0  0  0  0  0  0  0
   46.5104   33.3796   56.8161 O   0  0  0  0  0  0  0  0  0  0  0  0
   47.1680   33.3752   54.4650 C   0  0  2  0  0  0  0  0  0  0  0  0
   48.5177   33.0284   54.8190 O   0  0  0  0  0  0  0  0  0  0  0  0
   47.1693   34.2737   53.1901 C   0  0  2  0  0  0  0  0  0  0  0  0
   45.8075   34.6490   52.8261 O   0  0  0  0  0  0  0  0  0  0  0  0
   47.7742   33.5250   51.9912 C   0  0  0  0  0  0  0  0  0  0  0  0
   49.1184   33.1023   52.2803 O   0  0  0  0  0  0  0  0  0  0  0  0
  1  2  1  6  0  0  0
  1  3  1  0  0  0  0
  1  4  2  0  0  0  0
  1 16  1  0  0  0  0
  5  6  1  1  0  0  0
  5  7  1  0  0  0  0
  5 14  1  0  0  0  0
  7  8  1  1  0  0  0
  7  9  1  0  0  0  0
  9 10  1  1  0  0  0
  9 11  1  0  0  0  0
 11 12  1  1  0  0  0
 11 13  1  0  0  0  0
 13 14  1  0  0  0  0
 13 15  1  6  0  0  0
 15 16  1  0  0  0  0
M  CHG  1   3  -1
M  END
>  <CHROM.1>
-58.27947994,-176.88935875,-50.11682410,47.64896357,33.64367598,53.15769014
0.54487372,0.72452351,-1.25612292

>  <Name>
ligand

>  <RI>
0

>  <Rbt.Current_Directory>
/home/itssahil/PROJECTS/Mol_Feturizer/New_Systems/rnas/3B4A

>  <Rbt.Executable>
rbdock ($Id: //depot/dev/client3/rdock/2013.1/src/exe/rbdock.cxx#4 $)

>  <Rbt.Library>
libRbt.so (2013.1, Build901 2013/11/27)

>  <Rbt.Parameter_File>
/export/apps/rDock/src/rDock_2013.1_src/data/scripts/dock_solv.prm

>  <Rbt.Receptor>
prm/pocket_docking_4.prm

>  <SCORE>
-5.23356

>  <SCORE.INTER>
-4.23541

>  <SCORE.INTER.CONST>
1

>  <SCORE.INTER.POLAR>
0

>  <SCORE.INTER.ROT>
3

>  <SCORE.INTER.SOLV>
15.5724

>  <SCORE.INTER.VDW>
-13.6144

>  <SCORE.INTER.norm>
-0.264713

>  <SCORE.INTRA>
-0.998143

>  <SCORE.INTRA.DIHEDRAL>
-1.84134

>  <SCORE.INTRA.DIHEDRAL.0>
2.05999

>  <SCORE.INTRA.POLAR>
0

>  <SCORE.INTRA.POLAR.0>
0

>  <SCORE.INTRA.REPUL>
0

>  <SCORE.INTRA.REPUL.0>
0

>  <SCORE.INTRA.SOLV>
-0.728107

>  <SCORE.INTRA.SOLV.lig_0>
-58.7001

>  <SCORE.INTRA.VDW>
0.286582

>  <SCORE.INTRA.VDW.0>
-0.401036

>  <SCORE.INTRA.norm>
-0.0623839

>  <SCORE.RESTR>
0

>  <SCORE.RESTR.CAVITY>
0

>  <SCORE.RESTR.norm>
0

>  <SCORE.SYSTEM>
0

>  <SCORE.SYSTEM.CONST>
0

>  <SCORE.SYSTEM.DIHEDRAL>
0

>  <SCORE.SYSTEM.SOLV>
0

>  <SCORE.SYSTEM.norm>
0

>  <SCORE.heavy>
16

>  <SCORE.norm>
-0.327097

>  <RMSD>
3.619

$$$$
ligand
 OpenBabel11021811463D
libRbt.so/2013.1/901 2013/11/27
 16 16  0  0  0  0  0  0  0  0999 V2000
   49.6393   32.3037   50.8156 P   0  0  2  0  0  0  0  0  0  0  0  0
   48.6143   31.3935   50.2468 O   0  0  0  0  0  0  0  0  0  0  0  0
   50.0069   33.4353   49.7268 O   0  5  0  0  0  0  0  0  0  0  0  0
   50.9571   31.4402   51.1830 O   0  0  0  0  0  0  0  0  0  0  0  0
   45.1253   35.3830   53.7804 C   0  0  2  0  0  0  0  0  0  0  0  0
   45.8456   36.6195   53.9868 O   0  0  0  0  0  0  0  0  0  0  0  0
   45.0769   34.5408   55.0882 C   0  0  2  0  0  0  0  0  0  0  0  0
   44.4373   35.3280   56.1584 N   0  0  0  0  0  0  0  0  0  0  0  0
   46.5210   34.1719   55.4931 C   0  0  1  0  0  0  0  0  0  0  0  0
   46.5071   33.3864   56.6970 O   0  0  0  0  0  0  0  0  0  0  0  0
   47.1336   33.3532   54.3378 C   0  0  2  0  0  0  0  0  0  0  0  0
   48.4846   32.9976   54.6774 O   0  0  0  0  0  0  0  0  0  0  0  0
   47.1260   34.2392   53.0542 C   0  0  2  0  0  0  0  0  0  0  0  0
   45.7630   34.6233   52.7044 O   0  0  0  0  0  0  0  0  0  0  0  0
   47.7083   33.4735   51.8549 C   0  0  0  0  0  0  0  0  0  0  0  0
   49.0374   33.0062   52.1456 O   0  0  0  0  0  0  0  0  0  0  0  0
  1  2  1  6  0  0  0
  1  3  1  0  0  0  0
  1  4  2  0  0  0  0
  1 16  1  0  0  0  0
  5  6  1  1  0  0  0
  5  7  1  0  0  0  0
  5 14  1  0  0  0  0
  7  8  1  1  0  0  0
  7  9  1  0  0  0  0
  9 10  1  1  0  0  0
  9 11  1  0  0  0  0
 11 12  1  1  0  0  0
 11 13  1  0  0  0  0
 13 14  1  0  0  0  0
 13 15  1  6  0  0  0
 15 16  1  0  0  0  0
M  CHG  1   3  -1
M  END
>  <CHROM.1>
-56.52517013,-175.94916896,-46.32256327,47.59874395,33.59970584,53.02509705
0.55422442,0.73970806,-1.27255336

>  <Name>
ligand

>  <RI>
0

>  <Rbt.Current_Directory>
/home/itssahil/PROJECTS/Mol_Feturizer/New_Systems/rnas/3B4A

>  <Rbt.Executable>
rbdock ($Id: //depot/dev/client3/rdock/2013.1/src/exe/rbdock.cxx#4 $)

>  <Rbt.Library>
libRbt.so (2013.1, Build901 2013/11/27)

>  <Rbt.Parameter_File>
/export/apps/rDock/src/rDock_2013.1_src/data/scripts/dock_solv.prm

>  <Rbt.Receptor>
prm/pocket_docking_5.prm

>  <SCORE>
-5.39057

>  <SCORE.INTER>
-4.62007

>  <SCORE.INTER.CONST>
1

>  <SCORE.INTER.POLAR>
0

>  <SCORE.INTER.ROT>
3

>  <SCORE.INTER.SOLV>
15.1947

>  <SCORE.INTER.VDW>
-13.745

>  <SCORE.INTER.norm>
-0.288754

>  <SCORE.INTRA>
-0.7705

>  <SCORE.INTRA.DIHEDRAL>
-1.63723

>  <SCORE.INTRA.DIHEDRAL.0>
2.05999

>  <SCORE.INTRA.POLAR>
0

>  <SCORE.INTRA.POLAR.0>
0

>  <SCORE.INTRA.REPUL>
0

>  <SCORE.INTRA.REPUL.0>
0

>  <SCORE.INTRA.SOLV>
-0.75222

>  <SCORE.INTRA.SOLV.lig_0>
-58.7001

>  <SCORE.INTRA.VDW>
0.424226

>  <SCORE.INTRA.VDW.0>
-0.401036

>  <SCORE.INTRA.norm>
-0.0481563

>  <SCORE.RESTR>
0

>  <SCORE.RESTR.CAVITY>
0

>  <SCORE.RESTR.norm>
0

>  <SCORE.SYSTEM>
0

>  <SCORE.SYSTEM.CONST>
0

>  <SCORE.SYSTEM.DIHEDRAL>
0

>  <SCORE.SYSTEM.SOLV>
0

>  <SCORE.SYSTEM.norm>
0

>  <SCORE.heavy>
16

>  <SCORE.norm>
-0.336911

>  <RMSD>
3.683

$$$$
ligand
 OpenBabel11021811463D
libRbt.so/2013.1/901 2013/11/27
 16 16  0  0  0  0  0  0  0  0999 V2000
   50.2025   32.0252   49.4502 P   0  0  2  0  0  0  0  0  0  0  0  0
   50.4542   32.4783   48.0595 O   0  0  0  0  0  0  0  0  0  0  0  0
   51.6079   31.9088   50.2328 O   0  5  0  0  0  0  0  0  0  0  0  0
   49.4733   30.5818   49.4042 O   0  0  0  0  0  0  0  0  0  0  0  0
   45.7789   34.4666   52.1785 C   0  0  2  0  0  0  0  0  0  0  0  0
   46.2463   35.8286   52.0498 O   0  0  0  0  0  0  0  0  0  0  0  0
   45.5486   34.0950   53.6722 C   0  0  2  0  0  0  0  0  0  0  0  0
   44.5713   35.0252   54.2669 N   0  0  0  0  0  0  0  0  0  0  0  0
   46.8963   34.1934   54.4202 C   0  0  1  0  0  0  0  0  0  0  0  0
   46.7153   33.8484   55.8039 O   0  0  0  0  0  0  0  0  0  0  0  0
   47.8719   33.2011   53.7538 C   0  0  2  0  0  0  0  0  0  0  0  0
   49.1435   33.2710   54.4213 O   0  0  0  0  0  0  0  0  0  0  0  0
   48.0365   33.6089   52.2574 C   0  0  2  0  0  0  0  0  0  0  0  0
   46.7517   33.5595   51.5684 O   0  0  0  0  0  0  0  0  0  0  0  0
   48.9856   32.6451   51.5267 C   0  0  0  0  0  0  0  0  0  0  0  0
   49.2565   33.1107   50.1929 O   0  0  0  0  0  0  0  0  0  0  0  0
  1  2  1  6  0  0  0
  1  3  1  0  0  0  0
  1  4  2  0  0  0  0
  1 16  1  0  0  0  0
  5  6  1  1  0  0  0
  5  7  1  0  0  0  0
  5 14  1  0  0  0  0
  7  8  1  1  0  0  0
  7  9  1  0  0  0  0
  9 10  1  1  0  0  0
  9 11  1  0  0  0  0
 11 12  1  1  0  0  0
 11 13  1  0  0  0  0
 13 14  1  0  0  0  0
 13 15  1  6  0  0  0
 15 16  1  0  0  0  0
M  CHG  1   3  -1
M  END
>  <CHROM.1>
-173.34737668,-177.41008288,178.34613144,48.19043498,33.24601372,51.83993634
0.76257683,0.54386995,-1.55979044

>  <Name>
ligand

>  <RI>
0

>  <Rbt.Current_Directory>
/home/itssahil/PROJECTS/Mol_Feturizer/New_Systems/rnas/3B4A

>  <Rbt.Executable>
rbdock ($Id: //depot/dev/client3/rdock/2013.1/src/exe/rbdock.cxx#4 $)

>  <Rbt.Library>
libRbt.so (2013.1, Build901 2013/11/27)

>  <Rbt.Parameter_File>
/export/apps/rDock/src/rDock_2013.1_src/data/scripts/dock_solv.prm

>  <Rbt.Receptor>
prm/pocket_docking_5.prm

>  <SCORE>
-5.64089

>  <SCORE.INTER>
-4.23094

>  <SCORE.INTER.CONST>
1

>  <SCORE.INTER.POLAR>
0

>  <SCORE.INTER.ROT>
3

>  <SCORE.INTER.SOLV>
9.59732

>  <SCORE.INTER.VDW>
-11.6197

>  <SCORE.INTER.norm>
-0.264434

>  <SCORE.INTRA>
-1.40996

>  <SCORE.INTRA.DIHEDRAL>
-1.85969

>  <SCORE.INTRA.DIHEDRAL.0>
2.05999

>  <SCORE.INTRA.POLAR>
0

>  <SCORE.INTRA.POLAR.0>
0

>  <SCORE.INTRA.REPUL>
0

>  <SCORE.INTRA.REPUL.0>
0

>  <SCORE.INTRA.SOLV>
-0.419424

>  <SCORE.INTRA.SOLV.lig_0>
-58.7001

>  <SCORE.INTRA.VDW>
-0.270401

>  <SCORE.INTRA.VDW.0>
-0.401036

>  <SCORE.INTRA.norm>
-0.0881224

>  <SCORE.RESTR>
0

>  <SCORE.RESTR.CAVITY>
0

>  <SCORE.RESTR.norm>
0

>  <SCORE.SYSTEM>
0

>  <SCORE.SYSTEM.CONST>
0

>  <SCORE.SYSTEM.DIHEDRAL>
0

>  <SCORE.SYSTEM.SOLV>
0

>  <SCORE.SYSTEM.norm>
0

>  <SCORE.heavy>
16

>  <SCORE.norm>
-0.352556

>  <RMSD>
3.910

$$$$
ligand
 OpenBabel11021811463D
libRbt.so/2013.1/901 2013/11/27
 16 16  0  0  0  0  0  0  0  0999 V2000
   49.2252   31.2353   48.9449 P   0  0  2  0  0  0  0  0  0  0  0  0
   48.5550   30.6461   47.7591 O   0  0  0  0  0  0  0  0  0  0  0  0
   50.0191   32.5665   48.4988 O   0  5  0  0  0  0  0  0  0  0  0  0
   50.2607   30.1503   49.5513 O   0  0  0  0  0  0  0  0  0  0  0  0
   47.5932   33.0999   54.6401 C   0  0  2  0  0  0  0  0  0  0  0  0
   46.7436   31.9673   54.9330 O   0  0  0  0  0  0  0  0  0  0  0  0
   46.7453   34.3587   54.2961 C   0  0  2  0  0  0  0  0  0  0  0  0
   45.8503   34.6742   55.4247 N   0  0  0  0  0  0  0  0  0  0  0  0
   45.9144   34.0645   53.0278 C   0  0  1  0  0  0  0  0  0  0  0  0
   45.1244   35.2145   52.6815 O   0  0  0  0  0  0  0  0  0  0  0  0
   46.9032   33.7429   51.8880 C   0  0  2  0  0  0  0  0  0  0  0  0
   46.1628   33.4554   50.6895 O   0  0  0  0  0  0  0  0  0  0  0  0
   47.7401   32.4946   52.3054 C   0  0  2  0  0  0  0  0  0  0  0  0
   48.4855   32.7634   53.5302 O   0  0  0  0  0  0  0  0  0  0  0  0
   48.7630   32.1301   51.2171 C   0  0  0  0  0  0  0  0  0  0  0  0
   48.1011   31.6182   50.0470 O   0  0  0  0  0  0  0  0  0  0  0  0
  1  2  1  6  0  0  0
  1  3  1  0  0  0  0
  1  4  2  0  0  0  0
  1 16  1  0  0  0  0
  5  6  1  6  0  0  0
  5  7  1  0  0  0  0
  5 14  1  0  0  0  0
  7  8  1  1  0  0  0
  7  9  1  0  0  0  0
  9 10  1  6  0  0  0
  9 11  1  0  0  0  0
 11 12  1  6  0  0  0
 11 13  1  0  0  0  0
 13 14  1  0  0  0  0
 13 15  1  6  0  0  0
 15 16  1  0  0  0  0
M  CHG  1   3  -1
M  END
>  <CHROM.1>
-69.47813848,-179.31699931,177.33751401,47.77520706,32.61379558,51.56195965
0.91119171,0.75804877,-1.56167688

>  <Name>
ligand

>  <RI>
0

>  <Rbt.Current_Directory>
/home/itssahil/PROJECTS/Mol_Feturizer/New_Systems/rnas/3B4A

>  <Rbt.Executable>
rbdock ($Id: //depot/dev/client3/rdock/2013.1/src/exe/rbdock.cxx#4 $)

>  <Rbt.Library>
libRbt.so (2013.1, Build901 2013/11/27)

>  <Rbt.Parameter_File>
/export/apps/rDock/src/rDock_2013.1_src/data/scripts/dock_solv.prm

>  <Rbt.Receptor>
prm/pocket_docking_8.prm

>  <SCORE>
-7.98098

>  <SCORE.INTER>
-6.75247

>  <SCORE.INTER.CONST>
1

>  <SCORE.INTER.POLAR>
0

>  <SCORE.INTER.ROT>
3

>  <SCORE.INTER.SOLV>
19.3389

>  <SCORE.INTER.VDW>
-16.548

>  <SCORE.INTER.norm>
-0.42203

>  <SCORE.INTRA>
-1.2285

>  <SCORE.INTRA.DIHEDRAL>
-1.72815

>  <SCORE.INTRA.DIHEDRAL.0>
2.05999

>  <SCORE.INTRA.POLAR>
0

>  <SCORE.INTRA.POLAR.0>
0

>  <SCORE.INTRA.REPUL>
0

>  <SCORE.INTRA.REPUL.0>
0

>  <SCORE.INTRA.SOLV>
-0.0763912

>  <SCORE.INTRA.SOLV.lig_0>
-58.7001

>  <SCORE.INTRA.VDW>
-0.326232

>  <SCORE.INTRA.VDW.0>
-0.401036

>  <SCORE.INTRA.norm>
-0.0767814

>  <SCORE.RESTR>
0

>  <SCORE.RESTR.CAVITY>
0

>  <SCORE.RESTR.norm>
0

>  <SCORE.SYSTEM>
0

>  <SCORE.SYSTEM.CONST>
0

>  <SCORE.SYSTEM.DIHEDRAL>
0

>  <SCORE.SYSTEM.SOLV>
0

>  <SCORE.SYSTEM.norm>
0

>  <SCORE.heavy>
16

>  <SCORE.norm>
-0.498811

>  <RMSD>
3.945

$$$$
ligand
 OpenBabel11021811463D
libRbt.so/2013.1/901 2013/11/27
 16 16  0  0  0  0  0  0  0  0999 V2000
   49.1474   31.1907   48.9505 P   0  0  2  0  0  0  0  0  0  0  0  0
   48.4645   30.5193   47.8168 O   0  0  0  0  0  0  0  0  0  0  0  0
   49.9592   32.4702   48.3984 O   0  5  0  0  0  0  0  0  0  0  0  0
   50.1689   30.1418   49.6388 O   0  0  0  0  0  0  0  0  0  0  0  0
   47.5606   33.0560   54.6491 C   0  0  2  0  0  0  0  0  0  0  0  0
   46.6802   31.9394   54.9107 O   0  0  0  0  0  0  0  0  0  0  0  0
   46.7477   34.3465   54.3396 C   0  0  2  0  0  0  0  0  0  0  0  0
   45.8606   34.6551   55.4763 N   0  0  0  0  0  0  0  0  0  0  0  0
   45.9103   34.1099   53.0636 C   0  0  1  0  0  0  0  0  0  0  0  0
   45.1522   35.2901   52.7488 O   0  0  0  0  0  0  0  0  0  0  0  0
   46.8911   33.7928   51.9155 C   0  0  2  0  0  0  0  0  0  0  0  0
   46.1442   33.5586   50.7095 O   0  0  0  0  0  0  0  0  0  0  0  0
   47.6932   32.5112   52.2988 C   0  0  2  0  0  0  0  0  0  0  0  0
   48.4445   32.7259   53.5305 O   0  0  0  0  0  0  0  0  0  0  0  0
   48.7068   32.1490   51.2010 C   0  0  0  0  0  0  0  0  0  0  0  0
   48.0328   31.6764   50.0213 O   0  0  0  0  0  0  0  0  0  0  0  0
  1  2  1  6  0  0  0
  1  3  1  0  0  0  0
  1  4  2  0  0  0  0
  1 16  1  0  0  0  0
  5  6  1  6  0  0  0
  5  7  1  0  0  0  0
  5 14  1  0  0  0  0
  7  8  1  1  0  0  0
  7  9  1  0  0  0  0
  9 10  1  6  0  0  0
  9 11  1  0  0  0  0
 11 12  1  6  0  0  0
 11 13  1  0  0  0  0
 13 14  1  0  0  0  0
 13 15  1  6  0  0  0
 15 16  1  0  0  0  0
M  CHG  1   3  -1
M  END
>  <CHROM.1>
-69.98200868,-175.16533311,171.75635619,47.73253772,32.60738307,51.57562669
-0.90250283,-0.79296574,1.59534080

>  <Name>
ligand

>  <RI>
0

>  <Rbt.Current_Directory>
/home/itssahil/PROJECTS/Mol_Feturizer/New_Systems/rnas/3B4A

>  <Rbt.Executable>
rbdock ($Id: //depot/dev/client3/rdock/2013.1/src/exe/rbdock.cxx#4 $)

>  <Rbt.Library>
libRbt.so (2013.1, Build901 2013/11/27)

>  <Rbt.Parameter_File>
/export/apps/rDock/src/rDock_2013.1_src/data/scripts/dock_solv.prm

>  <Rbt.Receptor>
prm/pocket_docking_7.prm

>  <SCORE>
-7.95381

>  <SCORE.INTER>
-6.87691

>  <SCORE.INTER.CONST>
1

>  <SCORE.INTER.POLAR>
0

>  <SCORE.INTER.ROT>
3

>  <SCORE.INTER.SOLV>
20.0405

>  <SCORE.INTER.VDW>
-16.8648

>  <SCORE.INTER.norm>
-0.429807

>  <SCORE.INTRA>
-1.0769

>  <SCORE.INTRA.DIHEDRAL>
-1.48369

>  <SCORE.INTRA.DIHEDRAL.0>
2.05999

>  <SCORE.INTRA.POLAR>
0

>  <SCORE.INTRA.POLAR.0>
0

>  <SCORE.INTRA.REPUL>
0

>  <SCORE.INTRA.REPUL.0>
0

>  <SCORE.INTRA.SOLV>
-0.12522

>  <SCORE.INTRA.SOLV.lig_0>
-58.7001

>  <SCORE.INTRA.VDW>
-0.272444

>  <SCORE.INTRA.VDW.0>
-0.401036

>  <SCORE.INTRA.norm>
-0.0673062

>  <SCORE.RESTR>
0

>  <SCORE.RESTR.CAVITY>
0

>  <SCORE.RESTR.norm>
0

>  <SCORE.SYSTEM>
0

>  <SCORE.SYSTEM.CONST>
0

>  <SCORE.SYSTEM.DIHEDRAL>
0

>  <SCORE.SYSTEM.SOLV>
0

>  <SCORE.SYSTEM.norm>
0

>  <SCORE.heavy>
16

>  <SCORE.norm>
-0.497113

>  <RMSD>
3.972

$$$$
ligand
 OpenBabel11021811463D
libRbt.so/2013.1/901 2013/11/27
 16 16  0  0  0  0  0  0  0  0999 V2000
   46.6447   36.9056   49.5896 P   0  0  2  0  0  0  0  0  0  0  0  0
   45.7871   36.6775   48.4001 O   0  0  0  0  0  0  0  0  0  0  0  0
   46.2967   38.3460   50.2263 O   0  5  0  0  0  0  0  0  0  0  0  0
   48.1953   36.8635   49.1303 O   0  0  0  0  0  0  0  0  0  0  0  0
   47.9973   33.8622   54.8301 C   0  0  2  0  0  0  0  0  0  0  0  0
   47.9455   32.5394   54.2488 O   0  0  0  0  0  0  0  0  0  0  0  0
   46.7213   34.1511   55.6730 C   0  0  2  0  0  0  0  0  0  0  0  0
   46.5904   33.1354   56.7338 N   0  0  0  0  0  0  0  0  0  0  0  0
   45.4909   34.1043   54.7405 C   0  0  1  0  0  0  0  0  0  0  0  0
   44.2957   34.3747   55.4920 O   0  0  0  0  0  0  0  0  0  0  0  0
   45.6869   35.1849   53.6569 C   0  0  2  0  0  0  0  0  0  0  0  0
   44.5607   35.1654   52.7634 O   0  0  0  0  0  0  0  0  0  0  0  0
   46.9928   34.8560   52.8700 C   0  0  2  0  0  0  0  0  0  0  0  0
   48.1444   34.8552   53.7653 O   0  0  0  0  0  0  0  0  0  0  0  0
   47.2587   35.9095   51.7823 C   0  0  0  0  0  0  0  0  0  0  0  0
   46.3487   35.7449   50.6805 O   0  0  0  0  0  0  0  0  0  0  0  0
  1  2  1  6  0  0  0
  1  3  1  0  0  0  0
  1  4  2  0  0  0  0
  1 16  1  0  0  0  0
  5  6  1  6  0  0  0
  5  7  1  0  0  0  0
  5 14  1  0  0  0  0
  7  8  1  1  0  0  0
  7  9  1  0  0  0  0
  9 10  1  1  0  0  0
  9 11  1  0  0  0  0
 11 12  1  6  0  0  0
 11 13  1  0  0  0  0
 13 14  1  0  0  0  0
 13 15  1  6  0  0  0
 15 16  1  0  0  0  0
M  CHG  1   3  -1
M  END
>  <CHROM.1>
-73.67411366,178.29618903,175.40180612,46.55808073,35.32421626,52.48052207
-1.54188210,-0.25145085,2.08584317

>  <Name>
ligand

>  <RI>
0

>  <Rbt.Current_Directory>
/home/itssahil/PROJECTS/Mol_Feturizer/New_Systems/rnas/3B4A

>  <Rbt.Executable>
rbdock ($Id: //depot/dev/client3/rdock/2013.1/src/exe/rbdock.cxx#4 $)

>  <Rbt.Library>
libRbt.so (2013.1, Build901 2013/11/27)

>  <Rbt.Parameter_File>
/export/apps/rDock/src/rDock_2013.1_src/data/scripts/dock_solv.prm

>  <Rbt.Receptor>
prm/pocket_docking_5.prm

>  <SCORE>
-8.1979

>  <SCORE.INTER>
-7.09455

>  <SCORE.INTER.CONST>
1

>  <SCORE.INTER.POLAR>
0

>  <SCORE.INTER.ROT>
3

>  <SCORE.INTER.SOLV>
17.8164

>  <SCORE.INTER.VDW>
-16.2685

>  <SCORE.INTER.norm>
-0.44341

>  <SCORE.INTRA>
-1.10335

>  <SCORE.INTRA.DIHEDRAL>
-1.36474

>  <SCORE.INTRA.DIHEDRAL.0>
2.05999

>  <SCORE.INTRA.POLAR>
0

>  <SCORE.INTRA.POLAR.0>
0

>  <SCORE.INTRA.REPUL>
0

>  <SCORE.INTRA.REPUL.0>
0

>  <SCORE.INTRA.SOLV>
-0.0896309

>  <SCORE.INTRA.SOLV.lig_0>
-58.7001

>  <SCORE.INTRA.VDW>
-0.376159

>  <SCORE.INTRA.VDW.0>
-0.401036

>  <SCORE.INTRA.norm>
-0.0689592

>  <SCORE.RESTR>
0

>  <SCORE.RESTR.CAVITY>
0

>  <SCORE.RESTR.norm>
0

>  <SCORE.SYSTEM>
0

>  <SCORE.SYSTEM.CONST>
0

>  <SCORE.SYSTEM.DIHEDRAL>
0

>  <SCORE.SYSTEM.SOLV>
0

>  <SCORE.SYSTEM.norm>
0

>  <SCORE.heavy>
16

>  <SCORE.norm>
-0.512369

>  <RMSD>
4.259

$$$$
ligand
 OpenBabel11021811463D
libRbt.so/2013.1/901 2013/11/27
 16 16  0  0  0  0  0  0  0  0999 V2000
   47.2181   37.1011   49.6451 P   0  0  2  0  0  0  0  0  0  0  0  0
   45.9417   37.0892   48.8882 O   0  0  0  0  0  0  0  0  0  0  0  0
   47.4125   38.5459   50.3350 O   0  5  0  0  0  0  0  0  0  0  0  0
   48.4350   36.8090   48.6198 O   0  0  0  0  0  0  0  0  0  0  0  0
   47.4006   33.8377   54.3553 C   0  0  2  0  0  0  0  0  0  0  0  0
   46.7694   32.6755   53.7712 O   0  0  0  0  0  0  0  0  0  0  0  0
   46.6216   34.3228   55.6121 C   0  0  2  0  0  0  0  0  0  0  0  0
   46.5528   33.2317   56.6015 N   0  0  0  0  0  0  0  0  0  0  0  0
   45.1974   34.7380   55.1820 C   0  0  1  0  0  0  0  0  0  0  0  0
   44.4550   35.1979   56.3239 O   0  0  0  0  0  0  0  0  0  0  0  0
   45.3363   35.8774   54.1511 C   0  0  2  0  0  0  0  0  0  0  0  0
   44.0264   36.2856   53.7212 O   0  0  0  0  0  0  0  0  0  0  0  0
   46.1487   35.3380   52.9339 C   0  0  2  0  0  0  0  0  0  0  0  0
   47.4759   34.9035   53.3554 O   0  0  0  0  0  0  0  0  0  0  0  0
   46.3409   36.4338   51.8727 C   0  0  0  0  0  0  0  0  0  0  0  0
   47.1598   35.9568   50.7905 O   0  0  0  0  0  0  0  0  0  0  0  0
  1  2  1  6  0  0  0
  1  3  1  0  0  0  0
  1  4  2  0  0  0  0
  1 16  1  0  0  0  0
  5  6  1  6  0  0  0
  5  7  1  0  0  0  0
  5 14  1  0  0  0  0
  7  8  1  1  0  0  0
  7  9  1  0  0  0  0
  9 10  1  1  0  0  0
  9 11  1  0  0  0  0
 11 12  1  6  0  0  0
 11 13  1  0  0  0  0
 13 14  1  0  0  0  0
 13 15  1  6  0  0  0
 15 16  1  0  0  0  0
M  CHG  1   3  -1
M  END
>  <CHROM.1>
176.46552773,174.98524506,-76.69916359,46.46901063,35.66758691,52.57869277
-1.30489235,-0.66513782,2.19691445

>  <Name>
ligand

>  <RI>
0

>  <Rbt.Current_Directory>
/home/itssahil/PROJECTS/Mol_Feturizer/New_Systems/rnas/3B4A

>  <Rbt.Executable>
rbdock ($Id: //depot/dev/client3/rdock/2013.1/src/exe/rbdock.cxx#4 $)

>  <Rbt.Library>
libRbt.so (2013.1, Build901 2013/11/27)

>  <Rbt.Parameter_File>
/export/apps/rDock/src/rDock_2013.1_src/data/scripts/dock_solv.prm

>  <Rbt.Receptor>
prm/pocket_docking_7.prm

>  <SCORE>
-7.29156

>  <SCORE.INTER>
-6.19713

>  <SCORE.INTER.CONST>
1

>  <SCORE.INTER.POLAR>
0

>  <SCORE.INTER.ROT>
3

>  <SCORE.INTER.SOLV>
16.0245

>  <SCORE.INTER.VDW>
-15.0729

>  <SCORE.INTER.norm>
-0.387321

>  <SCORE.INTRA>
-1.09443

>  <SCORE.INTRA.DIHEDRAL>
-1.46055

>  <SCORE.INTRA.DIHEDRAL.0>
2.05999

>  <SCORE.INTRA.POLAR>
0

>  <SCORE.INTRA.POLAR.0>
0

>  <SCORE.INTRA.REPUL>
0

>  <SCORE.INTRA.REPUL.0>
0

>  <SCORE.INTRA.SOLV>
-0.907

>  <SCORE.INTRA.SOLV.lig_0>
-58.7001

>  <SCORE.INTRA.VDW>
0.0893418

>  <SCORE.INTRA.VDW.0>
-0.401036

>  <SCORE.INTRA.norm>
-0.0684019

>  <SCORE.RESTR>
0

>  <SCORE.RESTR.CAVITY>
0

>  <SCORE.RESTR.norm>
0

>  <SCORE.SYSTEM>
0

>  <SCORE.SYSTEM.CONST>
0

>  <SCORE.SYSTEM.DIHEDRAL>
0

>  <SCORE.SYSTEM.SOLV>
0

>  <SCORE.SYSTEM.norm>
0

>  <SCORE.heavy>
16

>  <SCORE.norm>
-0.455723

>  <RMSD>
4.289

$$$$
ligand
 OpenBabel11021811463D
libRbt.so/2013.1/901 2013/11/27
 16 16  0  0  0  0  0  0  0  0999 V2000
   49.5484   31.4544   49.0861 P   0  0  2  0  0  0  0  0  0  0  0  0
   50.2351   32.0632   47.9198 O   0  0  0  0  0  0  0  0  0  0  0  0
   50.6030   30.5586   49.9146 O   0  5  0  0  0  0  0  0  0  0  0  0
   48.3348   30.5278   48.5514 O   0  0  0  0  0  0  0  0  0  0  0  0
   45.7489   34.4884   52.1381 C   0  0  2  0  0  0  0  0  0  0  0  0
   46.5357   35.6999   52.1963 O   0  0  0  0  0  0  0  0  0  0  0  0
   45.3909   33.9869   53.5672 C   0  0  2  0  0  0  0  0  0  0  0  0
   44.6505   35.0387   54.2880 N   0  0  0  0  0  0  0  0  0  0  0  0
   46.6994   33.6522   54.3166 C   0  0  1  0  0  0  0  0  0  0  0  0
   46.3989   33.1791   55.6404 O   0  0  0  0  0  0  0  0  0  0  0  0
   47.4253   32.5509   53.5163 C   0  0  2  0  0  0  0  0  0  0  0  0
   48.6554   32.2183   54.1823 O   0  0  0  0  0  0  0  0  0  0  0  0
   47.7284   33.1035   52.0896 C   0  0  2  0  0  0  0  0  0  0  0  0
   46.4911   33.4620   51.4052 O   0  0  0  0  0  0  0  0  0  0  0  0
   48.4375   32.0446   51.2297 C   0  0  0  0  0  0  0  0  0  0  0  0
   48.9780   32.6370   50.0354 O   0  0  0  0  0  0  0  0  0  0  0  0
  1  2  1  6  0  0  0
  1  3  1  0  0  0  0
  1  4  2  0  0  0  0
  1 16  1  0  0  0  0
  5  6  1  1  0  0  0
  5  7  1  0  0  0  0
  5 14  1  0  0  0  0
  7  8  1  1  0  0  0
  7  9  1  0  0  0  0
  9 10  1  1  0  0  0
  9 11  1  0  0  0  0
 11 12  1  1  0  0  0
 11 13  1  0  0  0  0
 13 14  1  0  0  0  0
 13 15  1  6  0  0  0
 15 16  1  0  0  0  0
M  CHG  1   3  -1
M  END
>  <CHROM.1>
-167.21133178,-173.09747178,-174.10243528,47.80828510,32.78197469,51.62628080
0.71582146,0.78409763,-1.38994472

>  <Name>
ligand

>  <RI>
0

>  <Rbt.Current_Directory>
/home/itssahil/PROJECTS/Mol_Feturizer/New_Systems/rnas/3B4A

>  <Rbt.Executable>
rbdock ($Id: //depot/dev/client3/rdock/2013.1/src/exe/rbdock.cxx#4 $)

>  <Rbt.Library>
libRbt.so (2013.1, Build901 2013/11/27)

>  <Rbt.Parameter_File>
/export/apps/rDock/src/rDock_2013.1_src/data/scripts/dock_solv.prm

>  <Rbt.Receptor>
prm/pocket_docking_6.prm

>  <SCORE>
-6.69126

>  <SCORE.INTER>
-5.61872

>  <SCORE.INTER.CONST>
1

>  <SCORE.INTER.POLAR>
0

>  <SCORE.INTER.ROT>
3

>  <SCORE.INTER.SOLV>
16.4838

>  <SCORE.INTER.VDW>
-14.8404

>  <SCORE.INTER.norm>
-0.35117

>  <SCORE.INTRA>
-1.07254

>  <SCORE.INTRA.DIHEDRAL>
-1.1949

>  <SCORE.INTRA.DIHEDRAL.0>
2.05999

>  <SCORE.INTRA.POLAR>
0

>  <SCORE.INTRA.POLAR.0>
0

>  <SCORE.INTRA.REPUL>
0

>  <SCORE.INTRA.REPUL.0>
0

>  <SCORE.INTRA.SOLV>
-0.40875

>  <SCORE.INTRA.SOLV.lig_0>
-58.7001

>  <SCORE.INTRA.VDW>
-0.270715

>  <SCORE.INTRA.VDW.0>
-0.401036

>  <SCORE.INTRA.norm>
-0.0670337

>  <SCORE.RESTR>
0

>  <SCORE.RESTR.CAVITY>
0

>  <SCORE.RESTR.norm>
0

>  <SCORE.SYSTEM>
0

>  <SCORE.SYSTEM.CONST>
0

>  <SCORE.SYSTEM.DIHEDRAL>
0

>  <SCORE.SYSTEM.SOLV>
0

>  <SCORE.SYSTEM.norm>
0

>  <SCORE.heavy>
16

>  <SCORE.norm>
-0.418204

>  <RMSD>
4.319

$$$$
ligand
 OpenBabel11021811463D
libRbt.so/2013.1/901 2013/11/27
 16 16  0  0  0  0  0  0  0  0999 V2000
   47.0843   36.9428   49.6485 P   0  0  2  0  0  0  0  0  0  0  0  0
   45.8604   36.6935   48.8469 O   0  0  0  0  0  0  0  0  0  0  0  0
   47.0401   38.4462   50.2307 O   0  5  0  0  0  0  0  0  0  0  0  0
   48.3784   36.7559   48.6959 O   0  0  0  0  0  0  0  0  0  0  0  0
   47.3343   33.7999   54.4324 C   0  0  2  0  0  0  0  0  0  0  0  0
   46.6949   32.6288   53.8757 O   0  0  0  0  0  0  0  0  0  0  0  0
   46.5693   34.3088   55.6885 C   0  0  2  0  0  0  0  0  0  0  0  0
   46.5091   33.2356   56.6978 N   0  0  0  0  0  0  0  0  0  0  0  0
   45.1415   34.7190   55.2661 C   0  0  1  0  0  0  0  0  0  0  0  0
   44.4119   35.2005   56.4074 O   0  0  0  0  0  0  0  0  0  0  0  0
   45.2714   35.8397   54.2137 C   0  0  2  0  0  0  0  0  0  0  0  0
   43.9577   36.2426   53.7904 O   0  0  0  0  0  0  0  0  0  0  0  0
   46.0700   35.2771   52.9977 C   0  0  2  0  0  0  0  0  0  0  0  0
   47.4008   34.8477   53.4129 O   0  0  0  0  0  0  0  0  0  0  0  0
   46.2528   36.3535   51.9153 C   0  0  0  0  0  0  0  0  0  0  0  0
   47.1316   35.8870   50.8764 O   0  0  0  0  0  0  0  0  0  0  0  0
  1  2  1  6  0  0  0
  1  3  1  0  0  0  0
  1  4  2  0  0  0  0
  1 16  1  0  0  0  0
  5  6  1  6  0  0  0
  5  7  1  0  0  0  0
  5 14  1  0  0  0  0
  7  8  1  1  0  0  0
  7  9  1  0  0  0  0
  9 10  1  1  0  0  0
  9 11  1  0  0  0  0
 11 12  1  6  0  0  0
 11 13  1  0  0  0  0
 13 14  1  0  0  0  0
 13 15  1  6  0  0  0
 15 16  1  0  0  0  0
M  CHG  1   3  -1
M  END
>  <CHROM.1>
172.64684324,170.22459706,-79.57479054,46.37804875,35.58682976,52.62664284
-1.31913620,-0.67388328,2.16429704

>  <Name>
ligand

>  <RI>
0

>  <Rbt.Current_Directory>
/home/itssahil/PROJECTS/Mol_Feturizer/New_Systems/rnas/3B4A

>  <Rbt.Executable>
rbdock ($Id: //depot/dev/client3/rdock/2013.1/src/exe/rbdock.cxx#4 $)

>  <Rbt.Library>
libRbt.so (2013.1, Build901 2013/11/27)

>  <Rbt.Parameter_File>
/export/apps/rDock/src/rDock_2013.1_src/data/scripts/dock_solv.prm

>  <Rbt.Receptor>
prm/pocket_docking_8.prm

>  <SCORE>
-7.26861

>  <SCORE.INTER>
-6.58466

>  <SCORE.INTER.CONST>
1

>  <SCORE.INTER.POLAR>
0

>  <SCORE.INTER.ROT>
3

>  <SCORE.INTER.SOLV>
17.0669

>  <SCORE.INTER.VDW>
-15.6787

>  <SCORE.INTER.norm>
-0.411541

>  <SCORE.INTRA>
-0.683943

>  <SCORE.INTRA.DIHEDRAL>
-0.828904

>  <SCORE.INTRA.DIHEDRAL.0>
2.05999

>  <SCORE.INTRA.POLAR>
0

>  <SCORE.INTRA.POLAR.0>
0

>  <SCORE.INTRA.REPUL>
0

>  <SCORE.INTRA.REPUL.0>
0

>  <SCORE.INTRA.SOLV>
-0.886432

>  <SCORE.INTRA.SOLV.lig_0>
-58.7001

>  <SCORE.INTRA.VDW>
0.173726

>  <SCORE.INTRA.VDW.0>
-0.401036

>  <SCORE.INTRA.norm>
-0.0427464

>  <SCORE.RESTR>
0

>  <SCORE.RESTR.CAVITY>
0

>  <SCORE.RESTR.norm>
0

>  <SCORE.SYSTEM>
0

>  <SCORE.SYSTEM.CONST>
0

>  <SCORE.SYSTEM.DIHEDRAL>
0

>  <SCORE.SYSTEM.SOLV>
0

>  <SCORE.SYSTEM.norm>
0

>  <SCORE.heavy>
16

>  <SCORE.norm>
-0.454288

>  <RMSD>
4.320

$$$$
ligand
 OpenBabel11021811463D
libRbt.so/2013.1/901 2013/11/27
 16 16  0  0  0  0  0  0  0  0999 V2000
   49.5020   31.4692   49.0473 P   0  0  2  0  0  0  0  0  0  0  0  0
   50.4236   32.0728   48.0529 O   0  0  0  0  0  0  0  0  0  0  0  0
   50.2442   30.2394   49.7806 O   0  5  0  0  0  0  0  0  0  0  0  0
   48.1804   30.9396   48.2792 O   0  0  0  0  0  0  0  0  0  0  0  0
   45.3564   34.3217   52.6115 C   0  0  2  0  0  0  0  0  0  0  0  0
   45.7314   35.6350   52.1371 O   0  0  0  0  0  0  0  0  0  0  0  0
   45.8595   34.0895   54.0658 C   0  0  2  0  0  0  0  0  0  0  0  0
   45.3019   35.1275   54.9523 N   0  0  0  0  0  0  0  0  0  0  0  0
   47.4024   34.1600   54.0730 C   0  0  1  0  0  0  0  0  0  0  0  0
   47.8968   33.9421   55.4052 O   0  0  0  0  0  0  0  0  0  0  0  0
   47.9231   33.0545   53.1311 C   0  0  2  0  0  0  0  0  0  0  0  0
   49.3601   33.0951   53.1069 O   0  0  0  0  0  0  0  0  0  0  0  0
   47.3616   33.3268   51.7017 C   0  0  2  0  0  0  0  0  0  0  0  0
   45.9031   33.3058   51.7112 O   0  0  0  0  0  0  0  0  0  0  0  0
   47.8289   32.2461   50.7131 C   0  0  0  0  0  0  0  0  0  0  0  0
   49.1035   32.5935   50.1438 O   0  0  0  0  0  0  0  0  0  0  0  0
  1  2  1  6  0  0  0
  1  3  1  0  0  0  0
  1  4  2  0  0  0  0
  1 16  1  0  0  0  0
  5  6  1  6  0  0  0
  5  7  1  0  0  0  0
  5 14  1  0  0  0  0
  7  8  1  1  0  0  0
  7  9  1  0  0  0  0
  9 10  1  1  0  0  0
  9 11  1  0  0  0  0
 11 12  1  6  0  0  0
 11 13  1  0  0  0  0
 13 14  1  0  0  0  0
 13 15  1  6  0  0  0
 15 16  1  0  0  0  0
M  CHG  1   3  -1
M  END
>  <CHROM.1>
-87.33643398,-176.59638481,154.64735892,47.89069541,32.95414256,51.54939413
0.99730547,0.47249912,-1.83940573

>  <Name>
ligand

>  <RI>
0

>  <Rbt.Current_Directory>
/home/itssahil/PROJECTS/Mol_Feturizer/New_Systems/rnas/3B4A

>  <Rbt.Executable>
rbdock ($Id: //depot/dev/client3/rdock/2013.1/src/exe/rbdock.cxx#4 $)

>  <Rbt.Library>
libRbt.so (2013.1, Build901 2013/11/27)

>  <Rbt.Parameter_File>
/export/apps/rDock/src/rDock_2013.1_src/data/scripts/dock_solv.prm

>  <Rbt.Receptor>
prm/pocket_docking_8.prm

>  <SCORE>
-4.68975

>  <SCORE.INTER>
-5.04982

>  <SCORE.INTER.CONST>
1

>  <SCORE.INTER.POLAR>
0

>  <SCORE.INTER.ROT>
3

>  <SCORE.INTER.SOLV>
18.7568

>  <SCORE.INTER.VDW>
-15.2188

>  <SCORE.INTER.norm>
-0.315614

>  <SCORE.INTRA>
0.36007

>  <SCORE.INTRA.DIHEDRAL>
1.1751

>  <SCORE.INTRA.DIHEDRAL.0>
2.05999

>  <SCORE.INTRA.POLAR>
0

>  <SCORE.INTRA.POLAR.0>
0

>  <SCORE.INTRA.REPUL>
0

>  <SCORE.INTRA.REPUL.0>
0

>  <SCORE.INTRA.SOLV>
-0.340129

>  <SCORE.INTRA.SOLV.lig_0>
-58.7001

>  <SCORE.INTRA.VDW>
-0.0574161

>  <SCORE.INTRA.VDW.0>
-0.401036

>  <SCORE.INTRA.norm>
0.0225044

>  <SCORE.RESTR>
0

>  <SCORE.RESTR.CAVITY>
0

>  <SCORE.RESTR.norm>
0

>  <SCORE.SYSTEM>
0

>  <SCORE.SYSTEM.CONST>
0

>  <SCORE.SYSTEM.DIHEDRAL>
0

>  <SCORE.SYSTEM.SOLV>
0

>  <SCORE.SYSTEM.norm>
0

>  <SCORE.heavy>
16

>  <SCORE.norm>
-0.29311

>  <RMSD>
4.327

$$$$
ligand
 OpenBabel11021811463D
libRbt.so/2013.1/901 2013/11/27
 16 16  0  0  0  0  0  0  0  0999 V2000
   49.6616   31.3150   49.3334 P   0  0  2  0  0  0  0  0  0  0  0  0
   48.5928   30.4700   48.7451 O   0  0  0  0  0  0  0  0  0  0  0  0
   50.0261   32.5023   48.3045 O   0  5  0  0  0  0  0  0  0  0  0  0
   50.9651   30.3952   49.6016 O   0  0  0  0  0  0  0  0  0  0  0  0
   45.3200   34.4206   52.4701 C   0  0  2  0  0  0  0  0  0  0  0  0
   46.0049   35.6905   52.3787 O   0  0  0  0  0  0  0  0  0  0  0  0
   45.4679   33.8084   53.8933 C   0  0  2  0  0  0  0  0  0  0  0  0
   44.9291   34.7487   54.8932 N   0  0  0  0  0  0  0  0  0  0  0  0
   46.9653   33.5462   54.1662 C   0  0  1  0  0  0  0  0  0  0  0  0
   47.1323   32.9734   55.4741 O   0  0  0  0  0  0  0  0  0  0  0  0
   47.4684   32.5600   53.0916 C   0  0  2  0  0  0  0  0  0  0  0  0
   48.8651   32.2978   53.3102 O   0  0  0  0  0  0  0  0  0  0  0  0
   47.2661   33.2180   51.6921 C   0  0  2  0  0  0  0  0  0  0  0  0
   45.8550   33.5064   51.4604 O   0  0  0  0  0  0  0  0  0  0  0  0
   47.7315   32.2760   50.5698 C   0  0  0  0  0  0  0  0  0  0  0  0
   49.1238   31.9488   50.7241 O   0  0  0  0  0  0  0  0  0  0  0  0
  1  2  1  6  0  0  0
  1  3  1  0  0  0  0
  1  4  2  0  0  0  0
  1 16  1  0  0  0  0
  5  6  1  1  0  0  0
  5  7  1  0  0  0  0
  5 14  1  0  0  0  0
  7  8  1  1  0  0  0
  7  9  1  0  0  0  0
  9 10  1  1  0  0  0
  9 11  1  0  0  0  0
 11 12  1  1  0  0  0
 11 13  1  0  0  0  0
 13 14  1  0  0  0  0
 13 15  1  6  0  0  0
 15 16  1  0  0  0  0
M  CHG  1   3  -1
M  END
>  <CHROM.1>
-59.42829356,-164.44023463,-37.33681060,47.79343733,32.71414877,51.64706702
0.73582537,0.69576726,-1.50756857

>  <Name>
ligand

>  <RI>
0

>  <Rbt.Current_Directory>
/home/itssahil/PROJECTS/Mol_Feturizer/New_Systems/rnas/3B4A

>  <Rbt.Executable>
rbdock ($Id: //depot/dev/client3/rdock/2013.1/src/exe/rbdock.cxx#4 $)

>  <Rbt.Library>
libRbt.so (2013.1, Build901 2013/11/27)

>  <Rbt.Parameter_File>
/export/apps/rDock/src/rDock_2013.1_src/data/scripts/dock_solv.prm

>  <Rbt.Receptor>
prm/pocket_docking_8.prm

>  <SCORE>
-5.2108

>  <SCORE.INTER>
-5.38986

>  <SCORE.INTER.CONST>
1

>  <SCORE.INTER.POLAR>
0

>  <SCORE.INTER.ROT>
3

>  <SCORE.INTER.SOLV>
14.9438

>  <SCORE.INTER.VDW>
-14.1745

>  <SCORE.INTER.norm>
-0.336866

>  <SCORE.INTRA>
0.179056

>  <SCORE.INTRA.DIHEDRAL>
-0.175545

>  <SCORE.INTRA.DIHEDRAL.0>
2.05999

>  <SCORE.INTRA.POLAR>
0

>  <SCORE.INTRA.POLAR.0>
0

>  <SCORE.INTRA.REPUL>
0

>  <SCORE.INTRA.REPUL.0>
0

>  <SCORE.INTRA.SOLV>
-0.859907

>  <SCORE.INTRA.SOLV.lig_0>
-58.7001

>  <SCORE.INTRA.VDW>
0.696781

>  <SCORE.INTRA.VDW.0>
-0.401036

>  <SCORE.INTRA.norm>
0.011191

>  <SCORE.RESTR>
0

>  <SCORE.RESTR.CAVITY>
0

>  <SCORE.RESTR.norm>
0

>  <SCORE.SYSTEM>
0

>  <SCORE.SYSTEM.CONST>
0

>  <SCORE.SYSTEM.DIHEDRAL>
0

>  <SCORE.SYSTEM.SOLV>
0

>  <SCORE.SYSTEM.norm>
0

>  <SCORE.heavy>
16

>  <SCORE.norm>
-0.325675

>  <RMSD>
4.337

$$$$
ligand
 OpenBabel11021811463D
libRbt.so/2013.1/901 2013/11/27
 16 16  0  0  0  0  0  0  0  0999 V2000
   49.2302   31.5254   49.3874 P   0  0  2  0  0  0  0  0  0  0  0  0
   48.0075   30.9079   48.8163 O   0  0  0  0  0  0  0  0  0  0  0  0
   50.1448   32.0981   48.1889 O   0  5  0  0  0  0  0  0  0  0  0  0
   50.0446   30.3995   50.2159 O   0  0  0  0  0  0  0  0  0  0  0  0
   46.2559   35.1766   52.7366 C   0  0  2  0  0  0  0  0  0  0  0  0
   47.3536   36.0967   52.9334 O   0  0  0  0  0  0  0  0  0  0  0  0
   45.7287   34.6382   54.0983 C   0  0  2  0  0  0  0  0  0  0  0  0
   45.2985   35.7682   54.9423 N   0  0  0  0  0  0  0  0  0  0  0  0
   46.8651   33.8589   54.7960 C   0  0  1  0  0  0  0  0  0  0  0  0
   46.4040   33.3432   56.0561 O   0  0  0  0  0  0  0  0  0  0  0  0
   47.2695   32.6951   53.8674 C   0  0  2  0  0  0  0  0  0  0  0  0
   48.3338   31.9497   54.4829 O   0  0  0  0  0  0  0  0  0  0  0  0
   47.7587   33.2975   52.5144 C   0  0  2  0  0  0  0  0  0  0  0  0
   46.6953   34.0716   51.8837 O   0  0  0  0  0  0  0  0  0  0  0  0
   48.1607   32.1857   51.5316 C   0  0  0  0  0  0  0  0  0  0  0  0
   48.7960   32.7410   50.3666 O   0  0  0  0  0  0  0  0  0  0  0  0
  1  2  1  6  0  0  0
  1  3  1  0  0  0  0
  1  4  2  0  0  0  0
  1 16  1  0  0  0  0
  5  6  1  1  0  0  0
  5  7  1  0  0  0  0
  5 14  1  0  0  0  0
  7  8  1  1  0  0  0
  7  9  1  0  0  0  0
  9 10  1  1  0  0  0
  9 11  1  0  0  0  0
 11 12  1  1  0  0  0
 11 13  1  0  0  0  0
 13 14  1  0  0  0  0
 13 15  1  6  0  0  0
 15 16  1  0  0  0  0
M  CHG  1   3  -1
M  END
>  <CHROM.1>
-171.39236240,178.58058675,69.38001405,47.80678435,33.01646313,52.03622477
0.49899572,1.04799324,-1.09202794

>  <Name>
ligand

>  <RI>
0

>  <Rbt.Current_Directory>
/home/itssahil/PROJECTS/Mol_Feturizer/New_Systems/rnas/3B4A

>  <Rbt.Executable>
rbdock ($Id: //depot/dev/client3/rdock/2013.1/src/exe/rbdock.cxx#4 $)

>  <Rbt.Library>
libRbt.so (2013.1, Build901 2013/11/27)

>  <Rbt.Parameter_File>
/export/apps/rDock/src/rDock_2013.1_src/data/scripts/dock_solv.prm

>  <Rbt.Receptor>
prm/pocket_docking_7.prm

>  <SCORE>
-6.99055

>  <SCORE.INTER>
-5.57392

>  <SCORE.INTER.CONST>
1

>  <SCORE.INTER.POLAR>
0

>  <SCORE.INTER.ROT>
3

>  <SCORE.INTER.SOLV>
18.8462

>  <SCORE.INTER.VDW>
-15.598

>  <SCORE.INTER.norm>
-0.34837

>  <SCORE.INTRA>
-1.41663

>  <SCORE.INTRA.DIHEDRAL>
-1.63965

>  <SCORE.INTRA.DIHEDRAL.0>
2.05999

>  <SCORE.INTRA.POLAR>
0

>  <SCORE.INTRA.POLAR.0>
0

>  <SCORE.INTRA.REPUL>
0

>  <SCORE.INTRA.REPUL.0>
0

>  <SCORE.INTRA.SOLV>
-1.00126

>  <SCORE.INTRA.SOLV.lig_0>
-58.7001

>  <SCORE.INTRA.VDW>
-0.0961771

>  <SCORE.INTRA.VDW.0>
-0.401036

>  <SCORE.INTRA.norm>
-0.0885395

>  <SCORE.RESTR>
0

>  <SCORE.RESTR.CAVITY>
0

>  <SCORE.RESTR.norm>
0

>  <SCORE.SYSTEM>
0

>  <SCORE.SYSTEM.CONST>
0

>  <SCORE.SYSTEM.DIHEDRAL>
0

>  <SCORE.SYSTEM.SOLV>
0

>  <SCORE.SYSTEM.norm>
0

>  <SCORE.heavy>
16

>  <SCORE.norm>
-0.43691

>  <RMSD>
4.354

$$$$
ligand
 OpenBabel11021811463D
libRbt.so/2013.1/901 2013/11/27
 16 16  0  0  0  0  0  0  0  0999 V2000
   46.9010   37.0791   50.0561 P   0  0  2  0  0  0  0  0  0  0  0  0
   46.2321   35.7722   50.2734 O   0  0  0  0  0  0  0  0  0  0  0  0
   45.7828   38.2082   49.7810 O   0  5  0  0  0  0  0  0  0  0  0  0
   47.8872   36.9541   48.7797 O   0  0  0  0  0  0  0  0  0  0  0  0
   47.4543   34.3487   54.1442 C   0  0  2  0  0  0  0  0  0  0  0  0
   46.9004   33.4635   53.1443 O   0  0  0  0  0  0  0  0  0  0  0  0
   46.5015   34.4726   55.3685 C   0  0  2  0  0  0  0  0  0  0  0  0
   46.2661   33.1371   55.9475 N   0  0  0  0  0  0  0  0  0  0  0  0
   45.1659   35.0878   54.8961 C   0  0  1  0  0  0  0  0  0  0  0  0
   44.2663   35.2206   56.0095 O   0  0  0  0  0  0  0  0  0  0  0  0
   45.4777   36.4775   54.3028 C   0  0  2  0  0  0  0  0  0  0  0  0
   44.2548   37.0788   53.8443 O   0  0  0  0  0  0  0  0  0  0  0  0
   46.4566   36.2878   53.1035 C   0  0  2  0  0  0  0  0  0  0  0  0
   47.6973   35.6630   53.5483 O   0  0  0  0  0  0  0  0  0  0  0  0
   46.8249   37.6420   52.4757 C   0  0  0  0  0  0  0  0  0  0  0  0
   47.7450   37.4640   51.3844 O   0  0  0  0  0  0  0  0  0  0  0  0
  1  2  1  1  0  0  0
  1  3  1  0  0  0  0
  1  4  2  0  0  0  0
  1 16  1  0  0  0  0
  5  6  1  6  0  0  0
  5  7  1  0  0  0  0
  5 14  1  0  0  0  0
  7  8  1  6  0  0  0
  7  9  1  0  0  0  0
  9 10  1  1  0  0  0
  9 11  1  0  0  0  0
 11 12  1  6  0  0  0
 11 13  1  0  0  0  0
 13 14  1  0  0  0  0
 13 15  1  1  0  0  0
 15 16  1  0  0  0  0
M  CHG  1   3  -1
M  END
>  <CHROM.1>
179.04189896,82.74449913,-63.97771809,46.40145678,36.00894108,52.66566247
-1.29538775,-0.75225478,2.22451219

>  <Name>
ligand

>  <RI>
0

>  <Rbt.Current_Directory>
/home/itssahil/PROJECTS/Mol_Feturizer/New_Systems/rnas/3B4A

>  <Rbt.Executable>
rbdock ($Id: //depot/dev/client3/rdock/2013.1/src/exe/rbdock.cxx#4 $)

>  <Rbt.Library>
libRbt.so (2013.1, Build901 2013/11/27)

>  <Rbt.Parameter_File>
/export/apps/rDock/src/rDock_2013.1_src/data/scripts/dock_solv.prm

>  <Rbt.Receptor>
prm/pocket_docking_6.prm

>  <SCORE>
-5.97894

>  <SCORE.INTER>
-5.69059

>  <SCORE.INTER.CONST>
1

>  <SCORE.INTER.POLAR>
0

>  <SCORE.INTER.ROT>
3

>  <SCORE.INTER.SOLV>
14.8071

>  <SCORE.INTER.VDW>
-14.3294

>  <SCORE.INTER.norm>
-0.355662

>  <SCORE.INTRA>
-0.288357

>  <SCORE.INTRA.DIHEDRAL>
0.236319

>  <SCORE.INTRA.DIHEDRAL.0>
2.05999

>  <SCORE.INTRA.POLAR>
0

>  <SCORE.INTRA.POLAR.0>
0

>  <SCORE.INTRA.REPUL>
0

>  <SCORE.INTRA.REPUL.0>
0

>  <SCORE.INTRA.SOLV>
-0.13551

>  <SCORE.INTRA.SOLV.lig_0>
-58.7001

>  <SCORE.INTRA.VDW>
-0.338762

>  <SCORE.INTRA.VDW.0>
-0.401036

>  <SCORE.INTRA.norm>
-0.0180223

>  <SCORE.RESTR>
0

>  <SCORE.RESTR.CAVITY>
0

>  <SCORE.RESTR.norm>
0

>  <SCORE.SYSTEM>
0

>  <SCORE.SYSTEM.CONST>
0

>  <SCORE.SYSTEM.DIHEDRAL>
0

>  <SCORE.SYSTEM.SOLV>
0

>  <SCORE.SYSTEM.norm>
0

>  <SCORE.heavy>
16

>  <SCORE.norm>
-0.373684

>  <RMSD>
4.398

$$$$
ligand
 OpenBabel11021811463D
libRbt.so/2013.1/901 2013/11/27
 16 16  0  0  0  0  0  0  0  0999 V2000
   49.4423   31.3538   49.1460 P   0  0  2  0  0  0  0  0  0  0  0  0
   48.3009   30.6025   48.5670 O   0  0  0  0  0  0  0  0  0  0  0  0
   50.3305   31.9735   47.9510 O   0  5  0  0  0  0  0  0  0  0  0  0
   50.3379   30.3395   50.0328 O   0  0  0  0  0  0  0  0  0  0  0  0
   45.6820   34.4961   52.1489 C   0  0  2  0  0  0  0  0  0  0  0  0
   46.4997   35.6869   52.2106 O   0  0  0  0  0  0  0  0  0  0  0  0
   45.2990   34.0082   53.5762 C   0  0  2  0  0  0  0  0  0  0  0  0
   44.5803   35.0810   54.2880 N   0  0  0  0  0  0  0  0  0  0  0  0
   46.5918   33.6416   54.3375 C   0  0  1  0  0  0  0  0  0  0  0  0
   46.2679   33.1802   55.6599 O   0  0  0  0  0  0  0  0  0  0  0  0
   47.2955   32.5194   53.5463 C   0  0  2  0  0  0  0  0  0  0  0  0
   48.5108   32.1566   54.2236 O   0  0  0  0  0  0  0  0  0  0  0  0
   47.6249   33.0599   52.1208 C   0  0  2  0  0  0  0  0  0  0  0  0
   46.4032   33.4486   51.4250 O   0  0  0  0  0  0  0  0  0  0  0  0
   48.3133   31.9804   51.2697 C   0  0  0  0  0  0  0  0  0  0  0  0
   48.8664   32.5525   50.0714 O   0  0  0  0  0  0  0  0  0  0  0  0
  1  2  1  6  0  0  0
  1  3  1  0  0  0  0
  1  4  2  0  0  0  0
  1 16  1  0  0  0  0
  5  6  1  1  0  0  0
  5  7  1  0  0  0  0
  5 14  1  0  0  0  0
  7  8  1  1  0  0  0
  7  9  1  0  0  0  0
  9 10  1  1  0  0  0
  9 11  1  0  0  0  0
 11 12  1  1  0  0  0
 11 13  1  0  0  0  0
 13 14  1  0  0  0  0
 13 15  1  6  0  0  0
 15 16  1  0  0  0  0
M  CHG  1   3  -1
M  END
>  <CHROM.1>
-167.84323828,-174.29262076,72.13520298,47.71327289,32.73972170,51.65989231
0.67777493,0.81382344,-1.35340271

>  <Name>
ligand

>  <RI>
0

>  <Rbt.Current_Directory>
/home/itssahil/PROJECTS/Mol_Feturizer/New_Systems/rnas/3B4A

>  <Rbt.Executable>
rbdock ($Id: //depot/dev/client3/rdock/2013.1/src/exe/rbdock.cxx#4 $)

>  <Rbt.Library>
libRbt.so (2013.1, Build901 2013/11/27)

>  <Rbt.Parameter_File>
/export/apps/rDock/src/rDock_2013.1_src/data/scripts/dock_solv.prm

>  <Rbt.Receptor>
prm/pocket_docking_7.prm

>  <SCORE>
-7.16677

>  <SCORE.INTER>
-6.00572

>  <SCORE.INTER.CONST>
1

>  <SCORE.INTER.POLAR>
0

>  <SCORE.INTER.ROT>
3

>  <SCORE.INTER.SOLV>
16.5944

>  <SCORE.INTER.VDW>
-15.1353

>  <SCORE.INTER.norm>
-0.375358

>  <SCORE.INTRA>
-1.16105

>  <SCORE.INTRA.DIHEDRAL>
-1.14355

>  <SCORE.INTRA.DIHEDRAL.0>
2.05999

>  <SCORE.INTRA.POLAR>
0

>  <SCORE.INTRA.POLAR.0>
0

>  <SCORE.INTRA.REPUL>
0

>  <SCORE.INTRA.REPUL.0>
0

>  <SCORE.INTRA.SOLV>
-0.97231

>  <SCORE.INTRA.SOLV.lig_0>
-58.7001

>  <SCORE.INTRA.VDW>
-0.103115

>  <SCORE.INTRA.VDW.0>
-0.401036

>  <SCORE.INTRA.norm>
-0.0725653

>  <SCORE.RESTR>
0

>  <SCORE.RESTR.CAVITY>
0

>  <SCORE.RESTR.norm>
0

>  <SCORE.SYSTEM>
0

>  <SCORE.SYSTEM.CONST>
0

>  <SCORE.SYSTEM.DIHEDRAL>
0

>  <SCORE.SYSTEM.SOLV>
0

>  <SCORE.SYSTEM.norm>
0

>  <SCORE.heavy>
16

>  <SCORE.norm>
-0.447923

>  <RMSD>
4.426

$$$$
ligand
 OpenBabel11021811463D
libRbt.so/2013.1/901 2013/11/27
 16 16  0  0  0  0  0  0  0  0999 V2000
   46.9183   36.9611   49.4523 P   0  0  2  0  0  0  0  0  0  0  0  0
   45.7212   36.6833   48.6204 O   0  0  0  0  0  0  0  0  0  0  0  0
   46.7903   38.4367   50.0905 O   0  5  0  0  0  0  0  0  0  0  0  0
   48.2351   36.8751   48.5163 O   0  0  0  0  0  0  0  0  0  0  0  0
   47.4467   33.7564   54.1767 C   0  0  2  0  0  0  0  0  0  0  0  0
   46.7797   32.5886   53.6462 O   0  0  0  0  0  0  0  0  0  0  0  0
   46.7539   34.2506   55.4797 C   0  0  2  0  0  0  0  0  0  0  0  0
   46.7548   33.1674   56.4802 N   0  0  0  0  0  0  0  0  0  0  0  0
   45.3030   34.6600   55.1442 C   0  0  1  0  0  0  0  0  0  0  0  0
   44.6389   35.1280   56.3302 O   0  0  0  0  0  0  0  0  0  0  0  0
   45.3690   35.7912   54.0971 C   0  0  2  0  0  0  0  0  0  0  0  0
   44.0321   36.1939   53.7540 O   0  0  0  0  0  0  0  0  0  0  0  0
   46.0979   35.2432   52.8318 C   0  0  2  0  0  0  0  0  0  0  0  0
   47.4516   34.8142   53.1655 O   0  0  0  0  0  0  0  0  0  0  0  0
   46.2152   36.3307   51.7513 C   0  0  0  0  0  0  0  0  0  0  0  0
   46.9988   35.8618   50.6398 O   0  0  0  0  0  0  0  0  0  0  0  0
  1  2  1  6  0  0  0
  1  3  1  0  0  0  0
  1  4  2  0  0  0  0
  1 16  1  0  0  0  0
  5  6  1  6  0  0  0
  5  7  1  0  0  0  0
  5 14  1  0  0  0  0
  7  8  1  1  0  0  0
  7  9  1  0  0  0  0
  9 10  1  1  0  0  0
  9 11  1  0  0  0  0
 11 12  1  6  0  0  0
 11 13  1  0  0  0  0
 13 14  1  0  0  0  0
 13 15  1  6  0  0  0
 15 16  1  0  0  0  0
M  CHG  1   3  -1
M  END
>  <CHROM.1>
174.47622793,172.26029558,-86.90827011,46.38489525,35.56380554,52.44928674
-1.38315740,-0.70064082,2.13623980

>  <Name>
ligand

>  <RI>
0

>  <Rbt.Current_Directory>
/home/itssahil/PROJECTS/Mol_Feturizer/New_Systems/rnas/3B4A

>  <Rbt.Executable>
rbdock ($Id: //depot/dev/client3/rdock/2013.1/src/exe/rbdock.cxx#4 $)

>  <Rbt.Library>
libRbt.so (2013.1, Build901 2013/11/27)

>  <Rbt.Parameter_File>
/export/apps/rDock/src/rDock_2013.1_src/data/scripts/dock_solv.prm

>  <Rbt.Receptor>
prm/pocket_docking_6.prm

>  <SCORE>
-7.35233

>  <SCORE.INTER>
-6.99188

>  <SCORE.INTER.CONST>
1

>  <SCORE.INTER.POLAR>
0

>  <SCORE.INTER.ROT>
3

>  <SCORE.INTER.SOLV>
16.7386

>  <SCORE.INTER.VDW>
-15.8408

>  <SCORE.INTER.norm>
-0.436992

>  <SCORE.INTRA>
-0.360453

>  <SCORE.INTRA.DIHEDRAL>
-0.65237

>  <SCORE.INTRA.DIHEDRAL.0>
2.05999

>  <SCORE.INTRA.POLAR>
0

>  <SCORE.INTRA.POLAR.0>
0

>  <SCORE.INTRA.REPUL>
0

>  <SCORE.INTRA.REPUL.0>
0

>  <SCORE.INTRA.SOLV>
-0.811401

>  <SCORE.INTRA.SOLV.lig_0>
-58.7001

>  <SCORE.INTRA.VDW>
0.371432

>  <SCORE.INTRA.VDW.0>
-0.401036

>  <SCORE.INTRA.norm>
-0.0225283

>  <SCORE.RESTR>
0

>  <SCORE.RESTR.CAVITY>
0

>  <SCORE.RESTR.norm>
0

>  <SCORE.SYSTEM>
0

>  <SCORE.SYSTEM.CONST>
0

>  <SCORE.SYSTEM.DIHEDRAL>
0

>  <SCORE.SYSTEM.SOLV>
0

>  <SCORE.SYSTEM.norm>
0

>  <SCORE.heavy>
16

>  <SCORE.norm>
-0.459521

>  <RMSD>
4.432

$$$$
ligand
 OpenBabel11021811463D
libRbt.so/2013.1/901 2013/11/27
 16 16  0  0  0  0  0  0  0  0999 V2000
   49.4392   31.3274   49.1161 P   0  0  2  0  0  0  0  0  0  0  0  0
   48.2881   30.5804   48.5510 O   0  0  0  0  0  0  0  0  0  0  0  0
   50.3226   31.9326   47.9101 O   0  5  0  0  0  0  0  0  0  0  0  0
   50.3344   30.3128   50.0030 O   0  0  0  0  0  0  0  0  0  0  0  0
   45.6654   34.4273   52.1419 C   0  0  2  0  0  0  0  0  0  0  0  0
   46.4401   35.6480   52.1364 O   0  0  0  0  0  0  0  0  0  0  0  0
   45.3479   33.9750   53.5968 C   0  0  2  0  0  0  0  0  0  0  0  0
   44.6137   35.0450   54.2969 N   0  0  0  0  0  0  0  0  0  0  0  0
   46.6777   33.6812   54.3252 C   0  0  1  0  0  0  0  0  0  0  0  0
   46.4148   33.2539   55.6724 O   0  0  0  0  0  0  0  0  0  0  0  0
   47.3960   32.5586   53.5479 C   0  0  2  0  0  0  0  0  0  0  0  0
   48.6455   32.2630   54.1949 O   0  0  0  0  0  0  0  0  0  0  0  0
   47.6582   33.0616   52.0950 C   0  0  2  0  0  0  0  0  0  0  0  0
   46.4008   33.3822   51.4288 O   0  0  0  0  0  0  0  0  0  0  0  0
   48.3577   31.9790   51.2569 C   0  0  0  0  0  0  0  0  0  0  0  0
   48.8789   32.5365   50.0375 O   0  0  0  0  0  0  0  0  0  0  0  0
  1  2  1  6  0  0  0
  1  3  1  0  0  0  0
  1  4  2  0  0  0  0
  1 16  1  0  0  0  0
  5  6  1  1  0  0  0
  5  7  1  0  0  0  0
  5 14  1  0  0  0  0
  7  8  1  1  0  0  0
  7  9  1  0  0  0  0
  9 10  1  1  0  0  0
  9 11  1  0  0  0  0
 11 12  1  1  0  0  0
 11 13  1  0  0  0  0
 13 14  1  0  0  0  0
 13 15  1  6  0  0  0
 15 16  1  0  0  0  0
M  CHG  1   3  -1
M  END
>  <CHROM.1>
-166.40098675,-173.11314266,73.38841182,47.74342977,32.73132947,51.64167904
0.73360442,0.78434987,-1.42555084

>  <Name>
ligand

>  <RI>
0

>  <Rbt.Current_Directory>
/home/itssahil/PROJECTS/Mol_Feturizer/New_Systems/rnas/3B4A

>  <Rbt.Executable>
rbdock ($Id: //depot/dev/client3/rdock/2013.1/src/exe/rbdock.cxx#4 $)

>  <Rbt.Library>
libRbt.so (2013.1, Build901 2013/11/27)

>  <Rbt.Parameter_File>
/export/apps/rDock/src/rDock_2013.1_src/data/scripts/dock_solv.prm

>  <Rbt.Receptor>
prm/pocket_docking_6.prm

>  <SCORE>
-7.25043

>  <SCORE.INTER>
-6.23018

>  <SCORE.INTER.CONST>
1

>  <SCORE.INTER.POLAR>
0

>  <SCORE.INTER.ROT>
3

>  <SCORE.INTER.SOLV>
16.6897

>  <SCORE.INTER.VDW>
-15.3167

>  <SCORE.INTER.norm>
-0.389386

>  <SCORE.INTRA>
-1.02025

>  <SCORE.INTRA.DIHEDRAL>
-0.898108

>  <SCORE.INTRA.DIHEDRAL.0>
2.05999

>  <SCORE.INTRA.POLAR>
0

>  <SCORE.INTRA.POLAR.0>
0

>  <SCORE.INTRA.REPUL>
0

>  <SCORE.INTRA.REPUL.0>
0

>  <SCORE.INTRA.SOLV>
-0.960152

>  <SCORE.INTRA.SOLV.lig_0>
-58.7001

>  <SCORE.INTRA.VDW>
-0.0911247

>  <SCORE.INTRA.VDW.0>
-0.401036

>  <SCORE.INTRA.norm>
-0.0637659

>  <SCORE.RESTR>
0

>  <SCORE.RESTR.CAVITY>
0

>  <SCORE.RESTR.norm>
0

>  <SCORE.SYSTEM>
0

>  <SCORE.SYSTEM.CONST>
0

>  <SCORE.SYSTEM.DIHEDRAL>
0

>  <SCORE.SYSTEM.SOLV>
0

>  <SCORE.SYSTEM.norm>
0

>  <SCORE.heavy>
16

>  <SCORE.norm>
-0.453152

>  <RMSD>
4.438

$$$$
ligand
 OpenBabel11021811463D
libRbt.so/2013.1/901 2013/11/27
 16 16  0  0  0  0  0  0  0  0999 V2000
   49.2588   31.1708   49.0204 P   0  0  2  0  0  0  0  0  0  0  0  0
   48.4935   30.4269   47.9892 O   0  0  0  0  0  0  0  0  0  0  0  0
   50.0152   32.4144   48.3257 O   0  5  0  0  0  0  0  0  0  0  0  0
   50.3391   30.1703   49.6907 O   0  0  0  0  0  0  0  0  0  0  0  0
   45.6539   34.3054   51.9848 C   0  0  2  0  0  0  0  0  0  0  0  0
   46.1318   35.6175   52.3593 O   0  0  0  0  0  0  0  0  0  0  0  0
   45.3432   33.4449   53.2438 C   0  0  2  0  0  0  0  0  0  0  0  0
   44.3385   34.1326   54.0756 N   0  0  0  0  0  0  0  0  0  0  0  0
   46.6494   33.2496   54.0445 C   0  0  1  0  0  0  0  0  0  0  0  0
   46.3938   32.4510   55.2123 O   0  0  0  0  0  0  0  0  0  0  0  0
   47.6560   32.5286   53.1241 C   0  0  2  0  0  0  0  0  0  0  0  0
   48.8904   32.3359   53.8358 O   0  0  0  0  0  0  0  0  0  0  0  0
   47.9014   33.4253   51.8718 C   0  0  2  0  0  0  0  0  0  0  0  0
   46.6550   33.6449   51.1464 O   0  0  0  0  0  0  0  0  0  0  0  0
   48.8851   32.7538   50.8997 C   0  0  0  0  0  0  0  0  0  0  0  0
   48.2287   31.7213   50.1432 O   0  0  0  0  0  0  0  0  0  0  0  0
  1  2  1  6  0  0  0
  1  3  1  0  0  0  0
  1  4  2  0  0  0  0
  1 16  1  0  0  0  0
  5  6  1  1  0  0  0
  5  7  1  0  0  0  0
  5 14  1  0  0  0  0
  7  8  1  1  0  0  0
  7  9  1  0  0  0  0
  9 10  1  1  0  0  0
  9 11  1  0  0  0  0
 11 12  1  1  0  0  0
 11 13  1  0  0  0  0
 13 14  1  0  0  0  0
 13 15  1  6  0  0  0
 15 16  1  0  0  0  0
M  CHG  1   3  -1
M  END
>  <CHROM.1>
77.52337244,173.42802684,-162.93941758,47.72233709,32.59423363,51.44533443
0.71904776,0.76828355,-1.40315314

>  <Name>
ligand

>  <RI>
0

>  <Rbt.Current_Directory>
/home/itssahil/PROJECTS/Mol_Feturizer/New_Systems/rnas/3B4A

>  <Rbt.Executable>
rbdock ($Id: //depot/dev/client3/rdock/2013.1/src/exe/rbdock.cxx#4 $)

>  <Rbt.Library>
libRbt.so (2013.1, Build901 2013/11/27)

>  <Rbt.Parameter_File>
/export/apps/rDock/src/rDock_2013.1_src/data/scripts/dock_solv.prm

>  <Rbt.Receptor>
prm/pocket_docking_6.prm

>  <SCORE>
-7.02476

>  <SCORE.INTER>
-6.61563

>  <SCORE.INTER.CONST>
1

>  <SCORE.INTER.POLAR>
0

>  <SCORE.INTER.ROT>
3

>  <SCORE.INTER.SOLV>
16.0862

>  <SCORE.INTER.VDW>
-15.3725

>  <SCORE.INTER.norm>
-0.413477

>  <SCORE.INTRA>
-0.409124

>  <SCORE.INTRA.DIHEDRAL>
-0.359282

>  <SCORE.INTRA.DIHEDRAL.0>
2.05999

>  <SCORE.INTRA.POLAR>
0

>  <SCORE.INTRA.POLAR.0>
0

>  <SCORE.INTRA.REPUL>
0

>  <SCORE.INTRA.REPUL.0>
0

>  <SCORE.INTRA.SOLV>
-0.240637

>  <SCORE.INTRA.SOLV.lig_0>
-58.7001

>  <SCORE.INTRA.VDW>
-0.109165

>  <SCORE.INTRA.VDW.0>
-0.401036

>  <SCORE.INTRA.norm>
-0.0255703

>  <SCORE.RESTR>
0

>  <SCORE.RESTR.CAVITY>
0

>  <SCORE.RESTR.norm>
0

>  <SCORE.SYSTEM>
0

>  <SCORE.SYSTEM.CONST>
0

>  <SCORE.SYSTEM.DIHEDRAL>
0

>  <SCORE.SYSTEM.SOLV>
0

>  <SCORE.SYSTEM.norm>
0

>  <SCORE.heavy>
16

>  <SCORE.norm>
-0.439047

>  <RMSD>
4.502

$$$$
ligand
 OpenBabel11021811463D
libRbt.so/2013.1/901 2013/11/27
 16 16  0  0  0  0  0  0  0  0999 V2000
   46.5550   37.0649   49.5585 P   0  0  2  0  0  0  0  0  0  0  0  0
   46.0851   36.6556   48.2115 O   0  0  0  0  0  0  0  0  0  0  0  0
   45.7138   38.3519   50.0454 O   0  5  0  0  0  0  0  0  0  0  0  0
   48.1282   37.4320   49.4725 O   0  0  0  0  0  0  0  0  0  0  0  0
   47.3129   33.5048   54.1450 C   0  0  2  0  0  0  0  0  0  0  0  0
   46.4692   32.4704   53.5894 O   0  0  0  0  0  0  0  0  0  0  0  0
   46.7550   34.0069   55.5083 C   0  0  2  0  0  0  0  0  0  0  0  0
   46.6552   32.8746   56.4476 N   0  0  0  0  0  0  0  0  0  0  0  0
   45.3593   34.6254   55.2746 C   0  0  1  0  0  0  0  0  0  0  0  0
   44.8209   35.1048   56.5183 O   0  0  0  0  0  0  0  0  0  0  0  0
   45.5297   35.7991   54.2878 C   0  0  2  0  0  0  0  0  0  0  0  0
   44.2455   36.3961   54.0399 O   0  0  0  0  0  0  0  0  0  0  0  0
   46.1177   35.2366   52.9571 C   0  0  2  0  0  0  0  0  0  0  0  0
   47.4145   34.6118   53.1933 O   0  0  0  0  0  0  0  0  0  0  0  0
   46.3313   36.3622   51.9319 C   0  0  0  0  0  0  0  0  0  0  0  0
   46.3182   35.8397   50.5917 O   0  0  0  0  0  0  0  0  0  0  0  0
  1  2  1  6  0  0  0
  1  3  1  0  0  0  0
  1  4  2  0  0  0  0
  1 16  1  0  0  0  0
  5  6  1  6  0  0  0
  5  7  1  0  0  0  0
  5 14  1  0  0  0  0
  7  8  1  1  0  0  0
  7  9  1  0  0  0  0
  9 10  1  1  0  0  0
  9 11  1  0  0  0  0
 11 12  1  6  0  0  0
 11 13  1  0  0  0  0
 13 14  1  0  0  0  0
 13 15  1  6  0  0  0
 15 16  1  0  0  0  0
M  CHG  1   3  -1
M  END
>  <CHROM.1>
-155.66270679,-179.69901221,-160.51782196,46.25438329,35.55255937,52.55053338
-1.44939997,-0.84516231,2.14794872

>  <Name>
ligand

>  <RI>
0

>  <Rbt.Current_Directory>
/home/itssahil/PROJECTS/Mol_Feturizer/New_Systems/rnas/3B4A

>  <Rbt.Executable>
rbdock ($Id: //depot/dev/client3/rdock/2013.1/src/exe/rbdock.cxx#4 $)

>  <Rbt.Library>
libRbt.so (2013.1, Build901 2013/11/27)

>  <Rbt.Parameter_File>
/export/apps/rDock/src/rDock_2013.1_src/data/scripts/dock_solv.prm

>  <Rbt.Receptor>
prm/pocket_docking_6.prm

>  <SCORE>
-7.43852

>  <SCORE.INTER>
-7.35774

>  <SCORE.INTER.CONST>
1

>  <SCORE.INTER.POLAR>
0

>  <SCORE.INTER.ROT>
3

>  <SCORE.INTER.SOLV>
17.1683

>  <SCORE.INTER.VDW>
-16.2279

>  <SCORE.INTER.norm>
-0.459859

>  <SCORE.INTRA>
-0.0807805

>  <SCORE.INTRA.DIHEDRAL>
0.387903

>  <SCORE.INTRA.DIHEDRAL.0>
2.05999

>  <SCORE.INTRA.POLAR>
0

>  <SCORE.INTRA.POLAR.0>
0

>  <SCORE.INTRA.REPUL>
0

>  <SCORE.INTRA.REPUL.0>
0

>  <SCORE.INTRA.SOLV>
-0.509365

>  <SCORE.INTRA.SOLV.lig_0>
-58.7001

>  <SCORE.INTRA.VDW>
-0.0200497

>  <SCORE.INTRA.VDW.0>
-0.401036

>  <SCORE.INTRA.norm>
-0.00504878

>  <SCORE.RESTR>
0

>  <SCORE.RESTR.CAVITY>
0

>  <SCORE.RESTR.norm>
0

>  <SCORE.SYSTEM>
0

>  <SCORE.SYSTEM.CONST>
0

>  <SCORE.SYSTEM.DIHEDRAL>
0

>  <SCORE.SYSTEM.SOLV>
0

>  <SCORE.SYSTEM.norm>
0

>  <SCORE.heavy>
16

>  <SCORE.norm>
-0.464908

>  <RMSD>
4.546

$$$$
ligand
 OpenBabel11021811463D
libRbt.so/2013.1/901 2013/11/27
 16 16  0  0  0  0  0  0  0  0999 V2000
   46.5917   37.0626   49.5253 P   0  0  2  0  0  0  0  0  0  0  0  0
   46.1279   36.6378   48.1811 O   0  0  0  0  0  0  0  0  0  0  0  0
   45.7650   38.3696   49.9833 O   0  5  0  0  0  0  0  0  0  0  0  0
   48.1708   37.4056   49.4477 O   0  0  0  0  0  0  0  0  0  0  0  0
   47.2335   33.6392   54.2163 C   0  0  2  0  0  0  0  0  0  0  0  0
   46.4396   32.5684   53.6566 O   0  0  0  0  0  0  0  0  0  0  0  0
   46.6130   34.1568   55.5464 C   0  0  2  0  0  0  0  0  0  0  0  0
   46.5108   33.0444   56.5088 N   0  0  0  0  0  0  0  0  0  0  0  0
   45.2099   34.7295   55.2482 C   0  0  1  0  0  0  0  0  0  0  0  0
   44.6138   35.2222   56.4600 O   0  0  0  0  0  0  0  0  0  0  0  0
   45.3832   35.8842   54.2398 C   0  0  2  0  0  0  0  0  0  0  0  0
   44.0927   36.4382   53.9320 O   0  0  0  0  0  0  0  0  0  0  0  0
   46.0343   35.3078   52.9449 C   0  0  2  0  0  0  0  0  0  0  0  0
   47.3386   34.7262   53.2422 O   0  0  0  0  0  0  0  0  0  0  0  0
   46.2535   36.4148   51.9008 C   0  0  0  0  0  0  0  0  0  0  0  0
   46.3279   35.8583   50.5764 O   0  0  0  0  0  0  0  0  0  0  0  0
  1  2  1  6  0  0  0
  1  3  1  0  0  0  0
  1  4  2  0  0  0  0
  1 16  1  0  0  0  0
  5  6  1  6  0  0  0
  5  7  1  0  0  0  0
  5 14  1  0  0  0  0
  7  8  1  1  0  0  0
  7  9  1  0  0  0  0
  9 10  1  1  0  0  0
  9 11  1  0  0  0  0
 11 12  1  6  0  0  0
 11 13  1  0  0  0  0
 13 14  1  0  0  0  0
 13 15  1  6  0  0  0
 15 16  1  0  0  0  0
M  CHG  1   3  -1
M  END
>  <CHROM.1>
-156.72070795,-178.75355219,-156.96876623,46.19526926,35.61587552,52.53769470
-1.41564151,-0.80123451,2.14752864

>  <Name>
ligand

>  <RI>
0

>  <Rbt.Current_Directory>
/home/itssahil/PROJECTS/Mol_Feturizer/New_Systems/rnas/3B4A

>  <Rbt.Executable>
rbdock ($Id: //depot/dev/client3/rdock/2013.1/src/exe/rbdock.cxx#4 $)

>  <Rbt.Library>
libRbt.so (2013.1, Build901 2013/11/27)

>  <Rbt.Parameter_File>
/export/apps/rDock/src/rDock_2013.1_src/data/scripts/dock_solv.prm

>  <Rbt.Receptor>
prm/pocket_docking_8.prm

>  <SCORE>
-7.59734

>  <SCORE.INTER>
-7.64999

>  <SCORE.INTER.CONST>
1

>  <SCORE.INTER.POLAR>
0

>  <SCORE.INTER.ROT>
3

>  <SCORE.INTER.SOLV>
17.3213

>  <SCORE.INTER.VDW>
-16.4738

>  <SCORE.INTER.norm>
-0.478124

>  <SCORE.INTRA>
0.0526539

>  <SCORE.INTRA.DIHEDRAL>
0.456234

>  <SCORE.INTRA.DIHEDRAL.0>
2.05999

>  <SCORE.INTRA.POLAR>
0

>  <SCORE.INTRA.POLAR.0>
0

>  <SCORE.INTRA.REPUL>
0

>  <SCORE.INTRA.REPUL.0>
0

>  <SCORE.INTRA.SOLV>
-0.509902

>  <SCORE.INTRA.SOLV.lig_0>
-58.7001

>  <SCORE.INTRA.VDW>
0.0794879

>  <SCORE.INTRA.VDW.0>
-0.401036

>  <SCORE.INTRA.norm>
0.00329087

>  <SCORE.RESTR>
0

>  <SCORE.RESTR.CAVITY>
0

>  <SCORE.RESTR.norm>
0

>  <SCORE.SYSTEM>
0

>  <SCORE.SYSTEM.CONST>
0

>  <SCORE.SYSTEM.DIHEDRAL>
0

>  <SCORE.SYSTEM.SOLV>
0

>  <SCORE.SYSTEM.norm>
0

>  <SCORE.heavy>
16

>  <SCORE.norm>
-0.474834

>  <RMSD>
4.556

$$$$
ligand
 OpenBabel11021811463D
libRbt.so/2013.1/901 2013/11/27
 16 16  0  0  0  0  0  0  0  0999 V2000
   45.2835   34.6638   55.6341 P   0  0  2  0  0  0  0  0  0  0  0  0
   44.4020   35.4414   56.5401 O   0  0  0  0  0  0  0  0  0  0  0  0
   45.8475   35.6371   54.4784 O   0  5  0  0  0  0  0  0  0  0  0  0
   44.4239   33.4621   54.9751 O   0  0  0  0  0  0  0  0  0  0  0  0
   50.1893   34.1558   53.9029 C   0  0  2  0  0  0  0  0  0  0  0  0
   49.8162   35.5300   53.6526 O   0  0  0  0  0  0  0  0  0  0  0  0
   50.0725   33.3015   52.6073 C   0  0  2  0  0  0  0  0  0  0  0  0
   50.9326   33.8776   51.5573 N   0  0  0  0  0  0  0  0  0  0  0  0
   48.5990   33.3029   52.1445 C   0  0  1  0  0  0  0  0  0  0  0  0
   48.4593   32.5144   50.9507 O   0  0  0  0  0  0  0  0  0  0  0  0
   47.7537   32.6912   53.2810 C   0  0  2  0  0  0  0  0  0  0  0  0
   46.3709   32.6833   52.8874 O   0  0  0  0  0  0  0  0  0  0  0  0
   47.9366   33.5732   54.5544 C   0  0  2  0  0  0  0  0  0  0  0  0
   49.3379   33.6059   54.9584 O   0  0  0  0  0  0  0  0  0  0  0  0
   47.1324   33.0059   55.7355 C   0  0  0  0  0  0  0  0  0  0  0  0
   46.5214   34.0662   56.4916 O   0  0  0  0  0  0  0  0  0  0  0  0
  1  2  1  1  0  0  0
  1  3  1  0  0  0  0
  1  4  2  0  0  0  0
  1 16  1  0  0  0  0
  5  6  1  6  0  0  0
  5  7  1  0  0  0  0
  5 14  1  0  0  0  0
  7  8  1  6  0  0  0
  7  9  1  0  0  0  0
  9 10  1  6  0  0  0
  9 11  1  0  0  0  0
 11 12  1  6  0  0  0
 11 13  1  0  0  0  0
 13 14  1  0  0  0  0
 13 15  1  1  0  0  0
 15 16  1  0  0  0  0
M  CHG  1   3  -1
M  END
>  <CHROM.1>
-140.05101967,73.24037587,162.69072282,47.45610433,33.92547226,54.16657938
-2.51059386,-0.20018909,-2.12626063

>  <Name>
ligand

>  <RI>
0

>  <Rbt.Current_Directory>
/home/itssahil/PROJECTS/Mol_Feturizer/New_Systems/rnas/3B4A

>  <Rbt.Executable>
rbdock ($Id: //depot/dev/client3/rdock/2013.1/src/exe/rbdock.cxx#4 $)

>  <Rbt.Library>
libRbt.so (2013.1, Build901 2013/11/27)

>  <Rbt.Parameter_File>
/export/apps/rDock/src/rDock_2013.1_src/data/scripts/dock_solv.prm

>  <Rbt.Receptor>
prm/pocket_docking_3.prm

>  <SCORE>
-5.54965

>  <SCORE.INTER>
-8.91659

>  <SCORE.INTER.CONST>
1

>  <SCORE.INTER.POLAR>
0

>  <SCORE.INTER.ROT>
3

>  <SCORE.INTER.SOLV>
15.0011

>  <SCORE.INTER.VDW>
-16.5448

>  <SCORE.INTER.norm>
-0.557287

>  <SCORE.INTRA>
3.36694

>  <SCORE.INTRA.DIHEDRAL>
3.18864

>  <SCORE.INTRA.DIHEDRAL.0>
2.05999

>  <SCORE.INTRA.POLAR>
0

>  <SCORE.INTRA.POLAR.0>
0

>  <SCORE.INTRA.REPUL>
0

>  <SCORE.INTRA.REPUL.0>
0

>  <SCORE.INTRA.SOLV>
4.62383

>  <SCORE.INTRA.SOLV.lig_0>
-58.7001

>  <SCORE.INTRA.VDW>
-0.539295

>  <SCORE.INTRA.VDW.0>
-0.401036

>  <SCORE.INTRA.norm>
0.210434

>  <SCORE.RESTR>
0

>  <SCORE.RESTR.CAVITY>
0

>  <SCORE.RESTR.norm>
0

>  <SCORE.SYSTEM>
0

>  <SCORE.SYSTEM.CONST>
0

>  <SCORE.SYSTEM.DIHEDRAL>
0

>  <SCORE.SYSTEM.SOLV>
0

>  <SCORE.SYSTEM.norm>
0

>  <SCORE.heavy>
16

>  <SCORE.norm>
-0.346853

>  <RMSD>
5.167

$$$$
ligand
 OpenBabel11021811463D
libRbt.so/2013.1/901 2013/11/27
 16 16  0  0  0  0  0  0  0  0999 V2000
   44.9666   34.9000   55.6851 P   0  0  2  0  0  0  0  0  0  0  0  0
   44.0866   35.6869   56.5845 O   0  0  0  0  0  0  0  0  0  0  0  0
   45.6145   35.8833   54.5831 O   0  5  0  0  0  0  0  0  0  0  0  0
   44.0809   33.7590   54.9565 O   0  0  0  0  0  0  0  0  0  0  0  0
   49.7941   33.8757   53.9574 C   0  0  2  0  0  0  0  0  0  0  0  0
   49.5587   35.2741   53.6754 O   0  0  0  0  0  0  0  0  0  0  0  0
   49.5767   33.0061   52.6852 C   0  0  2  0  0  0  0  0  0  0  0  0
   50.4783   33.4664   51.6130 N   0  0  0  0  0  0  0  0  0  0  0  0
   48.1056   33.1453   52.2359 C   0  0  1  0  0  0  0  0  0  0  0  0
   47.8732   32.3459   51.0639 O   0  0  0  0  0  0  0  0  0  0  0  0
   47.2161   32.6503   53.3953 C   0  0  2  0  0  0  0  0  0  0  0  0
   45.8351   32.7726   53.0145 O   0  0  0  0  0  0  0  0  0  0  0  0
   47.5019   33.5401   54.6440 C   0  0  2  0  0  0  0  0  0  0  0  0
   48.9039   33.4408   55.0343 O   0  0  0  0  0  0  0  0  0  0  0  0
   46.6582   33.0863   55.8464 C   0  0  0  0  0  0  0  0  0  0  0  0
   46.1450   34.2213   56.5659 O   0  0  0  0  0  0  0  0  0  0  0  0
  1  2  1  1  0  0  0
  1  3  1  0  0  0  0
  1  4  2  0  0  0  0
  1 16  1  0  0  0  0
  5  6  1  6  0  0  0
  5  7  1  0  0  0  0
  5 14  1  0  0  0  0
  7  8  1  6  0  0  0
  7  9  1  0  0  0  0
  9 10  1  6  0  0  0
  9 11  1  0  0  0  0
 11 12  1  6  0  0  0
 11 13  1  0  0  0  0
 13 14  1  0  0  0  0
 13 15  1  1  0  0  0
 15 16  1  0  0  0  0
M  CHG  1   3  -1
M  END
>  <CHROM.1>
-138.94800697,72.78658769,157.72021023,47.04828799,33.92258480,54.23871862
-2.45554647,-0.11660424,-2.13836071

>  <Name>
ligand

>  <RI>
0

>  <Rbt.Current_Directory>
/home/itssahil/PROJECTS/Mol_Feturizer/New_Systems/rnas/3B4A

>  <Rbt.Executable>
rbdock ($Id: //depot/dev/client3/rdock/2013.1/src/exe/rbdock.cxx#4 $)

>  <Rbt.Library>
libRbt.so (2013.1, Build901 2013/11/27)

>  <Rbt.Parameter_File>
/export/apps/rDock/src/rDock_2013.1_src/data/scripts/dock_solv.prm

>  <Rbt.Receptor>
prm/pocket_docking_5.prm

>  <SCORE>
-6.12302

>  <SCORE.INTER>
-9.75534

>  <SCORE.INTER.CONST>
1

>  <SCORE.INTER.POLAR>
0

>  <SCORE.INTER.ROT>
3

>  <SCORE.INTER.SOLV>
16.0109

>  <SCORE.INTER.VDW>
-17.4405

>  <SCORE.INTER.norm>
-0.609708

>  <SCORE.INTRA>
3.63232

>  <SCORE.INTRA.DIHEDRAL>
3.53231

>  <SCORE.INTRA.DIHEDRAL.0>
2.05999

>  <SCORE.INTRA.POLAR>
0

>  <SCORE.INTRA.POLAR.0>
0

>  <SCORE.INTRA.REPUL>
0

>  <SCORE.INTRA.REPUL.0>
0

>  <SCORE.INTRA.SOLV>
4.61698

>  <SCORE.INTRA.SOLV.lig_0>
-58.7001

>  <SCORE.INTRA.VDW>
-0.442328

>  <SCORE.INTRA.VDW.0>
-0.401036

>  <SCORE.INTRA.norm>
0.22702

>  <SCORE.RESTR>
0

>  <SCORE.RESTR.CAVITY>
0

>  <SCORE.RESTR.norm>
0

>  <SCORE.SYSTEM>
0

>  <SCORE.SYSTEM.CONST>
0

>  <SCORE.SYSTEM.DIHEDRAL>
0

>  <SCORE.SYSTEM.SOLV>
0

>  <SCORE.SYSTEM.norm>
0

>  <SCORE.heavy>
16

>  <SCORE.norm>
-0.382688

>  <RMSD>
5.180

$$$$
ligand
 OpenBabel11021811463D
libRbt.so/2013.1/901 2013/11/27
 16 16  0  0  0  0  0  0  0  0999 V2000
   44.9501   34.8997   55.6186 P   0  0  2  0  0  0  0  0  0  0  0  0
   44.0814   35.7392   56.4805 O   0  0  0  0  0  0  0  0  0  0  0  0
   45.6003   35.8196   54.4643 O   0  5  0  0  0  0  0  0  0  0  0  0
   44.0512   33.7304   54.9538 O   0  0  0  0  0  0  0  0  0  0  0  0
   49.8116   33.8720   53.9520 C   0  0  2  0  0  0  0  0  0  0  0  0
   49.5863   35.2702   53.6612 O   0  0  0  0  0  0  0  0  0  0  0  0
   49.5913   32.9964   52.6844 C   0  0  2  0  0  0  0  0  0  0  0  0
   50.4985   33.4442   51.6117 N   0  0  0  0  0  0  0  0  0  0  0  0
   48.1222   33.1428   52.2308 C   0  0  1  0  0  0  0  0  0  0  0  0
   47.8872   32.3380   51.0630 O   0  0  0  0  0  0  0  0  0  0  0  0
   47.2267   32.6607   53.3909 C   0  0  2  0  0  0  0  0  0  0  0  0
   45.8474   32.7901   53.0062 O   0  0  0  0  0  0  0  0  0  0  0  0
   47.5155   33.5560   54.6350 C   0  0  2  0  0  0  0  0  0  0  0  0
   48.9159   33.4495   55.0293 O   0  0  0  0  0  0  0  0  0  0  0  0
   46.6659   33.1150   55.8381 C   0  0  0  0  0  0  0  0  0  0  0  0
   46.1275   34.2571   56.5273 O   0  0  0  0  0  0  0  0  0  0  0  0
  1  2  1  1  0  0  0
  1  3  1  0  0  0  0
  1  4  2  0  0  0  0
  1 16  1  0  0  0  0
  5  6  1  6  0  0  0
  5  7  1  0  0  0  0
  5 14  1  0  0  0  0
  7  8  1  6  0  0  0
  7  9  1  0  0  0  0
  9 10  1  6  0  0  0
  9 11  1  0  0  0  0
 11 12  1  6  0  0  0
 11 13  1  0  0  0  0
 13 14  1  0  0  0  0
 13 15  1  1  0  0  0
 15 16  1  0  0  0  0
M  CHG  1   3  -1
M  END
>  <CHROM.1>
-137.31530528,72.69018138,160.11484779,47.05153668,33.92409637,54.21016659
-2.46845551,-0.10462244,-2.13547482

>  <Name>
ligand

>  <RI>
0

>  <Rbt.Current_Directory>
/home/itssahil/PROJECTS/Mol_Feturizer/New_Systems/rnas/3B4A

>  <Rbt.Executable>
rbdock ($Id: //depot/dev/client3/rdock/2013.1/src/exe/rbdock.cxx#4 $)

>  <Rbt.Library>
libRbt.so (2013.1, Build901 2013/11/27)

>  <Rbt.Parameter_File>
/export/apps/rDock/src/rDock_2013.1_src/data/scripts/dock_solv.prm

>  <Rbt.Receptor>
prm/pocket_docking_4.prm

>  <SCORE>
-6.14123

>  <SCORE.INTER>
-9.80286

>  <SCORE.INTER.CONST>
1

>  <SCORE.INTER.POLAR>
0

>  <SCORE.INTER.ROT>
3

>  <SCORE.INTER.SOLV>
15.5513

>  <SCORE.INTER.VDW>
-17.319

>  <SCORE.INTER.norm>
-0.612679

>  <SCORE.INTRA>
3.66163

>  <SCORE.INTRA.DIHEDRAL>
3.56991

>  <SCORE.INTRA.DIHEDRAL.0>
2.05999

>  <SCORE.INTRA.POLAR>
0

>  <SCORE.INTRA.POLAR.0>
0

>  <SCORE.INTRA.REPUL>
0

>  <SCORE.INTRA.REPUL.0>
0

>  <SCORE.INTRA.SOLV>
4.75939

>  <SCORE.INTRA.SOLV.lig_0>
-58.7001

>  <SCORE.INTRA.VDW>
-0.50302

>  <SCORE.INTRA.VDW.0>
-0.401036

>  <SCORE.INTRA.norm>
0.228852

>  <SCORE.RESTR>
0

>  <SCORE.RESTR.CAVITY>
0

>  <SCORE.RESTR.norm>
0

>  <SCORE.SYSTEM>
0

>  <SCORE.SYSTEM.CONST>
0

>  <SCORE.SYSTEM.DIHEDRAL>
0

>  <SCORE.SYSTEM.SOLV>
0

>  <SCORE.SYSTEM.norm>
0

>  <SCORE.heavy>
16

>  <SCORE.norm>
-0.383827

>  <RMSD>
5.185

$$$$
ligand
 OpenBabel11021811463D
libRbt.so/2013.1/901 2013/11/27
 16 16  0  0  0  0  0  0  0  0999 V2000
   45.2488   34.6434   55.5071 P   0  0  2  0  0  0  0  0  0  0  0  0
   44.4243   35.3162   56.5416 O   0  0  0  0  0  0  0  0  0  0  0  0
   45.4578   35.6454   54.2607 O   0  5  0  0  0  0  0  0  0  0  0  0
   44.4826   33.3048   55.0189 O   0  0  0  0  0  0  0  0  0  0  0  0
   49.1210   35.6221   53.0032 C   0  0  2  0  0  0  0  0  0  0  0  0
   47.9866   36.2735   52.3875 O   0  0  0  0  0  0  0  0  0  0  0  0
   49.7743   34.6004   52.0278 C   0  0  2  0  0  0  0  0  0  0  0  0
   50.1941   35.2935   50.7959 N   0  0  0  0  0  0  0  0  0  0  0  0
   48.7389   33.5047   51.6921 C   0  0  1  0  0  0  0  0  0  0  0  0
   49.3178   32.5411   50.7960 O   0  0  0  0  0  0  0  0  0  0  0  0
   48.3408   32.8194   53.0158 C   0  0  2  0  0  0  0  0  0  0  0  0
   47.3692   31.7955   52.7423 O   0  0  0  0  0  0  0  0  0  0  0  0
   47.7221   33.8983   53.9572 C   0  0  2  0  0  0  0  0  0  0  0  0
   48.6899   34.9546   54.2320 O   0  0  0  0  0  0  0  0  0  0  0  0
   47.3194   33.2832   55.3074 C   0  0  0  0  0  0  0  0  0  0  0  0
   46.6887   34.2664   56.1470 O   0  0  0  0  0  0  0  0  0  0  0  0
  1  2  1  1  0  0  0
  1  3  1  0  0  0  0
  1  4  2  0  0  0  0
  1 16  1  0  0  0  0
  5  6  1  6  0  0  0
  5  7  1  0  0  0  0
  5 14  1  0  0  0  0
  7  8  1  6  0  0  0
  7  9  1  0  0  0  0
  9 10  1  6  0  0  0
  9 11  1  0  0  0  0
 11 12  1  6  0  0  0
 11 13  1  0  0  0  0
 13 14  1  0  0  0  0
 13 15  1  1  0  0  0
 15 16  1  0  0  0  0
M  CHG  1   3  -1
M  END
>  <CHROM.1>
-177.12659026,68.85580521,162.87893917,47.32874320,34.26712863,53.76233603
-2.91566979,-0.74911910,-2.93454045

>  <Name>
ligand

>  <RI>
0

>  <Rbt.Current_Directory>
/home/itssahil/PROJECTS/Mol_Feturizer/New_Systems/rnas/3B4A

>  <Rbt.Executable>
rbdock ($Id: //depot/dev/client3/rdock/2013.1/src/exe/rbdock.cxx#4 $)

>  <Rbt.Library>
libRbt.so (2013.1, Build901 2013/11/27)

>  <Rbt.Parameter_File>
/export/apps/rDock/src/rDock_2013.1_src/data/scripts/dock_solv.prm

>  <Rbt.Receptor>
prm/pocket_docking_5.prm

>  <SCORE>
-5.85319

>  <SCORE.INTER>
-6.91048

>  <SCORE.INTER.CONST>
1

>  <SCORE.INTER.POLAR>
0

>  <SCORE.INTER.ROT>
3

>  <SCORE.INTER.SOLV>
12.9791

>  <SCORE.INTER.VDW>
-14.5334

>  <SCORE.INTER.norm>
-0.431905

>  <SCORE.INTRA>
1.05729

>  <SCORE.INTRA.DIHEDRAL>
-1.19665

>  <SCORE.INTRA.DIHEDRAL.0>
2.05999

>  <SCORE.INTRA.POLAR>
0

>  <SCORE.INTRA.POLAR.0>
0

>  <SCORE.INTRA.REPUL>
0

>  <SCORE.INTRA.REPUL.0>
0

>  <SCORE.INTRA.SOLV>
3.74906

>  <SCORE.INTRA.SOLV.lig_0>
-58.7001

>  <SCORE.INTRA.VDW>
-0.218914

>  <SCORE.INTRA.VDW.0>
-0.401036

>  <SCORE.INTRA.norm>
0.0660805

>  <SCORE.RESTR>
0

>  <SCORE.RESTR.CAVITY>
0

>  <SCORE.RESTR.norm>
0

>  <SCORE.SYSTEM>
0

>  <SCORE.SYSTEM.CONST>
0

>  <SCORE.SYSTEM.DIHEDRAL>
0

>  <SCORE.SYSTEM.SOLV>
0

>  <SCORE.SYSTEM.norm>
0

>  <SCORE.heavy>
16

>  <SCORE.norm>
-0.365825

>  <RMSD>
5.266

$$$$
ligand
 OpenBabel11021811463D
libRbt.so/2013.1/901 2013/11/27
 16 16  0  0  0  0  0  0  0  0999 V2000
   45.2389   34.1776   55.1706 P   0  0  2  0  0  0  0  0  0  0  0  0
   45.4007   34.9206   56.4451 O   0  0  0  0  0  0  0  0  0  0  0  0
   45.7721   35.0906   53.9528 O   0  5  0  0  0  0  0  0  0  0  0  0
   43.6713   33.8363   54.9616 O   0  0  0  0  0  0  0  0  0  0  0  0
   50.3826   34.4967   53.6615 C   0  0  2  0  0  0  0  0  0  0  0  0
   49.8487   35.7871   53.2873 O   0  0  0  0  0  0  0  0  0  0  0  0
   50.3877   33.5222   52.4481 C   0  0  2  0  0  0  0  0  0  0  0  0
   51.1852   34.1030   51.3523 N   0  0  0  0  0  0  0  0  0  0  0  0
   48.9311   33.3022   51.9838 C   0  0  1  0  0  0  0  0  0  0  0  0
   48.9041   32.3990   50.8657 O   0  0  0  0  0  0  0  0  0  0  0  0
   48.1514   32.6958   53.1690 C   0  0  2  0  0  0  0  0  0  0  0  0
   46.7852   32.4838   52.7747 O   0  0  0  0  0  0  0  0  0  0  0  0
   48.2090   33.7037   54.3579 C   0  0  2  0  0  0  0  0  0  0  0  0
   49.5904   33.9434   54.7605 O   0  0  0  0  0  0  0  0  0  0  0  0
   47.4640   33.1503   55.5837 C   0  0  0  0  0  0  0  0  0  0  0  0
   46.1074   32.8119   55.2452 O   0  0  0  0  0  0  0  0  0  0  0  0
  1  2  1  1  0  0  0
  1  3  1  0  0  0  0
  1  4  2  0  0  0  0
  1 16  1  0  0  0  0
  5  6  1  6  0  0  0
  5  7  1  0  0  0  0
  5 14  1  0  0  0  0
  7  8  1  6  0  0  0
  7  9  1  0  0  0  0
  9 10  1  6  0  0  0
  9 11  1  0  0  0  0
 11 12  1  6  0  0  0
 11 13  1  0  0  0  0
 13 14  1  0  0  0  0
 13 15  1  1  0  0  0
 15 16  1  0  0  0  0
M  CHG  1   3  -1
M  END
>  <CHROM.1>
-55.67393833,-77.42671107,-54.11573041,47.61829685,33.81639453,53.87724758
-2.66841623,-0.29129745,-2.17667703

>  <Name>
ligand

>  <RI>
0

>  <Rbt.Current_Directory>
/home/itssahil/PROJECTS/Mol_Feturizer/New_Systems/rnas/3B4A

>  <Rbt.Executable>
rbdock ($Id: //depot/dev/client3/rdock/2013.1/src/exe/rbdock.cxx#4 $)

>  <Rbt.Library>
libRbt.so (2013.1, Build901 2013/11/27)

>  <Rbt.Parameter_File>
/export/apps/rDock/src/rDock_2013.1_src/data/scripts/dock_solv.prm

>  <Rbt.Receptor>
prm/pocket_docking_4.prm

>  <SCORE>
-5.03634

>  <SCORE.INTER>
-6.35936

>  <SCORE.INTER.CONST>
1

>  <SCORE.INTER.POLAR>
0

>  <SCORE.INTER.ROT>
3

>  <SCORE.INTER.SOLV>
12.3849

>  <SCORE.INTER.VDW>
-13.9679

>  <SCORE.INTER.norm>
-0.39746

>  <SCORE.INTRA>
1.32301

>  <SCORE.INTRA.DIHEDRAL>
-0.534709

>  <SCORE.INTRA.DIHEDRAL.0>
2.05999

>  <SCORE.INTRA.POLAR>
0

>  <SCORE.INTRA.POLAR.0>
0

>  <SCORE.INTRA.REPUL>
0

>  <SCORE.INTRA.REPUL.0>
0

>  <SCORE.INTRA.SOLV>
3.10591

>  <SCORE.INTRA.SOLV.lig_0>
-58.7001

>  <SCORE.INTRA.VDW>
0.0374112

>  <SCORE.INTRA.VDW.0>
-0.401036

>  <SCORE.INTRA.norm>
0.0826884

>  <SCORE.RESTR>
0

>  <SCORE.RESTR.CAVITY>
0

>  <SCORE.RESTR.norm>
0

>  <SCORE.SYSTEM>
0

>  <SCORE.SYSTEM.CONST>
0

>  <SCORE.SYSTEM.DIHEDRAL>
0

>  <SCORE.SYSTEM.SOLV>
0

>  <SCORE.SYSTEM.norm>
0

>  <SCORE.heavy>
16

>  <SCORE.norm>
-0.314771

>  <RMSD>
5.268

$$$$
ligand
 OpenBabel11021811463D
libRbt.so/2013.1/901 2013/11/27
 16 16  0  0  0  0  0  0  0  0999 V2000
   46.9080   32.9776   55.3279 P   0  0  2  0  0  0  0  0  0  0  0  0
   46.4679   33.1277   56.7372 O   0  0  0  0  0  0  0  0  0  0  0  0
   46.7461   31.4359   54.8827 O   0  5  0  0  0  0  0  0  0  0  0  0
   48.4582   33.4264   55.2151 O   0  0  0  0  0  0  0  0  0  0  0  0
   44.0954   38.3668   54.0543 C   0  0  2  0  0  0  0  0  0  0  0  0
   42.9477   37.8298   53.3582 O   0  0  0  0  0  0  0  0  0  0  0  0
   45.1457   38.9246   53.0503 C   0  0  2  0  0  0  0  0  0  0  0  0
   44.5240   39.9691   52.2156 N   0  0  0  0  0  0  0  0  0  0  0  0
   45.6457   37.7646   52.1616 C   0  0  1  0  0  0  0  0  0  0  0  0
   46.6240   38.2499   51.2267 O   0  0  0  0  0  0  0  0  0  0  0  0
   46.2826   36.7090   53.0891 C   0  0  2  0  0  0  0  0  0  0  0  0
   46.7541   35.6073   52.2947 O   0  0  0  0  0  0  0  0  0  0  0  0
   45.1908   36.2133   54.0866 C   0  0  2  0  0  0  0  0  0  0  0  0
   44.6889   37.3225   54.8901 O   0  0  0  0  0  0  0  0  0  0  0  0
   45.7666   35.1687   55.0566 C   0  0  0  0  0  0  0  0  0  0  0  0
   45.9806   33.9142   54.3858 O   0  0  0  0  0  0  0  0  0  0  0  0
  1  2  1  1  0  0  0
  1  3  1  0  0  0  0
  1  4  2  0  0  0  0
  1 16  1  0  0  0  0
  5  6  1  6  0  0  0
  5  7  1  0  0  0  0
  5 14  1  0  0  0  0
  7  8  1  6  0  0  0
  7  9  1  0  0  0  0
  9 10  1  6  0  0  0
  9 11  1  0  0  0  0
 11 12  1  6  0  0  0
 11 13  1  0  0  0  0
 13 14  1  0  0  0  0
 13 15  1  1  0  0  0
 15 16  1  0  0  0  0
M  CHG  1   3  -1
M  END
>  <CHROM.1>
-73.25462220,166.30271124,40.87450924,45.87096620,35.76520521,54.00191791
1.15091587,-0.66951506,2.43456786

>  <Name>
ligand

>  <RI>
0

>  <Rbt.Current_Directory>
/home/itssahil/PROJECTS/Mol_Feturizer/New_Systems/rnas/3B4A

>  <Rbt.Executable>
rbdock ($Id: //depot/dev/client3/rdock/2013.1/src/exe/rbdock.cxx#4 $)

>  <Rbt.Library>
libRbt.so (2013.1, Build901 2013/11/27)

>  <Rbt.Parameter_File>
/export/apps/rDock/src/rDock_2013.1_src/data/scripts/dock_solv.prm

>  <Rbt.Receptor>
prm/pocket_docking_8.prm

>  <SCORE>
-7.27945

>  <SCORE.INTER>
-7.27121

>  <SCORE.INTER.CONST>
1

>  <SCORE.INTER.POLAR>
0

>  <SCORE.INTER.ROT>
3

>  <SCORE.INTER.SOLV>
16.0812

>  <SCORE.INTER.VDW>
-15.8079

>  <SCORE.INTER.norm>
-0.45445

>  <SCORE.INTRA>
-0.00824136

>  <SCORE.INTRA.DIHEDRAL>
-0.0117737

>  <SCORE.INTRA.DIHEDRAL.0>
2.05999

>  <SCORE.INTRA.POLAR>
0

>  <SCORE.INTRA.POLAR.0>
0

>  <SCORE.INTRA.REPUL>
0

>  <SCORE.INTRA.REPUL.0>
0

>  <SCORE.INTRA.SOLV>
-0.391392

>  <SCORE.INTRA.SOLV.lig_0>
-58.7001

>  <SCORE.INTRA.VDW>
0.193341

>  <SCORE.INTRA.VDW.0>
-0.401036

>  <SCORE.INTRA.norm>
-0.000515085

>  <SCORE.RESTR>
0

>  <SCORE.RESTR.CAVITY>
0

>  <SCORE.RESTR.norm>
0

>  <SCORE.SYSTEM>
0

>  <SCORE.SYSTEM.CONST>
0

>  <SCORE.SYSTEM.DIHEDRAL>
0

>  <SCORE.SYSTEM.SOLV>
0

>  <SCORE.SYSTEM.norm>
0

>  <SCORE.heavy>
16

>  <SCORE.norm>
-0.454965

>  <RMSD>
5.289

$$$$
ligand
 OpenBabel11021811463D
libRbt.so/2013.1/901 2013/11/27
 16 16  0  0  0  0  0  0  0  0999 V2000
   44.5176   37.8487   53.3351 P   0  0  2  0  0  0  0  0  0  0  0  0
   45.5204   36.9975   52.6477 O   0  0  0  0  0  0  0  0  0  0  0  0
   43.6867   38.6842   52.2339 O   0  5  0  0  0  0  0  0  0  0  0  0
   45.2897   38.8620   54.3322 O   0  0  0  0  0  0  0  0  0  0  0  0
   47.1221   34.0033   55.5548 C   0  0  2  0  0  0  0  0  0  0  0  0
   47.8520   34.3933   54.3693 O   0  0  0  0  0  0  0  0  0  0  0  0
   46.3974   32.6427   55.3410 C   0  0  2  0  0  0  0  0  0  0  0  0
   47.3864   31.6068   54.9902 N   0  0  0  0  0  0  0  0  0  0  0  0
   45.3707   32.8029   54.1984 C   0  0  1  0  0  0  0  0  0  0  0  0
   44.6798   31.5608   53.9825 O   0  0  0  0  0  0  0  0  0  0  0  0
   44.3680   33.8957   54.6236 C   0  0  2  0  0  0  0  0  0  0  0  0
   43.3985   34.0779   53.5776 O   0  0  0  0  0  0  0  0  0  0  0  0
   45.1579   35.2214   54.8501 C   0  0  2  0  0  0  0  0  0  0  0  0
   46.1582   35.0495   55.8978 O   0  0  0  0  0  0  0  0  0  0  0  0
   44.2166   36.3521   55.2964 C   0  0  0  0  0  0  0  0  0  0  0  0
   43.5065   36.8977   54.1707 O   0  0  0  0  0  0  0  0  0  0  0  0
  1  2  1  6  0  0  0
  1  3  1  0  0  0  0
  1  4  2  0  0  0  0
  1 16  1  0  0  0  0
  5  6  1  6  0  0  0
  5  7  1  0  0  0  0
  5 14  1  0  0  0  0
  7  8  1  6  0  0  0
  7  9  1  0  0  0  0
  9 10  1  1  0  0  0
  9 11  1  0  0  0  0
 11 12  1  6  0  0  0
 11 13  1  0  0  0  0
 13 14  1  0  0  0  0
 13 15  1  1  0  0  0
 15 16  1  0  0  0  0
M  CHG  1   3  -1
M  END
>  <CHROM.1>
-78.92871291,-76.11381858,71.01959365,45.21196962,35.31841617,54.23131133
-1.91656757,0.40710105,3.02314192

>  <Name>
ligand

>  <RI>
0

>  <Rbt.Current_Directory>
/home/itssahil/PROJECTS/Mol_Feturizer/New_Systems/rnas/3B4A

>  <Rbt.Executable>
rbdock ($Id: //depot/dev/client3/rdock/2013.1/src/exe/rbdock.cxx#4 $)

>  <Rbt.Library>
libRbt.so (2013.1, Build901 2013/11/27)

>  <Rbt.Parameter_File>
/export/apps/rDock/src/rDock_2013.1_src/data/scripts/dock_solv.prm

>  <Rbt.Receptor>
prm/pocket_docking_7.prm

>  <SCORE>
-6.25866

>  <SCORE.INTER>
-6.52482

>  <SCORE.INTER.CONST>
1

>  <SCORE.INTER.POLAR>
0

>  <SCORE.INTER.ROT>
3

>  <SCORE.INTER.SOLV>
18.8245

>  <SCORE.INTER.VDW>
-16.2247

>  <SCORE.INTER.norm>
-0.407801

>  <SCORE.INTRA>
0.266163

>  <SCORE.INTRA.DIHEDRAL>
0.532333

>  <SCORE.INTRA.DIHEDRAL.0>
2.05999

>  <SCORE.INTRA.POLAR>
0

>  <SCORE.INTRA.POLAR.0>
0

>  <SCORE.INTRA.REPUL>
0

>  <SCORE.INTRA.REPUL.0>
0

>  <SCORE.INTRA.SOLV>
0.587253

>  <SCORE.INTRA.SOLV.lig_0>
-58.7001

>  <SCORE.INTRA.VDW>
-0.293631

>  <SCORE.INTRA.VDW.0>
-0.401036

>  <SCORE.INTRA.norm>
0.0166352

>  <SCORE.RESTR>
0

>  <SCORE.RESTR.CAVITY>
0

>  <SCORE.RESTR.norm>
0

>  <SCORE.SYSTEM>
0

>  <SCORE.SYSTEM.CONST>
0

>  <SCORE.SYSTEM.DIHEDRAL>
0

>  <SCORE.SYSTEM.SOLV>
0

>  <SCORE.SYSTEM.norm>
0

>  <SCORE.heavy>
16

>  <SCORE.norm>
-0.391166

>  <RMSD>
5.290

$$$$
ligand
 OpenBabel11021811463D
libRbt.so/2013.1/901 2013/11/27
 16 16  0  0  0  0  0  0  0  0999 V2000
   47.0561   33.5465   55.4790 P   0  0  2  0  0  0  0  0  0  0  0  0
   46.5749   33.4363   56.8786 O   0  0  0  0  0  0  0  0  0  0  0  0
   46.3994   32.3663   54.5976 O   0  5  0  0  0  0  0  0  0  0  0  0
   48.6684   33.4125   55.4701 O   0  0  0  0  0  0  0  0  0  0  0  0
   44.0930   38.4167   54.0775 C   0  0  2  0  0  0  0  0  0  0  0  0
   42.8685   38.2027   53.3393 O   0  0  0  0  0  0  0  0  0  0  0  0
   45.2053   38.9967   53.1563 C   0  0  2  0  0  0  0  0  0  0  0  0
   44.7425   40.2645   52.5624 N   0  0  0  0  0  0  0  0  0  0  0  0
   45.5106   37.9708   52.0428 C   0  0  1  0  0  0  0  0  0  0  0  0
   46.5414   38.4777   51.1785 O   0  0  0  0  0  0  0  0  0  0  0  0
   45.9877   36.6718   52.7250 C   0  0  2  0  0  0  0  0  0  0  0  0
   46.2748   35.6883   51.7163 O   0  0  0  0  0  0  0  0  0  0  0  0
   44.8438   36.1595   53.6534 C   0  0  2  0  0  0  0  0  0  0  0  0
   44.5279   37.1531   54.6737 O   0  0  0  0  0  0  0  0  0  0  0  0
   45.2627   34.8720   54.3818 C   0  0  0  0  0  0  0  0  0  0  0  0
   46.6071   34.9838   54.8812 O   0  0  0  0  0  0  0  0  0  0  0  0
  1  2  1  1  0  0  0
  1  3  1  0  0  0  0
  1  4  2  0  0  0  0
  1 16  1  0  0  0  0
  5  6  1  6  0  0  0
  5  7  1  0  0  0  0
  5 14  1  0  0  0  0
  7  8  1  6  0  0  0
  7  9  1  0  0  0  0
  9 10  1  6  0  0  0
  9 11  1  0  0  0  0
 11 12  1  6  0  0  0
 11 13  1  0  0  0  0
 13 14  1  0  0  0  0
 13 15  1  1  0  0  0
 15 16  1  0  0  0  0
M  CHG  1   3  -1
M  END
>  <CHROM.1>
43.77256282,-173.32381664,-84.59081427,45.82308439,36.02540903,53.94537541
1.09616249,-0.68339820,2.33567118

>  <Name>
ligand

>  <RI>
0

>  <Rbt.Current_Directory>
/home/itssahil/PROJECTS/Mol_Feturizer/New_Systems/rnas/3B4A

>  <Rbt.Executable>
rbdock ($Id: //depot/dev/client3/rdock/2013.1/src/exe/rbdock.cxx#4 $)

>  <Rbt.Library>
libRbt.so (2013.1, Build901 2013/11/27)

>  <Rbt.Parameter_File>
/export/apps/rDock/src/rDock_2013.1_src/data/scripts/dock_solv.prm

>  <Rbt.Receptor>
prm/pocket_docking_8.prm

>  <SCORE>
-8.18386

>  <SCORE.INTER>
-8.17289

>  <SCORE.INTER.CONST>
1

>  <SCORE.INTER.POLAR>
0

>  <SCORE.INTER.ROT>
3

>  <SCORE.INTER.SOLV>
14.0532

>  <SCORE.INTER.VDW>
-15.733

>  <SCORE.INTER.norm>
-0.510806

>  <SCORE.INTRA>
-0.0109705

>  <SCORE.INTRA.DIHEDRAL>
-0.0840077

>  <SCORE.INTRA.DIHEDRAL.0>
2.05999

>  <SCORE.INTRA.POLAR>
0

>  <SCORE.INTRA.POLAR.0>
0

>  <SCORE.INTRA.REPUL>
0

>  <SCORE.INTRA.REPUL.0>
0

>  <SCORE.INTRA.SOLV>
-0.495366

>  <SCORE.INTRA.SOLV.lig_0>
-58.7001

>  <SCORE.INTRA.VDW>
0.278716

>  <SCORE.INTRA.VDW.0>
-0.401036

>  <SCORE.INTRA.norm>
-0.000685657

>  <SCORE.RESTR>
0

>  <SCORE.RESTR.CAVITY>
0

>  <SCORE.RESTR.norm>
0

>  <SCORE.SYSTEM>
0

>  <SCORE.SYSTEM.CONST>
0

>  <SCORE.SYSTEM.DIHEDRAL>
0

>  <SCORE.SYSTEM.SOLV>
0

>  <SCORE.SYSTEM.norm>
0

>  <SCORE.heavy>
16

>  <SCORE.norm>
-0.511491

>  <RMSD>
5.321

$$$$
ligand
 OpenBabel11021811463D
libRbt.so/2013.1/901 2013/11/27
 16 16  0  0  0  0  0  0  0  0999 V2000
   44.8304   34.8658   55.7516 P   0  0  2  0  0  0  0  0  0  0  0  0
   43.9523   35.6097   56.6886 O   0  0  0  0  0  0  0  0  0  0  0  0
   45.2917   35.8513   54.5611 O   0  5  0  0  0  0  0  0  0  0  0  0
   44.0041   33.6141   55.1451 O   0  0  0  0  0  0  0  0  0  0  0  0
   48.5897   35.3348   53.3874 C   0  0  2  0  0  0  0  0  0  0  0  0
   47.4879   35.8116   52.5817 O   0  0  0  0  0  0  0  0  0  0  0  0
   49.3922   34.2319   52.6379 C   0  0  2  0  0  0  0  0  0  0  0  0
   49.8936   34.7694   51.3596 N   0  0  0  0  0  0  0  0  0  0  0  0
   48.4573   33.0306   52.3767 C   0  0  1  0  0  0  0  0  0  0  0  0
   49.1748   31.9913   51.6900 O   0  0  0  0  0  0  0  0  0  0  0  0
   47.9678   32.5155   53.7462 C   0  0  2  0  0  0  0  0  0  0  0  0
   47.0863   31.3983   53.5414 O   0  0  0  0  0  0  0  0  0  0  0  0
   47.2000   33.6723   54.4568 C   0  0  2  0  0  0  0  0  0  0  0  0
   48.0759   34.8214   54.6578 O   0  0  0  0  0  0  0  0  0  0  0  0
   46.6995   33.2300   55.8415 C   0  0  0  0  0  0  0  0  0  0  0  0
   46.1344   34.3421   56.5579 O   0  0  0  0  0  0  0  0  0  0  0  0
  1  2  1  1  0  0  0
  1  3  1  0  0  0  0
  1  4  2  0  0  0  0
  1 16  1  0  0  0  0
  5  6  1  6  0  0  0
  5  7  1  0  0  0  0
  5 14  1  0  0  0  0
  7  8  1  6  0  0  0
  7  9  1  0  0  0  0
  9 10  1  1  0  0  0
  9 11  1  0  0  0  0
 11 12  1  6  0  0  0
 11 13  1  0  0  0  0
 13 14  1  0  0  0  0
 13 15  1  1  0  0  0
 15 16  1  0  0  0  0
M  CHG  1   3  -1
M  END
>  <CHROM.1>
173.09510876,63.76926215,157.94957332,46.91451915,34.13492611,54.21292655
-2.92379329,-0.71386355,3.12213411

>  <Name>
ligand

>  <RI>
0

>  <Rbt.Current_Directory>
/home/itssahil/PROJECTS/Mol_Feturizer/New_Systems/rnas/3B4A

>  <Rbt.Executable>
rbdock ($Id: //depot/dev/client3/rdock/2013.1/src/exe/rbdock.cxx#4 $)

>  <Rbt.Library>
libRbt.so (2013.1, Build901 2013/11/27)

>  <Rbt.Parameter_File>
/export/apps/rDock/src/rDock_2013.1_src/data/scripts/dock_solv.prm

>  <Rbt.Receptor>
prm/pocket_docking_4.prm

>  <SCORE>
-6.70762

>  <SCORE.INTER>
-8.49333

>  <SCORE.INTER.CONST>
1

>  <SCORE.INTER.POLAR>
0

>  <SCORE.INTER.ROT>
3

>  <SCORE.INTER.SOLV>
16.0235

>  <SCORE.INTER.VDW>
-16.6034

>  <SCORE.INTER.norm>
-0.530833

>  <SCORE.INTRA>
1.78571

>  <SCORE.INTRA.DIHEDRAL>
-1.10512

>  <SCORE.INTRA.DIHEDRAL.0>
2.05999

>  <SCORE.INTRA.POLAR>
0

>  <SCORE.INTRA.POLAR.0>
0

>  <SCORE.INTRA.REPUL>
0

>  <SCORE.INTRA.REPUL.0>
0

>  <SCORE.INTRA.SOLV>
4.5113

>  <SCORE.INTRA.SOLV.lig_0>
-58.7001

>  <SCORE.INTRA.VDW>
0.0826186

>  <SCORE.INTRA.VDW.0>
-0.401036

>  <SCORE.INTRA.norm>
0.111607

>  <SCORE.RESTR>
0

>  <SCORE.RESTR.CAVITY>
0

>  <SCORE.RESTR.norm>
0

>  <SCORE.SYSTEM>
0

>  <SCORE.SYSTEM.CONST>
0

>  <SCORE.SYSTEM.DIHEDRAL>
0

>  <SCORE.SYSTEM.SOLV>
0

>  <SCORE.SYSTEM.norm>
0

>  <SCORE.heavy>
16

>  <SCORE.norm>
-0.419226

>  <RMSD>
5.334

$$$$
ligand
 OpenBabel11021811463D
libRbt.so/2013.1/901 2013/11/27
 16 16  0  0  0  0  0  0  0  0999 V2000
   47.0085   33.5374   55.5066 P   0  0  2  0  0  0  0  0  0  0  0  0
   46.5748   33.4356   56.9222 O   0  0  0  0  0  0  0  0  0  0  0  0
   46.3003   32.3691   54.6494 O   0  5  0  0  0  0  0  0  0  0  0  0
   48.6167   33.3747   55.4410 O   0  0  0  0  0  0  0  0  0  0  0  0
   44.1340   38.4326   54.0641 C   0  0  2  0  0  0  0  0  0  0  0  0
   42.8993   38.2381   53.3375 O   0  0  0  0  0  0  0  0  0  0  0  0
   45.2491   38.9864   53.1303 C   0  0  2  0  0  0  0  0  0  0  0  0
   44.8055   40.2597   52.5335 N   0  0  0  0  0  0  0  0  0  0  0  0
   45.5253   37.9491   52.0198 C   0  0  1  0  0  0  0  0  0  0  0  0
   46.5580   38.4317   51.1440 O   0  0  0  0  0  0  0  0  0  0  0  0
   45.9834   36.6448   52.7049 C   0  0  2  0  0  0  0  0  0  0  0  0
   46.2430   35.6507   51.6990 O   0  0  0  0  0  0  0  0  0  0  0  0
   44.8381   36.1593   53.6458 C   0  0  2  0  0  0  0  0  0  0  0  0
   44.5500   37.1640   54.6633 O   0  0  0  0  0  0  0  0  0  0  0  0
   45.2387   34.8679   54.3775 C   0  0  0  0  0  0  0  0  0  0  0  0
   46.5643   34.9825   54.9241 O   0  0  0  0  0  0  0  0  0  0  0  0
  1  2  1  1  0  0  0
  1  3  1  0  0  0  0
  1  4  2  0  0  0  0
  1 16  1  0  0  0  0
  5  6  1  6  0  0  0
  5  7  1  0  0  0  0
  5 14  1  0  0  0  0
  7  8  1  6  0  0  0
  7  9  1  0  0  0  0
  9 10  1  6  0  0  0
  9 11  1  0  0  0  0
 11 12  1  6  0  0  0
 11 13  1  0  0  0  0
 13 14  1  0  0  0  0
 13 15  1  1  0  0  0
 15 16  1  0  0  0  0
M  CHG  1   3  -1
M  END
>  <CHROM.1>
46.72859254,-172.54558703,-89.01947883,45.81410780,36.01682911,53.94512243
1.10732546,-0.70399629,2.32862842

>  <Name>
ligand

>  <RI>
0

>  <Rbt.Current_Directory>
/home/itssahil/PROJECTS/Mol_Feturizer/New_Systems/rnas/3B4A

>  <Rbt.Executable>
rbdock ($Id: //depot/dev/client3/rdock/2013.1/src/exe/rbdock.cxx#4 $)

>  <Rbt.Library>
libRbt.so (2013.1, Build901 2013/11/27)

>  <Rbt.Parameter_File>
/export/apps/rDock/src/rDock_2013.1_src/data/scripts/dock_solv.prm

>  <Rbt.Receptor>
prm/pocket_docking_6.prm

>  <SCORE>
-8.18534

>  <SCORE.INTER>
-8.30097

>  <SCORE.INTER.CONST>
1

>  <SCORE.INTER.POLAR>
0

>  <SCORE.INTER.ROT>
3

>  <SCORE.INTER.SOLV>
13.8869

>  <SCORE.INTER.VDW>
-15.7629

>  <SCORE.INTER.norm>
-0.518811

>  <SCORE.INTRA>
0.115629

>  <SCORE.INTRA.DIHEDRAL>
-0.0413205

>  <SCORE.INTRA.DIHEDRAL.0>
2.05999

>  <SCORE.INTRA.POLAR>
0

>  <SCORE.INTRA.POLAR.0>
0

>  <SCORE.INTRA.REPUL>
0

>  <SCORE.INTRA.REPUL.0>
0

>  <SCORE.INTRA.SOLV>
-0.473972

>  <SCORE.INTRA.SOLV.lig_0>
-58.7001

>  <SCORE.INTRA.VDW>
0.373275

>  <SCORE.INTRA.VDW.0>
-0.401036

>  <SCORE.INTRA.norm>
0.0072268

>  <SCORE.RESTR>
0

>  <SCORE.RESTR.CAVITY>
0

>  <SCORE.RESTR.norm>
0

>  <SCORE.SYSTEM>
0

>  <SCORE.SYSTEM.CONST>
0

>  <SCORE.SYSTEM.DIHEDRAL>
0

>  <SCORE.SYSTEM.SOLV>
0

>  <SCORE.SYSTEM.norm>
0

>  <SCORE.heavy>
16

>  <SCORE.norm>
-0.511584

>  <RMSD>
5.339

$$$$
ligand
 OpenBabel11021811463D
libRbt.so/2013.1/901 2013/11/27
 16 16  0  0  0  0  0  0  0  0999 V2000
   45.6117   34.0954   54.9222 P   0  0  2  0  0  0  0  0  0  0  0  0
   45.9554   34.2086   56.3615 O   0  0  0  0  0  0  0  0  0  0  0  0
   45.1686   35.5433   54.3670 O   0  5  0  0  0  0  0  0  0  0  0  0
   44.3938   33.0432   54.7582 O   0  0  0  0  0  0  0  0  0  0  0  0
   50.8442   32.3098   53.4110 C   0  0  2  0  0  0  0  0  0  0  0  0
   51.9403   33.2084   53.6963 O   0  0  0  0  0  0  0  0  0  0  0  0
   50.6304   32.1607   51.8766 C   0  0  2  0  0  0  0  0  0  0  0  0
   51.8700   31.6634   51.2519 N   0  0  0  0  0  0  0  0  0  0  0  0
   50.2599   33.5414   51.2919 C   0  0  1  0  0  0  0  0  0  0  0  0
   50.0496   33.4328   49.8740 O   0  0  0  0  0  0  0  0  0  0  0  0
   48.9607   34.0057   51.9825 C   0  0  2  0  0  0  0  0  0  0  0  0
   48.5885   35.2952   51.4670 O   0  0  0  0  0  0  0  0  0  0  0  0
   49.2318   34.1065   53.5152 C   0  0  2  0  0  0  0  0  0  0  0  0
   49.6273   32.8092   54.0522 O   0  0  0  0  0  0  0  0  0  0  0  0
   47.9666   34.5480   54.2689 C   0  0  0  0  0  0  0  0  0  0  0  0
   46.9152   33.5791   54.1103 O   0  0  0  0  0  0  0  0  0  0  0  0
  1  2  1  1  0  0  0
  1  3  1  0  0  0  0
  1  4  2  0  0  0  0
  1 16  1  0  0  0  0
  5  6  1  6  0  0  0
  5  7  1  0  0  0  0
  5 14  1  0  0  0  0
  7  8  1  6  0  0  0
  7  9  1  0  0  0  0
  9 10  1  6  0  0  0
  9 11  1  0  0  0  0
 11 12  1  6  0  0  0
 11 13  1  0  0  0  0
 13 14  1  0  0  0  0
 13 15  1  1  0  0  0
 15 16  1  0  0  0  0
M  CHG  1   3  -1
M  END
>  <CHROM.1>
62.35592493,-179.97712646,-61.31057785,48.34596631,33.65636879,53.35615149
-2.72043758,0.39522194,-1.25314194

>  <Name>
ligand

>  <RI>
0

>  <Rbt.Current_Directory>
/home/itssahil/PROJECTS/Mol_Feturizer/New_Systems/rnas/3B4A

>  <Rbt.Executable>
rbdock ($Id: //depot/dev/client3/rdock/2013.1/src/exe/rbdock.cxx#4 $)

>  <Rbt.Library>
libRbt.so (2013.1, Build901 2013/11/27)

>  <Rbt.Parameter_File>
/export/apps/rDock/src/rDock_2013.1_src/data/scripts/dock_solv.prm

>  <Rbt.Receptor>
prm/pocket_docking_4.prm

>  <SCORE>
-4.50316

>  <SCORE.INTER>
-2.84588

>  <SCORE.INTER.CONST>
1

>  <SCORE.INTER.POLAR>
0

>  <SCORE.INTER.ROT>
3

>  <SCORE.INTER.SOLV>
9.55584

>  <SCORE.INTER.VDW>
-10.6825

>  <SCORE.INTER.norm>
-0.177868

>  <SCORE.INTRA>
-1.65727

>  <SCORE.INTRA.DIHEDRAL>
-2.03402

>  <SCORE.INTRA.DIHEDRAL.0>
2.05999

>  <SCORE.INTRA.POLAR>
0

>  <SCORE.INTRA.POLAR.0>
0

>  <SCORE.INTRA.REPUL>
0

>  <SCORE.INTRA.REPUL.0>
0

>  <SCORE.INTRA.SOLV>
-0.834813

>  <SCORE.INTRA.SOLV.lig_0>
-58.7001

>  <SCORE.INTRA.VDW>
-0.222859

>  <SCORE.INTRA.VDW.0>
-0.401036

>  <SCORE.INTRA.norm>
-0.10358

>  <SCORE.RESTR>
0

>  <SCORE.RESTR.CAVITY>
0

>  <SCORE.RESTR.norm>
0

>  <SCORE.SYSTEM>
0

>  <SCORE.SYSTEM.CONST>
0

>  <SCORE.SYSTEM.DIHEDRAL>
0

>  <SCORE.SYSTEM.SOLV>
0

>  <SCORE.SYSTEM.norm>
0

>  <SCORE.heavy>
16

>  <SCORE.norm>
-0.281447

>  <RMSD>
5.352

$$$$
ligand
 OpenBabel11021811463D
libRbt.so/2013.1/901 2013/11/27
 16 16  0  0  0  0  0  0  0  0999 V2000
   44.7596   35.4795   55.1607 P   0  0  2  0  0  0  0  0  0  0  0  0
   44.7572   35.1136   56.5989 O   0  0  0  0  0  0  0  0  0  0  0  0
   44.0224   36.9016   54.9737 O   0  5  0  0  0  0  0  0  0  0  0  0
   43.9735   34.3350   54.3303 O   0  0  0  0  0  0  0  0  0  0  0  0
   50.3290   32.9587   54.0348 C   0  0  2  0  0  0  0  0  0  0  0  0
   51.1482   33.9847   54.6402 O   0  0  0  0  0  0  0  0  0  0  0  0
   50.3204   33.0948   52.4845 C   0  0  2  0  0  0  0  0  0  0  0  0
   51.7011   33.0087   51.9741 N   0  0  0  0  0  0  0  0  0  0  0  0
   49.7020   34.4598   52.1107 C   0  0  1  0  0  0  0  0  0  0  0  0
   49.6748   34.6108   50.6814 O   0  0  0  0  0  0  0  0  0  0  0  0
   48.2644   34.4882   52.6703 C   0  0  2  0  0  0  0  0  0  0  0  0
   47.6583   35.7513   52.3470 O   0  0  0  0  0  0  0  0  0  0  0  0
   48.3399   34.3182   54.2188 C   0  0  2  0  0  0  0  0  0  0  0  0
   48.9680   33.0480   54.5651 O   0  0  0  0  0  0  0  0  0  0  0  0
   46.9338   34.3186   54.8406 C   0  0  0  0  0  0  0  0  0  0  0  0
   46.2932   35.5924   54.6504 O   0  0  0  0  0  0  0  0  0  0  0  0
  1  2  1  1  0  0  0
  1  3  1  0  0  0  0
  1  4  2  0  0  0  0
  1 16  1  0  0  0  0
  5  6  1  1  0  0  0
  5  7  1  0  0  0  0
  5 14  1  0  0  0  0
  7  8  1  1  0  0  0
  7  9  1  0  0  0  0
  9 10  1  6  0  0  0
  9 11  1  0  0  0  0
 11 12  1  1  0  0  0
 11 13  1  0  0  0  0
 13 14  1  0  0  0  0
 13 15  1  6  0  0  0
 15 16  1  0  0  0  0
M  CHG  1   3  -1
M  END
>  <CHROM.1>
-64.51993643,173.20204911,59.97837770,47.63111855,34.57496571,53.89535540
-2.87337856,0.42257224,-1.22659421

>  <Name>
ligand

>  <RI>
0

>  <Rbt.Current_Directory>
/home/itssahil/PROJECTS/Mol_Feturizer/New_Systems/rnas/3B4A

>  <Rbt.Executable>
rbdock ($Id: //depot/dev/client3/rdock/2013.1/src/exe/rbdock.cxx#4 $)

>  <Rbt.Library>
libRbt.so (2013.1, Build901 2013/11/27)

>  <Rbt.Parameter_File>
/export/apps/rDock/src/rDock_2013.1_src/data/scripts/dock_solv.prm

>  <Rbt.Receptor>
prm/pocket_docking_4.prm

>  <SCORE>
-6.34416

>  <SCORE.INTER>
-5.10973

>  <SCORE.INTER.CONST>
1

>  <SCORE.INTER.POLAR>
0

>  <SCORE.INTER.ROT>
3

>  <SCORE.INTER.SOLV>
13.9723

>  <SCORE.INTER.VDW>
-13.6639

>  <SCORE.INTER.norm>
-0.319358

>  <SCORE.INTRA>
-1.23443

>  <SCORE.INTRA.DIHEDRAL>
-1.75969

>  <SCORE.INTRA.DIHEDRAL.0>
2.05999

>  <SCORE.INTRA.POLAR>
0

>  <SCORE.INTRA.POLAR.0>
0

>  <SCORE.INTRA.REPUL>
0

>  <SCORE.INTRA.REPUL.0>
0

>  <SCORE.INTRA.SOLV>
-0.533457

>  <SCORE.INTRA.SOLV.lig_0>
-58.7001

>  <SCORE.INTRA.VDW>
-0.0878542

>  <SCORE.INTRA.VDW.0>
-0.401036

>  <SCORE.INTRA.norm>
-0.0771519

>  <SCORE.RESTR>
0

>  <SCORE.RESTR.CAVITY>
0

>  <SCORE.RESTR.norm>
0

>  <SCORE.SYSTEM>
0

>  <SCORE.SYSTEM.CONST>
0

>  <SCORE.SYSTEM.DIHEDRAL>
0

>  <SCORE.SYSTEM.SOLV>
0

>  <SCORE.SYSTEM.norm>
0

>  <SCORE.heavy>
16

>  <SCORE.norm>
-0.39651

>  <RMSD>
5.360

$$$$
ligand
 OpenBabel11021811463D
libRbt.so/2013.1/901 2013/11/27
 16 16  0  0  0  0  0  0  0  0999 V2000
   46.3343   33.7615   55.7466 P   0  0  2  0  0  0  0  0  0  0  0  0
   46.9407   33.4885   57.0734 O   0  0  0  0  0  0  0  0  0  0  0  0
   46.1000   32.3658   54.9731 O   0  5  0  0  0  0  0  0  0  0  0  0
   47.3394   34.7030   54.8977 O   0  0  0  0  0  0  0  0  0  0  0  0
   44.5083   38.1710   54.3411 C   0  0  2  0  0  0  0  0  0  0  0  0
   43.2987   38.4433   53.5973 O   0  0  0  0  0  0  0  0  0  0  0  0
   45.7588   38.2428   53.4175 C   0  0  2  0  0  0  0  0  0  0  0  0
   45.8359   39.5769   52.7943 N   0  0  0  0  0  0  0  0  0  0  0  0
   45.6323   37.1558   52.3275 C   0  0  1  0  0  0  0  0  0  0  0  0
   46.7792   37.1941   51.4616 O   0  0  0  0  0  0  0  0  0  0  0  0
   45.5561   35.7893   53.0397 C   0  0  2  0  0  0  0  0  0  0  0  0
   45.4297   34.7508   52.0534 O   0  0  0  0  0  0  0  0  0  0  0  0
   44.3034   35.7923   53.9688 C   0  0  2  0  0  0  0  0  0  0  0  0
   44.4074   36.8517   54.9662 O   0  0  0  0  0  0  0  0  0  0  0  0
   44.1784   34.4604   54.7265 C   0  0  0  0  0  0  0  0  0  0  0  0
   44.9122   34.5070   55.9629 O   0  0  0  0  0  0  0  0  0  0  0  0
  1  2  1  1  0  0  0
  1  3  1  0  0  0  0
  1  4  2  0  0  0  0
  1 16  1  0  0  0  0
  5  6  1  6  0  0  0
  5  7  1  0  0  0  0
  5 14  1  0  0  0  0
  7  8  1  6  0  0  0
  7  9  1  0  0  0  0
  9 10  1  6  0  0  0
  9 11  1  0  0  0  0
 11 12  1  6  0  0  0
 11 13  1  0  0  0  0
 13 14  1  0  0  0  0
 13 15  1  1  0  0  0
 15 16  1  0  0  0  0
M  CHG  1   3  -1
M  END
>  <CHROM.1>
88.41628912,-99.66306175,-165.36006129,45.53433580,35.74255884,54.22747296
1.26893058,-0.85608844,2.35795566

>  <Name>
ligand

>  <RI>
0

>  <Rbt.Current_Directory>
/home/itssahil/PROJECTS/Mol_Feturizer/New_Systems/rnas/3B4A

>  <Rbt.Executable>
rbdock ($Id: //depot/dev/client3/rdock/2013.1/src/exe/rbdock.cxx#4 $)

>  <Rbt.Library>
libRbt.so (2013.1, Build901 2013/11/27)

>  <Rbt.Parameter_File>
/export/apps/rDock/src/rDock_2013.1_src/data/scripts/dock_solv.prm

>  <Rbt.Receptor>
prm/pocket_docking_5.prm

>  <SCORE>
-5.69006

>  <SCORE.INTER>
-10.3833

>  <SCORE.INTER.CONST>
1

>  <SCORE.INTER.POLAR>
0

>  <SCORE.INTER.ROT>
3

>  <SCORE.INTER.SOLV>
13.9028

>  <SCORE.INTER.VDW>
-17.1565

>  <SCORE.INTER.norm>
-0.648959

>  <SCORE.INTRA>
4.69328

>  <SCORE.INTRA.DIHEDRAL>
6.04823

>  <SCORE.INTRA.DIHEDRAL.0>
2.05999

>  <SCORE.INTRA.POLAR>
0

>  <SCORE.INTRA.POLAR.0>
0

>  <SCORE.INTRA.REPUL>
0

>  <SCORE.INTRA.REPUL.0>
0

>  <SCORE.INTRA.SOLV>
4.69528

>  <SCORE.INTRA.SOLV.lig_0>
-58.7001

>  <SCORE.INTRA.VDW>
-0.678472

>  <SCORE.INTRA.VDW.0>
-0.401036

>  <SCORE.INTRA.norm>
0.29333

>  <SCORE.RESTR>
0

>  <SCORE.RESTR.CAVITY>
0

>  <SCORE.RESTR.norm>
0

>  <SCORE.SYSTEM>
0

>  <SCORE.SYSTEM.CONST>
0

>  <SCORE.SYSTEM.DIHEDRAL>
0

>  <SCORE.SYSTEM.SOLV>
0

>  <SCORE.SYSTEM.norm>
0

>  <SCORE.heavy>
16

>  <SCORE.norm>
-0.355628

>  <RMSD>
5.369

$$$$
ligand
 OpenBabel11021811463D
libRbt.so/2013.1/901 2013/11/27
 16 16  0  0  0  0  0  0  0  0999 V2000
   44.9690   34.8508   55.2791 P   0  0  2  0  0  0  0  0  0  0  0  0
   44.4503   35.2751   56.6032 O   0  0  0  0  0  0  0  0  0  0  0  0
   44.3733   35.8238   54.1392 O   0  5  0  0  0  0  0  0  0  0  0  0
   44.5062   33.3255   55.0022 O   0  0  0  0  0  0  0  0  0  0  0  0
   50.4573   32.3926   53.8531 C   0  0  2  0  0  0  0  0  0  0  0  0
   51.3059   32.9757   54.8680 O   0  0  0  0  0  0  0  0  0  0  0  0
   50.5857   33.1647   52.5079 C   0  0  2  0  0  0  0  0  0  0  0  0
   51.9915   33.1506   52.0633 N   0  0  0  0  0  0  0  0  0  0  0  0
   50.1136   34.6192   52.7249 C   0  0  1  0  0  0  0  0  0  0  0  0
   50.2150   35.3562   51.4948 O   0  0  0  0  0  0  0  0  0  0  0  0
   48.6426   34.5669   53.1872 C   0  0  2  0  0  0  0  0  0  0  0  0
   48.1702   35.9069   53.4070 O   0  0  0  0  0  0  0  0  0  0  0  0
   48.5779   33.7577   54.5190 C   0  0  2  0  0  0  0  0  0  0  0  0
   49.0696   32.3991   54.3177 O   0  0  0  0  0  0  0  0  0  0  0  0
   47.1308   33.6506   55.0269 C   0  0  0  0  0  0  0  0  0  0  0  0
   46.5858   34.9555   55.2906 O   0  0  0  0  0  0  0  0  0  0  0  0
  1  2  1  1  0  0  0
  1  3  1  0  0  0  0
  1  4  2  0  0  0  0
  1 16  1  0  0  0  0
  5  6  1  1  0  0  0
  5  7  1  0  0  0  0
  5 14  1  0  0  0  0
  7  8  1  1  0  0  0
  7  9  1  0  0  0  0
  9 10  1  6  0  0  0
  9 11  1  0  0  0  0
 11 12  1  1  0  0  0
 11 13  1  0  0  0  0
 13 14  1  0  0  0  0
 13 15  1  6  0  0  0
 15 16  1  0  0  0  0
M  CHG  1   3  -1
M  END
>  <CHROM.1>
-60.89826220,159.19008670,120.28527942,47.89574776,34.21548226,54.13921023
3.05066745,-0.42016927,2.40849073

>  <Name>
ligand

>  <RI>
0

>  <Rbt.Current_Directory>
/home/itssahil/PROJECTS/Mol_Feturizer/New_Systems/rnas/3B4A

>  <Rbt.Executable>
rbdock ($Id: //depot/dev/client3/rdock/2013.1/src/exe/rbdock.cxx#4 $)

>  <Rbt.Library>
libRbt.so (2013.1, Build901 2013/11/27)

>  <Rbt.Parameter_File>
/export/apps/rDock/src/rDock_2013.1_src/data/scripts/dock_solv.prm

>  <Rbt.Receptor>
prm/pocket_docking_3.prm

>  <SCORE>
-3.77331

>  <SCORE.INTER>
-6.06785

>  <SCORE.INTER.CONST>
1

>  <SCORE.INTER.POLAR>
0

>  <SCORE.INTER.ROT>
3

>  <SCORE.INTER.SOLV>
13.4305

>  <SCORE.INTER.VDW>
-14.1221

>  <SCORE.INTER.norm>
-0.379241

>  <SCORE.INTRA>
2.29454

>  <SCORE.INTRA.DIHEDRAL>
2.27788

>  <SCORE.INTRA.DIHEDRAL.0>
2.05999

>  <SCORE.INTRA.POLAR>
0

>  <SCORE.INTRA.POLAR.0>
0

>  <SCORE.INTRA.REPUL>
0

>  <SCORE.INTRA.REPUL.0>
0

>  <SCORE.INTRA.SOLV>
0.501443

>  <SCORE.INTRA.SOLV.lig_0>
-58.7001

>  <SCORE.INTRA.VDW>
0.904883

>  <SCORE.INTRA.VDW.0>
-0.401036

>  <SCORE.INTRA.norm>
0.143409

>  <SCORE.RESTR>
0

>  <SCORE.RESTR.CAVITY>
0

>  <SCORE.RESTR.norm>
0

>  <SCORE.SYSTEM>
0

>  <SCORE.SYSTEM.CONST>
0

>  <SCORE.SYSTEM.DIHEDRAL>
0

>  <SCORE.SYSTEM.SOLV>
0

>  <SCORE.SYSTEM.norm>
0

>  <SCORE.heavy>
16

>  <SCORE.norm>
-0.235832

>  <RMSD>
5.394

$$$$
ligand
 OpenBabel11021811463D
libRbt.so/2013.1/901 2013/11/27
 16 16  0  0  0  0  0  0  0  0999 V2000
   43.9976   38.7447   53.3339 P   0  0  2  0  0  0  0  0  0  0  0  0
   42.6838   38.2715   52.8315 O   0  0  0  0  0  0  0  0  0  0  0  0
   43.7634   39.9551   54.3737 O   0  5  0  0  0  0  0  0  0  0  0  0
   44.8820   39.2559   52.0794 O   0  0  0  0  0  0  0  0  0  0  0  0
   45.7163   33.6256   55.4261 C   0  0  2  0  0  0  0  0  0  0  0  0
   46.8372   34.1693   56.1598 O   0  0  0  0  0  0  0  0  0  0  0  0
   46.1879   32.5535   54.4014 C   0  0  2  0  0  0  0  0  0  0  0  0
   46.9022   31.4750   55.1092 N   0  0  0  0  0  0  0  0  0  0  0  0
   47.1273   33.2271   53.3770 C   0  0  1  0  0  0  0  0  0  0  0  0
   47.5744   32.2601   52.4119 O   0  0  0  0  0  0  0  0  0  0  0  0
   46.3254   34.3414   52.6728 C   0  0  2  0  0  0  0  0  0  0  0  0
   47.1729   34.9975   51.7145 O   0  0  0  0  0  0  0  0  0  0  0  0
   45.8579   35.3640   53.7538 C   0  0  2  0  0  0  0  0  0  0  0  0
   45.0097   34.7107   54.7446 O   0  0  0  0  0  0  0  0  0  0  0  0
   45.0331   36.4955   53.1191 C   0  0  0  0  0  0  0  0  0  0  0  0
   44.7439   37.5196   54.0870 O   0  0  0  0  0  0  0  0  0  0  0  0
  1  2  1  6  0  0  0
  1  3  1  0  0  0  0
  1  4  2  0  0  0  0
  1 16  1  0  0  0  0
  5  6  1  6  0  0  0
  5  7  1  0  0  0  0
  5 14  1  0  0  0  0
  7  8  1  1  0  0  0
  7  9  1  0  0  0  0
  9 10  1  6  0  0  0
  9 11  1  0  0  0  0
 11 12  1  6  0  0  0
 11 13  1  0  0  0  0
 13 14  1  0  0  0  0
 13 15  1  6  0  0  0
 15 16  1  0  0  0  0
M  CHG  1   3  -1
M  END
>  <CHROM.1>
-172.92448505,174.75721763,64.94217362,45.47460110,35.75035339,53.68339400
2.50411208,1.01155510,-0.98504816

>  <Name>
ligand

>  <RI>
0

>  <Rbt.Current_Directory>
/home/itssahil/PROJECTS/Mol_Feturizer/New_Systems/rnas/3B4A

>  <Rbt.Executable>
rbdock ($Id: //depot/dev/client3/rdock/2013.1/src/exe/rbdock.cxx#4 $)

>  <Rbt.Library>
libRbt.so (2013.1, Build901 2013/11/27)

>  <Rbt.Parameter_File>
/export/apps/rDock/src/rDock_2013.1_src/data/scripts/dock_solv.prm

>  <Rbt.Receptor>
prm/pocket_docking_6.prm

>  <SCORE>
-6.95753

>  <SCORE.INTER>
-5.47916

>  <SCORE.INTER.CONST>
1

>  <SCORE.INTER.POLAR>
0

>  <SCORE.INTER.ROT>
3

>  <SCORE.INTER.SOLV>
14.8564

>  <SCORE.INTER.VDW>
-14.2049

>  <SCORE.INTER.norm>
-0.342448

>  <SCORE.INTRA>
-1.47836

>  <SCORE.INTRA.DIHEDRAL>
-1.70164

>  <SCORE.INTRA.DIHEDRAL.0>
2.05999

>  <SCORE.INTRA.POLAR>
0

>  <SCORE.INTRA.POLAR.0>
0

>  <SCORE.INTRA.REPUL>
0

>  <SCORE.INTRA.REPUL.0>
0

>  <SCORE.INTRA.SOLV>
-1.0394

>  <SCORE.INTRA.SOLV.lig_0>
-58.7001

>  <SCORE.INTRA.VDW>
-0.10784

>  <SCORE.INTRA.VDW.0>
-0.401036

>  <SCORE.INTRA.norm>
-0.0923977

>  <SCORE.RESTR>
0

>  <SCORE.RESTR.CAVITY>
0

>  <SCORE.RESTR.norm>
0

>  <SCORE.SYSTEM>
0

>  <SCORE.SYSTEM.CONST>
0

>  <SCORE.SYSTEM.DIHEDRAL>
0

>  <SCORE.SYSTEM.SOLV>
0

>  <SCORE.SYSTEM.norm>
0

>  <SCORE.heavy>
16

>  <SCORE.norm>
-0.434845

>  <RMSD>
5.394

$$$$
ligand
 OpenBabel11021811463D
libRbt.so/2013.1/901 2013/11/27
 16 16  0  0  0  0  0  0  0  0999 V2000
   43.7599   38.4054   52.8659 P   0  0  2  0  0  0  0  0  0  0  0  0
   42.3529   38.3919   52.3939 O   0  0  0  0  0  0  0  0  0  0  0  0
   43.9230   39.5242   54.0159 O   0  5  0  0  0  0  0  0  0  0  0  0
   44.7260   38.7519   51.6153 O   0  0  0  0  0  0  0  0  0  0  0  0
   45.8430   33.5848   55.5384 C   0  0  2  0  0  0  0  0  0  0  0  0
   47.1517   33.7402   56.1329 O   0  0  0  0  0  0  0  0  0  0  0  0
   45.9297   32.8016   54.1963 C   0  0  2  0  0  0  0  0  0  0  0  0
   46.5388   31.4802   54.4348 N   0  0  0  0  0  0  0  0  0  0  0  0
   46.7938   33.6118   53.2053 C   0  0  1  0  0  0  0  0  0  0  0  0
   46.8862   32.9143   51.9516 O   0  0  0  0  0  0  0  0  0  0  0  0
   46.1072   34.9778   52.9980 C   0  0  2  0  0  0  0  0  0  0  0  0
   46.8901   35.7645   52.0841 O   0  0  0  0  0  0  0  0  0  0  0  0
   46.0247   35.6973   54.3794 C   0  0  2  0  0  0  0  0  0  0  0  0
   45.2469   34.9041   55.3248 O   0  0  0  0  0  0  0  0  0  0  0  0
   45.3305   37.0627   54.2469 C   0  0  0  0  0  0  0  0  0  0  0  0
   44.1242   36.9476   53.4719 O   0  0  0  0  0  0  0  0  0  0  0  0
  1  2  1  6  0  0  0
  1  3  1  0  0  0  0
  1  4  2  0  0  0  0
  1 16  1  0  0  0  0
  5  6  1  6  0  0  0
  5  7  1  0  0  0  0
  5 14  1  0  0  0  0
  7  8  1  1  0  0  0
  7  9  1  0  0  0  0
  9 10  1  6  0  0  0
  9 11  1  0  0  0  0
 11 12  1  6  0  0  0
 11 13  1  0  0  0  0
 13 14  1  0  0  0  0
 13 15  1  6  0  0  0
 15 16  1  0  0  0  0
M  CHG  1   3  -1
M  END
>  <CHROM.1>
46.95977558,-157.67368139,-164.44657467,45.32836793,35.80840577,53.59701008
-2.65266465,-1.04643490,1.86907254

>  <Name>
ligand

>  <RI>
0

>  <Rbt.Current_Directory>
/home/itssahil/PROJECTS/Mol_Feturizer/New_Systems/rnas/3B4A

>  <Rbt.Executable>
rbdock ($Id: //depot/dev/client3/rdock/2013.1/src/exe/rbdock.cxx#4 $)

>  <Rbt.Library>
libRbt.so (2013.1, Build901 2013/11/27)

>  <Rbt.Parameter_File>
/export/apps/rDock/src/rDock_2013.1_src/data/scripts/dock_solv.prm

>  <Rbt.Receptor>
prm/pocket_docking_5.prm

>  <SCORE>
-6.84225

>  <SCORE.INTER>
-7.52464

>  <SCORE.INTER.CONST>
1

>  <SCORE.INTER.POLAR>
0

>  <SCORE.INTER.ROT>
3

>  <SCORE.INTER.SOLV>
15.3255

>  <SCORE.INTER.VDW>
-15.7249

>  <SCORE.INTER.norm>
-0.47029

>  <SCORE.INTRA>
0.682395

>  <SCORE.INTRA.DIHEDRAL>
1.09912

>  <SCORE.INTRA.DIHEDRAL.0>
2.05999

>  <SCORE.INTRA.POLAR>
0

>  <SCORE.INTRA.POLAR.0>
0

>  <SCORE.INTRA.REPUL>
0

>  <SCORE.INTRA.REPUL.0>
0

>  <SCORE.INTRA.SOLV>
0.696579

>  <SCORE.INTRA.SOLV.lig_0>
-58.7001

>  <SCORE.INTRA.VDW>
-0.215454

>  <SCORE.INTRA.VDW.0>
-0.401036

>  <SCORE.INTRA.norm>
0.0426497

>  <SCORE.RESTR>
0

>  <SCORE.RESTR.CAVITY>
0

>  <SCORE.RESTR.norm>
0

>  <SCORE.SYSTEM>
0

>  <SCORE.SYSTEM.CONST>
0

>  <SCORE.SYSTEM.DIHEDRAL>
0

>  <SCORE.SYSTEM.SOLV>
0

>  <SCORE.SYSTEM.norm>
0

>  <SCORE.heavy>
16

>  <SCORE.norm>
-0.42764

>  <RMSD>
5.402

$$$$
ligand
 OpenBabel11021811463D
libRbt.so/2013.1/901 2013/11/27
 16 16  0  0  0  0  0  0  0  0999 V2000
   44.0142   38.7423   53.3512 P   0  0  2  0  0  0  0  0  0  0  0  0
   42.7828   38.1557   52.7665 O   0  0  0  0  0  0  0  0  0  0  0  0
   43.6153   40.0058   54.2707 O   0  5  0  0  0  0  0  0  0  0  0  0
   44.9868   39.2177   52.1490 O   0  0  0  0  0  0  0  0  0  0  0  0
   45.6158   33.6009   55.4347 C   0  0  2  0  0  0  0  0  0  0  0  0
   46.2084   34.1266   56.6442 O   0  0  0  0  0  0  0  0  0  0  0  0
   46.6547   32.7816   54.6153 C   0  0  2  0  0  0  0  0  0  0  0  0
   47.1787   31.6802   55.4439 N   0  0  0  0  0  0  0  0  0  0  0  0
   47.8058   33.7216   54.1947 C   0  0  1  0  0  0  0  0  0  0  0  0
   48.7795   32.9922   53.4289 O   0  0  0  0  0  0  0  0  0  0  0  0
   47.1961   34.8479   53.3344 C   0  0  2  0  0  0  0  0  0  0  0  0
   48.2407   35.7493   52.9299 O   0  0  0  0  0  0  0  0  0  0  0  0
   46.1457   35.6093   54.2002 C   0  0  2  0  0  0  0  0  0  0  0  0
   45.0863   34.7051   54.6336 O   0  0  0  0  0  0  0  0  0  0  0  0
   45.4833   36.7379   53.3934 C   0  0  0  0  0  0  0  0  0  0  0  0
   44.7494   37.6207   54.2603 O   0  0  0  0  0  0  0  0  0  0  0  0
  1  2  1  6  0  0  0
  1  3  1  0  0  0  0
  1  4  2  0  0  0  0
  1 16  1  0  0  0  0
  5  6  1  1  0  0  0
  5  7  1  0  0  0  0
  5 14  1  0  0  0  0
  7  8  1  1  0  0  0
  7  9  1  0  0  0  0
  9 10  1  6  0  0  0
  9 11  1  0  0  0  0
 11 12  1  1  0  0  0
 11 13  1  0  0  0  0
 13 14  1  0  0  0  0
 13 15  1  6  0  0  0
 15 16  1  0  0  0  0
M  CHG  1   3  -1
M  END
>  <CHROM.1>
-167.01494266,-177.18444906,79.74029439,45.74393009,35.94077780,54.00044957
2.20750631,0.58656757,-0.62187182

>  <Name>
ligand

>  <RI>
0

>  <Rbt.Current_Directory>
/home/itssahil/PROJECTS/Mol_Feturizer/New_Systems/rnas/3B4A

>  <Rbt.Executable>
rbdock ($Id: //depot/dev/client3/rdock/2013.1/src/exe/rbdock.cxx#4 $)

>  <Rbt.Library>
libRbt.so (2013.1, Build901 2013/11/27)

>  <Rbt.Parameter_File>
/export/apps/rDock/src/rDock_2013.1_src/data/scripts/dock_solv.prm

>  <Rbt.Receptor>
prm/pocket_docking_7.prm

>  <SCORE>
-7.45923

>  <SCORE.INTER>
-6.60857

>  <SCORE.INTER.CONST>
1

>  <SCORE.INTER.POLAR>
0

>  <SCORE.INTER.ROT>
3

>  <SCORE.INTER.SOLV>
15.1945

>  <SCORE.INTER.VDW>
-15.0705

>  <SCORE.INTER.norm>
-0.413036

>  <SCORE.INTRA>
-0.850659

>  <SCORE.INTRA.DIHEDRAL>
-0.842127

>  <SCORE.INTRA.DIHEDRAL.0>
2.05999

>  <SCORE.INTRA.POLAR>
0

>  <SCORE.INTRA.POLAR.0>
0

>  <SCORE.INTRA.REPUL>
0

>  <SCORE.INTRA.REPUL.0>
0

>  <SCORE.INTRA.SOLV>
-0.90598

>  <SCORE.INTRA.SOLV.lig_0>
-58.7001

>  <SCORE.INTRA.VDW>
0.0233952

>  <SCORE.INTRA.VDW.0>
-0.401036

>  <SCORE.INTRA.norm>
-0.0531662

>  <SCORE.RESTR>
0

>  <SCORE.RESTR.CAVITY>
0

>  <SCORE.RESTR.norm>
0

>  <SCORE.SYSTEM>
0

>  <SCORE.SYSTEM.CONST>
0

>  <SCORE.SYSTEM.DIHEDRAL>
0

>  <SCORE.SYSTEM.SOLV>
0

>  <SCORE.SYSTEM.norm>
0

>  <SCORE.heavy>
16

>  <SCORE.norm>
-0.466202

>  <RMSD>
5.424

$$$$
ligand
 OpenBabel11021811463D
libRbt.so/2013.1/901 2013/11/27
 16 16  0  0  0  0  0  0  0  0999 V2000
   46.4402   33.4507   55.5988 P   0  0  2  0  0  0  0  0  0  0  0  0
   46.6192   33.2393   57.0568 O   0  0  0  0  0  0  0  0  0  0  0  0
   46.7933   32.0847   54.8173 O   0  5  0  0  0  0  0  0  0  0  0  0
   47.4313   34.6355   55.1181 O   0  0  0  0  0  0  0  0  0  0  0  0
   46.0614   37.0697   51.8865 C   0  0  2  0  0  0  0  0  0  0  0  0
   47.3536   37.2435   52.5111 O   0  0  0  0  0  0  0  0  0  0  0  0
   45.0745   38.1899   52.3259 C   0  0  2  0  0  0  0  0  0  0  0  0
   45.6352   39.5074   51.9738 N   0  0  0  0  0  0  0  0  0  0  0  0
   44.8657   38.0945   53.8533 C   0  0  1  0  0  0  0  0  0  0  0  0
   43.9514   39.1153   54.2878 O   0  0  0  0  0  0  0  0  0  0  0  0
   44.2801   36.6998   54.1567 C   0  0  2  0  0  0  0  0  0  0  0  0
   44.0790   36.5718   55.5746 O   0  0  0  0  0  0  0  0  0  0  0  0
   45.2994   35.6254   53.6675 C   0  0  2  0  0  0  0  0  0  0  0  0
   45.5281   35.7516   52.2323 O   0  0  0  0  0  0  0  0  0  0  0  0
   44.7668   34.2061   53.9235 C   0  0  0  0  0  0  0  0  0  0  0  0
   44.8978   33.8559   55.3126 O   0  0  0  0  0  0  0  0  0  0  0  0
  1  2  1  1  0  0  0
  1  3  1  0  0  0  0
  1  4  2  0  0  0  0
  1 16  1  0  0  0  0
  5  6  1  1  0  0  0
  5  7  1  0  0  0  0
  5 14  1  0  0  0  0
  7  8  1  1  0  0  0
  7  9  1  0  0  0  0
  9 10  1  6  0  0  0
  9 11  1  0  0  0  0
 11 12  1  1  0  0  0
 11 13  1  0  0  0  0
 13 14  1  0  0  0  0
 13 15  1  6  0  0  0
 15 16  1  0  0  0  0
M  CHG  1   3  -1
M  END
>  <CHROM.1>
-76.62301360,-78.14462951,173.55548714,45.65155893,35.72592276,54.17898883
-1.28306556,0.78193082,-0.70667732

>  <Name>
ligand

>  <RI>
0

>  <Rbt.Current_Directory>
/home/itssahil/PROJECTS/Mol_Feturizer/New_Systems/rnas/3B4A

>  <Rbt.Executable>
rbdock ($Id: //depot/dev/client3/rdock/2013.1/src/exe/rbdock.cxx#4 $)

>  <Rbt.Library>
libRbt.so (2013.1, Build901 2013/11/27)

>  <Rbt.Parameter_File>
/export/apps/rDock/src/rDock_2013.1_src/data/scripts/dock_solv.prm

>  <Rbt.Receptor>
prm/pocket_docking_5.prm

>  <SCORE>
-6.98518

>  <SCORE.INTER>
-8.55433

>  <SCORE.INTER.CONST>
1

>  <SCORE.INTER.POLAR>
0

>  <SCORE.INTER.ROT>
3

>  <SCORE.INTER.SOLV>
15.0587

>  <SCORE.INTER.VDW>
-16.3225

>  <SCORE.INTER.norm>
-0.534645

>  <SCORE.INTRA>
1.56915

>  <SCORE.INTRA.DIHEDRAL>
0.449367

>  <SCORE.INTRA.DIHEDRAL.0>
2.05999

>  <SCORE.INTRA.POLAR>
0

>  <SCORE.INTRA.POLAR.0>
0

>  <SCORE.INTRA.REPUL>
0

>  <SCORE.INTRA.REPUL.0>
0

>  <SCORE.INTRA.SOLV>
3.2427

>  <SCORE.INTRA.SOLV.lig_0>
-58.7001

>  <SCORE.INTRA.VDW>
-0.276881

>  <SCORE.INTRA.VDW.0>
-0.401036

>  <SCORE.INTRA.norm>
0.098072

>  <SCORE.RESTR>
0

>  <SCORE.RESTR.CAVITY>
0

>  <SCORE.RESTR.norm>
0

>  <SCORE.SYSTEM>
0

>  <SCORE.SYSTEM.CONST>
0

>  <SCORE.SYSTEM.DIHEDRAL>
0

>  <SCORE.SYSTEM.SOLV>
0

>  <SCORE.SYSTEM.norm>
0

>  <SCORE.heavy>
16

>  <SCORE.norm>
-0.436574

>  <RMSD>
5.437

$$$$
ligand
 OpenBabel11021811463D
libRbt.so/2013.1/901 2013/11/27
 16 16  0  0  0  0  0  0  0  0999 V2000
   46.1082   34.0474   55.2467 P   0  0  2  0  0  0  0  0  0  0  0  0
   46.5732   33.7669   56.6279 O   0  0  0  0  0  0  0  0  0  0  0  0
   45.2907   35.4376   55.2341 O   0  5  0  0  0  0  0  0  0  0  0  0
   45.1495   32.8371   54.7635 O   0  0  0  0  0  0  0  0  0  0  0  0
   51.4558   31.8771   52.9439 C   0  0  2  0  0  0  0  0  0  0  0  0
   52.1695   33.1343   52.9604 O   0  0  0  0  0  0  0  0  0  0  0  0
   50.9905   31.5190   51.5026 C   0  0  2  0  0  0  0  0  0  0  0  0
   52.1615   31.4495   50.6091 N   0  0  0  0  0  0  0  0  0  0  0  0
   50.0143   32.6106   51.0119 C   0  0  1  0  0  0  0  0  0  0  0  0
   49.5618   32.3022   49.6828 O   0  0  0  0  0  0  0  0  0  0  0  0
   48.8160   32.6341   51.9835 C   0  0  2  0  0  0  0  0  0  0  0  0
   47.8872   33.6470   51.5611 O   0  0  0  0  0  0  0  0  0  0  0  0
   49.3508   32.9680   53.4101 C   0  0  2  0  0  0  0  0  0  0  0  0
   50.3081   31.9582   53.8481 O   0  0  0  0  0  0  0  0  0  0  0  0
   48.2052   32.9884   54.4352 C   0  0  0  0  0  0  0  0  0  0  0  0
   47.3975   34.1677   54.2730 O   0  0  0  0  0  0  0  0  0  0  0  0
  1  2  1  1  0  0  0
  1  3  1  0  0  0  0
  1  4  2  0  0  0  0
  1 16  1  0  0  0  0
  5  6  1  6  0  0  0
  5  7  1  0  0  0  0
  5 14  1  0  0  0  0
  7  8  1  6  0  0  0
  7  9  1  0  0  0  0
  9 10  1  6  0  0  0
  9 11  1  0  0  0  0
 11 12  1  6  0  0  0
 11 13  1  0  0  0  0
 13 14  1  0  0  0  0
 13 15  1  1  0  0  0
 15 16  1  0  0  0  0
M  CHG  1   3  -1
M  END
>  <CHROM.1>
-73.60103585,173.03082136,53.07127717,48.58042915,33.07310043,53.32306326
-2.48864119,0.30328826,-1.67264567

>  <Name>
ligand

>  <RI>
0

>  <Rbt.Current_Directory>
/home/itssahil/PROJECTS/Mol_Feturizer/New_Systems/rnas/3B4A

>  <Rbt.Executable>
rbdock ($Id: //depot/dev/client3/rdock/2013.1/src/exe/rbdock.cxx#4 $)

>  <Rbt.Library>
libRbt.so (2013.1, Build901 2013/11/27)

>  <Rbt.Parameter_File>
/export/apps/rDock/src/rDock_2013.1_src/data/scripts/dock_solv.prm

>  <Rbt.Receptor>
prm/pocket_docking_5.prm

>  <SCORE>
-5.9146

>  <SCORE.INTER>
-4.92843

>  <SCORE.INTER.CONST>
1

>  <SCORE.INTER.POLAR>
0

>  <SCORE.INTER.ROT>
3

>  <SCORE.INTER.SOLV>
12.1846

>  <SCORE.INTER.VDW>
-12.9471

>  <SCORE.INTER.norm>
-0.308027

>  <SCORE.INTRA>
-0.986168

>  <SCORE.INTRA.DIHEDRAL>
-1.10521

>  <SCORE.INTRA.DIHEDRAL.0>
2.05999

>  <SCORE.INTRA.POLAR>
0

>  <SCORE.INTRA.POLAR.0>
0

>  <SCORE.INTRA.REPUL>
0

>  <SCORE.INTRA.REPUL.0>
0

>  <SCORE.INTRA.SOLV>
-0.607834

>  <SCORE.INTRA.SOLV.lig_0>
-58.7001

>  <SCORE.INTRA.VDW>
-0.129645

>  <SCORE.INTRA.VDW.0>
-0.401036

>  <SCORE.INTRA.norm>
-0.0616355

>  <SCORE.RESTR>
0

>  <SCORE.RESTR.CAVITY>
0

>  <SCORE.RESTR.norm>
0

>  <SCORE.SYSTEM>
0

>  <SCORE.SYSTEM.CONST>
0

>  <SCORE.SYSTEM.DIHEDRAL>
0

>  <SCORE.SYSTEM.SOLV>
0

>  <SCORE.SYSTEM.norm>
0

>  <SCORE.heavy>
16

>  <SCORE.norm>
-0.369662

>  <RMSD>
5.446

$$$$
ligand
 OpenBabel11021811463D
libRbt.so/2013.1/901 2013/11/27
 16 16  0  0  0  0  0  0  0  0999 V2000
   46.4195   33.4462   55.5918 P   0  0  2  0  0  0  0  0  0  0  0  0
   46.5875   33.2612   57.0547 O   0  0  0  0  0  0  0  0  0  0  0  0
   46.7592   32.0607   54.8393 O   0  5  0  0  0  0  0  0  0  0  0  0
   47.4289   34.6084   55.0940 O   0  0  0  0  0  0  0  0  0  0  0  0
   46.0567   37.0900   51.8722 C   0  0  2  0  0  0  0  0  0  0  0  0
   47.3499   37.2630   52.4951 O   0  0  0  0  0  0  0  0  0  0  0  0
   45.0687   38.2063   52.3192 C   0  0  2  0  0  0  0  0  0  0  0  0
   45.6264   39.5265   51.9725 N   0  0  0  0  0  0  0  0  0  0  0  0
   44.8631   38.1029   53.8465 C   0  0  1  0  0  0  0  0  0  0  0  0
   43.9479   39.1198   54.2879 O   0  0  0  0  0  0  0  0  0  0  0  0
   44.2806   36.7056   54.1440 C   0  0  2  0  0  0  0  0  0  0  0  0
   44.0825   36.5702   55.5617 O   0  0  0  0  0  0  0  0  0  0  0  0
   45.3008   35.6355   53.6475 C   0  0  2  0  0  0  0  0  0  0  0  0
   45.5264   35.7692   52.2125 O   0  0  0  0  0  0  0  0  0  0  0  0
   44.7712   34.2140   53.8975 C   0  0  0  0  0  0  0  0  0  0  0  0
   44.8843   33.8657   55.2886 O   0  0  0  0  0  0  0  0  0  0  0  0
  1  2  1  1  0  0  0
  1  3  1  0  0  0  0
  1  4  2  0  0  0  0
  1 16  1  0  0  0  0
  5  6  1  1  0  0  0
  5  7  1  0  0  0  0
  5 14  1  0  0  0  0
  7  8  1  1  0  0  0
  7  9  1  0  0  0  0
  9 10  1  6  0  0  0
  9 11  1  0  0  0  0
 11 12  1  1  0  0  0
 11 13  1  0  0  0  0
 13 14  1  0  0  0  0
 13 15  1  6  0  0  0
 15 16  1  0  0  0  0
M  CHG  1   3  -1
M  END
>  <CHROM.1>
-75.62745580,-78.99459883,172.50919057,45.64266636,35.73131910,54.16862023
-1.28763621,0.78686339,-0.70382035

>  <Name>
ligand

>  <RI>
0

>  <Rbt.Current_Directory>
/home/itssahil/PROJECTS/Mol_Feturizer/New_Systems/rnas/3B4A

>  <Rbt.Executable>
rbdock ($Id: //depot/dev/client3/rdock/2013.1/src/exe/rbdock.cxx#4 $)

>  <Rbt.Library>
libRbt.so (2013.1, Build901 2013/11/27)

>  <Rbt.Parameter_File>
/export/apps/rDock/src/rDock_2013.1_src/data/scripts/dock_solv.prm

>  <Rbt.Receptor>
prm/pocket_docking_7.prm

>  <SCORE>
-6.95858

>  <SCORE.INTER>
-8.53218

>  <SCORE.INTER.CONST>
1

>  <SCORE.INTER.POLAR>
0

>  <SCORE.INTER.ROT>
3

>  <SCORE.INTER.SOLV>
14.9947

>  <SCORE.INTER.VDW>
-16.2863

>  <SCORE.INTER.norm>
-0.533261

>  <SCORE.INTRA>
1.5736

>  <SCORE.INTRA.DIHEDRAL>
0.502553

>  <SCORE.INTRA.DIHEDRAL.0>
2.05999

>  <SCORE.INTRA.POLAR>
0

>  <SCORE.INTRA.POLAR.0>
0

>  <SCORE.INTRA.REPUL>
0

>  <SCORE.INTRA.REPUL.0>
0

>  <SCORE.INTRA.SOLV>
3.17626

>  <SCORE.INTRA.SOLV.lig_0>
-58.7001

>  <SCORE.INTRA.VDW>
-0.265806

>  <SCORE.INTRA.VDW.0>
-0.401036

>  <SCORE.INTRA.norm>
0.09835

>  <SCORE.RESTR>
0

>  <SCORE.RESTR.CAVITY>
0

>  <SCORE.RESTR.norm>
0

>  <SCORE.SYSTEM>
0

>  <SCORE.SYSTEM.CONST>
0

>  <SCORE.SYSTEM.DIHEDRAL>
0

>  <SCORE.SYSTEM.SOLV>
0

>  <SCORE.SYSTEM.norm>
0

>  <SCORE.heavy>
16

>  <SCORE.norm>
-0.434911

>  <RMSD>
5.448

$$$$
ligand
 OpenBabel11021811463D
libRbt.so/2013.1/901 2013/11/27
 16 16  0  0  0  0  0  0  0  0999 V2000
   45.1418   34.6911   55.2179 P   0  0  2  0  0  0  0  0  0  0  0  0
   44.5479   35.2693   56.4489 O   0  0  0  0  0  0  0  0  0  0  0  0
   44.6861   35.5709   53.9452 O   0  5  0  0  0  0  0  0  0  0  0  0
   44.6209   33.1683   55.0532 O   0  0  0  0  0  0  0  0  0  0  0  0
   50.7407   32.4240   53.8195 C   0  0  2  0  0  0  0  0  0  0  0  0
   51.4723   32.9244   54.9616 O   0  0  0  0  0  0  0  0  0  0  0  0
   50.9811   33.3176   52.5681 C   0  0  2  0  0  0  0  0  0  0  0  0
   52.4234   33.3651   52.2656 N   0  0  0  0  0  0  0  0  0  0  0  0
   50.4556   34.7389   52.8665 C   0  0  1  0  0  0  0  0  0  0  0  0
   50.6588   35.5867   51.7234 O   0  0  0  0  0  0  0  0  0  0  0  0
   48.9482   34.6228   53.1741 C   0  0  2  0  0  0  0  0  0  0  0  0
   48.4249   35.9300   53.4651 O   0  0  0  0  0  0  0  0  0  0  0  0
   48.7734   33.6944   54.4152 C   0  0  2  0  0  0  0  0  0  0  0  0
   49.3146   32.3674   54.1430 O   0  0  0  0  0  0  0  0  0  0  0  0
   47.2867   33.5198   54.7655 C   0  0  0  0  0  0  0  0  0  0  0  0
   46.7563   34.7230   55.3490 O   0  0  0  0  0  0  0  0  0  0  0  0
  1  2  1  1  0  0  0
  1  3  1  0  0  0  0
  1  4  2  0  0  0  0
  1 16  1  0  0  0  0
  5  6  1  1  0  0  0
  5  7  1  0  0  0  0
  5 14  1  0  0  0  0
  7  8  1  1  0  0  0
  7  9  1  0  0  0  0
  9 10  1  6  0  0  0
  9 11  1  0  0  0  0
 11 12  1  1  0  0  0
 11 13  1  0  0  0  0
 13 14  1  0  0  0  0
 13 15  1  6  0  0  0
 15 16  1  0  0  0  0
M  CHG  1   3  -1
M  END
>  <CHROM.1>
-72.66622384,160.31888114,141.99993224,48.14282250,34.18549799,54.12892514
3.07018294,-0.37429347,2.51383154

>  <Name>
ligand

>  <RI>
0

>  <Rbt.Current_Directory>
/home/itssahil/PROJECTS/Mol_Feturizer/New_Systems/rnas/3B4A

>  <Rbt.Executable>
rbdock ($Id: //depot/dev/client3/rdock/2013.1/src/exe/rbdock.cxx#4 $)

>  <Rbt.Library>
libRbt.so (2013.1, Build901 2013/11/27)

>  <Rbt.Parameter_File>
/export/apps/rDock/src/rDock_2013.1_src/data/scripts/dock_solv.prm

>  <Rbt.Receptor>
prm/pocket_docking_3.prm

>  <SCORE>
-4.12446

>  <SCORE.INTER>
-5.65743

>  <SCORE.INTER.CONST>
1

>  <SCORE.INTER.POLAR>
0

>  <SCORE.INTER.ROT>
3

>  <SCORE.INTER.SOLV>
12.4574

>  <SCORE.INTER.VDW>
-13.5241

>  <SCORE.INTER.norm>
-0.35359

>  <SCORE.INTRA>
1.53297

>  <SCORE.INTRA.DIHEDRAL>
1.93329

>  <SCORE.INTRA.DIHEDRAL.0>
2.05999

>  <SCORE.INTRA.POLAR>
0

>  <SCORE.INTRA.POLAR.0>
0

>  <SCORE.INTRA.REPUL>
0

>  <SCORE.INTRA.REPUL.0>
0

>  <SCORE.INTRA.SOLV>
0.611166

>  <SCORE.INTRA.SOLV.lig_0>
-58.7001

>  <SCORE.INTRA.VDW>
0.260747

>  <SCORE.INTRA.VDW.0>
-0.401036

>  <SCORE.INTRA.norm>
0.0958108

>  <SCORE.RESTR>
0

>  <SCORE.RESTR.CAVITY>
0

>  <SCORE.RESTR.norm>
0

>  <SCORE.SYSTEM>
0

>  <SCORE.SYSTEM.CONST>
0

>  <SCORE.SYSTEM.DIHEDRAL>
0

>  <SCORE.SYSTEM.SOLV>
0

>  <SCORE.SYSTEM.norm>
0

>  <SCORE.heavy>
16

>  <SCORE.norm>
-0.257779

>  <RMSD>
5.450

$$$$
ligand
 OpenBabel11021811463D
libRbt.so/2013.1/901 2013/11/27
 16 16  0  0  0  0  0  0  0  0999 V2000
   44.4015   39.3531   54.0294 P   0  0  2  0  0  0  0  0  0  0  0  0
   43.9765   40.0355   55.2769 O   0  0  0  0  0  0  0  0  0  0  0  0
   45.7044   40.0956   53.4359 O   0  5  0  0  0  0  0  0  0  0  0  0
   43.1900   39.4211   52.9594 O   0  0  0  0  0  0  0  0  0  0  0  0
   47.1952   34.5107   54.9322 C   0  0  2  0  0  0  0  0  0  0  0  0
   47.9555   33.9944   53.8161 O   0  0  0  0  0  0  0  0  0  0  0  0
   46.0457   33.5367   55.3221 C   0  0  2  0  0  0  0  0  0  0  0  0
   46.6105   32.2172   55.6599 N   0  0  0  0  0  0  0  0  0  0  0  0
   45.0786   33.4078   54.1248 C   0  0  1  0  0  0  0  0  0  0  0  0
   44.0007   32.5173   54.4590 O   0  0  0  0  0  0  0  0  0  0  0  0
   44.5237   34.8150   53.8213 C   0  0  2  0  0  0  0  0  0  0  0  0
   43.6226   34.7348   52.7038 O   0  0  0  0  0  0  0  0  0  0  0  0
   45.7234   35.7470   53.4681 C   0  0  2  0  0  0  0  0  0  0  0  0
   46.6571   35.8267   54.5860 O   0  0  0  0  0  0  0  0  0  0  0  0
   45.2400   37.1762   53.1721 C   0  0  0  0  0  0  0  0  0  0  0  0
   44.7647   37.8117   54.3718 O   0  0  0  0  0  0  0  0  0  0  0  0
  1  2  1  1  0  0  0
  1  3  1  0  0  0  0
  1  4  2  0  0  0  0
  1 16  1  0  0  0  0
  5  6  1  6  0  0  0
  5  7  1  0  0  0  0
  5 14  1  0  0  0  0
  7  8  1  6  0  0  0
  7  9  1  0  0  0  0
  9 10  1  1  0  0  0
  9 11  1  0  0  0  0
 11 12  1  6  0  0  0
 11 13  1  0  0  0  0
 13 14  1  0  0  0  0
 13 15  1  1  0  0  0
 15 16  1  0  0  0  0
M  CHG  1   3  -1
M  END
>  <CHROM.1>
69.53149701,174.71941744,-177.11695554,45.20532902,36.26351751,54.11112846
-1.83061386,0.28639452,3.11063714

>  <Name>
ligand

>  <RI>
0

>  <Rbt.Current_Directory>
/home/itssahil/PROJECTS/Mol_Feturizer/New_Systems/rnas/3B4A

>  <Rbt.Executable>
rbdock ($Id: //depot/dev/client3/rdock/2013.1/src/exe/rbdock.cxx#4 $)

>  <Rbt.Library>
libRbt.so (2013.1, Build901 2013/11/27)

>  <Rbt.Parameter_File>
/export/apps/rDock/src/rDock_2013.1_src/data/scripts/dock_solv.prm

>  <Rbt.Receptor>
prm/pocket_docking_8.prm

>  <SCORE>
-6.64257

>  <SCORE.INTER>
-5.37621

>  <SCORE.INTER.CONST>
1

>  <SCORE.INTER.POLAR>
0

>  <SCORE.INTER.ROT>
3

>  <SCORE.INTER.SOLV>
13.9959

>  <SCORE.INTER.VDW>
-13.8494

>  <SCORE.INTER.norm>
-0.336013

>  <SCORE.INTRA>
-1.26636

>  <SCORE.INTRA.DIHEDRAL>
-1.58261

>  <SCORE.INTRA.DIHEDRAL.0>
2.05999

>  <SCORE.INTRA.POLAR>
0

>  <SCORE.INTRA.POLAR.0>
0

>  <SCORE.INTRA.REPUL>
0

>  <SCORE.INTRA.REPUL.0>
0

>  <SCORE.INTRA.SOLV>
-0.206624

>  <SCORE.INTRA.SOLV.lig_0>
-58.7001

>  <SCORE.INTRA.VDW>
-0.37174

>  <SCORE.INTRA.VDW.0>
-0.401036

>  <SCORE.INTRA.norm>
-0.0791475

>  <SCORE.RESTR>
0

>  <SCORE.RESTR.CAVITY>
0

>  <SCORE.RESTR.norm>
0

>  <SCORE.SYSTEM>
0

>  <SCORE.SYSTEM.CONST>
0

>  <SCORE.SYSTEM.DIHEDRAL>
0

>  <SCORE.SYSTEM.SOLV>
0

>  <SCORE.SYSTEM.norm>
0

>  <SCORE.heavy>
16

>  <SCORE.norm>
-0.415161

>  <RMSD>
5.452

$$$$
ligand
 OpenBabel11021811463D
libRbt.so/2013.1/901 2013/11/27
 16 16  0  0  0  0  0  0  0  0999 V2000
   46.3494   33.8909   55.6124 P   0  0  2  0  0  0  0  0  0  0  0  0
   47.3821   34.8002   55.0565 O   0  0  0  0  0  0  0  0  0  0  0  0
   46.8202   33.3803   57.0680 O   0  5  0  0  0  0  0  0  0  0  0  0
   46.1727   32.6302   54.6140 O   0  0  0  0  0  0  0  0  0  0  0  0
   43.9190   38.3809   54.1186 C   0  0  2  0  0  0  0  0  0  0  0  0
   43.0317   38.4264   52.9780 O   0  0  0  0  0  0  0  0  0  0  0  0
   45.3716   38.7621   53.7105 C   0  0  2  0  0  0  0  0  0  0  0  0
   45.3789   40.1112   53.1155 N   0  0  0  0  0  0  0  0  0  0  0  0
   45.8851   37.7282   52.6845 C   0  0  1  0  0  0  0  0  0  0  0  0
   47.2301   38.0518   52.2935 O   0  0  0  0  0  0  0  0  0  0  0  0
   45.8534   36.3432   53.3637 C   0  0  2  0  0  0  0  0  0  0  0  0
   46.3191   35.3515   52.4328 O   0  0  0  0  0  0  0  0  0  0  0  0
   44.3807   36.0342   53.7738 C   0  0  2  0  0  0  0  0  0  0  0  0
   43.8861   37.0411   54.7063 O   0  0  0  0  0  0  0  0  0  0  0  0
   44.2808   34.6705   54.4766 C   0  0  0  0  0  0  0  0  0  0  0  0
   44.9535   34.7021   55.7477 O   0  0  0  0  0  0  0  0  0  0  0  0
  1  2  1  6  0  0  0
  1  3  1  0  0  0  0
  1  4  2  0  0  0  0
  1 16  1  0  0  0  0
  5  6  1  6  0  0  0
  5  7  1  0  0  0  0
  5 14  1  0  0  0  0
  7  8  1  6  0  0  0
  7  9  1  0  0  0  0
  9 10  1  1  0  0  0
  9 11  1  0  0  0  0
 11 12  1  6  0  0  0
 11 13  1  0  0  0  0
 13 14  1  0  0  0  0
 13 15  1  1  0  0  0
 15 16  1  0  0  0  0
M  CHG  1   3  -1
M  END
>  <CHROM.1>
67.08374070,-105.53151511,83.90663061,45.53582233,36.04012693,54.23802156
-1.30009464,0.37779258,-0.56682906

>  <Name>
ligand

>  <RI>
0

>  <Rbt.Current_Directory>
/home/itssahil/PROJECTS/Mol_Feturizer/New_Systems/rnas/3B4A

>  <Rbt.Executable>
rbdock ($Id: //depot/dev/client3/rdock/2013.1/src/exe/rbdock.cxx#4 $)

>  <Rbt.Library>
libRbt.so (2013.1, Build901 2013/11/27)

>  <Rbt.Parameter_File>
/export/apps/rDock/src/rDock_2013.1_src/data/scripts/dock_solv.prm

>  <Rbt.Receptor>
prm/pocket_docking_6.prm

>  <SCORE>
-5.49726

>  <SCORE.INTER>
-8.43864

>  <SCORE.INTER.CONST>
1

>  <SCORE.INTER.POLAR>
0

>  <SCORE.INTER.ROT>
3

>  <SCORE.INTER.SOLV>
16.712

>  <SCORE.INTER.VDW>
-16.7964

>  <SCORE.INTER.norm>
-0.527415

>  <SCORE.INTRA>
2.94138

>  <SCORE.INTRA.DIHEDRAL>
5.16319

>  <SCORE.INTRA.DIHEDRAL.0>
2.05999

>  <SCORE.INTRA.POLAR>
0

>  <SCORE.INTRA.POLAR.0>
0

>  <SCORE.INTRA.REPUL>
0

>  <SCORE.INTRA.REPUL.0>
0

>  <SCORE.INTRA.SOLV>
1.57983

>  <SCORE.INTRA.SOLV.lig_0>
-58.7001

>  <SCORE.INTRA.VDW>
-0.430133

>  <SCORE.INTRA.VDW.0>
-0.401036

>  <SCORE.INTRA.norm>
0.183836

>  <SCORE.RESTR>
0

>  <SCORE.RESTR.CAVITY>
0

>  <SCORE.RESTR.norm>
0

>  <SCORE.SYSTEM>
0

>  <SCORE.SYSTEM.CONST>
0

>  <SCORE.SYSTEM.DIHEDRAL>
0

>  <SCORE.SYSTEM.SOLV>
0

>  <SCORE.SYSTEM.norm>
0

>  <SCORE.heavy>
16

>  <SCORE.norm>
-0.343579

>  <RMSD>
5.454

$$$$
ligand
 OpenBabel11021811463D
libRbt.so/2013.1/901 2013/11/27
 16 16  0  0  0  0  0  0  0  0999 V2000
   45.0044   39.5587   51.3828 P   0  0  2  0  0  0  0  0  0  0  0  0
   43.7312   39.9851   50.7507 O   0  0  0  0  0  0  0  0  0  0  0  0
   45.4644   40.6731   52.4540 O   0  5  0  0  0  0  0  0  0  0  0  0
   46.1301   39.3993   50.2318 O   0  0  0  0  0  0  0  0  0  0  0  0
   47.1703   34.4342   54.1431 C   0  0  2  0  0  0  0  0  0  0  0  0
   46.5142   33.4978   53.2583 O   0  0  0  0  0  0  0  0  0  0  0  0
   46.4364   34.5148   55.5132 C   0  0  2  0  0  0  0  0  0  0  0  0
   46.3960   33.1763   56.1305 N   0  0  0  0  0  0  0  0  0  0  0  0
   45.0006   35.0320   55.2759 C   0  0  1  0  0  0  0  0  0  0  0  0
   44.2993   35.1231   56.5275 O   0  0  0  0  0  0  0  0  0  0  0  0
   45.1099   36.4294   54.6311 C   0  0  2  0  0  0  0  0  0  0  0  0
   43.7882   36.9405   54.3881 O   0  0  0  0  0  0  0  0  0  0  0  0
   45.8782   36.2853   53.2814 C   0  0  2  0  0  0  0  0  0  0  0  0
   47.2168   35.7517   53.5079 O   0  0  0  0  0  0  0  0  0  0  0  0
   46.0396   37.6505   52.5929 C   0  0  0  0  0  0  0  0  0  0  0  0
   44.7676   38.1453   52.1385 O   0  0  0  0  0  0  0  0  0  0  0  0
  1  2  1  6  0  0  0
  1  3  1  0  0  0  0
  1  4  2  0  0  0  0
  1 16  1  0  0  0  0
  5  6  1  6  0  0  0
  5  7  1  0  0  0  0
  5 14  1  0  0  0  0
  7  8  1  6  0  0  0
  7  9  1  0  0  0  0
  9 10  1  1  0  0  0
  9 11  1  0  0  0  0
 11 12  1  6  0  0  0
 11 13  1  0  0  0  0
 13 14  1  0  0  0  0
 13 15  1  1  0  0  0
 15 16  1  0  0  0  0
M  CHG  1   3  -1
M  END
>  <CHROM.1>
-68.47617749,-178.24199837,172.35009959,45.49461647,36.93240430,53.31054984
1.76112046,0.70434797,-0.75216364

>  <Name>
ligand

>  <RI>
0

>  <Rbt.Current_Directory>
/home/itssahil/PROJECTS/Mol_Feturizer/New_Systems/rnas/3B4A

>  <Rbt.Executable>
rbdock ($Id: //depot/dev/client3/rdock/2013.1/src/exe/rbdock.cxx#4 $)

>  <Rbt.Library>
libRbt.so (2013.1, Build901 2013/11/27)

>  <Rbt.Parameter_File>
/export/apps/rDock/src/rDock_2013.1_src/data/scripts/dock_solv.prm

>  <Rbt.Receptor>
prm/pocket_docking_7.prm

>  <SCORE>
-6.3892

>  <SCORE.INTER>
-5.21827

>  <SCORE.INTER.CONST>
1

>  <SCORE.INTER.POLAR>
0

>  <SCORE.INTER.ROT>
3

>  <SCORE.INTER.SOLV>
12.6893

>  <SCORE.INTER.VDW>
-13.3086

>  <SCORE.INTER.norm>
-0.326142

>  <SCORE.INTRA>
-1.17093

>  <SCORE.INTRA.DIHEDRAL>
-1.69446

>  <SCORE.INTRA.DIHEDRAL.0>
2.05999

>  <SCORE.INTRA.POLAR>
0

>  <SCORE.INTRA.POLAR.0>
0

>  <SCORE.INTRA.REPUL>
0

>  <SCORE.INTRA.REPUL.0>
0

>  <SCORE.INTRA.SOLV>
-0.0819119

>  <SCORE.INTRA.SOLV.lig_0>
-58.7001

>  <SCORE.INTRA.VDW>
-0.282741

>  <SCORE.INTRA.VDW.0>
-0.401036

>  <SCORE.INTRA.norm>
-0.0731829

>  <SCORE.RESTR>
0

>  <SCORE.RESTR.CAVITY>
0

>  <SCORE.RESTR.norm>
0

>  <SCORE.SYSTEM>
0

>  <SCORE.SYSTEM.CONST>
0

>  <SCORE.SYSTEM.DIHEDRAL>
0

>  <SCORE.SYSTEM.SOLV>
0

>  <SCORE.SYSTEM.norm>
0

>  <SCORE.heavy>
16

>  <SCORE.norm>
-0.399325

>  <RMSD>
5.454

$$$$
ligand
 OpenBabel11021811463D
libRbt.so/2013.1/901 2013/11/27
 16 16  0  0  0  0  0  0  0  0999 V2000
   45.6087   35.0042   55.1005 P   0  0  2  0  0  0  0  0  0  0  0  0
   45.0761   34.8978   56.4816 O   0  0  0  0  0  0  0  0  0  0  0  0
   45.3850   36.5072   54.5599 O   0  5  0  0  0  0  0  0  0  0  0  0
   44.8214   33.9531   54.1557 O   0  0  0  0  0  0  0  0  0  0  0  0
   50.6539   32.5784   53.9056 C   0  0  2  0  0  0  0  0  0  0  0  0
   51.3857   33.1518   55.0128 O   0  0  0  0  0  0  0  0  0  0  0  0
   51.3316   32.9278   52.5488 C   0  0  2  0  0  0  0  0  0  0  0  0
   52.7207   32.4333   52.5494 N   0  0  0  0  0  0  0  0  0  0  0  0
   51.3156   34.4616   52.3680 C   0  0  1  0  0  0  0  0  0  0  0  0
   51.9306   34.8142   51.1173 O   0  0  0  0  0  0  0  0  0  0  0  0
   49.8412   34.9158   52.3759 C   0  0  2  0  0  0  0  0  0  0  0  0
   49.7876   36.3438   52.2169 O   0  0  0  0  0  0  0  0  0  0  0  0
   49.2133   34.5117   53.7452 C   0  0  2  0  0  0  0  0  0  0  0  0
   49.2744   33.0661   53.9305 O   0  0  0  0  0  0  0  0  0  0  0  0
   47.7326   34.9200   53.8123 C   0  0  0  0  0  0  0  0  0  0  0  0
   47.1930   34.6657   55.1213 O   0  0  0  0  0  0  0  0  0  0  0  0
  1  2  1  1  0  0  0
  1  3  1  0  0  0  0
  1  4  2  0  0  0  0
  1 16  1  0  0  0  0
  5  6  1  1  0  0  0
  5  7  1  0  0  0  0
  5 14  1  0  0  0  0
  7  8  1  1  0  0  0
  7  9  1  0  0  0  0
  9 10  1  6  0  0  0
  9 11  1  0  0  0  0
 11 12  1  1  0  0  0
 11 13  1  0  0  0  0
 13 14  1  0  0  0  0
 13 15  1  6  0  0  0
 15 16  1  0  0  0  0
M  CHG  1   3  -1
M  END
>  <CHROM.1>
-174.33012020,-175.62698601,-173.45448618,48.64586738,34.39899215,53.82087406
-3.05046628,0.43032955,-0.71849187

>  <Name>
ligand

>  <RI>
0

>  <Rbt.Current_Directory>
/home/itssahil/PROJECTS/Mol_Feturizer/New_Systems/rnas/3B4A

>  <Rbt.Executable>
rbdock ($Id: //depot/dev/client3/rdock/2013.1/src/exe/rbdock.cxx#4 $)

>  <Rbt.Library>
libRbt.so (2013.1, Build901 2013/11/27)

>  <Rbt.Parameter_File>
/export/apps/rDock/src/rDock_2013.1_src/data/scripts/dock_solv.prm

>  <Rbt.Receptor>
prm/pocket_docking_3.prm

>  <SCORE>
-4.95643

>  <SCORE.INTER>
-3.61337

>  <SCORE.INTER.CONST>
1

>  <SCORE.INTER.POLAR>
0

>  <SCORE.INTER.ROT>
3

>  <SCORE.INTER.SOLV>
11.4139

>  <SCORE.INTER.VDW>
-11.8136

>  <SCORE.INTER.norm>
-0.225836

>  <SCORE.INTRA>
-1.34306

>  <SCORE.INTRA.DIHEDRAL>
-1.77657

>  <SCORE.INTRA.DIHEDRAL.0>
2.05999

>  <SCORE.INTRA.POLAR>
0

>  <SCORE.INTRA.POLAR.0>
0

>  <SCORE.INTRA.REPUL>
0

>  <SCORE.INTRA.REPUL.0>
0

>  <SCORE.INTRA.SOLV>
-0.406333

>  <SCORE.INTRA.SOLV.lig_0>
-58.7001

>  <SCORE.INTRA.VDW>
-0.251604

>  <SCORE.INTRA.VDW.0>
-0.401036

>  <SCORE.INTRA.norm>
-0.083941

>  <SCORE.RESTR>
0

>  <SCORE.RESTR.CAVITY>
0

>  <SCORE.RESTR.norm>
0

>  <SCORE.SYSTEM>
0

>  <SCORE.SYSTEM.CONST>
0

>  <SCORE.SYSTEM.DIHEDRAL>
0

>  <SCORE.SYSTEM.SOLV>
0

>  <SCORE.SYSTEM.norm>
0

>  <SCORE.heavy>
16

>  <SCORE.norm>
-0.309777

>  <RMSD>
5.463

$$$$
ligand
 OpenBabel11021811463D
libRbt.so/2013.1/901 2013/11/27
 16 16  0  0  0  0  0  0  0  0999 V2000
   46.4187   33.4771   55.5955 P   0  0  2  0  0  0  0  0  0  0  0  0
   46.6191   33.2699   57.0513 O   0  0  0  0  0  0  0  0  0  0  0  0
   46.7294   32.0999   54.8158 O   0  5  0  0  0  0  0  0  0  0  0  0
   47.4257   34.6383   55.0906 O   0  0  0  0  0  0  0  0  0  0  0  0
   46.0402   37.0962   51.8799 C   0  0  2  0  0  0  0  0  0  0  0  0
   47.3390   37.2608   52.4934 O   0  0  0  0  0  0  0  0  0  0  0  0
   45.0683   38.2294   52.3194 C   0  0  2  0  0  0  0  0  0  0  0  0
   45.6397   39.5387   51.9542 N   0  0  0  0  0  0  0  0  0  0  0  0
   44.8704   38.1462   53.8489 C   0  0  1  0  0  0  0  0  0  0  0  0
   43.9700   39.1791   54.2837 O   0  0  0  0  0  0  0  0  0  0  0  0
   44.2729   36.7596   54.1662 C   0  0  2  0  0  0  0  0  0  0  0  0
   44.0815   36.6431   55.5864 O   0  0  0  0  0  0  0  0  0  0  0  0
   45.2774   35.6716   53.6764 C   0  0  2  0  0  0  0  0  0  0  0  0
   45.4962   35.7859   52.2387 O   0  0  0  0  0  0  0  0  0  0  0  0
   44.7322   34.2596   53.9460 C   0  0  0  0  0  0  0  0  0  0  0  0
   44.8803   33.9130   55.3342 O   0  0  0  0  0  0  0  0  0  0  0  0
  1  2  1  1  0  0  0
  1  3  1  0  0  0  0
  1  4  2  0  0  0  0
  1 16  1  0  0  0  0
  5  6  1  1  0  0  0
  5  7  1  0  0  0  0
  5 14  1  0  0  0  0
  7  8  1  1  0  0  0
  7  9  1  0  0  0  0
  9 10  1  6  0  0  0
  9 11  1  0  0  0  0
 11 12  1  1  0  0  0
 11 13  1  0  0  0  0
 13 14  1  0  0  0  0
 13 15  1  6  0  0  0
 15 16  1  0  0  0  0
M  CHG  1   3  -1
M  END
>  <CHROM.1>
-77.08768943,-78.68486756,173.50505381,45.63740939,35.76398680,54.17774619
-1.28493871,0.79288417,-0.70644556

>  <Name>
ligand

>  <RI>
0

>  <Rbt.Current_Directory>
/home/itssahil/PROJECTS/Mol_Feturizer/New_Systems/rnas/3B4A

>  <Rbt.Executable>
rbdock ($Id: //depot/dev/client3/rdock/2013.1/src/exe/rbdock.cxx#4 $)

>  <Rbt.Library>
libRbt.so (2013.1, Build901 2013/11/27)

>  <Rbt.Parameter_File>
/export/apps/rDock/src/rDock_2013.1_src/data/scripts/dock_solv.prm

>  <Rbt.Receptor>
prm/pocket_docking_5.prm

>  <SCORE>
-7.02496

>  <SCORE.INTER>
-8.59588

>  <SCORE.INTER.CONST>
1

>  <SCORE.INTER.POLAR>
0

>  <SCORE.INTER.ROT>
3

>  <SCORE.INTER.SOLV>
14.9727

>  <SCORE.INTER.VDW>
-16.3215

>  <SCORE.INTER.norm>
-0.537243

>  <SCORE.INTRA>
1.57092

>  <SCORE.INTRA.DIHEDRAL>
0.583563

>  <SCORE.INTRA.DIHEDRAL.0>
2.05999

>  <SCORE.INTRA.POLAR>
0

>  <SCORE.INTRA.POLAR.0>
0

>  <SCORE.INTRA.REPUL>
0

>  <SCORE.INTRA.REPUL.0>
0

>  <SCORE.INTRA.SOLV>
3.17825

>  <SCORE.INTRA.SOLV.lig_0>
-58.7001

>  <SCORE.INTRA.VDW>
-0.309986

>  <SCORE.INTRA.VDW.0>
-0.401036

>  <SCORE.INTRA.norm>
0.0981826

>  <SCORE.RESTR>
0

>  <SCORE.RESTR.CAVITY>
0

>  <SCORE.RESTR.norm>
0

>  <SCORE.SYSTEM>
0

>  <SCORE.SYSTEM.CONST>
0

>  <SCORE.SYSTEM.DIHEDRAL>
0

>  <SCORE.SYSTEM.SOLV>
0

>  <SCORE.SYSTEM.norm>
0

>  <SCORE.heavy>
16

>  <SCORE.norm>
-0.43906

>  <RMSD>
5.463

$$$$
ligand
 OpenBabel11021811463D
libRbt.so/2013.1/901 2013/11/27
 16 16  0  0  0  0  0  0  0  0999 V2000
   46.7239   33.6169   55.4358 P   0  0  2  0  0  0  0  0  0  0  0  0
   46.5695   33.3766   56.8921 O   0  0  0  0  0  0  0  0  0  0  0  0
   46.1925   32.3274   54.6259 O   0  5  0  0  0  0  0  0  0  0  0  0
   48.2890   33.8677   55.1118 O   0  0  0  0  0  0  0  0  0  0  0  0
   44.2416   38.5338   53.9828 C   0  0  2  0  0  0  0  0  0  0  0  0
   43.0063   37.9774   53.4782 O   0  0  0  0  0  0  0  0  0  0  0  0
   44.9341   39.4204   52.9074 C   0  0  2  0  0  0  0  0  0  0  0  0
   44.0203   40.5025   52.4972 N   0  0  0  0  0  0  0  0  0  0  0  0
   45.2884   38.5371   51.6909 C   0  0  1  0  0  0  0  0  0  0  0  0
   45.9367   39.3296   50.6818 O   0  0  0  0  0  0  0  0  0  0  0  0
   46.2422   37.4286   52.1827 C   0  0  2  0  0  0  0  0  0  0  0  0
   46.5884   36.5797   51.0751 O   0  0  0  0  0  0  0  0  0  0  0  0
   45.5023   36.5975   53.2756 C   0  0  2  0  0  0  0  0  0  0  0  0
   45.1286   37.4475   54.4007 O   0  0  0  0  0  0  0  0  0  0  0  0
   46.4076   35.4827   53.8246 C   0  0  0  0  0  0  0  0  0  0  0  0
   45.8481   34.9157   55.0223 O   0  0  0  0  0  0  0  0  0  0  0  0
  1  2  1  1  0  0  0
  1  3  1  0  0  0  0
  1  4  2  0  0  0  0
  1 16  1  0  0  0  0
  5  6  1  6  0  0  0
  5  7  1  0  0  0  0
  5 14  1  0  0  0  0
  7  8  1  6  0  0  0
  7  9  1  0  0  0  0
  9 10  1  6  0  0  0
  9 11  1  0  0  0  0
 11 12  1  6  0  0  0
 11 13  1  0  0  0  0
 13 14  1  0  0  0  0
 13 15  1  1  0  0  0
 15 16  1  0  0  0  0
M  CHG  1   3  -1
M  END
>  <CHROM.1>
167.12516654,172.03496817,155.83409292,45.77785706,36.33344417,53.73013244
1.15530175,-0.77434406,2.31274133

>  <Name>
ligand

>  <RI>
0

>  <Rbt.Current_Directory>
/home/itssahil/PROJECTS/Mol_Feturizer/New_Systems/rnas/3B4A

>  <Rbt.Executable>
rbdock ($Id: //depot/dev/client3/rdock/2013.1/src/exe/rbdock.cxx#4 $)

>  <Rbt.Library>
libRbt.so (2013.1, Build901 2013/11/27)

>  <Rbt.Parameter_File>
/export/apps/rDock/src/rDock_2013.1_src/data/scripts/dock_solv.prm

>  <Rbt.Receptor>
prm/pocket_docking_7.prm

>  <SCORE>
-7.49423

>  <SCORE.INTER>
-7.27421

>  <SCORE.INTER.CONST>
1

>  <SCORE.INTER.POLAR>
0

>  <SCORE.INTER.ROT>
3

>  <SCORE.INTER.SOLV>
13.5776

>  <SCORE.INTER.VDW>
-14.9753

>  <SCORE.INTER.norm>
-0.454638

>  <SCORE.INTRA>
-0.220028

>  <SCORE.INTRA.DIHEDRAL>
-0.337234

>  <SCORE.INTRA.DIHEDRAL.0>
2.05999

>  <SCORE.INTRA.POLAR>
0

>  <SCORE.INTRA.POLAR.0>
0

>  <SCORE.INTRA.REPUL>
0

>  <SCORE.INTRA.REPUL.0>
0

>  <SCORE.INTRA.SOLV>
-0.411662

>  <SCORE.INTRA.SOLV.lig_0>
-58.7001

>  <SCORE.INTRA.VDW>
0.154419

>  <SCORE.INTRA.VDW.0>
-0.401036

>  <SCORE.INTRA.norm>
-0.0137518

>  <SCORE.RESTR>
0

>  <SCORE.RESTR.CAVITY>
0

>  <SCORE.RESTR.norm>
0

>  <SCORE.SYSTEM>
0

>  <SCORE.SYSTEM.CONST>
0

>  <SCORE.SYSTEM.DIHEDRAL>
0

>  <SCORE.SYSTEM.SOLV>
0

>  <SCORE.SYSTEM.norm>
0

>  <SCORE.heavy>
16

>  <SCORE.norm>
-0.46839

>  <RMSD>
5.472

$$$$
ligand
 OpenBabel11021811463D
libRbt.so/2013.1/901 2013/11/27
 16 16  0  0  0  0  0  0  0  0999 V2000
   46.3072   33.9645   55.6740 P   0  0  2  0  0  0  0  0  0  0  0  0
   46.6388   33.3953   57.0038 O   0  0  0  0  0  0  0  0  0  0  0  0
   45.2437   35.1626   55.8599 O   0  5  0  0  0  0  0  0  0  0  0  0
   45.6709   32.7977   54.7515 O   0  0  0  0  0  0  0  0  0  0  0  0
   50.8787   34.7917   52.3716 C   0  0  2  0  0  0  0  0  0  0  0  0
   51.4485   35.9043   53.0979 O   0  0  0  0  0  0  0  0  0  0  0  0
   50.6462   35.1614   50.8778 C   0  0  2  0  0  0  0  0  0  0  0  0
   51.9248   35.5660   50.2650 N   0  0  0  0  0  0  0  0  0  0  0  0
   49.6337   36.3256   50.8078 C   0  0  1  0  0  0  0  0  0  0  0  0
   49.3939   36.6850   49.4367 O   0  0  0  0  0  0  0  0  0  0  0  0
   48.3227   35.8422   51.4621 C   0  0  2  0  0  0  0  0  0  0  0  0
   47.3562   36.9059   51.4217 O   0  0  0  0  0  0  0  0  0  0  0  0
   48.6282   35.4603   52.9431 C   0  0  2  0  0  0  0  0  0  0  0  0
   49.6203   34.3927   53.0031 O   0  0  0  0  0  0  0  0  0  0  0  0
   47.3624   34.9499   53.6510 C   0  0  0  0  0  0  0  0  0  0  0  0
   47.6615   34.5417   54.9975 O   0  0  0  0  0  0  0  0  0  0  0  0
  1  2  1  1  0  0  0
  1  3  1  0  0  0  0
  1  4  2  0  0  0  0
  1 16  1  0  0  0  0
  5  6  1  1  0  0  0
  5  7  1  0  0  0  0
  5 14  1  0  0  0  0
  7  8  1  1  0  0  0
  7  9  1  0  0  0  0
  9 10  1  6  0  0  0
  9 11  1  0  0  0  0
 11 12  1  1  0  0  0
 11 13  1  0  0  0  0
 13 14  1  0  0  0  0
 13 15  1  6  0  0  0
 15 16  1  0  0  0  0
M  CHG  1   3  -1
M  END
>  <CHROM.1>
177.37554008,-177.95221657,173.43623470,48.33206512,35.02108363,53.22882828
-2.25467297,0.16813921,-1.05180198

>  <Name>
ligand

>  <RI>
0

>  <Rbt.Current_Directory>
/home/itssahil/PROJECTS/Mol_Feturizer/New_Systems/rnas/3B4A

>  <Rbt.Executable>
rbdock ($Id: //depot/dev/client3/rdock/2013.1/src/exe/rbdock.cxx#4 $)

>  <Rbt.Library>
libRbt.so (2013.1, Build901 2013/11/27)

>  <Rbt.Parameter_File>
/export/apps/rDock/src/rDock_2013.1_src/data/scripts/dock_solv.prm

>  <Rbt.Receptor>
prm/pocket_docking_4.prm

>  <SCORE>
-5.7976

>  <SCORE.INTER>
-4.40498

>  <SCORE.INTER.CONST>
1

>  <SCORE.INTER.POLAR>
0

>  <SCORE.INTER.ROT>
3

>  <SCORE.INTER.SOLV>
12.3738

>  <SCORE.INTER.VDW>
-12.6613

>  <SCORE.INTER.norm>
-0.275311

>  <SCORE.INTRA>
-1.39262

>  <SCORE.INTRA.DIHEDRAL>
-1.94283

>  <SCORE.INTRA.DIHEDRAL.0>
2.05999

>  <SCORE.INTRA.POLAR>
0

>  <SCORE.INTRA.POLAR.0>
0

>  <SCORE.INTRA.REPUL>
0

>  <SCORE.INTRA.REPUL.0>
0

>  <SCORE.INTRA.SOLV>
-0.394592

>  <SCORE.INTRA.SOLV.lig_0>
-58.7001

>  <SCORE.INTRA.VDW>
-0.223908

>  <SCORE.INTRA.VDW.0>
-0.401036

>  <SCORE.INTRA.norm>
-0.0870388

>  <SCORE.RESTR>
0

>  <SCORE.RESTR.CAVITY>
0

>  <SCORE.RESTR.norm>
0

>  <SCORE.SYSTEM>
0

>  <SCORE.SYSTEM.CONST>
0

>  <SCORE.SYSTEM.DIHEDRAL>
0

>  <SCORE.SYSTEM.SOLV>
0

>  <SCORE.SYSTEM.norm>
0

>  <SCORE.heavy>
16

>  <SCORE.norm>
-0.36235

>  <RMSD>
5.494

$$$$
ligand
 OpenBabel11021811463D
libRbt.so/2013.1/901 2013/11/27
 16 16  0  0  0  0  0  0  0  0999 V2000
   45.3025   34.9434   55.1911 P   0  0  2  0  0  0  0  0  0  0  0  0
   44.9938   35.0012   56.6415 O   0  0  0  0  0  0  0  0  0  0  0  0
   44.6327   36.2126   54.4550 O   0  5  0  0  0  0  0  0  0  0  0  0
   44.7001   33.5701   54.5842 O   0  0  0  0  0  0  0  0  0  0  0  0
   50.7499   33.7046   54.0815 C   0  0  2  0  0  0  0  0  0  0  0  0
   51.3342   34.9533   54.5170 O   0  0  0  0  0  0  0  0  0  0  0  0
   51.1440   33.3880   52.6096 C   0  0  2  0  0  0  0  0  0  0  0  0
   52.6127   33.3287   52.4939 N   0  0  0  0  0  0  0  0  0  0  0  0
   50.5856   34.5021   51.6971 C   0  0  1  0  0  0  0  0  0  0  0  0
   50.9292   34.2322   50.3276 O   0  0  0  0  0  0  0  0  0  0  0  0
   49.0517   34.5138   51.8623 C   0  0  2  0  0  0  0  0  0  0  0  0
   48.4965   35.5469   51.0307 O   0  0  0  0  0  0  0  0  0  0  0  0
   48.7241   34.8057   53.3590 C   0  0  2  0  0  0  0  0  0  0  0  0
   49.2948   33.7751   54.2192 O   0  0  0  0  0  0  0  0  0  0  0  0
   47.2053   34.8124   53.5976 C   0  0  0  0  0  0  0  0  0  0  0  0
   46.9100   34.9887   54.9944 O   0  0  0  0  0  0  0  0  0  0  0  0
  1  2  1  1  0  0  0
  1  3  1  0  0  0  0
  1  4  2  0  0  0  0
  1 16  1  0  0  0  0
  5  6  1  6  0  0  0
  5  7  1  0  0  0  0
  5 14  1  0  0  0  0
  7  8  1  1  0  0  0
  7  9  1  0  0  0  0
  9 10  1  6  0  0  0
  9 11  1  0  0  0  0
 11 12  1  6  0  0  0
 11 13  1  0  0  0  0
 13 14  1  0  0  0  0
 13 15  1  6  0  0  0
 15 16  1  0  0  0  0
M  CHG  1   3  -1
M  END
>  <CHROM.1>
175.96952171,-178.33152510,174.93751851,48.23833189,34.56959300,53.63215969
-2.71144624,0.22851111,-1.40098293

>  <Name>
ligand

>  <RI>
0

>  <Rbt.Current_Directory>
/home/itssahil/PROJECTS/Mol_Feturizer/New_Systems/rnas/3B4A

>  <Rbt.Executable>
rbdock ($Id: //depot/dev/client3/rdock/2013.1/src/exe/rbdock.cxx#4 $)

>  <Rbt.Library>
libRbt.so (2013.1, Build901 2013/11/27)

>  <Rbt.Parameter_File>
/export/apps/rDock/src/rDock_2013.1_src/data/scripts/dock_solv.prm

>  <Rbt.Receptor>
prm/pocket_docking_3.prm

>  <SCORE>
-5.01795

>  <SCORE.INTER>
-3.62387

>  <SCORE.INTER.CONST>
1

>  <SCORE.INTER.POLAR>
0

>  <SCORE.INTER.ROT>
3

>  <SCORE.INTER.SOLV>
10.643

>  <SCORE.INTER.VDW>
-11.5636

>  <SCORE.INTER.norm>
-0.226492

>  <SCORE.INTRA>
-1.39408

>  <SCORE.INTRA.DIHEDRAL>
-1.94474

>  <SCORE.INTRA.DIHEDRAL.0>
2.05999

>  <SCORE.INTRA.POLAR>
0

>  <SCORE.INTRA.POLAR.0>
0

>  <SCORE.INTRA.REPUL>
0

>  <SCORE.INTRA.REPUL.0>
0

>  <SCORE.INTRA.SOLV>
-0.39041

>  <SCORE.INTRA.SOLV.lig_0>
-58.7001

>  <SCORE.INTRA.VDW>
-0.226505

>  <SCORE.INTRA.VDW.0>
-0.401036

>  <SCORE.INTRA.norm>
-0.08713

>  <SCORE.RESTR>
0

>  <SCORE.RESTR.CAVITY>
0

>  <SCORE.RESTR.norm>
0

>  <SCORE.SYSTEM>
0

>  <SCORE.SYSTEM.CONST>
0

>  <SCORE.SYSTEM.DIHEDRAL>
0

>  <SCORE.SYSTEM.SOLV>
0

>  <SCORE.SYSTEM.norm>
0

>  <SCORE.heavy>
16

>  <SCORE.norm>
-0.313622

>  <RMSD>
5.495

$$$$
ligand
 OpenBabel11021811463D
libRbt.so/2013.1/901 2013/11/27
 16 16  0  0  0  0  0  0  0  0999 V2000
   44.5574   38.7131   53.2431 P   0  0  2  0  0  0  0  0  0  0  0  0
   43.1243   38.4360   53.5112 O   0  0  0  0  0  0  0  0  0  0  0  0
   44.9935   40.0551   54.0240 O   0  5  0  0  0  0  0  0  0  0  0  0
   44.7615   38.9084   51.6501 O   0  0  0  0  0  0  0  0  0  0  0  0
   48.1167   34.3241   52.9157 C   0  0  2  0  0  0  0  0  0  0  0  0
   47.6187   33.1278   52.2746 O   0  0  0  0  0  0  0  0  0  0  0  0
   48.4175   34.0662   54.4207 C   0  0  2  0  0  0  0  0  0  0  0  0
   49.4016   32.9754   54.5472 N   0  0  0  0  0  0  0  0  0  0  0  0
   47.1014   33.6766   55.1288 C   0  0  1  0  0  0  0  0  0  0  0  0
   47.3478   33.4382   56.5249 O   0  0  0  0  0  0  0  0  0  0  0  0
   46.1171   34.8528   54.9616 C   0  0  2  0  0  0  0  0  0  0  0  0
   44.8741   34.5216   55.6038 O   0  0  0  0  0  0  0  0  0  0  0  0
   45.8811   35.0787   53.4364 C   0  0  2  0  0  0  0  0  0  0  0  0
   47.1360   35.3998   52.7656 O   0  0  0  0  0  0  0  0  0  0  0  0
   44.9200   36.2547   53.1977 C   0  0  0  0  0  0  0  0  0  0  0  0
   45.4420   37.4644   53.7752 O   0  0  0  0  0  0  0  0  0  0  0  0
  1  2  1  1  0  0  0
  1  3  1  0  0  0  0
  1  4  2  0  0  0  0
  1 16  1  0  0  0  0
  5  6  1  1  0  0  0
  5  7  1  0  0  0  0
  5 14  1  0  0  0  0
  7  8  1  6  0  0  0
  7  9  1  0  0  0  0
  9 10  1  1  0  0  0
  9 11  1  0  0  0  0
 11 12  1  1  0  0  0
 11 13  1  0  0  0  0
 13 14  1  0  0  0  0
 13 15  1  1  0  0  0
 15 16  1  0  0  0  0
M  CHG  1   3  -1
M  END
>  <CHROM.1>
58.82764596,168.62518584,53.14821893,46.07111559,35.97894154,53.81862750
-2.46059961,-0.81730957,2.17213333

>  <Name>
ligand

>  <RI>
0

>  <Rbt.Current_Directory>
/home/itssahil/PROJECTS/Mol_Feturizer/New_Systems/rnas/3B4A

>  <Rbt.Executable>
rbdock ($Id: //depot/dev/client3/rdock/2013.1/src/exe/rbdock.cxx#4 $)

>  <Rbt.Library>
libRbt.so (2013.1, Build901 2013/11/27)

>  <Rbt.Parameter_File>
/export/apps/rDock/src/rDock_2013.1_src/data/scripts/dock_solv.prm

>  <Rbt.Receptor>
prm/pocket_docking_5.prm

>  <SCORE>
-6.91488

>  <SCORE.INTER>
-5.70727

>  <SCORE.INTER.CONST>
1

>  <SCORE.INTER.POLAR>
0

>  <SCORE.INTER.ROT>
3

>  <SCORE.INTER.SOLV>
11.5064

>  <SCORE.INTER.VDW>
-13.2403

>  <SCORE.INTER.norm>
-0.356705

>  <SCORE.INTRA>
-1.20761

>  <SCORE.INTRA.DIHEDRAL>
-1.35692

>  <SCORE.INTRA.DIHEDRAL.0>
2.05999

>  <SCORE.INTRA.POLAR>
0

>  <SCORE.INTRA.POLAR.0>
0

>  <SCORE.INTRA.REPUL>
0

>  <SCORE.INTRA.REPUL.0>
0

>  <SCORE.INTRA.SOLV>
-0.831143

>  <SCORE.INTRA.SOLV.lig_0>
-58.7001

>  <SCORE.INTRA.VDW>
-0.113577

>  <SCORE.INTRA.VDW.0>
-0.401036

>  <SCORE.INTRA.norm>
-0.0754754

>  <SCORE.RESTR>
0

>  <SCORE.RESTR.CAVITY>
0

>  <SCORE.RESTR.norm>
0

>  <SCORE.SYSTEM>
0

>  <SCORE.SYSTEM.CONST>
0

>  <SCORE.SYSTEM.DIHEDRAL>
0

>  <SCORE.SYSTEM.SOLV>
0

>  <SCORE.SYSTEM.norm>
0

>  <SCORE.heavy>
16

>  <SCORE.norm>
-0.43218

>  <RMSD>
5.502

$$$$
ligand
 OpenBabel11021811463D
libRbt.so/2013.1/901 2013/11/27
 16 16  0  0  0  0  0  0  0  0999 V2000
   44.5648   38.6993   53.2350 P   0  0  2  0  0  0  0  0  0  0  0  0
   43.1513   38.3647   53.5391 O   0  0  0  0  0  0  0  0  0  0  0  0
   44.9768   40.0385   54.0336 O   0  5  0  0  0  0  0  0  0  0  0  0
   44.7131   38.9371   51.6416 O   0  0  0  0  0  0  0  0  0  0  0  0
   48.2317   34.3835   52.8669 C   0  0  2  0  0  0  0  0  0  0  0  0
   47.7616   33.1877   52.2042 O   0  0  0  0  0  0  0  0  0  0  0  0
   48.5212   34.1101   54.3714 C   0  0  2  0  0  0  0  0  0  0  0  0
   49.5231   33.0351   54.4935 N   0  0  0  0  0  0  0  0  0  0  0  0
   47.2049   33.6877   55.0600 C   0  0  1  0  0  0  0  0  0  0  0  0
   47.4408   33.4344   56.4552 O   0  0  0  0  0  0  0  0  0  0  0  0
   46.2018   34.8488   54.8983 C   0  0  2  0  0  0  0  0  0  0  0  0
   44.9582   34.4870   55.5227 O   0  0  0  0  0  0  0  0  0  0  0  0
   45.9778   35.0917   53.3740 C   0  0  2  0  0  0  0  0  0  0  0  0
   47.2338   35.4439   52.7210 O   0  0  0  0  0  0  0  0  0  0  0  0
   44.9987   36.2538   53.1410 C   0  0  0  0  0  0  0  0  0  0  0  0
   45.5090   37.4718   53.7114 O   0  0  0  0  0  0  0  0  0  0  0  0
  1  2  1  1  0  0  0
  1  3  1  0  0  0  0
  1  4  2  0  0  0  0
  1 16  1  0  0  0  0
  5  6  1  1  0  0  0
  5  7  1  0  0  0  0
  5 14  1  0  0  0  0
  7  8  1  6  0  0  0
  7  9  1  0  0  0  0
  9 10  1  1  0  0  0
  9 11  1  0  0  0  0
 11 12  1  1  0  0  0
 11 13  1  0  0  0  0
 13 14  1  0  0  0  0
 13 15  1  1  0  0  0
 15 16  1  0  0  0  0
M  CHG  1   3  -1
M  END
>  <CHROM.1>
60.27937600,171.00621501,52.13062971,46.13750148,35.98775440,53.77730011
-2.47273886,-0.79712193,2.17799236

>  <Name>
ligand

>  <RI>
0

>  <Rbt.Current_Directory>
/home/itssahil/PROJECTS/Mol_Feturizer/New_Systems/rnas/3B4A

>  <Rbt.Executable>
rbdock ($Id: //depot/dev/client3/rdock/2013.1/src/exe/rbdock.cxx#4 $)

>  <Rbt.Library>
libRbt.so (2013.1, Build901 2013/11/27)

>  <Rbt.Parameter_File>
/export/apps/rDock/src/rDock_2013.1_src/data/scripts/dock_solv.prm

>  <Rbt.Receptor>
prm/pocket_docking_5.prm

>  <SCORE>
-7.00959

>  <SCORE.INTER>
-5.69003

>  <SCORE.INTER.CONST>
1

>  <SCORE.INTER.POLAR>
0

>  <SCORE.INTER.ROT>
3

>  <SCORE.INTER.SOLV>
11.2357

>  <SCORE.INTER.VDW>
-13.1386

>  <SCORE.INTER.norm>
-0.355627

>  <SCORE.INTRA>
-1.31956

>  <SCORE.INTRA.DIHEDRAL>
-1.56518

>  <SCORE.INTRA.DIHEDRAL.0>
2.05999

>  <SCORE.INTRA.POLAR>
0

>  <SCORE.INTRA.POLAR.0>
0

>  <SCORE.INTRA.REPUL>
0

>  <SCORE.INTRA.REPUL.0>
0

>  <SCORE.INTRA.SOLV>
-0.880838

>  <SCORE.INTRA.SOLV.lig_0>
-58.7001

>  <SCORE.INTRA.VDW>
-0.0965489

>  <SCORE.INTRA.VDW.0>
-0.401036

>  <SCORE.INTRA.norm>
-0.0824723

>  <SCORE.RESTR>
0

>  <SCORE.RESTR.CAVITY>
0

>  <SCORE.RESTR.norm>
0

>  <SCORE.SYSTEM>
0

>  <SCORE.SYSTEM.CONST>
0

>  <SCORE.SYSTEM.DIHEDRAL>
0

>  <SCORE.SYSTEM.SOLV>
0

>  <SCORE.SYSTEM.norm>
0

>  <SCORE.heavy>
16

>  <SCORE.norm>
-0.438099

>  <RMSD>
5.503

$$$$
ligand
 OpenBabel11021811463D
libRbt.so/2013.1/901 2013/11/27
 16 16  0  0  0  0  0  0  0  0999 V2000
   46.6961   33.6651   55.4179 P   0  0  2  0  0  0  0  0  0  0  0  0
   46.5173   33.4051   56.8681 O   0  0  0  0  0  0  0  0  0  0  0  0
   46.1577   32.3959   54.5810 O   0  5  0  0  0  0  0  0  0  0  0  0
   48.2692   33.8976   55.1201 O   0  0  0  0  0  0  0  0  0  0  0  0
   44.2538   38.5938   53.9486 C   0  0  2  0  0  0  0  0  0  0  0  0
   43.0082   38.0463   53.4600 O   0  0  0  0  0  0  0  0  0  0  0  0
   44.9449   39.4654   52.8600 C   0  0  2  0  0  0  0  0  0  0  0  0
   44.0382   40.5537   52.4505 N   0  0  0  0  0  0  0  0  0  0  0  0
   45.2785   38.5696   51.6469 C   0  0  1  0  0  0  0  0  0  0  0  0
   45.9250   39.3480   50.6258 O   0  0  0  0  0  0  0  0  0  0  0  0
   46.2257   37.4551   52.1379 C   0  0  2  0  0  0  0  0  0  0  0  0
   46.5527   36.5946   51.0334 O   0  0  0  0  0  0  0  0  0  0  0  0
   45.4880   36.6396   53.2440 C   0  0  2  0  0  0  0  0  0  0  0  0
   45.1338   37.5017   54.3661 O   0  0  0  0  0  0  0  0  0  0  0  0
   46.3873   35.5198   53.7926 C   0  0  0  0  0  0  0  0  0  0  0  0
   45.8453   34.9827   55.0120 O   0  0  0  0  0  0  0  0  0  0  0  0
  1  2  1  1  0  0  0
  1  3  1  0  0  0  0
  1  4  2  0  0  0  0
  1 16  1  0  0  0  0
  5  6  1  6  0  0  0
  5  7  1  0  0  0  0
  5 14  1  0  0  0  0
  7  8  1  6  0  0  0
  7  9  1  0  0  0  0
  9 10  1  6  0  0  0
  9 11  1  0  0  0  0
 11 12  1  6  0  0  0
 11 13  1  0  0  0  0
 13 14  1  0  0  0  0
 13 15  1  1  0  0  0
 15 16  1  0  0  0  0
M  CHG  1   3  -1
M  END
>  <CHROM.1>
166.15262506,171.25458057,158.77615171,45.76386912,36.37716337,53.69908351
1.15546592,-0.78892998,2.30446740

>  <Name>
ligand

>  <RI>
0

>  <Rbt.Current_Directory>
/home/itssahil/PROJECTS/Mol_Feturizer/New_Systems/rnas/3B4A

>  <Rbt.Executable>
rbdock ($Id: //depot/dev/client3/rdock/2013.1/src/exe/rbdock.cxx#4 $)

>  <Rbt.Library>
libRbt.so (2013.1, Build901 2013/11/27)

>  <Rbt.Parameter_File>
/export/apps/rDock/src/rDock_2013.1_src/data/scripts/dock_solv.prm

>  <Rbt.Receptor>
prm/pocket_docking_7.prm

>  <SCORE>
-7.5094

>  <SCORE.INTER>
-7.21679

>  <SCORE.INTER.CONST>
1

>  <SCORE.INTER.POLAR>
0

>  <SCORE.INTER.ROT>
3

>  <SCORE.INTER.SOLV>
13.3467

>  <SCORE.INTER.VDW>
-14.8601

>  <SCORE.INTER.norm>
-0.451049

>  <SCORE.INTRA>
-0.292615

>  <SCORE.INTRA.DIHEDRAL>
-0.359883

>  <SCORE.INTRA.DIHEDRAL.0>
2.05999

>  <SCORE.INTRA.POLAR>
0

>  <SCORE.INTRA.POLAR.0>
0

>  <SCORE.INTRA.REPUL>
0

>  <SCORE.INTRA.REPUL.0>
0

>  <SCORE.INTRA.SOLV>
-0.399574

>  <SCORE.INTRA.SOLV.lig_0>
-58.7001

>  <SCORE.INTRA.VDW>
0.0871136

>  <SCORE.INTRA.VDW.0>
-0.401036

>  <SCORE.INTRA.norm>
-0.0182884

>  <SCORE.RESTR>
0

>  <SCORE.RESTR.CAVITY>
0

>  <SCORE.RESTR.norm>
0

>  <SCORE.SYSTEM>
0

>  <SCORE.SYSTEM.CONST>
0

>  <SCORE.SYSTEM.DIHEDRAL>
0

>  <SCORE.SYSTEM.SOLV>
0

>  <SCORE.SYSTEM.norm>
0

>  <SCORE.heavy>
16

>  <SCORE.norm>
-0.469338

>  <RMSD>
5.508

$$$$
ligand
 OpenBabel11021811463D
libRbt.so/2013.1/901 2013/11/27
 16 16  0  0  0  0  0  0  0  0999 V2000
   44.5119   38.7578   53.1899 P   0  0  2  0  0  0  0  0  0  0  0  0
   43.0669   38.5197   53.4302 O   0  0  0  0  0  0  0  0  0  0  0  0
   44.9745   40.0741   53.9989 O   0  5  0  0  0  0  0  0  0  0  0  0
   44.7485   38.9711   51.6038 O   0  0  0  0  0  0  0  0  0  0  0  0
   47.8100   34.1389   52.8942 C   0  0  2  0  0  0  0  0  0  0  0  0
   47.2178   32.9512   52.3208 O   0  0  0  0  0  0  0  0  0  0  0  0
   48.1377   33.9268   54.4008 C   0  0  2  0  0  0  0  0  0  0  0  0
   49.0533   32.7807   54.5499 N   0  0  0  0  0  0  0  0  0  0  0  0
   46.8207   33.6546   55.1604 C   0  0  1  0  0  0  0  0  0  0  0  0
   47.0923   33.4610   56.5587 O   0  0  0  0  0  0  0  0  0  0  0  0
   45.9092   34.8843   54.9667 C   0  0  2  0  0  0  0  0  0  0  0  0
   44.6670   34.6627   55.6560 O   0  0  0  0  0  0  0  0  0  0  0  0
   45.6435   35.0594   53.4398 C   0  0  2  0  0  0  0  0  0  0  0  0
   46.8961   35.2688   52.7222 O   0  0  0  0  0  0  0  0  0  0  0  0
   44.7530   36.2841   53.1742 C   0  0  0  0  0  0  0  0  0  0  0  0
   45.3499   37.4751   53.7168 O   0  0  0  0  0  0  0  0  0  0  0  0
  1  2  1  1  0  0  0
  1  3  1  0  0  0  0
  1  4  2  0  0  0  0
  1 16  1  0  0  0  0
  5  6  1  1  0  0  0
  5  7  1  0  0  0  0
  5 14  1  0  0  0  0
  7  8  1  6  0  0  0
  7  9  1  0  0  0  0
  9 10  1  1  0  0  0
  9 11  1  0  0  0  0
 11 12  1  1  0  0  0
 11 13  1  0  0  0  0
 13 14  1  0  0  0  0
 13 15  1  1  0  0  0
 15 16  1  0  0  0  0
M  CHG  1   3  -1
M  END
>  <CHROM.1>
57.17786181,170.24347915,49.80108638,45.88754132,35.96002998,53.80313237
-2.46580353,-0.89094795,2.13147088

>  <Name>
ligand

>  <RI>
0

>  <Rbt.Current_Directory>
/home/itssahil/PROJECTS/Mol_Feturizer/New_Systems/rnas/3B4A

>  <Rbt.Executable>
rbdock ($Id: //depot/dev/client3/rdock/2013.1/src/exe/rbdock.cxx#4 $)

>  <Rbt.Library>
libRbt.so (2013.1, Build901 2013/11/27)

>  <Rbt.Parameter_File>
/export/apps/rDock/src/rDock_2013.1_src/data/scripts/dock_solv.prm

>  <Rbt.Receptor>
prm/pocket_docking_5.prm

>  <SCORE>
-6.9566

>  <SCORE.INTER>
-5.7786

>  <SCORE.INTER.CONST>
1

>  <SCORE.INTER.POLAR>
0

>  <SCORE.INTER.ROT>
3

>  <SCORE.INTER.SOLV>
11.6425

>  <SCORE.INTER.VDW>
-13.3332

>  <SCORE.INTER.norm>
-0.361162

>  <SCORE.INTRA>
-1.178

>  <SCORE.INTRA.DIHEDRAL>
-1.4033

>  <SCORE.INTRA.DIHEDRAL.0>
2.05999

>  <SCORE.INTRA.POLAR>
0

>  <SCORE.INTRA.POLAR.0>
0

>  <SCORE.INTRA.REPUL>
0

>  <SCORE.INTRA.REPUL.0>
0

>  <SCORE.INTRA.SOLV>
-0.892592

>  <SCORE.INTRA.SOLV.lig_0>
-58.7001

>  <SCORE.INTRA.VDW>
-0.030053

>  <SCORE.INTRA.VDW.0>
-0.401036

>  <SCORE.INTRA.norm>
-0.0736251

>  <SCORE.RESTR>
0

>  <SCORE.RESTR.CAVITY>
0

>  <SCORE.RESTR.norm>
0

>  <SCORE.SYSTEM>
0

>  <SCORE.SYSTEM.CONST>
0

>  <SCORE.SYSTEM.DIHEDRAL>
0

>  <SCORE.SYSTEM.SOLV>
0

>  <SCORE.SYSTEM.norm>
0

>  <SCORE.heavy>
16

>  <SCORE.norm>
-0.434787

>  <RMSD>
5.511

$$$$
ligand
 OpenBabel11021811463D
libRbt.so/2013.1/901 2013/11/27
 16 16  0  0  0  0  0  0  0  0999 V2000
   44.4890   38.7565   53.1654 P   0  0  2  0  0  0  0  0  0  0  0  0
   43.0382   38.5452   53.3959 O   0  0  0  0  0  0  0  0  0  0  0  0
   44.9727   40.0577   53.9865 O   0  5  0  0  0  0  0  0  0  0  0  0
   44.7388   38.9765   51.5822 O   0  0  0  0  0  0  0  0  0  0  0  0
   47.6644   34.0267   52.8443 C   0  0  2  0  0  0  0  0  0  0  0  0
   47.0219   32.8448   52.3148 O   0  0  0  0  0  0  0  0  0  0  0  0
   48.0162   33.8433   54.3492 C   0  0  2  0  0  0  0  0  0  0  0  0
   48.8966   32.6715   54.5107 N   0  0  0  0  0  0  0  0  0  0  0  0
   46.7071   33.6351   55.1418 C   0  0  1  0  0  0  0  0  0  0  0  0
   47.0011   33.4691   56.5391 O   0  0  0  0  0  0  0  0  0  0  0  0
   45.8325   34.8889   54.9334 C   0  0  2  0  0  0  0  0  0  0  0  0
   44.5983   34.7270   55.6529 O   0  0  0  0  0  0  0  0  0  0  0  0
   45.5411   35.0328   53.4080 C   0  0  2  0  0  0  0  0  0  0  0  0
   46.7848   35.1815   52.6602 O   0  0  0  0  0  0  0  0  0  0  0  0
   44.6859   36.2792   53.1273 C   0  0  0  0  0  0  0  0  0  0  0  0
   45.2986   37.4539   53.6876 O   0  0  0  0  0  0  0  0  0  0  0  0
  1  2  1  1  0  0  0
  1  3  1  0  0  0  0
  1  4  2  0  0  0  0
  1 16  1  0  0  0  0
  5  6  1  1  0  0  0
  5  7  1  0  0  0  0
  5 14  1  0  0  0  0
  7  8  1  6  0  0  0
  7  9  1  0  0  0  0
  9 10  1  1  0  0  0
  9 11  1  0  0  0  0
 11 12  1  1  0  0  0
 11 13  1  0  0  0  0
 13 14  1  0  0  0  0
 13 15  1  1  0  0  0
 15 16  1  0  0  0  0
M  CHG  1   3  -1
M  END
>  <CHROM.1>
54.14329838,171.10356245,50.10626503,45.80791803,35.93316603,53.77382120
-2.49431105,-0.93457501,2.09164554

>  <Name>
ligand

>  <RI>
0

>  <Rbt.Current_Directory>
/home/itssahil/PROJECTS/Mol_Feturizer/New_Systems/rnas/3B4A

>  <Rbt.Executable>
rbdock ($Id: //depot/dev/client3/rdock/2013.1/src/exe/rbdock.cxx#4 $)

>  <Rbt.Library>
libRbt.so (2013.1, Build901 2013/11/27)

>  <Rbt.Parameter_File>
/export/apps/rDock/src/rDock_2013.1_src/data/scripts/dock_solv.prm

>  <Rbt.Receptor>
prm/pocket_docking_5.prm

>  <SCORE>
-6.9736

>  <SCORE.INTER>
-5.81266

>  <SCORE.INTER.CONST>
1

>  <SCORE.INTER.POLAR>
0

>  <SCORE.INTER.ROT>
3

>  <SCORE.INTER.SOLV>
11.556

>  <SCORE.INTER.VDW>
-13.3271

>  <SCORE.INTER.norm>
-0.363291

>  <SCORE.INTRA>
-1.16094

>  <SCORE.INTRA.DIHEDRAL>
-1.39553

>  <SCORE.INTRA.DIHEDRAL.0>
2.05999

>  <SCORE.INTRA.POLAR>
0

>  <SCORE.INTRA.POLAR.0>
0

>  <SCORE.INTRA.REPUL>
0

>  <SCORE.INTRA.REPUL.0>
0

>  <SCORE.INTRA.SOLV>
-0.893634

>  <SCORE.INTRA.SOLV.lig_0>
-58.7001

>  <SCORE.INTRA.VDW>
-0.0163614

>  <SCORE.INTRA.VDW.0>
-0.401036

>  <SCORE.INTRA.norm>
-0.072559

>  <SCORE.RESTR>
0

>  <SCORE.RESTR.CAVITY>
0

>  <SCORE.RESTR.norm>
0

>  <SCORE.SYSTEM>
0

>  <SCORE.SYSTEM.CONST>
0

>  <SCORE.SYSTEM.DIHEDRAL>
0

>  <SCORE.SYSTEM.SOLV>
0

>  <SCORE.SYSTEM.norm>
0

>  <SCORE.heavy>
16

>  <SCORE.norm>
-0.43585

>  <RMSD>
5.512

$$$$
ligand
 OpenBabel11021811463D
libRbt.so/2013.1/901 2013/11/27
 16 16  0  0  0  0  0  0  0  0999 V2000
   44.5082   38.7975   53.1540 P   0  0  2  0  0  0  0  0  0  0  0  0
   43.0412   38.6397   53.3145 O   0  0  0  0  0  0  0  0  0  0  0  0
   44.9972   40.0886   53.9877 O   0  5  0  0  0  0  0  0  0  0  0  0
   44.8427   38.9935   51.5834 O   0  0  0  0  0  0  0  0  0  0  0  0
   47.4211   33.9314   53.0265 C   0  0  2  0  0  0  0  0  0  0  0  0
   46.7383   32.7783   52.4841 O   0  0  0  0  0  0  0  0  0  0  0  0
   47.7323   33.7349   54.5387 C   0  0  2  0  0  0  0  0  0  0  0  0
   48.5563   32.5255   54.7197 N   0  0  0  0  0  0  0  0  0  0  0  0
   46.3986   33.5860   55.3032 C   0  0  1  0  0  0  0  0  0  0  0  0
   46.6551   33.4093   56.7067 O   0  0  0  0  0  0  0  0  0  0  0  0
   45.5851   34.8771   55.0755 C   0  0  2  0  0  0  0  0  0  0  0  0
   44.3298   34.7710   55.7685 O   0  0  0  0  0  0  0  0  0  0  0  0
   45.3329   35.0314   53.5441 C   0  0  2  0  0  0  0  0  0  0  0  0
   46.5976   35.1238   52.8231 O   0  0  0  0  0  0  0  0  0  0  0  0
   44.5399   36.3140   53.2446 C   0  0  0  0  0  0  0  0  0  0  0  0
   45.2443   37.4723   53.7256 O   0  0  0  0  0  0  0  0  0  0  0  0
  1  2  1  1  0  0  0
  1  3  1  0  0  0  0
  1  4  2  0  0  0  0
  1 16  1  0  0  0  0
  5  6  1  1  0  0  0
  5  7  1  0  0  0  0
  5 14  1  0  0  0  0
  7  8  1  6  0  0  0
  7  9  1  0  0  0  0
  9 10  1  1  0  0  0
  9 11  1  0  0  0  0
 11 12  1  1  0  0  0
 11 13  1  0  0  0  0
 13 14  1  0  0  0  0
 13 15  1  1  0  0  0
 15 16  1  0  0  0  0
M  CHG  1   3  -1
M  END
>  <CHROM.1>
58.66020771,169.89036619,44.78323156,45.65257283,35.91960794,53.86890530
-2.38151974,-0.95247914,2.16793012

>  <Name>
ligand

>  <RI>
0

>  <Rbt.Current_Directory>
/home/itssahil/PROJECTS/Mol_Feturizer/New_Systems/rnas/3B4A

>  <Rbt.Executable>
rbdock ($Id: //depot/dev/client3/rdock/2013.1/src/exe/rbdock.cxx#4 $)

>  <Rbt.Library>
libRbt.so (2013.1, Build901 2013/11/27)

>  <Rbt.Parameter_File>
/export/apps/rDock/src/rDock_2013.1_src/data/scripts/dock_solv.prm

>  <Rbt.Receptor>
prm/pocket_docking_5.prm

>  <SCORE>
-7.02336

>  <SCORE.INTER>
-6.06529

>  <SCORE.INTER.CONST>
1

>  <SCORE.INTER.POLAR>
0

>  <SCORE.INTER.ROT>
3

>  <SCORE.INTER.SOLV>
12.0222

>  <SCORE.INTER.VDW>
-13.6509

>  <SCORE.INTER.norm>
-0.379081

>  <SCORE.INTRA>
-0.960191

>  <SCORE.INTRA.DIHEDRAL>
-1.19816

>  <SCORE.INTRA.DIHEDRAL.0>
2.05999

>  <SCORE.INTRA.POLAR>
0

>  <SCORE.INTRA.POLAR.0>
0

>  <SCORE.INTRA.REPUL>
0

>  <SCORE.INTRA.REPUL.0>
0

>  <SCORE.INTRA.SOLV>
-0.937804

>  <SCORE.INTRA.SOLV.lig_0>
-58.7001

>  <SCORE.INTRA.VDW>
0.107791

>  <SCORE.INTRA.VDW.0>
-0.401036

>  <SCORE.INTRA.norm>
-0.0600119

>  <SCORE.RESTR>
0.00212235

>  <SCORE.RESTR.CAVITY>
0.00212235

>  <SCORE.RESTR.norm>
0.000132647

>  <SCORE.SYSTEM>
0

>  <SCORE.SYSTEM.CONST>
0

>  <SCORE.SYSTEM.DIHEDRAL>
0

>  <SCORE.SYSTEM.SOLV>
0

>  <SCORE.SYSTEM.norm>
0

>  <SCORE.heavy>
16

>  <SCORE.norm>
-0.43896

>  <RMSD>
5.512

$$$$
ligand
 OpenBabel11021811463D
libRbt.so/2013.1/901 2013/11/27
 16 16  0  0  0  0  0  0  0  0999 V2000
   46.6728   33.6919   55.2544 P   0  0  2  0  0  0  0  0  0  0  0  0
   47.0387   33.5559   56.6863 O   0  0  0  0  0  0  0  0  0  0  0  0
   45.8822   32.3684   54.7808 O   0  5  0  0  0  0  0  0  0  0  0  0
   48.0256   33.8695   54.3852 O   0  0  0  0  0  0  0  0  0  0  0  0
   43.5003   38.2910   53.6366 C   0  0  2  0  0  0  0  0  0  0  0  0
   42.7816   38.1658   52.3884 O   0  0  0  0  0  0  0  0  0  0  0  0
   44.7846   39.1514   53.4567 C   0  0  2  0  0  0  0  0  0  0  0  0
   44.4173   40.4853   52.9467 N   0  0  0  0  0  0  0  0  0  0  0  0
   45.7203   38.4406   52.4544 C   0  0  1  0  0  0  0  0  0  0  0  0
   46.9205   39.2108   52.2732 O   0  0  0  0  0  0  0  0  0  0  0  0
   46.0669   37.0569   53.0423 C   0  0  2  0  0  0  0  0  0  0  0  0
   46.9332   36.3612   52.1298 O   0  0  0  0  0  0  0  0  0  0  0  0
   44.7399   36.2580   53.2255 C   0  0  2  0  0  0  0  0  0  0  0  0
   43.8414   36.9586   54.1364 O   0  0  0  0  0  0  0  0  0  0  0  0
   45.0130   34.8704   53.8284 C   0  0  0  0  0  0  0  0  0  0  0  0
   45.7159   34.9873   55.0780 O   0  0  0  0  0  0  0  0  0  0  0  0
  1  2  1  1  0  0  0
  1  3  1  0  0  0  0
  1  4  2  0  0  0  0
  1 16  1  0  0  0  0
  5  6  1  6  0  0  0
  5  7  1  0  0  0  0
  5 14  1  0  0  0  0
  7  8  1  6  0  0  0
  7  9  1  0  0  0  0
  9 10  1  1  0  0  0
  9 11  1  0  0  0  0
 11 12  1  6  0  0  0
 11 13  1  0  0  0  0
 13 14  1  0  0  0  0
 13 15  1  1  0  0  0
 15 16  1  0  0  0  0
M  CHG  1   3  -1
M  END
>  <CHROM.1>
56.52496278,-148.58230487,-161.00335385,45.61724166,36.21767389,53.86095303
-1.22832396,0.19440902,-0.49117580

>  <Name>
ligand

>  <RI>
0

>  <Rbt.Current_Directory>
/home/itssahil/PROJECTS/Mol_Feturizer/New_Systems/rnas/3B4A

>  <Rbt.Executable>
rbdock ($Id: //depot/dev/client3/rdock/2013.1/src/exe/rbdock.cxx#4 $)

>  <Rbt.Library>
libRbt.so (2013.1, Build901 2013/11/27)

>  <Rbt.Parameter_File>
/export/apps/rDock/src/rDock_2013.1_src/data/scripts/dock_solv.prm

>  <Rbt.Receptor>
prm/pocket_docking_6.prm

>  <SCORE>
-7.35693

>  <SCORE.INTER>
-8.7941

>  <SCORE.INTER.CONST>
1

>  <SCORE.INTER.POLAR>
0

>  <SCORE.INTER.ROT>
3

>  <SCORE.INTER.SOLV>
10.6632

>  <SCORE.INTER.VDW>
-15.0171

>  <SCORE.INTER.norm>
-0.549632

>  <SCORE.INTRA>
1.43718

>  <SCORE.INTRA.DIHEDRAL>
2.39851

>  <SCORE.INTRA.DIHEDRAL.0>
2.05999

>  <SCORE.INTRA.POLAR>
0

>  <SCORE.INTRA.POLAR.0>
0

>  <SCORE.INTRA.REPUL>
0

>  <SCORE.INTRA.REPUL.0>
0

>  <SCORE.INTRA.SOLV>
1.08228

>  <SCORE.INTRA.SOLV.lig_0>
-58.7001

>  <SCORE.INTRA.VDW>
-0.303219

>  <SCORE.INTRA.VDW.0>
-0.401036

>  <SCORE.INTRA.norm>
0.0898236

>  <SCORE.RESTR>
0

>  <SCORE.RESTR.CAVITY>
0

>  <SCORE.RESTR.norm>
0

>  <SCORE.SYSTEM>
0

>  <SCORE.SYSTEM.CONST>
0

>  <SCORE.SYSTEM.DIHEDRAL>
0

>  <SCORE.SYSTEM.SOLV>
0

>  <SCORE.SYSTEM.norm>
0

>  <SCORE.heavy>
16

>  <SCORE.norm>
-0.459808

>  <RMSD>
5.513

$$$$
ligand
 OpenBabel11021811463D
libRbt.so/2013.1/901 2013/11/27
 16 16  0  0  0  0  0  0  0  0999 V2000
   44.6083   34.8900   55.2625 P   0  0  2  0  0  0  0  0  0  0  0  0
   44.3587   35.3189   56.6612 O   0  0  0  0  0  0  0  0  0  0  0  0
   44.0798   36.0329   54.2548 O   0  5  0  0  0  0  0  0  0  0  0  0
   43.8169   33.5050   54.9928 O   0  0  0  0  0  0  0  0  0  0  0  0
   50.0989   33.5099   54.3919 C   0  0  2  0  0  0  0  0  0  0  0  0
   50.5245   34.8384   54.0123 O   0  0  0  0  0  0  0  0  0  0  0  0
   50.4323   32.4774   53.2762 C   0  0  2  0  0  0  0  0  0  0  0  0
   51.8827   32.4891   53.0107 N   0  0  0  0  0  0  0  0  0  0  0  0
   49.6569   32.8629   51.9973 C   0  0  1  0  0  0  0  0  0  0  0  0
   49.9408   31.9209   50.9491 O   0  0  0  0  0  0  0  0  0  0  0  0
   48.1525   32.8329   52.3384 C   0  0  2  0  0  0  0  0  0  0  0  0
   47.3974   33.1951   51.1696 O   0  0  0  0  0  0  0  0  0  0  0  0
   47.8899   33.8639   53.4788 C   0  0  2  0  0  0  0  0  0  0  0  0
   48.6618   33.5206   54.6680 O   0  0  0  0  0  0  0  0  0  0  0  0
   46.4063   33.8711   53.8819 C   0  0  0  0  0  0  0  0  0  0  0  0
   46.2011   34.6782   55.0548 O   0  0  0  0  0  0  0  0  0  0  0  0
  1  2  1  1  0  0  0
  1  3  1  0  0  0  0
  1  4  2  0  0  0  0
  1 16  1  0  0  0  0
  5  6  1  6  0  0  0
  5  7  1  0  0  0  0
  5 14  1  0  0  0  0
  7  8  1  6  0  0  0
  7  9  1  0  0  0  0
  9 10  1  6  0  0  0
  9 11  1  0  0  0  0
 11 12  1  6  0  0  0
 11 13  1  0  0  0  0
 13 14  1  0  0  0  0
 13 15  1  1  0  0  0
 15 16  1  0  0  0  0
M  CHG  1   3  -1
M  END
>  <CHROM.1>
171.83202474,168.97613056,161.69124648,47.45968703,33.85237667,53.84522742
-2.62513317,0.12292685,-2.02015426

>  <Name>
ligand

>  <RI>
0

>  <Rbt.Current_Directory>
/home/itssahil/PROJECTS/Mol_Feturizer/New_Systems/rnas/3B4A

>  <Rbt.Executable>
rbdock ($Id: //depot/dev/client3/rdock/2013.1/src/exe/rbdock.cxx#4 $)

>  <Rbt.Library>
libRbt.so (2013.1, Build901 2013/11/27)

>  <Rbt.Parameter_File>
/export/apps/rDock/src/rDock_2013.1_src/data/scripts/dock_solv.prm

>  <Rbt.Receptor>
prm/pocket_docking_5.prm

>  <SCORE>
-5.25691

>  <SCORE.INTER>
-4.66609

>  <SCORE.INTER.CONST>
1

>  <SCORE.INTER.POLAR>
0

>  <SCORE.INTER.ROT>
3

>  <SCORE.INTER.SOLV>
15.3886

>  <SCORE.INTER.VDW>
-13.8403

>  <SCORE.INTER.norm>
-0.291631

>  <SCORE.INTRA>
-0.590817

>  <SCORE.INTRA.DIHEDRAL>
-0.729288

>  <SCORE.INTRA.DIHEDRAL.0>
2.05999

>  <SCORE.INTRA.POLAR>
0

>  <SCORE.INTRA.POLAR.0>
0

>  <SCORE.INTRA.REPUL>
0

>  <SCORE.INTRA.REPUL.0>
0

>  <SCORE.INTRA.SOLV>
-0.408928

>  <SCORE.INTRA.SOLV.lig_0>
-58.7001

>  <SCORE.INTRA.VDW>
-0.0217091

>  <SCORE.INTRA.VDW.0>
-0.401036

>  <SCORE.INTRA.norm>
-0.0369261

>  <SCORE.RESTR>
0

>  <SCORE.RESTR.CAVITY>
0

>  <SCORE.RESTR.norm>
0

>  <SCORE.SYSTEM>
0

>  <SCORE.SYSTEM.CONST>
0

>  <SCORE.SYSTEM.DIHEDRAL>
0

>  <SCORE.SYSTEM.SOLV>
0

>  <SCORE.SYSTEM.norm>
0

>  <SCORE.heavy>
16

>  <SCORE.norm>
-0.328557

>  <RMSD>
5.515

$$$$
ligand
 OpenBabel11021811463D
libRbt.so/2013.1/901 2013/11/27
 16 16  0  0  0  0  0  0  0  0999 V2000
   46.7009   33.6592   55.4928 P   0  0  2  0  0  0  0  0  0  0  0  0
   46.7484   33.5006   56.9676 O   0  0  0  0  0  0  0  0  0  0  0  0
   45.9044   32.4126   54.8504 O   0  5  0  0  0  0  0  0  0  0  0  0
   48.2148   33.7012   54.9239 O   0  0  0  0  0  0  0  0  0  0  0  0
   43.4229   38.0902   53.8090 C   0  0  2  0  0  0  0  0  0  0  0  0
   42.8318   37.9997   52.4928 O   0  0  0  0  0  0  0  0  0  0  0  0
   44.5295   39.1838   53.8493 C   0  0  2  0  0  0  0  0  0  0  0  0
   43.9522   40.4841   53.4617 N   0  0  0  0  0  0  0  0  0  0  0  0
   45.6522   38.7885   52.8651 C   0  0  1  0  0  0  0  0  0  0  0  0
   46.6936   39.7792   52.8858 O   0  0  0  0  0  0  0  0  0  0  0  0
   46.2131   37.4258   53.3220 C   0  0  2  0  0  0  0  0  0  0  0  0
   47.2586   37.0212   52.4218 O   0  0  0  0  0  0  0  0  0  0  0  0
   45.0528   36.3841   53.2880 C   0  0  2  0  0  0  0  0  0  0  0  0
   43.9749   36.7879   54.1842 O   0  0  0  0  0  0  0  0  0  0  0  0
   45.5414   35.0024   53.7525 C   0  0  0  0  0  0  0  0  0  0  0  0
   45.9274   35.0379   55.1377 O   0  0  0  0  0  0  0  0  0  0  0  0
  1  2  1  1  0  0  0
  1  3  1  0  0  0  0
  1  4  2  0  0  0  0
  1 16  1  0  0  0  0
  5  6  1  6  0  0  0
  5  7  1  0  0  0  0
  5 14  1  0  0  0  0
  7  8  1  6  0  0  0
  7  9  1  0  0  0  0
  9 10  1  1  0  0  0
  9 11  1  0  0  0  0
 11 12  1  6  0  0  0
 11 13  1  0  0  0  0
 13 14  1  0  0  0  0
 13 15  1  1  0  0  0
 15 16  1  0  0  0  0
M  CHG  1   3  -1
M  END
>  <CHROM.1>
65.40263570,-168.89855270,-163.47567816,45.65360576,36.30419024,54.11000724
1.22787406,-0.09424666,2.70921307

>  <Name>
ligand

>  <RI>
0

>  <Rbt.Current_Directory>
/home/itssahil/PROJECTS/Mol_Feturizer/New_Systems/rnas/3B4A

>  <Rbt.Executable>
rbdock ($Id: //depot/dev/client3/rdock/2013.1/src/exe/rbdock.cxx#4 $)

>  <Rbt.Library>
libRbt.so (2013.1, Build901 2013/11/27)

>  <Rbt.Parameter_File>
/export/apps/rDock/src/rDock_2013.1_src/data/scripts/dock_solv.prm

>  <Rbt.Receptor>
prm/pocket_docking_8.prm

>  <SCORE>
-9.15449

>  <SCORE.INTER>
-8.45171

>  <SCORE.INTER.CONST>
1

>  <SCORE.INTER.POLAR>
0

>  <SCORE.INTER.ROT>
3

>  <SCORE.INTER.SOLV>
14.1911

>  <SCORE.INTER.VDW>
-15.9648

>  <SCORE.INTER.norm>
-0.528232

>  <SCORE.INTRA>
-0.702781

>  <SCORE.INTRA.DIHEDRAL>
-0.937755

>  <SCORE.INTRA.DIHEDRAL.0>
2.05999

>  <SCORE.INTRA.POLAR>
0

>  <SCORE.INTRA.POLAR.0>
0

>  <SCORE.INTRA.REPUL>
0

>  <SCORE.INTRA.REPUL.0>
0

>  <SCORE.INTRA.SOLV>
-0.0161356

>  <SCORE.INTRA.SOLV.lig_0>
-58.7001

>  <SCORE.INTRA.VDW>
-0.225835

>  <SCORE.INTRA.VDW.0>
-0.401036

>  <SCORE.INTRA.norm>
-0.0439238

>  <SCORE.RESTR>
0

>  <SCORE.RESTR.CAVITY>
0

>  <SCORE.RESTR.norm>
0

>  <SCORE.SYSTEM>
0

>  <SCORE.SYSTEM.CONST>
0

>  <SCORE.SYSTEM.DIHEDRAL>
0

>  <SCORE.SYSTEM.SOLV>
0

>  <SCORE.SYSTEM.norm>
0

>  <SCORE.heavy>
16

>  <SCORE.norm>
-0.572156

>  <RMSD>
5.517

$$$$
ligand
 OpenBabel11021811463D
libRbt.so/2013.1/901 2013/11/27
 16 16  0  0  0  0  0  0  0  0999 V2000
   45.4122   34.9205   55.1394 P   0  0  2  0  0  0  0  0  0  0  0  0
   45.0703   34.9946   56.5816 O   0  0  0  0  0  0  0  0  0  0  0  0
   44.7388   36.1676   54.3697 O   0  5  0  0  0  0  0  0  0  0  0  0
   44.8454   33.5288   54.5401 O   0  0  0  0  0  0  0  0  0  0  0  0
   50.9144   33.7934   54.1695 C   0  0  2  0  0  0  0  0  0  0  0  0
   51.4553   35.0660   54.5917 O   0  0  0  0  0  0  0  0  0  0  0  0
   51.3477   33.4592   52.7126 C   0  0  2  0  0  0  0  0  0  0  0  0
   52.8196   33.4379   52.6283 N   0  0  0  0  0  0  0  0  0  0  0  0
   50.7788   34.5395   51.7667 C   0  0  1  0  0  0  0  0  0  0  0  0
   51.1583   34.2526   50.4102 O   0  0  0  0  0  0  0  0  0  0  0  0
   49.2420   34.5123   51.9001 C   0  0  2  0  0  0  0  0  0  0  0  0
   48.6767   35.5134   51.0367 O   0  0  0  0  0  0  0  0  0  0  0  0
   48.8752   34.8243   53.3836 C   0  0  2  0  0  0  0  0  0  0  0  0
   49.4553   33.8266   54.2758 O   0  0  0  0  0  0  0  0  0  0  0  0
   47.3521   34.7940   53.5908 C   0  0  0  0  0  0  0  0  0  0  0  0
   47.0228   34.9890   54.9775 O   0  0  0  0  0  0  0  0  0  0  0  0
  1  2  1  1  0  0  0
  1  3  1  0  0  0  0
  1  4  2  0  0  0  0
  1 16  1  0  0  0  0
  5  6  1  6  0  0  0
  5  7  1  0  0  0  0
  5 14  1  0  0  0  0
  7  8  1  1  0  0  0
  7  9  1  0  0  0  0
  9 10  1  6  0  0  0
  9 11  1  0  0  0  0
 11 12  1  6  0  0  0
 11 13  1  0  0  0  0
 13 14  1  0  0  0  0
 13 15  1  6  0  0  0
 15 16  1  0  0  0  0
M  CHG  1   3  -1
M  END
>  <CHROM.1>
175.95726671,-178.97516397,174.80846290,48.38991421,34.58661851,53.65044334
-2.72879854,0.20028983,-1.41884844

>  <Name>
ligand

>  <RI>
0

>  <Rbt.Current_Directory>
/home/itssahil/PROJECTS/Mol_Feturizer/New_Systems/rnas/3B4A

>  <Rbt.Executable>
rbdock ($Id: //depot/dev/client3/rdock/2013.1/src/exe/rbdock.cxx#4 $)

>  <Rbt.Library>
libRbt.so (2013.1, Build901 2013/11/27)

>  <Rbt.Parameter_File>
/export/apps/rDock/src/rDock_2013.1_src/data/scripts/dock_solv.prm

>  <Rbt.Receptor>
prm/pocket_docking_3.prm

>  <SCORE>
-4.97806

>  <SCORE.INTER>
-3.58079

>  <SCORE.INTER.CONST>
1

>  <SCORE.INTER.POLAR>
0

>  <SCORE.INTER.ROT>
3

>  <SCORE.INTER.SOLV>
10.1174

>  <SCORE.INTER.VDW>
-11.3596

>  <SCORE.INTER.norm>
-0.223799

>  <SCORE.INTRA>
-1.39727

>  <SCORE.INTRA.DIHEDRAL>
-1.95079

>  <SCORE.INTRA.DIHEDRAL.0>
2.05999

>  <SCORE.INTRA.POLAR>
0

>  <SCORE.INTRA.POLAR.0>
0

>  <SCORE.INTRA.REPUL>
0

>  <SCORE.INTRA.REPUL.0>
0

>  <SCORE.INTRA.SOLV>
-0.393251

>  <SCORE.INTRA.SOLV.lig_0>
-58.7001

>  <SCORE.INTRA.VDW>
-0.225253

>  <SCORE.INTRA.VDW.0>
-0.401036

>  <SCORE.INTRA.norm>
-0.0873296

>  <SCORE.RESTR>
0

>  <SCORE.RESTR.CAVITY>
0

>  <SCORE.RESTR.norm>
0

>  <SCORE.SYSTEM>
0

>  <SCORE.SYSTEM.CONST>
0

>  <SCORE.SYSTEM.DIHEDRAL>
0

>  <SCORE.SYSTEM.SOLV>
0

>  <SCORE.SYSTEM.norm>
0

>  <SCORE.heavy>
16

>  <SCORE.norm>
-0.311129

>  <RMSD>
5.522

$$$$
ligand
 OpenBabel11021811463D
libRbt.so/2013.1/901 2013/11/27
 16 16  0  0  0  0  0  0  0  0999 V2000
   44.5844   34.8979   55.2211 P   0  0  2  0  0  0  0  0  0  0  0  0
   44.3222   35.3767   56.6012 O   0  0  0  0  0  0  0  0  0  0  0  0
   44.0566   35.9995   54.1681 O   0  5  0  0  0  0  0  0  0  0  0  0
   43.8031   33.4991   54.9973 O   0  0  0  0  0  0  0  0  0  0  0  0
   50.0938   33.5066   54.3954 C   0  0  2  0  0  0  0  0  0  0  0  0
   50.5100   34.8390   54.0189 O   0  0  0  0  0  0  0  0  0  0  0  0
   50.4335   32.4793   53.2767 C   0  0  2  0  0  0  0  0  0  0  0  0
   51.8836   32.5017   53.0103 N   0  0  0  0  0  0  0  0  0  0  0  0
   49.6546   32.8628   51.9994 C   0  0  1  0  0  0  0  0  0  0  0  0
   49.9443   31.9254   50.9486 O   0  0  0  0  0  0  0  0  0  0  0  0
   48.1507   32.8215   52.3414 C   0  0  2  0  0  0  0  0  0  0  0  0
   47.3923   33.1816   51.1742 O   0  0  0  0  0  0  0  0  0  0  0  0
   47.8818   33.8478   53.4847 C   0  0  2  0  0  0  0  0  0  0  0  0
   48.6569   33.5067   54.6725 O   0  0  0  0  0  0  0  0  0  0  0  0
   46.3985   33.8436   53.8889 C   0  0  0  0  0  0  0  0  0  0  0  0
   46.1799   34.6882   55.0326 O   0  0  0  0  0  0  0  0  0  0  0  0
  1  2  1  1  0  0  0
  1  3  1  0  0  0  0
  1  4  2  0  0  0  0
  1 16  1  0  0  0  0
  5  6  1  6  0  0  0
  5  7  1  0  0  0  0
  5 14  1  0  0  0  0
  7  8  1  6  0  0  0
  7  9  1  0  0  0  0
  9 10  1  6  0  0  0
  9 11  1  0  0  0  0
 11 12  1  6  0  0  0
 11 13  1  0  0  0  0
 13 14  1  0  0  0  0
 13 15  1  1  0  0  0
 15 16  1  0  0  0  0
M  CHG  1   3  -1
M  END
>  <CHROM.1>
174.09333575,168.14038488,161.90396317,47.44820268,33.85140937,53.83180982
-2.63226660,0.12484722,-2.02346401

>  <Name>
ligand

>  <RI>
0

>  <Rbt.Current_Directory>
/home/itssahil/PROJECTS/Mol_Feturizer/New_Systems/rnas/3B4A

>  <Rbt.Executable>
rbdock ($Id: //depot/dev/client3/rdock/2013.1/src/exe/rbdock.cxx#4 $)

>  <Rbt.Library>
libRbt.so (2013.1, Build901 2013/11/27)

>  <Rbt.Parameter_File>
/export/apps/rDock/src/rDock_2013.1_src/data/scripts/dock_solv.prm

>  <Rbt.Receptor>
prm/pocket_docking_4.prm

>  <SCORE>
-5.28785

>  <SCORE.INTER>
-4.65911

>  <SCORE.INTER.CONST>
1

>  <SCORE.INTER.POLAR>
0

>  <SCORE.INTER.ROT>
3

>  <SCORE.INTER.SOLV>
15.229

>  <SCORE.INTER.VDW>
-13.7824

>  <SCORE.INTER.norm>
-0.291194

>  <SCORE.INTRA>
-0.628743

>  <SCORE.INTRA.DIHEDRAL>
-0.763162

>  <SCORE.INTRA.DIHEDRAL.0>
2.05999

>  <SCORE.INTRA.POLAR>
0

>  <SCORE.INTRA.POLAR.0>
0

>  <SCORE.INTRA.REPUL>
0

>  <SCORE.INTRA.REPUL.0>
0

>  <SCORE.INTRA.SOLV>
-0.415049

>  <SCORE.INTRA.SOLV.lig_0>
-58.7001

>  <SCORE.INTRA.VDW>
-0.039637

>  <SCORE.INTRA.VDW.0>
-0.401036

>  <SCORE.INTRA.norm>
-0.0392964

>  <SCORE.RESTR>
0

>  <SCORE.RESTR.CAVITY>
0

>  <SCORE.RESTR.norm>
0

>  <SCORE.SYSTEM>
0

>  <SCORE.SYSTEM.CONST>
0

>  <SCORE.SYSTEM.DIHEDRAL>
0

>  <SCORE.SYSTEM.SOLV>
0

>  <SCORE.SYSTEM.norm>
0

>  <SCORE.heavy>
16

>  <SCORE.norm>
-0.330491

>  <RMSD>
5.522

$$$$
ligand
 OpenBabel11021811463D
libRbt.so/2013.1/901 2013/11/27
 16 16  0  0  0  0  0  0  0  0999 V2000
   45.0483   35.2772   55.0197 P   0  0  2  0  0  0  0  0  0  0  0  0
   45.1702   34.9159   56.4540 O   0  0  0  0  0  0  0  0  0  0  0  0
   44.7402   36.8553   54.8944 O   0  5  0  0  0  0  0  0  0  0  0  0
   43.8385   34.4234   54.3680 O   0  0  0  0  0  0  0  0  0  0  0  0
   50.0326   34.9313   52.2212 C   0  0  2  0  0  0  0  0  0  0  0  0
   50.1666   35.7388   51.0294 O   0  0  0  0  0  0  0  0  0  0  0  0
   50.0134   33.4156   51.8685 C   0  0  2  0  0  0  0  0  0  0  0  0
   51.2519   33.0603   51.1515 N   0  0  0  0  0  0  0  0  0  0  0  0
   48.7850   33.1303   50.9768 C   0  0  1  0  0  0  0  0  0  0  0  0
   48.7376   31.7336   50.6399 O   0  0  0  0  0  0  0  0  0  0  0  0
   47.5266   33.5211   51.7794 C   0  0  2  0  0  0  0  0  0  0  0  0
   46.3603   33.2754   50.9753 O   0  0  0  0  0  0  0  0  0  0  0  0
   47.6205   35.0389   52.1260 C   0  0  2  0  0  0  0  0  0  0  0  0
   48.8084   35.3089   52.9285 O   0  0  0  0  0  0  0  0  0  0  0  0
   46.4012   35.4914   52.9458 C   0  0  0  0  0  0  0  0  0  0  0  0
   46.4447   34.9363   54.2722 O   0  0  0  0  0  0  0  0  0  0  0  0
  1  2  1  1  0  0  0
  1  3  1  0  0  0  0
  1  4  2  0  0  0  0
  1 16  1  0  0  0  0
  5  6  1  6  0  0  0
  5  7  1  0  0  0  0
  5 14  1  0  0  0  0
  7  8  1  6  0  0  0
  7  9  1  0  0  0  0
  9 10  1  1  0  0  0
  9 11  1  0  0  0  0
 11 12  1  6  0  0  0
 11 13  1  0  0  0  0
 13 14  1  0  0  0  0
 13 15  1  1  0  0  0
 15 16  1  0  0  0  0
M  CHG  1   3  -1
M  END
>  <CHROM.1>
70.24388156,-172.42199704,-170.43814088,47.31676114,34.51883859,52.93023971
-2.50929946,-0.37125572,-2.46060540

>  <Name>
ligand

>  <RI>
0

>  <Rbt.Current_Directory>
/home/itssahil/PROJECTS/Mol_Feturizer/New_Systems/rnas/3B4A

>  <Rbt.Executable>
rbdock ($Id: //depot/dev/client3/rdock/2013.1/src/exe/rbdock.cxx#4 $)

>  <Rbt.Library>
libRbt.so (2013.1, Build901 2013/11/27)

>  <Rbt.Parameter_File>
/export/apps/rDock/src/rDock_2013.1_src/data/scripts/dock_solv.prm

>  <Rbt.Receptor>
prm/pocket_docking_4.prm

>  <SCORE>
-4.38851

>  <SCORE.INTER>
-3.37

>  <SCORE.INTER.CONST>
1

>  <SCORE.INTER.POLAR>
0

>  <SCORE.INTER.ROT>
3

>  <SCORE.INTER.SOLV>
11.9919

>  <SCORE.INTER.VDW>
-11.844

>  <SCORE.INTER.norm>
-0.210625

>  <SCORE.INTRA>
-1.01851

>  <SCORE.INTRA.DIHEDRAL>
-1.257

>  <SCORE.INTRA.DIHEDRAL.0>
2.05999

>  <SCORE.INTRA.POLAR>
0

>  <SCORE.INTRA.POLAR.0>
0

>  <SCORE.INTRA.REPUL>
0

>  <SCORE.INTRA.REPUL.0>
0

>  <SCORE.INTRA.SOLV>
-0.124684

>  <SCORE.INTRA.SOLV.lig_0>
-58.7001

>  <SCORE.INTRA.VDW>
-0.327666

>  <SCORE.INTRA.VDW.0>
-0.401036

>  <SCORE.INTRA.norm>
-0.0636568

>  <SCORE.RESTR>
0

>  <SCORE.RESTR.CAVITY>
0

>  <SCORE.RESTR.norm>
0

>  <SCORE.SYSTEM>
0

>  <SCORE.SYSTEM.CONST>
0

>  <SCORE.SYSTEM.DIHEDRAL>
0

>  <SCORE.SYSTEM.SOLV>
0

>  <SCORE.SYSTEM.norm>
0

>  <SCORE.heavy>
16

>  <SCORE.norm>
-0.274282

>  <RMSD>
5.527

$$$$
ligand
 OpenBabel11021811463D
libRbt.so/2013.1/901 2013/11/27
 16 16  0  0  0  0  0  0  0  0999 V2000
   45.8615   34.1978   55.7680 P   0  0  2  0  0  0  0  0  0  0  0  0
   44.8999   35.1110   56.4344 O   0  0  0  0  0  0  0  0  0  0  0  0
   45.0488   33.1484   54.8518 O   0  5  0  0  0  0  0  0  0  0  0  0
   46.7018   33.4076   56.9024 O   0  0  0  0  0  0  0  0  0  0  0  0
   51.0193   34.7722   52.3642 C   0  0  2  0  0  0  0  0  0  0  0  0
   51.5630   35.8769   53.1219 O   0  0  0  0  0  0  0  0  0  0  0  0
   50.4332   35.2612   51.0079 C   0  0  2  0  0  0  0  0  0  0  0  0
   51.4871   35.9394   50.2310 N   0  0  0  0  0  0  0  0  0  0  0  0
   49.2734   36.2402   51.2940 C   0  0  1  0  0  0  0  0  0  0  0  0
   48.7071   36.7043   50.0569 O   0  0  0  0  0  0  0  0  0  0  0  0
   48.2079   35.4748   52.1061 C   0  0  2  0  0  0  0  0  0  0  0  0
   47.1130   36.3597   52.3982 O   0  0  0  0  0  0  0  0  0  0  0  0
   48.8637   34.9875   53.4346 C   0  0  2  0  0  0  0  0  0  0  0  0
   49.9881   34.1008   53.1563 O   0  0  0  0  0  0  0  0  0  0  0  0
   47.8570   34.1972   54.2865 C   0  0  0  0  0  0  0  0  0  0  0  0
   46.8574   35.0730   54.8368 O   0  0  0  0  0  0  0  0  0  0  0  0
  1  2  1  1  0  0  0
  1  3  1  0  0  0  0
  1  4  2  0  0  0  0
  1 16  1  0  0  0  0
  5  6  1  1  0  0  0
  5  7  1  0  0  0  0
  5 14  1  0  0  0  0
  7  8  1  6  0  0  0
  7  9  1  0  0  0  0
  9 10  1  6  0  0  0
  9 11  1  0  0  0  0
 11 12  1  1  0  0  0
 11 13  1  0  0  0  0
 13 14  1  0  0  0  0
 13 15  1  1  0  0  0
 15 16  1  0  0  0  0
M  CHG  1   3  -1
M  END
>  <CHROM.1>
-71.09743131,-177.82977674,175.07392925,48.12764050,34.98474722,53.50270439
-2.34363109,0.16725652,-1.06458971

>  <Name>
ligand

>  <RI>
0

>  <Rbt.Current_Directory>
/home/itssahil/PROJECTS/Mol_Feturizer/New_Systems/rnas/3B4A

>  <Rbt.Executable>
rbdock ($Id: //depot/dev/client3/rdock/2013.1/src/exe/rbdock.cxx#4 $)

>  <Rbt.Library>
libRbt.so (2013.1, Build901 2013/11/27)

>  <Rbt.Parameter_File>
/export/apps/rDock/src/rDock_2013.1_src/data/scripts/dock_solv.prm

>  <Rbt.Receptor>
prm/pocket_docking_4.prm

>  <SCORE>
-5.60231

>  <SCORE.INTER>
-4.43039

>  <SCORE.INTER.CONST>
1

>  <SCORE.INTER.POLAR>
0

>  <SCORE.INTER.ROT>
3

>  <SCORE.INTER.SOLV>
15.5815

>  <SCORE.INTER.VDW>
-13.7474

>  <SCORE.INTER.norm>
-0.2769

>  <SCORE.INTRA>
-1.17192

>  <SCORE.INTRA.DIHEDRAL>
-1.56497

>  <SCORE.INTRA.DIHEDRAL.0>
2.05999

>  <SCORE.INTRA.POLAR>
0

>  <SCORE.INTRA.POLAR.0>
0

>  <SCORE.INTRA.REPUL>
0

>  <SCORE.INTRA.REPUL.0>
0

>  <SCORE.INTRA.SOLV>
-0.108357

>  <SCORE.INTRA.SOLV.lig_0>
-58.7001

>  <SCORE.INTRA.VDW>
-0.335256

>  <SCORE.INTRA.VDW.0>
-0.401036

>  <SCORE.INTRA.norm>
-0.0732449

>  <SCORE.RESTR>
0

>  <SCORE.RESTR.CAVITY>
0

>  <SCORE.RESTR.norm>
0

>  <SCORE.SYSTEM>
0

>  <SCORE.SYSTEM.CONST>
0

>  <SCORE.SYSTEM.DIHEDRAL>
0

>  <SCORE.SYSTEM.SOLV>
0

>  <SCORE.SYSTEM.norm>
0

>  <SCORE.heavy>
16

>  <SCORE.norm>
-0.350144

>  <RMSD>
5.535

$$$$
ligand
 OpenBabel11021811463D
libRbt.so/2013.1/901 2013/11/27
 16 16  0  0  0  0  0  0  0  0999 V2000
   46.1750   33.9453   55.7105 P   0  0  2  0  0  0  0  0  0  0  0  0
   46.5771   33.3847   57.0244 O   0  0  0  0  0  0  0  0  0  0  0  0
   44.9395   34.9601   55.9222 O   0  5  0  0  0  0  0  0  0  0  0  0
   45.7328   32.7300   54.7384 O   0  0  0  0  0  0  0  0  0  0  0  0
   50.7244   35.7927   52.8661 C   0  0  2  0  0  0  0  0  0  0  0  0
   50.8046   37.1294   53.4112 O   0  0  0  0  0  0  0  0  0  0  0  0
   50.6496   35.8280   51.3120 C   0  0  2  0  0  0  0  0  0  0  0  0
   51.8342   36.5240   50.7768 N   0  0  0  0  0  0  0  0  0  0  0  0
   49.3635   36.5747   50.8951 C   0  0  1  0  0  0  0  0  0  0  0  0
   49.2641   36.6172   49.4616 O   0  0  0  0  0  0  0  0  0  0  0  0
   48.1650   35.8012   51.4829 C   0  0  2  0  0  0  0  0  0  0  0  0
   46.9470   36.4737   51.1204 O   0  0  0  0  0  0  0  0  0  0  0  0
   48.3140   35.7763   53.0353 C   0  0  2  0  0  0  0  0  0  0  0  0
   49.5540   35.1115   53.4206 O   0  0  0  0  0  0  0  0  0  0  0  0
   47.1570   35.0006   53.6858 C   0  0  0  0  0  0  0  0  0  0  0  0
   47.4317   34.7462   55.0747 O   0  0  0  0  0  0  0  0  0  0  0  0
  1  2  1  1  0  0  0
  1  3  1  0  0  0  0
  1  4  2  0  0  0  0
  1 16  1  0  0  0  0
  5  6  1  1  0  0  0
  5  7  1  0  0  0  0
  5 14  1  0  0  0  0
  7  8  1  6  0  0  0
  7  9  1  0  0  0  0
  9 10  1  6  0  0  0
  9 11  1  0  0  0  0
 11 12  1  1  0  0  0
 11 13  1  0  0  0  0
 13 14  1  0  0  0  0
 13 15  1  1  0  0  0
 15 16  1  0  0  0  0
M  CHG  1   3  -1
M  END
>  <CHROM.1>
168.36943172,179.30826909,166.01997224,48.14008298,35.27477797,53.36015506
-2.24539522,-0.19488442,-1.22516701

>  <Name>
ligand

>  <RI>
0

>  <Rbt.Current_Directory>
/home/itssahil/PROJECTS/Mol_Feturizer/New_Systems/rnas/3B4A

>  <Rbt.Executable>
rbdock ($Id: //depot/dev/client3/rdock/2013.1/src/exe/rbdock.cxx#4 $)

>  <Rbt.Library>
libRbt.so (2013.1, Build901 2013/11/27)

>  <Rbt.Parameter_File>
/export/apps/rDock/src/rDock_2013.1_src/data/scripts/dock_solv.prm

>  <Rbt.Receptor>
prm/pocket_docking_4.prm

>  <SCORE>
-6.12036

>  <SCORE.INTER>
-5.2065

>  <SCORE.INTER.CONST>
1

>  <SCORE.INTER.POLAR>
0

>  <SCORE.INTER.ROT>
3

>  <SCORE.INTER.SOLV>
13.7904

>  <SCORE.INTER.VDW>
-13.6678

>  <SCORE.INTER.norm>
-0.325406

>  <SCORE.INTRA>
-0.913857

>  <SCORE.INTRA.DIHEDRAL>
-1.27733

>  <SCORE.INTRA.DIHEDRAL.0>
2.05999

>  <SCORE.INTRA.POLAR>
0

>  <SCORE.INTRA.POLAR.0>
0

>  <SCORE.INTRA.REPUL>
0

>  <SCORE.INTRA.REPUL.0>
0

>  <SCORE.INTRA.SOLV>
-0.387223

>  <SCORE.INTRA.SOLV.lig_0>
-58.7001

>  <SCORE.INTRA.VDW>
-0.0815811

>  <SCORE.INTRA.VDW.0>
-0.401036

>  <SCORE.INTRA.norm>
-0.0571161

>  <SCORE.RESTR>
0

>  <SCORE.RESTR.CAVITY>
0

>  <SCORE.RESTR.norm>
0

>  <SCORE.SYSTEM>
0

>  <SCORE.SYSTEM.CONST>
0

>  <SCORE.SYSTEM.DIHEDRAL>
0

>  <SCORE.SYSTEM.SOLV>
0

>  <SCORE.SYSTEM.norm>
0

>  <SCORE.heavy>
16

>  <SCORE.norm>
-0.382523

>  <RMSD>
5.552

$$$$
ligand
 OpenBabel11021811463D
libRbt.so/2013.1/901 2013/11/27
 16 16  0  0  0  0  0  0  0  0999 V2000
   44.2871   39.7504   54.3036 P   0  0  2  0  0  0  0  0  0  0  0  0
   43.7052   40.4938   55.4487 O   0  0  0  0  0  0  0  0  0  0  0  0
   45.5975   40.5288   53.7763 O   0  5  0  0  0  0  0  0  0  0  0  0
   43.1833   39.6626   53.1240 O   0  0  0  0  0  0  0  0  0  0  0  0
   45.1569   34.1340   55.2624 C   0  0  2  0  0  0  0  0  0  0  0  0
   46.1922   34.3290   56.2525 O   0  0  0  0  0  0  0  0  0  0  0  0
   45.6739   33.2662   54.0785 C   0  0  2  0  0  0  0  0  0  0  0  0
   46.1401   31.9636   54.5885 N   0  0  0  0  0  0  0  0  0  0  0  0
   46.8375   34.0120   53.3892 C   0  0  1  0  0  0  0  0  0  0  0  0
   47.3319   33.2354   52.2851 O   0  0  0  0  0  0  0  0  0  0  0  0
   46.2887   35.3609   52.8796 C   0  0  2  0  0  0  0  0  0  0  0  0
   47.3494   36.0882   52.2368 O   0  0  0  0  0  0  0  0  0  0  0  0
   45.7610   36.1677   54.1058 C   0  0  2  0  0  0  0  0  0  0  0  0
   44.6945   35.4360   54.7803 O   0  0  0  0  0  0  0  0  0  0  0  0
   45.1800   37.5208   53.6640 C   0  0  0  0  0  0  0  0  0  0  0  0
   44.7016   38.2644   54.7987 O   0  0  0  0  0  0  0  0  0  0  0  0
  1  2  1  1  0  0  0
  1  3  1  0  0  0  0
  1  4  2  0  0  0  0
  1 16  1  0  0  0  0
  5  6  1  1  0  0  0
  5  7  1  0  0  0  0
  5 14  1  0  0  0  0
  7  8  1  1  0  0  0
  7  9  1  0  0  0  0
  9 10  1  6  0  0  0
  9 11  1  0  0  0  0
 11 12  1  1  0  0  0
 11 13  1  0  0  0  0
 13 14  1  0  0  0  0
 13 15  1  6  0  0  0
 15 16  1  0  0  0  0
M  CHG  1   3  -1
M  END
>  <CHROM.1>
-179.67460067,172.50356185,176.15080527,45.40429733,36.59367460,54.08118330
2.16204503,0.96571113,-0.45422172

>  <Name>
ligand

>  <RI>
0

>  <Rbt.Current_Directory>
/home/itssahil/PROJECTS/Mol_Feturizer/New_Systems/rnas/3B4A

>  <Rbt.Executable>
rbdock ($Id: //depot/dev/client3/rdock/2013.1/src/exe/rbdock.cxx#4 $)

>  <Rbt.Library>
libRbt.so (2013.1, Build901 2013/11/27)

>  <Rbt.Parameter_File>
/export/apps/rDock/src/rDock_2013.1_src/data/scripts/dock_solv.prm

>  <Rbt.Receptor>
prm/pocket_docking_7.prm

>  <SCORE>
-6.4224

>  <SCORE.INTER>
-5.08318

>  <SCORE.INTER.CONST>
1

>  <SCORE.INTER.POLAR>
0

>  <SCORE.INTER.ROT>
3

>  <SCORE.INTER.SOLV>
12.3799

>  <SCORE.INTER.VDW>
-13.1154

>  <SCORE.INTER.norm>
-0.317699

>  <SCORE.INTRA>
-1.33922

>  <SCORE.INTRA.DIHEDRAL>
-1.75913

>  <SCORE.INTRA.DIHEDRAL.0>
2.05999

>  <SCORE.INTRA.POLAR>
0

>  <SCORE.INTRA.POLAR.0>
0

>  <SCORE.INTRA.REPUL>
0

>  <SCORE.INTRA.REPUL.0>
0

>  <SCORE.INTRA.SOLV>
-0.428256

>  <SCORE.INTRA.SOLV.lig_0>
-58.7001

>  <SCORE.INTRA.VDW>
-0.245524

>  <SCORE.INTRA.VDW.0>
-0.401036

>  <SCORE.INTRA.norm>
-0.083701

>  <SCORE.RESTR>
0

>  <SCORE.RESTR.CAVITY>
0

>  <SCORE.RESTR.norm>
0

>  <SCORE.SYSTEM>
0

>  <SCORE.SYSTEM.CONST>
0

>  <SCORE.SYSTEM.DIHEDRAL>
0

>  <SCORE.SYSTEM.SOLV>
0

>  <SCORE.SYSTEM.norm>
0

>  <SCORE.heavy>
16

>  <SCORE.norm>
-0.4014

>  <RMSD>
5.552

$$$$
ligand
 OpenBabel11021811463D
libRbt.so/2013.1/901 2013/11/27
 16 16  0  0  0  0  0  0  0  0999 V2000
   46.6423   33.6587   55.2442 P   0  0  2  0  0  0  0  0  0  0  0  0
   46.8401   33.5751   56.7127 O   0  0  0  0  0  0  0  0  0  0  0  0
   45.6123   32.5072   54.7812 O   0  5  0  0  0  0  0  0  0  0  0  0
   48.0704   33.4506   54.5131 O   0  0  0  0  0  0  0  0  0  0  0  0
   43.4482   38.1679   53.7109 C   0  0  2  0  0  0  0  0  0  0  0  0
   42.7873   38.0855   52.4277 O   0  0  0  0  0  0  0  0  0  0  0  0
   44.5525   39.2644   53.7000 C   0  0  2  0  0  0  0  0  0  0  0  0
   43.9520   40.5659   53.3540 N   0  0  0  0  0  0  0  0  0  0  0  0
   45.6217   38.8798   52.6538 C   0  0  1  0  0  0  0  0  0  0  0  0
   46.6602   39.8734   52.6261 O   0  0  0  0  0  0  0  0  0  0  0  0
   46.2098   37.5154   53.0694 C   0  0  2  0  0  0  0  0  0  0  0  0
   47.2064   37.1207   52.1112 O   0  0  0  0  0  0  0  0  0  0  0  0
   45.0519   36.4706   53.0899 C   0  0  2  0  0  0  0  0  0  0  0  0
   44.0229   36.8645   54.0458 O   0  0  0  0  0  0  0  0  0  0  0  0
   45.5683   35.0868   53.5168 C   0  0  0  0  0  0  0  0  0  0  0  0
   46.0293   35.1133   54.8791 O   0  0  0  0  0  0  0  0  0  0  0  0
  1  2  1  1  0  0  0
  1  3  1  0  0  0  0
  1  4  2  0  0  0  0
  1 16  1  0  0  0  0
  5  6  1  6  0  0  0
  5  7  1  0  0  0  0
  5 14  1  0  0  0  0
  7  8  1  6  0  0  0
  7  9  1  0  0  0  0
  9 10  1  1  0  0  0
  9 11  1  0  0  0  0
 11 12  1  6  0  0  0
 11 13  1  0  0  0  0
 13 14  1  0  0  0  0
 13 15  1  1  0  0  0
 15 16  1  0  0  0  0
M  CHG  1   3  -1
M  END
>  <CHROM.1>
65.35351523,-176.61498363,-167.52073289,45.62798202,36.35756151,53.90124145
1.24108018,-0.16338250,2.70616595

>  <Name>
ligand

>  <RI>
0

>  <Rbt.Current_Directory>
/home/itssahil/PROJECTS/Mol_Feturizer/New_Systems/rnas/3B4A

>  <Rbt.Executable>
rbdock ($Id: //depot/dev/client3/rdock/2013.1/src/exe/rbdock.cxx#4 $)

>  <Rbt.Library>
libRbt.so (2013.1, Build901 2013/11/27)

>  <Rbt.Parameter_File>
/export/apps/rDock/src/rDock_2013.1_src/data/scripts/dock_solv.prm

>  <Rbt.Receptor>
prm/pocket_docking_7.prm

>  <SCORE>
-8.99523

>  <SCORE.INTER>
-7.78441

>  <SCORE.INTER.CONST>
1

>  <SCORE.INTER.POLAR>
0

>  <SCORE.INTER.ROT>
3

>  <SCORE.INTER.SOLV>
11.3916

>  <SCORE.INTER.VDW>
-14.5868

>  <SCORE.INTER.norm>
-0.486526

>  <SCORE.INTRA>
-1.21082

>  <SCORE.INTRA.DIHEDRAL>
-1.64917

>  <SCORE.INTRA.DIHEDRAL.0>
2.05999

>  <SCORE.INTRA.POLAR>
0

>  <SCORE.INTRA.POLAR.0>
0

>  <SCORE.INTRA.REPUL>
0

>  <SCORE.INTRA.REPUL.0>
0

>  <SCORE.INTRA.SOLV>
-0.207539

>  <SCORE.INTRA.SOLV.lig_0>
-58.7001

>  <SCORE.INTRA.VDW>
-0.282467

>  <SCORE.INTRA.VDW.0>
-0.401036

>  <SCORE.INTRA.norm>
-0.0756763

>  <SCORE.RESTR>
0

>  <SCORE.RESTR.CAVITY>
0

>  <SCORE.RESTR.norm>
0

>  <SCORE.SYSTEM>
0

>  <SCORE.SYSTEM.CONST>
0

>  <SCORE.SYSTEM.DIHEDRAL>
0

>  <SCORE.SYSTEM.SOLV>
0

>  <SCORE.SYSTEM.norm>
0

>  <SCORE.heavy>
16

>  <SCORE.norm>
-0.562202

>  <RMSD>
5.555

$$$$
ligand
 OpenBabel11021811463D
libRbt.so/2013.1/901 2013/11/27
 16 16  0  0  0  0  0  0  0  0999 V2000
   46.5234   33.5224   55.5838 P   0  0  2  0  0  0  0  0  0  0  0  0
   46.6263   33.4132   57.0603 O   0  0  0  0  0  0  0  0  0  0  0  0
   45.0466   34.0385   55.1916 O   0  5  0  0  0  0  0  0  0  0  0  0
   46.7915   32.0656   54.9333 O   0  0  0  0  0  0  0  0  0  0  0  0
   51.0726   35.8564   53.0741 C   0  0  2  0  0  0  0  0  0  0  0  0
   50.9470   37.1849   53.6306 O   0  0  0  0  0  0  0  0  0  0  0  0
   51.1086   35.9045   51.5190 C   0  0  2  0  0  0  0  0  0  0  0  0
   52.2345   36.7482   51.0775 N   0  0  0  0  0  0  0  0  0  0  0  0
   49.7745   36.4938   51.0109 C   0  0  1  0  0  0  0  0  0  0  0  0
   49.7764   36.5443   49.5742 O   0  0  0  0  0  0  0  0  0  0  0  0
   48.6405   35.5708   51.5034 C   0  0  2  0  0  0  0  0  0  0  0  0
   47.3789   36.0940   51.0542 O   0  0  0  0  0  0  0  0  0  0  0  0
   48.6769   35.5421   53.0624 C   0  0  2  0  0  0  0  0  0  0  0  0
   49.9576   35.0289   53.5360 O   0  0  0  0  0  0  0  0  0  0  0  0
   47.5796   34.6212   53.6205 C   0  0  0  0  0  0  0  0  0  0  0  0
   47.6268   34.5857   55.0578 O   0  0  0  0  0  0  0  0  0  0  0  0
  1  2  1  1  0  0  0
  1  3  1  0  0  0  0
  1  4  2  0  0  0  0
  1 16  1  0  0  0  0
  5  6  1  1  0  0  0
  5  7  1  0  0  0  0
  5 14  1  0  0  0  0
  7  8  1  1  0  0  0
  7  9  1  0  0  0  0
  9 10  1  6  0  0  0
  9 11  1  0  0  0  0
 11 12  1  1  0  0  0
 11 13  1  0  0  0  0
 13 14  1  0  0  0  0
 13 15  1  6  0  0  0
 15 16  1  0  0  0  0
M  CHG  1   3  -1
M  END
>  <CHROM.1>
179.33265527,-175.97815676,176.31459385,48.51892115,35.05374594,53.37893527
-2.28302294,-0.32245104,-1.23366726

>  <Name>
ligand

>  <RI>
0

>  <Rbt.Current_Directory>
/home/itssahil/PROJECTS/Mol_Feturizer/New_Systems/rnas/3B4A

>  <Rbt.Executable>
rbdock ($Id: //depot/dev/client3/rdock/2013.1/src/exe/rbdock.cxx#4 $)

>  <Rbt.Library>
libRbt.so (2013.1, Build901 2013/11/27)

>  <Rbt.Parameter_File>
/export/apps/rDock/src/rDock_2013.1_src/data/scripts/dock_solv.prm

>  <Rbt.Receptor>
prm/pocket_docking_4.prm

>  <SCORE>
-6.11905

>  <SCORE.INTER>
-4.67967

>  <SCORE.INTER.CONST>
1

>  <SCORE.INTER.POLAR>
0

>  <SCORE.INTER.ROT>
3

>  <SCORE.INTER.SOLV>
12.0973

>  <SCORE.INTER.VDW>
-12.7522

>  <SCORE.INTER.norm>
-0.292479

>  <SCORE.INTRA>
-1.43938

>  <SCORE.INTRA.DIHEDRAL>
-1.95446

>  <SCORE.INTRA.DIHEDRAL.0>
2.05999

>  <SCORE.INTRA.POLAR>
0

>  <SCORE.INTRA.POLAR.0>
0

>  <SCORE.INTRA.REPUL>
0

>  <SCORE.INTRA.REPUL.0>
0

>  <SCORE.INTRA.SOLV>
-0.388158

>  <SCORE.INTRA.SOLV.lig_0>
-58.7001

>  <SCORE.INTRA.VDW>
-0.268069

>  <SCORE.INTRA.VDW.0>
-0.401036

>  <SCORE.INTRA.norm>
-0.089961

>  <SCORE.RESTR>
0

>  <SCORE.RESTR.CAVITY>
0

>  <SCORE.RESTR.norm>
0

>  <SCORE.SYSTEM>
0

>  <SCORE.SYSTEM.CONST>
0

>  <SCORE.SYSTEM.DIHEDRAL>
0

>  <SCORE.SYSTEM.SOLV>
0

>  <SCORE.SYSTEM.norm>
0

>  <SCORE.heavy>
16

>  <SCORE.norm>
-0.382441

>  <RMSD>
5.557

$$$$
ligand
 OpenBabel11021811463D
libRbt.so/2013.1/901 2013/11/27
 16 16  0  0  0  0  0  0  0  0999 V2000
   46.6090   33.5016   55.5643 P   0  0  2  0  0  0  0  0  0  0  0  0
   46.6909   33.4266   57.0442 O   0  0  0  0  0  0  0  0  0  0  0  0
   45.1112   33.9195   55.1363 O   0  5  0  0  0  0  0  0  0  0  0  0
   46.9769   32.0519   54.9476 O   0  0  0  0  0  0  0  0  0  0  0  0
   51.0032   36.1004   53.0643 C   0  0  2  0  0  0  0  0  0  0  0  0
   50.7977   37.4265   53.6025 O   0  0  0  0  0  0  0  0  0  0  0  0
   51.0490   36.1308   51.5090 C   0  0  2  0  0  0  0  0  0  0  0  0
   52.1286   37.0316   51.0648 N   0  0  0  0  0  0  0  0  0  0  0  0
   49.6876   36.6367   50.9835 C   0  0  1  0  0  0  0  0  0  0  0  0
   49.6982   36.6690   49.5463 O   0  0  0  0  0  0  0  0  0  0  0  0
   48.6040   35.6568   51.4797 C   0  0  2  0  0  0  0  0  0  0  0  0
   47.3184   36.1016   51.0144 O   0  0  0  0  0  0  0  0  0  0  0  0
   48.6293   35.6500   53.0392 C   0  0  2  0  0  0  0  0  0  0  0  0
   49.9333   35.2166   53.5288 O   0  0  0  0  0  0  0  0  0  0  0  0
   47.5817   34.6752   53.6012 C   0  0  0  0  0  0  0  0  0  0  0  0
   47.6557   34.6201   55.0367 O   0  0  0  0  0  0  0  0  0  0  0  0
  1  2  1  1  0  0  0
  1  3  1  0  0  0  0
  1  4  2  0  0  0  0
  1 16  1  0  0  0  0
  5  6  1  6  0  0  0
  5  7  1  0  0  0  0
  5 14  1  0  0  0  0
  7  8  1  1  0  0  0
  7  9  1  0  0  0  0
  9 10  1  6  0  0  0
  9 11  1  0  0  0  0
 11 12  1  1  0  0  0
 11 13  1  0  0  0  0
 13 14  1  0  0  0  0
 13 15  1  1  0  0  0
 15 16  1  0  0  0  0
M  CHG  1   3  -1
M  END
>  <CHROM.1>
177.00862224,-175.89022183,179.31576404,48.51016359,35.14187978,53.35840370
-2.26475034,-0.38253220,-1.23438255

>  <Name>
ligand

>  <RI>
0

>  <Rbt.Current_Directory>
/home/itssahil/PROJECTS/Mol_Feturizer/New_Systems/rnas/3B4A

>  <Rbt.Executable>
rbdock ($Id: //depot/dev/client3/rdock/2013.1/src/exe/rbdock.cxx#4 $)

>  <Rbt.Library>
libRbt.so (2013.1, Build901 2013/11/27)

>  <Rbt.Parameter_File>
/export/apps/rDock/src/rDock_2013.1_src/data/scripts/dock_solv.prm

>  <Rbt.Receptor>
prm/pocket_docking_4.prm

>  <SCORE>
-6.20377

>  <SCORE.INTER>
-4.78018

>  <SCORE.INTER.CONST>
1

>  <SCORE.INTER.POLAR>
0

>  <SCORE.INTER.ROT>
3

>  <SCORE.INTER.SOLV>
12.0424

>  <SCORE.INTER.VDW>
-12.8009

>  <SCORE.INTER.norm>
-0.298761

>  <SCORE.INTRA>
-1.42359

>  <SCORE.INTRA.DIHEDRAL>
-1.94236

>  <SCORE.INTRA.DIHEDRAL.0>
2.05999

>  <SCORE.INTRA.POLAR>
0

>  <SCORE.INTRA.POLAR.0>
0

>  <SCORE.INTRA.REPUL>
0

>  <SCORE.INTRA.REPUL.0>
0

>  <SCORE.INTRA.SOLV>
-0.378539

>  <SCORE.INTRA.SOLV.lig_0>
-58.7001

>  <SCORE.INTRA.VDW>
-0.263142

>  <SCORE.INTRA.VDW.0>
-0.401036

>  <SCORE.INTRA.norm>
-0.0889745

>  <SCORE.RESTR>
0

>  <SCORE.RESTR.CAVITY>
0

>  <SCORE.RESTR.norm>
0

>  <SCORE.SYSTEM>
0

>  <SCORE.SYSTEM.CONST>
0

>  <SCORE.SYSTEM.DIHEDRAL>
0

>  <SCORE.SYSTEM.SOLV>
0

>  <SCORE.SYSTEM.norm>
0

>  <SCORE.heavy>
16

>  <SCORE.norm>
-0.387736

>  <RMSD>
5.561

$$$$
ligand
 OpenBabel11021811463D
libRbt.so/2013.1/901 2013/11/27
 16 16  0  0  0  0  0  0  0  0999 V2000
   46.6493   33.6718   55.4258 P   0  0  2  0  0  0  0  0  0  0  0  0
   46.7342   33.5289   56.9006 O   0  0  0  0  0  0  0  0  0  0  0  0
   45.7739   32.4579   54.8247 O   0  5  0  0  0  0  0  0  0  0  0  0
   48.1453   33.6328   54.8113 O   0  0  0  0  0  0  0  0  0  0  0  0
   43.4117   38.1265   53.7638 C   0  0  2  0  0  0  0  0  0  0  0  0
   42.8784   38.0760   52.4210 O   0  0  0  0  0  0  0  0  0  0  0  0
   44.4871   39.2438   53.8949 C   0  0  2  0  0  0  0  0  0  0  0  0
   43.8932   40.5447   53.5355 N   0  0  0  0  0  0  0  0  0  0  0  0
   45.6596   38.9164   52.9444 C   0  0  1  0  0  0  0  0  0  0  0  0
   46.6734   39.9302   53.0492 O   0  0  0  0  0  0  0  0  0  0  0  0
   46.2359   37.5499   53.3699 C   0  0  2  0  0  0  0  0  0  0  0  0
   47.3281   37.2080   52.4995 O   0  0  0  0  0  0  0  0  0  0  0  0
   45.1052   36.4829   53.2448 C   0  0  2  0  0  0  0  0  0  0  0  0
   43.9810   36.8235   54.1097 O   0  0  0  0  0  0  0  0  0  0  0  0
   45.6095   35.0954   53.6739 C   0  0  0  0  0  0  0  0  0  0  0  0
   45.9330   35.0822   55.0755 O   0  0  0  0  0  0  0  0  0  0  0  0
  1  2  1  1  0  0  0
  1  3  1  0  0  0  0
  1  4  2  0  0  0  0
  1 16  1  0  0  0  0
  5  6  1  6  0  0  0
  5  7  1  0  0  0  0
  5 14  1  0  0  0  0
  7  8  1  6  0  0  0
  7  9  1  0  0  0  0
  9 10  1  1  0  0  0
  9 11  1  0  0  0  0
 11 12  1  6  0  0  0
 11 13  1  0  0  0  0
 13 14  1  0  0  0  0
 13 15  1  1  0  0  0
 15 16  1  0  0  0  0
M  CHG  1   3  -1
M  END
>  <CHROM.1>
65.56360213,-172.16902240,-168.49704622,45.64252363,36.36904290,54.09489816
1.23945809,-0.05660450,2.74566165

>  <Name>
ligand

>  <RI>
0

>  <Rbt.Current_Directory>
/home/itssahil/PROJECTS/Mol_Feturizer/New_Systems/rnas/3B4A

>  <Rbt.Executable>
rbdock ($Id: //depot/dev/client3/rdock/2013.1/src/exe/rbdock.cxx#4 $)

>  <Rbt.Library>
libRbt.so (2013.1, Build901 2013/11/27)

>  <Rbt.Parameter_File>
/export/apps/rDock/src/rDock_2013.1_src/data/scripts/dock_solv.prm

>  <Rbt.Receptor>
prm/pocket_docking_8.prm

>  <SCORE>
-9.06538

>  <SCORE.INTER>
-7.98602

>  <SCORE.INTER.CONST>
1

>  <SCORE.INTER.POLAR>
0

>  <SCORE.INTER.ROT>
3

>  <SCORE.INTER.SOLV>
13.7089

>  <SCORE.INTER.VDW>
-15.4936

>  <SCORE.INTER.norm>
-0.499126

>  <SCORE.INTRA>
-1.07936

>  <SCORE.INTRA.DIHEDRAL>
-1.43496

>  <SCORE.INTRA.DIHEDRAL.0>
2.05999

>  <SCORE.INTRA.POLAR>
0

>  <SCORE.INTRA.POLAR.0>
0

>  <SCORE.INTRA.REPUL>
0

>  <SCORE.INTRA.REPUL.0>
0

>  <SCORE.INTRA.SOLV>
-0.0967642

>  <SCORE.INTRA.SOLV.lig_0>
-58.7001

>  <SCORE.INTRA.VDW>
-0.313502

>  <SCORE.INTRA.VDW.0>
-0.401036

>  <SCORE.INTRA.norm>
-0.0674602

>  <SCORE.RESTR>
0

>  <SCORE.RESTR.CAVITY>
0

>  <SCORE.RESTR.norm>
0

>  <SCORE.SYSTEM>
0

>  <SCORE.SYSTEM.CONST>
0

>  <SCORE.SYSTEM.DIHEDRAL>
0

>  <SCORE.SYSTEM.SOLV>
0

>  <SCORE.SYSTEM.norm>
0

>  <SCORE.heavy>
16

>  <SCORE.norm>
-0.566586

>  <RMSD>
5.564

$$$$
ligand
 OpenBabel11021811463D
libRbt.so/2013.1/901 2013/11/27
 16 16  0  0  0  0  0  0  0  0999 V2000
   46.1974   34.0482   55.6415 P   0  0  2  0  0  0  0  0  0  0  0  0
   46.4899   33.4423   56.9643 O   0  0  0  0  0  0  0  0  0  0  0  0
   45.2278   35.3210   55.8436 O   0  5  0  0  0  0  0  0  0  0  0  0
   45.4718   32.9419   54.7103 O   0  0  0  0  0  0  0  0  0  0  0  0
   51.9823   32.8588   53.7372 C   0  0  2  0  0  0  0  0  0  0  0  0
   52.6258   33.7057   54.7163 O   0  0  0  0  0  0  0  0  0  0  0  0
   51.9789   33.5318   52.3339 C   0  0  2  0  0  0  0  0  0  0  0  0
   53.3649   33.8209   51.9222 N   0  0  0  0  0  0  0  0  0  0  0  0
   51.1665   34.8429   52.4157 C   0  0  1  0  0  0  0  0  0  0  0  0
   51.1405   35.4845   51.1296 O   0  0  0  0  0  0  0  0  0  0  0  0
   49.7322   34.4753   52.8494 C   0  0  2  0  0  0  0  0  0  0  0  0
   48.9466   35.6758   52.9438 O   0  0  0  0  0  0  0  0  0  0  0  0
   49.8069   33.7805   54.2439 C   0  0  2  0  0  0  0  0  0  0  0  0
   50.6149   32.5683   54.1700 O   0  0  0  0  0  0  0  0  0  0  0  0
   48.4069   33.3692   54.7282 C   0  0  0  0  0  0  0  0  0  0  0  0
   47.5889   34.5286   54.9650 O   0  0  0  0  0  0  0  0  0  0  0  0
  1  2  1  1  0  0  0
  1  3  1  0  0  0  0
  1  4  2  0  0  0  0
  1 16  1  0  0  0  0
  5  6  1  1  0  0  0
  5  7  1  0  0  0  0
  5 14  1  0  0  0  0
  7  8  1  1  0  0  0
  7  9  1  0  0  0  0
  9 10  1  6  0  0  0
  9 11  1  0  0  0  0
 11 12  1  1  0  0  0
 11 13  1  0  0  0  0
 13 14  1  0  0  0  0
 13 15  1  6  0  0  0
 15 16  1  0  0  0  0
M  CHG  1   3  -1
M  END
>  <CHROM.1>
-65.26132399,-173.17296246,63.69468899,49.11726068,34.04036333,54.11700145
-2.78465093,0.31355621,-0.88779194

>  <Name>
ligand

>  <RI>
0

>  <Rbt.Current_Directory>
/home/itssahil/PROJECTS/Mol_Feturizer/New_Systems/rnas/3B4A

>  <Rbt.Executable>
rbdock ($Id: //depot/dev/client3/rdock/2013.1/src/exe/rbdock.cxx#4 $)

>  <Rbt.Library>
libRbt.so (2013.1, Build901 2013/11/27)

>  <Rbt.Parameter_File>
/export/apps/rDock/src/rDock_2013.1_src/data/scripts/dock_solv.prm

>  <Rbt.Receptor>
prm/pocket_docking_3.prm

>  <SCORE>
-6.1843

>  <SCORE.INTER>
-4.89784

>  <SCORE.INTER.CONST>
1

>  <SCORE.INTER.POLAR>
0

>  <SCORE.INTER.ROT>
3

>  <SCORE.INTER.SOLV>
15.1312

>  <SCORE.INTER.VDW>
-13.909

>  <SCORE.INTER.norm>
-0.306115

>  <SCORE.INTRA>
-1.28646

>  <SCORE.INTRA.DIHEDRAL>
-1.70957

>  <SCORE.INTRA.DIHEDRAL.0>
2.05999

>  <SCORE.INTRA.POLAR>
0

>  <SCORE.INTRA.POLAR.0>
0

>  <SCORE.INTRA.REPUL>
0

>  <SCORE.INTRA.REPUL.0>
0

>  <SCORE.INTRA.SOLV>
-0.732696

>  <SCORE.INTRA.SOLV.lig_0>
-58.7001

>  <SCORE.INTRA.VDW>
-0.0653259

>  <SCORE.INTRA.VDW.0>
-0.401036

>  <SCORE.INTRA.norm>
-0.0804036

>  <SCORE.RESTR>
0

>  <SCORE.RESTR.CAVITY>
0

>  <SCORE.RESTR.norm>
0

>  <SCORE.SYSTEM>
0

>  <SCORE.SYSTEM.CONST>
0

>  <SCORE.SYSTEM.DIHEDRAL>
0

>  <SCORE.SYSTEM.SOLV>
0

>  <SCORE.SYSTEM.norm>
0

>  <SCORE.heavy>
16

>  <SCORE.norm>
-0.386519

>  <RMSD>
5.573

$$$$
ligand
 OpenBabel11021811463D
libRbt.so/2013.1/901 2013/11/27
 16 16  0  0  0  0  0  0  0  0999 V2000
   46.4368   33.3132   55.1283 P   0  0  2  0  0  0  0  0  0  0  0  0
   46.6391   32.5851   56.4056 O   0  0  0  0  0  0  0  0  0  0  0  0
   46.4569   34.9005   55.4134 O   0  5  0  0  0  0  0  0  0  0  0  0
   45.0088   32.8812   54.5025 O   0  0  0  0  0  0  0  0  0  0  0  0
   50.9894   32.8690   51.7245 C   0  0  2  0  0  0  0  0  0  0  0  0
   51.2380   33.9779   50.8307 O   0  0  0  0  0  0  0  0  0  0  0  0
   50.6230   31.5827   50.9287 C   0  0  2  0  0  0  0  0  0  0  0  0
   51.7177   31.2494   49.9988 N   0  0  0  0  0  0  0  0  0  0  0  0
   49.3200   31.8422   50.1412 C   0  0  1  0  0  0  0  0  0  0  0  0
   48.9527   30.6664   49.4001 O   0  0  0  0  0  0  0  0  0  0  0  0
   48.2177   32.1844   51.1651 C   0  0  2  0  0  0  0  0  0  0  0  0
   46.9881   32.4404   50.4653 O   0  0  0  0  0  0  0  0  0  0  0  0
   48.6572   33.4604   51.9472 C   0  0  2  0  0  0  0  0  0  0  0  0
   49.9131   33.2234   52.6504 O   0  0  0  0  0  0  0  0  0  0  0  0
   47.6074   33.8469   53.0018 C   0  0  0  0  0  0  0  0  0  0  0  0
   47.6371   32.9300   54.1098 O   0  0  0  0  0  0  0  0  0  0  0  0
  1  2  1  1  0  0  0
  1  3  1  0  0  0  0
  1  4  2  0  0  0  0
  1 16  1  0  0  0  0
  5  6  1  6  0  0  0
  5  7  1  0  0  0  0
  5 14  1  0  0  0  0
  7  8  1  6  0  0  0
  7  9  1  0  0  0  0
  9 10  1  1  0  0  0
  9 11  1  0  0  0  0
 11 12  1  6  0  0  0
 11 13  1  0  0  0  0
 13 14  1  0  0  0  0
 13 15  1  1  0  0  0
 15 16  1  0  0  0  0
M  CHG  1   3  -1
M  END
>  <CHROM.1>
72.97077991,-175.51726073,-167.42212212,48.32182578,32.80517011,52.61113616
-2.27159652,-0.25444999,-2.06268307

>  <Name>
ligand

>  <RI>
0

>  <Rbt.Current_Directory>
/home/itssahil/PROJECTS/Mol_Feturizer/New_Systems/rnas/3B4A

>  <Rbt.Executable>
rbdock ($Id: //depot/dev/client3/rdock/2013.1/src/exe/rbdock.cxx#4 $)

>  <Rbt.Library>
libRbt.so (2013.1, Build901 2013/11/27)

>  <Rbt.Parameter_File>
/export/apps/rDock/src/rDock_2013.1_src/data/scripts/dock_solv.prm

>  <Rbt.Receptor>
prm/pocket_docking_5.prm

>  <SCORE>
-4.83823

>  <SCORE.INTER>
-3.92444

>  <SCORE.INTER.CONST>
1

>  <SCORE.INTER.POLAR>
0

>  <SCORE.INTER.ROT>
3

>  <SCORE.INTER.SOLV>
13.4247

>  <SCORE.INTER.VDW>
-12.6912

>  <SCORE.INTER.norm>
-0.245278

>  <SCORE.INTRA>
-0.913794

>  <SCORE.INTRA.DIHEDRAL>
-1.11869

>  <SCORE.INTRA.DIHEDRAL.0>
2.05999

>  <SCORE.INTRA.POLAR>
0

>  <SCORE.INTRA.POLAR.0>
0

>  <SCORE.INTRA.REPUL>
0

>  <SCORE.INTRA.REPUL.0>
0

>  <SCORE.INTRA.SOLV>
-0.20348

>  <SCORE.INTRA.SOLV.lig_0>
-58.7001

>  <SCORE.INTRA.VDW>
-0.252707

>  <SCORE.INTRA.VDW.0>
-0.401036

>  <SCORE.INTRA.norm>
-0.0571121

>  <SCORE.RESTR>
0

>  <SCORE.RESTR.CAVITY>
0

>  <SCORE.RESTR.norm>
0

>  <SCORE.SYSTEM>
0

>  <SCORE.SYSTEM.CONST>
0

>  <SCORE.SYSTEM.DIHEDRAL>
0

>  <SCORE.SYSTEM.SOLV>
0

>  <SCORE.SYSTEM.norm>
0

>  <SCORE.heavy>
16

>  <SCORE.norm>
-0.30239

>  <RMSD>
5.574

$$$$
ligand
 OpenBabel11021811463D
libRbt.so/2013.1/901 2013/11/27
 16 16  0  0  0  0  0  0  0  0999 V2000
   46.1908   34.0285   55.5881 P   0  0  2  0  0  0  0  0  0  0  0  0
   46.4759   33.4346   56.9179 O   0  0  0  0  0  0  0  0  0  0  0  0
   45.1819   35.2737   55.7683 O   0  5  0  0  0  0  0  0  0  0  0  0
   45.5143   32.8996   54.6471 O   0  0  0  0  0  0  0  0  0  0  0  0
   52.0173   33.0023   53.6931 C   0  0  2  0  0  0  0  0  0  0  0  0
   52.6527   33.8732   54.6564 O   0  0  0  0  0  0  0  0  0  0  0  0
   51.9698   33.6668   52.2867 C   0  0  2  0  0  0  0  0  0  0  0  0
   53.3394   33.9938   51.8491 N   0  0  0  0  0  0  0  0  0  0  0  0
   51.1209   34.9541   52.3758 C   0  0  1  0  0  0  0  0  0  0  0  0
   51.0538   35.5872   51.0869 O   0  0  0  0  0  0  0  0  0  0  0  0
   49.7058   34.5473   52.8365 C   0  0  2  0  0  0  0  0  0  0  0  0
   48.8872   35.7249   52.9384 O   0  0  0  0  0  0  0  0  0  0  0  0
   49.8250   33.8631   54.2331 C   0  0  2  0  0  0  0  0  0  0  0  0
   50.6667   32.6745   54.1514 O   0  0  0  0  0  0  0  0  0  0  0  0
   48.4463   33.4139   54.7440 C   0  0  0  0  0  0  0  0  0  0  0  0
   47.5804   34.5465   54.9358 O   0  0  0  0  0  0  0  0  0  0  0  0
  1  2  1  1  0  0  0
  1  3  1  0  0  0  0
  1  4  2  0  0  0  0
  1 16  1  0  0  0  0
  5  6  1  1  0  0  0
  5  7  1  0  0  0  0
  5 14  1  0  0  0  0
  7  8  1  1  0  0  0
  7  9  1  0  0  0  0
  9 10  1  6  0  0  0
  9 11  1  0  0  0  0
 11 12  1  1  0  0  0
 11 13  1  0  0  0  0
 13 14  1  0  0  0  0
 13 15  1  6  0  0  0
 15 16  1  0  0  0  0
M  CHG  1   3  -1
M  END
>  <CHROM.1>
-62.85593164,-175.37748075,62.48716213,49.10986500,34.10012119,54.07765287
-2.76732930,0.29043076,-0.89819733

>  <Name>
ligand

>  <RI>
0

>  <Rbt.Current_Directory>
/home/itssahil/PROJECTS/Mol_Feturizer/New_Systems/rnas/3B4A

>  <Rbt.Executable>
rbdock ($Id: //depot/dev/client3/rdock/2013.1/src/exe/rbdock.cxx#4 $)

>  <Rbt.Library>
libRbt.so (2013.1, Build901 2013/11/27)

>  <Rbt.Parameter_File>
/export/apps/rDock/src/rDock_2013.1_src/data/scripts/dock_solv.prm

>  <Rbt.Receptor>
prm/pocket_docking_4.prm

>  <SCORE>
-6.14294

>  <SCORE.INTER>
-4.82244

>  <SCORE.INTER.CONST>
1

>  <SCORE.INTER.POLAR>
0

>  <SCORE.INTER.ROT>
3

>  <SCORE.INTER.SOLV>
14.5271

>  <SCORE.INTER.VDW>
-13.6573

>  <SCORE.INTER.norm>
-0.301403

>  <SCORE.INTRA>
-1.3205

>  <SCORE.INTRA.DIHEDRAL>
-1.91379

>  <SCORE.INTRA.DIHEDRAL.0>
2.05999

>  <SCORE.INTRA.POLAR>
0

>  <SCORE.INTRA.POLAR.0>
0

>  <SCORE.INTRA.REPUL>
0

>  <SCORE.INTRA.REPUL.0>
0

>  <SCORE.INTRA.SOLV>
-0.698484

>  <SCORE.INTRA.SOLV.lig_0>
-58.7001

>  <SCORE.INTRA.VDW>
-0.0143676

>  <SCORE.INTRA.VDW.0>
-0.401036

>  <SCORE.INTRA.norm>
-0.0825315

>  <SCORE.RESTR>
0

>  <SCORE.RESTR.CAVITY>
0

>  <SCORE.RESTR.norm>
0

>  <SCORE.SYSTEM>
0

>  <SCORE.SYSTEM.CONST>
0

>  <SCORE.SYSTEM.DIHEDRAL>
0

>  <SCORE.SYSTEM.SOLV>
0

>  <SCORE.SYSTEM.norm>
0

>  <SCORE.heavy>
16

>  <SCORE.norm>
-0.383934

>  <RMSD>
5.575

$$$$
ligand
 OpenBabel11021811463D
libRbt.so/2013.1/901 2013/11/27
 16 16  0  0  0  0  0  0  0  0999 V2000
   46.7353   33.3951   55.5104 P   0  0  2  0  0  0  0  0  0  0  0  0
   46.6875   33.4079   56.9937 O   0  0  0  0  0  0  0  0  0  0  0  0
   45.2617   33.6981   54.9294 O   0  5  0  0  0  0  0  0  0  0  0  0
   47.2358   31.9377   55.0175 O   0  0  0  0  0  0  0  0  0  0  0  0
   51.1915   36.0462   53.1141 C   0  0  2  0  0  0  0  0  0  0  0  0
   50.9436   37.3583   53.6682 O   0  0  0  0  0  0  0  0  0  0  0  0
   51.2629   36.1013   51.5604 C   0  0  2  0  0  0  0  0  0  0  0  0
   52.3268   37.0355   51.1484 N   0  0  0  0  0  0  0  0  0  0  0  0
   49.8983   36.5810   51.0189 C   0  0  1  0  0  0  0  0  0  0  0  0
   49.9325   36.6355   49.5828 O   0  0  0  0  0  0  0  0  0  0  0  0
   48.8315   35.5670   51.4817 C   0  0  2  0  0  0  0  0  0  0  0  0
   47.5431   35.9865   51.0009 O   0  0  0  0  0  0  0  0  0  0  0  0
   48.8305   35.5370   53.0411 C   0  0  2  0  0  0  0  0  0  0  0  0
   50.1365   35.1290   53.5469 O   0  0  0  0  0  0  0  0  0  0  0  0
   47.7985   34.5279   53.5704 C   0  0  0  0  0  0  0  0  0  0  0  0
   47.7627   34.5428   55.0084 O   0  0  0  0  0  0  0  0  0  0  0  0
  1  2  1  1  0  0  0
  1  3  1  0  0  0  0
  1  4  2  0  0  0  0
  1 16  1  0  0  0  0
  5  6  1  6  0  0  0
  5  7  1  0  0  0  0
  5 14  1  0  0  0  0
  7  8  1  1  0  0  0
  7  9  1  0  0  0  0
  9 10  1  6  0  0  0
  9 11  1  0  0  0  0
 11 12  1  1  0  0  0
 11 13  1  0  0  0  0
 13 14  1  0  0  0  0
 13 15  1  6  0  0  0
 15 16  1  0  0  0  0
M  CHG  1   3  -1
M  END
>  <CHROM.1>
-177.66538558,-176.23851079,-179.73543482,48.68640086,35.05642472,53.35505024
-2.28790372,-0.40182549,-1.23951694

>  <Name>
ligand

>  <RI>
0

>  <Rbt.Current_Directory>
/home/itssahil/PROJECTS/Mol_Feturizer/New_Systems/rnas/3B4A

>  <Rbt.Executable>
rbdock ($Id: //depot/dev/client3/rdock/2013.1/src/exe/rbdock.cxx#4 $)

>  <Rbt.Library>
libRbt.so (2013.1, Build901 2013/11/27)

>  <Rbt.Parameter_File>
/export/apps/rDock/src/rDock_2013.1_src/data/scripts/dock_solv.prm

>  <Rbt.Receptor>
prm/pocket_docking_5.prm

>  <SCORE>
-6.14102

>  <SCORE.INTER>
-4.67805

>  <SCORE.INTER.CONST>
1

>  <SCORE.INTER.POLAR>
0

>  <SCORE.INTER.ROT>
3

>  <SCORE.INTER.SOLV>
11.5549

>  <SCORE.INTER.VDW>
-12.5703

>  <SCORE.INTER.norm>
-0.292378

>  <SCORE.INTRA>
-1.46297

>  <SCORE.INTRA.DIHEDRAL>
-1.96745

>  <SCORE.INTRA.DIHEDRAL.0>
2.05999

>  <SCORE.INTRA.POLAR>
0

>  <SCORE.INTRA.POLAR.0>
0

>  <SCORE.INTRA.REPUL>
0

>  <SCORE.INTRA.REPUL.0>
0

>  <SCORE.INTRA.SOLV>
-0.397661

>  <SCORE.INTRA.SOLV.lig_0>
-58.7001

>  <SCORE.INTRA.VDW>
-0.280409

>  <SCORE.INTRA.VDW.0>
-0.401036

>  <SCORE.INTRA.norm>
-0.0914354

>  <SCORE.RESTR>
0

>  <SCORE.RESTR.CAVITY>
0

>  <SCORE.RESTR.norm>
0

>  <SCORE.SYSTEM>
0

>  <SCORE.SYSTEM.CONST>
0

>  <SCORE.SYSTEM.DIHEDRAL>
0

>  <SCORE.SYSTEM.SOLV>
0

>  <SCORE.SYSTEM.norm>
0

>  <SCORE.heavy>
16

>  <SCORE.norm>
-0.383814

>  <RMSD>
5.578

$$$$
ligand
 OpenBabel11021811463D
libRbt.so/2013.1/901 2013/11/27
 16 16  0  0  0  0  0  0  0  0999 V2000
   46.1448   34.0471   55.6993 P   0  0  2  0  0  0  0  0  0  0  0  0
   46.8631   33.5233   56.8877 O   0  0  0  0  0  0  0  0  0  0  0  0
   44.9112   34.9645   56.1867 O   0  5  0  0  0  0  0  0  0  0  0  0
   45.5960   32.7982   54.8296 O   0  0  0  0  0  0  0  0  0  0  0  0
   49.4226   35.9404   51.4401 C   0  0  2  0  0  0  0  0  0  0  0  0
   50.1101   36.9817   52.1703 O   0  0  0  0  0  0  0  0  0  0  0  0
   48.7223   36.5158   50.1750 C   0  0  2  0  0  0  0  0  0  0  0  0
   49.7236   37.1661   49.3096 N   0  0  0  0  0  0  0  0  0  0  0  0
   47.6605   37.5446   50.6217 C   0  0  1  0  0  0  0  0  0  0  0  0
   46.9913   38.0892   49.4719 O   0  0  0  0  0  0  0  0  0  0  0  0
   46.6464   36.8066   51.5202 C   0  0  2  0  0  0  0  0  0  0  0  0
   45.6442   37.7377   51.9624 O   0  0  0  0  0  0  0  0  0  0  0  0
   47.4130   36.2301   52.7501 C   0  0  2  0  0  0  0  0  0  0  0  0
   48.4459   35.2951   52.3182 O   0  0  0  0  0  0  0  0  0  0  0  0
   46.4601   35.4624   53.6807 C   0  0  0  0  0  0  0  0  0  0  0  0
   47.1697   34.9401   54.8179 O   0  0  0  0  0  0  0  0  0  0  0  0
  1  2  1  1  0  0  0
  1  3  1  0  0  0  0
  1  4  2  0  0  0  0
  1 16  1  0  0  0  0
  5  6  1  1  0  0  0
  5  7  1  0  0  0  0
  5 14  1  0  0  0  0
  7  8  1  6  0  0  0
  7  9  1  0  0  0  0
  9 10  1  6  0  0  0
  9 11  1  0  0  0  0
 11 12  1  1  0  0  0
 11 13  1  0  0  0  0
 13 14  1  0  0  0  0
 13 15  1  1  0  0  0
 15 16  1  0  0  0  0
M  CHG  1   3  -1
M  END
>  <CHROM.1>
-179.62439071,-175.63148761,-179.03252458,47.25040347,35.71887363,53.02066583
-1.94142179,0.25574957,-0.93536462

>  <Name>
ligand

>  <RI>
0

>  <Rbt.Current_Directory>
/home/itssahil/PROJECTS/Mol_Feturizer/New_Systems/rnas/3B4A

>  <Rbt.Executable>
rbdock ($Id: //depot/dev/client3/rdock/2013.1/src/exe/rbdock.cxx#4 $)

>  <Rbt.Library>
libRbt.so (2013.1, Build901 2013/11/27)

>  <Rbt.Parameter_File>
/export/apps/rDock/src/rDock_2013.1_src/data/scripts/dock_solv.prm

>  <Rbt.Receptor>
prm/pocket_docking_5.prm

>  <SCORE>
-6.72074

>  <SCORE.INTER>
-5.27249

>  <SCORE.INTER.CONST>
1

>  <SCORE.INTER.POLAR>
0

>  <SCORE.INTER.ROT>
3

>  <SCORE.INTER.SOLV>
13.632

>  <SCORE.INTER.VDW>
-13.659

>  <SCORE.INTER.norm>
-0.32953

>  <SCORE.INTRA>
-1.44825

>  <SCORE.INTRA.DIHEDRAL>
-1.96159

>  <SCORE.INTRA.DIHEDRAL.0>
2.05999

>  <SCORE.INTRA.POLAR>
0

>  <SCORE.INTRA.POLAR.0>
0

>  <SCORE.INTRA.REPUL>
0

>  <SCORE.INTRA.REPUL.0>
0

>  <SCORE.INTRA.SOLV>
-0.387336

>  <SCORE.INTRA.SOLV.lig_0>
-58.7001

>  <SCORE.INTRA.VDW>
-0.273787

>  <SCORE.INTRA.VDW.0>
-0.401036

>  <SCORE.INTRA.norm>
-0.0905157

>  <SCORE.RESTR>
0

>  <SCORE.RESTR.CAVITY>
0

>  <SCORE.RESTR.norm>
0

>  <SCORE.SYSTEM>
0

>  <SCORE.SYSTEM.CONST>
0

>  <SCORE.SYSTEM.DIHEDRAL>
0

>  <SCORE.SYSTEM.SOLV>
0

>  <SCORE.SYSTEM.norm>
0

>  <SCORE.heavy>
16

>  <SCORE.norm>
-0.420046

>  <RMSD>
5.584

$$$$
ligand
 OpenBabel11021811463D
libRbt.so/2013.1/901 2013/11/27
 16 16  0  0  0  0  0  0  0  0999 V2000
   46.1232   34.0354   55.6692 P   0  0  2  0  0  0  0  0  0  0  0  0
   46.8348   33.5262   56.8679 O   0  0  0  0  0  0  0  0  0  0  0  0
   44.8878   34.9599   56.1385 O   0  5  0  0  0  0  0  0  0  0  0  0
   45.5780   32.7761   54.8124 O   0  0  0  0  0  0  0  0  0  0  0  0
   49.4244   35.9127   51.3938 C   0  0  2  0  0  0  0  0  0  0  0  0
   50.1079   36.9470   52.1375 O   0  0  0  0  0  0  0  0  0  0  0  0
   48.7262   36.5010   50.1334 C   0  0  2  0  0  0  0  0  0  0  0  0
   49.7283   37.1630   49.2781 N   0  0  0  0  0  0  0  0  0  0  0  0
   47.6612   37.5226   50.5891 C   0  0  1  0  0  0  0  0  0  0  0  0
   46.9938   38.0788   49.4437 O   0  0  0  0  0  0  0  0  0  0  0  0
   46.6463   36.7723   51.4765 C   0  0  2  0  0  0  0  0  0  0  0  0
   45.6410   37.6964   51.9267 O   0  0  0  0  0  0  0  0  0  0  0  0
   47.4109   36.1836   52.7018 C   0  0  2  0  0  0  0  0  0  0  0  0
   48.4468   35.2555   52.2620 O   0  0  0  0  0  0  0  0  0  0  0  0
   46.4571   35.4034   53.6212 C   0  0  0  0  0  0  0  0  0  0  0  0
   47.1534   34.9166   54.7820 O   0  0  0  0  0  0  0  0  0  0  0  0
  1  2  1  1  0  0  0
  1  3  1  0  0  0  0
  1  4  2  0  0  0  0
  1 16  1  0  0  0  0
  5  6  1  1  0  0  0
  5  7  1  0  0  0  0
  5 14  1  0  0  0  0
  7  8  1  6  0  0  0
  7  9  1  0  0  0  0
  9 10  1  6  0  0  0
  9 11  1  0  0  0  0
 11 12  1  1  0  0  0
 11 13  1  0  0  0  0
 13 14  1  0  0  0  0
 13 15  1  1  0  0  0
 15 16  1  0  0  0  0
M  CHG  1   3  -1
M  END
>  <CHROM.1>
-177.25472595,-176.86163785,179.86084713,47.24247777,35.69547433,52.98355922
-1.94564135,0.25478414,-0.93634849

>  <Name>
ligand

>  <RI>
0

>  <Rbt.Current_Directory>
/home/itssahil/PROJECTS/Mol_Feturizer/New_Systems/rnas/3B4A

>  <Rbt.Executable>
rbdock ($Id: //depot/dev/client3/rdock/2013.1/src/exe/rbdock.cxx#4 $)

>  <Rbt.Library>
libRbt.so (2013.1, Build901 2013/11/27)

>  <Rbt.Parameter_File>
/export/apps/rDock/src/rDock_2013.1_src/data/scripts/dock_solv.prm

>  <Rbt.Receptor>
prm/pocket_docking_5.prm

>  <SCORE>
-6.71938

>  <SCORE.INTER>
-5.26551

>  <SCORE.INTER.CONST>
1

>  <SCORE.INTER.POLAR>
0

>  <SCORE.INTER.ROT>
3

>  <SCORE.INTER.SOLV>
13.3776

>  <SCORE.INTER.VDW>
-13.5695

>  <SCORE.INTER.norm>
-0.329094

>  <SCORE.INTRA>
-1.45388

>  <SCORE.INTRA.DIHEDRAL>
-1.98101

>  <SCORE.INTRA.DIHEDRAL.0>
2.05999

>  <SCORE.INTRA.POLAR>
0

>  <SCORE.INTRA.POLAR.0>
0

>  <SCORE.INTRA.REPUL>
0

>  <SCORE.INTRA.REPUL.0>
0

>  <SCORE.INTRA.SOLV>
-0.402757

>  <SCORE.INTRA.SOLV.lig_0>
-58.7001

>  <SCORE.INTRA.VDW>
-0.261996

>  <SCORE.INTRA.VDW.0>
-0.401036

>  <SCORE.INTRA.norm>
-0.0908674

>  <SCORE.RESTR>
0

>  <SCORE.RESTR.CAVITY>
0

>  <SCORE.RESTR.norm>
0

>  <SCORE.SYSTEM>
0

>  <SCORE.SYSTEM.CONST>
0

>  <SCORE.SYSTEM.DIHEDRAL>
0

>  <SCORE.SYSTEM.SOLV>
0

>  <SCORE.SYSTEM.norm>
0

>  <SCORE.heavy>
16

>  <SCORE.norm>
-0.419961

>  <RMSD>
5.590

$$$$
ligand
 OpenBabel11021811463D
libRbt.so/2013.1/901 2013/11/27
 16 16  0  0  0  0  0  0  0  0999 V2000
   44.7728   39.1829   53.0804 P   0  0  2  0  0  0  0  0  0  0  0  0
   45.0351   39.0721   51.6239 O   0  0  0  0  0  0  0  0  0  0  0  0
   43.1833   39.3035   53.3257 O   0  5  0  0  0  0  0  0  0  0  0  0
   45.5217   40.5006   53.6463 O   0  0  0  0  0  0  0  0  0  0  0  0
   47.2529   34.1995   53.1329 C   0  0  2  0  0  0  0  0  0  0  0  0
   46.4940   33.0904   52.5998 O   0  0  0  0  0  0  0  0  0  0  0  0
   47.5888   33.9742   54.6357 C   0  0  2  0  0  0  0  0  0  0  0  0
   48.3482   32.7195   54.7886 N   0  0  0  0  0  0  0  0  0  0  0  0
   46.2676   33.8937   55.4316 C   0  0  1  0  0  0  0  0  0  0  0  0
   46.5475   33.6920   56.8271 O   0  0  0  0  0  0  0  0  0  0  0  0
   45.5221   35.2297   55.2321 C   0  0  2  0  0  0  0  0  0  0  0  0
   44.2799   35.1880   55.9549 O   0  0  0  0  0  0  0  0  0  0  0  0
   45.2422   35.4097   53.7084 C   0  0  2  0  0  0  0  0  0  0  0  0
   46.4924   35.4374   52.9573 O   0  0  0  0  0  0  0  0  0  0  0  0
   44.5150   36.7367   53.4366 C   0  0  0  0  0  0  0  0  0  0  0  0
   45.3360   37.8548   53.8177 O   0  0  0  0  0  0  0  0  0  0  0  0
  1  2  1  6  0  0  0
  1  3  1  0  0  0  0
  1  4  2  0  0  0  0
  1 16  1  0  0  0  0
  5  6  1  1  0  0  0
  5  7  1  0  0  0  0
  5 14  1  0  0  0  0
  7  8  1  6  0  0  0
  7  9  1  0  0  0  0
  9 10  1  1  0  0  0
  9 11  1  0  0  0  0
 11 12  1  1  0  0  0
 11 13  1  0  0  0  0
 13 14  1  0  0  0  0
 13 15  1  1  0  0  0
 15 16  1  0  0  0  0
M  CHG  1   3  -1
M  END
>  <CHROM.1>
62.89538991,161.30202534,-69.08043468,45.66950741,36.26276183,53.93085907
-2.24632504,-0.97139603,2.26169020

>  <Name>
ligand

>  <RI>
0

>  <Rbt.Current_Directory>
/home/itssahil/PROJECTS/Mol_Feturizer/New_Systems/rnas/3B4A

>  <Rbt.Executable>
rbdock ($Id: //depot/dev/client3/rdock/2013.1/src/exe/rbdock.cxx#4 $)

>  <Rbt.Library>
libRbt.so (2013.1, Build901 2013/11/27)

>  <Rbt.Parameter_File>
/export/apps/rDock/src/rDock_2013.1_src/data/scripts/dock_solv.prm

>  <Rbt.Receptor>
prm/pocket_docking_8.prm

>  <SCORE>
-6.4701

>  <SCORE.INTER>
-5.76289

>  <SCORE.INTER.CONST>
1

>  <SCORE.INTER.POLAR>
0

>  <SCORE.INTER.ROT>
3

>  <SCORE.INTER.SOLV>
12.9264

>  <SCORE.INTER.VDW>
-13.7507

>  <SCORE.INTER.norm>
-0.360181

>  <SCORE.INTRA>
-0.707206

>  <SCORE.INTRA.DIHEDRAL>
-0.301856

>  <SCORE.INTRA.DIHEDRAL.0>
2.05999

>  <SCORE.INTRA.POLAR>
0

>  <SCORE.INTRA.POLAR.0>
0

>  <SCORE.INTRA.REPUL>
0

>  <SCORE.INTRA.REPUL.0>
0

>  <SCORE.INTRA.SOLV>
-0.751184

>  <SCORE.INTRA.SOLV.lig_0>
-58.7001

>  <SCORE.INTRA.VDW>
-0.180686

>  <SCORE.INTRA.VDW.0>
-0.401036

>  <SCORE.INTRA.norm>
-0.0442004

>  <SCORE.RESTR>
0

>  <SCORE.RESTR.CAVITY>
0

>  <SCORE.RESTR.norm>
0

>  <SCORE.SYSTEM>
0

>  <SCORE.SYSTEM.CONST>
0

>  <SCORE.SYSTEM.DIHEDRAL>
0

>  <SCORE.SYSTEM.SOLV>
0

>  <SCORE.SYSTEM.norm>
0

>  <SCORE.heavy>
16

>  <SCORE.norm>
-0.404381

>  <RMSD>
5.590

$$$$
ligand
 OpenBabel11021811463D
libRbt.so/2013.1/901 2013/11/27
 16 16  0  0  0  0  0  0  0  0999 V2000
   44.2262   38.3821   53.4536 P   0  0  2  0  0  0  0  0  0  0  0  0
   42.8373   37.8606   53.4953 O   0  0  0  0  0  0  0  0  0  0  0  0
   44.3670   39.6006   54.5008 O   0  5  0  0  0  0  0  0  0  0  0  0
   44.5435   38.9010   51.9545 O   0  0  0  0  0  0  0  0  0  0  0  0
   48.1782   34.2917   52.7904 C   0  0  2  0  0  0  0  0  0  0  0  0
   47.7484   33.0703   52.1472 O   0  0  0  0  0  0  0  0  0  0  0  0
   48.5283   34.0410   54.2860 C   0  0  2  0  0  0  0  0  0  0  0  0
   49.5864   33.0184   54.3802 N   0  0  0  0  0  0  0  0  0  0  0  0
   47.2572   33.5564   55.0174 C   0  0  1  0  0  0  0  0  0  0  0  0
   47.5493   33.3225   56.4054 O   0  0  0  0  0  0  0  0  0  0  0  0
   46.1921   34.6646   54.8834 C   0  0  2  0  0  0  0  0  0  0  0  0
   44.9886   34.2439   55.5480 O   0  0  0  0  0  0  0  0  0  0  0  0
   45.9085   34.8880   53.3660 C   0  0  2  0  0  0  0  0  0  0  0  0
   47.1239   35.2997   52.6725 O   0  0  0  0  0  0  0  0  0  0  0  0
   44.8650   35.9982   53.1600 C   0  0  0  0  0  0  0  0  0  0  0  0
   45.2460   37.1925   53.8656 O   0  0  0  0  0  0  0  0  0  0  0  0
  1  2  1  1  0  0  0
  1  3  1  0  0  0  0
  1  4  2  0  0  0  0
  1 16  1  0  0  0  0
  5  6  1  1  0  0  0
  5  7  1  0  0  0  0
  5 14  1  0  0  0  0
  7  8  1  6  0  0  0
  7  9  1  0  0  0  0
  9 10  1  1  0  0  0
  9 11  1  0  0  0  0
 11 12  1  1  0  0  0
 11 13  1  0  0  0  0
 13 14  1  0  0  0  0
 13 15  1  1  0  0  0
 15 16  1  0  0  0  0
M  CHG  1   3  -1
M  END
>  <CHROM.1>
52.40767267,172.39939704,45.47993078,46.00313434,35.77958380,53.83545054
-2.60832714,-0.78123865,2.09514912

>  <Name>
ligand

>  <RI>
0

>  <Rbt.Current_Directory>
/home/itssahil/PROJECTS/Mol_Feturizer/New_Systems/rnas/3B4A

>  <Rbt.Executable>
rbdock ($Id: //depot/dev/client3/rdock/2013.1/src/exe/rbdock.cxx#4 $)

>  <Rbt.Library>
libRbt.so (2013.1, Build901 2013/11/27)

>  <Rbt.Parameter_File>
/export/apps/rDock/src/rDock_2013.1_src/data/scripts/dock_solv.prm

>  <Rbt.Receptor>
prm/pocket_docking_5.prm

>  <SCORE>
-6.87015

>  <SCORE.INTER>
-5.9067

>  <SCORE.INTER.CONST>
1

>  <SCORE.INTER.POLAR>
0

>  <SCORE.INTER.ROT>
3

>  <SCORE.INTER.SOLV>
12.7868

>  <SCORE.INTER.VDW>
-13.8001

>  <SCORE.INTER.norm>
-0.369169

>  <SCORE.INTRA>
-0.964247

>  <SCORE.INTRA.DIHEDRAL>
-1.2428

>  <SCORE.INTRA.DIHEDRAL.0>
2.05999

>  <SCORE.INTRA.POLAR>
0

>  <SCORE.INTRA.POLAR.0>
0

>  <SCORE.INTRA.REPUL>
0

>  <SCORE.INTRA.REPUL.0>
0

>  <SCORE.INTRA.SOLV>
-0.945516

>  <SCORE.INTRA.SOLV.lig_0>
-58.7001

>  <SCORE.INTRA.VDW>
0.129911

>  <SCORE.INTRA.VDW.0>
-0.401036

>  <SCORE.INTRA.norm>
-0.0602654

>  <SCORE.RESTR>
0.000794038

>  <SCORE.RESTR.CAVITY>
0.000794038

>  <SCORE.RESTR.norm>
4.96274e-05

>  <SCORE.SYSTEM>
0

>  <SCORE.SYSTEM.CONST>
0

>  <SCORE.SYSTEM.DIHEDRAL>
0

>  <SCORE.SYSTEM.SOLV>
0

>  <SCORE.SYSTEM.norm>
0

>  <SCORE.heavy>
16

>  <SCORE.norm>
-0.429385

>  <RMSD>
5.593

$$$$
ligand
 OpenBabel11021811463D
libRbt.so/2013.1/901 2013/11/27
 16 16  0  0  0  0  0  0  0  0999 V2000
   46.1073   34.0614   55.6643 P   0  0  2  0  0  0  0  0  0  0  0  0
   46.8196   33.5523   56.8626 O   0  0  0  0  0  0  0  0  0  0  0  0
   44.8687   34.9814   56.1343 O   0  5  0  0  0  0  0  0  0  0  0  0
   45.5665   32.8020   54.8049 O   0  0  0  0  0  0  0  0  0  0  0  0
   49.4242   35.9281   51.4102 C   0  0  2  0  0  0  0  0  0  0  0  0
   50.0900   36.9828   52.1412 O   0  0  0  0  0  0  0  0  0  0  0  0
   48.7330   36.4859   50.1322 C   0  0  2  0  0  0  0  0  0  0  0  0
   49.7373   37.1418   49.2746 N   0  0  0  0  0  0  0  0  0  0  0  0
   47.6536   37.5052   50.5580 C   0  0  1  0  0  0  0  0  0  0  0  0
   46.9925   38.0334   49.3959 O   0  0  0  0  0  0  0  0  0  0  0  0
   46.6371   36.7616   51.4492 C   0  0  2  0  0  0  0  0  0  0  0  0
   45.6184   37.6840   51.8719 O   0  0  0  0  0  0  0  0  0  0  0  0
   47.3950   36.2033   52.6928 C   0  0  2  0  0  0  0  0  0  0  0  0
   48.4442   35.2775   52.2808 O   0  0  0  0  0  0  0  0  0  0  0  0
   46.4395   35.4311   53.6171 C   0  0  0  0  0  0  0  0  0  0  0  0
   47.1355   34.9472   54.7794 O   0  0  0  0  0  0  0  0  0  0  0  0
  1  2  1  1  0  0  0
  1  3  1  0  0  0  0
  1  4  2  0  0  0  0
  1 16  1  0  0  0  0
  5  6  1  1  0  0  0
  5  7  1  0  0  0  0
  5 14  1  0  0  0  0
  7  8  1  6  0  0  0
  7  9  1  0  0  0  0
  9 10  1  6  0  0  0
  9 11  1  0  0  0  0
 11 12  1  1  0  0  0
 11 13  1  0  0  0  0
 13 14  1  0  0  0  0
 13 15  1  1  0  0  0
 15 16  1  0  0  0  0
M  CHG  1   3  -1
M  END
>  <CHROM.1>
-178.53522889,-176.29005922,179.71274844,47.23184128,35.70522718,52.97349840
-1.94628240,0.23967700,-0.94815218

>  <Name>
ligand

>  <RI>
0

>  <Rbt.Current_Directory>
/home/itssahil/PROJECTS/Mol_Feturizer/New_Systems/rnas/3B4A

>  <Rbt.Executable>
rbdock ($Id: //depot/dev/client3/rdock/2013.1/src/exe/rbdock.cxx#4 $)

>  <Rbt.Library>
libRbt.so (2013.1, Build901 2013/11/27)

>  <Rbt.Parameter_File>
/export/apps/rDock/src/rDock_2013.1_src/data/scripts/dock_solv.prm

>  <Rbt.Receptor>
prm/pocket_docking_5.prm

>  <SCORE>
-6.71206

>  <SCORE.INTER>
-5.24509

>  <SCORE.INTER.CONST>
1

>  <SCORE.INTER.POLAR>
0

>  <SCORE.INTER.ROT>
3

>  <SCORE.INTER.SOLV>
13.4197

>  <SCORE.INTER.VDW>
-13.57

>  <SCORE.INTER.norm>
-0.327818

>  <SCORE.INTRA>
-1.46697

>  <SCORE.INTRA.DIHEDRAL>
-1.98152

>  <SCORE.INTRA.DIHEDRAL.0>
2.05999

>  <SCORE.INTRA.POLAR>
0

>  <SCORE.INTRA.POLAR.0>
0

>  <SCORE.INTRA.REPUL>
0

>  <SCORE.INTRA.REPUL.0>
0

>  <SCORE.INTRA.SOLV>
-0.395187

>  <SCORE.INTRA.SOLV.lig_0>
-58.7001

>  <SCORE.INTRA.VDW>
-0.278614

>  <SCORE.INTRA.VDW.0>
-0.401036

>  <SCORE.INTRA.norm>
-0.0916856

>  <SCORE.RESTR>
0

>  <SCORE.RESTR.CAVITY>
0

>  <SCORE.RESTR.norm>
0

>  <SCORE.SYSTEM>
0

>  <SCORE.SYSTEM.CONST>
0

>  <SCORE.SYSTEM.DIHEDRAL>
0

>  <SCORE.SYSTEM.SOLV>
0

>  <SCORE.SYSTEM.norm>
0

>  <SCORE.heavy>
16

>  <SCORE.norm>
-0.419504

>  <RMSD>
5.596

$$$$
ligand
 OpenBabel11021811463D
libRbt.so/2013.1/901 2013/11/27
 16 16  0  0  0  0  0  0  0  0999 V2000
   46.3620   33.7647   55.2436 P   0  0  2  0  0  0  0  0  0  0  0  0
   46.6023   33.5788   56.6963 O   0  0  0  0  0  0  0  0  0  0  0  0
   46.1810   35.3368   54.9327 O   0  5  0  0  0  0  0  0  0  0  0  0
   45.0206   32.9605   54.8299 O   0  0  0  0  0  0  0  0  0  0  0  0
   49.0580   31.8664   49.9794 C   0  0  2  0  0  0  0  0  0  0  0  0
   49.5234   30.5977   50.4931 O   0  0  0  0  0  0  0  0  0  0  0  0
   50.2268   32.8889   49.8765 C   0  0  2  0  0  0  0  0  0  0  0  0
   51.2830   32.3445   49.0033 N   0  0  0  0  0  0  0  0  0  0  0  0
   50.7890   33.1422   51.2926 C   0  0  1  0  0  0  0  0  0  0  0  0
   51.8681   34.0899   51.2293 O   0  0  0  0  0  0  0  0  0  0  0  0
   49.6413   33.7083   52.1544 C   0  0  2  0  0  0  0  0  0  0  0  0
   50.1274   33.9500   53.4858 O   0  0  0  0  0  0  0  0  0  0  0  0
   48.4937   32.6529   52.1933 C   0  0  2  0  0  0  0  0  0  0  0  0
   47.9995   32.3831   50.8476 O   0  0  0  0  0  0  0  0  0  0  0  0
   47.3052   33.1641   53.0239 C   0  0  0  0  0  0  0  0  0  0  0  0
   47.6370   33.1931   54.4234 O   0  0  0  0  0  0  0  0  0  0  0  0
  1  2  1  1  0  0  0
  1  3  1  0  0  0  0
  1  4  2  0  0  0  0
  1 16  1  0  0  0  0
  5  6  1  1  0  0  0
  5  7  1  0  0  0  0
  5 14  1  0  0  0  0
  7  8  1  6  0  0  0
  7  9  1  0  0  0  0
  9 10  1  6  0  0  0
  9 11  1  0  0  0  0
 11 12  1  1  0  0  0
 11 13  1  0  0  0  0
 13 14  1  0  0  0  0
 13 15  1  1  0  0  0
 15 16  1  0  0  0  0
M  CHG  1   3  -1
M  END
>  <CHROM.1>
-70.92276889,178.92914133,170.25971911,48.42729776,33.16101661,52.75060119
2.33383087,0.42414661,0.95092718

>  <Name>
ligand

>  <RI>
0

>  <Rbt.Current_Directory>
/home/itssahil/PROJECTS/Mol_Feturizer/New_Systems/rnas/3B4A

>  <Rbt.Executable>
rbdock ($Id: //depot/dev/client3/rdock/2013.1/src/exe/rbdock.cxx#4 $)

>  <Rbt.Library>
libRbt.so (2013.1, Build901 2013/11/27)

>  <Rbt.Parameter_File>
/export/apps/rDock/src/rDock_2013.1_src/data/scripts/dock_solv.prm

>  <Rbt.Receptor>
prm/pocket_docking_5.prm

>  <SCORE>
-5.25315

>  <SCORE.INTER>
-4.16902

>  <SCORE.INTER.CONST>
1

>  <SCORE.INTER.POLAR>
0

>  <SCORE.INTER.ROT>
3

>  <SCORE.INTER.SOLV>
13.6425

>  <SCORE.INTER.VDW>
-12.9269

>  <SCORE.INTER.norm>
-0.260564

>  <SCORE.INTRA>
-1.08414

>  <SCORE.INTRA.DIHEDRAL>
-1.4828

>  <SCORE.INTRA.DIHEDRAL.0>
2.05999

>  <SCORE.INTRA.POLAR>
0

>  <SCORE.INTRA.POLAR.0>
0

>  <SCORE.INTRA.REPUL>
0

>  <SCORE.INTRA.REPUL.0>
0

>  <SCORE.INTRA.SOLV>
-0.0762335

>  <SCORE.INTRA.SOLV.lig_0>
-58.7001

>  <SCORE.INTRA.VDW>
-0.304618

>  <SCORE.INTRA.VDW.0>
-0.401036

>  <SCORE.INTRA.norm>
-0.0677584

>  <SCORE.RESTR>
0

>  <SCORE.RESTR.CAVITY>
0

>  <SCORE.RESTR.norm>
0

>  <SCORE.SYSTEM>
0

>  <SCORE.SYSTEM.CONST>
0

>  <SCORE.SYSTEM.DIHEDRAL>
0

>  <SCORE.SYSTEM.SOLV>
0

>  <SCORE.SYSTEM.norm>
0

>  <SCORE.heavy>
16

>  <SCORE.norm>
-0.328322

>  <RMSD>
5.602

$$$$
ligand
 OpenBabel11021811463D
libRbt.so/2013.1/901 2013/11/27
 16 16  0  0  0  0  0  0  0  0999 V2000
   46.9707   33.6985   55.2446 P   0  0  2  0  0  0  0  0  0  0  0  0
   48.4451   33.8473   55.1638 O   0  0  0  0  0  0  0  0  0  0  0  0
   46.5785   33.0705   56.6774 O   0  5  0  0  0  0  0  0  0  0  0  0
   46.4799   32.7161   54.0566 O   0  0  0  0  0  0  0  0  0  0  0  0
   46.1430   39.0367   52.1732 C   0  0  2  0  0  0  0  0  0  0  0  0
   46.3998   39.9137   53.2936 O   0  0  0  0  0  0  0  0  0  0  0  0
   44.6181   38.9422   51.8772 C   0  0  2  0  0  0  0  0  0  0  0  0
   44.0849   40.2888   51.6002 N   0  0  0  0  0  0  0  0  0  0  0  0
   43.9113   38.3362   53.1095 C   0  0  1  0  0  0  0  0  0  0  0  0
   42.4991   38.2304   52.8620 O   0  0  0  0  0  0  0  0  0  0  0  0
   44.5103   36.9343   53.3469 C   0  0  2  0  0  0  0  0  0  0  0  0
   43.8795   36.3409   54.4946 O   0  0  0  0  0  0  0  0  0  0  0  0
   46.0397   37.0946   53.6072 C   0  0  2  0  0  0  0  0  0  0  0  0
   46.6934   37.7111   52.4580 O   0  0  0  0  0  0  0  0  0  0  0  0
   46.7047   35.7271   53.8335 C   0  0  0  0  0  0  0  0  0  0  0  0
   46.2863   35.1585   55.0869 O   0  0  0  0  0  0  0  0  0  0  0  0
  1  2  1  6  0  0  0
  1  3  1  0  0  0  0
  1  4  2  0  0  0  0
  1 16  1  0  0  0  0
  5  6  1  1  0  0  0
  5  7  1  0  0  0  0
  5 14  1  0  0  0  0
  7  8  1  1  0  0  0
  7  9  1  0  0  0  0
  9 10  1  6  0  0  0
  9 11  1  0  0  0  0
 11 12  1  1  0  0  0
 11 13  1  0  0  0  0
 13 14  1  0  0  0  0
 13 15  1  6  0  0  0
 15 16  1  0  0  0  0
M  CHG  1   3  -1
M  END
>  <CHROM.1>
-69.43316595,177.83064681,57.71596647,45.75848539,36.41032256,53.83920251
-1.20091613,0.02707412,-0.48742484

>  <Name>
ligand

>  <RI>
0

>  <Rbt.Current_Directory>
/home/itssahil/PROJECTS/Mol_Feturizer/New_Systems/rnas/3B4A

>  <Rbt.Executable>
rbdock ($Id: //depot/dev/client3/rdock/2013.1/src/exe/rbdock.cxx#4 $)

>  <Rbt.Library>
libRbt.so (2013.1, Build901 2013/11/27)

>  <Rbt.Parameter_File>
/export/apps/rDock/src/rDock_2013.1_src/data/scripts/dock_solv.prm

>  <Rbt.Receptor>
prm/pocket_docking_7.prm

>  <SCORE>
-8.14252

>  <SCORE.INTER>
-6.79531

>  <SCORE.INTER.CONST>
1

>  <SCORE.INTER.POLAR>
0

>  <SCORE.INTER.ROT>
3

>  <SCORE.INTER.SOLV>
15.9548

>  <SCORE.INTER.VDW>
-15.4485

>  <SCORE.INTER.norm>
-0.424707

>  <SCORE.INTRA>
-1.34721

>  <SCORE.INTRA.DIHEDRAL>
-1.71325

>  <SCORE.INTRA.DIHEDRAL.0>
2.05999

>  <SCORE.INTRA.POLAR>
0

>  <SCORE.INTRA.POLAR.0>
0

>  <SCORE.INTRA.REPUL>
0

>  <SCORE.INTRA.REPUL.0>
0

>  <SCORE.INTRA.SOLV>
-0.714256

>  <SCORE.INTRA.SOLV.lig_0>
-58.7001

>  <SCORE.INTRA.VDW>
-0.133459

>  <SCORE.INTRA.VDW.0>
-0.401036

>  <SCORE.INTRA.norm>
-0.0842008

>  <SCORE.RESTR>
0

>  <SCORE.RESTR.CAVITY>
0

>  <SCORE.RESTR.norm>
0

>  <SCORE.SYSTEM>
0

>  <SCORE.SYSTEM.CONST>
0

>  <SCORE.SYSTEM.DIHEDRAL>
0

>  <SCORE.SYSTEM.SOLV>
0

>  <SCORE.SYSTEM.norm>
0

>  <SCORE.heavy>
16

>  <SCORE.norm>
-0.508908

>  <RMSD>
5.611

$$$$
ligand
 OpenBabel11021811463D
libRbt.so/2013.1/901 2013/11/27
 16 16  0  0  0  0  0  0  0  0999 V2000
   46.5952   33.6821   55.2970 P   0  0  2  0  0  0  0  0  0  0  0  0
   46.7641   33.5575   56.7662 O   0  0  0  0  0  0  0  0  0  0  0  0
   45.5508   32.5643   54.7863 O   0  5  0  0  0  0  0  0  0  0  0  0
   48.0321   33.4627   54.5866 O   0  0  0  0  0  0  0  0  0  0  0  0
   43.4208   38.2170   53.7861 C   0  0  2  0  0  0  0  0  0  0  0  0
   42.8505   38.1923   52.4578 O   0  0  0  0  0  0  0  0  0  0  0  0
   44.5026   39.3292   53.9077 C   0  0  2  0  0  0  0  0  0  0  0  0
   43.9028   40.6379   53.5886 N   0  0  0  0  0  0  0  0  0  0  0  0
   45.6475   39.0164   52.9194 C   0  0  1  0  0  0  0  0  0  0  0  0
   46.6667   40.0257   53.0145 O   0  0  0  0  0  0  0  0  0  0  0  0
   46.2314   37.6411   53.3038 C   0  0  2  0  0  0  0  0  0  0  0  0
   47.2981   37.3125   52.3975 O   0  0  0  0  0  0  0  0  0  0  0  0
   45.0946   36.5792   53.1906 C   0  0  2  0  0  0  0  0  0  0  0  0
   43.9957   36.9066   54.0923 O   0  0  0  0  0  0  0  0  0  0  0  0
   45.6065   35.1829   53.5803 C   0  0  0  0  0  0  0  0  0  0  0  0
   46.0189   35.1579   54.9581 O   0  0  0  0  0  0  0  0  0  0  0  0
  1  2  1  1  0  0  0
  1  3  1  0  0  0  0
  1  4  2  0  0  0  0
  1 16  1  0  0  0  0
  5  6  1  6  0  0  0
  5  7  1  0  0  0  0
  5 14  1  0  0  0  0
  7  8  1  6  0  0  0
  7  9  1  0  0  0  0
  9 10  1  1  0  0  0
  9 11  1  0  0  0  0
 11 12  1  6  0  0  0
 11 13  1  0  0  0  0
 13 14  1  0  0  0  0
 13 15  1  1  0  0  0
 15 16  1  0  0  0  0
M  CHG  1   3  -1
M  END
>  <CHROM.1>
63.25384699,-178.04064539,-168.61051391,45.61894475,36.43220814,54.03099500
1.25149143,-0.09455090,2.76023472

>  <Name>
ligand

>  <RI>
0

>  <Rbt.Current_Directory>
/home/itssahil/PROJECTS/Mol_Feturizer/New_Systems/rnas/3B4A

>  <Rbt.Executable>
rbdock ($Id: //depot/dev/client3/rdock/2013.1/src/exe/rbdock.cxx#4 $)

>  <Rbt.Library>
libRbt.so (2013.1, Build901 2013/11/27)

>  <Rbt.Parameter_File>
/export/apps/rDock/src/rDock_2013.1_src/data/scripts/dock_solv.prm

>  <Rbt.Receptor>
prm/pocket_docking_7.prm

>  <SCORE>
-9.07801

>  <SCORE.INTER>
-7.77996

>  <SCORE.INTER.CONST>
1

>  <SCORE.INTER.POLAR>
0

>  <SCORE.INTER.ROT>
3

>  <SCORE.INTER.SOLV>
12.264

>  <SCORE.INTER.VDW>
-14.8746

>  <SCORE.INTER.norm>
-0.486248

>  <SCORE.INTRA>
-1.29898

>  <SCORE.INTRA.DIHEDRAL>
-1.79208

>  <SCORE.INTRA.DIHEDRAL.0>
2.05999

>  <SCORE.INTRA.POLAR>
0

>  <SCORE.INTRA.POLAR.0>
0

>  <SCORE.INTRA.REPUL>
0

>  <SCORE.INTRA.REPUL.0>
0

>  <SCORE.INTRA.SOLV>
-0.209067

>  <SCORE.INTRA.SOLV.lig_0>
-58.7001

>  <SCORE.INTRA.VDW>
-0.298404

>  <SCORE.INTRA.VDW.0>
-0.401036

>  <SCORE.INTRA.norm>
-0.081186

>  <SCORE.RESTR>
0.000932102

>  <SCORE.RESTR.CAVITY>
0.000932102

>  <SCORE.RESTR.norm>
5.82564e-05

>  <SCORE.SYSTEM>
0

>  <SCORE.SYSTEM.CONST>
0

>  <SCORE.SYSTEM.DIHEDRAL>
0

>  <SCORE.SYSTEM.SOLV>
0

>  <SCORE.SYSTEM.norm>
0

>  <SCORE.heavy>
16

>  <SCORE.norm>
-0.567375

>  <RMSD>
5.611

$$$$
ligand
 OpenBabel11021811463D
libRbt.so/2013.1/901 2013/11/27
 16 16  0  0  0  0  0  0  0  0999 V2000
   44.2140   38.3651   53.3413 P   0  0  2  0  0  0  0  0  0  0  0  0
   43.0405   37.7690   54.0269 O   0  0  0  0  0  0  0  0  0  0  0  0
   44.9100   39.4416   54.3200 O   0  5  0  0  0  0  0  0  0  0  0  0
   43.7122   39.0922   51.9860 O   0  0  0  0  0  0  0  0  0  0  0  0
   48.6429   34.6071   53.2553 C   0  0  2  0  0  0  0  0  0  0  0  0
   48.2054   33.9563   52.0408 O   0  0  0  0  0  0  0  0  0  0  0  0
   48.7359   33.5907   54.4302 C   0  0  2  0  0  0  0  0  0  0  0  0
   49.6683   32.5062   54.0715 N   0  0  0  0  0  0  0  0  0  0  0  0
   47.3289   33.0125   54.6972 C   0  0  1  0  0  0  0  0  0  0  0  0
   47.3829   32.0734   55.7842 O   0  0  0  0  0  0  0  0  0  0  0  0
   46.4037   34.1910   55.0655 C   0  0  2  0  0  0  0  0  0  0  0  0
   45.0792   33.6899   55.3142 O   0  0  0  0  0  0  0  0  0  0  0  0
   46.3768   35.1846   53.8636 C   0  0  2  0  0  0  0  0  0  0  0  0
   47.7166   35.6905   53.5865 O   0  0  0  0  0  0  0  0  0  0  0  0
   45.4840   36.3973   54.1734 C   0  0  0  0  0  0  0  0  0  0  0  0
   45.2709   37.1881   52.9908 O   0  0  0  0  0  0  0  0  0  0  0  0
  1  2  1  1  0  0  0
  1  3  1  0  0  0  0
  1  4  2  0  0  0  0
  1 16  1  0  0  0  0
  5  6  1  6  0  0  0
  5  7  1  0  0  0  0
  5 14  1  0  0  0  0
  7  8  1  6  0  0  0
  7  9  1  0  0  0  0
  9 10  1  1  0  0  0
  9 11  1  0  0  0  0
 11 12  1  6  0  0  0
 11 13  1  0  0  0  0
 13 14  1  0  0  0  0
 13 15  1  1  0  0  0
 15 16  1  0  0  0  0
M  CHG  1   3  -1
M  END
>  <CHROM.1>
-169.84165121,174.62660672,-49.16232448,46.17213609,35.68959833,53.87664653
-2.32236876,-0.51871496,2.51901683

>  <Name>
ligand

>  <RI>
0

>  <Rbt.Current_Directory>
/home/itssahil/PROJECTS/Mol_Feturizer/New_Systems/rnas/3B4A

>  <Rbt.Executable>
rbdock ($Id: //depot/dev/client3/rdock/2013.1/src/exe/rbdock.cxx#4 $)

>  <Rbt.Library>
libRbt.so (2013.1, Build901 2013/11/27)

>  <Rbt.Parameter_File>
/export/apps/rDock/src/rDock_2013.1_src/data/scripts/dock_solv.prm

>  <Rbt.Receptor>
prm/pocket_docking_5.prm

>  <SCORE>
-7.23418

>  <SCORE.INTER>
-6.0379

>  <SCORE.INTER.CONST>
1

>  <SCORE.INTER.POLAR>
0

>  <SCORE.INTER.ROT>
3

>  <SCORE.INTER.SOLV>
13.4387

>  <SCORE.INTER.VDW>
-14.1048

>  <SCORE.INTER.norm>
-0.377369

>  <SCORE.INTRA>
-1.19628

>  <SCORE.INTRA.DIHEDRAL>
-1.36036

>  <SCORE.INTRA.DIHEDRAL.0>
2.05999

>  <SCORE.INTRA.POLAR>
0

>  <SCORE.INTRA.POLAR.0>
0

>  <SCORE.INTRA.REPUL>
0

>  <SCORE.INTRA.REPUL.0>
0

>  <SCORE.INTRA.SOLV>
-1.2345

>  <SCORE.INTRA.SOLV.lig_0>
-58.7001

>  <SCORE.INTRA.VDW>
0.10115

>  <SCORE.INTRA.VDW.0>
-0.401036

>  <SCORE.INTRA.norm>
-0.0747675

>  <SCORE.RESTR>
0

>  <SCORE.RESTR.CAVITY>
0

>  <SCORE.RESTR.norm>
0

>  <SCORE.SYSTEM>
0

>  <SCORE.SYSTEM.CONST>
0

>  <SCORE.SYSTEM.DIHEDRAL>
0

>  <SCORE.SYSTEM.SOLV>
0

>  <SCORE.SYSTEM.norm>
0

>  <SCORE.heavy>
16

>  <SCORE.norm>
-0.452136

>  <RMSD>
5.618

$$$$
ligand
 OpenBabel11021811463D
libRbt.so/2013.1/901 2013/11/27
 16 16  0  0  0  0  0  0  0  0999 V2000
   44.6854   39.1792   53.3845 P   0  0  2  0  0  0  0  0  0  0  0  0
   44.0148   39.7127   54.5962 O   0  0  0  0  0  0  0  0  0  0  0  0
   45.9533   40.1097   53.0267 O   0  5  0  0  0  0  0  0  0  0  0  0
   43.6299   39.1865   52.1585 O   0  0  0  0  0  0  0  0  0  0  0  0
   45.6782   33.6163   52.9396 C   0  0  2  0  0  0  0  0  0  0  0  0
   44.5145   32.7598   52.8893 O   0  0  0  0  0  0  0  0  0  0  0  0
   46.5203   33.3384   54.2185 C   0  0  2  0  0  0  0  0  0  0  0  0
   46.9311   31.9224   54.2405 N   0  0  0  0  0  0  0  0  0  0  0  0
   45.6573   33.6586   55.4587 C   0  0  1  0  0  0  0  0  0  0  0  0
   46.4131   33.4169   56.6575 O   0  0  0  0  0  0  0  0  0  0  0  0
   45.2608   35.1474   55.3779 C   0  0  2  0  0  0  0  0  0  0  0  0
   44.4478   35.4806   56.5160 O   0  0  0  0  0  0  0  0  0  0  0  0
   44.4480   35.3655   54.0647 C   0  0  2  0  0  0  0  0  0  0  0  0
   45.2531   35.0160   52.8995 O   0  0  0  0  0  0  0  0  0  0  0  0
   44.0362   36.8388   53.9119 C   0  0  0  0  0  0  0  0  0  0  0  0
   45.1889   37.6689   53.6853 O   0  0  0  0  0  0  0  0  0  0  0  0
  1  2  1  1  0  0  0
  1  3  1  0  0  0  0
  1  4  2  0  0  0  0
  1 16  1  0  0  0  0
  5  6  1  1  0  0  0
  5  7  1  0  0  0  0
  5 14  1  0  0  0  0
  7  8  1  1  0  0  0
  7  9  1  0  0  0  0
  9 10  1  1  0  0  0
  9 11  1  0  0  0  0
 11 12  1  1  0  0  0
 11 13  1  0  0  0  0
 13 14  1  0  0  0  0
 13 15  1  6  0  0  0
 15 16  1  0  0  0  0
M  CHG  1   3  -1
M  END
>  <CHROM.1>
67.75098895,174.38420403,64.48351508,45.11034603,36.09208199,54.06639986
2.90491004,-1.36394758,1.12479313

>  <Name>
ligand

>  <RI>
0

>  <Rbt.Current_Directory>
/home/itssahil/PROJECTS/Mol_Feturizer/New_Systems/rnas/3B4A

>  <Rbt.Executable>
rbdock ($Id: //depot/dev/client3/rdock/2013.1/src/exe/rbdock.cxx#4 $)

>  <Rbt.Library>
libRbt.so (2013.1, Build901 2013/11/27)

>  <Rbt.Parameter_File>
/export/apps/rDock/src/rDock_2013.1_src/data/scripts/dock_solv.prm

>  <Rbt.Receptor>
prm/pocket_docking_6.prm

>  <SCORE>
-7.82675

>  <SCORE.INTER>
-6.37303

>  <SCORE.INTER.CONST>
1

>  <SCORE.INTER.POLAR>
0

>  <SCORE.INTER.ROT>
3

>  <SCORE.INTER.SOLV>
13.7695

>  <SCORE.INTER.VDW>
-14.4385

>  <SCORE.INTER.norm>
-0.398315

>  <SCORE.INTRA>
-1.45372

>  <SCORE.INTRA.DIHEDRAL>
-1.65348

>  <SCORE.INTRA.DIHEDRAL.0>
2.05999

>  <SCORE.INTRA.POLAR>
0

>  <SCORE.INTRA.POLAR.0>
0

>  <SCORE.INTRA.REPUL>
0

>  <SCORE.INTRA.REPUL.0>
0

>  <SCORE.INTRA.SOLV>
-0.794606

>  <SCORE.INTRA.SOLV.lig_0>
-58.7001

>  <SCORE.INTRA.VDW>
-0.22968

>  <SCORE.INTRA.VDW.0>
-0.401036

>  <SCORE.INTRA.norm>
-0.0908576

>  <SCORE.RESTR>
0

>  <SCORE.RESTR.CAVITY>
0

>  <SCORE.RESTR.norm>
0

>  <SCORE.SYSTEM>
0

>  <SCORE.SYSTEM.CONST>
0

>  <SCORE.SYSTEM.DIHEDRAL>
0

>  <SCORE.SYSTEM.SOLV>
0

>  <SCORE.SYSTEM.norm>
0

>  <SCORE.heavy>
16

>  <SCORE.norm>
-0.489172

>  <RMSD>
5.638

$$$$
ligand
 OpenBabel11021811463D
libRbt.so/2013.1/901 2013/11/27
 16 16  0  0  0  0  0  0  0  0999 V2000
   47.1295   33.6641   55.2370 P   0  0  2  0  0  0  0  0  0  0  0  0
   48.5509   33.2695   55.3996 O   0  0  0  0  0  0  0  0  0  0  0  0
   46.3755   33.5286   56.6562 O   0  5  0  0  0  0  0  0  0  0  0  0
   46.4387   32.6877   54.1477 O   0  0  0  0  0  0  0  0  0  0  0  0
   46.3986   38.3831   52.1445 C   0  0  2  0  0  0  0  0  0  0  0  0
   46.9584   39.3328   53.0799 O   0  0  0  0  0  0  0  0  0  0  0  0
   44.9476   38.7813   51.7468 C   0  0  2  0  0  0  0  0  0  0  0  0
   44.9510   40.1327   51.1569 N   0  0  0  0  0  0  0  0  0  0  0  0
   44.0633   38.7585   53.0129 C   0  0  1  0  0  0  0  0  0  0  0  0
   42.7129   39.1166   52.6742 O   0  0  0  0  0  0  0  0  0  0  0  0
   44.1007   37.3245   53.5809 C   0  0  2  0  0  0  0  0  0  0  0  0
   43.2921   37.2672   54.7683 O   0  0  0  0  0  0  0  0  0  0  0  0
   45.5803   36.9765   53.9307 C   0  0  2  0  0  0  0  0  0  0  0  0
   46.4188   37.0462   52.7391 O   0  0  0  0  0  0  0  0  0  0  0  0
   45.6917   35.5474   54.4864 C   0  0  0  0  0  0  0  0  0  0  0  0
   47.0663   35.2030   54.7341 O   0  0  0  0  0  0  0  0  0  0  0  0
  1  2  1  1  0  0  0
  1  3  1  0  0  0  0
  1  4  2  0  0  0  0
  1 16  1  0  0  0  0
  5  6  1  1  0  0  0
  5  7  1  0  0  0  0
  5 14  1  0  0  0  0
  7  8  1  1  0  0  0
  7  9  1  0  0  0  0
  9 10  1  6  0  0  0
  9 11  1  0  0  0  0
 11 12  1  1  0  0  0
 11 13  1  0  0  0  0
 13 14  1  0  0  0  0
 13 15  1  6  0  0  0
 15 16  1  0  0  0  0
M  CHG  1   3  -1
M  END
>  <CHROM.1>
176.63158269,-176.84620663,175.90033406,45.79797347,36.41061126,53.87226619
-1.16924287,0.24772453,-0.58851136

>  <Name>
ligand

>  <RI>
0

>  <Rbt.Current_Directory>
/home/itssahil/PROJECTS/Mol_Feturizer/New_Systems/rnas/3B4A

>  <Rbt.Executable>
rbdock ($Id: //depot/dev/client3/rdock/2013.1/src/exe/rbdock.cxx#4 $)

>  <Rbt.Library>
libRbt.so (2013.1, Build901 2013/11/27)

>  <Rbt.Parameter_File>
/export/apps/rDock/src/rDock_2013.1_src/data/scripts/dock_solv.prm

>  <Rbt.Receptor>
prm/pocket_docking_8.prm

>  <SCORE>
-8.47864

>  <SCORE.INTER>
-7.08048

>  <SCORE.INTER.CONST>
1

>  <SCORE.INTER.POLAR>
0

>  <SCORE.INTER.ROT>
3

>  <SCORE.INTER.SOLV>
16.1545

>  <SCORE.INTER.VDW>
-15.7052

>  <SCORE.INTER.norm>
-0.44253

>  <SCORE.INTRA>
-1.39815

>  <SCORE.INTRA.DIHEDRAL>
-1.94124

>  <SCORE.INTRA.DIHEDRAL.0>
2.05999

>  <SCORE.INTRA.POLAR>
0

>  <SCORE.INTRA.POLAR.0>
0

>  <SCORE.INTRA.REPUL>
0

>  <SCORE.INTRA.REPUL.0>
0

>  <SCORE.INTRA.SOLV>
-0.384572

>  <SCORE.INTRA.SOLV.lig_0>
-58.7001

>  <SCORE.INTRA.VDW>
-0.235245

>  <SCORE.INTRA.VDW.0>
-0.401036

>  <SCORE.INTRA.norm>
-0.0873845

>  <SCORE.RESTR>
0

>  <SCORE.RESTR.CAVITY>
0

>  <SCORE.RESTR.norm>
0

>  <SCORE.SYSTEM>
0

>  <SCORE.SYSTEM.CONST>
0

>  <SCORE.SYSTEM.DIHEDRAL>
0

>  <SCORE.SYSTEM.SOLV>
0

>  <SCORE.SYSTEM.norm>
0

>  <SCORE.heavy>
16

>  <SCORE.norm>
-0.529915

>  <RMSD>
5.641

$$$$
ligand
 OpenBabel11021811463D
libRbt.so/2013.1/901 2013/11/27
 16 16  0  0  0  0  0  0  0  0999 V2000
   46.1328   34.0165   55.6572 P   0  0  2  0  0  0  0  0  0  0  0  0
   46.6845   33.4023   56.8904 O   0  0  0  0  0  0  0  0  0  0  0  0
   45.1475   35.2273   56.0624 O   0  5  0  0  0  0  0  0  0  0  0  0
   45.3150   32.8890   54.8341 O   0  0  0  0  0  0  0  0  0  0  0  0
   49.2763   35.3984   51.1695 C   0  0  2  0  0  0  0  0  0  0  0  0
   49.7481   34.3007   50.3554 O   0  0  0  0  0  0  0  0  0  0  0  0
   50.4663   36.1621   51.8198 C   0  0  2  0  0  0  0  0  0  0  0  0
   51.3665   36.6630   50.7648 N   0  0  0  0  0  0  0  0  0  0  0  0
   51.2283   35.1920   52.7492 C   0  0  1  0  0  0  0  0  0  0  0  0
   52.3315   35.8731   53.3703 O   0  0  0  0  0  0  0  0  0  0  0  0
   50.2371   34.7047   53.8265 C   0  0  2  0  0  0  0  0  0  0  0  0
   50.9117   33.7910   54.7081 O   0  0  0  0  0  0  0  0  0  0  0  0
   49.0577   33.9767   53.1111 C   0  0  2  0  0  0  0  0  0  0  0  0
   48.3719   34.8856   52.1993 O   0  0  0  0  0  0  0  0  0  0  0  0
   48.0194   33.4805   54.1305 C   0  0  0  0  0  0  0  0  0  0  0  0
   47.3567   34.5893   54.7634 O   0  0  0  0  0  0  0  0  0  0  0  0
  1  2  1  1  0  0  0
  1  3  1  0  0  0  0
  1  4  2  0  0  0  0
  1 16  1  0  0  0  0
  5  6  1  1  0  0  0
  5  7  1  0  0  0  0
  5 14  1  0  0  0  0
  7  8  1  6  0  0  0
  7  9  1  0  0  0  0
  9 10  1  1  0  0  0
  9 11  1  0  0  0  0
 11 12  1  1  0  0  0
 11 13  1  0  0  0  0
 13 14  1  0  0  0  0
 13 15  1  1  0  0  0
 15 16  1  0  0  0  0
M  CHG  1   3  -1
M  END
>  <CHROM.1>
67.11487886,171.76077305,75.29193417,48.60733272,34.58945218,53.72800415
2.45019162,0.16286051,1.76758528

>  <Name>
ligand

>  <RI>
0

>  <Rbt.Current_Directory>
/home/itssahil/PROJECTS/Mol_Feturizer/New_Systems/rnas/3B4A

>  <Rbt.Executable>
rbdock ($Id: //depot/dev/client3/rdock/2013.1/src/exe/rbdock.cxx#4 $)

>  <Rbt.Library>
libRbt.so (2013.1, Build901 2013/11/27)

>  <Rbt.Parameter_File>
/export/apps/rDock/src/rDock_2013.1_src/data/scripts/dock_solv.prm

>  <Rbt.Receptor>
prm/pocket_docking_4.prm

>  <SCORE>
-5.32148

>  <SCORE.INTER>
-4.24601

>  <SCORE.INTER.CONST>
1

>  <SCORE.INTER.POLAR>
0

>  <SCORE.INTER.ROT>
3

>  <SCORE.INTER.SOLV>
14.8894

>  <SCORE.INTER.VDW>
-13.3938

>  <SCORE.INTER.norm>
-0.265375

>  <SCORE.INTRA>
-1.07547

>  <SCORE.INTRA.DIHEDRAL>
-1.17987

>  <SCORE.INTRA.DIHEDRAL.0>
2.05999

>  <SCORE.INTRA.POLAR>
0

>  <SCORE.INTRA.POLAR.0>
0

>  <SCORE.INTRA.REPUL>
0

>  <SCORE.INTRA.REPUL.0>
0

>  <SCORE.INTRA.SOLV>
-0.672226

>  <SCORE.INTRA.SOLV.lig_0>
-58.7001

>  <SCORE.INTRA.VDW>
-0.149426

>  <SCORE.INTRA.VDW.0>
-0.401036

>  <SCORE.INTRA.norm>
-0.0672172

>  <SCORE.RESTR>
0

>  <SCORE.RESTR.CAVITY>
0

>  <SCORE.RESTR.norm>
0

>  <SCORE.SYSTEM>
0

>  <SCORE.SYSTEM.CONST>
0

>  <SCORE.SYSTEM.DIHEDRAL>
0

>  <SCORE.SYSTEM.SOLV>
0

>  <SCORE.SYSTEM.norm>
0

>  <SCORE.heavy>
16

>  <SCORE.norm>
-0.332593

>  <RMSD>
5.643

$$$$
ligand
 OpenBabel11021811463D
libRbt.so/2013.1/901 2013/11/27
 16 16  0  0  0  0  0  0  0  0999 V2000
   43.5704   38.4761   52.8516 P   0  0  2  0  0  0  0  0  0  0  0  0
   42.1686   38.5465   52.3695 O   0  0  0  0  0  0  0  0  0  0  0  0
   43.6711   39.1866   54.2959 O   0  5  0  0  0  0  0  0  0  0  0  0
   44.5252   39.2390   51.7915 O   0  0  0  0  0  0  0  0  0  0  0  0
   47.3096   34.0452   55.0806 C   0  0  2  0  0  0  0  0  0  0  0  0
   48.1027   33.8772   53.8835 O   0  0  0  0  0  0  0  0  0  0  0  0
   46.2742   32.8930   55.2298 C   0  0  2  0  0  0  0  0  0  0  0  0
   46.9787   31.5982   55.2654 N   0  0  0  0  0  0  0  0  0  0  0  0
   45.3078   32.9370   54.0257 C   0  0  1  0  0  0  0  0  0  0  0  0
   44.3339   31.8858   54.1402 O   0  0  0  0  0  0  0  0  0  0  0  0
   44.6045   34.3101   54.0434 C   0  0  2  0  0  0  0  0  0  0  0  0
   43.6998   34.3901   52.9288 O   0  0  0  0  0  0  0  0  0  0  0  0
   45.6948   35.4186   53.9210 C   0  0  2  0  0  0  0  0  0  0  0  0
   46.6318   35.3414   55.0363 O   0  0  0  0  0  0  0  0  0  0  0  0
   45.0604   36.8187   53.9517 C   0  0  0  0  0  0  0  0  0  0  0  0
   44.0034   36.9203   52.9813 O   0  0  0  0  0  0  0  0  0  0  0  0
  1  2  1  6  0  0  0
  1  3  1  0  0  0  0
  1  4  2  0  0  0  0
  1 16  1  0  0  0  0
  5  6  1  6  0  0  0
  5  7  1  0  0  0  0
  5 14  1  0  0  0  0
  7  8  1  6  0  0  0
  7  9  1  0  0  0  0
  9 10  1  1  0  0  0
  9 11  1  0  0  0  0
 11 12  1  6  0  0  0
 11 13  1  0  0  0  0
 13 14  1  0  0  0  0
 13 15  1  1  0  0  0
 15 16  1  0  0  0  0
M  CHG  1   3  -1
M  END
>  <CHROM.1>
-52.06432848,-169.07075160,-155.09429151,44.97234595,35.65636353,53.75508544
2.04015112,-0.34852651,-0.13601904

>  <Name>
ligand

>  <RI>
0

>  <Rbt.Current_Directory>
/home/itssahil/PROJECTS/Mol_Feturizer/New_Systems/rnas/3B4A

>  <Rbt.Executable>
rbdock ($Id: //depot/dev/client3/rdock/2013.1/src/exe/rbdock.cxx#4 $)

>  <Rbt.Library>
libRbt.so (2013.1, Build901 2013/11/27)

>  <Rbt.Parameter_File>
/export/apps/rDock/src/rDock_2013.1_src/data/scripts/dock_solv.prm

>  <Rbt.Receptor>
prm/pocket_docking_8.prm

>  <SCORE>
-8.03789

>  <SCORE.INTER>
-8.42299

>  <SCORE.INTER.CONST>
1

>  <SCORE.INTER.POLAR>
0

>  <SCORE.INTER.ROT>
3

>  <SCORE.INTER.SOLV>
17.4386

>  <SCORE.INTER.VDW>
-17.0282

>  <SCORE.INTER.norm>
-0.526437

>  <SCORE.INTRA>
0.385096

>  <SCORE.INTRA.DIHEDRAL>
-0.373304

>  <SCORE.INTRA.DIHEDRAL.0>
2.05999

>  <SCORE.INTRA.POLAR>
0

>  <SCORE.INTRA.POLAR.0>
0

>  <SCORE.INTRA.REPUL>
0

>  <SCORE.INTRA.REPUL.0>
0

>  <SCORE.INTRA.SOLV>
-0.00206757

>  <SCORE.INTRA.SOLV.lig_0>
-58.7001

>  <SCORE.INTRA.VDW>
0.572781

>  <SCORE.INTRA.VDW.0>
-0.401036

>  <SCORE.INTRA.norm>
0.0240685

>  <SCORE.RESTR>
0

>  <SCORE.RESTR.CAVITY>
0

>  <SCORE.RESTR.norm>
0

>  <SCORE.SYSTEM>
0

>  <SCORE.SYSTEM.CONST>
0

>  <SCORE.SYSTEM.DIHEDRAL>
0

>  <SCORE.SYSTEM.SOLV>
0

>  <SCORE.SYSTEM.norm>
0

>  <SCORE.heavy>
16

>  <SCORE.norm>
-0.502368

>  <RMSD>
5.645

$$$$
ligand
 OpenBabel11021811463D
libRbt.so/2013.1/901 2013/11/27
 16 16  0  0  0  0  0  0  0  0999 V2000
   43.8894   39.2728   53.0073 P   0  0  2  0  0  0  0  0  0  0  0  0
   43.7110   39.9418   54.3199 O   0  0  0  0  0  0  0  0  0  0  0  0
   44.4769   40.3352   51.9457 O   0  5  0  0  0  0  0  0  0  0  0  0
   42.4539   38.7226   52.5032 O   0  0  0  0  0  0  0  0  0  0  0  0
   45.4900   33.7789   55.4386 C   0  0  2  0  0  0  0  0  0  0  0  0
   46.7787   34.1631   55.9694 O   0  0  0  0  0  0  0  0  0  0  0  0
   45.6490   32.9786   54.1133 C   0  0  2  0  0  0  0  0  0  0  0  0
   46.4752   31.7816   54.3560 N   0  0  0  0  0  0  0  0  0  0  0  0
   46.3281   33.8869   53.0649 C   0  0  1  0  0  0  0  0  0  0  0  0
   46.4824   33.1749   51.8257 O   0  0  0  0  0  0  0  0  0  0  0  0
   45.4195   35.1162   52.8558 C   0  0  2  0  0  0  0  0  0  0  0  0
   46.0255   35.9906   51.8887 O   0  0  0  0  0  0  0  0  0  0  0  0
   45.2766   35.8555   54.2217 C   0  0  2  0  0  0  0  0  0  0  0  0
   44.6780   34.9766   55.2203 O   0  0  0  0  0  0  0  0  0  0  0  0
   44.3637   37.0853   54.0877 C   0  0  0  0  0  0  0  0  0  0  0  0
   44.9333   38.0459   53.1810 O   0  0  0  0  0  0  0  0  0  0  0  0
  1  2  1  1  0  0  0
  1  3  1  0  0  0  0
  1  4  2  0  0  0  0
  1 16  1  0  0  0  0
  5  6  1  6  0  0  0
  5  7  1  0  0  0  0
  5 14  1  0  0  0  0
  7  8  1  1  0  0  0
  7  9  1  0  0  0  0
  9 10  1  6  0  0  0
  9 11  1  0  0  0  0
 11 12  1  6  0  0  0
 11 13  1  0  0  0  0
 13 14  1  0  0  0  0
 13 15  1  6  0  0  0
 15 16  1  0  0  0  0
M  CHG  1   3  -1
M  END
>  <CHROM.1>
-62.87905433,176.48861623,63.00626872,45.04424866,36.26167525,53.56031033
2.59733342,1.14964215,-1.17345496

>  <Name>
ligand

>  <RI>
0

>  <Rbt.Current_Directory>
/home/itssahil/PROJECTS/Mol_Feturizer/New_Systems/rnas/3B4A

>  <Rbt.Executable>
rbdock ($Id: //depot/dev/client3/rdock/2013.1/src/exe/rbdock.cxx#4 $)

>  <Rbt.Library>
libRbt.so (2013.1, Build901 2013/11/27)

>  <Rbt.Parameter_File>
/export/apps/rDock/src/rDock_2013.1_src/data/scripts/dock_solv.prm

>  <Rbt.Receptor>
prm/pocket_docking_6.prm

>  <SCORE>
-7.48014

>  <SCORE.INTER>
-6.159

>  <SCORE.INTER.CONST>
1

>  <SCORE.INTER.POLAR>
0

>  <SCORE.INTER.ROT>
3

>  <SCORE.INTER.SOLV>
14.9889

>  <SCORE.INTER.VDW>
-14.7023

>  <SCORE.INTER.norm>
-0.384938

>  <SCORE.INTRA>
-1.32114

>  <SCORE.INTRA.DIHEDRAL>
-1.95289

>  <SCORE.INTRA.DIHEDRAL.0>
2.05999

>  <SCORE.INTRA.POLAR>
0

>  <SCORE.INTRA.POLAR.0>
0

>  <SCORE.INTRA.REPUL>
0

>  <SCORE.INTRA.REPUL.0>
0

>  <SCORE.INTRA.SOLV>
-0.579257

>  <SCORE.INTRA.SOLV.lig_0>
-58.7001

>  <SCORE.INTRA.VDW>
-0.0550693

>  <SCORE.INTRA.VDW.0>
-0.401036

>  <SCORE.INTRA.norm>
-0.0825713

>  <SCORE.RESTR>
0

>  <SCORE.RESTR.CAVITY>
0

>  <SCORE.RESTR.norm>
0

>  <SCORE.SYSTEM>
0

>  <SCORE.SYSTEM.CONST>
0

>  <SCORE.SYSTEM.DIHEDRAL>
0

>  <SCORE.SYSTEM.SOLV>
0

>  <SCORE.SYSTEM.norm>
0

>  <SCORE.heavy>
16

>  <SCORE.norm>
-0.467509

>  <RMSD>
5.646

$$$$
ligand
 OpenBabel11021811463D
libRbt.so/2013.1/901 2013/11/27
 16 16  0  0  0  0  0  0  0  0999 V2000
   47.1304   33.6852   55.2169 P   0  0  2  0  0  0  0  0  0  0  0  0
   48.5542   33.2968   55.3725 O   0  0  0  0  0  0  0  0  0  0  0  0
   46.3909   33.5746   56.6459 O   0  5  0  0  0  0  0  0  0  0  0  0
   46.4310   32.6871   54.1530 O   0  0  0  0  0  0  0  0  0  0  0  0
   46.3617   38.4240   52.1454 C   0  0  2  0  0  0  0  0  0  0  0  0
   46.9134   39.3667   53.0926 O   0  0  0  0  0  0  0  0  0  0  0  0
   44.9072   38.8145   51.7528 C   0  0  2  0  0  0  0  0  0  0  0  0
   44.8988   40.1732   51.1800 N   0  0  0  0  0  0  0  0  0  0  0  0
   44.0235   38.7680   53.0186 C   0  0  1  0  0  0  0  0  0  0  0  0
   42.6699   39.1185   52.6846 O   0  0  0  0  0  0  0  0  0  0  0  0
   44.0735   37.3273   53.5685 C   0  0  2  0  0  0  0  0  0  0  0  0
   43.2656   37.2480   54.7552 O   0  0  0  0  0  0  0  0  0  0  0  0
   45.5562   36.9879   53.9138 C   0  0  2  0  0  0  0  0  0  0  0  0
   46.3938   37.0799   52.7231 O   0  0  0  0  0  0  0  0  0  0  0  0
   45.6802   35.5529   54.4515 C   0  0  0  0  0  0  0  0  0  0  0  0
   47.0584   35.2143   54.6861 O   0  0  0  0  0  0  0  0  0  0  0  0
  1  2  1  1  0  0  0
  1  3  1  0  0  0  0
  1  4  2  0  0  0  0
  1 16  1  0  0  0  0
  5  6  1  1  0  0  0
  5  7  1  0  0  0  0
  5 14  1  0  0  0  0
  7  8  1  1  0  0  0
  7  9  1  0  0  0  0
  9 10  1  6  0  0  0
  9 11  1  0  0  0  0
 11 12  1  1  0  0  0
 11 13  1  0  0  0  0
 13 14  1  0  0  0  0
 13 15  1  6  0  0  0
 15 16  1  0  0  0  0
M  CHG  1   3  -1
M  END
>  <CHROM.1>
176.24414502,-178.69603145,176.14777564,45.77718078,36.42933053,53.86282201
-1.16346073,0.23941877,-0.58268252

>  <Name>
ligand

>  <RI>
0

>  <Rbt.Current_Directory>
/home/itssahil/PROJECTS/Mol_Feturizer/New_Systems/rnas/3B4A

>  <Rbt.Executable>
rbdock ($Id: //depot/dev/client3/rdock/2013.1/src/exe/rbdock.cxx#4 $)

>  <Rbt.Library>
libRbt.so (2013.1, Build901 2013/11/27)

>  <Rbt.Parameter_File>
/export/apps/rDock/src/rDock_2013.1_src/data/scripts/dock_solv.prm

>  <Rbt.Receptor>
prm/pocket_docking_8.prm

>  <SCORE>
-8.54363

>  <SCORE.INTER>
-7.12721

>  <SCORE.INTER.CONST>
1

>  <SCORE.INTER.POLAR>
0

>  <SCORE.INTER.ROT>
3

>  <SCORE.INTER.SOLV>
16.1736

>  <SCORE.INTER.VDW>
-15.7427

>  <SCORE.INTER.norm>
-0.445451

>  <SCORE.INTRA>
-1.41642

>  <SCORE.INTRA.DIHEDRAL>
-1.97522

>  <SCORE.INTRA.DIHEDRAL.0>
2.05999

>  <SCORE.INTRA.POLAR>
0

>  <SCORE.INTRA.POLAR.0>
0

>  <SCORE.INTRA.REPUL>
0

>  <SCORE.INTRA.REPUL.0>
0

>  <SCORE.INTRA.SOLV>
-0.392027

>  <SCORE.INTRA.SOLV.lig_0>
-58.7001

>  <SCORE.INTRA.VDW>
-0.232793

>  <SCORE.INTRA.VDW.0>
-0.401036

>  <SCORE.INTRA.norm>
-0.0885261

>  <SCORE.RESTR>
0

>  <SCORE.RESTR.CAVITY>
0

>  <SCORE.RESTR.norm>
0

>  <SCORE.SYSTEM>
0

>  <SCORE.SYSTEM.CONST>
0

>  <SCORE.SYSTEM.DIHEDRAL>
0

>  <SCORE.SYSTEM.SOLV>
0

>  <SCORE.SYSTEM.norm>
0

>  <SCORE.heavy>
16

>  <SCORE.norm>
-0.533977

>  <RMSD>
5.653

$$$$
ligand
 OpenBabel11021811463D
libRbt.so/2013.1/901 2013/11/27
 16 16  0  0  0  0  0  0  0  0999 V2000
   45.4905   34.5064   55.6015 P   0  0  2  0  0  0  0  0  0  0  0  0
   46.4827   33.9450   56.5517 O   0  0  0  0  0  0  0  0  0  0  0  0
   44.3248   35.2515   56.4303 O   0  5  0  0  0  0  0  0  0  0  0  0
   44.8630   33.2977   54.7283 O   0  0  0  0  0  0  0  0  0  0  0  0
   49.7874   35.9421   51.3446 C   0  0  2  0  0  0  0  0  0  0  0  0
   50.3496   37.0854   52.0279 O   0  0  0  0  0  0  0  0  0  0  0  0
   48.8471   36.3904   50.1883 C   0  0  2  0  0  0  0  0  0  0  0  0
   49.5995   37.2301   49.2381 N   0  0  0  0  0  0  0  0  0  0  0  0
   47.6722   37.1932   50.7889 C   0  0  1  0  0  0  0  0  0  0  0  0
   46.7816   37.6157   49.7425 O   0  0  0  0  0  0  0  0  0  0  0  0
   46.9276   36.2645   51.7704 C   0  0  2  0  0  0  0  0  0  0  0  0
   45.8284   36.9827   52.3562 O   0  0  0  0  0  0  0  0  0  0  0  0
   47.9285   35.8282   52.8841 C   0  0  2  0  0  0  0  0  0  0  0  0
   49.0595   35.1118   52.3049 O   0  0  0  0  0  0  0  0  0  0  0  0
   47.2529   34.8815   53.8896 C   0  0  0  0  0  0  0  0  0  0  0  0
   46.2346   35.5724   54.6346 O   0  0  0  0  0  0  0  0  0  0  0  0
  1  2  1  1  0  0  0
  1  3  1  0  0  0  0
  1  4  2  0  0  0  0
  1 16  1  0  0  0  0
  5  6  1  1  0  0  0
  5  7  1  0  0  0  0
  5 14  1  0  0  0  0
  7  8  1  6  0  0  0
  7  9  1  0  0  0  0
  9 10  1  6  0  0  0
  9 11  1  0  0  0  0
 11 12  1  1  0  0  0
 11 13  1  0  0  0  0
 13 14  1  0  0  0  0
 13 15  1  1  0  0  0
 15 16  1  0  0  0  0
M  CHG  1   3  -1
M  END
>  <CHROM.1>
-66.70939044,176.15366733,61.60485654,47.15954893,35.70703420,53.04889379
-2.12040106,0.16419801,-1.03354948

>  <Name>
ligand

>  <RI>
0

>  <Rbt.Current_Directory>
/home/itssahil/PROJECTS/Mol_Feturizer/New_Systems/rnas/3B4A

>  <Rbt.Executable>
rbdock ($Id: //depot/dev/client3/rdock/2013.1/src/exe/rbdock.cxx#4 $)

>  <Rbt.Library>
libRbt.so (2013.1, Build901 2013/11/27)

>  <Rbt.Parameter_File>
/export/apps/rDock/src/rDock_2013.1_src/data/scripts/dock_solv.prm

>  <Rbt.Receptor>
prm/pocket_docking_5.prm

>  <SCORE>
-6.2744

>  <SCORE.INTER>
-4.92834

>  <SCORE.INTER.CONST>
1

>  <SCORE.INTER.POLAR>
0

>  <SCORE.INTER.ROT>
3

>  <SCORE.INTER.SOLV>
14.1316

>  <SCORE.INTER.VDW>
-13.5961

>  <SCORE.INTER.norm>
-0.308021

>  <SCORE.INTRA>
-1.34606

>  <SCORE.INTRA.DIHEDRAL>
-1.82134

>  <SCORE.INTRA.DIHEDRAL.0>
2.05999

>  <SCORE.INTRA.POLAR>
0

>  <SCORE.INTRA.POLAR.0>
0

>  <SCORE.INTRA.REPUL>
0

>  <SCORE.INTRA.REPUL.0>
0

>  <SCORE.INTRA.SOLV>
-0.613422

>  <SCORE.INTRA.SOLV.lig_0>
-58.7001

>  <SCORE.INTRA.VDW>
-0.128683

>  <SCORE.INTRA.VDW.0>
-0.401036

>  <SCORE.INTRA.norm>
-0.0841291

>  <SCORE.RESTR>
0

>  <SCORE.RESTR.CAVITY>
0

>  <SCORE.RESTR.norm>
0

>  <SCORE.SYSTEM>
0

>  <SCORE.SYSTEM.CONST>
0

>  <SCORE.SYSTEM.DIHEDRAL>
0

>  <SCORE.SYSTEM.SOLV>
0

>  <SCORE.SYSTEM.norm>
0

>  <SCORE.heavy>
16

>  <SCORE.norm>
-0.39215

>  <RMSD>
5.657

$$$$
ligand
 OpenBabel11021811463D
libRbt.so/2013.1/901 2013/11/27
 16 16  0  0  0  0  0  0  0  0999 V2000
   47.1280   33.7123   55.1920 P   0  0  2  0  0  0  0  0  0  0  0  0
   48.5503   33.3316   55.3773 O   0  0  0  0  0  0  0  0  0  0  0  0
   46.3628   33.6115   56.6082 O   0  5  0  0  0  0  0  0  0  0  0  0
   46.4525   32.7015   54.1247 O   0  0  0  0  0  0  0  0  0  0  0  0
   46.3532   38.4348   52.0833 C   0  0  2  0  0  0  0  0  0  0  0  0
   46.9218   39.3770   53.0211 O   0  0  0  0  0  0  0  0  0  0  0  0
   44.8966   38.8329   51.7069 C   0  0  2  0  0  0  0  0  0  0  0  0
   44.8894   40.1899   51.1301 N   0  0  0  0  0  0  0  0  0  0  0  0
   44.0276   38.7955   52.9832 C   0  0  1  0  0  0  0  0  0  0  0  0
   42.6723   39.1532   52.6642 O   0  0  0  0  0  0  0  0  0  0  0  0
   44.0756   37.3562   53.5369 C   0  0  2  0  0  0  0  0  0  0  0  0
   43.2814   37.2853   54.7333 O   0  0  0  0  0  0  0  0  0  0  0  0
   45.5602   37.0089   53.8656 C   0  0  2  0  0  0  0  0  0  0  0  0
   46.3841   37.0922   52.6647 O   0  0  0  0  0  0  0  0  0  0  0  0
   45.6820   35.5748   54.4061 C   0  0  0  0  0  0  0  0  0  0  0  0
   47.0593   35.2361   54.6459 O   0  0  0  0  0  0  0  0  0  0  0  0
  1  2  1  1  0  0  0
  1  3  1  0  0  0  0
  1  4  2  0  0  0  0
  1 16  1  0  0  0  0
  5  6  1  1  0  0  0
  5  7  1  0  0  0  0
  5 14  1  0  0  0  0
  7  8  1  1  0  0  0
  7  9  1  0  0  0  0
  9 10  1  6  0  0  0
  9 11  1  0  0  0  0
 11 12  1  1  0  0  0
 11 13  1  0  0  0  0
 13 14  1  0  0  0  0
 13 15  1  6  0  0  0
 15 16  1  0  0  0  0
M  CHG  1   3  -1
M  END
>  <CHROM.1>
177.17442324,-179.19100773,177.18983517,45.77647462,36.45316227,53.82557068
-1.16298418,0.25030490,-0.59044760

>  <Name>
ligand

>  <RI>
0

>  <Rbt.Current_Directory>
/home/itssahil/PROJECTS/Mol_Feturizer/New_Systems/rnas/3B4A

>  <Rbt.Executable>
rbdock ($Id: //depot/dev/client3/rdock/2013.1/src/exe/rbdock.cxx#4 $)

>  <Rbt.Library>
libRbt.so (2013.1, Build901 2013/11/27)

>  <Rbt.Parameter_File>
/export/apps/rDock/src/rDock_2013.1_src/data/scripts/dock_solv.prm

>  <Rbt.Receptor>
prm/pocket_docking_7.prm

>  <SCORE>
-8.50847

>  <SCORE.INTER>
-7.06382

>  <SCORE.INTER.CONST>
1

>  <SCORE.INTER.POLAR>
0

>  <SCORE.INTER.ROT>
3

>  <SCORE.INTER.SOLV>
15.9257

>  <SCORE.INTER.VDW>
-15.6178

>  <SCORE.INTER.norm>
-0.441489

>  <SCORE.INTRA>
-1.44465

>  <SCORE.INTRA.DIHEDRAL>
-2.01346

>  <SCORE.INTRA.DIHEDRAL.0>
2.05999

>  <SCORE.INTRA.POLAR>
0

>  <SCORE.INTRA.POLAR.0>
0

>  <SCORE.INTRA.REPUL>
0

>  <SCORE.INTRA.REPUL.0>
0

>  <SCORE.INTRA.SOLV>
-0.396615

>  <SCORE.INTRA.SOLV.lig_0>
-58.7001

>  <SCORE.INTRA.VDW>
-0.239608

>  <SCORE.INTRA.VDW.0>
-0.401036

>  <SCORE.INTRA.norm>
-0.0902904

>  <SCORE.RESTR>
0

>  <SCORE.RESTR.CAVITY>
0

>  <SCORE.RESTR.norm>
0

>  <SCORE.SYSTEM>
0

>  <SCORE.SYSTEM.CONST>
0

>  <SCORE.SYSTEM.DIHEDRAL>
0

>  <SCORE.SYSTEM.SOLV>
0

>  <SCORE.SYSTEM.norm>
0

>  <SCORE.heavy>
16

>  <SCORE.norm>
-0.531779

>  <RMSD>
5.665

$$$$
ligand
 OpenBabel11021811463D
libRbt.so/2013.1/901 2013/11/27
 16 16  0  0  0  0  0  0  0  0999 V2000
   46.8159   33.6554   55.4930 P   0  0  2  0  0  0  0  0  0  0  0  0
   46.5931   33.2637   56.9070 O   0  0  0  0  0  0  0  0  0  0  0  0
   46.0729   32.5995   54.5265 O   0  5  0  0  0  0  0  0  0  0  0  0
   48.4062   33.6538   55.1959 O   0  0  0  0  0  0  0  0  0  0  0  0
   46.2099   38.8340   52.1149 C   0  0  2  0  0  0  0  0  0  0  0  0
   46.5561   39.7553   53.1739 O   0  0  0  0  0  0  0  0  0  0  0  0
   44.6738   38.8236   51.8648 C   0  0  2  0  0  0  0  0  0  0  0  0
   44.2206   40.1843   51.5221 N   0  0  0  0  0  0  0  0  0  0  0  0
   43.9665   38.3378   53.1490 C   0  0  1  0  0  0  0  0  0  0  0  0
   42.5437   38.3116   52.9451 O   0  0  0  0  0  0  0  0  0  0  0  0
   44.4806   36.9154   53.4538 C   0  0  2  0  0  0  0  0  0  0  0  0
   43.8475   36.4324   54.6509 O   0  0  0  0  0  0  0  0  0  0  0  0
   46.0243   36.9890   53.6641 C   0  0  2  0  0  0  0  0  0  0  0  0
   46.6818   37.4935   52.4637 O   0  0  0  0  0  0  0  0  0  0  0  0
   46.6061   35.5958   53.9541 C   0  0  0  0  0  0  0  0  0  0  0  0
   46.2000   35.1349   55.2548 O   0  0  0  0  0  0  0  0  0  0  0  0
  1  2  1  1  0  0  0
  1  3  1  0  0  0  0
  1  4  2  0  0  0  0
  1 16  1  0  0  0  0
  5  6  1  1  0  0  0
  5  7  1  0  0  0  0
  5 14  1  0  0  0  0
  7  8  1  1  0  0  0
  7  9  1  0  0  0  0
  9 10  1  6  0  0  0
  9 11  1  0  0  0  0
 11 12  1  1  0  0  0
 11 13  1  0  0  0  0
 13 14  1  0  0  0  0
 13 15  1  6  0  0  0
 15 16  1  0  0  0  0
M  CHG  1   3  -1
M  END
>  <CHROM.1>
-69.97900448,178.89168051,170.81857056,45.72552303,36.34714721,53.94396553
1.23240545,-0.07431985,2.59985097

>  <Name>
ligand

>  <RI>
0

>  <Rbt.Current_Directory>
/home/itssahil/PROJECTS/Mol_Feturizer/New_Systems/rnas/3B4A

>  <Rbt.Executable>
rbdock ($Id: //depot/dev/client3/rdock/2013.1/src/exe/rbdock.cxx#4 $)

>  <Rbt.Library>
libRbt.so (2013.1, Build901 2013/11/27)

>  <Rbt.Parameter_File>
/export/apps/rDock/src/rDock_2013.1_src/data/scripts/dock_solv.prm

>  <Rbt.Receptor>
prm/pocket_docking_6.prm

>  <SCORE>
-9.55947

>  <SCORE.INTER>
-8.44429

>  <SCORE.INTER.CONST>
1

>  <SCORE.INTER.POLAR>
0

>  <SCORE.INTER.ROT>
3

>  <SCORE.INTER.SOLV>
14.9234

>  <SCORE.INTER.VDW>
-16.204

>  <SCORE.INTER.norm>
-0.527768

>  <SCORE.INTRA>
-1.11518

>  <SCORE.INTRA.DIHEDRAL>
-1.56665

>  <SCORE.INTRA.DIHEDRAL.0>
2.05999

>  <SCORE.INTRA.POLAR>
0

>  <SCORE.INTRA.POLAR.0>
0

>  <SCORE.INTRA.REPUL>
0

>  <SCORE.INTRA.REPUL.0>
0

>  <SCORE.INTRA.SOLV>
-0.066392

>  <SCORE.INTRA.SOLV.lig_0>
-58.7001

>  <SCORE.INTRA.VDW>
-0.298658

>  <SCORE.INTRA.VDW.0>
-0.401036

>  <SCORE.INTRA.norm>
-0.0696986

>  <SCORE.RESTR>
0

>  <SCORE.RESTR.CAVITY>
0

>  <SCORE.RESTR.norm>
0

>  <SCORE.SYSTEM>
0

>  <SCORE.SYSTEM.CONST>
0

>  <SCORE.SYSTEM.DIHEDRAL>
0

>  <SCORE.SYSTEM.SOLV>
0

>  <SCORE.SYSTEM.norm>
0

>  <SCORE.heavy>
16

>  <SCORE.norm>
-0.597467

>  <RMSD>
5.676

$$$$
ligand
 OpenBabel11021811463D
libRbt.so/2013.1/901 2013/11/27
 16 16  0  0  0  0  0  0  0  0999 V2000
   44.4661   40.0962   54.0239 P   0  0  2  0  0  0  0  0  0  0  0  0
   43.8346   40.4028   55.3314 O   0  0  0  0  0  0  0  0  0  0  0  0
   45.4196   41.3240   53.5943 O   0  5  0  0  0  0  0  0  0  0  0  0
   43.3027   39.8861   52.9195 O   0  0  0  0  0  0  0  0  0  0  0  0
   45.0092   34.0574   55.3756 C   0  0  2  0  0  0  0  0  0  0  0  0
   46.0261   34.2160   56.3910 O   0  0  0  0  0  0  0  0  0  0  0  0
   45.6246   33.5273   54.0482 C   0  0  2  0  0  0  0  0  0  0  0  0
   46.2987   32.2396   54.2966 N   0  0  0  0  0  0  0  0  0  0  0  0
   46.6419   34.5650   53.5249 C   0  0  1  0  0  0  0  0  0  0  0  0
   47.2229   34.1042   52.2934 O   0  0  0  0  0  0  0  0  0  0  0  0
   45.8791   35.8846   53.2855 C   0  0  2  0  0  0  0  0  0  0  0  0
   46.7987   36.8792   52.8036 O   0  0  0  0  0  0  0  0  0  0  0  0
   45.2636   36.3457   54.6424 C   0  0  2  0  0  0  0  0  0  0  0  0
   44.3397   35.3397   55.1545 O   0  0  0  0  0  0  0  0  0  0  0  0
   44.4700   37.6512   54.4700 C   0  0  0  0  0  0  0  0  0  0  0  0
   45.3520   38.7478   54.1722 O   0  0  0  0  0  0  0  0  0  0  0  0
  1  2  1  1  0  0  0
  1  3  1  0  0  0  0
  1  4  2  0  0  0  0
  1 16  1  0  0  0  0
  5  6  1  1  0  0  0
  5  7  1  0  0  0  0
  5 14  1  0  0  0  0
  7  8  1  1  0  0  0
  7  9  1  0  0  0  0
  9 10  1  6  0  0  0
  9 11  1  0  0  0  0
 11 12  1  1  0  0  0
 11 13  1  0  0  0  0
 13 14  1  0  0  0  0
 13 15  1  6  0  0  0
 15 16  1  0  0  0  0
M  CHG  1   3  -1
M  END
>  <CHROM.1>
-68.28872297,-179.15605518,64.30376843,45.29933559,36.91468746,54.13271808
2.00940176,0.93718638,-0.40472384

>  <Name>
ligand

>  <RI>
0

>  <Rbt.Current_Directory>
/home/itssahil/PROJECTS/Mol_Feturizer/New_Systems/rnas/3B4A

>  <Rbt.Executable>
rbdock ($Id: //depot/dev/client3/rdock/2013.1/src/exe/rbdock.cxx#4 $)

>  <Rbt.Library>
libRbt.so (2013.1, Build901 2013/11/27)

>  <Rbt.Parameter_File>
/export/apps/rDock/src/rDock_2013.1_src/data/scripts/dock_solv.prm

>  <Rbt.Receptor>
prm/pocket_docking_7.prm

>  <SCORE>
-6.95624

>  <SCORE.INTER>
-5.59473

>  <SCORE.INTER.CONST>
1

>  <SCORE.INTER.POLAR>
0

>  <SCORE.INTER.ROT>
3

>  <SCORE.INTER.SOLV>
10.6321

>  <SCORE.INTER.VDW>
-12.8738

>  <SCORE.INTER.norm>
-0.349671

>  <SCORE.INTRA>
-1.36151

>  <SCORE.INTRA.DIHEDRAL>
-1.7814

>  <SCORE.INTRA.DIHEDRAL.0>
2.05999

>  <SCORE.INTRA.POLAR>
0

>  <SCORE.INTRA.POLAR.0>
0

>  <SCORE.INTRA.REPUL>
0

>  <SCORE.INTRA.REPUL.0>
0

>  <SCORE.INTRA.SOLV>
-0.682756

>  <SCORE.INTRA.SOLV.lig_0>
-58.7001

>  <SCORE.INTRA.VDW>
-0.129436

>  <SCORE.INTRA.VDW.0>
-0.401036

>  <SCORE.INTRA.norm>
-0.0850945

>  <SCORE.RESTR>
0

>  <SCORE.RESTR.CAVITY>
0

>  <SCORE.RESTR.norm>
0

>  <SCORE.SYSTEM>
0

>  <SCORE.SYSTEM.CONST>
0

>  <SCORE.SYSTEM.DIHEDRAL>
0

>  <SCORE.SYSTEM.SOLV>
0

>  <SCORE.SYSTEM.norm>
0

>  <SCORE.heavy>
16

>  <SCORE.norm>
-0.434765

>  <RMSD>
5.678

$$$$
ligand
 OpenBabel11021811463D
libRbt.so/2013.1/901 2013/11/27
 16 16  0  0  0  0  0  0  0  0999 V2000
   46.8338   33.6864   55.4900 P   0  0  2  0  0  0  0  0  0  0  0  0
   46.6297   33.2986   56.9079 O   0  0  0  0  0  0  0  0  0  0  0  0
   46.0725   32.6315   54.5366 O   0  5  0  0  0  0  0  0  0  0  0  0
   48.4196   33.6774   55.1701 O   0  0  0  0  0  0  0  0  0  0  0  0
   46.2086   38.8670   52.1200 C   0  0  2  0  0  0  0  0  0  0  0  0
   46.5500   39.7857   53.1828 O   0  0  0  0  0  0  0  0  0  0  0  0
   44.6732   38.8535   51.8664 C   0  0  2  0  0  0  0  0  0  0  0  0
   44.2173   40.2140   51.5270 N   0  0  0  0  0  0  0  0  0  0  0  0
   43.9642   38.3617   53.1474 C   0  0  1  0  0  0  0  0  0  0  0  0
   42.5420   38.3325   52.9401 O   0  0  0  0  0  0  0  0  0  0  0  0
   44.4813   36.9397   53.4488 C   0  0  2  0  0  0  0  0  0  0  0  0
   43.8467   36.4511   54.6428 O   0  0  0  0  0  0  0  0  0  0  0  0
   46.0244   37.0166   53.6629 C   0  0  2  0  0  0  0  0  0  0  0  0
   46.6833   37.5266   52.4656 O   0  0  0  0  0  0  0  0  0  0  0  0
   46.6091   35.6239   53.9497 C   0  0  0  0  0  0  0  0  0  0  0  0
   46.2207   35.1679   55.2575 O   0  0  0  0  0  0  0  0  0  0  0  0
  1  2  1  1  0  0  0
  1  3  1  0  0  0  0
  1  4  2  0  0  0  0
  1 16  1  0  0  0  0
  5  6  1  1  0  0  0
  5  7  1  0  0  0  0
  5 14  1  0  0  0  0
  7  8  1  1  0  0  0
  7  9  1  0  0  0  0
  9 10  1  6  0  0  0
  9 11  1  0  0  0  0
 11 12  1  1  0  0  0
 11 13  1  0  0  0  0
 13 14  1  0  0  0  0
 13 15  1  6  0  0  0
 15 16  1  0  0  0  0
M  CHG  1   3  -1
M  END
>  <CHROM.1>
-70.99827544,178.66591261,170.86223014,45.73151920,36.37572058,53.94266824
1.22902711,-0.07057274,2.60139690

>  <Name>
ligand

>  <RI>
0

>  <Rbt.Current_Directory>
/home/itssahil/PROJECTS/Mol_Feturizer/New_Systems/rnas/3B4A

>  <Rbt.Executable>
rbdock ($Id: //depot/dev/client3/rdock/2013.1/src/exe/rbdock.cxx#4 $)

>  <Rbt.Library>
libRbt.so (2013.1, Build901 2013/11/27)

>  <Rbt.Parameter_File>
/export/apps/rDock/src/rDock_2013.1_src/data/scripts/dock_solv.prm

>  <Rbt.Receptor>
prm/pocket_docking_7.prm

>  <SCORE>
-9.57269

>  <SCORE.INTER>
-8.47734

>  <SCORE.INTER.CONST>
1

>  <SCORE.INTER.POLAR>
0

>  <SCORE.INTER.ROT>
3

>  <SCORE.INTER.SOLV>
14.8356

>  <SCORE.INTER.VDW>
-16.1968

>  <SCORE.INTER.norm>
-0.529834

>  <SCORE.INTRA>
-1.09535

>  <SCORE.INTRA.DIHEDRAL>
-1.49197

>  <SCORE.INTRA.DIHEDRAL.0>
2.05999

>  <SCORE.INTRA.POLAR>
0

>  <SCORE.INTRA.POLAR.0>
0

>  <SCORE.INTRA.REPUL>
0

>  <SCORE.INTRA.REPUL.0>
0

>  <SCORE.INTRA.SOLV>
-0.0730034

>  <SCORE.INTRA.SOLV.lig_0>
-58.7001

>  <SCORE.INTRA.VDW>
-0.31286

>  <SCORE.INTRA.VDW.0>
-0.401036

>  <SCORE.INTRA.norm>
-0.0684592

>  <SCORE.RESTR>
0

>  <SCORE.RESTR.CAVITY>
0

>  <SCORE.RESTR.norm>
0

>  <SCORE.SYSTEM>
0

>  <SCORE.SYSTEM.CONST>
0

>  <SCORE.SYSTEM.DIHEDRAL>
0

>  <SCORE.SYSTEM.SOLV>
0

>  <SCORE.SYSTEM.norm>
0

>  <SCORE.heavy>
16

>  <SCORE.norm>
-0.598293

>  <RMSD>
5.682

$$$$
ligand
 OpenBabel11021811463D
libRbt.so/2013.1/901 2013/11/27
 16 16  0  0  0  0  0  0  0  0999 V2000
   45.8643   34.1827   55.7462 P   0  0  2  0  0  0  0  0  0  0  0  0
   44.9831   35.1054   56.5044 O   0  0  0  0  0  0  0  0  0  0  0  0
   44.9582   33.2385   54.8035 O   0  5  0  0  0  0  0  0  0  0  0  0
   46.6993   33.2786   56.7963 O   0  0  0  0  0  0  0  0  0  0  0  0
   50.3904   36.3695   52.8086 C   0  0  2  0  0  0  0  0  0  0  0  0
   49.6224   37.4591   52.2490 O   0  0  0  0  0  0  0  0  0  0  0  0
   50.9985   35.4811   51.6847 C   0  0  2  0  0  0  0  0  0  0  0  0
   51.8518   36.3069   50.8105 N   0  0  0  0  0  0  0  0  0  0  0  0
   49.8454   34.8605   50.8658 C   0  0  1  0  0  0  0  0  0  0  0  0
   50.3781   34.0276   49.8222 O   0  0  0  0  0  0  0  0  0  0  0  0
   48.9924   34.0124   51.8321 C   0  0  2  0  0  0  0  0  0  0  0  0
   47.9015   33.4234   51.1039 O   0  0  0  0  0  0  0  0  0  0  0  0
   48.4386   34.9518   52.9472 C   0  0  2  0  0  0  0  0  0  0  0  0
   49.5332   35.5714   53.6859 O   0  0  0  0  0  0  0  0  0  0  0  0
   47.5915   34.1631   53.9591 C   0  0  0  0  0  0  0  0  0  0  0  0
   46.8736   35.0567   54.8284 O   0  0  0  0  0  0  0  0  0  0  0  0
  1  2  1  1  0  0  0
  1  3  1  0  0  0  0
  1  4  2  0  0  0  0
  1 16  1  0  0  0  0
  5  6  1  6  0  0  0
  5  7  1  0  0  0  0
  5 14  1  0  0  0  0
  7  8  1  6  0  0  0
  7  9  1  0  0  0  0
  9 10  1  6  0  0  0
  9 11  1  0  0  0  0
 11 12  1  6  0  0  0
 11 13  1  0  0  0  0
 13 14  1  0  0  0  0
 13 15  1  1  0  0  0
 15 16  1  0  0  0  0
M  CHG  1   3  -1
M  END
>  <CHROM.1>
-168.79404728,173.10100357,-171.95416977,48.18275907,34.78031317,53.38575019
-2.72323538,-0.70604357,-2.26359797

>  <Name>
ligand

>  <RI>
0

>  <Rbt.Current_Directory>
/home/itssahil/PROJECTS/Mol_Feturizer/New_Systems/rnas/3B4A

>  <Rbt.Executable>
rbdock ($Id: //depot/dev/client3/rdock/2013.1/src/exe/rbdock.cxx#4 $)

>  <Rbt.Library>
libRbt.so (2013.1, Build901 2013/11/27)

>  <Rbt.Parameter_File>
/export/apps/rDock/src/rDock_2013.1_src/data/scripts/dock_solv.prm

>  <Rbt.Receptor>
prm/pocket_docking_5.prm

>  <SCORE>
-4.98513

>  <SCORE.INTER>
-3.89261

>  <SCORE.INTER.CONST>
1

>  <SCORE.INTER.POLAR>
0

>  <SCORE.INTER.ROT>
3

>  <SCORE.INTER.SOLV>
15.9892

>  <SCORE.INTER.VDW>
-13.5248

>  <SCORE.INTER.norm>
-0.243288

>  <SCORE.INTRA>
-1.09252

>  <SCORE.INTRA.DIHEDRAL>
-1.27574

>  <SCORE.INTRA.DIHEDRAL.0>
2.05999

>  <SCORE.INTRA.POLAR>
0

>  <SCORE.INTRA.POLAR.0>
0

>  <SCORE.INTRA.REPUL>
0

>  <SCORE.INTRA.REPUL.0>
0

>  <SCORE.INTRA.SOLV>
-0.473351

>  <SCORE.INTRA.SOLV.lig_0>
-58.7001

>  <SCORE.INTRA.VDW>
-0.217975

>  <SCORE.INTRA.VDW.0>
-0.401036

>  <SCORE.INTRA.norm>
-0.0682826

>  <SCORE.RESTR>
0

>  <SCORE.RESTR.CAVITY>
0

>  <SCORE.RESTR.norm>
0

>  <SCORE.SYSTEM>
0

>  <SCORE.SYSTEM.CONST>
0

>  <SCORE.SYSTEM.DIHEDRAL>
0

>  <SCORE.SYSTEM.SOLV>
0

>  <SCORE.SYSTEM.norm>
0

>  <SCORE.heavy>
16

>  <SCORE.norm>
-0.311571

>  <RMSD>
5.683

$$$$
ligand
 OpenBabel11021811463D
libRbt.so/2013.1/901 2013/11/27
 16 16  0  0  0  0  0  0  0  0999 V2000
   46.8267   33.6761   55.4955 P   0  0  2  0  0  0  0  0  0  0  0  0
   46.6470   33.2953   56.9186 O   0  0  0  0  0  0  0  0  0  0  0  0
   46.0557   32.6123   54.5601 O   0  5  0  0  0  0  0  0  0  0  0  0
   48.4074   33.6730   55.1506 O   0  0  0  0  0  0  0  0  0  0  0  0
   46.2131   38.8784   52.1606 C   0  0  2  0  0  0  0  0  0  0  0  0
   46.5386   39.7848   53.2389 O   0  0  0  0  0  0  0  0  0  0  0  0
   44.6814   38.8671   51.8849 C   0  0  2  0  0  0  0  0  0  0  0  0
   44.2296   40.2314   51.5549 N   0  0  0  0  0  0  0  0  0  0  0  0
   43.9545   38.3601   53.1498 C   0  0  1  0  0  0  0  0  0  0  0  0
   42.5354   38.3327   52.9218 O   0  0  0  0  0  0  0  0  0  0  0  0
   44.4681   36.9349   53.4419 C   0  0  2  0  0  0  0  0  0  0  0  0
   43.8167   36.4321   54.6210 O   0  0  0  0  0  0  0  0  0  0  0  0
   46.0078   37.0099   53.6790 C   0  0  2  0  0  0  0  0  0  0  0  0
   46.6835   37.5342   52.4973 O   0  0  0  0  0  0  0  0  0  0  0  0
   46.5893   35.6143   53.9579 C   0  0  0  0  0  0  0  0  0  0  0  0
   46.2028   35.1534   55.2646 O   0  0  0  0  0  0  0  0  0  0  0  0
  1  2  1  1  0  0  0
  1  3  1  0  0  0  0
  1  4  2  0  0  0  0
  1 16  1  0  0  0  0
  5  6  1  1  0  0  0
  5  7  1  0  0  0  0
  5 14  1  0  0  0  0
  7  8  1  1  0  0  0
  7  9  1  0  0  0  0
  9 10  1  6  0  0  0
  9 11  1  0  0  0  0
 11 12  1  1  0  0  0
 11 13  1  0  0  0  0
 13 14  1  0  0  0  0
 13 15  1  6  0  0  0
 15 16  1  0  0  0  0
M  CHG  1   3  -1
M  END
>  <CHROM.1>
-72.06396120,179.32299433,169.79999828,45.72393145,36.37210317,53.95340223
-1.22996197,0.05685737,-0.53178859

>  <Name>
ligand

>  <RI>
0

>  <Rbt.Current_Directory>
/home/itssahil/PROJECTS/Mol_Feturizer/New_Systems/rnas/3B4A

>  <Rbt.Executable>
rbdock ($Id: //depot/dev/client3/rdock/2013.1/src/exe/rbdock.cxx#4 $)

>  <Rbt.Library>
libRbt.so (2013.1, Build901 2013/11/27)

>  <Rbt.Parameter_File>
/export/apps/rDock/src/rDock_2013.1_src/data/scripts/dock_solv.prm

>  <Rbt.Receptor>
prm/pocket_docking_8.prm

>  <SCORE>
-9.5807

>  <SCORE.INTER>
-8.53185

>  <SCORE.INTER.CONST>
1

>  <SCORE.INTER.POLAR>
0

>  <SCORE.INTER.ROT>
3

>  <SCORE.INTER.SOLV>
14.8088

>  <SCORE.INTER.VDW>
-16.2242

>  <SCORE.INTER.norm>
-0.53324

>  <SCORE.INTRA>
-1.04885

>  <SCORE.INTRA.DIHEDRAL>
-1.38287

>  <SCORE.INTRA.DIHEDRAL.0>
2.05999

>  <SCORE.INTRA.POLAR>
0

>  <SCORE.INTRA.POLAR.0>
0

>  <SCORE.INTRA.REPUL>
0

>  <SCORE.INTRA.REPUL.0>
0

>  <SCORE.INTRA.SOLV>
-0.0922791

>  <SCORE.INTRA.SOLV.lig_0>
-58.7001

>  <SCORE.INTRA.VDW>
-0.311277

>  <SCORE.INTRA.VDW.0>
-0.401036

>  <SCORE.INTRA.norm>
-0.0655532

>  <SCORE.RESTR>
0

>  <SCORE.RESTR.CAVITY>
0

>  <SCORE.RESTR.norm>
0

>  <SCORE.SYSTEM>
0

>  <SCORE.SYSTEM.CONST>
0

>  <SCORE.SYSTEM.DIHEDRAL>
0

>  <SCORE.SYSTEM.SOLV>
0

>  <SCORE.SYSTEM.norm>
0

>  <SCORE.heavy>
16

>  <SCORE.norm>
-0.598794

>  <RMSD>
5.683

$$$$
ligand
 OpenBabel11021811463D
libRbt.so/2013.1/901 2013/11/27
 16 16  0  0  0  0  0  0  0  0999 V2000
   45.4864   34.5294   55.5864 P   0  0  2  0  0  0  0  0  0  0  0  0
   46.4881   33.9577   56.5203 O   0  0  0  0  0  0  0  0  0  0  0  0
   44.3235   35.2561   56.4353 O   0  5  0  0  0  0  0  0  0  0  0  0
   44.8578   33.3316   54.6989 O   0  0  0  0  0  0  0  0  0  0  0  0
   49.6808   36.0341   51.2519 C   0  0  2  0  0  0  0  0  0  0  0  0
   50.2771   37.1498   51.9519 O   0  0  0  0  0  0  0  0  0  0  0  0
   48.7147   36.5279   50.1361 C   0  0  2  0  0  0  0  0  0  0  0  0
   49.4516   37.3854   49.1896 N   0  0  0  0  0  0  0  0  0  0  0  0
   47.5679   37.3275   50.7925 C   0  0  1  0  0  0  0  0  0  0  0  0
   46.6542   37.7916   49.7843 O   0  0  0  0  0  0  0  0  0  0  0  0
   46.8385   36.3799   51.7675 C   0  0  2  0  0  0  0  0  0  0  0  0
   45.7659   37.0944   52.4046 O   0  0  0  0  0  0  0  0  0  0  0  0
   47.8642   35.8986   52.8395 C   0  0  2  0  0  0  0  0  0  0  0  0
   48.9690   35.1853   52.2081 O   0  0  0  0  0  0  0  0  0  0  0  0
   47.2043   34.9316   53.8359 C   0  0  0  0  0  0  0  0  0  0  0  0
   46.2185   35.6138   54.6309 O   0  0  0  0  0  0  0  0  0  0  0  0
  1  2  1  1  0  0  0
  1  3  1  0  0  0  0
  1  4  2  0  0  0  0
  1 16  1  0  0  0  0
  5  6  1  1  0  0  0
  5  7  1  0  0  0  0
  5 14  1  0  0  0  0
  7  8  1  6  0  0  0
  7  9  1  0  0  0  0
  9 10  1  6  0  0  0
  9 11  1  0  0  0  0
 11 12  1  1  0  0  0
 11 13  1  0  0  0  0
 13 14  1  0  0  0  0
 13 15  1  1  0  0  0
 15 16  1  0  0  0  0
M  CHG  1   3  -1
M  END
>  <CHROM.1>
-66.83602480,176.10688072,63.47702197,47.09897491,35.78254118,53.02259485
-2.10289333,0.19061844,-1.00726956

>  <Name>
ligand

>  <RI>
0

>  <Rbt.Current_Directory>
/home/itssahil/PROJECTS/Mol_Feturizer/New_Systems/rnas/3B4A

>  <Rbt.Executable>
rbdock ($Id: //depot/dev/client3/rdock/2013.1/src/exe/rbdock.cxx#4 $)

>  <Rbt.Library>
libRbt.so (2013.1, Build901 2013/11/27)

>  <Rbt.Parameter_File>
/export/apps/rDock/src/rDock_2013.1_src/data/scripts/dock_solv.prm

>  <Rbt.Receptor>
prm/pocket_docking_6.prm

>  <SCORE>
-6.24722

>  <SCORE.INTER>
-4.91293

>  <SCORE.INTER.CONST>
1

>  <SCORE.INTER.POLAR>
0

>  <SCORE.INTER.ROT>
3

>  <SCORE.INTER.SOLV>
14.0133

>  <SCORE.INTER.VDW>
-13.5464

>  <SCORE.INTER.norm>
-0.307058

>  <SCORE.INTRA>
-1.33429

>  <SCORE.INTRA.DIHEDRAL>
-1.79788

>  <SCORE.INTRA.DIHEDRAL.0>
2.05999

>  <SCORE.INTRA.POLAR>
0

>  <SCORE.INTRA.POLAR.0>
0

>  <SCORE.INTRA.REPUL>
0

>  <SCORE.INTRA.REPUL.0>
0

>  <SCORE.INTRA.SOLV>
-0.595037

>  <SCORE.INTRA.SOLV.lig_0>
-58.7001

>  <SCORE.INTRA.VDW>
-0.137832

>  <SCORE.INTRA.VDW.0>
-0.401036

>  <SCORE.INTRA.norm>
-0.0833931

>  <SCORE.RESTR>
0

>  <SCORE.RESTR.CAVITY>
0

>  <SCORE.RESTR.norm>
0

>  <SCORE.SYSTEM>
0

>  <SCORE.SYSTEM.CONST>
0

>  <SCORE.SYSTEM.DIHEDRAL>
0

>  <SCORE.SYSTEM.SOLV>
0

>  <SCORE.SYSTEM.norm>
0

>  <SCORE.heavy>
16

>  <SCORE.norm>
-0.390451

>  <RMSD>
5.685

$$$$
ligand
 OpenBabel11021811463D
libRbt.so/2013.1/901 2013/11/27
 16 16  0  0  0  0  0  0  0  0999 V2000
   46.8338   33.6913   55.4901 P   0  0  2  0  0  0  0  0  0  0  0  0
   46.6350   33.3013   56.9082 O   0  0  0  0  0  0  0  0  0  0  0  0
   46.0749   32.6340   54.5376 O   0  5  0  0  0  0  0  0  0  0  0  0
   48.4189   33.6897   55.1663 O   0  0  0  0  0  0  0  0  0  0  0  0
   46.2049   38.8851   52.1496 C   0  0  2  0  0  0  0  0  0  0  0  0
   46.5298   39.7882   53.2308 O   0  0  0  0  0  0  0  0  0  0  0  0
   44.6739   38.8779   51.8701 C   0  0  2  0  0  0  0  0  0  0  0  0
   44.2259   40.2439   51.5423 N   0  0  0  0  0  0  0  0  0  0  0  0
   43.9427   38.3695   53.1320 C   0  0  1  0  0  0  0  0  0  0  0  0
   42.5241   38.3458   52.9006 O   0  0  0  0  0  0  0  0  0  0  0  0
   44.4525   36.9425   53.4220 C   0  0  2  0  0  0  0  0  0  0  0  0
   43.7971   36.4384   54.5983 O   0  0  0  0  0  0  0  0  0  0  0  0
   45.9918   37.0135   53.6630 C   0  0  2  0  0  0  0  0  0  0  0  0
   46.6715   37.5391   52.4842 O   0  0  0  0  0  0  0  0  0  0  0  0
   46.5695   35.6160   53.9400 C   0  0  0  0  0  0  0  0  0  0  0  0
   46.2137   35.1704   55.2606 O   0  0  0  0  0  0  0  0  0  0  0  0
  1  2  1  1  0  0  0
  1  3  1  0  0  0  0
  1  4  2  0  0  0  0
  1 16  1  0  0  0  0
  5  6  1  1  0  0  0
  5  7  1  0  0  0  0
  5 14  1  0  0  0  0
  7  8  1  1  0  0  0
  7  9  1  0  0  0  0
  9 10  1  6  0  0  0
  9 11  1  0  0  0  0
 11 12  1  1  0  0  0
 11 13  1  0  0  0  0
 13 14  1  0  0  0  0
 13 15  1  6  0  0  0
 15 16  1  0  0  0  0
M  CHG  1   3  -1
M  END
>  <CHROM.1>
-73.85899659,179.40881454,172.24182544,45.71905009,36.38239064,53.94145773
-1.22674968,0.05416381,-0.53285233

>  <Name>
ligand

>  <RI>
0

>  <Rbt.Current_Directory>
/home/itssahil/PROJECTS/Mol_Feturizer/New_Systems/rnas/3B4A

>  <Rbt.Executable>
rbdock ($Id: //depot/dev/client3/rdock/2013.1/src/exe/rbdock.cxx#4 $)

>  <Rbt.Library>
libRbt.so (2013.1, Build901 2013/11/27)

>  <Rbt.Parameter_File>
/export/apps/rDock/src/rDock_2013.1_src/data/scripts/dock_solv.prm

>  <Rbt.Receptor>
prm/pocket_docking_8.prm

>  <SCORE>
-9.54684

>  <SCORE.INTER>
-8.49075

>  <SCORE.INTER.CONST>
1

>  <SCORE.INTER.POLAR>
0

>  <SCORE.INTER.ROT>
3

>  <SCORE.INTER.SOLV>
14.8

>  <SCORE.INTER.VDW>
-16.1938

>  <SCORE.INTER.norm>
-0.530672

>  <SCORE.INTRA>
-1.05609

>  <SCORE.INTRA.DIHEDRAL>
-1.2976

>  <SCORE.INTRA.DIHEDRAL.0>
2.05999

>  <SCORE.INTRA.POLAR>
0

>  <SCORE.INTRA.POLAR.0>
0

>  <SCORE.INTRA.REPUL>
0

>  <SCORE.INTRA.REPUL.0>
0

>  <SCORE.INTRA.SOLV>
-0.107597

>  <SCORE.INTRA.SOLV.lig_0>
-58.7001

>  <SCORE.INTRA.VDW>
-0.353495

>  <SCORE.INTRA.VDW.0>
-0.401036

>  <SCORE.INTRA.norm>
-0.0660057

>  <SCORE.RESTR>
0

>  <SCORE.RESTR.CAVITY>
0

>  <SCORE.RESTR.norm>
0

>  <SCORE.SYSTEM>
0

>  <SCORE.SYSTEM.CONST>
0

>  <SCORE.SYSTEM.DIHEDRAL>
0

>  <SCORE.SYSTEM.SOLV>
0

>  <SCORE.SYSTEM.norm>
0

>  <SCORE.heavy>
16

>  <SCORE.norm>
-0.596678

>  <RMSD>
5.688

$$$$
ligand
 OpenBabel11021811463D
libRbt.so/2013.1/901 2013/11/27
 16 16  0  0  0  0  0  0  0  0999 V2000
   46.8189   33.6935   55.4919 P   0  0  2  0  0  0  0  0  0  0  0  0
   46.6384   33.3213   56.9171 O   0  0  0  0  0  0  0  0  0  0  0  0
   46.0584   32.6173   54.5621 O   0  5  0  0  0  0  0  0  0  0  0  0
   48.4004   33.7000   55.1510 O   0  0  0  0  0  0  0  0  0  0  0  0
   46.2087   38.8770   52.1277 C   0  0  2  0  0  0  0  0  0  0  0  0
   46.5606   39.7875   53.1941 O   0  0  0  0  0  0  0  0  0  0  0  0
   44.6730   38.8807   51.8754 C   0  0  2  0  0  0  0  0  0  0  0  0
   44.2310   40.2474   51.5423 N   0  0  0  0  0  0  0  0  0  0  0  0
   43.9600   38.3908   53.1549 C   0  0  1  0  0  0  0  0  0  0  0  0
   42.5373   38.3773   52.9487 O   0  0  0  0  0  0  0  0  0  0  0  0
   44.4625   36.9621   53.4496 C   0  0  2  0  0  0  0  0  0  0  0  0
   43.8238   36.4750   54.6421 O   0  0  0  0  0  0  0  0  0  0  0  0
   46.0064   37.0219   53.6627 C   0  0  2  0  0  0  0  0  0  0  0  0
   46.6696   37.5302   52.4670 O   0  0  0  0  0  0  0  0  0  0  0  0
   46.5768   35.6220   53.9429 C   0  0  0  0  0  0  0  0  0  0  0  0
   46.1844   35.1643   55.2490 O   0  0  0  0  0  0  0  0  0  0  0  0
  1  2  1  1  0  0  0
  1  3  1  0  0  0  0
  1  4  2  0  0  0  0
  1 16  1  0  0  0  0
  5  6  1  1  0  0  0
  5  7  1  0  0  0  0
  5 14  1  0  0  0  0
  7  8  1  1  0  0  0
  7  9  1  0  0  0  0
  9 10  1  6  0  0  0
  9 11  1  0  0  0  0
 11 12  1  1  0  0  0
 11 13  1  0  0  0  0
 13 14  1  0  0  0  0
 13 15  1  6  0  0  0
 15 16  1  0  0  0  0
M  CHG  1   3  -1
M  END
>  <CHROM.1>
-70.98201275,-179.67402249,169.48778053,45.72071562,36.38964673,53.94638207
-1.23112986,0.07524990,-0.53912044

>  <Name>
ligand

>  <RI>
0

>  <Rbt.Current_Directory>
/home/itssahil/PROJECTS/Mol_Feturizer/New_Systems/rnas/3B4A

>  <Rbt.Executable>
rbdock ($Id: //depot/dev/client3/rdock/2013.1/src/exe/rbdock.cxx#4 $)

>  <Rbt.Library>
libRbt.so (2013.1, Build901 2013/11/27)

>  <Rbt.Parameter_File>
/export/apps/rDock/src/rDock_2013.1_src/data/scripts/dock_solv.prm

>  <Rbt.Receptor>
prm/pocket_docking_6.prm

>  <SCORE>
-9.58336

>  <SCORE.INTER>
-8.51489

>  <SCORE.INTER.CONST>
1

>  <SCORE.INTER.POLAR>
0

>  <SCORE.INTER.ROT>
3

>  <SCORE.INTER.SOLV>
14.7657

>  <SCORE.INTER.VDW>
-16.1985

>  <SCORE.INTER.norm>
-0.532181

>  <SCORE.INTRA>
-1.06848

>  <SCORE.INTRA.DIHEDRAL>
-1.45901

>  <SCORE.INTRA.DIHEDRAL.0>
2.05999

>  <SCORE.INTRA.POLAR>
0

>  <SCORE.INTRA.POLAR.0>
0

>  <SCORE.INTRA.REPUL>
0

>  <SCORE.INTRA.REPUL.0>
0

>  <SCORE.INTRA.SOLV>
-0.0941247

>  <SCORE.INTRA.SOLV.lig_0>
-58.7001

>  <SCORE.INTRA.VDW>
-0.291907

>  <SCORE.INTRA.VDW.0>
-0.401036

>  <SCORE.INTRA.norm>
-0.0667797

>  <SCORE.RESTR>
0

>  <SCORE.RESTR.CAVITY>
0

>  <SCORE.RESTR.norm>
0

>  <SCORE.SYSTEM>
0

>  <SCORE.SYSTEM.CONST>
0

>  <SCORE.SYSTEM.DIHEDRAL>
0

>  <SCORE.SYSTEM.SOLV>
0

>  <SCORE.SYSTEM.norm>
0

>  <SCORE.heavy>
16

>  <SCORE.norm>
-0.59896

>  <RMSD>
5.696

$$$$
ligand
 OpenBabel11021811463D
libRbt.so/2013.1/901 2013/11/27
 16 16  0  0  0  0  0  0  0  0999 V2000
   46.1395   34.0270   55.6906 P   0  0  2  0  0  0  0  0  0  0  0  0
   46.6262   33.3667   56.9273 O   0  0  0  0  0  0  0  0  0  0  0  0
   45.0868   35.1833   56.0855 O   0  5  0  0  0  0  0  0  0  0  0  0
   45.4202   32.9191   54.7565 O   0  0  0  0  0  0  0  0  0  0  0  0
   51.5332   35.1008   53.8681 C   0  0  2  0  0  0  0  0  0  0  0  0
   51.1974   36.3538   53.2298 O   0  0  0  0  0  0  0  0  0  0  0  0
   52.1556   34.1043   52.8474 C   0  0  2  0  0  0  0  0  0  0  0  0
   53.3592   34.7046   52.2432 N   0  0  0  0  0  0  0  0  0  0  0  0
   51.1096   33.7992   51.7527 C   0  0  1  0  0  0  0  0  0  0  0  0
   51.6555   32.8741   50.7973 O   0  0  0  0  0  0  0  0  0  0  0  0
   49.8796   33.1761   52.4450 C   0  0  2  0  0  0  0  0  0  0  0  0
   48.8790   32.8851   51.4544 O   0  0  0  0  0  0  0  0  0  0  0  0
   49.3227   34.2087   53.4727 C   0  0  2  0  0  0  0  0  0  0  0  0
   50.3317   34.5283   54.4765 O   0  0  0  0  0  0  0  0  0  0  0  0
   48.1018   33.6411   54.2149 C   0  0  0  0  0  0  0  0  0  0  0  0
   47.4011   34.6842   54.9150 O   0  0  0  0  0  0  0  0  0  0  0  0
  1  2  1  1  0  0  0
  1  3  1  0  0  0  0
  1  4  2  0  0  0  0
  1 16  1  0  0  0  0
  5  6  1  6  0  0  0
  5  7  1  0  0  0  0
  5 14  1  0  0  0  0
  7  8  1  6  0  0  0
  7  9  1  0  0  0  0
  9 10  1  6  0  0  0
  9 11  1  0  0  0  0
 11 12  1  6  0  0  0
 11 13  1  0  0  0  0
 13 14  1  0  0  0  0
 13 15  1  1  0  0  0
 15 16  1  0  0  0  0
M  CHG  1   3  -1
M  END
>  <CHROM.1>
-166.18798484,-179.31396179,78.43158696,48.96273028,34.09301902,53.87289445
-2.73910340,-0.38719115,-2.24464129

>  <Name>
ligand

>  <RI>
0

>  <Rbt.Current_Directory>
/home/itssahil/PROJECTS/Mol_Feturizer/New_Systems/rnas/3B4A

>  <Rbt.Executable>
rbdock ($Id: //depot/dev/client3/rdock/2013.1/src/exe/rbdock.cxx#4 $)

>  <Rbt.Library>
libRbt.so (2013.1, Build901 2013/11/27)

>  <Rbt.Parameter_File>
/export/apps/rDock/src/rDock_2013.1_src/data/scripts/dock_solv.prm

>  <Rbt.Receptor>
prm/pocket_docking_3.prm

>  <SCORE>
-5.04853

>  <SCORE.INTER>
-4.16654

>  <SCORE.INTER.CONST>
1

>  <SCORE.INTER.POLAR>
0

>  <SCORE.INTER.ROT>
3

>  <SCORE.INTER.SOLV>
15.214

>  <SCORE.INTER.VDW>
-13.449

>  <SCORE.INTER.norm>
-0.260409

>  <SCORE.INTRA>
-0.881991

>  <SCORE.INTRA.DIHEDRAL>
-0.874099

>  <SCORE.INTRA.DIHEDRAL.0>
2.05999

>  <SCORE.INTRA.POLAR>
0

>  <SCORE.INTRA.POLAR.0>
0

>  <SCORE.INTRA.REPUL>
0

>  <SCORE.INTRA.REPUL.0>
0

>  <SCORE.INTRA.SOLV>
-0.925645

>  <SCORE.INTRA.SOLV.lig_0>
-58.7001

>  <SCORE.INTRA.VDW>
0.0178812

>  <SCORE.INTRA.VDW.0>
-0.401036

>  <SCORE.INTRA.norm>
-0.0551244

>  <SCORE.RESTR>
0

>  <SCORE.RESTR.CAVITY>
0

>  <SCORE.RESTR.norm>
0

>  <SCORE.SYSTEM>
0

>  <SCORE.SYSTEM.CONST>
0

>  <SCORE.SYSTEM.DIHEDRAL>
0

>  <SCORE.SYSTEM.SOLV>
0

>  <SCORE.SYSTEM.norm>
0

>  <SCORE.heavy>
16

>  <SCORE.norm>
-0.315533

>  <RMSD>
5.701

$$$$
ligand
 OpenBabel11021811463D
libRbt.so/2013.1/901 2013/11/27
 16 16  0  0  0  0  0  0  0  0999 V2000
   44.7279   39.2498   53.3490 P   0  0  2  0  0  0  0  0  0  0  0  0
   45.9150   40.0903   53.0541 O   0  0  0  0  0  0  0  0  0  0  0  0
   43.7748   39.2028   52.0488 O   0  5  0  0  0  0  0  0  0  0  0  0
   43.9286   39.8964   54.5982 O   0  0  0  0  0  0  0  0  0  0  0  0
   45.7178   33.7060   52.9494 C   0  0  2  0  0  0  0  0  0  0  0  0
   44.5531   32.8535   52.8662 O   0  0  0  0  0  0  0  0  0  0  0  0
   46.5322   33.4126   54.2428 C   0  0  2  0  0  0  0  0  0  0  0  0
   46.9385   31.9953   54.2592 N   0  0  0  0  0  0  0  0  0  0  0  0
   45.6443   33.7230   55.4679 C   0  0  1  0  0  0  0  0  0  0  0  0
   46.3741   33.4671   56.6797 O   0  0  0  0  0  0  0  0  0  0  0  0
   45.2537   35.2138   55.3938 C   0  0  2  0  0  0  0  0  0  0  0  0
   44.4180   35.5379   56.5179 O   0  0  0  0  0  0  0  0  0  0  0  0
   44.4693   35.4474   54.0661 C   0  0  2  0  0  0  0  0  0  0  0  0
   45.2976   35.1073   52.9146 O   0  0  0  0  0  0  0  0  0  0  0  0
   44.0649   36.9234   53.9196 C   0  0  0  0  0  0  0  0  0  0  0  0
   45.2233   37.7508   53.7126 O   0  0  0  0  0  0  0  0  0  0  0  0
  1  2  1  6  0  0  0
  1  3  1  0  0  0  0
  1  4  2  0  0  0  0
  1 16  1  0  0  0  0
  5  6  1  1  0  0  0
  5  7  1  0  0  0  0
  5 14  1  0  0  0  0
  7  8  1  6  0  0  0
  7  9  1  0  0  0  0
  9 10  1  1  0  0  0
  9 11  1  0  0  0  0
 11 12  1  1  0  0  0
 11 13  1  0  0  0  0
 13 14  1  0  0  0  0
 13 15  1  6  0  0  0
 15 16  1  0  0  0  0
M  CHG  1   3  -1
M  END
>  <CHROM.1>
68.30882052,171.76899016,-176.64506686,45.12469722,36.16418211,54.06431684
3.09790473,-1.37062668,1.31630072

>  <Name>
ligand

>  <RI>
0

>  <Rbt.Current_Directory>
/home/itssahil/PROJECTS/Mol_Feturizer/New_Systems/rnas/3B4A

>  <Rbt.Executable>
rbdock ($Id: //depot/dev/client3/rdock/2013.1/src/exe/rbdock.cxx#4 $)

>  <Rbt.Library>
libRbt.so (2013.1, Build901 2013/11/27)

>  <Rbt.Parameter_File>
/export/apps/rDock/src/rDock_2013.1_src/data/scripts/dock_solv.prm

>  <Rbt.Receptor>
prm/pocket_docking_6.prm

>  <SCORE>
-6.58299

>  <SCORE.INTER>
-5.38005

>  <SCORE.INTER.CONST>
1

>  <SCORE.INTER.POLAR>
0

>  <SCORE.INTER.ROT>
3

>  <SCORE.INTER.SOLV>
15.5402

>  <SCORE.INTER.VDW>
-14.3668

>  <SCORE.INTER.norm>
-0.336253

>  <SCORE.INTRA>
-1.20295

>  <SCORE.INTRA.DIHEDRAL>
-1.46168

>  <SCORE.INTRA.DIHEDRAL.0>
2.05999

>  <SCORE.INTRA.POLAR>
0

>  <SCORE.INTRA.POLAR.0>
0

>  <SCORE.INTRA.REPUL>
0

>  <SCORE.INTRA.REPUL.0>
0

>  <SCORE.INTRA.SOLV>
-0.195781

>  <SCORE.INTRA.SOLV.lig_0>
-58.7001

>  <SCORE.INTRA.VDW>
-0.374217

>  <SCORE.INTRA.VDW.0>
-0.401036

>  <SCORE.INTRA.norm>
-0.0751841

>  <SCORE.RESTR>
0

>  <SCORE.RESTR.CAVITY>
0

>  <SCORE.RESTR.norm>
0

>  <SCORE.SYSTEM>
0

>  <SCORE.SYSTEM.CONST>
0

>  <SCORE.SYSTEM.DIHEDRAL>
0

>  <SCORE.SYSTEM.SOLV>
0

>  <SCORE.SYSTEM.norm>
0

>  <SCORE.heavy>
16

>  <SCORE.norm>
-0.411437

>  <RMSD>
5.707

$$$$
ligand
 OpenBabel11021811463D
libRbt.so/2013.1/901 2013/11/27
 16 16  0  0  0  0  0  0  0  0999 V2000
   46.7526   33.6836   55.5046 P   0  0  2  0  0  0  0  0  0  0  0  0
   46.5534   33.2933   56.9225 O   0  0  0  0  0  0  0  0  0  0  0  0
   45.9608   32.6496   54.5533 O   0  5  0  0  0  0  0  0  0  0  0  0
   48.3349   33.6431   55.1700 O   0  0  0  0  0  0  0  0  0  0  0  0
   46.1939   38.8921   52.1605 C   0  0  2  0  0  0  0  0  0  0  0  0
   46.5191   39.8132   53.2264 O   0  0  0  0  0  0  0  0  0  0  0  0
   44.6612   38.8692   51.8917 C   0  0  2  0  0  0  0  0  0  0  0  0
   44.2004   40.2269   51.5473 N   0  0  0  0  0  0  0  0  0  0  0  0
   43.9425   38.3735   53.1657 C   0  0  1  0  0  0  0  0  0  0  0  0
   42.5226   38.3356   52.9443 O   0  0  0  0  0  0  0  0  0  0  0  0
   44.4652   36.9547   53.4727 C   0  0  2  0  0  0  0  0  0  0  0  0
   43.8217   36.4626   54.6605 O   0  0  0  0  0  0  0  0  0  0  0  0
   46.0055   37.0410   53.7021 C   0  0  2  0  0  0  0  0  0  0  0  0
   46.6732   37.5547   52.5113 O   0  0  0  0  0  0  0  0  0  0  0  0
   46.5958   35.6520   53.9952 C   0  0  0  0  0  0  0  0  0  0  0  0
   46.1687   35.1788   55.2847 O   0  0  0  0  0  0  0  0  0  0  0  0
  1  2  1  1  0  0  0
  1  3  1  0  0  0  0
  1  4  2  0  0  0  0
  1 16  1  0  0  0  0
  5  6  1  1  0  0  0
  5  7  1  0  0  0  0
  5 14  1  0  0  0  0
  7  8  1  1  0  0  0
  7  9  1  0  0  0  0
  9 10  1  6  0  0  0
  9 11  1  0  0  0  0
 11 12  1  1  0  0  0
 11 13  1  0  0  0  0
 13 14  1  0  0  0  0
 13 15  1  6  0  0  0
 15 16  1  0  0  0  0
M  CHG  1   3  -1
M  END
>  <CHROM.1>
-69.49281423,176.95938698,168.78687739,45.68952829,36.38619439,53.96647157
1.24050801,-0.06198167,2.60829581

>  <Name>
ligand

>  <RI>
0

>  <Rbt.Current_Directory>
/home/itssahil/PROJECTS/Mol_Feturizer/New_Systems/rnas/3B4A

>  <Rbt.Executable>
rbdock ($Id: //depot/dev/client3/rdock/2013.1/src/exe/rbdock.cxx#4 $)

>  <Rbt.Library>
libRbt.so (2013.1, Build901 2013/11/27)

>  <Rbt.Parameter_File>
/export/apps/rDock/src/rDock_2013.1_src/data/scripts/dock_solv.prm

>  <Rbt.Receptor>
prm/pocket_docking_6.prm

>  <SCORE>
-9.44757

>  <SCORE.INTER>
-8.41996

>  <SCORE.INTER.CONST>
1

>  <SCORE.INTER.POLAR>
0

>  <SCORE.INTER.ROT>
3

>  <SCORE.INTER.SOLV>
14.823

>  <SCORE.INTER.VDW>
-16.1543

>  <SCORE.INTER.norm>
-0.526248

>  <SCORE.INTRA>
-1.02761

>  <SCORE.INTRA.DIHEDRAL>
-1.49497

>  <SCORE.INTRA.DIHEDRAL.0>
2.05999

>  <SCORE.INTRA.POLAR>
0

>  <SCORE.INTRA.POLAR.0>
0

>  <SCORE.INTRA.REPUL>
0

>  <SCORE.INTRA.REPUL.0>
0

>  <SCORE.INTRA.SOLV>
-0.00961067

>  <SCORE.INTRA.SOLV.lig_0>
-58.7001

>  <SCORE.INTRA.VDW>
-0.275318

>  <SCORE.INTRA.VDW.0>
-0.401036

>  <SCORE.INTRA.norm>
-0.0642254

>  <SCORE.RESTR>
0

>  <SCORE.RESTR.CAVITY>
0

>  <SCORE.RESTR.norm>
0

>  <SCORE.SYSTEM>
0

>  <SCORE.SYSTEM.CONST>
0

>  <SCORE.SYSTEM.DIHEDRAL>
0

>  <SCORE.SYSTEM.SOLV>
0

>  <SCORE.SYSTEM.norm>
0

>  <SCORE.heavy>
16

>  <SCORE.norm>
-0.590473

>  <RMSD>
5.715

$$$$
ligand
 OpenBabel11021811463D
libRbt.so/2013.1/901 2013/11/27
 16 16  0  0  0  0  0  0  0  0999 V2000
   47.1111   33.7392   55.2747 P   0  0  2  0  0  0  0  0  0  0  0  0
   46.5841   33.7434   56.6621 O   0  0  0  0  0  0  0  0  0  0  0  0
   46.2098   32.7560   54.3679 O   0  5  0  0  0  0  0  0  0  0  0  0
   48.6429   33.2194   55.3004 O   0  0  0  0  0  0  0  0  0  0  0  0
   46.3362   38.4190   52.1257 C   0  0  2  0  0  0  0  0  0  0  0  0
   46.8757   39.3845   53.0568 O   0  0  0  0  0  0  0  0  0  0  0  0
   44.8823   38.7925   51.7149 C   0  0  2  0  0  0  0  0  0  0  0  0
   44.8701   40.1389   51.1138 N   0  0  0  0  0  0  0  0  0  0  0  0
   43.9898   38.7672   52.9751 C   0  0  1  0  0  0  0  0  0  0  0  0
   42.6367   39.1027   52.6244 O   0  0  0  0  0  0  0  0  0  0  0  0
   44.0443   37.3387   53.5553 C   0  0  2  0  0  0  0  0  0  0  0  0
   43.2285   37.2793   54.7377 O   0  0  0  0  0  0  0  0  0  0  0  0
   45.5264   37.0153   53.9180 C   0  0  2  0  0  0  0  0  0  0  0  0
   46.3719   37.0874   52.7315 O   0  0  0  0  0  0  0  0  0  0  0  0
   45.6548   35.5926   54.4864 C   0  0  0  0  0  0  0  0  0  0  0  0
   47.0371   35.2446   54.6805 O   0  0  0  0  0  0  0  0  0  0  0  0
  1  2  1  1  0  0  0
  1  3  1  0  0  0  0
  1  4  2  0  0  0  0
  1 16  1  0  0  0  0
  5  6  1  1  0  0  0
  5  7  1  0  0  0  0
  5 14  1  0  0  0  0
  7  8  1  1  0  0  0
  7  9  1  0  0  0  0
  9 10  1  6  0  0  0
  9 11  1  0  0  0  0
 11 12  1  1  0  0  0
 11 13  1  0  0  0  0
 13 14  1  0  0  0  0
 13 15  1  6  0  0  0
 15 16  1  0  0  0  0
M  CHG  1   3  -1
M  END
>  <CHROM.1>
173.61942221,-179.83574424,-69.18075498,45.75867436,36.45152316,53.86557338
-1.15659187,0.21896057,-0.59256475

>  <Name>
ligand

>  <RI>
0

>  <Rbt.Current_Directory>
/home/itssahil/PROJECTS/Mol_Feturizer/New_Systems/rnas/3B4A

>  <Rbt.Executable>
rbdock ($Id: //depot/dev/client3/rdock/2013.1/src/exe/rbdock.cxx#4 $)

>  <Rbt.Library>
libRbt.so (2013.1, Build901 2013/11/27)

>  <Rbt.Parameter_File>
/export/apps/rDock/src/rDock_2013.1_src/data/scripts/dock_solv.prm

>  <Rbt.Receptor>
prm/pocket_docking_6.prm

>  <SCORE>
-9.36917

>  <SCORE.INTER>
-8.00112

>  <SCORE.INTER.CONST>
1

>  <SCORE.INTER.POLAR>
0

>  <SCORE.INTER.ROT>
3

>  <SCORE.INTER.SOLV>
14.3409

>  <SCORE.INTER.VDW>
-15.7144

>  <SCORE.INTER.norm>
-0.50007

>  <SCORE.INTRA>
-1.36806

>  <SCORE.INTRA.DIHEDRAL>
-1.77775

>  <SCORE.INTRA.DIHEDRAL.0>
2.05999

>  <SCORE.INTRA.POLAR>
0

>  <SCORE.INTRA.POLAR.0>
0

>  <SCORE.INTRA.REPUL>
0

>  <SCORE.INTRA.REPUL.0>
0

>  <SCORE.INTRA.SOLV>
-0.939228

>  <SCORE.INTRA.SOLV.lig_0>
-58.7001

>  <SCORE.INTRA.VDW>
-0.0095686

>  <SCORE.INTRA.VDW.0>
-0.401036

>  <SCORE.INTRA.norm>
-0.0855034

>  <SCORE.RESTR>
0

>  <SCORE.RESTR.CAVITY>
0

>  <SCORE.RESTR.norm>
0

>  <SCORE.SYSTEM>
0

>  <SCORE.SYSTEM.CONST>
0

>  <SCORE.SYSTEM.DIHEDRAL>
0

>  <SCORE.SYSTEM.SOLV>
0

>  <SCORE.SYSTEM.norm>
0

>  <SCORE.heavy>
16

>  <SCORE.norm>
-0.585573

>  <RMSD>
5.716

$$$$
ligand
 OpenBabel11021811463D
libRbt.so/2013.1/901 2013/11/27
 16 16  0  0  0  0  0  0  0  0999 V2000
   47.1391   33.7632   55.2369 P   0  0  2  0  0  0  0  0  0  0  0  0
   46.5905   33.7547   56.6159 O   0  0  0  0  0  0  0  0  0  0  0  0
   46.2573   32.7821   54.3090 O   0  5  0  0  0  0  0  0  0  0  0  0
   48.6730   33.2512   55.2829 O   0  0  0  0  0  0  0  0  0  0  0  0
   46.3559   38.4517   52.0928 C   0  0  2  0  0  0  0  0  0  0  0  0
   46.9105   39.4101   53.0224 O   0  0  0  0  0  0  0  0  0  0  0  0
   44.8996   38.8348   51.6995 C   0  0  2  0  0  0  0  0  0  0  0  0
   44.8880   40.1840   51.1047 N   0  0  0  0  0  0  0  0  0  0  0  0
   44.0207   38.8085   52.9693 C   0  0  1  0  0  0  0  0  0  0  0  0
   42.6657   39.1526   52.6348 O   0  0  0  0  0  0  0  0  0  0  0  0
   44.0739   37.3770   53.5424 C   0  0  2  0  0  0  0  0  0  0  0  0
   43.2706   37.3165   54.7333 O   0  0  0  0  0  0  0  0  0  0  0  0
   45.5581   37.0441   53.8875 C   0  0  2  0  0  0  0  0  0  0  0  0
   46.3911   37.1172   52.6922 O   0  0  0  0  0  0  0  0  0  0  0  0
   45.6851   35.6182   54.4480 C   0  0  0  0  0  0  0  0  0  0  0  0
   47.0665   35.2726   54.6525 O   0  0  0  0  0  0  0  0  0  0  0  0
  1  2  1  1  0  0  0
  1  3  1  0  0  0  0
  1  4  2  0  0  0  0
  1 16  1  0  0  0  0
  5  6  1  1  0  0  0
  5  7  1  0  0  0  0
  5 14  1  0  0  0  0
  7  8  1  1  0  0  0
  7  9  1  0  0  0  0
  9 10  1  6  0  0  0
  9 11  1  0  0  0  0
 11 12  1  1  0  0  0
 11 13  1  0  0  0  0
 13 14  1  0  0  0  0
 13 15  1  6  0  0  0
 15 16  1  0  0  0  0
M  CHG  1   3  -1
M  END
>  <CHROM.1>
174.85451400,-179.80045325,-68.78744973,45.78660964,36.48309801,53.83937166
-1.15559421,0.22858532,-0.59184959

>  <Name>
ligand

>  <RI>
0

>  <Rbt.Current_Directory>
/home/itssahil/PROJECTS/Mol_Feturizer/New_Systems/rnas/3B4A

>  <Rbt.Executable>
rbdock ($Id: //depot/dev/client3/rdock/2013.1/src/exe/rbdock.cxx#4 $)

>  <Rbt.Library>
libRbt.so (2013.1, Build901 2013/11/27)

>  <Rbt.Parameter_File>
/export/apps/rDock/src/rDock_2013.1_src/data/scripts/dock_solv.prm

>  <Rbt.Receptor>
prm/pocket_docking_6.prm

>  <SCORE>
-9.36167

>  <SCORE.INTER>
-7.94907

>  <SCORE.INTER.CONST>
1

>  <SCORE.INTER.POLAR>
0

>  <SCORE.INTER.ROT>
3

>  <SCORE.INTER.SOLV>
14.0167

>  <SCORE.INTER.VDW>
-15.5716

>  <SCORE.INTER.norm>
-0.496817

>  <SCORE.INTRA>
-1.4126

>  <SCORE.INTRA.DIHEDRAL>
-1.83921

>  <SCORE.INTRA.DIHEDRAL.0>
2.05999

>  <SCORE.INTRA.POLAR>
0

>  <SCORE.INTRA.POLAR.0>
0

>  <SCORE.INTRA.REPUL>
0

>  <SCORE.INTRA.REPUL.0>
0

>  <SCORE.INTRA.SOLV>
-0.946845

>  <SCORE.INTRA.SOLV.lig_0>
-58.7001

>  <SCORE.INTRA.VDW>
-0.0195697

>  <SCORE.INTRA.VDW.0>
-0.401036

>  <SCORE.INTRA.norm>
-0.0882873

>  <SCORE.RESTR>
0

>  <SCORE.RESTR.CAVITY>
0

>  <SCORE.RESTR.norm>
0

>  <SCORE.SYSTEM>
0

>  <SCORE.SYSTEM.CONST>
0

>  <SCORE.SYSTEM.DIHEDRAL>
0

>  <SCORE.SYSTEM.SOLV>
0

>  <SCORE.SYSTEM.norm>
0

>  <SCORE.heavy>
16

>  <SCORE.norm>
-0.585104

>  <RMSD>
5.719

$$$$
ligand
 OpenBabel11021811463D
libRbt.so/2013.1/901 2013/11/27
 16 16  0  0  0  0  0  0  0  0999 V2000
   47.1141   33.7462   55.2862 P   0  0  2  0  0  0  0  0  0  0  0  0
   46.5719   33.7508   56.6677 O   0  0  0  0  0  0  0  0  0  0  0  0
   46.2321   32.7512   54.3734 O   0  5  0  0  0  0  0  0  0  0  0  0
   48.6503   33.2411   55.3307 O   0  0  0  0  0  0  0  0  0  0  0  0
   46.3174   38.4441   52.1584 C   0  0  2  0  0  0  0  0  0  0  0  0
   46.8471   39.4030   53.1018 O   0  0  0  0  0  0  0  0  0  0  0  0
   44.8622   38.8120   51.7471 C   0  0  2  0  0  0  0  0  0  0  0  0
   44.8424   40.1648   51.1608 N   0  0  0  0  0  0  0  0  0  0  0  0
   43.9660   38.7665   53.0042 C   0  0  1  0  0  0  0  0  0  0  0  0
   42.6116   39.0963   52.6528 O   0  0  0  0  0  0  0  0  0  0  0  0
   44.0287   37.3321   53.5688 C   0  0  2  0  0  0  0  0  0  0  0  0
   43.2096   37.2540   54.7478 O   0  0  0  0  0  0  0  0  0  0  0  0
   45.5119   37.0151   53.9326 C   0  0  2  0  0  0  0  0  0  0  0  0
   46.3606   37.1062   52.7497 O   0  0  0  0  0  0  0  0  0  0  0  0
   45.6486   35.5872   54.4857 C   0  0  0  0  0  0  0  0  0  0  0  0
   47.0324   35.2486   54.6853 O   0  0  0  0  0  0  0  0  0  0  0  0
  1  2  1  1  0  0  0
  1  3  1  0  0  0  0
  1  4  2  0  0  0  0
  1 16  1  0  0  0  0
  5  6  1  1  0  0  0
  5  7  1  0  0  0  0
  5 14  1  0  0  0  0
  7  8  1  1  0  0  0
  7  9  1  0  0  0  0
  9 10  1  6  0  0  0
  9 11  1  0  0  0  0
 11 12  1  1  0  0  0
 11 13  1  0  0  0  0
 13 14  1  0  0  0  0
 13 15  1  6  0  0  0
 15 16  1  0  0  0  0
M  CHG  1   3  -1
M  END
>  <CHROM.1>
173.84030089,179.23163855,-68.67938934,45.74787303,36.45760090,53.88523925
-1.15332105,0.20975422,-0.58622137

>  <Name>
ligand

>  <RI>
0

>  <Rbt.Current_Directory>
/home/itssahil/PROJECTS/Mol_Feturizer/New_Systems/rnas/3B4A

>  <Rbt.Executable>
rbdock ($Id: //depot/dev/client3/rdock/2013.1/src/exe/rbdock.cxx#4 $)

>  <Rbt.Library>
libRbt.so (2013.1, Build901 2013/11/27)

>  <Rbt.Parameter_File>
/export/apps/rDock/src/rDock_2013.1_src/data/scripts/dock_solv.prm

>  <Rbt.Receptor>
prm/pocket_docking_6.prm

>  <SCORE>
-9.34385

>  <SCORE.INTER>
-7.954

>  <SCORE.INTER.CONST>
1

>  <SCORE.INTER.POLAR>
0

>  <SCORE.INTER.ROT>
3

>  <SCORE.INTER.SOLV>
14.4748

>  <SCORE.INTER.VDW>
-15.7276

>  <SCORE.INTER.norm>
-0.497125

>  <SCORE.INTRA>
-1.38985

>  <SCORE.INTRA.DIHEDRAL>
-1.79892

>  <SCORE.INTRA.DIHEDRAL.0>
2.05999

>  <SCORE.INTRA.POLAR>
0

>  <SCORE.INTRA.POLAR.0>
0

>  <SCORE.INTRA.REPUL>
0

>  <SCORE.INTRA.REPUL.0>
0

>  <SCORE.INTRA.SOLV>
-0.951874

>  <SCORE.INTRA.SOLV.lig_0>
-58.7001

>  <SCORE.INTRA.VDW>
-0.0144515

>  <SCORE.INTRA.VDW.0>
-0.401036

>  <SCORE.INTRA.norm>
-0.0868655

>  <SCORE.RESTR>
0

>  <SCORE.RESTR.CAVITY>
0

>  <SCORE.RESTR.norm>
0

>  <SCORE.SYSTEM>
0

>  <SCORE.SYSTEM.CONST>
0

>  <SCORE.SYSTEM.DIHEDRAL>
0

>  <SCORE.SYSTEM.SOLV>
0

>  <SCORE.SYSTEM.norm>
0

>  <SCORE.heavy>
16

>  <SCORE.norm>
-0.583991

>  <RMSD>
5.719

$$$$
ligand
 OpenBabel11021811463D
libRbt.so/2013.1/901 2013/11/27
 16 16  0  0  0  0  0  0  0  0999 V2000
   45.4392   34.4850   55.6564 P   0  0  2  0  0  0  0  0  0  0  0  0
   44.4793   35.2100   56.5256 O   0  0  0  0  0  0  0  0  0  0  0  0
   44.6361   33.4147   54.7562 O   0  5  0  0  0  0  0  0  0  0  0  0
   46.5172   33.7234   56.5920 O   0  0  0  0  0  0  0  0  0  0  0  0
   49.9021   36.0035   51.6138 C   0  0  2  0  0  0  0  0  0  0  0  0
   50.3547   37.1780   52.3250 O   0  0  0  0  0  0  0  0  0  0  0  0
   49.0467   36.3970   50.3747 C   0  0  2  0  0  0  0  0  0  0  0  0
   49.8420   37.2574   49.4793 N   0  0  0  0  0  0  0  0  0  0  0  0
   47.7917   37.1551   50.8601 C   0  0  1  0  0  0  0  0  0  0  0  0
   46.9774   37.5263   49.7350 O   0  0  0  0  0  0  0  0  0  0  0  0
   47.0052   36.2065   51.7886 C   0  0  2  0  0  0  0  0  0  0  0  0
   45.8304   36.8833   52.2672 O   0  0  0  0  0  0  0  0  0  0  0  0
   47.9242   35.8271   52.9904 C   0  0  2  0  0  0  0  0  0  0  0  0
   49.1300   35.1537   52.5211 O   0  0  0  0  0  0  0  0  0  0  0  0
   47.2051   34.8639   53.9490 C   0  0  0  0  0  0  0  0  0  0  0  0
   46.1848   35.5531   54.6929 O   0  0  0  0  0  0  0  0  0  0  0  0
  1  2  1  1  0  0  0
  1  3  1  0  0  0  0
  1  4  2  0  0  0  0
  1 16  1  0  0  0  0
  5  6  1  1  0  0  0
  5  7  1  0  0  0  0
  5 14  1  0  0  0  0
  7  8  1  6  0  0  0
  7  9  1  0  0  0  0
  9 10  1  6  0  0  0
  9 11  1  0  0  0  0
 11 12  1  1  0  0  0
 11 13  1  0  0  0  0
 13 14  1  0  0  0  0
 13 15  1  1  0  0  0
 15 16  1  0  0  0  0
M  CHG  1   3  -1
M  END
>  <CHROM.1>
-72.52050025,178.63651622,174.37492076,47.20205345,35.68949749,53.14651538
-2.13818551,0.08278199,-1.06231501

>  <Name>
ligand

>  <RI>
0

>  <Rbt.Current_Directory>
/home/itssahil/PROJECTS/Mol_Feturizer/New_Systems/rnas/3B4A

>  <Rbt.Executable>
rbdock ($Id: //depot/dev/client3/rdock/2013.1/src/exe/rbdock.cxx#4 $)

>  <Rbt.Library>
libRbt.so (2013.1, Build901 2013/11/27)

>  <Rbt.Parameter_File>
/export/apps/rDock/src/rDock_2013.1_src/data/scripts/dock_solv.prm

>  <Rbt.Receptor>
prm/pocket_docking_4.prm

>  <SCORE>
-5.69006

>  <SCORE.INTER>
-4.56316

>  <SCORE.INTER.CONST>
1

>  <SCORE.INTER.POLAR>
0

>  <SCORE.INTER.ROT>
3

>  <SCORE.INTER.SOLV>
14.9424

>  <SCORE.INTER.VDW>
-13.6229

>  <SCORE.INTER.norm>
-0.285198

>  <SCORE.INTRA>
-1.1269

>  <SCORE.INTRA.DIHEDRAL>
-1.45349

>  <SCORE.INTRA.DIHEDRAL.0>
2.05999

>  <SCORE.INTRA.POLAR>
0

>  <SCORE.INTRA.POLAR.0>
0

>  <SCORE.INTRA.REPUL>
0

>  <SCORE.INTRA.REPUL.0>
0

>  <SCORE.INTRA.SOLV>
-0.0835391

>  <SCORE.INTRA.SOLV.lig_0>
-58.7001

>  <SCORE.INTRA.VDW>
-0.358383

>  <SCORE.INTRA.VDW.0>
-0.401036

>  <SCORE.INTRA.norm>
-0.0704312

>  <SCORE.RESTR>
0

>  <SCORE.RESTR.CAVITY>
0

>  <SCORE.RESTR.norm>
0

>  <SCORE.SYSTEM>
0

>  <SCORE.SYSTEM.CONST>
0

>  <SCORE.SYSTEM.DIHEDRAL>
0

>  <SCORE.SYSTEM.SOLV>
0

>  <SCORE.SYSTEM.norm>
0

>  <SCORE.heavy>
16

>  <SCORE.norm>
-0.355629

>  <RMSD>
5.722

$$$$
ligand
 OpenBabel11021811463D
libRbt.so/2013.1/901 2013/11/27
 16 16  0  0  0  0  0  0  0  0999 V2000
   47.0860   33.6693   55.1882 P   0  0  2  0  0  0  0  0  0  0  0  0
   46.3123   32.7941   54.2728 O   0  0  0  0  0  0  0  0  0  0  0  0
   48.6165   33.1633   55.2387 O   0  5  0  0  0  0  0  0  0  0  0  0
   46.4281   33.5910   56.6642 O   0  0  0  0  0  0  0  0  0  0  0  0
   46.3630   38.3767   52.0799 C   0  0  2  0  0  0  0  0  0  0  0  0
   46.9411   39.3293   53.0011 O   0  0  0  0  0  0  0  0  0  0  0  0
   44.9111   38.7839   51.6949 C   0  0  2  0  0  0  0  0  0  0  0  0
   44.9193   40.1304   51.0939 N   0  0  0  0  0  0  0  0  0  0  0  0
   44.0408   38.7790   52.9709 C   0  0  1  0  0  0  0  0  0  0  0  0
   42.6897   39.1458   52.6442 O   0  0  0  0  0  0  0  0  0  0  0  0
   44.0725   37.3495   53.5503 C   0  0  2  0  0  0  0  0  0  0  0  0
   43.2766   37.3087   54.7470 O   0  0  0  0  0  0  0  0  0  0  0  0
   45.5529   36.9918   53.8867 C   0  0  2  0  0  0  0  0  0  0  0  0
   46.3787   37.0446   52.6854 O   0  0  0  0  0  0  0  0  0  0  0  0
   45.6585   35.5664   54.4530 C   0  0  0  0  0  0  0  0  0  0  0  0
   47.0354   35.1890   54.6290 O   0  0  0  0  0  0  0  0  0  0  0  0
  1  2  1  6  0  0  0
  1  3  1  0  0  0  0
  1  4  2  0  0  0  0
  1 16  1  0  0  0  0
  5  6  1  1  0  0  0
  5  7  1  0  0  0  0
  5 14  1  0  0  0  0
  7  8  1  1  0  0  0
  7  9  1  0  0  0  0
  9 10  1  6  0  0  0
  9 11  1  0  0  0  0
 11 12  1  1  0  0  0
 11 13  1  0  0  0  0
 13 14  1  0  0  0  0
 13 15  1  6  0  0  0
 15 16  1  0  0  0  0
M  CHG  1   3  -1
M  END
>  <CHROM.1>
173.91311526,-178.49538848,54.34540671,45.77268886,36.42238473,53.82878161
-1.16410872,0.26570071,-0.59916406

>  <Name>
ligand

>  <RI>
0

>  <Rbt.Current_Directory>
/home/itssahil/PROJECTS/Mol_Feturizer/New_Systems/rnas/3B4A

>  <Rbt.Executable>
rbdock ($Id: //depot/dev/client3/rdock/2013.1/src/exe/rbdock.cxx#4 $)

>  <Rbt.Library>
libRbt.so (2013.1, Build901 2013/11/27)

>  <Rbt.Parameter_File>
/export/apps/rDock/src/rDock_2013.1_src/data/scripts/dock_solv.prm

>  <Rbt.Receptor>
prm/pocket_docking_8.prm

>  <SCORE>
-6.89491

>  <SCORE.INTER>
-5.41729

>  <SCORE.INTER.CONST>
1

>  <SCORE.INTER.POLAR>
0

>  <SCORE.INTER.ROT>
3

>  <SCORE.INTER.SOLV>
18.9702

>  <SCORE.INTER.VDW>
-15.5349

>  <SCORE.INTER.norm>
-0.33858

>  <SCORE.INTRA>
-1.47762

>  <SCORE.INTRA.DIHEDRAL>
-1.86329

>  <SCORE.INTRA.DIHEDRAL.0>
2.05999

>  <SCORE.INTRA.POLAR>
0

>  <SCORE.INTRA.POLAR.0>
0

>  <SCORE.INTRA.REPUL>
0

>  <SCORE.INTRA.REPUL.0>
0

>  <SCORE.INTRA.SOLV>
-1.10004

>  <SCORE.INTRA.SOLV.lig_0>
-58.7001

>  <SCORE.INTRA.VDW>
0.00404334

>  <SCORE.INTRA.VDW.0>
-0.401036

>  <SCORE.INTRA.norm>
-0.0923512

>  <SCORE.RESTR>
0

>  <SCORE.RESTR.CAVITY>
0

>  <SCORE.RESTR.norm>
0

>  <SCORE.SYSTEM>
0

>  <SCORE.SYSTEM.CONST>
0

>  <SCORE.SYSTEM.DIHEDRAL>
0

>  <SCORE.SYSTEM.SOLV>
0

>  <SCORE.SYSTEM.norm>
0

>  <SCORE.heavy>
16

>  <SCORE.norm>
-0.430932

>  <RMSD>
5.722

$$$$
ligand
 OpenBabel11021811463D
libRbt.so/2013.1/901 2013/11/27
 16 16  0  0  0  0  0  0  0  0999 V2000
   47.1278   33.7707   55.2389 P   0  0  2  0  0  0  0  0  0  0  0  0
   46.5699   33.7815   56.6140 O   0  0  0  0  0  0  0  0  0  0  0  0
   46.2529   32.7758   54.3191 O   0  5  0  0  0  0  0  0  0  0  0  0
   48.6617   33.2603   55.3026 O   0  0  0  0  0  0  0  0  0  0  0  0
   46.3503   38.4581   52.0838 C   0  0  2  0  0  0  0  0  0  0  0  0
   46.9080   39.4139   53.0143 O   0  0  0  0  0  0  0  0  0  0  0  0
   44.8943   38.8446   51.6931 C   0  0  2  0  0  0  0  0  0  0  0  0
   44.8845   40.1948   51.1005 N   0  0  0  0  0  0  0  0  0  0  0  0
   44.0170   38.8178   52.9639 C   0  0  1  0  0  0  0  0  0  0  0  0
   42.6621   39.1651   52.6318 O   0  0  0  0  0  0  0  0  0  0  0  0
   44.0682   37.3853   53.5346 C   0  0  2  0  0  0  0  0  0  0  0  0
   43.2663   37.3243   54.7264 O   0  0  0  0  0  0  0  0  0  0  0  0
   45.5522   37.0490   53.8772 C   0  0  2  0  0  0  0  0  0  0  0  0
   46.3838   37.1225   52.6810 O   0  0  0  0  0  0  0  0  0  0  0  0
   45.6772   35.6219   54.4352 C   0  0  0  0  0  0  0  0  0  0  0  0
   47.0584   35.2714   54.6324 O   0  0  0  0  0  0  0  0  0  0  0  0
  1  2  1  1  0  0  0
  1  3  1  0  0  0  0
  1  4  2  0  0  0  0
  1 16  1  0  0  0  0
  5  6  1  1  0  0  0
  5  7  1  0  0  0  0
  5 14  1  0  0  0  0
  7  8  1  1  0  0  0
  7  9  1  0  0  0  0
  9 10  1  6  0  0  0
  9 11  1  0  0  0  0
 11 12  1  1  0  0  0
 11 13  1  0  0  0  0
 13 14  1  0  0  0  0
 13 15  1  6  0  0  0
 15 16  1  0  0  0  0
M  CHG  1   3  -1
M  END
>  <CHROM.1>
174.63003111,179.22016141,-67.80780574,45.77927537,36.49047855,53.83531863
-1.15714453,0.22880177,-0.59265363

>  <Name>
ligand

>  <RI>
0

>  <Rbt.Current_Directory>
/home/itssahil/PROJECTS/Mol_Feturizer/New_Systems/rnas/3B4A

>  <Rbt.Executable>
rbdock ($Id: //depot/dev/client3/rdock/2013.1/src/exe/rbdock.cxx#4 $)

>  <Rbt.Library>
libRbt.so (2013.1, Build901 2013/11/27)

>  <Rbt.Parameter_File>
/export/apps/rDock/src/rDock_2013.1_src/data/scripts/dock_solv.prm

>  <Rbt.Receptor>
prm/pocket_docking_7.prm

>  <SCORE>
-9.37007

>  <SCORE.INTER>
-7.93635

>  <SCORE.INTER.CONST>
1

>  <SCORE.INTER.POLAR>
0

>  <SCORE.INTER.ROT>
3

>  <SCORE.INTER.SOLV>
14.0535

>  <SCORE.INTER.VDW>
-15.5754

>  <SCORE.INTER.norm>
-0.496022

>  <SCORE.INTRA>
-1.43372

>  <SCORE.INTRA.DIHEDRAL>
-1.85391

>  <SCORE.INTRA.DIHEDRAL.0>
2.05999

>  <SCORE.INTRA.POLAR>
0

>  <SCORE.INTRA.POLAR.0>
0

>  <SCORE.INTRA.REPUL>
0

>  <SCORE.INTRA.REPUL.0>
0

>  <SCORE.INTRA.SOLV>
-0.963299

>  <SCORE.INTRA.SOLV.lig_0>
-58.7001

>  <SCORE.INTRA.VDW>
-0.0251146

>  <SCORE.INTRA.VDW.0>
-0.401036

>  <SCORE.INTRA.norm>
-0.0896075

>  <SCORE.RESTR>
0

>  <SCORE.RESTR.CAVITY>
0

>  <SCORE.RESTR.norm>
0

>  <SCORE.SYSTEM>
0

>  <SCORE.SYSTEM.CONST>
0

>  <SCORE.SYSTEM.DIHEDRAL>
0

>  <SCORE.SYSTEM.SOLV>
0

>  <SCORE.SYSTEM.norm>
0

>  <SCORE.heavy>
16

>  <SCORE.norm>
-0.585629

>  <RMSD>
5.727

$$$$
ligand
 OpenBabel11021811463D
libRbt.so/2013.1/901 2013/11/27
 16 16  0  0  0  0  0  0  0  0999 V2000
   46.1372   34.0245   55.6305 P   0  0  2  0  0  0  0  0  0  0  0  0
   46.5569   33.3718   56.8956 O   0  0  0  0  0  0  0  0  0  0  0  0
   45.1910   35.2850   55.9723 O   0  5  0  0  0  0  0  0  0  0  0  0
   45.3256   32.9500   54.7338 O   0  0  0  0  0  0  0  0  0  0  0  0
   51.6061   34.7019   54.0131 C   0  0  2  0  0  0  0  0  0  0  0  0
   51.3776   35.8512   53.1662 O   0  0  0  0  0  0  0  0  0  0  0  0
   52.2791   33.5470   53.2161 C   0  0  2  0  0  0  0  0  0  0  0  0
   53.5545   34.0188   52.6461 N   0  0  0  0  0  0  0  0  0  0  0  0
   51.3250   33.1046   52.0849 C   0  0  1  0  0  0  0  0  0  0  0  0
   51.9188   32.0320   51.3342 O   0  0  0  0  0  0  0  0  0  0  0  0
   50.0146   32.6242   52.7425 C   0  0  2  0  0  0  0  0  0  0  0  0
   49.0968   32.2105   51.7160 O   0  0  0  0  0  0  0  0  0  0  0  0
   49.4075   33.8144   53.5472 C   0  0  2  0  0  0  0  0  0  0  0  0
   50.3335   34.2581   54.5833 O   0  0  0  0  0  0  0  0  0  0  0  0
   48.1038   33.3961   54.2466 C   0  0  0  0  0  0  0  0  0  0  0  0
   47.4564   34.5351   54.8406 O   0  0  0  0  0  0  0  0  0  0  0  0
  1  2  1  1  0  0  0
  1  3  1  0  0  0  0
  1  4  2  0  0  0  0
  1 16  1  0  0  0  0
  5  6  1  6  0  0  0
  5  7  1  0  0  0  0
  5 14  1  0  0  0  0
  7  8  1  6  0  0  0
  7  9  1  0  0  0  0
  9 10  1  1  0  0  0
  9 11  1  0  0  0  0
 11 12  1  6  0  0  0
 11 13  1  0  0  0  0
 13 14  1  0  0  0  0
 13 15  1  1  0  0  0
 15 16  1  0  0  0  0
M  CHG  1   3  -1
M  END
>  <CHROM.1>
-172.45759691,-176.88495976,75.36859542,49.04783903,33.76083725,53.99062353
-2.76183736,-0.32275832,-2.39514145

>  <Name>
ligand

>  <RI>
0

>  <Rbt.Current_Directory>
/home/itssahil/PROJECTS/Mol_Feturizer/New_Systems/rnas/3B4A

>  <Rbt.Executable>
rbdock ($Id: //depot/dev/client3/rdock/2013.1/src/exe/rbdock.cxx#4 $)

>  <Rbt.Library>
libRbt.so (2013.1, Build901 2013/11/27)

>  <Rbt.Parameter_File>
/export/apps/rDock/src/rDock_2013.1_src/data/scripts/dock_solv.prm

>  <Rbt.Receptor>
prm/pocket_docking_4.prm

>  <SCORE>
-5.41464

>  <SCORE.INTER>
-4.17901

>  <SCORE.INTER.CONST>
1

>  <SCORE.INTER.POLAR>
0

>  <SCORE.INTER.ROT>
3

>  <SCORE.INTER.SOLV>
15.3254

>  <SCORE.INTER.VDW>
-13.4945

>  <SCORE.INTER.norm>
-0.261188

>  <SCORE.INTRA>
-1.23563

>  <SCORE.INTRA.DIHEDRAL>
-1.43624

>  <SCORE.INTRA.DIHEDRAL.0>
2.05999

>  <SCORE.INTRA.POLAR>
0

>  <SCORE.INTRA.POLAR.0>
0

>  <SCORE.INTRA.REPUL>
0

>  <SCORE.INTRA.REPUL.0>
0

>  <SCORE.INTRA.SOLV>
-0.932318

>  <SCORE.INTRA.SOLV.lig_0>
-58.7001

>  <SCORE.INTRA.VDW>
-0.0513471

>  <SCORE.INTRA.VDW.0>
-0.401036

>  <SCORE.INTRA.norm>
-0.0772266

>  <SCORE.RESTR>
0

>  <SCORE.RESTR.CAVITY>
0

>  <SCORE.RESTR.norm>
0

>  <SCORE.SYSTEM>
0

>  <SCORE.SYSTEM.CONST>
0

>  <SCORE.SYSTEM.DIHEDRAL>
0

>  <SCORE.SYSTEM.SOLV>
0

>  <SCORE.SYSTEM.norm>
0

>  <SCORE.heavy>
16

>  <SCORE.norm>
-0.338415

>  <RMSD>
5.746

$$$$
ligand
 OpenBabel11021811463D
libRbt.so/2013.1/901 2013/11/27
 16 16  0  0  0  0  0  0  0  0999 V2000
   44.4575   39.2805   53.2359 P   0  0  2  0  0  0  0  0  0  0  0  0
   43.3766   39.0304   52.2502 O   0  0  0  0  0  0  0  0  0  0  0  0
   43.8125   39.8650   54.5937 O   0  5  0  0  0  0  0  0  0  0  0  0
   45.4959   40.3518   52.6104 O   0  0  0  0  0  0  0  0  0  0  0  0
   46.6834   34.1173   53.0589 C   0  0  2  0  0  0  0  0  0  0  0  0
   45.7702   33.0606   52.6852 O   0  0  0  0  0  0  0  0  0  0  0  0
   47.2430   33.8893   54.4931 C   0  0  2  0  0  0  0  0  0  0  0  0
   47.9254   32.5836   54.5546 N   0  0  0  0  0  0  0  0  0  0  0  0
   46.0671   33.9198   55.4939 C   0  0  1  0  0  0  0  0  0  0  0  0
   46.5558   33.7181   56.8307 O   0  0  0  0  0  0  0  0  0  0  0  0
   45.3967   35.3049   55.3822 C   0  0  2  0  0  0  0  0  0  0  0  0
   44.2893   35.3672   56.2971 O   0  0  0  0  0  0  0  0  0  0  0  0
   44.8855   35.4832   53.9194 C   0  0  2  0  0  0  0  0  0  0  0  0
   45.9951   35.4060   52.9756 O   0  0  0  0  0  0  0  0  0  0  0  0
   44.2207   36.8569   53.7336 C   0  0  0  0  0  0  0  0  0  0  0  0
   45.2129   37.8826   53.5524 O   0  0  0  0  0  0  0  0  0  0  0  0
  1  2  1  6  0  0  0
  1  3  1  0  0  0  0
  1  4  2  0  0  0  0
  1 16  1  0  0  0  0
  5  6  1  1  0  0  0
  5  7  1  0  0  0  0
  5 14  1  0  0  0  0
  7  8  1  6  0  0  0
  7  9  1  0  0  0  0
  9 10  1  1  0  0  0
  9 11  1  0  0  0  0
 11 12  1  1  0  0  0
 11 13  1  0  0  0  0
 13 14  1  0  0  0  0
 13 15  1  1  0  0  0
 15 16  1  0  0  0  0
M  CHG  1   3  -1
M  END
>  <CHROM.1>
79.91722939,175.21250327,-44.29577865,45.35722391,36.30874753,54.03033910
-2.45250228,-1.10990239,2.05501981

>  <Name>
ligand

>  <RI>
0

>  <Rbt.Current_Directory>
/home/itssahil/PROJECTS/Mol_Feturizer/New_Systems/rnas/3B4A

>  <Rbt.Executable>
rbdock ($Id: //depot/dev/client3/rdock/2013.1/src/exe/rbdock.cxx#4 $)

>  <Rbt.Library>
libRbt.so (2013.1, Build901 2013/11/27)

>  <Rbt.Parameter_File>
/export/apps/rDock/src/rDock_2013.1_src/data/scripts/dock_solv.prm

>  <Rbt.Receptor>
prm/pocket_docking_6.prm

>  <SCORE>
-7.46724

>  <SCORE.INTER>
-7.03486

>  <SCORE.INTER.CONST>
1

>  <SCORE.INTER.POLAR>
0

>  <SCORE.INTER.ROT>
3

>  <SCORE.INTER.SOLV>
12.6577

>  <SCORE.INTER.VDW>
-14.5091

>  <SCORE.INTER.norm>
-0.439679

>  <SCORE.INTRA>
-0.432377

>  <SCORE.INTRA.DIHEDRAL>
-0.247406

>  <SCORE.INTRA.DIHEDRAL.0>
2.05999

>  <SCORE.INTRA.POLAR>
0

>  <SCORE.INTRA.POLAR.0>
0

>  <SCORE.INTRA.REPUL>
0

>  <SCORE.INTRA.REPUL.0>
0

>  <SCORE.INTRA.SOLV>
-1.0413

>  <SCORE.INTRA.SOLV.lig_0>
-58.7001

>  <SCORE.INTRA.VDW>
0.211978

>  <SCORE.INTRA.VDW.0>
-0.401036

>  <SCORE.INTRA.norm>
-0.0270236

>  <SCORE.RESTR>
0

>  <SCORE.RESTR.CAVITY>
0

>  <SCORE.RESTR.norm>
0

>  <SCORE.SYSTEM>
0

>  <SCORE.SYSTEM.CONST>
0

>  <SCORE.SYSTEM.DIHEDRAL>
0

>  <SCORE.SYSTEM.SOLV>
0

>  <SCORE.SYSTEM.norm>
0

>  <SCORE.heavy>
16

>  <SCORE.norm>
-0.466703

>  <RMSD>
5.757

$$$$
ligand
 OpenBabel11021811463D
libRbt.so/2013.1/901 2013/11/27
 16 16  0  0  0  0  0  0  0  0999 V2000
   46.1996   34.0497   55.6185 P   0  0  2  0  0  0  0  0  0  0  0  0
   46.6402   33.4287   56.8924 O   0  0  0  0  0  0  0  0  0  0  0  0
   45.2053   35.2775   55.9427 O   0  5  0  0  0  0  0  0  0  0  0  0
   45.4317   32.9345   54.7331 O   0  0  0  0  0  0  0  0  0  0  0  0
   51.6680   34.9280   53.9659 C   0  0  2  0  0  0  0  0  0  0  0  0
   51.3664   36.0561   53.1134 O   0  0  0  0  0  0  0  0  0  0  0  0
   52.3686   33.7938   53.1628 C   0  0  2  0  0  0  0  0  0  0  0  0
   53.6060   34.3136   52.5523 N   0  0  0  0  0  0  0  0  0  0  0  0
   51.4040   33.2971   52.0636 C   0  0  1  0  0  0  0  0  0  0  0  0
   52.0231   32.2423   51.3082 O   0  0  0  0  0  0  0  0  0  0  0  0
   50.1344   32.7683   52.7628 C   0  0  2  0  0  0  0  0  0  0  0  0
   49.2076   32.3030   51.7669 O   0  0  0  0  0  0  0  0  0  0  0  0
   49.4983   33.9405   53.5714 C   0  0  2  0  0  0  0  0  0  0  0  0
   50.4322   34.4363   54.5762 O   0  0  0  0  0  0  0  0  0  0  0  0
   48.2338   33.4746   54.3114 C   0  0  0  0  0  0  0  0  0  0  0  0
   47.5007   34.6005   54.8255 O   0  0  0  0  0  0  0  0  0  0  0  0
  1  2  1  1  0  0  0
  1  3  1  0  0  0  0
  1  4  2  0  0  0  0
  1 16  1  0  0  0  0
  5  6  1  6  0  0  0
  5  7  1  0  0  0  0
  5 14  1  0  0  0  0
  7  8  1  6  0  0  0
  7  9  1  0  0  0  0
  9 10  1  1  0  0  0
  9 11  1  0  0  0  0
 11 12  1  6  0  0  0
 11 13  1  0  0  0  0
 13 14  1  0  0  0  0
 13 15  1  1  0  0  0
 15 16  1  0  0  0  0
M  CHG  1   3  -1
M  END
>  <CHROM.1>
-168.15136832,-178.85644700,72.14158098,49.12332860,33.88282508,53.97825104
-2.79429102,-0.35534872,-2.42221115

>  <Name>
ligand

>  <RI>
0

>  <Rbt.Current_Directory>
/home/itssahil/PROJECTS/Mol_Feturizer/New_Systems/rnas/3B4A

>  <Rbt.Executable>
rbdock ($Id: //depot/dev/client3/rdock/2013.1/src/exe/rbdock.cxx#4 $)

>  <Rbt.Library>
libRbt.so (2013.1, Build901 2013/11/27)

>  <Rbt.Parameter_File>
/export/apps/rDock/src/rDock_2013.1_src/data/scripts/dock_solv.prm

>  <Rbt.Receptor>
prm/pocket_docking_5.prm

>  <SCORE>
-5.45488

>  <SCORE.INTER>
-4.20724

>  <SCORE.INTER.CONST>
1

>  <SCORE.INTER.POLAR>
0

>  <SCORE.INTER.ROT>
3

>  <SCORE.INTER.SOLV>
15.0222

>  <SCORE.INTER.VDW>
-13.4122

>  <SCORE.INTER.norm>
-0.262953

>  <SCORE.INTRA>
-1.24764

>  <SCORE.INTRA.DIHEDRAL>
-1.32151

>  <SCORE.INTRA.DIHEDRAL.0>
2.05999

>  <SCORE.INTRA.POLAR>
0

>  <SCORE.INTRA.POLAR.0>
0

>  <SCORE.INTRA.REPUL>
0

>  <SCORE.INTRA.REPUL.0>
0

>  <SCORE.INTRA.SOLV>
-0.981283

>  <SCORE.INTRA.SOLV.lig_0>
-58.7001

>  <SCORE.INTRA.VDW>
-0.0962442

>  <SCORE.INTRA.VDW.0>
-0.401036

>  <SCORE.INTRA.norm>
-0.0779776

>  <SCORE.RESTR>
0

>  <SCORE.RESTR.CAVITY>
0

>  <SCORE.RESTR.norm>
0

>  <SCORE.SYSTEM>
0

>  <SCORE.SYSTEM.CONST>
0

>  <SCORE.SYSTEM.DIHEDRAL>
0

>  <SCORE.SYSTEM.SOLV>
0

>  <SCORE.SYSTEM.norm>
0

>  <SCORE.heavy>
16

>  <SCORE.norm>
-0.34093

>  <RMSD>
5.770

$$$$
ligand
 OpenBabel11021811463D
libRbt.so/2013.1/901 2013/11/27
 16 16  0  0  0  0  0  0  0  0999 V2000
   43.9049   38.8402   53.0492 P   0  0  2  0  0  0  0  0  0  0  0  0
   42.6434   39.5324   52.6858 O   0  0  0  0  0  0  0  0  0  0  0  0
   44.6651   39.6877   54.1915 O   0  5  0  0  0  0  0  0  0  0  0  0
   44.8363   38.7279   51.7311 O   0  0  0  0  0  0  0  0  0  0  0  0
   43.2617   33.2402   53.6111 C   0  0  2  0  0  0  0  0  0  0  0  0
   42.5308   33.2149   54.8583 O   0  0  0  0  0  0  0  0  0  0  0  0
   44.5434   32.3616   53.6980 C   0  0  2  0  0  0  0  0  0  0  0  0
   44.1698   30.9766   54.0393 N   0  0  0  0  0  0  0  0  0  0  0  0
   45.4698   32.9440   54.7880 C   0  0  1  0  0  0  0  0  0  0  0  0
   46.6674   32.1549   54.8864 O   0  0  0  0  0  0  0  0  0  0  0  0
   45.8234   34.3879   54.3754 C   0  0  2  0  0  0  0  0  0  0  0  0
   46.6813   34.9662   55.3738 O   0  0  0  0  0  0  0  0  0  0  0  0
   44.4990   35.2058   54.2773 C   0  0  2  0  0  0  0  0  0  0  0  0
   43.6089   34.6225   53.2796 O   0  0  0  0  0  0  0  0  0  0  0  0
   44.7793   36.6557   53.8496 C   0  0  0  0  0  0  0  0  0  0  0  0
   43.5496   37.3643   53.6150 O   0  0  0  0  0  0  0  0  0  0  0  0
  1  2  1  6  0  0  0
  1  3  1  0  0  0  0
  1  4  2  0  0  0  0
  1 16  1  0  0  0  0
  5  6  1  1  0  0  0
  5  7  1  0  0  0  0
  5 14  1  0  0  0  0
  7  8  1  1  0  0  0
  7  9  1  0  0  0  0
  9 10  1  6  0  0  0
  9 11  1  0  0  0  0
 11 12  1  1  0  0  0
 11 13  1  0  0  0  0
 13 14  1  0  0  0  0
 13 15  1  6  0  0  0
 15 16  1  0  0  0  0
M  CHG  1   3  -1
M  END
>  <CHROM.1>
173.54791937,-175.28733912,174.80700237,44.42889160,35.63795828,53.82823383
1.71844557,-0.34109943,-0.16199143

>  <Name>
ligand

>  <RI>
0

>  <Rbt.Current_Directory>
/home/itssahil/PROJECTS/Mol_Feturizer/New_Systems/rnas/3B4A

>  <Rbt.Executable>
rbdock ($Id: //depot/dev/client3/rdock/2013.1/src/exe/rbdock.cxx#4 $)

>  <Rbt.Library>
libRbt.so (2013.1, Build901 2013/11/27)

>  <Rbt.Parameter_File>
/export/apps/rDock/src/rDock_2013.1_src/data/scripts/dock_solv.prm

>  <Rbt.Receptor>
prm/pocket_docking_7.prm

>  <SCORE>
-5.95153

>  <SCORE.INTER>
-4.65312

>  <SCORE.INTER.CONST>
1

>  <SCORE.INTER.POLAR>
0

>  <SCORE.INTER.ROT>
3

>  <SCORE.INTER.SOLV>
15.8924

>  <SCORE.INTER.VDW>
-13.9995

>  <SCORE.INTER.norm>
-0.29082

>  <SCORE.INTRA>
-1.2984

>  <SCORE.INTRA.DIHEDRAL>
-1.75736

>  <SCORE.INTRA.DIHEDRAL.0>
2.05999

>  <SCORE.INTRA.POLAR>
0

>  <SCORE.INTRA.POLAR.0>
0

>  <SCORE.INTRA.REPUL>
0

>  <SCORE.INTRA.REPUL.0>
0

>  <SCORE.INTRA.SOLV>
-0.367624

>  <SCORE.INTRA.SOLV.lig_0>
-58.7001

>  <SCORE.INTRA.VDW>
-0.235911

>  <SCORE.INTRA.VDW.0>
-0.401036

>  <SCORE.INTRA.norm>
-0.0811502

>  <SCORE.RESTR>
0

>  <SCORE.RESTR.CAVITY>
0

>  <SCORE.RESTR.norm>
0

>  <SCORE.SYSTEM>
0

>  <SCORE.SYSTEM.CONST>
0

>  <SCORE.SYSTEM.DIHEDRAL>
0

>  <SCORE.SYSTEM.SOLV>
0

>  <SCORE.SYSTEM.norm>
0

>  <SCORE.heavy>
16

>  <SCORE.norm>
-0.37197

>  <RMSD>
5.789

$$$$
ligand
 OpenBabel11021811463D
libRbt.so/2013.1/901 2013/11/27
 16 16  0  0  0  0  0  0  0  0999 V2000
   45.4569   34.5307   55.3794 P   0  0  2  0  0  0  0  0  0  0  0  0
   46.1026   34.1469   56.6594 O   0  0  0  0  0  0  0  0  0  0  0  0
   44.3995   35.7173   55.6535 O   0  5  0  0  0  0  0  0  0  0  0  0
   44.6947   33.2394   54.7722 O   0  0  0  0  0  0  0  0  0  0  0  0
   48.6703   37.3282   51.4778 C   0  0  2  0  0  0  0  0  0  0  0  0
   48.0494   37.5846   50.1975 O   0  0  0  0  0  0  0  0  0  0  0  0
   49.8047   36.2710   51.3455 C   0  0  2  0  0  0  0  0  0  0  0  0
   50.8119   36.7465   50.3793 N   0  0  0  0  0  0  0  0  0  0  0  0
   49.1883   34.9419   50.8567 C   0  0  1  0  0  0  0  0  0  0  0  0
   50.2140   33.9425   50.7314 O   0  0  0  0  0  0  0  0  0  0  0  0
   48.1470   34.4985   51.9053 C   0  0  2  0  0  0  0  0  0  0  0  0
   47.5451   33.2644   51.4786 O   0  0  0  0  0  0  0  0  0  0  0  0
   47.0577   35.6097   52.0118 C   0  0  2  0  0  0  0  0  0  0  0  0
   47.6543   36.8741   52.4280 O   0  0  0  0  0  0  0  0  0  0  0  0
   45.9945   35.2382   53.0583 C   0  0  0  0  0  0  0  0  0  0  0  0
   46.5969   35.0472   54.3506 O   0  0  0  0  0  0  0  0  0  0  0  0
  1  2  1  1  0  0  0
  1  3  1  0  0  0  0
  1  4  2  0  0  0  0
  1 16  1  0  0  0  0
  5  6  1  6  0  0  0
  5  7  1  0  0  0  0
  5 14  1  0  0  0  0
  7  8  1  6  0  0  0
  7  9  1  0  0  0  0
  9 10  1  1  0  0  0
  9 11  1  0  0  0  0
 11 12  1  6  0  0  0
 11 13  1  0  0  0  0
 13 14  1  0  0  0  0
 13 15  1  1  0  0  0
 15 16  1  0  0  0  0
M  CHG  1   3  -1
M  END
>  <CHROM.1>
58.82622272,-175.00491979,172.01788777,47.32539250,35.22943992,52.91182614
2.78223745,-0.81251528,2.97976780

>  <Name>
ligand

>  <RI>
0

>  <Rbt.Current_Directory>
/home/itssahil/PROJECTS/Mol_Feturizer/New_Systems/rnas/3B4A

>  <Rbt.Executable>
rbdock ($Id: //depot/dev/client3/rdock/2013.1/src/exe/rbdock.cxx#4 $)

>  <Rbt.Library>
libRbt.so (2013.1, Build901 2013/11/27)

>  <Rbt.Parameter_File>
/export/apps/rDock/src/rDock_2013.1_src/data/scripts/dock_solv.prm

>  <Rbt.Receptor>
prm/pocket_docking_4.prm

>  <SCORE>
-4.62225

>  <SCORE.INTER>
-3.263

>  <SCORE.INTER.CONST>
1

>  <SCORE.INTER.POLAR>
0

>  <SCORE.INTER.ROT>
3

>  <SCORE.INTER.SOLV>
11.3159

>  <SCORE.INTER.VDW>
-11.5473

>  <SCORE.INTER.norm>
-0.203937

>  <SCORE.INTRA>
-1.35925

>  <SCORE.INTRA.DIHEDRAL>
-1.82748

>  <SCORE.INTRA.DIHEDRAL.0>
2.05999

>  <SCORE.INTRA.POLAR>
0

>  <SCORE.INTRA.POLAR.0>
0

>  <SCORE.INTRA.REPUL>
0

>  <SCORE.INTRA.REPUL.0>
0

>  <SCORE.INTRA.SOLV>
-0.150956

>  <SCORE.INTRA.SOLV.lig_0>
-58.7001

>  <SCORE.INTRA.VDW>
-0.370039

>  <SCORE.INTRA.VDW.0>
-0.401036

>  <SCORE.INTRA.norm>
-0.0849534

>  <SCORE.RESTR>
0

>  <SCORE.RESTR.CAVITY>
0

>  <SCORE.RESTR.norm>
0

>  <SCORE.SYSTEM>
0

>  <SCORE.SYSTEM.CONST>
0

>  <SCORE.SYSTEM.DIHEDRAL>
0

>  <SCORE.SYSTEM.SOLV>
0

>  <SCORE.SYSTEM.norm>
0

>  <SCORE.heavy>
16

>  <SCORE.norm>
-0.288891

>  <RMSD>
5.790

$$$$
ligand
 OpenBabel11021811463D
libRbt.so/2013.1/901 2013/11/27
 16 16  0  0  0  0  0  0  0  0999 V2000
   44.5848   39.5680   53.9380 P   0  0  2  0  0  0  0  0  0  0  0  0
   43.9406   39.9526   55.2184 O   0  0  0  0  0  0  0  0  0  0  0  0
   45.7699   40.6105   53.6062 O   0  5  0  0  0  0  0  0  0  0  0  0
   43.4725   39.6024   52.7637 O   0  0  0  0  0  0  0  0  0  0  0  0
   46.1994   34.2476   52.8666 C   0  0  2  0  0  0  0  0  0  0  0  0
   45.1475   33.3175   52.5221 O   0  0  0  0  0  0  0  0  0  0  0  0
   46.8893   33.8399   54.2008 C   0  0  2  0  0  0  0  0  0  0  0  0
   47.4378   32.4769   54.0761 N   0  0  0  0  0  0  0  0  0  0  0  0
   45.8414   33.8872   55.3345 C   0  0  1  0  0  0  0  0  0  0  0  0
   46.4530   33.5208   56.5829 O   0  0  0  0  0  0  0  0  0  0  0  0
   45.3072   35.3324   55.4144 C   0  0  2  0  0  0  0  0  0  0  0  0
   44.3208   35.4127   56.4573 O   0  0  0  0  0  0  0  0  0  0  0  0
   44.6570   35.6890   54.0422 C   0  0  2  0  0  0  0  0  0  0  0  0
   45.6409   35.5963   52.9692 O   0  0  0  0  0  0  0  0  0  0  0  0
   44.1189   37.1291   54.0472 C   0  0  0  0  0  0  0  0  0  0  0  0
   45.2004   38.0768   54.0872 O   0  0  0  0  0  0  0  0  0  0  0  0
  1  2  1  1  0  0  0
  1  3  1  0  0  0  0
  1  4  2  0  0  0  0
  1 16  1  0  0  0  0
  5  6  1  1  0  0  0
  5  7  1  0  0  0  0
  5 14  1  0  0  0  0
  7  8  1  6  0  0  0
  7  9  1  0  0  0  0
  9 10  1  1  0  0  0
  9 11  1  0  0  0  0
 11 12  1  1  0  0  0
 11 13  1  0  0  0  0
 13 14  1  0  0  0  0
 13 15  1  1  0  0  0
 15 16  1  0  0  0  0
M  CHG  1   3  -1
M  END
>  <CHROM.1>
68.95625135,174.29023607,74.82420642,45.23306230,36.45717068,54.23528218
-2.74641421,-1.27339291,1.88865672

>  <Name>
ligand

>  <RI>
0

>  <Rbt.Current_Directory>
/home/itssahil/PROJECTS/Mol_Feturizer/New_Systems/rnas/3B4A

>  <Rbt.Executable>
rbdock ($Id: //depot/dev/client3/rdock/2013.1/src/exe/rbdock.cxx#4 $)

>  <Rbt.Library>
libRbt.so (2013.1, Build901 2013/11/27)

>  <Rbt.Parameter_File>
/export/apps/rDock/src/rDock_2013.1_src/data/scripts/dock_solv.prm

>  <Rbt.Receptor>
prm/pocket_docking_7.prm

>  <SCORE>
-8.81628

>  <SCORE.INTER>
-7.68497

>  <SCORE.INTER.CONST>
1

>  <SCORE.INTER.POLAR>
0

>  <SCORE.INTER.ROT>
3

>  <SCORE.INTER.SOLV>
12.0049

>  <SCORE.INTER.VDW>
-14.725

>  <SCORE.INTER.norm>
-0.48031

>  <SCORE.INTRA>
-1.13132

>  <SCORE.INTRA.DIHEDRAL>
-1.26653

>  <SCORE.INTRA.DIHEDRAL.0>
2.05999

>  <SCORE.INTRA.POLAR>
0

>  <SCORE.INTRA.POLAR.0>
0

>  <SCORE.INTRA.REPUL>
0

>  <SCORE.INTRA.REPUL.0>
0

>  <SCORE.INTRA.SOLV>
-0.694683

>  <SCORE.INTRA.SOLV.lig_0>
-58.7001

>  <SCORE.INTRA.VDW>
-0.150714

>  <SCORE.INTRA.VDW.0>
-0.401036

>  <SCORE.INTRA.norm>
-0.0707074

>  <SCORE.RESTR>
0

>  <SCORE.RESTR.CAVITY>
0

>  <SCORE.RESTR.norm>
0

>  <SCORE.SYSTEM>
0

>  <SCORE.SYSTEM.CONST>
0

>  <SCORE.SYSTEM.DIHEDRAL>
0

>  <SCORE.SYSTEM.SOLV>
0

>  <SCORE.SYSTEM.norm>
0

>  <SCORE.heavy>
16

>  <SCORE.norm>
-0.551018

>  <RMSD>
5.795

$$$$
ligand
 OpenBabel11021811463D
libRbt.so/2013.1/901 2013/11/27
 16 16  0  0  0  0  0  0  0  0999 V2000
   43.5264   38.5483   52.8582 P   0  0  2  0  0  0  0  0  0  0  0  0
   42.0679   38.6379   52.5989 O   0  0  0  0  0  0  0  0  0  0  0  0
   43.9043   39.5051   54.1003 O   0  5  0  0  0  0  0  0  0  0  0  0
   44.3219   39.0229   51.5319 O   0  0  0  0  0  0  0  0  0  0  0  0
   47.5186   33.8615   53.1490 C   0  0  2  0  0  0  0  0  0  0  0  0
   46.6055   32.9404   52.5102 O   0  0  0  0  0  0  0  0  0  0  0  0
   47.6574   33.5465   54.6668 C   0  0  2  0  0  0  0  0  0  0  0  0
   48.1296   32.1606   54.8417 N   0  0  0  0  0  0  0  0  0  0  0  0
   46.2776   33.7243   55.3375 C   0  0  1  0  0  0  0  0  0  0  0  0
   46.3767   33.4457   56.7443 O   0  0  0  0  0  0  0  0  0  0  0  0
   45.8398   35.1878   55.1205 C   0  0  2  0  0  0  0  0  0  0  0  0
   44.5517   35.3887   55.7269 O   0  0  0  0  0  0  0  0  0  0  0  0
   45.7484   35.4474   53.5852 C   0  0  2  0  0  0  0  0  0  0  0  0
   47.0441   35.2316   52.9508 O   0  0  0  0  0  0  0  0  0  0  0  0
   45.3336   36.8996   53.2975 C   0  0  0  0  0  0  0  0  0  0  0  0
   43.9017   37.0146   53.2214 O   0  0  0  0  0  0  0  0  0  0  0  0
  1  2  1  6  0  0  0
  1  3  1  0  0  0  0
  1  4  2  0  0  0  0
  1 16  1  0  0  0  0
  5  6  1  1  0  0  0
  5  7  1  0  0  0  0
  5 14  1  0  0  0  0
  7  8  1  6  0  0  0
  7  9  1  0  0  0  0
  9 10  1  1  0  0  0
  9 11  1  0  0  0  0
 11 12  1  1  0  0  0
 11 13  1  0  0  0  0
 13 14  1  0  0  0  0
 13 15  1  1  0  0  0
 15 16  1  0  0  0  0
M  CHG  1   3  -1
M  END
>  <CHROM.1>
-89.81678532,-177.73684067,172.49999527,45.34887250,35.92695121,53.79741844
-2.54189516,-0.86006962,1.97463615

>  <Name>
ligand

>  <RI>
0

>  <Rbt.Current_Directory>
/home/itssahil/PROJECTS/Mol_Feturizer/New_Systems/rnas/3B4A

>  <Rbt.Executable>
rbdock ($Id: //depot/dev/client3/rdock/2013.1/src/exe/rbdock.cxx#4 $)

>  <Rbt.Library>
libRbt.so (2013.1, Build901 2013/11/27)

>  <Rbt.Parameter_File>
/export/apps/rDock/src/rDock_2013.1_src/data/scripts/dock_solv.prm

>  <Rbt.Receptor>
prm/pocket_docking_5.prm

>  <SCORE>
-8.81786

>  <SCORE.INTER>
-8.59847

>  <SCORE.INTER.CONST>
1

>  <SCORE.INTER.POLAR>
0

>  <SCORE.INTER.ROT>
3

>  <SCORE.INTER.SOLV>
16.1871

>  <SCORE.INTER.VDW>
-16.728

>  <SCORE.INTER.norm>
-0.537404

>  <SCORE.INTRA>
-0.219658

>  <SCORE.INTRA.DIHEDRAL>
0.665799

>  <SCORE.INTRA.DIHEDRAL.0>
2.05999

>  <SCORE.INTRA.POLAR>
0

>  <SCORE.INTRA.POLAR.0>
0

>  <SCORE.INTRA.REPUL>
0

>  <SCORE.INTRA.REPUL.0>
0

>  <SCORE.INTRA.SOLV>
-0.312525

>  <SCORE.INTRA.SOLV.lig_0>
-58.7001

>  <SCORE.INTRA.VDW>
-0.396296

>  <SCORE.INTRA.VDW.0>
-0.401036

>  <SCORE.INTRA.norm>
-0.0137286

>  <SCORE.RESTR>
0.000268333

>  <SCORE.RESTR.CAVITY>
0.000268333

>  <SCORE.RESTR.norm>
1.67708e-05

>  <SCORE.SYSTEM>
0

>  <SCORE.SYSTEM.CONST>
0

>  <SCORE.SYSTEM.DIHEDRAL>
0

>  <SCORE.SYSTEM.SOLV>
0

>  <SCORE.SYSTEM.norm>
0

>  <SCORE.heavy>
16

>  <SCORE.norm>
-0.551116

>  <RMSD>
5.817

$$$$
ligand
 OpenBabel11021811463D
libRbt.so/2013.1/901 2013/11/27
 16 16  0  0  0  0  0  0  0  0999 V2000
   45.2460   34.6458   55.6608 P   0  0  2  0  0  0  0  0  0  0  0  0
   44.2980   35.3604   56.5513 O   0  0  0  0  0  0  0  0  0  0  0  0
   44.4337   33.5707   54.7746 O   0  5  0  0  0  0  0  0  0  0  0  0
   46.3495   33.8913   56.5720 O   0  0  0  0  0  0  0  0  0  0  0  0
   49.4506   36.1577   51.3527 C   0  0  2  0  0  0  0  0  0  0  0  0
   49.9874   37.2904   52.0732 O   0  0  0  0  0  0  0  0  0  0  0  0
   48.5322   36.6236   50.1858 C   0  0  2  0  0  0  0  0  0  0  0  0
   49.2981   37.4902   49.2711 N   0  0  0  0  0  0  0  0  0  0  0  0
   47.3372   37.4031   50.7772 C   0  0  1  0  0  0  0  0  0  0  0  0
   46.4664   37.8412   49.7206 O   0  0  0  0  0  0  0  0  0  0  0  0
   46.5793   36.4469   51.7214 C   0  0  2  0  0  0  0  0  0  0  0  0
   45.4611   37.1429   52.2980 O   0  0  0  0  0  0  0  0  0  0  0  0
   47.5591   35.9945   52.8475 C   0  0  2  0  0  0  0  0  0  0  0  0
   48.7089   35.3005   52.2782 O   0  0  0  0  0  0  0  0  0  0  0  0
   46.8697   35.0204   53.8167 C   0  0  0  0  0  0  0  0  0  0  0  0
   45.9625   35.7224   54.6848 O   0  0  0  0  0  0  0  0  0  0  0  0
  1  2  1  1  0  0  0
  1  3  1  0  0  0  0
  1  4  2  0  0  0  0
  1 16  1  0  0  0  0
  5  6  1  1  0  0  0
  5  7  1  0  0  0  0
  5 14  1  0  0  0  0
  7  8  1  6  0  0  0
  7  9  1  0  0  0  0
  9 10  1  6  0  0  0
  9 11  1  0  0  0  0
 11 12  1  1  0  0  0
 11 13  1  0  0  0  0
 13 14  1  0  0  0  0
 13 15  1  1  0  0  0
 15 16  1  0  0  0  0
M  CHG  1   3  -1
M  END
>  <CHROM.1>
-74.83411400,178.90281863,-179.45773809,46.86019668,35.87817774,53.06041444
-2.08947108,0.14561900,-1.03654623

>  <Name>
ligand

>  <RI>
0

>  <Rbt.Current_Directory>
/home/itssahil/PROJECTS/Mol_Feturizer/New_Systems/rnas/3B4A

>  <Rbt.Executable>
rbdock ($Id: //depot/dev/client3/rdock/2013.1/src/exe/rbdock.cxx#4 $)

>  <Rbt.Library>
libRbt.so (2013.1, Build901 2013/11/27)

>  <Rbt.Parameter_File>
/export/apps/rDock/src/rDock_2013.1_src/data/scripts/dock_solv.prm

>  <Rbt.Receptor>
prm/pocket_docking_7.prm

>  <SCORE>
-5.8772

>  <SCORE.INTER>
-4.78473

>  <SCORE.INTER.CONST>
1

>  <SCORE.INTER.POLAR>
0

>  <SCORE.INTER.ROT>
3

>  <SCORE.INTER.SOLV>
15.3785

>  <SCORE.INTER.VDW>
-13.916

>  <SCORE.INTER.norm>
-0.299046

>  <SCORE.INTRA>
-1.09246

>  <SCORE.INTRA.DIHEDRAL>
-1.29856

>  <SCORE.INTRA.DIHEDRAL.0>
2.05999

>  <SCORE.INTRA.POLAR>
0

>  <SCORE.INTRA.POLAR.0>
0

>  <SCORE.INTRA.REPUL>
0

>  <SCORE.INTRA.REPUL.0>
0

>  <SCORE.INTRA.SOLV>
-0.10701

>  <SCORE.INTRA.SOLV.lig_0>
-58.7001

>  <SCORE.INTRA.VDW>
-0.389677

>  <SCORE.INTRA.VDW.0>
-0.401036

>  <SCORE.INTRA.norm>
-0.068279

>  <SCORE.RESTR>
0

>  <SCORE.RESTR.CAVITY>
0

>  <SCORE.RESTR.norm>
0

>  <SCORE.SYSTEM>
0

>  <SCORE.SYSTEM.CONST>
0

>  <SCORE.SYSTEM.DIHEDRAL>
0

>  <SCORE.SYSTEM.SOLV>
0

>  <SCORE.SYSTEM.norm>
0

>  <SCORE.heavy>
16

>  <SCORE.norm>
-0.367325

>  <RMSD>
5.826

$$$$
ligand
 OpenBabel11021811463D
libRbt.so/2013.1/901 2013/11/27
 16 16  0  0  0  0  0  0  0  0999 V2000
   44.5373   39.6303   53.9042 P   0  0  2  0  0  0  0  0  0  0  0  0
   43.9103   39.9827   55.2023 O   0  0  0  0  0  0  0  0  0  0  0  0
   45.7042   40.6932   53.5727 O   0  5  0  0  0  0  0  0  0  0  0  0
   43.4050   39.6732   52.7495 O   0  0  0  0  0  0  0  0  0  0  0  0
   46.2145   34.3253   52.8600 C   0  0  2  0  0  0  0  0  0  0  0  0
   45.1736   33.3868   52.5049 O   0  0  0  0  0  0  0  0  0  0  0  0
   46.8963   33.9212   54.1994 C   0  0  2  0  0  0  0  0  0  0  0  0
   47.4576   32.5632   54.0772 N   0  0  0  0  0  0  0  0  0  0  0  0
   45.8385   33.9576   55.3241 C   0  0  1  0  0  0  0  0  0  0  0  0
   46.4424   33.5945   56.5771 O   0  0  0  0  0  0  0  0  0  0  0  0
   45.2912   35.3981   55.4017 C   0  0  2  0  0  0  0  0  0  0  0  0
   44.2952   35.4682   56.4363 O   0  0  0  0  0  0  0  0  0  0  0  0
   44.6498   35.7514   54.0246 C   0  0  2  0  0  0  0  0  0  0  0  0
   45.6436   35.6689   52.9600 O   0  0  0  0  0  0  0  0  0  0  0  0
   44.0993   37.1869   54.0273 C   0  0  0  0  0  0  0  0  0  0  0  0
   45.1730   38.1442   54.0147 O   0  0  0  0  0  0  0  0  0  0  0  0
  1  2  1  1  0  0  0
  1  3  1  0  0  0  0
  1  4  2  0  0  0  0
  1 16  1  0  0  0  0
  5  6  1  1  0  0  0
  5  7  1  0  0  0  0
  5 14  1  0  0  0  0
  7  8  1  6  0  0  0
  7  9  1  0  0  0  0
  9 10  1  1  0  0  0
  9 11  1  0  0  0  0
 11 12  1  1  0  0  0
 11 13  1  0  0  0  0
 13 14  1  0  0  0  0
 13 15  1  1  0  0  0
 15 16  1  0  0  0  0
M  CHG  1   3  -1
M  END
>  <CHROM.1>
71.65628965,175.74755303,72.60816758,45.21444472,36.52444397,54.21554067
-2.71953360,-1.26001192,1.91274025

>  <Name>
ligand

>  <RI>
0

>  <Rbt.Current_Directory>
/home/itssahil/PROJECTS/Mol_Feturizer/New_Systems/rnas/3B4A

>  <Rbt.Executable>
rbdock ($Id: //depot/dev/client3/rdock/2013.1/src/exe/rbdock.cxx#4 $)

>  <Rbt.Library>
libRbt.so (2013.1, Build901 2013/11/27)

>  <Rbt.Parameter_File>
/export/apps/rDock/src/rDock_2013.1_src/data/scripts/dock_solv.prm

>  <Rbt.Receptor>
prm/pocket_docking_8.prm

>  <SCORE>
-8.71289

>  <SCORE.INTER>
-7.58156

>  <SCORE.INTER.CONST>
1

>  <SCORE.INTER.POLAR>
0

>  <SCORE.INTER.ROT>
3

>  <SCORE.INTER.SOLV>
11.5519

>  <SCORE.INTER.VDW>
-14.505

>  <SCORE.INTER.norm>
-0.473847

>  <SCORE.INTRA>
-1.13133

>  <SCORE.INTRA.DIHEDRAL>
-1.23678

>  <SCORE.INTRA.DIHEDRAL.0>
2.05999

>  <SCORE.INTRA.POLAR>
0

>  <SCORE.INTRA.POLAR.0>
0

>  <SCORE.INTRA.REPUL>
0

>  <SCORE.INTRA.REPUL.0>
0

>  <SCORE.INTRA.SOLV>
-0.727606

>  <SCORE.INTRA.SOLV.lig_0>
-58.7001

>  <SCORE.INTRA.VDW>
-0.149137

>  <SCORE.INTRA.VDW.0>
-0.401036

>  <SCORE.INTRA.norm>
-0.070708

>  <SCORE.RESTR>
0

>  <SCORE.RESTR.CAVITY>
0

>  <SCORE.RESTR.norm>
0

>  <SCORE.SYSTEM>
0

>  <SCORE.SYSTEM.CONST>
0

>  <SCORE.SYSTEM.DIHEDRAL>
0

>  <SCORE.SYSTEM.SOLV>
0

>  <SCORE.SYSTEM.norm>
0

>  <SCORE.heavy>
16

>  <SCORE.norm>
-0.544555

>  <RMSD>
5.835

$$$$
ligand
 OpenBabel11021811463D
libRbt.so/2013.1/901 2013/11/27
 16 16  0  0  0  0  0  0  0  0999 V2000
   43.5754   39.2853   52.6040 P   0  0  2  0  0  0  0  0  0  0  0  0
   43.4062   40.0926   53.8377 O   0  0  0  0  0  0  0  0  0  0  0  0
   44.0864   40.2415   51.4100 O   0  5  0  0  0  0  0  0  0  0  0  0
   42.1510   38.6252   52.2134 O   0  0  0  0  0  0  0  0  0  0  0  0
   45.3219   33.9768   55.3248 C   0  0  2  0  0  0  0  0  0  0  0  0
   46.5703   34.4203   55.9038 O   0  0  0  0  0  0  0  0  0  0  0  0
   45.5703   33.1546   54.0269 C   0  0  2  0  0  0  0  0  0  0  0  0
   46.4274   31.9948   54.3342 N   0  0  0  0  0  0  0  0  0  0  0  0
   46.2631   34.0649   52.9892 C   0  0  1  0  0  0  0  0  0  0  0  0
   46.4995   33.3325   51.7750 O   0  0  0  0  0  0  0  0  0  0  0  0
   45.3208   35.2545   52.7111 C   0  0  2  0  0  0  0  0  0  0  0  0
   45.9382   36.1299   51.7520 O   0  0  0  0  0  0  0  0  0  0  0  0
   45.0889   36.0173   54.0516 C   0  0  2  0  0  0  0  0  0  0  0  0
   44.4778   35.1383   55.0425 O   0  0  0  0  0  0  0  0  0  0  0  0
   44.1391   37.2089   53.8483 C   0  0  0  0  0  0  0  0  0  0  0  0
   44.6753   38.1283   52.8805 O   0  0  0  0  0  0  0  0  0  0  0  0
  1  2  1  1  0  0  0
  1  3  1  0  0  0  0
  1  4  2  0  0  0  0
  1 16  1  0  0  0  0
  5  6  1  6  0  0  0
  5  7  1  0  0  0  0
  5 14  1  0  0  0  0
  7  8  1  1  0  0  0
  7  9  1  0  0  0  0
  9 10  1  6  0  0  0
  9 11  1  0  0  0  0
 11 12  1  6  0  0  0
 11 13  1  0  0  0  0
 13 14  1  0  0  0  0
 13 15  1  6  0  0  0
 15 16  1  0  0  0  0
M  CHG  1   3  -1
M  END
>  <CHROM.1>
-59.17730896,174.73858487,66.53260671,44.84951174,36.37402473,53.33631279
2.53562407,1.08343540,-1.15686796

>  <Name>
ligand

>  <RI>
0

>  <Rbt.Current_Directory>
/home/itssahil/PROJECTS/Mol_Feturizer/New_Systems/rnas/3B4A

>  <Rbt.Executable>
rbdock ($Id: //depot/dev/client3/rdock/2013.1/src/exe/rbdock.cxx#4 $)

>  <Rbt.Library>
libRbt.so (2013.1, Build901 2013/11/27)

>  <Rbt.Parameter_File>
/export/apps/rDock/src/rDock_2013.1_src/data/scripts/dock_solv.prm

>  <Rbt.Receptor>
prm/pocket_docking_8.prm

>  <SCORE>
-7.53104

>  <SCORE.INTER>
-6.38104

>  <SCORE.INTER.CONST>
1

>  <SCORE.INTER.POLAR>
0

>  <SCORE.INTER.ROT>
3

>  <SCORE.INTER.SOLV>
16.1913

>  <SCORE.INTER.VDW>
-15.2511

>  <SCORE.INTER.norm>
-0.398815

>  <SCORE.INTRA>
-1.15

>  <SCORE.INTRA.DIHEDRAL>
-1.84942

>  <SCORE.INTRA.DIHEDRAL.0>
2.05999

>  <SCORE.INTRA.POLAR>
0

>  <SCORE.INTRA.POLAR.0>
0

>  <SCORE.INTRA.REPUL>
0

>  <SCORE.INTRA.REPUL.0>
0

>  <SCORE.INTRA.SOLV>
-0.478735

>  <SCORE.INTRA.SOLV.lig_0>
-58.7001

>  <SCORE.INTRA.VDW>
0.0140794

>  <SCORE.INTRA.VDW.0>
-0.401036

>  <SCORE.INTRA.norm>
-0.071875

>  <SCORE.RESTR>
0

>  <SCORE.RESTR.CAVITY>
0

>  <SCORE.RESTR.norm>
0

>  <SCORE.SYSTEM>
0

>  <SCORE.SYSTEM.CONST>
0

>  <SCORE.SYSTEM.DIHEDRAL>
0

>  <SCORE.SYSTEM.SOLV>
0

>  <SCORE.SYSTEM.norm>
0

>  <SCORE.heavy>
16

>  <SCORE.norm>
-0.47069

>  <RMSD>
5.850

$$$$
ligand
 OpenBabel11021811463D
libRbt.so/2013.1/901 2013/11/27
 16 16  0  0  0  0  0  0  0  0999 V2000
   44.6414   34.6361   55.0555 P   0  0  2  0  0  0  0  0  0  0  0  0
   44.9750   34.9637   56.4640 O   0  0  0  0  0  0  0  0  0  0  0  0
   44.1462   35.9736   54.3025 O   0  5  0  0  0  0  0  0  0  0  0  0
   43.4646   33.5259   55.0431 O   0  0  0  0  0  0  0  0  0  0  0  0
   50.3051   35.4496   52.6465 C   0  0  2  0  0  0  0  0  0  0  0  0
   49.9583   35.0121   51.3128 O   0  0  0  0  0  0  0  0  0  0  0  0
   51.1072   34.3511   53.4027 C   0  0  2  0  0  0  0  0  0  0  0  0
   52.3275   34.0208   52.6437 N   0  0  0  0  0  0  0  0  0  0  0  0
   50.2166   33.0973   53.5450 C   0  0  1  0  0  0  0  0  0  0  0  0
   50.9305   32.0659   54.2471 O   0  0  0  0  0  0  0  0  0  0  0  0
   48.9618   33.5061   54.3442 C   0  0  2  0  0  0  0  0  0  0  0  0
   48.1031   32.3622   54.4902 O   0  0  0  0  0  0  0  0  0  0  0  0
   48.2211   34.6262   53.5508 C   0  0  2  0  0  0  0  0  0  0  0  0
   49.0846   35.7893   53.3789 O   0  0  0  0  0  0  0  0  0  0  0  0
   46.9658   35.0948   54.3045 C   0  0  0  0  0  0  0  0  0  0  0  0
   45.9666   34.0602   54.3225 O   0  0  0  0  0  0  0  0  0  0  0  0
  1  2  1  1  0  0  0
  1  3  1  0  0  0  0
  1  4  2  0  0  0  0
  1 16  1  0  0  0  0
  5  6  1  6  0  0  0
  5  7  1  0  0  0  0
  5 14  1  0  0  0  0
  7  8  1  6  0  0  0
  7  9  1  0  0  0  0
  9 10  1  1  0  0  0
  9 11  1  0  0  0  0
 11 12  1  6  0  0  0
 11 13  1  0  0  0  0
 13 14  1  0  0  0  0
 13 15  1  1  0  0  0
 15 16  1  0  0  0  0
M  CHG  1   3  -1
M  END
>  <CHROM.1>
-68.54671782,-176.92910773,-63.07345415,47.75749093,34.30466842,54.04068118
3.07008402,-0.32235115,2.61068253

>  <Name>
ligand

>  <RI>
0

>  <Rbt.Current_Directory>
/home/itssahil/PROJECTS/Mol_Feturizer/New_Systems/rnas/3B4A

>  <Rbt.Executable>
rbdock ($Id: //depot/dev/client3/rdock/2013.1/src/exe/rbdock.cxx#4 $)

>  <Rbt.Library>
libRbt.so (2013.1, Build901 2013/11/27)

>  <Rbt.Parameter_File>
/export/apps/rDock/src/rDock_2013.1_src/data/scripts/dock_solv.prm

>  <Rbt.Receptor>
prm/pocket_docking_4.prm

>  <SCORE>
-4.91939

>  <SCORE.INTER>
-3.5831

>  <SCORE.INTER.CONST>
1

>  <SCORE.INTER.POLAR>
0

>  <SCORE.INTER.ROT>
3

>  <SCORE.INTER.SOLV>
15.0875

>  <SCORE.INTER.VDW>
-13.0179

>  <SCORE.INTER.norm>
-0.223944

>  <SCORE.INTRA>
-1.3363

>  <SCORE.INTRA.DIHEDRAL>
-1.73839

>  <SCORE.INTRA.DIHEDRAL.0>
2.05999

>  <SCORE.INTRA.POLAR>
0

>  <SCORE.INTRA.POLAR.0>
0

>  <SCORE.INTRA.REPUL>
0

>  <SCORE.INTRA.REPUL.0>
0

>  <SCORE.INTRA.SOLV>
-0.692613

>  <SCORE.INTRA.SOLV.lig_0>
-58.7001

>  <SCORE.INTRA.VDW>
-0.120792

>  <SCORE.INTRA.VDW.0>
-0.401036

>  <SCORE.INTRA.norm>
-0.0835185

>  <SCORE.RESTR>
0

>  <SCORE.RESTR.CAVITY>
0

>  <SCORE.RESTR.norm>
0

>  <SCORE.SYSTEM>
0

>  <SCORE.SYSTEM.CONST>
0

>  <SCORE.SYSTEM.DIHEDRAL>
0

>  <SCORE.SYSTEM.SOLV>
0

>  <SCORE.SYSTEM.norm>
0

>  <SCORE.heavy>
16

>  <SCORE.norm>
-0.307462

>  <RMSD>
5.853

$$$$
ligand
 OpenBabel11021811463D
libRbt.so/2013.1/901 2013/11/27
 16 16  0  0  0  0  0  0  0  0999 V2000
   43.5653   39.2979   52.6677 P   0  0  2  0  0  0  0  0  0  0  0  0
   43.4665   40.1370   53.8878 O   0  0  0  0  0  0  0  0  0  0  0  0
   44.0314   40.2176   51.4275 O   0  5  0  0  0  0  0  0  0  0  0  0
   42.1149   38.6498   52.3619 O   0  0  0  0  0  0  0  0  0  0  0  0
   45.3228   33.9755   55.3521 C   0  0  2  0  0  0  0  0  0  0  0  0
   46.5987   34.3975   55.8852 O   0  0  0  0  0  0  0  0  0  0  0  0
   45.5099   33.1467   54.0482 C   0  0  2  0  0  0  0  0  0  0  0  0
   46.3567   31.9723   54.3274 N   0  0  0  0  0  0  0  0  0  0  0  0
   46.1812   34.0426   52.9843 C   0  0  1  0  0  0  0  0  0  0  0  0
   46.3611   33.3040   51.7641 O   0  0  0  0  0  0  0  0  0  0  0  0
   45.2510   35.2485   52.7372 C   0  0  2  0  0  0  0  0  0  0  0  0
   45.8492   36.1110   51.7546 O   0  0  0  0  0  0  0  0  0  0  0  0
   45.0808   36.0176   54.0833 C   0  0  2  0  0  0  0  0  0  0  0  0
   44.4899   35.1514   55.0974 O   0  0  0  0  0  0  0  0  0  0  0  0
   44.1457   37.2257   53.9112 C   0  0  0  0  0  0  0  0  0  0  0  0
   44.6614   38.1318   52.9200 O   0  0  0  0  0  0  0  0  0  0  0  0
  1  2  1  1  0  0  0
  1  3  1  0  0  0  0
  1  4  2  0  0  0  0
  1 16  1  0  0  0  0
  5  6  1  6  0  0  0
  5  7  1  0  0  0  0
  5 14  1  0  0  0  0
  7  8  1  1  0  0  0
  7  9  1  0  0  0  0
  9 10  1  6  0  0  0
  9 11  1  0  0  0  0
 11 12  1  6  0  0  0
 11 13  1  0  0  0  0
 13 14  1  0  0  0  0
 13 15  1  6  0  0  0
 15 16  1  0  0  0  0
M  CHG  1   3  -1
M  END
>  <CHROM.1>
-59.01434580,174.07154453,67.91259940,44.81869765,36.37281159,53.37050446
2.59341597,1.11119299,-1.21320089

>  <Name>
ligand

>  <RI>
0

>  <Rbt.Current_Directory>
/home/itssahil/PROJECTS/Mol_Feturizer/New_Systems/rnas/3B4A

>  <Rbt.Executable>
rbdock ($Id: //depot/dev/client3/rdock/2013.1/src/exe/rbdock.cxx#4 $)

>  <Rbt.Library>
libRbt.so (2013.1, Build901 2013/11/27)

>  <Rbt.Parameter_File>
/export/apps/rDock/src/rDock_2013.1_src/data/scripts/dock_solv.prm

>  <Rbt.Receptor>
prm/pocket_docking_7.prm

>  <SCORE>
-7.56321

>  <SCORE.INTER>
-6.46995

>  <SCORE.INTER.CONST>
1

>  <SCORE.INTER.POLAR>
0

>  <SCORE.INTER.ROT>
3

>  <SCORE.INTER.SOLV>
16.4565

>  <SCORE.INTER.VDW>
-15.3988

>  <SCORE.INTER.norm>
-0.404372

>  <SCORE.INTRA>
-1.09326

>  <SCORE.INTRA.DIHEDRAL>
-1.77997

>  <SCORE.INTRA.DIHEDRAL.0>
2.05999

>  <SCORE.INTRA.POLAR>
0

>  <SCORE.INTRA.POLAR.0>
0

>  <SCORE.INTRA.REPUL>
0

>  <SCORE.INTRA.REPUL.0>
0

>  <SCORE.INTRA.SOLV>
-0.448677

>  <SCORE.INTRA.SOLV.lig_0>
-58.7001

>  <SCORE.INTRA.VDW>
0.0210577

>  <SCORE.INTRA.VDW.0>
-0.401036

>  <SCORE.INTRA.norm>
-0.068329

>  <SCORE.RESTR>
0

>  <SCORE.RESTR.CAVITY>
0

>  <SCORE.RESTR.norm>
0

>  <SCORE.SYSTEM>
0

>  <SCORE.SYSTEM.CONST>
0

>  <SCORE.SYSTEM.DIHEDRAL>
0

>  <SCORE.SYSTEM.SOLV>
0

>  <SCORE.SYSTEM.norm>
0

>  <SCORE.heavy>
16

>  <SCORE.norm>
-0.472701

>  <RMSD>
5.857

$$$$
ligand
 OpenBabel11021811463D
libRbt.so/2013.1/901 2013/11/27
 16 16  0  0  0  0  0  0  0  0999 V2000
   46.0670   33.8091   55.3862 P   0  0  2  0  0  0  0  0  0  0  0  0
   45.6443   34.6185   56.5561 O   0  0  0  0  0  0  0  0  0  0  0  0
   44.7648   33.1548   54.6953 O   0  5  0  0  0  0  0  0  0  0  0  0
   47.0691   32.6444   55.8927 O   0  0  0  0  0  0  0  0  0  0  0  0
   47.3186   36.5080   50.5207 C   0  0  2  0  0  0  0  0  0  0  0  0
   48.6304   36.9811   50.9020 O   0  0  0  0  0  0  0  0  0  0  0  0
   46.4064   37.6892   50.0793 C   0  0  2  0  0  0  0  0  0  0  0  0
   47.0352   38.4039   48.9532 N   0  0  0  0  0  0  0  0  0  0  0  0
   46.2219   38.6466   51.2771 C   0  0  1  0  0  0  0  0  0  0  0  0
   45.3764   39.7464   50.8999 O   0  0  0  0  0  0  0  0  0  0  0  0
   45.5629   37.8434   52.4176 C   0  0  2  0  0  0  0  0  0  0  0  0
   45.3821   38.7033   53.5557 O   0  0  0  0  0  0  0  0  0  0  0  0
   46.5091   36.6614   52.7923 C   0  0  2  0  0  0  0  0  0  0  0  0
   46.7170   35.7872   51.6432 O   0  0  0  0  0  0  0  0  0  0  0  0
   45.9007   35.8054   53.9151 C   0  0  0  0  0  0  0  0  0  0  0  0
   46.8173   34.7747   54.3234 O   0  0  0  0  0  0  0  0  0  0  0  0
  1  2  1  1  0  0  0
  1  3  1  0  0  0  0
  1  4  2  0  0  0  0
  1 16  1  0  0  0  0
  5  6  1  1  0  0  0
  5  7  1  0  0  0  0
  5 14  1  0  0  0  0
  7  8  1  6  0  0  0
  7  9  1  0  0  0  0
  9 10  1  6  0  0  0
  9 11  1  0  0  0  0
 11 12  1  1  0  0  0
 11 13  1  0  0  0  0
 13 14  1  0  0  0  0
 13 15  1  1  0  0  0
 15 16  1  0  0  0  0
M  CHG  1   3  -1
M  END
>  <CHROM.1>
-175.87331007,-173.86836042,-59.76755561,46.31689212,36.13215972,52.99418566
-1.69091212,0.89998079,-0.72561597

>  <Name>
ligand

>  <RI>
0

>  <Rbt.Current_Directory>
/home/itssahil/PROJECTS/Mol_Feturizer/New_Systems/rnas/3B4A

>  <Rbt.Executable>
rbdock ($Id: //depot/dev/client3/rdock/2013.1/src/exe/rbdock.cxx#4 $)

>  <Rbt.Library>
libRbt.so (2013.1, Build901 2013/11/27)

>  <Rbt.Parameter_File>
/export/apps/rDock/src/rDock_2013.1_src/data/scripts/dock_solv.prm

>  <Rbt.Receptor>
prm/pocket_docking_6.prm

>  <SCORE>
-7.14723

>  <SCORE.INTER>
-5.64738

>  <SCORE.INTER.CONST>
1

>  <SCORE.INTER.POLAR>
0

>  <SCORE.INTER.ROT>
3

>  <SCORE.INTER.SOLV>
11.3619

>  <SCORE.INTER.VDW>
-13.1522

>  <SCORE.INTER.norm>
-0.352961

>  <SCORE.INTRA>
-1.49985

>  <SCORE.INTRA.DIHEDRAL>
-1.81095

>  <SCORE.INTRA.DIHEDRAL.0>
2.05999

>  <SCORE.INTRA.POLAR>
0

>  <SCORE.INTRA.POLAR.0>
0

>  <SCORE.INTRA.REPUL>
0

>  <SCORE.INTRA.REPUL.0>
0

>  <SCORE.INTRA.SOLV>
-1.01432

>  <SCORE.INTRA.SOLV.lig_0>
-58.7001

>  <SCORE.INTRA.VDW>
-0.0872177

>  <SCORE.INTRA.VDW.0>
-0.401036

>  <SCORE.INTRA.norm>
-0.0937409

>  <SCORE.RESTR>
0

>  <SCORE.RESTR.CAVITY>
0

>  <SCORE.RESTR.norm>
0

>  <SCORE.SYSTEM>
0

>  <SCORE.SYSTEM.CONST>
0

>  <SCORE.SYSTEM.DIHEDRAL>
0

>  <SCORE.SYSTEM.SOLV>
0

>  <SCORE.SYSTEM.norm>
0

>  <SCORE.heavy>
16

>  <SCORE.norm>
-0.446702

>  <RMSD>
5.858

$$$$
ligand
 OpenBabel11021811463D
libRbt.so/2013.1/901 2013/11/27
 16 16  0  0  0  0  0  0  0  0999 V2000
   44.3424   39.3543   53.5072 P   0  0  2  0  0  0  0  0  0  0  0  0
   43.0861   39.2536   52.7235 O   0  0  0  0  0  0  0  0  0  0  0  0
   44.0107   39.9554   54.9666 O   0  5  0  0  0  0  0  0  0  0  0  0
   45.3674   40.3320   52.7257 O   0  0  0  0  0  0  0  0  0  0  0  0
   45.9257   33.9731   52.9662 C   0  0  2  0  0  0  0  0  0  0  0  0
   44.8515   33.0215   52.7904 O   0  0  0  0  0  0  0  0  0  0  0  0
   46.7187   33.6836   54.2736 C   0  0  2  0  0  0  0  0  0  0  0  0
   47.2580   32.3120   54.2300 N   0  0  0  0  0  0  0  0  0  0  0  0
   45.7629   33.8386   55.4769 C   0  0  1  0  0  0  0  0  0  0  0  0
   46.4710   33.5830   56.7016 O   0  0  0  0  0  0  0  0  0  0  0  0
   45.2341   35.2880   55.4676 C   0  0  2  0  0  0  0  0  0  0  0  0
   44.3324   35.4674   56.5730 O   0  0  0  0  0  0  0  0  0  0  0  0
   44.4778   35.5230   54.1239 C   0  0  2  0  0  0  0  0  0  0  0  0
   45.3746   35.3286   52.9900 O   0  0  0  0  0  0  0  0  0  0  0  0
   43.9393   36.9606   54.0409 C   0  0  0  0  0  0  0  0  0  0  0  0
   44.9838   37.8747   53.6631 O   0  0  0  0  0  0  0  0  0  0  0  0
  1  2  1  6  0  0  0
  1  3  1  0  0  0  0
  1  4  2  0  0  0  0
  1 16  1  0  0  0  0
  5  6  1  1  0  0  0
  5  7  1  0  0  0  0
  5 14  1  0  0  0  0
  7  8  1  6  0  0  0
  7  9  1  0  0  0  0
  9 10  1  1  0  0  0
  9 11  1  0  0  0  0
 11 12  1  1  0  0  0
 11 13  1  0  0  0  0
 13 14  1  0  0  0  0
 13 15  1  1  0  0  0
 15 16  1  0  0  0  0
M  CHG  1   3  -1
M  END
>  <CHROM.1>
79.67324292,176.72781678,-46.07946303,45.05009845,36.29593897,54.14567283
-2.88000892,-1.27338302,1.65456570

>  <Name>
ligand

>  <RI>
0

>  <Rbt.Current_Directory>
/home/itssahil/PROJECTS/Mol_Feturizer/New_Systems/rnas/3B4A

>  <Rbt.Executable>
rbdock ($Id: //depot/dev/client3/rdock/2013.1/src/exe/rbdock.cxx#4 $)

>  <Rbt.Library>
libRbt.so (2013.1, Build901 2013/11/27)

>  <Rbt.Parameter_File>
/export/apps/rDock/src/rDock_2013.1_src/data/scripts/dock_solv.prm

>  <Rbt.Receptor>
prm/pocket_docking_7.prm

>  <SCORE>
-7.64168

>  <SCORE.INTER>
-7.07699

>  <SCORE.INTER.CONST>
1

>  <SCORE.INTER.POLAR>
0

>  <SCORE.INTER.ROT>
3

>  <SCORE.INTER.SOLV>
13.8058

>  <SCORE.INTER.VDW>
-14.9199

>  <SCORE.INTER.norm>
-0.442312

>  <SCORE.INTRA>
-0.56469

>  <SCORE.INTRA.DIHEDRAL>
-0.4147

>  <SCORE.INTRA.DIHEDRAL.0>
2.05999

>  <SCORE.INTRA.POLAR>
0

>  <SCORE.INTRA.POLAR.0>
0

>  <SCORE.INTRA.REPUL>
0

>  <SCORE.INTRA.REPUL.0>
0

>  <SCORE.INTRA.SOLV>
-1.01895

>  <SCORE.INTRA.SOLV.lig_0>
-58.7001

>  <SCORE.INTRA.VDW>
0.152132

>  <SCORE.INTRA.VDW.0>
-0.401036

>  <SCORE.INTRA.norm>
-0.0352931

>  <SCORE.RESTR>
0

>  <SCORE.RESTR.CAVITY>
0

>  <SCORE.RESTR.norm>
0

>  <SCORE.SYSTEM>
0

>  <SCORE.SYSTEM.CONST>
0

>  <SCORE.SYSTEM.DIHEDRAL>
0

>  <SCORE.SYSTEM.SOLV>
0

>  <SCORE.SYSTEM.norm>
0

>  <SCORE.heavy>
16

>  <SCORE.norm>
-0.477605

>  <RMSD>
5.864

$$$$
ligand
 OpenBabel11021811463D
libRbt.so/2013.1/901 2013/11/27
 16 16  0  0  0  0  0  0  0  0999 V2000
   43.7260   38.5984   52.7541 P   0  0  2  0  0  0  0  0  0  0  0  0
   42.5422   39.1015   52.0139 O   0  0  0  0  0  0  0  0  0  0  0  0
   44.0537   39.6001   53.9749 O   0  5  0  0  0  0  0  0  0  0  0  0
   44.9850   38.5310   51.7402 O   0  0  0  0  0  0  0  0  0  0  0  0
   43.2617   33.0564   53.5804 C   0  0  2  0  0  0  0  0  0  0  0  0
   42.4834   33.0127   54.7980 O   0  0  0  0  0  0  0  0  0  0  0  0
   44.5775   32.2388   53.7302 C   0  0  2  0  0  0  0  0  0  0  0  0
   44.2539   30.8424   54.0758 N   0  0  0  0  0  0  0  0  0  0  0  0
   45.4320   32.8764   54.8476 C   0  0  1  0  0  0  0  0  0  0  0  0
   46.6593   32.1445   55.0043 O   0  0  0  0  0  0  0  0  0  0  0  0
   45.7359   34.3299   54.4291 C   0  0  2  0  0  0  0  0  0  0  0  0
   46.5259   34.9592   55.4524 O   0  0  0  0  0  0  0  0  0  0  0  0
   44.3807   35.0848   54.2673 C   0  0  2  0  0  0  0  0  0  0  0  0
   43.5588   34.4491   53.2435 O   0  0  0  0  0  0  0  0  0  0  0  0
   44.6117   36.5407   53.8306 C   0  0  0  0  0  0  0  0  0  0  0  0
   43.3929   37.1239   53.3371 O   0  0  0  0  0  0  0  0  0  0  0  0
  1  2  1  6  0  0  0
  1  3  1  0  0  0  0
  1  4  2  0  0  0  0
  1 16  1  0  0  0  0
  5  6  1  1  0  0  0
  5  7  1  0  0  0  0
  5 14  1  0  0  0  0
  7  8  1  1  0  0  0
  7  9  1  0  0  0  0
  9 10  1  6  0  0  0
  9 11  1  0  0  0  0
 11 12  1  1  0  0  0
 11 13  1  0  0  0  0
 13 14  1  0  0  0  0
 13 15  1  6  0  0  0
 15 16  1  0  0  0  0
M  CHG  1   3  -1
M  END
>  <CHROM.1>
164.44893235,-174.31636727,169.32275620,44.32913600,35.48021444,53.73126353
1.75320977,-0.39609188,-0.19661628

>  <Name>
ligand

>  <RI>
0

>  <Rbt.Current_Directory>
/home/itssahil/PROJECTS/Mol_Feturizer/New_Systems/rnas/3B4A

>  <Rbt.Executable>
rbdock ($Id: //depot/dev/client3/rdock/2013.1/src/exe/rbdock.cxx#4 $)

>  <Rbt.Library>
libRbt.so (2013.1, Build901 2013/11/27)

>  <Rbt.Parameter_File>
/export/apps/rDock/src/rDock_2013.1_src/data/scripts/dock_solv.prm

>  <Rbt.Receptor>
prm/pocket_docking_5.prm

>  <SCORE>
-5.20657

>  <SCORE.INTER>
-4.48667

>  <SCORE.INTER.CONST>
1

>  <SCORE.INTER.POLAR>
0

>  <SCORE.INTER.ROT>
3

>  <SCORE.INTER.SOLV>
17.4255

>  <SCORE.INTER.VDW>
-14.3996

>  <SCORE.INTER.norm>
-0.280417

>  <SCORE.INTRA>
-0.721502

>  <SCORE.INTRA.DIHEDRAL>
-0.893875

>  <SCORE.INTRA.DIHEDRAL.0>
2.05999

>  <SCORE.INTRA.POLAR>
0

>  <SCORE.INTRA.POLAR.0>
0

>  <SCORE.INTRA.REPUL>
0

>  <SCORE.INTRA.REPUL.0>
0

>  <SCORE.INTRA.SOLV>
-0.345518

>  <SCORE.INTRA.SOLV.lig_0>
-58.7001

>  <SCORE.INTRA.VDW>
-0.101806

>  <SCORE.INTRA.VDW.0>
-0.401036

>  <SCORE.INTRA.norm>
-0.0450939

>  <SCORE.RESTR>
0.00159564

>  <SCORE.RESTR.CAVITY>
0.00159564

>  <SCORE.RESTR.norm>
9.97278e-05

>  <SCORE.SYSTEM>
0

>  <SCORE.SYSTEM.CONST>
0

>  <SCORE.SYSTEM.DIHEDRAL>
0

>  <SCORE.SYSTEM.SOLV>
0

>  <SCORE.SYSTEM.norm>
0

>  <SCORE.heavy>
16

>  <SCORE.norm>
-0.325411

>  <RMSD>
5.865

$$$$
ligand
 OpenBabel11021811463D
libRbt.so/2013.1/901 2013/11/27
 16 16  0  0  0  0  0  0  0  0999 V2000
   46.7257   33.7249   54.5124 P   0  0  2  0  0  0  0  0  0  0  0  0
   47.2351   34.5495   55.6361 O   0  0  0  0  0  0  0  0  0  0  0  0
   45.3433   34.3575   53.9740 O   0  5  0  0  0  0  0  0  0  0  0  0
   46.4748   32.2176   55.0437 O   0  0  0  0  0  0  0  0  0  0  0  0
   50.7720   32.3912   50.7146 C   0  0  2  0  0  0  0  0  0  0  0  0
   50.9025   33.6970   50.1079 O   0  0  0  0  0  0  0  0  0  0  0  0
   50.4441   31.3095   49.6448 C   0  0  2  0  0  0  0  0  0  0  0  0
   51.5057   31.2899   48.6216 N   0  0  0  0  0  0  0  0  0  0  0  0
   49.0869   31.6535   48.9929 C   0  0  1  0  0  0  0  0  0  0  0  0
   48.7541   30.6657   48.0029 O   0  0  0  0  0  0  0  0  0  0  0  0
   48.0223   31.6586   50.1096 C   0  0  2  0  0  0  0  0  0  0  0  0
   46.7432   31.9836   49.5392 O   0  0  0  0  0  0  0  0  0  0  0  0
   48.4229   32.7389   51.1609 C   0  0  2  0  0  0  0  0  0  0  0  0
   49.7272   32.4334   51.7383 O   0  0  0  0  0  0  0  0  0  0  0  0
   47.4095   32.7833   52.3162 C   0  0  0  0  0  0  0  0  0  0  0  0
   47.8231   33.7265   53.3205 O   0  0  0  0  0  0  0  0  0  0  0  0
  1  2  1  1  0  0  0
  1  3  1  0  0  0  0
  1  4  2  0  0  0  0
  1 16  1  0  0  0  0
  5  6  1  6  0  0  0
  5  7  1  0  0  0  0
  5 14  1  0  0  0  0
  7  8  1  6  0  0  0
  7  9  1  0  0  0  0
  9 10  1  6  0  0  0
  9 11  1  0  0  0  0
 11 12  1  6  0  0  0
 11 13  1  0  0  0  0
 13 14  1  0  0  0  0
 13 15  1  1  0  0  0
 15 16  1  0  0  0  0
M  CHG  1   3  -1
M  END
>  <CHROM.1>
176.71218825,-179.69775589,172.21016927,48.29058340,32.68752079,51.74079302
-2.09169822,-0.15203164,-2.02570389

>  <Name>
ligand

>  <RI>
0

>  <Rbt.Current_Directory>
/home/itssahil/PROJECTS/Mol_Feturizer/New_Systems/rnas/3B4A

>  <Rbt.Executable>
rbdock ($Id: //depot/dev/client3/rdock/2013.1/src/exe/rbdock.cxx#4 $)

>  <Rbt.Library>
libRbt.so (2013.1, Build901 2013/11/27)

>  <Rbt.Parameter_File>
/export/apps/rDock/src/rDock_2013.1_src/data/scripts/dock_solv.prm

>  <Rbt.Receptor>
prm/pocket_docking_6.prm

>  <SCORE>
-6.25199

>  <SCORE.INTER>
-4.88105

>  <SCORE.INTER.CONST>
1

>  <SCORE.INTER.POLAR>
0

>  <SCORE.INTER.ROT>
3

>  <SCORE.INTER.SOLV>
14.0427

>  <SCORE.INTER.VDW>
-13.5349

>  <SCORE.INTER.norm>
-0.305065

>  <SCORE.INTRA>
-1.37094

>  <SCORE.INTRA.DIHEDRAL>
-1.9209

>  <SCORE.INTRA.DIHEDRAL.0>
2.05999

>  <SCORE.INTRA.POLAR>
0

>  <SCORE.INTRA.POLAR.0>
0

>  <SCORE.INTRA.REPUL>
0

>  <SCORE.INTRA.REPUL.0>
0

>  <SCORE.INTRA.SOLV>
-0.401016

>  <SCORE.INTRA.SOLV.lig_0>
-58.7001

>  <SCORE.INTRA.VDW>
-0.209979

>  <SCORE.INTRA.VDW.0>
-0.401036

>  <SCORE.INTRA.norm>
-0.0856837

>  <SCORE.RESTR>
0

>  <SCORE.RESTR.CAVITY>
0

>  <SCORE.RESTR.norm>
0

>  <SCORE.SYSTEM>
0

>  <SCORE.SYSTEM.CONST>
0

>  <SCORE.SYSTEM.DIHEDRAL>
0

>  <SCORE.SYSTEM.SOLV>
0

>  <SCORE.SYSTEM.norm>
0

>  <SCORE.heavy>
16

>  <SCORE.norm>
-0.390749

>  <RMSD>
5.869

$$$$
ligand
 OpenBabel11021811463D
libRbt.so/2013.1/901 2013/11/27
 16 16  0  0  0  0  0  0  0  0999 V2000
   44.5947   34.5140   54.9673 P   0  0  2  0  0  0  0  0  0  0  0  0
   43.5668   33.4436   54.9736 O   0  0  0  0  0  0  0  0  0  0  0  0
   44.8199   35.0423   56.4744 O   0  5  0  0  0  0  0  0  0  0  0  0
   44.0798   35.7257   54.0271 O   0  0  0  0  0  0  0  0  0  0  0  0
   50.3080   35.3700   52.7420 C   0  0  2  0  0  0  0  0  0  0  0  0
   49.9518   35.0090   51.3881 O   0  0  0  0  0  0  0  0  0  0  0  0
   51.1057   34.2259   53.4325 C   0  0  2  0  0  0  0  0  0  0  0  0
   52.3200   33.9294   52.6503 N   0  0  0  0  0  0  0  0  0  0  0  0
   50.2067   32.9725   53.5101 C   0  0  1  0  0  0  0  0  0  0  0  0
   50.9164   31.8990   54.1507 O   0  0  0  0  0  0  0  0  0  0  0  0
   48.9586   33.3454   54.3370 C   0  0  2  0  0  0  0  0  0  0  0  0
   48.0924   32.2012   54.4242 O   0  0  0  0  0  0  0  0  0  0  0  0
   48.2224   34.5127   53.6102 C   0  0  2  0  0  0  0  0  0  0  0  0
   49.0935   35.6774   53.4982 O   0  0  0  0  0  0  0  0  0  0  0  0
   46.9741   34.9479   54.3950 C   0  0  0  0  0  0  0  0  0  0  0  0
   45.9822   33.9060   54.3928 O   0  0  0  0  0  0  0  0  0  0  0  0
  1  2  1  1  0  0  0
  1  3  1  0  0  0  0
  1  4  2  0  0  0  0
  1 16  1  0  0  0  0
  5  6  1  6  0  0  0
  5  7  1  0  0  0  0
  5 14  1  0  0  0  0
  7  8  1  6  0  0  0
  7  9  1  0  0  0  0
  9 10  1  1  0  0  0
  9 11  1  0  0  0  0
 11 12  1  6  0  0  0
 11 13  1  0  0  0  0
 13 14  1  0  0  0  0
 13 15  1  1  0  0  0
 15 16  1  0  0  0  0
M  CHG  1   3  -1
M  END
>  <CHROM.1>
-66.92846674,-168.87422065,-179.77243695,47.74327396,34.19138359,54.02788274
3.09255960,-0.31309761,2.64853953

>  <Name>
ligand

>  <RI>
0

>  <Rbt.Current_Directory>
/home/itssahil/PROJECTS/Mol_Feturizer/New_Systems/rnas/3B4A

>  <Rbt.Executable>
rbdock ($Id: //depot/dev/client3/rdock/2013.1/src/exe/rbdock.cxx#4 $)

>  <Rbt.Library>
libRbt.so (2013.1, Build901 2013/11/27)

>  <Rbt.Parameter_File>
/export/apps/rDock/src/rDock_2013.1_src/data/scripts/dock_solv.prm

>  <Rbt.Receptor>
prm/pocket_docking_4.prm

>  <SCORE>
-3.63267

>  <SCORE.INTER>
-2.67384

>  <SCORE.INTER.CONST>
1

>  <SCORE.INTER.POLAR>
0

>  <SCORE.INTER.ROT>
3

>  <SCORE.INTER.SOLV>
16.4932

>  <SCORE.INTER.VDW>
-12.8803

>  <SCORE.INTER.norm>
-0.167115

>  <SCORE.INTRA>
-0.958821

>  <SCORE.INTRA.DIHEDRAL>
-1.29401

>  <SCORE.INTRA.DIHEDRAL.0>
2.05999

>  <SCORE.INTRA.POLAR>
0

>  <SCORE.INTRA.POLAR.0>
0

>  <SCORE.INTRA.REPUL>
0

>  <SCORE.INTRA.REPUL.0>
0

>  <SCORE.INTRA.SOLV>
-0.122151

>  <SCORE.INTRA.SOLV.lig_0>
-58.7001

>  <SCORE.INTRA.VDW>
-0.25074

>  <SCORE.INTRA.VDW.0>
-0.401036

>  <SCORE.INTRA.norm>
-0.0599263

>  <SCORE.RESTR>
0

>  <SCORE.RESTR.CAVITY>
0

>  <SCORE.RESTR.norm>
0

>  <SCORE.SYSTEM>
0

>  <SCORE.SYSTEM.CONST>
0

>  <SCORE.SYSTEM.DIHEDRAL>
0

>  <SCORE.SYSTEM.SOLV>
0

>  <SCORE.SYSTEM.norm>
0

>  <SCORE.heavy>
16

>  <SCORE.norm>
-0.227042

>  <RMSD>
5.873

$$$$
ligand
 OpenBabel11021811463D
libRbt.so/2013.1/901 2013/11/27
 16 16  0  0  0  0  0  0  0  0999 V2000
   46.5564   33.5798   55.2783 P   0  0  2  0  0  0  0  0  0  0  0  0
   46.3279   33.8694   56.7158 O   0  0  0  0  0  0  0  0  0  0  0  0
   45.2335   32.8971   54.6578 O   0  5  0  0  0  0  0  0  0  0  0  0
   47.8147   32.5720   55.1431 O   0  0  0  0  0  0  0  0  0  0  0  0
   46.5403   37.8587   51.4917 C   0  0  2  0  0  0  0  0  0  0  0  0
   47.6404   38.6075   52.0568 O   0  0  0  0  0  0  0  0  0  0  0  0
   45.2615   38.7396   51.3874 C   0  0  2  0  0  0  0  0  0  0  0  0
   45.5461   39.9261   50.5595 N   0  0  0  0  0  0  0  0  0  0  0  0
   44.8424   39.1742   52.8090 C   0  0  1  0  0  0  0  0  0  0  0  0
   43.6575   39.9855   52.7443 O   0  0  0  0  0  0  0  0  0  0  0  0
   44.5599   37.8941   53.6226 C   0  0  2  0  0  0  0  0  0  0  0  0
   44.1731   38.2607   54.9579 O   0  0  0  0  0  0  0  0  0  0  0  0
   45.8668   37.0440   53.6645 C   0  0  2  0  0  0  0  0  0  0  0  0
   46.2832   36.6770   52.3155 O   0  0  0  0  0  0  0  0  0  0  0  0
   45.6483   35.7391   54.4476 C   0  0  0  0  0  0  0  0  0  0  0  0
   46.8627   34.9701   54.5049 O   0  0  0  0  0  0  0  0  0  0  0  0
  1  2  1  1  0  0  0
  1  3  1  0  0  0  0
  1  4  2  0  0  0  0
  1 16  1  0  0  0  0
  5  6  1  1  0  0  0
  5  7  1  0  0  0  0
  5 14  1  0  0  0  0
  7  8  1  6  0  0  0
  7  9  1  0  0  0  0
  9 10  1  6  0  0  0
  9 11  1  0  0  0  0
 11 12  1  1  0  0  0
 11 13  1  0  0  0  0
 13 14  1  0  0  0  0
 13 15  1  1  0  0  0
 15 16  1  0  0  0  0
M  CHG  1   3  -1
M  END
>  <CHROM.1>
-178.93010056,-177.37606449,-70.54248056,45.87186138,36.44917928,53.69759013
-1.31254293,0.67472521,-0.68580898

>  <Name>
ligand

>  <RI>
0

>  <Rbt.Current_Directory>
/home/itssahil/PROJECTS/Mol_Feturizer/New_Systems/rnas/3B4A

>  <Rbt.Executable>
rbdock ($Id: //depot/dev/client3/rdock/2013.1/src/exe/rbdock.cxx#4 $)

>  <Rbt.Library>
libRbt.so (2013.1, Build901 2013/11/27)

>  <Rbt.Parameter_File>
/export/apps/rDock/src/rDock_2013.1_src/data/scripts/dock_solv.prm

>  <Rbt.Receptor>
prm/pocket_docking_8.prm

>  <SCORE>
-7.97314

>  <SCORE.INTER>
-6.55772

>  <SCORE.INTER.CONST>
1

>  <SCORE.INTER.POLAR>
0

>  <SCORE.INTER.ROT>
3

>  <SCORE.INTER.SOLV>
11.5657

>  <SCORE.INTER.VDW>
-13.827

>  <SCORE.INTER.norm>
-0.409858

>  <SCORE.INTRA>
-1.41542

>  <SCORE.INTRA.DIHEDRAL>
-1.84131

>  <SCORE.INTRA.DIHEDRAL.0>
2.05999

>  <SCORE.INTRA.POLAR>
0

>  <SCORE.INTRA.POLAR.0>
0

>  <SCORE.INTRA.REPUL>
0

>  <SCORE.INTRA.REPUL.0>
0

>  <SCORE.INTRA.SOLV>
-0.930073

>  <SCORE.INTRA.SOLV.lig_0>
-58.7001

>  <SCORE.INTRA.VDW>
-0.0297232

>  <SCORE.INTRA.VDW.0>
-0.401036

>  <SCORE.INTRA.norm>
-0.0884635

>  <SCORE.RESTR>
0

>  <SCORE.RESTR.CAVITY>
0

>  <SCORE.RESTR.norm>
0

>  <SCORE.SYSTEM>
0

>  <SCORE.SYSTEM.CONST>
0

>  <SCORE.SYSTEM.DIHEDRAL>
0

>  <SCORE.SYSTEM.SOLV>
0

>  <SCORE.SYSTEM.norm>
0

>  <SCORE.heavy>
16

>  <SCORE.norm>
-0.498321

>  <RMSD>
5.878

$$$$
ligand
 OpenBabel11021811463D
libRbt.so/2013.1/901 2013/11/27
 16 16  0  0  0  0  0  0  0  0999 V2000
   45.7479   34.5264   55.0506 P   0  0  2  0  0  0  0  0  0  0  0  0
   45.3824   34.8525   56.4515 O   0  0  0  0  0  0  0  0  0  0  0  0
   44.9132   35.4763   54.0496 O   0  5  0  0  0  0  0  0  0  0  0  0
   45.3915   32.9741   54.7666 O   0  0  0  0  0  0  0  0  0  0  0  0
   50.9318   36.2784   53.2117 C   0  0  2  0  0  0  0  0  0  0  0  0
   51.2743   35.9503   51.8460 O   0  0  0  0  0  0  0  0  0  0  0  0
   51.8023   35.4676   54.2151 C   0  0  2  0  0  0  0  0  0  0  0  0
   53.2289   35.7473   53.9686 N   0  0  0  0  0  0  0  0  0  0  0  0
   51.5156   33.9630   54.0158 C   0  0  1  0  0  0  0  0  0  0  0  0
   52.3026   33.1880   54.9359 O   0  0  0  0  0  0  0  0  0  0  0  0
   50.0138   33.7356   54.2866 C   0  0  2  0  0  0  0  0  0  0  0  0
   49.7079   32.3429   54.1025 O   0  0  0  0  0  0  0  0  0  0  0  0
   49.1992   34.5952   53.2717 C   0  0  2  0  0  0  0  0  0  0  0  0
   49.5102   36.0112   53.4335 O   0  0  0  0  0  0  0  0  0  0  0  0
   47.6879   34.4291   53.5001 C   0  0  0  0  0  0  0  0  0  0  0  0
   47.3342   34.7861   54.8479 O   0  0  0  0  0  0  0  0  0  0  0  0
  1  2  1  1  0  0  0
  1  3  1  0  0  0  0
  1  4  2  0  0  0  0
  1 16  1  0  0  0  0
  5  6  1  6  0  0  0
  5  7  1  0  0  0  0
  5 14  1  0  0  0  0
  7  8  1  6  0  0  0
  7  9  1  0  0  0  0
  9 10  1  1  0  0  0
  9 11  1  0  0  0  0
 11 12  1  6  0  0  0
 11 13  1  0  0  0  0
 13 14  1  0  0  0  0
 13 15  1  1  0  0  0
 15 16  1  0  0  0  0
M  CHG  1   3  -1
M  END
>  <CHROM.1>
57.37482244,-177.38614458,178.26480480,48.80696482,34.62153348,54.20237271
2.97737871,-0.14804537,2.64401713

>  <Name>
ligand

>  <RI>
0

>  <Rbt.Current_Directory>
/home/itssahil/PROJECTS/Mol_Feturizer/New_Systems/rnas/3B4A

>  <Rbt.Executable>
rbdock ($Id: //depot/dev/client3/rdock/2013.1/src/exe/rbdock.cxx#4 $)

>  <Rbt.Library>
libRbt.so (2013.1, Build901 2013/11/27)

>  <Rbt.Parameter_File>
/export/apps/rDock/src/rDock_2013.1_src/data/scripts/dock_solv.prm

>  <Rbt.Receptor>
prm/pocket_docking_3.prm

>  <SCORE>
-6.46013

>  <SCORE.INTER>
-4.97816

>  <SCORE.INTER.CONST>
1

>  <SCORE.INTER.POLAR>
0

>  <SCORE.INTER.ROT>
3

>  <SCORE.INTER.SOLV>
10.9633

>  <SCORE.INTER.VDW>
-12.5732

>  <SCORE.INTER.norm>
-0.311135

>  <SCORE.INTRA>
-1.48197

>  <SCORE.INTRA.DIHEDRAL>
-1.99489

>  <SCORE.INTRA.DIHEDRAL.0>
2.05999

>  <SCORE.INTRA.POLAR>
0

>  <SCORE.INTRA.POLAR.0>
0

>  <SCORE.INTRA.REPUL>
0

>  <SCORE.INTRA.REPUL.0>
0

>  <SCORE.INTRA.SOLV>
-0.195006

>  <SCORE.INTRA.SOLV.lig_0>
-58.7001

>  <SCORE.INTRA.VDW>
-0.387023

>  <SCORE.INTRA.VDW.0>
-0.401036

>  <SCORE.INTRA.norm>
-0.0926231

>  <SCORE.RESTR>
0

>  <SCORE.RESTR.CAVITY>
0

>  <SCORE.RESTR.norm>
0

>  <SCORE.SYSTEM>
0

>  <SCORE.SYSTEM.CONST>
0

>  <SCORE.SYSTEM.DIHEDRAL>
0

>  <SCORE.SYSTEM.SOLV>
0

>  <SCORE.SYSTEM.norm>
0

>  <SCORE.heavy>
16

>  <SCORE.norm>
-0.403758

>  <RMSD>
5.885

$$$$
ligand
 OpenBabel11021811463D
libRbt.so/2013.1/901 2013/11/27
 16 16  0  0  0  0  0  0  0  0999 V2000
   45.7803   34.4746   55.0531 P   0  0  2  0  0  0  0  0  0  0  0  0
   45.4075   34.7934   56.4538 O   0  0  0  0  0  0  0  0  0  0  0  0
   44.9443   35.4236   54.0523 O   0  5  0  0  0  0  0  0  0  0  0  0
   45.4335   32.9214   54.7620 O   0  0  0  0  0  0  0  0  0  0  0  0
   50.9596   36.2900   53.2567 C   0  0  2  0  0  0  0  0  0  0  0  0
   51.3038   35.9943   51.8840 O   0  0  0  0  0  0  0  0  0  0  0  0
   51.8315   35.4583   54.2417 C   0  0  2  0  0  0  0  0  0  0  0  0
   53.2576   35.7471   54.0026 N   0  0  0  0  0  0  0  0  0  0  0  0
   51.5486   33.9581   54.0075 C   0  0  1  0  0  0  0  0  0  0  0  0
   52.3369   33.1639   54.9099 O   0  0  0  0  0  0  0  0  0  0  0  0
   50.0472   33.7209   54.2719 C   0  0  2  0  0  0  0  0  0  0  0  0
   49.7447   32.3320   54.0555 O   0  0  0  0  0  0  0  0  0  0  0  0
   49.2311   34.6017   53.2766 C   0  0  2  0  0  0  0  0  0  0  0  0
   49.5386   36.0143   53.4713 O   0  0  0  0  0  0  0  0  0  0  0  0
   47.7201   34.4267   53.5000 C   0  0  0  0  0  0  0  0  0  0  0  0
   47.3659   34.7437   54.8577 O   0  0  0  0  0  0  0  0  0  0  0  0
  1  2  1  1  0  0  0
  1  3  1  0  0  0  0
  1  4  2  0  0  0  0
  1 16  1  0  0  0  0
  5  6  1  6  0  0  0
  5  7  1  0  0  0  0
  5 14  1  0  0  0  0
  7  8  1  6  0  0  0
  7  9  1  0  0  0  0
  9 10  1  1  0  0  0
  9 11  1  0  0  0  0
 11 12  1  6  0  0  0
 11 13  1  0  0  0  0
 13 14  1  0  0  0  0
 13 15  1  1  0  0  0
 15 16  1  0  0  0  0
M  CHG  1   3  -1
M  END
>  <CHROM.1>
57.01951802,-177.33794500,179.74293765,48.83878519,34.60212098,54.20814187
2.97349401,-0.14573031,2.66537993

>  <Name>
ligand

>  <RI>
0

>  <Rbt.Current_Directory>
/home/itssahil/PROJECTS/Mol_Feturizer/New_Systems/rnas/3B4A

>  <Rbt.Executable>
rbdock ($Id: //depot/dev/client3/rdock/2013.1/src/exe/rbdock.cxx#4 $)

>  <Rbt.Library>
libRbt.so (2013.1, Build901 2013/11/27)

>  <Rbt.Parameter_File>
/export/apps/rDock/src/rDock_2013.1_src/data/scripts/dock_solv.prm

>  <Rbt.Receptor>
prm/pocket_docking_4.prm

>  <SCORE>
-6.45628

>  <SCORE.INTER>
-4.97942

>  <SCORE.INTER.CONST>
1

>  <SCORE.INTER.POLAR>
0

>  <SCORE.INTER.ROT>
3

>  <SCORE.INTER.SOLV>
10.8916

>  <SCORE.INTER.VDW>
-12.5501

>  <SCORE.INTER.norm>
-0.311214

>  <SCORE.INTRA>
-1.47685

>  <SCORE.INTRA.DIHEDRAL>
-1.99136

>  <SCORE.INTRA.DIHEDRAL.0>
2.05999

>  <SCORE.INTRA.POLAR>
0

>  <SCORE.INTRA.POLAR.0>
0

>  <SCORE.INTRA.REPUL>
0

>  <SCORE.INTRA.REPUL.0>
0

>  <SCORE.INTRA.SOLV>
-0.192144

>  <SCORE.INTRA.SOLV.lig_0>
-58.7001

>  <SCORE.INTRA.VDW>
-0.385103

>  <SCORE.INTRA.VDW.0>
-0.401036

>  <SCORE.INTRA.norm>
-0.0923033

>  <SCORE.RESTR>
0

>  <SCORE.RESTR.CAVITY>
0

>  <SCORE.RESTR.norm>
0

>  <SCORE.SYSTEM>
0

>  <SCORE.SYSTEM.CONST>
0

>  <SCORE.SYSTEM.DIHEDRAL>
0

>  <SCORE.SYSTEM.SOLV>
0

>  <SCORE.SYSTEM.norm>
0

>  <SCORE.heavy>
16

>  <SCORE.norm>
-0.403517

>  <RMSD>
5.888

$$$$
ligand
 OpenBabel11021811463D
libRbt.so/2013.1/901 2013/11/27
 16 16  0  0  0  0  0  0  0  0999 V2000
   43.4516   39.2773   52.7314 P   0  0  2  0  0  0  0  0  0  0  0  0
   42.9306   40.4575   53.4651 O   0  0  0  0  0  0  0  0  0  0  0  0
   44.5777   39.7594   51.6823 O   0  5  0  0  0  0  0  0  0  0  0  0
   42.2276   38.5709   51.9440 O   0  0  0  0  0  0  0  0  0  0  0  0
   44.9649   34.2962   55.2779 C   0  0  2  0  0  0  0  0  0  0  0  0
   45.3294   34.9119   56.5342 O   0  0  0  0  0  0  0  0  0  0  0  0
   46.1670   33.5177   54.6689 C   0  0  2  0  0  0  0  0  0  0  0  0
   46.6242   32.4910   55.6234 N   0  0  0  0  0  0  0  0  0  0  0  0
   47.3084   34.5171   54.3794 C   0  0  1  0  0  0  0  0  0  0  0  0
   48.4324   33.8258   53.8089 O   0  0  0  0  0  0  0  0  0  0  0  0
   46.7701   35.5614   53.3794 C   0  0  2  0  0  0  0  0  0  0  0  0
   47.8064   36.5156   53.0916 O   0  0  0  0  0  0  0  0  0  0  0  0
   45.5531   36.2834   54.0354 C   0  0  2  0  0  0  0  0  0  0  0  0
   44.4978   35.3266   54.3497 O   0  0  0  0  0  0  0  0  0  0  0  0
   44.9543   37.3286   53.0801 C   0  0  0  0  0  0  0  0  0  0  0  0
   44.1073   38.2457   53.7948 O   0  0  0  0  0  0  0  0  0  0  0  0
  1  2  1  1  0  0  0
  1  3  1  0  0  0  0
  1  4  2  0  0  0  0
  1 16  1  0  0  0  0
  5  6  1  1  0  0  0
  5  7  1  0  0  0  0
  5 14  1  0  0  0  0
  7  8  1  1  0  0  0
  7  9  1  0  0  0  0
  9 10  1  6  0  0  0
  9 11  1  0  0  0  0
 11 12  1  1  0  0  0
 11 13  1  0  0  0  0
 13 14  1  0  0  0  0
 13 15  1  6  0  0  0
 15 16  1  0  0  0  0
M  CHG  1   3  -1
M  END
>  <CHROM.1>
-163.38402655,-177.37553597,-162.67614008,45.18935331,36.59098202,53.76176104
2.14893469,0.41303805,-0.63384194

>  <Name>
ligand

>  <RI>
0

>  <Rbt.Current_Directory>
/home/itssahil/PROJECTS/Mol_Feturizer/New_Systems/rnas/3B4A

>  <Rbt.Executable>
rbdock ($Id: //depot/dev/client3/rdock/2013.1/src/exe/rbdock.cxx#4 $)

>  <Rbt.Library>
libRbt.so (2013.1, Build901 2013/11/27)

>  <Rbt.Parameter_File>
/export/apps/rDock/src/rDock_2013.1_src/data/scripts/dock_solv.prm

>  <Rbt.Receptor>
prm/pocket_docking_8.prm

>  <SCORE>
-6.83288

>  <SCORE.INTER>
-6.23293

>  <SCORE.INTER.CONST>
1

>  <SCORE.INTER.POLAR>
0

>  <SCORE.INTER.ROT>
3

>  <SCORE.INTER.SOLV>
17.7452

>  <SCORE.INTER.VDW>
-15.6704

>  <SCORE.INTER.norm>
-0.389558

>  <SCORE.INTRA>
-0.599945

>  <SCORE.INTRA.DIHEDRAL>
-0.621278

>  <SCORE.INTRA.DIHEDRAL.0>
2.05999

>  <SCORE.INTRA.POLAR>
0

>  <SCORE.INTRA.POLAR.0>
0

>  <SCORE.INTRA.REPUL>
0

>  <SCORE.INTRA.REPUL.0>
0

>  <SCORE.INTRA.SOLV>
-0.465576

>  <SCORE.INTRA.SOLV.lig_0>
-58.7001

>  <SCORE.INTRA.VDW>
-0.0565183

>  <SCORE.INTRA.VDW.0>
-0.401036

>  <SCORE.INTRA.norm>
-0.0374966

>  <SCORE.RESTR>
0

>  <SCORE.RESTR.CAVITY>
0

>  <SCORE.RESTR.norm>
0

>  <SCORE.SYSTEM>
0

>  <SCORE.SYSTEM.CONST>
0

>  <SCORE.SYSTEM.DIHEDRAL>
0

>  <SCORE.SYSTEM.SOLV>
0

>  <SCORE.SYSTEM.norm>
0

>  <SCORE.heavy>
16

>  <SCORE.norm>
-0.427055

>  <RMSD>
5.898

$$$$
ligand
 OpenBabel11021811463D
libRbt.so/2013.1/901 2013/11/27
 16 16  0  0  0  0  0  0  0  0999 V2000
   46.4973   33.8673   55.5428 P   0  0  2  0  0  0  0  0  0  0  0  0
   46.5335   33.4828   56.9758 O   0  0  0  0  0  0  0  0  0  0  0  0
   45.4052   35.0356   55.3344 O   0  5  0  0  0  0  0  0  0  0  0  0
   46.0940   32.5696   54.6649 O   0  0  0  0  0  0  0  0  0  0  0  0
   51.1219   36.4902   52.9724 C   0  0  2  0  0  0  0  0  0  0  0  0
   51.1809   36.3320   51.5365 O   0  0  0  0  0  0  0  0  0  0  0  0
   52.1658   35.5763   53.6774 C   0  0  2  0  0  0  0  0  0  0  0  0
   53.5176   35.9015   53.1863 N   0  0  0  0  0  0  0  0  0  0  0  0
   51.8278   34.1029   53.3609 C   0  0  1  0  0  0  0  0  0  0  0  0
   52.7736   33.2334   54.0058 O   0  0  0  0  0  0  0  0  0  0  0  0
   50.4078   33.8257   53.8969 C   0  0  2  0  0  0  0  0  0  0  0  0
   50.0552   32.4612   53.6123 O   0  0  0  0  0  0  0  0  0  0  0  0
   49.4168   34.7901   53.1753 C   0  0  2  0  0  0  0  0  0  0  0  0
   49.7703   36.1804   53.4399 O   0  0  0  0  0  0  0  0  0  0  0  0
   47.9798   34.5787   53.6792 C   0  0  0  0  0  0  0  0  0  0  0  0
   47.9608   34.4091   55.1076 O   0  0  0  0  0  0  0  0  0  0  0  0
  1  2  1  1  0  0  0
  1  3  1  0  0  0  0
  1  4  2  0  0  0  0
  1 16  1  0  0  0  0
  5  6  1  6  0  0  0
  5  7  1  0  0  0  0
  5 14  1  0  0  0  0
  7  8  1  6  0  0  0
  7  9  1  0  0  0  0
  9 10  1  1  0  0  0
  9 11  1  0  0  0  0
 11 12  1  6  0  0  0
 11 13  1  0  0  0  0
 13 14  1  0  0  0  0
 13 15  1  1  0  0  0
 15 16  1  0  0  0  0
M  CHG  1   3  -1
M  END
>  <CHROM.1>
41.88234688,-167.53217535,171.00905629,49.25875601,34.47680624,54.14576953
-2.77141197,0.27783462,-0.43199166

>  <Name>
ligand

>  <RI>
0

>  <Rbt.Current_Directory>
/home/itssahil/PROJECTS/Mol_Feturizer/New_Systems/rnas/3B4A

>  <Rbt.Executable>
rbdock ($Id: //depot/dev/client3/rdock/2013.1/src/exe/rbdock.cxx#4 $)

>  <Rbt.Library>
libRbt.so (2013.1, Build901 2013/11/27)

>  <Rbt.Parameter_File>
/export/apps/rDock/src/rDock_2013.1_src/data/scripts/dock_solv.prm

>  <Rbt.Receptor>
prm/pocket_docking_5.prm

>  <SCORE>
-5.04973

>  <SCORE.INTER>
-4.8744

>  <SCORE.INTER.CONST>
1

>  <SCORE.INTER.POLAR>
0

>  <SCORE.INTER.ROT>
3

>  <SCORE.INTER.SOLV>
12.6683

>  <SCORE.INTER.VDW>
-13.0724

>  <SCORE.INTER.norm>
-0.30465

>  <SCORE.INTRA>
-0.175325

>  <SCORE.INTRA.DIHEDRAL>
-0.0911002

>  <SCORE.INTRA.DIHEDRAL.0>
2.05999

>  <SCORE.INTRA.POLAR>
0

>  <SCORE.INTRA.POLAR.0>
0

>  <SCORE.INTRA.REPUL>
0

>  <SCORE.INTRA.REPUL.0>
0

>  <SCORE.INTRA.SOLV>
0.188817

>  <SCORE.INTRA.SOLV.lig_0>
-58.7001

>  <SCORE.INTRA.VDW>
-0.224183

>  <SCORE.INTRA.VDW.0>
-0.401036

>  <SCORE.INTRA.norm>
-0.0109578

>  <SCORE.RESTR>
0

>  <SCORE.RESTR.CAVITY>
0

>  <SCORE.RESTR.norm>
0

>  <SCORE.SYSTEM>
0

>  <SCORE.SYSTEM.CONST>
0

>  <SCORE.SYSTEM.DIHEDRAL>
0

>  <SCORE.SYSTEM.SOLV>
0

>  <SCORE.SYSTEM.norm>
0

>  <SCORE.heavy>
16

>  <SCORE.norm>
-0.315608

>  <RMSD>
5.899

$$$$
ligand
 OpenBabel11021811463D
libRbt.so/2013.1/901 2013/11/27
 16 16  0  0  0  0  0  0  0  0999 V2000
   43.5007   38.6080   52.6853 P   0  0  2  0  0  0  0  0  0  0  0  0
   44.1418   39.0160   51.4105 O   0  0  0  0  0  0  0  0  0  0  0  0
   41.8984   38.7022   52.5274 O   0  5  0  0  0  0  0  0  0  0  0  0
   44.0004   39.6005   53.8612 O   0  0  0  0  0  0  0  0  0  0  0  0
   47.6988   34.0654   53.1096 C   0  0  2  0  0  0  0  0  0  0  0  0
   46.8974   33.0895   52.4058 O   0  0  0  0  0  0  0  0  0  0  0  0
   47.7104   33.7789   54.6393 C   0  0  2  0  0  0  0  0  0  0  0  0
   48.2335   32.4219   54.8830 N   0  0  0  0  0  0  0  0  0  0  0  0
   46.2665   33.8939   55.1754 C   0  0  1  0  0  0  0  0  0  0  0  0
   46.2473   33.6401   56.5903 O   0  0  0  0  0  0  0  0  0  0  0  0
   45.7777   35.3295   54.8916 C   0  0  2  0  0  0  0  0  0  0  0  0
   44.4300   35.4715   55.3718 O   0  0  0  0  0  0  0  0  0  0  0  0
   45.8178   35.5630   53.3500 C   0  0  2  0  0  0  0  0  0  0  0  0
   47.1765   35.4061   52.8429 O   0  0  0  0  0  0  0  0  0  0  0  0
   45.3590   36.9875   52.9982 C   0  0  0  0  0  0  0  0  0  0  0  0
   43.9237   37.0803   53.0201 O   0  0  0  0  0  0  0  0  0  0  0  0
  1  2  1  6  0  0  0
  1  3  1  0  0  0  0
  1  4  2  0  0  0  0
  1 16  1  0  0  0  0
  5  6  1  6  0  0  0
  5  7  1  0  0  0  0
  5 14  1  0  0  0  0
  7  8  1  6  0  0  0
  7  9  1  0  0  0  0
  9 10  1  1  0  0  0
  9 11  1  0  0  0  0
 11 12  1  6  0  0  0
 11 13  1  0  0  0  0
 13 14  1  0  0  0  0
 13 15  1  1  0  0  0
 15 16  1  0  0  0  0
M  CHG  1   3  -1
M  END
>  <CHROM.1>
-79.61065075,178.38712518,53.81906280,45.36104219,36.05025912,53.64004908
-2.49481077,-0.78621583,2.04442944

>  <Name>
ligand

>  <RI>
0

>  <Rbt.Current_Directory>
/home/itssahil/PROJECTS/Mol_Feturizer/New_Systems/rnas/3B4A

>  <Rbt.Executable>
rbdock ($Id: //depot/dev/client3/rdock/2013.1/src/exe/rbdock.cxx#4 $)

>  <Rbt.Library>
libRbt.so (2013.1, Build901 2013/11/27)

>  <Rbt.Parameter_File>
/export/apps/rDock/src/rDock_2013.1_src/data/scripts/dock_solv.prm

>  <Rbt.Receptor>
prm/pocket_docking_5.prm

>  <SCORE>
-6.85273

>  <SCORE.INTER>
-5.91091

>  <SCORE.INTER.CONST>
1

>  <SCORE.INTER.POLAR>
0

>  <SCORE.INTER.ROT>
3

>  <SCORE.INTER.SOLV>
20.0691

>  <SCORE.INTER.VDW>
-16.2303

>  <SCORE.INTER.norm>
-0.369432

>  <SCORE.INTRA>
-0.947653

>  <SCORE.INTRA.DIHEDRAL>
-0.714784

>  <SCORE.INTRA.DIHEDRAL.0>
2.05999

>  <SCORE.INTRA.POLAR>
0

>  <SCORE.INTRA.POLAR.0>
0

>  <SCORE.INTRA.REPUL>
0

>  <SCORE.INTRA.REPUL.0>
0

>  <SCORE.INTRA.SOLV>
-0.857677

>  <SCORE.INTRA.SOLV.lig_0>
-58.7001

>  <SCORE.INTRA.VDW>
-0.161422

>  <SCORE.INTRA.VDW.0>
-0.401036

>  <SCORE.INTRA.norm>
-0.0592283

>  <SCORE.RESTR>
0.00583151

>  <SCORE.RESTR.CAVITY>
0.00583151

>  <SCORE.RESTR.norm>
0.000364469

>  <SCORE.SYSTEM>
0

>  <SCORE.SYSTEM.CONST>
0

>  <SCORE.SYSTEM.DIHEDRAL>
0

>  <SCORE.SYSTEM.SOLV>
0

>  <SCORE.SYSTEM.norm>
0

>  <SCORE.heavy>
16

>  <SCORE.norm>
-0.428296

>  <RMSD>
5.909

$$$$
ligand
 OpenBabel11021811463D
libRbt.so/2013.1/901 2013/11/27
 16 16  0  0  0  0  0  0  0  0999 V2000
   43.0312   38.7486   52.7032 P   0  0  2  0  0  0  0  0  0  0  0  0
   41.6165   38.6310   52.2701 O   0  0  0  0  0  0  0  0  0  0  0  0
   43.1883   40.0389   53.6579 O   0  5  0  0  0  0  0  0  0  0  0  0
   43.9657   38.9124   51.3928 O   0  0  0  0  0  0  0  0  0  0  0  0
   45.3692   34.1672   55.4477 C   0  0  2  0  0  0  0  0  0  0  0  0
   46.7035   34.3531   55.9723 O   0  0  0  0  0  0  0  0  0  0  0  0
   45.3978   33.3336   54.1338 C   0  0  2  0  0  0  0  0  0  0  0  0
   46.0279   32.0259   54.3928 N   0  0  0  0  0  0  0  0  0  0  0  0
   46.2073   34.1104   53.0723 C   0  0  1  0  0  0  0  0  0  0  0  0
   46.2452   33.3659   51.8431 O   0  0  0  0  0  0  0  0  0  0  0  0
   45.5008   35.4633   52.8464 C   0  0  2  0  0  0  0  0  0  0  0  0
   46.2330   36.2190   51.8667 O   0  0  0  0  0  0  0  0  0  0  0  0
   45.4787   36.2347   54.2018 C   0  0  2  0  0  0  0  0  0  0  0  0
   44.7532   35.4737   55.2130 O   0  0  0  0  0  0  0  0  0  0  0  0
   44.7683   37.5898   54.0510 C   0  0  0  0  0  0  0  0  0  0  0  0
   43.4415   37.4134   53.5241 O   0  0  0  0  0  0  0  0  0  0  0  0
  1  2  1  6  0  0  0
  1  3  1  0  0  0  0
  1  4  2  0  0  0  0
  1 16  1  0  0  0  0
  5  6  1  6  0  0  0
  5  7  1  0  0  0  0
  5 14  1  0  0  0  0
  7  8  1  1  0  0  0
  7  9  1  0  0  0  0
  9 10  1  6  0  0  0
  9 11  1  0  0  0  0
 11 12  1  6  0  0  0
 11 13  1  0  0  0  0
 13 14  1  0  0  0  0
 13 15  1  6  0  0  0
 15 16  1  0  0  0  0
M  CHG  1   3  -1
M  END
>  <CHROM.1>
55.69179934,-151.67003988,-174.47229110,44.71031168,36.26647361,53.45266440
-2.76267109,-1.02922072,1.73264697

>  <Name>
ligand

>  <RI>
0

>  <Rbt.Current_Directory>
/home/itssahil/PROJECTS/Mol_Feturizer/New_Systems/rnas/3B4A

>  <Rbt.Executable>
rbdock ($Id: //depot/dev/client3/rdock/2013.1/src/exe/rbdock.cxx#4 $)

>  <Rbt.Library>
libRbt.so (2013.1, Build901 2013/11/27)

>  <Rbt.Parameter_File>
/export/apps/rDock/src/rDock_2013.1_src/data/scripts/dock_solv.prm

>  <Rbt.Receptor>
prm/pocket_docking_6.prm

>  <SCORE>
-8.91511

>  <SCORE.INTER>
-9.55406

>  <SCORE.INTER.CONST>
1

>  <SCORE.INTER.POLAR>
0

>  <SCORE.INTER.ROT>
3

>  <SCORE.INTER.SOLV>
15.9184

>  <SCORE.INTER.VDW>
-17.2755

>  <SCORE.INTER.norm>
-0.597128

>  <SCORE.INTRA>
0.638949

>  <SCORE.INTRA.DIHEDRAL>
1.34369

>  <SCORE.INTRA.DIHEDRAL.0>
2.05999

>  <SCORE.INTRA.POLAR>
0

>  <SCORE.INTRA.POLAR.0>
0

>  <SCORE.INTRA.REPUL>
0

>  <SCORE.INTRA.REPUL.0>
0

>  <SCORE.INTRA.SOLV>
0.957535

>  <SCORE.INTRA.SOLV.lig_0>
-58.7001

>  <SCORE.INTRA.VDW>
-0.511662

>  <SCORE.INTRA.VDW.0>
-0.401036

>  <SCORE.INTRA.norm>
0.0399343

>  <SCORE.RESTR>
0

>  <SCORE.RESTR.CAVITY>
0

>  <SCORE.RESTR.norm>
0

>  <SCORE.SYSTEM>
0

>  <SCORE.SYSTEM.CONST>
0

>  <SCORE.SYSTEM.DIHEDRAL>
0

>  <SCORE.SYSTEM.SOLV>
0

>  <SCORE.SYSTEM.norm>
0

>  <SCORE.heavy>
16

>  <SCORE.norm>
-0.557194

>  <RMSD>
5.913

$$$$
ligand
 OpenBabel11021811463D
libRbt.so/2013.1/901 2013/11/27
 16 16  0  0  0  0  0  0  0  0999 V2000
   43.3663   39.1012   52.2823 P   0  0  2  0  0  0  0  0  0  0  0  0
   42.0506   38.4301   52.1376 O   0  0  0  0  0  0  0  0  0  0  0  0
   43.2924   40.1570   53.4993 O   0  5  0  0  0  0  0  0  0  0  0  0
   43.7137   39.8706   50.9023 O   0  0  0  0  0  0  0  0  0  0  0  0
   45.2915   34.0320   55.3196 C   0  0  2  0  0  0  0  0  0  0  0  0
   46.5151   34.5520   55.8876 O   0  0  0  0  0  0  0  0  0  0  0  0
   45.5866   33.1517   54.0706 C   0  0  2  0  0  0  0  0  0  0  0  0
   46.4818   32.0428   54.4489 N   0  0  0  0  0  0  0  0  0  0  0  0
   46.2588   34.0307   52.9931 C   0  0  1  0  0  0  0  0  0  0  0  0
   46.5376   33.2441   51.8226 O   0  0  0  0  0  0  0  0  0  0  0  0
   45.2771   35.1678   52.6413 C   0  0  2  0  0  0  0  0  0  0  0  0
   45.8742   36.0134   51.6434 O   0  0  0  0  0  0  0  0  0  0  0  0
   45.0001   35.9917   53.9363 C   0  0  2  0  0  0  0  0  0  0  0  0
   44.4089   35.1445   54.9662 O   0  0  0  0  0  0  0  0  0  0  0  0
   44.0097   37.1344   53.6589 C   0  0  0  0  0  0  0  0  0  0  0  0
   44.4937   37.9826   52.6027 O   0  0  0  0  0  0  0  0  0  0  0  0
  1  2  1  6  0  0  0
  1  3  1  0  0  0  0
  1  4  2  0  0  0  0
  1 16  1  0  0  0  0
  5  6  1  6  0  0  0
  5  7  1  0  0  0  0
  5 14  1  0  0  0  0
  7  8  1  1  0  0  0
  7  9  1  0  0  0  0
  9 10  1  6  0  0  0
  9 11  1  0  0  0  0
 11 12  1  6  0  0  0
 11 13  1  0  0  0  0
 13 14  1  0  0  0  0
 13 15  1  6  0  0  0
 15 16  1  0  0  0  0
M  CHG  1   3  -1
M  END
>  <CHROM.1>
-56.31324037,176.00065203,-48.32500157,44.75354388,36.29973694,53.19936852
2.55963606,1.05007433,-1.23527786

>  <Name>
ligand

>  <RI>
0

>  <Rbt.Current_Directory>
/home/itssahil/PROJECTS/Mol_Feturizer/New_Systems/rnas/3B4A

>  <Rbt.Executable>
rbdock ($Id: //depot/dev/client3/rdock/2013.1/src/exe/rbdock.cxx#4 $)

>  <Rbt.Library>
libRbt.so (2013.1, Build901 2013/11/27)

>  <Rbt.Parameter_File>
/export/apps/rDock/src/rDock_2013.1_src/data/scripts/dock_solv.prm

>  <Rbt.Receptor>
prm/pocket_docking_7.prm

>  <SCORE>
-9.314

>  <SCORE.INTER>
-8.44499

>  <SCORE.INTER.CONST>
1

>  <SCORE.INTER.POLAR>
0

>  <SCORE.INTER.ROT>
3

>  <SCORE.INTER.SOLV>
14.8645

>  <SCORE.INTER.VDW>
-16.1848

>  <SCORE.INTER.norm>
-0.527812

>  <SCORE.INTRA>
-0.869002

>  <SCORE.INTRA.DIHEDRAL>
-1.71124

>  <SCORE.INTRA.DIHEDRAL.0>
2.05999

>  <SCORE.INTRA.POLAR>
0

>  <SCORE.INTRA.POLAR.0>
0

>  <SCORE.INTRA.REPUL>
0

>  <SCORE.INTRA.REPUL.0>
0

>  <SCORE.INTRA.SOLV>
-0.696405

>  <SCORE.INTRA.SOLV.lig_0>
-58.7001

>  <SCORE.INTRA.VDW>
0.334821

>  <SCORE.INTRA.VDW.0>
-0.401036

>  <SCORE.INTRA.norm>
-0.0543126

>  <SCORE.RESTR>
0

>  <SCORE.RESTR.CAVITY>
0

>  <SCORE.RESTR.norm>
0

>  <SCORE.SYSTEM>
0

>  <SCORE.SYSTEM.CONST>
0

>  <SCORE.SYSTEM.DIHEDRAL>
0

>  <SCORE.SYSTEM.SOLV>
0

>  <SCORE.SYSTEM.norm>
0

>  <SCORE.heavy>
16

>  <SCORE.norm>
-0.582125

>  <RMSD>
5.929

$$$$
ligand
 OpenBabel11021811463D
libRbt.so/2013.1/901 2013/11/27
 16 16  0  0  0  0  0  0  0  0999 V2000
   46.1107   33.9650   55.5403 P   0  0  2  0  0  0  0  0  0  0  0  0
   46.6300   33.5560   56.8691 O   0  0  0  0  0  0  0  0  0  0  0  0
   44.9775   35.0954   55.7386 O   0  5  0  0  0  0  0  0  0  0  0  0
   45.4780   32.6695   54.8065 O   0  0  0  0  0  0  0  0  0  0  0  0
   50.6955   35.9821   52.8661 C   0  0  2  0  0  0  0  0  0  0  0  0
   50.2598   35.7378   51.5094 O   0  0  0  0  0  0  0  0  0  0  0  0
   52.0696   35.3051   53.1409 C   0  0  2  0  0  0  0  0  0  0  0  0
   53.0708   35.8161   52.1867 N   0  0  0  0  0  0  0  0  0  0  0  0
   51.9110   33.7778   52.9748 C   0  0  1  0  0  0  0  0  0  0  0  0
   53.1657   33.1241   53.2297 O   0  0  0  0  0  0  0  0  0  0  0  0
   50.8549   33.3058   53.9957 C   0  0  2  0  0  0  0  0  0  0  0  0
   50.6750   31.8854   53.8644 O   0  0  0  0  0  0  0  0  0  0  0  0
   49.5142   34.0401   53.6859 C   0  0  2  0  0  0  0  0  0  0  0  0
   49.6831   35.4847   53.7983 O   0  0  0  0  0  0  0  0  0  0  0  0
   48.4191   33.6279   54.6831 C   0  0  0  0  0  0  0  0  0  0  0  0
   47.3314   34.5691   54.6630 O   0  0  0  0  0  0  0  0  0  0  0  0
  1  2  1  1  0  0  0
  1  3  1  0  0  0  0
  1  4  2  0  0  0  0
  1 16  1  0  0  0  0
  5  6  1  6  0  0  0
  5  7  1  0  0  0  0
  5 14  1  0  0  0  0
  7  8  1  6  0  0  0
  7  9  1  0  0  0  0
  9 10  1  1  0  0  0
  9 11  1  0  0  0  0
 11 12  1  6  0  0  0
 11 13  1  0  0  0  0
 13 14  1  0  0  0  0
 13 15  1  1  0  0  0
 15 16  1  0  0  0  0
M  CHG  1   3  -1
M  END
>  <CHROM.1>
162.76250684,170.83042516,51.32203950,49.11647344,34.20815264,54.11153167
2.88092024,-0.36229563,2.72425713

>  <Name>
ligand

>  <RI>
0

>  <Rbt.Current_Directory>
/home/itssahil/PROJECTS/Mol_Feturizer/New_Systems/rnas/3B4A

>  <Rbt.Executable>
rbdock ($Id: //depot/dev/client3/rdock/2013.1/src/exe/rbdock.cxx#4 $)

>  <Rbt.Library>
libRbt.so (2013.1, Build901 2013/11/27)

>  <Rbt.Parameter_File>
/export/apps/rDock/src/rDock_2013.1_src/data/scripts/dock_solv.prm

>  <Rbt.Receptor>
prm/pocket_docking_3.prm

>  <SCORE>
-4.94144

>  <SCORE.INTER>
-4.31169

>  <SCORE.INTER.CONST>
1

>  <SCORE.INTER.POLAR>
0

>  <SCORE.INTER.ROT>
3

>  <SCORE.INTER.SOLV>
15.0752

>  <SCORE.INTER.VDW>
-13.4995

>  <SCORE.INTER.norm>
-0.269481

>  <SCORE.INTRA>
-0.629747

>  <SCORE.INTRA.DIHEDRAL>
-0.530058

>  <SCORE.INTRA.DIHEDRAL.0>
2.05999

>  <SCORE.INTRA.POLAR>
0

>  <SCORE.INTRA.POLAR.0>
0

>  <SCORE.INTRA.REPUL>
0

>  <SCORE.INTRA.REPUL.0>
0

>  <SCORE.INTRA.SOLV>
-1.07726

>  <SCORE.INTRA.SOLV.lig_0>
-58.7001

>  <SCORE.INTRA.VDW>
0.173913

>  <SCORE.INTRA.VDW.0>
-0.401036

>  <SCORE.INTRA.norm>
-0.0393592

>  <SCORE.RESTR>
0

>  <SCORE.RESTR.CAVITY>
0

>  <SCORE.RESTR.norm>
0

>  <SCORE.SYSTEM>
0

>  <SCORE.SYSTEM.CONST>
0

>  <SCORE.SYSTEM.DIHEDRAL>
0

>  <SCORE.SYSTEM.SOLV>
0

>  <SCORE.SYSTEM.norm>
0

>  <SCORE.heavy>
16

>  <SCORE.norm>
-0.30884

>  <RMSD>
5.933

$$$$
ligand
 OpenBabel11021811463D
libRbt.so/2013.1/901 2013/11/27
 16 16  0  0  0  0  0  0  0  0999 V2000
   43.4641   38.4542   52.7257 P   0  0  2  0  0  0  0  0  0  0  0  0
   42.0277   38.5579   52.3672 O   0  0  0  0  0  0  0  0  0  0  0  0
   43.7265   39.2527   54.1021 O   0  5  0  0  0  0  0  0  0  0  0  0
   44.3468   39.1005   51.5339 O   0  0  0  0  0  0  0  0  0  0  0  0
   47.1284   33.9879   53.2941 C   0  0  2  0  0  0  0  0  0  0  0  0
   46.2074   33.0325   52.7204 O   0  0  0  0  0  0  0  0  0  0  0  0
   47.5317   33.5749   54.7394 C   0  0  2  0  0  0  0  0  0  0  0  0
   48.1416   32.2327   54.7169 N   0  0  0  0  0  0  0  0  0  0  0  0
   46.2652   33.5662   55.6234 C   0  0  1  0  0  0  0  0  0  0  0  0
   46.6089   33.1939   56.9687 O   0  0  0  0  0  0  0  0  0  0  0  0
   45.6759   34.9920   55.6062 C   0  0  2  0  0  0  0  0  0  0  0  0
   44.4876   35.0200   56.4151 O   0  0  0  0  0  0  0  0  0  0  0  0
   45.3212   35.3559   54.1316 C   0  0  2  0  0  0  0  0  0  0  0  0
   46.5139   35.3160   53.2927 O   0  0  0  0  0  0  0  0  0  0  0  0
   44.7443   36.7780   54.0405 C   0  0  0  0  0  0  0  0  0  0  0  0
   43.8440   36.8918   52.9243 O   0  0  0  0  0  0  0  0  0  0  0  0
  1  2  1  6  0  0  0
  1  3  1  0  0  0  0
  1  4  2  0  0  0  0
  1 16  1  0  0  0  0
  5  6  1  1  0  0  0
  5  7  1  0  0  0  0
  5 14  1  0  0  0  0
  7  8  1  6  0  0  0
  7  9  1  0  0  0  0
  9 10  1  1  0  0  0
  9 11  1  0  0  0  0
 11 12  1  1  0  0  0
 11 13  1  0  0  0  0
 13 14  1  0  0  0  0
 13 15  1  1  0  0  0
 15 16  1  0  0  0  0
M  CHG  1   3  -1
M  END
>  <CHROM.1>
-151.53134697,-170.57829044,-140.85355777,45.18711734,35.84546937,53.95447711
-2.51723631,-0.87927918,1.90242325

>  <Name>
ligand

>  <RI>
0

>  <Rbt.Current_Directory>
/home/itssahil/PROJECTS/Mol_Feturizer/New_Systems/rnas/3B4A

>  <Rbt.Executable>
rbdock ($Id: //depot/dev/client3/rdock/2013.1/src/exe/rbdock.cxx#4 $)

>  <Rbt.Library>
libRbt.so (2013.1, Build901 2013/11/27)

>  <Rbt.Parameter_File>
/export/apps/rDock/src/rDock_2013.1_src/data/scripts/dock_solv.prm

>  <Rbt.Receptor>
prm/pocket_docking_5.prm

>  <SCORE>
-8.4312

>  <SCORE.INTER>
-10.1255

>  <SCORE.INTER.CONST>
1

>  <SCORE.INTER.POLAR>
0

>  <SCORE.INTER.ROT>
3

>  <SCORE.INTER.SOLV>
17.7976

>  <SCORE.INTER.VDW>
-18.2828

>  <SCORE.INTER.norm>
-0.632843

>  <SCORE.INTRA>
1.65557

>  <SCORE.INTRA.DIHEDRAL>
2.5569

>  <SCORE.INTRA.DIHEDRAL.0>
2.05999

>  <SCORE.INTRA.POLAR>
0

>  <SCORE.INTRA.POLAR.0>
0

>  <SCORE.INTRA.REPUL>
0

>  <SCORE.INTRA.REPUL.0>
0

>  <SCORE.INTRA.SOLV>
-0.517916

>  <SCORE.INTRA.SOLV.lig_0>
-58.7001

>  <SCORE.INTRA.VDW>
0.636072

>  <SCORE.INTRA.VDW.0>
-0.401036

>  <SCORE.INTRA.norm>
0.103473

>  <SCORE.RESTR>
0.0387268

>  <SCORE.RESTR.CAVITY>
0.0387268

>  <SCORE.RESTR.norm>
0.00242043

>  <SCORE.SYSTEM>
0

>  <SCORE.SYSTEM.CONST>
0

>  <SCORE.SYSTEM.DIHEDRAL>
0

>  <SCORE.SYSTEM.SOLV>
0

>  <SCORE.SYSTEM.norm>
0

>  <SCORE.heavy>
16

>  <SCORE.norm>
-0.52695

>  <RMSD>
5.937

$$$$
ligand
 OpenBabel11021811463D
libRbt.so/2013.1/901 2013/11/27
 16 16  0  0  0  0  0  0  0  0999 V2000
   46.7914   33.2879   55.5065 P   0  0  2  0  0  0  0  0  0  0  0  0
   46.5212   33.5006   56.9501 O   0  0  0  0  0  0  0  0  0  0  0  0
   45.5117   33.7685   54.6506 O   0  5  0  0  0  0  0  0  0  0  0  0
   47.0668   31.7139   55.2540 O   0  0  0  0  0  0  0  0  0  0  0  0
   50.4380   36.8605   52.8694 C   0  0  2  0  0  0  0  0  0  0  0  0
   50.7560   36.5570   51.4921 O   0  0  0  0  0  0  0  0  0  0  0  0
   51.6796   36.6585   53.7858 C   0  0  2  0  0  0  0  0  0  0  0  0
   52.7828   37.5180   53.3183 N   0  0  0  0  0  0  0  0  0  0  0  0
   52.1029   35.1744   53.7259 C   0  0  1  0  0  0  0  0  0  0  0  0
   53.2460   34.9562   54.5698 O   0  0  0  0  0  0  0  0  0  0  0  0
   50.9117   34.3302   54.2248 C   0  0  2  0  0  0  0  0  0  0  0  0
   51.2679   32.9381   54.1756 O   0  0  0  0  0  0  0  0  0  0  0  0
   49.6957   34.5991   53.2859 C   0  0  2  0  0  0  0  0  0  0  0  0
   49.3311   36.0113   53.3108 O   0  0  0  0  0  0  0  0  0  0  0  0
   48.4636   33.7997   53.7403 C   0  0  0  0  0  0  0  0  0  0  0  0
   48.0876   34.1618   55.0808 O   0  0  0  0  0  0  0  0  0  0  0  0
  1  2  1  1  0  0  0
  1  3  1  0  0  0  0
  1  4  2  0  0  0  0
  1 16  1  0  0  0  0
  5  6  1  6  0  0  0
  5  7  1  0  0  0  0
  5 14  1  0  0  0  0
  7  8  1  6  0  0  0
  7  9  1  0  0  0  0
  9 10  1  1  0  0  0
  9 11  1  0  0  0  0
 11 12  1  6  0  0  0
 11 13  1  0  0  0  0
 13 14  1  0  0  0  0
 13 15  1  1  0  0  0
 15 16  1  0  0  0  0
M  CHG  1   3  -1
M  END
>  <CHROM.1>
59.73643076,-179.82831563,171.50414637,49.40307632,34.59249433,54.24499201
2.52919649,-0.00888993,2.51952598

>  <Name>
ligand

>  <RI>
0

>  <Rbt.Current_Directory>
/home/itssahil/PROJECTS/Mol_Feturizer/New_Systems/rnas/3B4A

>  <Rbt.Executable>
rbdock ($Id: //depot/dev/client3/rdock/2013.1/src/exe/rbdock.cxx#4 $)

>  <Rbt.Library>
libRbt.so (2013.1, Build901 2013/11/27)

>  <Rbt.Parameter_File>
/export/apps/rDock/src/rDock_2013.1_src/data/scripts/dock_solv.prm

>  <Rbt.Receptor>
prm/pocket_docking_3.prm

>  <SCORE>
-6.6954

>  <SCORE.INTER>
-5.26663

>  <SCORE.INTER.CONST>
1

>  <SCORE.INTER.POLAR>
0

>  <SCORE.INTER.ROT>
3

>  <SCORE.INTER.SOLV>
13.8729

>  <SCORE.INTER.VDW>
-13.7354

>  <SCORE.INTER.norm>
-0.329164

>  <SCORE.INTRA>
-1.42877

>  <SCORE.INTRA.DIHEDRAL>
-1.94074

>  <SCORE.INTRA.DIHEDRAL.0>
2.05999

>  <SCORE.INTRA.POLAR>
0

>  <SCORE.INTRA.POLAR.0>
0

>  <SCORE.INTRA.REPUL>
0

>  <SCORE.INTRA.REPUL.0>
0

>  <SCORE.INTRA.SOLV>
-0.206444

>  <SCORE.INTRA.SOLV.lig_0>
-58.7001

>  <SCORE.INTRA.VDW>
-0.355176

>  <SCORE.INTRA.VDW.0>
-0.401036

>  <SCORE.INTRA.norm>
-0.0892979

>  <SCORE.RESTR>
0

>  <SCORE.RESTR.CAVITY>
0

>  <SCORE.RESTR.norm>
0

>  <SCORE.SYSTEM>
0

>  <SCORE.SYSTEM.CONST>
0

>  <SCORE.SYSTEM.DIHEDRAL>
0

>  <SCORE.SYSTEM.SOLV>
0

>  <SCORE.SYSTEM.norm>
0

>  <SCORE.heavy>
16

>  <SCORE.norm>
-0.418462

>  <RMSD>
5.941

$$$$
ligand
 OpenBabel11021811463D
libRbt.so/2013.1/901 2013/11/27
 16 16  0  0  0  0  0  0  0  0999 V2000
   45.6227   34.2887   55.0355 P   0  0  2  0  0  0  0  0  0  0  0  0
   45.9985   34.3374   56.4704 O   0  0  0  0  0  0  0  0  0  0  0  0
   44.3675   35.2691   54.7821 O   0  5  0  0  0  0  0  0  0  0  0  0
   45.2238   32.7684   54.6523 O   0  0  0  0  0  0  0  0  0  0  0  0
   50.5126   36.1875   52.7805 C   0  0  2  0  0  0  0  0  0  0  0  0
   50.2057   35.8896   51.3995 O   0  0  0  0  0  0  0  0  0  0  0  0
   51.8384   35.4998   53.2180 C   0  0  2  0  0  0  0  0  0  0  0  0
   52.9386   35.9493   52.3453 N   0  0  0  0  0  0  0  0  0  0  0  0
   51.6633   33.9695   53.1037 C   0  0  1  0  0  0  0  0  0  0  0  0
   52.8727   33.3061   53.5086 O   0  0  0  0  0  0  0  0  0  0  0  0
   50.5029   33.5629   54.0356 C   0  0  2  0  0  0  0  0  0  0  0  0
   50.3055   32.1414   53.9491 O   0  0  0  0  0  0  0  0  0  0  0  0
   49.2150   34.3058   53.5641 C   0  0  2  0  0  0  0  0  0  0  0  0
   49.4037   35.7508   53.6297 O   0  0  0  0  0  0  0  0  0  0  0  0
   48.0194   33.9585   54.4660 C   0  0  0  0  0  0  0  0  0  0  0  0
   46.8838   34.7814   54.1456 O   0  0  0  0  0  0  0  0  0  0  0  0
  1  2  1  1  0  0  0
  1  3  1  0  0  0  0
  1  4  2  0  0  0  0
  1 16  1  0  0  0  0
  5  6  1  6  0  0  0
  5  7  1  0  0  0  0
  5 14  1  0  0  0  0
  7  8  1  6  0  0  0
  7  9  1  0  0  0  0
  9 10  1  1  0  0  0
  9 11  1  0  0  0  0
 11 12  1  6  0  0  0
 11 13  1  0  0  0  0
 13 14  1  0  0  0  0
 13 15  1  1  0  0  0
 15 16  1  0  0  0  0
M  CHG  1   3  -1
M  END
>  <CHROM.1>
172.04655020,175.26324211,56.15498911,48.77260248,34.46594586,53.92498338
2.93040640,-0.26780754,2.69474227

>  <Name>
ligand

>  <RI>
0

>  <Rbt.Current_Directory>
/home/itssahil/PROJECTS/Mol_Feturizer/New_Systems/rnas/3B4A

>  <Rbt.Executable>
rbdock ($Id: //depot/dev/client3/rdock/2013.1/src/exe/rbdock.cxx#4 $)

>  <Rbt.Library>
libRbt.so (2013.1, Build901 2013/11/27)

>  <Rbt.Parameter_File>
/export/apps/rDock/src/rDock_2013.1_src/data/scripts/dock_solv.prm

>  <Rbt.Receptor>
prm/pocket_docking_4.prm

>  <SCORE>
-5.09304

>  <SCORE.INTER>
-3.71646

>  <SCORE.INTER.CONST>
1

>  <SCORE.INTER.POLAR>
0

>  <SCORE.INTER.ROT>
3

>  <SCORE.INTER.SOLV>
10.9253

>  <SCORE.INTER.VDW>
-11.7194

>  <SCORE.INTER.norm>
-0.232278

>  <SCORE.INTRA>
-1.37658

>  <SCORE.INTRA.DIHEDRAL>
-1.70012

>  <SCORE.INTRA.DIHEDRAL.0>
2.05999

>  <SCORE.INTRA.POLAR>
0

>  <SCORE.INTRA.POLAR.0>
0

>  <SCORE.INTRA.REPUL>
0

>  <SCORE.INTRA.REPUL.0>
0

>  <SCORE.INTRA.SOLV>
-1.07288

>  <SCORE.INTRA.SOLV.lig_0>
-58.7001

>  <SCORE.INTRA.VDW>
0.00991765

>  <SCORE.INTRA.VDW.0>
-0.401036

>  <SCORE.INTRA.norm>
-0.0860363

>  <SCORE.RESTR>
0

>  <SCORE.RESTR.CAVITY>
0

>  <SCORE.RESTR.norm>
0

>  <SCORE.SYSTEM>
0

>  <SCORE.SYSTEM.CONST>
0

>  <SCORE.SYSTEM.DIHEDRAL>
0

>  <SCORE.SYSTEM.SOLV>
0

>  <SCORE.SYSTEM.norm>
0

>  <SCORE.heavy>
16

>  <SCORE.norm>
-0.318315

>  <RMSD>
5.944

$$$$
ligand
 OpenBabel11021811463D
libRbt.so/2013.1/901 2013/11/27
 16 16  0  0  0  0  0  0  0  0999 V2000
   43.0033   38.8169   52.4821 P   0  0  2  0  0  0  0  0  0  0  0  0
   41.5409   38.6546   52.2882 O   0  0  0  0  0  0  0  0  0  0  0  0
   43.2681   39.9556   53.5931 O   0  5  0  0  0  0  0  0  0  0  0  0
   43.6708   39.2516   51.0740 O   0  0  0  0  0  0  0  0  0  0  0  0
   45.5057   34.3809   55.1848 C   0  0  2  0  0  0  0  0  0  0  0  0
   46.8192   34.6196   55.7398 O   0  0  0  0  0  0  0  0  0  0  0  0
   45.5811   33.4080   53.9724 C   0  0  2  0  0  0  0  0  0  0  0  0
   46.1909   32.1350   54.3986 N   0  0  0  0  0  0  0  0  0  0  0  0
   46.4381   34.0613   52.8660 C   0  0  1  0  0  0  0  0  0  0  0  0
   46.5200   33.1863   51.7284 O   0  0  0  0  0  0  0  0  0  0  0  0
   45.7510   35.3832   52.4647 C   0  0  2  0  0  0  0  0  0  0  0  0
   46.5274   36.0248   51.4387 O   0  0  0  0  0  0  0  0  0  0  0  0
   45.6801   36.2988   53.7254 C   0  0  2  0  0  0  0  0  0  0  0  0
   44.9091   35.6554   54.7835 O   0  0  0  0  0  0  0  0  0  0  0  0
   44.9861   37.6311   53.3982 C   0  0  0  0  0  0  0  0  0  0  0  0
   43.6249   37.4094   52.9893 O   0  0  0  0  0  0  0  0  0  0  0  0
  1  2  1  6  0  0  0
  1  3  1  0  0  0  0
  1  4  2  0  0  0  0
  1 16  1  0  0  0  0
  5  6  1  6  0  0  0
  5  7  1  0  0  0  0
  5 14  1  0  0  0  0
  7  8  1  1  0  0  0
  7  9  1  0  0  0  0
  9 10  1  6  0  0  0
  9 11  1  0  0  0  0
 11 12  1  6  0  0  0
 11 13  1  0  0  0  0
 13 14  1  0  0  0  0
 13 15  1  6  0  0  0
 15 16  1  0  0  0  0
M  CHG  1   3  -1
M  END
>  <CHROM.1>
62.47709838,-173.00871304,-170.02910972,44.82637762,36.31695491,53.17898536
2.73850209,0.98277746,-1.35768240

>  <Name>
ligand

>  <RI>
0

>  <Rbt.Current_Directory>
/home/itssahil/PROJECTS/Mol_Feturizer/New_Systems/rnas/3B4A

>  <Rbt.Executable>
rbdock ($Id: //depot/dev/client3/rdock/2013.1/src/exe/rbdock.cxx#4 $)

>  <Rbt.Library>
libRbt.so (2013.1, Build901 2013/11/27)

>  <Rbt.Parameter_File>
/export/apps/rDock/src/rDock_2013.1_src/data/scripts/dock_solv.prm

>  <Rbt.Receptor>
prm/pocket_docking_6.prm

>  <SCORE>
-10.1136

>  <SCORE.INTER>
-8.9096

>  <SCORE.INTER.CONST>
1

>  <SCORE.INTER.POLAR>
0

>  <SCORE.INTER.ROT>
3

>  <SCORE.INTER.SOLV>
15.4955

>  <SCORE.INTER.VDW>
-16.7049

>  <SCORE.INTER.norm>
-0.55685

>  <SCORE.INTRA>
-1.20401

>  <SCORE.INTRA.DIHEDRAL>
-1.63604

>  <SCORE.INTRA.DIHEDRAL.0>
2.05999

>  <SCORE.INTRA.POLAR>
0

>  <SCORE.INTRA.POLAR.0>
0

>  <SCORE.INTRA.REPUL>
0

>  <SCORE.INTRA.REPUL.0>
0

>  <SCORE.INTRA.SOLV>
-0.100818

>  <SCORE.INTRA.SOLV.lig_0>
-58.7001

>  <SCORE.INTRA.VDW>
-0.335578

>  <SCORE.INTRA.VDW.0>
-0.401036

>  <SCORE.INTRA.norm>
-0.0752505

>  <SCORE.RESTR>
0

>  <SCORE.RESTR.CAVITY>
0

>  <SCORE.RESTR.norm>
0

>  <SCORE.SYSTEM>
0

>  <SCORE.SYSTEM.CONST>
0

>  <SCORE.SYSTEM.DIHEDRAL>
0

>  <SCORE.SYSTEM.SOLV>
0

>  <SCORE.SYSTEM.norm>
0

>  <SCORE.heavy>
16

>  <SCORE.norm>
-0.632101

>  <RMSD>
5.944

$$$$
ligand
 OpenBabel11021811463D
libRbt.so/2013.1/901 2013/11/27
 16 16  0  0  0  0  0  0  0  0999 V2000
   46.7652   33.2812   55.5071 P   0  0  2  0  0  0  0  0  0  0  0  0
   46.5276   33.4297   56.9645 O   0  0  0  0  0  0  0  0  0  0  0  0
   45.4714   33.8096   54.7021 O   0  5  0  0  0  0  0  0  0  0  0  0
   47.0221   31.7183   55.1774 O   0  0  0  0  0  0  0  0  0  0  0  0
   50.5191   36.8426   52.9318 C   0  0  2  0  0  0  0  0  0  0  0  0
   50.8558   36.5374   51.5593 O   0  0  0  0  0  0  0  0  0  0  0  0
   51.7312   36.5856   53.8736 C   0  0  2  0  0  0  0  0  0  0  0  0
   52.8769   37.4051   53.4379 N   0  0  0  0  0  0  0  0  0  0  0  0
   52.0980   35.0866   53.8105 C   0  0  1  0  0  0  0  0  0  0  0  0
   53.2127   34.8177   54.6775 O   0  0  0  0  0  0  0  0  0  0  0  0
   50.8642   34.2856   54.2759 C   0  0  2  0  0  0  0  0  0  0  0  0
   51.1673   32.8811   54.2227 O   0  0  0  0  0  0  0  0  0  0  0  0
   49.6808   34.6086   53.3126 C   0  0  2  0  0  0  0  0  0  0  0  0
   49.3706   36.0337   53.3416 O   0  0  0  0  0  0  0  0  0  0  0  0
   48.4088   33.8542   53.7331 C   0  0  0  0  0  0  0  0  0  0  0  0
   48.0591   34.1641   55.0936 O   0  0  0  0  0  0  0  0  0  0  0  0
  1  2  1  1  0  0  0
  1  3  1  0  0  0  0
  1  4  2  0  0  0  0
  1 16  1  0  0  0  0
  5  6  1  6  0  0  0
  5  7  1  0  0  0  0
  5 14  1  0  0  0  0
  7  8  1  6  0  0  0
  7  9  1  0  0  0  0
  9 10  1  1  0  0  0
  9 11  1  0  0  0  0
 11 12  1  6  0  0  0
 11 13  1  0  0  0  0
 13 14  1  0  0  0  0
 13 15  1  1  0  0  0
 15 16  1  0  0  0  0
M  CHG  1   3  -1
M  END
>  <CHROM.1>
56.55420823,-176.86747527,171.12271696,49.39895130,34.56369133,54.28364142
2.54545078,-0.00229284,2.51888748

>  <Name>
ligand

>  <RI>
0

>  <Rbt.Current_Directory>
/home/itssahil/PROJECTS/Mol_Feturizer/New_Systems/rnas/3B4A

>  <Rbt.Executable>
rbdock ($Id: //depot/dev/client3/rdock/2013.1/src/exe/rbdock.cxx#4 $)

>  <Rbt.Library>
libRbt.so (2013.1, Build901 2013/11/27)

>  <Rbt.Parameter_File>
/export/apps/rDock/src/rDock_2013.1_src/data/scripts/dock_solv.prm

>  <Rbt.Receptor>
prm/pocket_docking_4.prm

>  <SCORE>
-6.71579

>  <SCORE.INTER>
-5.35178

>  <SCORE.INTER.CONST>
1

>  <SCORE.INTER.POLAR>
0

>  <SCORE.INTER.ROT>
3

>  <SCORE.INTER.SOLV>
13.992

>  <SCORE.INTER.VDW>
-13.8318

>  <SCORE.INTER.norm>
-0.334486

>  <SCORE.INTRA>
-1.36401

>  <SCORE.INTRA.DIHEDRAL>
-1.84043

>  <SCORE.INTRA.DIHEDRAL.0>
2.05999

>  <SCORE.INTRA.POLAR>
0

>  <SCORE.INTRA.POLAR.0>
0

>  <SCORE.INTRA.REPUL>
0

>  <SCORE.INTRA.REPUL.0>
0

>  <SCORE.INTRA.SOLV>
-0.199196

>  <SCORE.INTRA.SOLV.lig_0>
-58.7001

>  <SCORE.INTRA.VDW>
-0.344197

>  <SCORE.INTRA.VDW.0>
-0.401036

>  <SCORE.INTRA.norm>
-0.0852505

>  <SCORE.RESTR>
0

>  <SCORE.RESTR.CAVITY>
0

>  <SCORE.RESTR.norm>
0

>  <SCORE.SYSTEM>
0

>  <SCORE.SYSTEM.CONST>
0

>  <SCORE.SYSTEM.DIHEDRAL>
0

>  <SCORE.SYSTEM.SOLV>
0

>  <SCORE.SYSTEM.norm>
0

>  <SCORE.heavy>
16

>  <SCORE.norm>
-0.419737

>  <RMSD>
5.946

$$$$
ligand
 OpenBabel11021811463D
libRbt.so/2013.1/901 2013/11/27
 16 16  0  0  0  0  0  0  0  0999 V2000
   43.5248   38.6382   52.8660 P   0  0  2  0  0  0  0  0  0  0  0  0
   42.1709   39.0489   52.4176 O   0  0  0  0  0  0  0  0  0  0  0  0
   43.8602   39.3586   54.2694 O   0  5  0  0  0  0  0  0  0  0  0  0
   44.6025   39.0824   51.7442 O   0  0  0  0  0  0  0  0  0  0  0  0
   45.6727   33.3813   52.9432 C   0  0  2  0  0  0  0  0  0  0  0  0
   44.4204   32.6590   52.9234 O   0  0  0  0  0  0  0  0  0  0  0  0
   46.5436   32.9542   54.1602 C   0  0  2  0  0  0  0  0  0  0  0  0
   46.7959   31.5026   54.1010 N   0  0  0  0  0  0  0  0  0  0  0  0
   45.7862   33.3073   55.4591 C   0  0  1  0  0  0  0  0  0  0  0  0
   46.5713   32.9293   56.6025 O   0  0  0  0  0  0  0  0  0  0  0  0
   45.5531   34.8324   55.4618 C   0  0  2  0  0  0  0  0  0  0  0  0
   44.8415   35.1978   56.6565 O   0  0  0  0  0  0  0  0  0  0  0  0
   44.7029   35.1985   54.2065 C   0  0  2  0  0  0  0  0  0  0  0  0
   45.4034   34.8191   52.9845 O   0  0  0  0  0  0  0  0  0  0  0  0
   44.4492   36.7133   54.1376 C   0  0  0  0  0  0  0  0  0  0  0  0
   43.5471   37.0302   53.0629 O   0  0  0  0  0  0  0  0  0  0  0  0
  1  2  1  6  0  0  0
  1  3  1  0  0  0  0
  1  4  2  0  0  0  0
  1 16  1  0  0  0  0
  5  6  1  1  0  0  0
  5  7  1  0  0  0  0
  5 14  1  0  0  0  0
  7  8  1  6  0  0  0
  7  9  1  0  0  0  0
  9 10  1  1  0  0  0
  9 11  1  0  0  0  0
 11 12  1  1  0  0  0
 11 13  1  0  0  0  0
 13 14  1  0  0  0  0
 13 15  1  6  0  0  0
 15 16  1  0  0  0  0
M  CHG  1   3  -1
M  END
>  <CHROM.1>
-173.78754685,-169.92103375,-147.40724432,44.76532310,35.71557540,53.90415112
3.02628836,-1.17801663,1.12949548

>  <Name>
ligand

>  <RI>
0

>  <Rbt.Current_Directory>
/home/itssahil/PROJECTS/Mol_Feturizer/New_Systems/rnas/3B4A

>  <Rbt.Executable>
rbdock ($Id: //depot/dev/client3/rdock/2013.1/src/exe/rbdock.cxx#4 $)

>  <Rbt.Library>
libRbt.so (2013.1, Build901 2013/11/27)

>  <Rbt.Parameter_File>
/export/apps/rDock/src/rDock_2013.1_src/data/scripts/dock_solv.prm

>  <Rbt.Receptor>
prm/pocket_docking_5.prm

>  <SCORE>
-8.01542

>  <SCORE.INTER>
-8.15879

>  <SCORE.INTER.CONST>
1

>  <SCORE.INTER.POLAR>
0

>  <SCORE.INTER.ROT>
3

>  <SCORE.INTER.SOLV>
18.5426

>  <SCORE.INTER.VDW>
-17.2201

>  <SCORE.INTER.norm>
-0.509924

>  <SCORE.INTRA>
0.143073

>  <SCORE.INTRA.DIHEDRAL>
-0.0651251

>  <SCORE.INTRA.DIHEDRAL.0>
2.05999

>  <SCORE.INTRA.POLAR>
0

>  <SCORE.INTRA.POLAR.0>
0

>  <SCORE.INTRA.REPUL>
0

>  <SCORE.INTRA.REPUL.0>
0

>  <SCORE.INTRA.SOLV>
-0.415624

>  <SCORE.INTRA.SOLV.lig_0>
-58.7001

>  <SCORE.INTRA.VDW>
0.383447

>  <SCORE.INTRA.VDW.0>
-0.401036

>  <SCORE.INTRA.norm>
0.00894206

>  <SCORE.RESTR>
0.000300021

>  <SCORE.RESTR.CAVITY>
0.000300021

>  <SCORE.RESTR.norm>
1.87513e-05

>  <SCORE.SYSTEM>
0

>  <SCORE.SYSTEM.CONST>
0

>  <SCORE.SYSTEM.DIHEDRAL>
0

>  <SCORE.SYSTEM.SOLV>
0

>  <SCORE.SYSTEM.norm>
0

>  <SCORE.heavy>
16

>  <SCORE.norm>
-0.500963

>  <RMSD>
5.957

$$$$
ligand
 OpenBabel11021811463D
libRbt.so/2013.1/901 2013/11/27
 16 16  0  0  0  0  0  0  0  0999 V2000
   43.5429   38.5533   52.6714 P   0  0  2  0  0  0  0  0  0  0  0  0
   42.0681   38.3888   52.6497 O   0  0  0  0  0  0  0  0  0  0  0  0
   43.9642   39.3906   53.9838 O   0  5  0  0  0  0  0  0  0  0  0  0
   43.9985   39.3479   51.3379 O   0  0  0  0  0  0  0  0  0  0  0  0
   46.9736   34.0789   53.3142 C   0  0  2  0  0  0  0  0  0  0  0  0
   46.0968   33.0472   52.8072 O   0  0  0  0  0  0  0  0  0  0  0  0
   47.4659   33.7360   54.7503 C   0  0  2  0  0  0  0  0  0  0  0  0
   48.1651   32.4380   54.7353 N   0  0  0  0  0  0  0  0  0  0  0  0
   46.2420   33.6673   55.6899 C   0  0  1  0  0  0  0  0  0  0  0  0
   46.6677   33.3581   57.0277 O   0  0  0  0  0  0  0  0  0  0  0  0
   45.5559   35.0489   55.6622 C   0  0  2  0  0  0  0  0  0  0  0  0
   44.4041   35.0200   56.5224 O   0  0  0  0  0  0  0  0  0  0  0  0
   45.1142   35.3453   54.1960 C   0  0  2  0  0  0  0  0  0  0  0  0
   46.2698   35.3618   53.3059 O   0  0  0  0  0  0  0  0  0  0  0  0
   44.4374   36.7220   54.0938 C   0  0  0  0  0  0  0  0  0  0  0  0
   44.2337   37.0885   52.7178 O   0  0  0  0  0  0  0  0  0  0  0  0
  1  2  1  6  0  0  0
  1  3  1  0  0  0  0
  1  4  2  0  0  0  0
  1 16  1  0  0  0  0
  5  6  1  1  0  0  0
  5  7  1  0  0  0  0
  5 14  1  0  0  0  0
  7  8  1  6  0  0  0
  7  9  1  0  0  0  0
  9 10  1  1  0  0  0
  9 11  1  0  0  0  0
 11 12  1  1  0  0  0
 11 13  1  0  0  0  0
 13 14  1  0  0  0  0
 13 15  1  1  0  0  0
 15 16  1  0  0  0  0
M  CHG  1   3  -1
M  END
>  <CHROM.1>
170.39530551,-179.05670475,-91.49600153,45.14774703,35.92703300,53.96482564
-2.49259174,-0.89395376,1.89673701

>  <Name>
ligand

>  <RI>
0

>  <Rbt.Current_Directory>
/home/itssahil/PROJECTS/Mol_Feturizer/New_Systems/rnas/3B4A

>  <Rbt.Executable>
rbdock ($Id: //depot/dev/client3/rdock/2013.1/src/exe/rbdock.cxx#4 $)

>  <Rbt.Library>
libRbt.so (2013.1, Build901 2013/11/27)

>  <Rbt.Parameter_File>
/export/apps/rDock/src/rDock_2013.1_src/data/scripts/dock_solv.prm

>  <Rbt.Receptor>
prm/pocket_docking_5.prm

>  <SCORE>
-9.51062

>  <SCORE.INTER>
-9.80638

>  <SCORE.INTER.CONST>
1

>  <SCORE.INTER.POLAR>
0

>  <SCORE.INTER.ROT>
3

>  <SCORE.INTER.SOLV>
17.2964

>  <SCORE.INTER.VDW>
-17.9031

>  <SCORE.INTER.norm>
-0.612898

>  <SCORE.INTRA>
-0.0489179

>  <SCORE.INTRA.DIHEDRAL>
-0.436432

>  <SCORE.INTRA.DIHEDRAL.0>
2.05999

>  <SCORE.INTRA.POLAR>
0

>  <SCORE.INTRA.POLAR.0>
0

>  <SCORE.INTRA.REPUL>
0

>  <SCORE.INTRA.REPUL.0>
0

>  <SCORE.INTRA.SOLV>
-0.713427

>  <SCORE.INTRA.SOLV.lig_0>
-58.7001

>  <SCORE.INTRA.VDW>
0.526012

>  <SCORE.INTRA.VDW.0>
-0.401036

>  <SCORE.INTRA.norm>
-0.00305737

>  <SCORE.RESTR>
0.344678

>  <SCORE.RESTR.CAVITY>
0.344678

>  <SCORE.RESTR.norm>
0.0215423

>  <SCORE.SYSTEM>
0

>  <SCORE.SYSTEM.CONST>
0

>  <SCORE.SYSTEM.DIHEDRAL>
0

>  <SCORE.SYSTEM.SOLV>
0

>  <SCORE.SYSTEM.norm>
0

>  <SCORE.heavy>
16

>  <SCORE.norm>
-0.594414

>  <RMSD>
5.966

$$$$
ligand
 OpenBabel11021811463D
libRbt.so/2013.1/901 2013/11/27
 16 16  0  0  0  0  0  0  0  0999 V2000
   46.8333   33.3229   55.4725 P   0  0  2  0  0  0  0  0  0  0  0  0
   46.5384   33.5560   56.9082 O   0  0  0  0  0  0  0  0  0  0  0  0
   45.5831   33.8247   54.5858 O   0  5  0  0  0  0  0  0  0  0  0  0
   47.0767   31.7404   55.2405 O   0  0  0  0  0  0  0  0  0  0  0  0
   50.5853   36.8379   52.8853 C   0  0  2  0  0  0  0  0  0  0  0  0
   50.9064   36.5369   51.5082 O   0  0  0  0  0  0  0  0  0  0  0  0
   51.8119   36.5909   53.8108 C   0  0  2  0  0  0  0  0  0  0  0  0
   52.9445   37.4209   53.3607 N   0  0  0  0  0  0  0  0  0  0  0  0
   52.1911   35.0953   53.7414 C   0  0  1  0  0  0  0  0  0  0  0  0
   53.3195   34.8356   54.5933 O   0  0  0  0  0  0  0  0  0  0  0  0
   50.9707   34.2830   54.2223 C   0  0  2  0  0  0  0  0  0  0  0  0
   51.2854   32.8813   54.1638 O   0  0  0  0  0  0  0  0  0  0  0  0
   49.7718   34.5963   53.2751 C   0  0  2  0  0  0  0  0  0  0  0  0
   49.4494   36.0185   53.3094 O   0  0  0  0  0  0  0  0  0  0  0  0
   48.5123   33.8303   53.7116 C   0  0  0  0  0  0  0  0  0  0  0  0
   48.1582   34.1621   55.0658 O   0  0  0  0  0  0  0  0  0  0  0  0
  1  2  1  1  0  0  0
  1  3  1  0  0  0  0
  1  4  2  0  0  0  0
  1 16  1  0  0  0  0
  5  6  1  6  0  0  0
  5  7  1  0  0  0  0
  5 14  1  0  0  0  0
  7  8  1  6  0  0  0
  7  9  1  0  0  0  0
  9 10  1  1  0  0  0
  9 11  1  0  0  0  0
 11 12  1  6  0  0  0
 11 13  1  0  0  0  0
 13 14  1  0  0  0  0
 13 15  1  1  0  0  0
 15 16  1  0  0  0  0
M  CHG  1   3  -1
M  END
>  <CHROM.1>
58.02042072,-179.71448634,174.48523758,49.47943297,34.57847045,54.23691556
2.55079831,-0.01541634,2.52519580

>  <Name>
ligand

>  <RI>
0

>  <Rbt.Current_Directory>
/home/itssahil/PROJECTS/Mol_Feturizer/New_Systems/rnas/3B4A

>  <Rbt.Executable>
rbdock ($Id: //depot/dev/client3/rdock/2013.1/src/exe/rbdock.cxx#4 $)

>  <Rbt.Library>
libRbt.so (2013.1, Build901 2013/11/27)

>  <Rbt.Parameter_File>
/export/apps/rDock/src/rDock_2013.1_src/data/scripts/dock_solv.prm

>  <Rbt.Receptor>
prm/pocket_docking_3.prm

>  <SCORE>
-6.68203

>  <SCORE.INTER>
-5.21224

>  <SCORE.INTER.CONST>
1

>  <SCORE.INTER.POLAR>
0

>  <SCORE.INTER.ROT>
3

>  <SCORE.INTER.SOLV>
13.5273

>  <SCORE.INTER.VDW>
-13.5839

>  <SCORE.INTER.norm>
-0.325765

>  <SCORE.INTRA>
-1.46979

>  <SCORE.INTRA.DIHEDRAL>
-1.99408

>  <SCORE.INTRA.DIHEDRAL.0>
2.05999

>  <SCORE.INTRA.POLAR>
0

>  <SCORE.INTRA.POLAR.0>
0

>  <SCORE.INTRA.REPUL>
0

>  <SCORE.INTRA.REPUL.0>
0

>  <SCORE.INTRA.SOLV>
-0.202482

>  <SCORE.INTRA.SOLV.lig_0>
-58.7001

>  <SCORE.INTRA.VDW>
-0.371513

>  <SCORE.INTRA.VDW.0>
-0.401036

>  <SCORE.INTRA.norm>
-0.0918621

>  <SCORE.RESTR>
0

>  <SCORE.RESTR.CAVITY>
0

>  <SCORE.RESTR.norm>
0

>  <SCORE.SYSTEM>
0

>  <SCORE.SYSTEM.CONST>
0

>  <SCORE.SYSTEM.DIHEDRAL>
0

>  <SCORE.SYSTEM.SOLV>
0

>  <SCORE.SYSTEM.norm>
0

>  <SCORE.heavy>
16

>  <SCORE.norm>
-0.417627

>  <RMSD>
5.967

$$$$
ligand
 OpenBabel11021811463D
libRbt.so/2013.1/901 2013/11/27
 16 16  0  0  0  0  0  0  0  0999 V2000
   42.9886   38.8444   52.5162 P   0  0  2  0  0  0  0  0  0  0  0  0
   41.5251   38.7230   52.3015 O   0  0  0  0  0  0  0  0  0  0  0  0
   43.2715   40.0064   53.5983 O   0  5  0  0  0  0  0  0  0  0  0  0
   43.6930   39.2159   51.1080 O   0  0  0  0  0  0  0  0  0  0  0  0
   45.2301   34.3046   55.2562 C   0  0  2  0  0  0  0  0  0  0  0  0
   46.4519   34.5301   55.9955 O   0  0  0  0  0  0  0  0  0  0  0  0
   45.4898   33.4097   54.0097 C   0  0  2  0  0  0  0  0  0  0  0  0
   46.0685   32.1230   54.4381 N   0  0  0  0  0  0  0  0  0  0  0  0
   46.4701   34.1440   53.0688 C   0  0  1  0  0  0  0  0  0  0  0  0
   46.7239   33.3422   51.9029 O   0  0  0  0  0  0  0  0  0  0  0  0
   45.8104   35.4766   52.6575 C   0  0  2  0  0  0  0  0  0  0  0  0
   46.7004   36.1929   51.7845 O   0  0  0  0  0  0  0  0  0  0  0  0
   45.5500   36.3115   53.9490 C   0  0  2  0  0  0  0  0  0  0  0  0
   44.6612   35.5915   54.8542 O   0  0  0  0  0  0  0  0  0  0  0  0
   44.8733   37.6499   53.6107 C   0  0  0  0  0  0  0  0  0  0  0  0
   43.5560   37.4335   53.0748 O   0  0  0  0  0  0  0  0  0  0  0  0
  1  2  1  6  0  0  0
  1  3  1  0  0  0  0
  1  4  2  0  0  0  0
  1 16  1  0  0  0  0
  5  6  1  6  0  0  0
  5  7  1  0  0  0  0
  5 14  1  0  0  0  0
  7  8  1  1  0  0  0
  7  9  1  0  0  0  0
  9 10  1  6  0  0  0
  9 11  1  0  0  0  0
 11 12  1  6  0  0  0
 11 13  1  0  0  0  0
 13 14  1  0  0  0  0
 13 15  1  6  0  0  0
 15 16  1  0  0  0  0
M  CHG  1   3  -1
M  END
>  <CHROM.1>
65.47525248,-170.92600927,-164.94901894,44.77167328,36.34426887,53.29730456
2.53740040,0.91929726,-1.13399111

>  <Name>
ligand

>  <RI>
0

>  <Rbt.Current_Directory>
/home/itssahil/PROJECTS/Mol_Feturizer/New_Systems/rnas/3B4A

>  <Rbt.Executable>
rbdock ($Id: //depot/dev/client3/rdock/2013.1/src/exe/rbdock.cxx#4 $)

>  <Rbt.Library>
libRbt.so (2013.1, Build901 2013/11/27)

>  <Rbt.Parameter_File>
/export/apps/rDock/src/rDock_2013.1_src/data/scripts/dock_solv.prm

>  <Rbt.Receptor>
prm/pocket_docking_7.prm

>  <SCORE>
-9.95926

>  <SCORE.INTER>
-9.07369

>  <SCORE.INTER.CONST>
1

>  <SCORE.INTER.POLAR>
0

>  <SCORE.INTER.ROT>
3

>  <SCORE.INTER.SOLV>
15.4399

>  <SCORE.INTER.VDW>
-16.7958

>  <SCORE.INTER.norm>
-0.567105

>  <SCORE.INTRA>
-0.885568

>  <SCORE.INTRA.DIHEDRAL>
-1.19552

>  <SCORE.INTRA.DIHEDRAL.0>
2.05999

>  <SCORE.INTRA.POLAR>
0

>  <SCORE.INTRA.POLAR.0>
0

>  <SCORE.INTRA.REPUL>
0

>  <SCORE.INTRA.REPUL.0>
0

>  <SCORE.INTRA.SOLV>
-0.0749405

>  <SCORE.INTRA.SOLV.lig_0>
-58.7001

>  <SCORE.INTRA.VDW>
-0.250338

>  <SCORE.INTRA.VDW.0>
-0.401036

>  <SCORE.INTRA.norm>
-0.055348

>  <SCORE.RESTR>
0

>  <SCORE.RESTR.CAVITY>
0

>  <SCORE.RESTR.norm>
0

>  <SCORE.SYSTEM>
0

>  <SCORE.SYSTEM.CONST>
0

>  <SCORE.SYSTEM.DIHEDRAL>
0

>  <SCORE.SYSTEM.SOLV>
0

>  <SCORE.SYSTEM.norm>
0

>  <SCORE.heavy>
16

>  <SCORE.norm>
-0.622453

>  <RMSD>
5.967

$$$$
ligand
 OpenBabel11021811463D
libRbt.so/2013.1/901 2013/11/27
 16 16  0  0  0  0  0  0  0  0999 V2000
   46.8216   33.3152   55.4847 P   0  0  2  0  0  0  0  0  0  0  0  0
   46.5403   33.5389   56.9246 O   0  0  0  0  0  0  0  0  0  0  0  0
   45.5828   33.8648   54.6104 O   0  5  0  0  0  0  0  0  0  0  0  0
   47.0170   31.7292   55.2319 O   0  0  0  0  0  0  0  0  0  0  0  0
   50.6423   36.7698   52.9238 C   0  0  2  0  0  0  0  0  0  0  0  0
   50.9415   36.4854   51.5382 O   0  0  0  0  0  0  0  0  0  0  0  0
   51.8717   36.4755   53.8315 C   0  0  2  0  0  0  0  0  0  0  0  0
   53.0203   37.2846   53.3840 N   0  0  0  0  0  0  0  0  0  0  0  0
   52.2120   34.9723   53.7318 C   0  0  1  0  0  0  0  0  0  0  0  0
   53.3422   34.6691   54.5669 O   0  0  0  0  0  0  0  0  0  0  0  0
   50.9765   34.1825   54.2114 C   0  0  2  0  0  0  0  0  0  0  0  0
   51.2549   32.7746   54.1249 O   0  0  0  0  0  0  0  0  0  0  0  0
   49.7762   34.5428   53.2828 C   0  0  2  0  0  0  0  0  0  0  0  0
   49.4904   35.9719   53.3456 O   0  0  0  0  0  0  0  0  0  0  0  0
   48.5022   33.8011   53.7193 C   0  0  0  0  0  0  0  0  0  0  0  0
   48.1689   34.1199   55.0818 O   0  0  0  0  0  0  0  0  0  0  0  0
  1  2  1  1  0  0  0
  1  3  1  0  0  0  0
  1  4  2  0  0  0  0
  1 16  1  0  0  0  0
  5  6  1  6  0  0  0
  5  7  1  0  0  0  0
  5 14  1  0  0  0  0
  7  8  1  6  0  0  0
  7  9  1  0  0  0  0
  9 10  1  1  0  0  0
  9 11  1  0  0  0  0
 11 12  1  6  0  0  0
 11 13  1  0  0  0  0
 13 14  1  0  0  0  0
 13 15  1  1  0  0  0
 15 16  1  0  0  0  0
M  CHG  1   3  -1
M  END
>  <CHROM.1>
58.15510466,179.89303869,174.83065994,49.49061805,34.51905462,54.24564296
2.56811677,-0.03938872,2.54410746

>  <Name>
ligand

>  <RI>
0

>  <Rbt.Current_Directory>
/home/itssahil/PROJECTS/Mol_Feturizer/New_Systems/rnas/3B4A

>  <Rbt.Executable>
rbdock ($Id: //depot/dev/client3/rdock/2013.1/src/exe/rbdock.cxx#4 $)

>  <Rbt.Library>
libRbt.so (2013.1, Build901 2013/11/27)

>  <Rbt.Parameter_File>
/export/apps/rDock/src/rDock_2013.1_src/data/scripts/dock_solv.prm

>  <Rbt.Receptor>
prm/pocket_docking_3.prm

>  <SCORE>
-6.73387

>  <SCORE.INTER>
-5.25851

>  <SCORE.INTER.CONST>
1

>  <SCORE.INTER.POLAR>
0

>  <SCORE.INTER.ROT>
3

>  <SCORE.INTER.SOLV>
13.4816

>  <SCORE.INTER.VDW>
-13.5995

>  <SCORE.INTER.norm>
-0.328657

>  <SCORE.INTRA>
-1.47537

>  <SCORE.INTRA.DIHEDRAL>
-2.00222

>  <SCORE.INTRA.DIHEDRAL.0>
2.05999

>  <SCORE.INTRA.POLAR>
0

>  <SCORE.INTRA.POLAR.0>
0

>  <SCORE.INTRA.REPUL>
0

>  <SCORE.INTRA.REPUL.0>
0

>  <SCORE.INTRA.SOLV>
-0.20214

>  <SCORE.INTRA.SOLV.lig_0>
-58.7001

>  <SCORE.INTRA.VDW>
-0.373183

>  <SCORE.INTRA.VDW.0>
-0.401036

>  <SCORE.INTRA.norm>
-0.0922103

>  <SCORE.RESTR>
0

>  <SCORE.RESTR.CAVITY>
0

>  <SCORE.RESTR.norm>
0

>  <SCORE.SYSTEM>
0

>  <SCORE.SYSTEM.CONST>
0

>  <SCORE.SYSTEM.DIHEDRAL>
0

>  <SCORE.SYSTEM.SOLV>
0

>  <SCORE.SYSTEM.norm>
0

>  <SCORE.heavy>
16

>  <SCORE.norm>
-0.420867

>  <RMSD>
5.970

$$$$
ligand
 OpenBabel11021811463D
libRbt.so/2013.1/901 2013/11/27
 16 16  0  0  0  0  0  0  0  0999 V2000
   46.8236   33.3221   55.4735 P   0  0  2  0  0  0  0  0  0  0  0  0
   46.5487   33.5323   56.9167 O   0  0  0  0  0  0  0  0  0  0  0  0
   45.5679   33.8526   54.6115 O   0  5  0  0  0  0  0  0  0  0  0  0
   47.0477   31.7417   55.2102 O   0  0  0  0  0  0  0  0  0  0  0  0
   50.6535   36.7986   52.9355 C   0  0  2  0  0  0  0  0  0  0  0  0
   50.9538   36.5227   51.5484 O   0  0  0  0  0  0  0  0  0  0  0  0
   51.8785   36.4877   53.8437 C   0  0  2  0  0  0  0  0  0  0  0  0
   53.0344   37.2914   53.4051 N   0  0  0  0  0  0  0  0  0  0  0  0
   52.2076   34.9827   53.7329 C   0  0  1  0  0  0  0  0  0  0  0  0
   53.3334   34.6643   54.5681 O   0  0  0  0  0  0  0  0  0  0  0  0
   50.9649   34.1988   54.2035 C   0  0  2  0  0  0  0  0  0  0  0  0
   51.2327   32.7895   54.1066 O   0  0  0  0  0  0  0  0  0  0  0  0
   49.7696   34.5755   53.2751 C   0  0  2  0  0  0  0  0  0  0  0  0
   49.4946   36.0062   53.3485 O   0  0  0  0  0  0  0  0  0  0  0  0
   48.4889   33.8403   53.7028 C   0  0  0  0  0  0  0  0  0  0  0  0
   48.1520   34.1550   55.0655 O   0  0  0  0  0  0  0  0  0  0  0  0
  1  2  1  1  0  0  0
  1  3  1  0  0  0  0
  1  4  2  0  0  0  0
  1 16  1  0  0  0  0
  5  6  1  6  0  0  0
  5  7  1  0  0  0  0
  5 14  1  0  0  0  0
  7  8  1  6  0  0  0
  7  9  1  0  0  0  0
  9 10  1  1  0  0  0
  9 11  1  0  0  0  0
 11 12  1  6  0  0  0
 11 13  1  0  0  0  0
 13 14  1  0  0  0  0
 13 15  1  1  0  0  0
 15 16  1  0  0  0  0
M  CHG  1   3  -1
M  END
>  <CHROM.1>
58.37500002,-178.39110021,174.27578477,49.49021223,34.53466039,54.24193144
2.56792531,-0.03882091,2.54941503

>  <Name>
ligand

>  <RI>
0

>  <Rbt.Current_Directory>
/home/itssahil/PROJECTS/Mol_Feturizer/New_Systems/rnas/3B4A

>  <Rbt.Executable>
rbdock ($Id: //depot/dev/client3/rdock/2013.1/src/exe/rbdock.cxx#4 $)

>  <Rbt.Library>
libRbt.so (2013.1, Build901 2013/11/27)

>  <Rbt.Parameter_File>
/export/apps/rDock/src/rDock_2013.1_src/data/scripts/dock_solv.prm

>  <Rbt.Receptor>
prm/pocket_docking_4.prm

>  <SCORE>
-6.73389

>  <SCORE.INTER>
-5.26614

>  <SCORE.INTER.CONST>
1

>  <SCORE.INTER.POLAR>
0

>  <SCORE.INTER.ROT>
3

>  <SCORE.INTER.SOLV>
13.4325

>  <SCORE.INTER.VDW>
-13.5883

>  <SCORE.INTER.norm>
-0.329134

>  <SCORE.INTRA>
-1.46776

>  <SCORE.INTRA.DIHEDRAL>
-1.98242

>  <SCORE.INTRA.DIHEDRAL.0>
2.05999

>  <SCORE.INTRA.POLAR>
0

>  <SCORE.INTRA.POLAR.0>
0

>  <SCORE.INTRA.REPUL>
0

>  <SCORE.INTRA.REPUL.0>
0

>  <SCORE.INTRA.SOLV>
-0.202736

>  <SCORE.INTRA.SOLV.lig_0>
-58.7001

>  <SCORE.INTRA.VDW>
-0.37518

>  <SCORE.INTRA.VDW.0>
-0.401036

>  <SCORE.INTRA.norm>
-0.0917348

>  <SCORE.RESTR>
0

>  <SCORE.RESTR.CAVITY>
0

>  <SCORE.RESTR.norm>
0

>  <SCORE.SYSTEM>
0

>  <SCORE.SYSTEM.CONST>
0

>  <SCORE.SYSTEM.DIHEDRAL>
0

>  <SCORE.SYSTEM.SOLV>
0

>  <SCORE.SYSTEM.norm>
0

>  <SCORE.heavy>
16

>  <SCORE.norm>
-0.420868

>  <RMSD>
5.971

$$$$
ligand
 OpenBabel11021811463D
libRbt.so/2013.1/901 2013/11/27
 16 16  0  0  0  0  0  0  0  0999 V2000
   46.2385   34.0336   55.2077 P   0  0  2  0  0  0  0  0  0  0  0  0
   45.8255   34.4540   56.5698 O   0  0  0  0  0  0  0  0  0  0  0  0
   45.2064   34.6430   54.1286 O   0  5  0  0  0  0  0  0  0  0  0  0
   46.2258   32.4175   55.1346 O   0  0  0  0  0  0  0  0  0  0  0  0
   50.9788   36.5675   53.1349 C   0  0  2  0  0  0  0  0  0  0  0  0
   51.3221   36.2697   51.7624 O   0  0  0  0  0  0  0  0  0  0  0  0
   52.0132   35.9439   54.1163 C   0  0  2  0  0  0  0  0  0  0  0  0
   53.3596   36.4591   53.8067 N   0  0  0  0  0  0  0  0  0  0  0  0
   51.9842   34.4080   53.9559 C   0  0  1  0  0  0  0  0  0  0  0  0
   52.9271   33.8032   54.8568 O   0  0  0  0  0  0  0  0  0  0  0  0
   50.5556   33.9319   54.2918 C   0  0  2  0  0  0  0  0  0  0  0  0
   50.4889   32.5032   54.1454 O   0  0  0  0  0  0  0  0  0  0  0  0
   49.5673   34.6129   53.2957 C   0  0  2  0  0  0  0  0  0  0  0  0
   49.6342   36.0649   53.4192 O   0  0  0  0  0  0  0  0  0  0  0  0
   48.1172   34.1945   53.5885 C   0  0  0  0  0  0  0  0  0  0  0  0
   47.7279   34.5990   54.9129 O   0  0  0  0  0  0  0  0  0  0  0  0
  1  2  1  1  0  0  0
  1  3  1  0  0  0  0
  1  4  2  0  0  0  0
  1 16  1  0  0  0  0
  5  6  1  6  0  0  0
  5  7  1  0  0  0  0
  5 14  1  0  0  0  0
  7  8  1  6  0  0  0
  7  9  1  0  0  0  0
  9 10  1  1  0  0  0
  9 11  1  0  0  0  0
 11 12  1  6  0  0  0
 11 13  1  0  0  0  0
 13 14  1  0  0  0  0
 13 15  1  1  0  0  0
 15 16  1  0  0  0  0
M  CHG  1   3  -1
M  END
>  <CHROM.1>
61.24525765,-175.65572231,-179.64890344,49.20767206,34.60858781,54.23844463
2.81289140,-0.09814976,2.60186698

>  <Name>
ligand

>  <RI>
0

>  <Rbt.Current_Directory>
/home/itssahil/PROJECTS/Mol_Feturizer/New_Systems/rnas/3B4A

>  <Rbt.Executable>
rbdock ($Id: //depot/dev/client3/rdock/2013.1/src/exe/rbdock.cxx#4 $)

>  <Rbt.Library>
libRbt.so (2013.1, Build901 2013/11/27)

>  <Rbt.Parameter_File>
/export/apps/rDock/src/rDock_2013.1_src/data/scripts/dock_solv.prm

>  <Rbt.Receptor>
prm/pocket_docking_5.prm

>  <SCORE>
-6.48998

>  <SCORE.INTER>
-5.02605

>  <SCORE.INTER.CONST>
1

>  <SCORE.INTER.POLAR>
0

>  <SCORE.INTER.ROT>
3

>  <SCORE.INTER.SOLV>
10.5841

>  <SCORE.INTER.VDW>
-12.4787

>  <SCORE.INTER.norm>
-0.314128

>  <SCORE.INTRA>
-1.46393

>  <SCORE.INTRA.DIHEDRAL>
-1.95863

>  <SCORE.INTRA.DIHEDRAL.0>
2.05999

>  <SCORE.INTRA.POLAR>
0

>  <SCORE.INTRA.POLAR.0>
0

>  <SCORE.INTRA.REPUL>
0

>  <SCORE.INTRA.REPUL.0>
0

>  <SCORE.INTRA.SOLV>
-0.158701

>  <SCORE.INTRA.SOLV.lig_0>
-58.7001

>  <SCORE.INTRA.VDW>
-0.40527

>  <SCORE.INTRA.VDW.0>
-0.401036

>  <SCORE.INTRA.norm>
-0.0914958

>  <SCORE.RESTR>
0

>  <SCORE.RESTR.CAVITY>
0

>  <SCORE.RESTR.norm>
0

>  <SCORE.SYSTEM>
0

>  <SCORE.SYSTEM.CONST>
0

>  <SCORE.SYSTEM.DIHEDRAL>
0

>  <SCORE.SYSTEM.SOLV>
0

>  <SCORE.SYSTEM.norm>
0

>  <SCORE.heavy>
16

>  <SCORE.norm>
-0.405624

>  <RMSD>
5.976

$$$$
ligand
 OpenBabel11021811463D
libRbt.so/2013.1/901 2013/11/27
 16 16  0  0  0  0  0  0  0  0999 V2000
   46.8400   33.2983   55.4791 P   0  0  2  0  0  0  0  0  0  0  0  0
   46.5449   33.5044   56.9189 O   0  0  0  0  0  0  0  0  0  0  0  0
   45.6039   33.8467   54.6003 O   0  5  0  0  0  0  0  0  0  0  0  0
   47.0508   31.7167   55.2114 O   0  0  0  0  0  0  0  0  0  0  0  0
   50.6670   36.8159   53.0308 C   0  0  2  0  0  0  0  0  0  0  0  0
   50.9566   36.5823   51.6337 O   0  0  0  0  0  0  0  0  0  0  0  0
   51.9017   36.4858   53.9189 C   0  0  2  0  0  0  0  0  0  0  0  0
   53.0491   37.3087   53.4939 N   0  0  0  0  0  0  0  0  0  0  0  0
   52.2382   34.9866   53.7613 C   0  0  1  0  0  0  0  0  0  0  0  0
   53.3732   34.6506   54.5771 O   0  0  0  0  0  0  0  0  0  0  0  0
   51.0041   34.1821   54.2196 C   0  0  2  0  0  0  0  0  0  0  0  0
   51.2789   32.7778   54.0793 O   0  0  0  0  0  0  0  0  0  0  0  0
   49.7986   34.5788   53.3130 C   0  0  2  0  0  0  0  0  0  0  0  0
   49.5163   36.0051   53.4305 O   0  0  0  0  0  0  0  0  0  0  0  0
   48.5259   33.8239   53.7301 C   0  0  0  0  0  0  0  0  0  0  0  0
   48.1837   34.1183   55.0960 O   0  0  0  0  0  0  0  0  0  0  0  0
  1  2  1  1  0  0  0
  1  3  1  0  0  0  0
  1  4  2  0  0  0  0
  1 16  1  0  0  0  0
  5  6  1  6  0  0  0
  5  7  1  0  0  0  0
  5 14  1  0  0  0  0
  7  8  1  6  0  0  0
  7  9  1  0  0  0  0
  9 10  1  1  0  0  0
  9 11  1  0  0  0  0
 11 12  1  6  0  0  0
 11 13  1  0  0  0  0
 13 14  1  0  0  0  0
 13 15  1  1  0  0  0
 15 16  1  0  0  0  0
M  CHG  1   3  -1
M  END
>  <CHROM.1>
59.56384439,-179.99011741,175.22078313,49.51336641,34.52813539,54.27300014
2.57151910,-0.04767006,2.58238167

>  <Name>
ligand

>  <RI>
0

>  <Rbt.Current_Directory>
/home/itssahil/PROJECTS/Mol_Feturizer/New_Systems/rnas/3B4A

>  <Rbt.Executable>
rbdock ($Id: //depot/dev/client3/rdock/2013.1/src/exe/rbdock.cxx#4 $)

>  <Rbt.Library>
libRbt.so (2013.1, Build901 2013/11/27)

>  <Rbt.Parameter_File>
/export/apps/rDock/src/rDock_2013.1_src/data/scripts/dock_solv.prm

>  <Rbt.Receptor>
prm/pocket_docking_3.prm

>  <SCORE>
-6.71066

>  <SCORE.INTER>
-5.21814

>  <SCORE.INTER.CONST>
1

>  <SCORE.INTER.POLAR>
0

>  <SCORE.INTER.ROT>
3

>  <SCORE.INTER.SOLV>
13.6644

>  <SCORE.INTER.VDW>
-13.6336

>  <SCORE.INTER.norm>
-0.326134

>  <SCORE.INTRA>
-1.49252

>  <SCORE.INTRA.DIHEDRAL>
-2.01977

>  <SCORE.INTRA.DIHEDRAL.0>
2.05999

>  <SCORE.INTRA.POLAR>
0

>  <SCORE.INTRA.POLAR.0>
0

>  <SCORE.INTRA.REPUL>
0

>  <SCORE.INTRA.REPUL.0>
0

>  <SCORE.INTRA.SOLV>
-0.202805

>  <SCORE.INTRA.SOLV.lig_0>
-58.7001

>  <SCORE.INTRA.VDW>
-0.381232

>  <SCORE.INTRA.VDW.0>
-0.401036

>  <SCORE.INTRA.norm>
-0.0932825

>  <SCORE.RESTR>
0

>  <SCORE.RESTR.CAVITY>
0

>  <SCORE.RESTR.norm>
0

>  <SCORE.SYSTEM>
0

>  <SCORE.SYSTEM.CONST>
0

>  <SCORE.SYSTEM.DIHEDRAL>
0

>  <SCORE.SYSTEM.SOLV>
0

>  <SCORE.SYSTEM.norm>
0

>  <SCORE.heavy>
16

>  <SCORE.norm>
-0.419416

>  <RMSD>
5.977

$$$$
ligand
 OpenBabel11021811463D
libRbt.so/2013.1/901 2013/11/27
 16 16  0  0  0  0  0  0  0  0999 V2000
   43.3903   38.3988   52.7549 P   0  0  2  0  0  0  0  0  0  0  0  0
   41.9531   38.5042   52.4001 O   0  0  0  0  0  0  0  0  0  0  0  0
   43.6462   39.1480   54.1600 O   0  5  0  0  0  0  0  0  0  0  0  0
   44.2679   39.0956   51.5881 O   0  0  0  0  0  0  0  0  0  0  0  0
   47.2361   34.2479   52.7483 C   0  0  2  0  0  0  0  0  0  0  0  0
   46.3557   33.2094   52.2618 O   0  0  0  0  0  0  0  0  0  0  0  0
   47.9036   33.8294   54.0904 C   0  0  2  0  0  0  0  0  0  0  0  0
   48.6555   32.5757   53.8976 N   0  0  0  0  0  0  0  0  0  0  0  0
   46.7989   33.6265   55.1506 C   0  0  1  0  0  0  0  0  0  0  0  0
   47.3877   33.2450   56.4053 O   0  0  0  0  0  0  0  0  0  0  0  0
   46.0513   34.9671   55.3062 C   0  0  2  0  0  0  0  0  0  0  0  0
   45.0074   34.8135   56.2828 O   0  0  0  0  0  0  0  0  0  0  0  0
   45.4328   35.3442   53.9249 C   0  0  2  0  0  0  0  0  0  0  0  0
   46.4777   35.4879   52.9173 O   0  0  0  0  0  0  0  0  0  0  0  0
   44.6863   36.6858   54.0053 C   0  0  0  0  0  0  0  0  0  0  0  0
   43.7826   36.8331   52.8959 O   0  0  0  0  0  0  0  0  0  0  0  0
  1  2  1  6  0  0  0
  1  3  1  0  0  0  0
  1  4  2  0  0  0  0
  1 16  1  0  0  0  0
  5  6  1  1  0  0  0
  5  7  1  0  0  0  0
  5 14  1  0  0  0  0
  7  8  1  6  0  0  0
  7  9  1  0  0  0  0
  9 10  1  1  0  0  0
  9 11  1  0  0  0  0
 11 12  1  1  0  0  0
 11 13  1  0  0  0  0
 13 14  1  0  0  0  0
 13 15  1  1  0  0  0
 15 16  1  0  0  0  0
M  CHG  1   3  -1
M  END
>  <CHROM.1>
-161.93286704,-162.08454493,-140.99726521,45.35164441,35.87856632,53.70862804
-2.69445793,-0.84287187,1.80056201

>  <Name>
ligand

>  <RI>
0

>  <Rbt.Current_Directory>
/home/itssahil/PROJECTS/Mol_Feturizer/New_Systems/rnas/3B4A

>  <Rbt.Executable>
rbdock ($Id: //depot/dev/client3/rdock/2013.1/src/exe/rbdock.cxx#4 $)

>  <Rbt.Library>
libRbt.so (2013.1, Build901 2013/11/27)

>  <Rbt.Parameter_File>
/export/apps/rDock/src/rDock_2013.1_src/data/scripts/dock_solv.prm

>  <Rbt.Receptor>
prm/pocket_docking_5.prm

>  <SCORE>
-7.78997

>  <SCORE.INTER>
-9.32633

>  <SCORE.INTER.CONST>
1

>  <SCORE.INTER.POLAR>
0

>  <SCORE.INTER.ROT>
3

>  <SCORE.INTER.SOLV>
15.6389

>  <SCORE.INTER.VDW>
-17.0305

>  <SCORE.INTER.norm>
-0.582896

>  <SCORE.INTRA>
1.53168

>  <SCORE.INTRA.DIHEDRAL>
2.25792

>  <SCORE.INTRA.DIHEDRAL.0>
2.05999

>  <SCORE.INTRA.POLAR>
0

>  <SCORE.INTRA.POLAR.0>
0

>  <SCORE.INTRA.REPUL>
0

>  <SCORE.INTRA.REPUL.0>
0

>  <SCORE.INTRA.SOLV>
-0.37983

>  <SCORE.INTRA.SOLV.lig_0>
-58.7001

>  <SCORE.INTRA.VDW>
0.592637

>  <SCORE.INTRA.VDW.0>
-0.401036

>  <SCORE.INTRA.norm>
0.09573

>  <SCORE.RESTR>
0.00468762

>  <SCORE.RESTR.CAVITY>
0.00468762

>  <SCORE.RESTR.norm>
0.000292976

>  <SCORE.SYSTEM>
0

>  <SCORE.SYSTEM.CONST>
0

>  <SCORE.SYSTEM.DIHEDRAL>
0

>  <SCORE.SYSTEM.SOLV>
0

>  <SCORE.SYSTEM.norm>
0

>  <SCORE.heavy>
16

>  <SCORE.norm>
-0.486873

>  <RMSD>
5.982

$$$$
ligand
 OpenBabel11021811463D
libRbt.so/2013.1/901 2013/11/27
 16 16  0  0  0  0  0  0  0  0999 V2000
   46.2639   34.0239   55.2128 P   0  0  2  0  0  0  0  0  0  0  0  0
   45.8359   34.4429   56.5707 O   0  0  0  0  0  0  0  0  0  0  0  0
   45.2398   34.6286   54.1235 O   0  5  0  0  0  0  0  0  0  0  0  0
   46.2587   32.4077   55.1400 O   0  0  0  0  0  0  0  0  0  0  0  0
   51.0075   36.5997   53.2214 C   0  0  2  0  0  0  0  0  0  0  0  0
   51.3476   36.3474   51.8391 O   0  0  0  0  0  0  0  0  0  0  0  0
   52.0450   35.9452   54.1792 C   0  0  2  0  0  0  0  0  0  0  0  0
   53.3902   36.4716   53.8834 N   0  0  0  0  0  0  0  0  0  0  0  0
   52.0170   34.4154   53.9686 C   0  0  1  0  0  0  0  0  0  0  0  0
   52.9627   33.7822   54.8468 O   0  0  0  0  0  0  0  0  0  0  0  0
   50.5897   33.9271   54.2923 C   0  0  2  0  0  0  0  0  0  0  0  0
   50.5239   32.5039   54.0992 O   0  0  0  0  0  0  0  0  0  0  0  0
   49.5982   34.6394   53.3216 C   0  0  2  0  0  0  0  0  0  0  0  0
   49.6641   36.0866   53.4925 O   0  0  0  0  0  0  0  0  0  0  0  0
   48.1492   34.2101   53.6041 C   0  0  0  0  0  0  0  0  0  0  0  0
   47.7537   34.5955   54.9324 O   0  0  0  0  0  0  0  0  0  0  0  0
  1  2  1  1  0  0  0
  1  3  1  0  0  0  0
  1  4  2  0  0  0  0
  1 16  1  0  0  0  0
  5  6  1  6  0  0  0
  5  7  1  0  0  0  0
  5 14  1  0  0  0  0
  7  8  1  6  0  0  0
  7  9  1  0  0  0  0
  9 10  1  1  0  0  0
  9 11  1  0  0  0  0
 11 12  1  6  0  0  0
 11 13  1  0  0  0  0
 13 14  1  0  0  0  0
 13 15  1  1  0  0  0
 15 16  1  0  0  0  0
M  CHG  1   3  -1
M  END
>  <CHROM.1>
62.45147318,-175.87030796,-178.75656565,49.23694294,34.61474028,54.26118284
2.81700370,-0.10142178,2.63633892

>  <Name>
ligand

>  <RI>
0

>  <Rbt.Current_Directory>
/home/itssahil/PROJECTS/Mol_Feturizer/New_Systems/rnas/3B4A

>  <Rbt.Executable>
rbdock ($Id: //depot/dev/client3/rdock/2013.1/src/exe/rbdock.cxx#4 $)

>  <Rbt.Library>
libRbt.so (2013.1, Build901 2013/11/27)

>  <Rbt.Parameter_File>
/export/apps/rDock/src/rDock_2013.1_src/data/scripts/dock_solv.prm

>  <Rbt.Receptor>
prm/pocket_docking_3.prm

>  <SCORE>
-6.44576

>  <SCORE.INTER>
-4.98285

>  <SCORE.INTER.CONST>
1

>  <SCORE.INTER.POLAR>
0

>  <SCORE.INTER.ROT>
3

>  <SCORE.INTER.SOLV>
10.7199

>  <SCORE.INTER.VDW>
-12.4952

>  <SCORE.INTER.norm>
-0.311428

>  <SCORE.INTRA>
-1.46291

>  <SCORE.INTRA.DIHEDRAL>
-1.94871

>  <SCORE.INTRA.DIHEDRAL.0>
2.05999

>  <SCORE.INTRA.POLAR>
0

>  <SCORE.INTRA.POLAR.0>
0

>  <SCORE.INTRA.REPUL>
0

>  <SCORE.INTRA.REPUL.0>
0

>  <SCORE.INTRA.SOLV>
-0.168549

>  <SCORE.INTRA.SOLV.lig_0>
-58.7001

>  <SCORE.INTRA.VDW>
-0.404279

>  <SCORE.INTRA.VDW.0>
-0.401036

>  <SCORE.INTRA.norm>
-0.0914317

>  <SCORE.RESTR>
0

>  <SCORE.RESTR.CAVITY>
0

>  <SCORE.RESTR.norm>
0

>  <SCORE.SYSTEM>
0

>  <SCORE.SYSTEM.CONST>
0

>  <SCORE.SYSTEM.DIHEDRAL>
0

>  <SCORE.SYSTEM.SOLV>
0

>  <SCORE.SYSTEM.norm>
0

>  <SCORE.heavy>
16

>  <SCORE.norm>
-0.40286

>  <RMSD>
5.984

$$$$
ligand
 OpenBabel11021811463D
libRbt.so/2013.1/901 2013/11/27
 16 16  0  0  0  0  0  0  0  0999 V2000
   43.4020   38.4687   52.7103 P   0  0  2  0  0  0  0  0  0  0  0  0
   41.9592   38.6005   52.3884 O   0  0  0  0  0  0  0  0  0  0  0  0
   43.7147   39.2611   54.0797 O   0  5  0  0  0  0  0  0  0  0  0  0
   44.2666   39.0984   51.4965 O   0  0  0  0  0  0  0  0  0  0  0  0
   46.9315   34.0377   53.2552 C   0  0  2  0  0  0  0  0  0  0  0  0
   46.0136   33.0330   52.7671 O   0  0  0  0  0  0  0  0  0  0  0  0
   47.4562   33.6714   54.6738 C   0  0  2  0  0  0  0  0  0  0  0  0
   48.1206   32.3558   54.6296 N   0  0  0  0  0  0  0  0  0  0  0  0
   46.2589   33.6274   55.6484 C   0  0  1  0  0  0  0  0  0  0  0  0
   46.7152   33.2972   56.9710 O   0  0  0  0  0  0  0  0  0  0  0  0
   45.6086   35.0265   55.6502 C   0  0  2  0  0  0  0  0  0  0  0  0
   44.4821   35.0210   56.5436 O   0  0  0  0  0  0  0  0  0  0  0  0
   45.1323   35.3453   54.1996 C   0  0  2  0  0  0  0  0  0  0  0  0
   46.2615   35.3385   53.2762 O   0  0  0  0  0  0  0  0  0  0  0  0
   44.4891   36.7397   54.1267 C   0  0  0  0  0  0  0  0  0  0  0  0
   43.7565   36.8991   52.8990 O   0  0  0  0  0  0  0  0  0  0  0  0
  1  2  1  6  0  0  0
  1  3  1  0  0  0  0
  1  4  2  0  0  0  0
  1 16  1  0  0  0  0
  5  6  1  1  0  0  0
  5  7  1  0  0  0  0
  5 14  1  0  0  0  0
  7  8  1  6  0  0  0
  7  9  1  0  0  0  0
  9 10  1  1  0  0  0
  9 11  1  0  0  0  0
 11 12  1  1  0  0  0
 11 13  1  0  0  0  0
 13 14  1  0  0  0  0
 13 15  1  1  0  0  0
 15 16  1  0  0  0  0
M  CHG  1   3  -1
M  END
>  <CHROM.1>
-165.42494906,-166.78401821,-130.87943010,45.09883433,35.87555563,53.96038396
-2.55652979,-0.89716581,1.84196877

>  <Name>
ligand

>  <RI>
0

>  <Rbt.Current_Directory>
/home/itssahil/PROJECTS/Mol_Feturizer/New_Systems/rnas/3B4A

>  <Rbt.Executable>
rbdock ($Id: //depot/dev/client3/rdock/2013.1/src/exe/rbdock.cxx#4 $)

>  <Rbt.Library>
libRbt.so (2013.1, Build901 2013/11/27)

>  <Rbt.Parameter_File>
/export/apps/rDock/src/rDock_2013.1_src/data/scripts/dock_solv.prm

>  <Rbt.Receptor>
prm/pocket_docking_5.prm

>  <SCORE>
-8.79743

>  <SCORE.INTER>
-10.4035

>  <SCORE.INTER.CONST>
1

>  <SCORE.INTER.POLAR>
0

>  <SCORE.INTER.ROT>
3

>  <SCORE.INTER.SOLV>
17.8136

>  <SCORE.INTER.VDW>
-18.4735

>  <SCORE.INTER.norm>
-0.650217

>  <SCORE.INTRA>
1.55551

>  <SCORE.INTRA.DIHEDRAL>
1.71608

>  <SCORE.INTRA.DIHEDRAL.0>
2.05999

>  <SCORE.INTRA.POLAR>
0

>  <SCORE.INTRA.POLAR.0>
0

>  <SCORE.INTRA.REPUL>
0

>  <SCORE.INTRA.REPUL.0>
0

>  <SCORE.INTRA.SOLV>
-0.481929

>  <SCORE.INTRA.SOLV.lig_0>
-58.7001

>  <SCORE.INTRA.VDW>
0.938436

>  <SCORE.INTRA.VDW.0>
-0.401036

>  <SCORE.INTRA.norm>
0.0972195

>  <SCORE.RESTR>
0.0505271

>  <SCORE.RESTR.CAVITY>
0.0505271

>  <SCORE.RESTR.norm>
0.00315795

>  <SCORE.SYSTEM>
0

>  <SCORE.SYSTEM.CONST>
0

>  <SCORE.SYSTEM.DIHEDRAL>
0

>  <SCORE.SYSTEM.SOLV>
0

>  <SCORE.SYSTEM.norm>
0

>  <SCORE.heavy>
16

>  <SCORE.norm>
-0.549839

>  <RMSD>
5.995

$$$$
ligand
 OpenBabel11021811463D
libRbt.so/2013.1/901 2013/11/27
 16 16  0  0  0  0  0  0  0  0999 V2000
   46.4529   33.8499   55.2475 P   0  0  2  0  0  0  0  0  0  0  0  0
   46.0971   34.1482   56.6571 O   0  0  0  0  0  0  0  0  0  0  0  0
   45.4002   34.5809   54.2684 O   0  5  0  0  0  0  0  0  0  0  0  0
   46.3975   32.2486   55.0234 O   0  0  0  0  0  0  0  0  0  0  0  0
   51.0881   36.5277   53.1518 C   0  0  2  0  0  0  0  0  0  0  0  0
   51.4001   36.2845   51.7613 O   0  0  0  0  0  0  0  0  0  0  0  0
   52.1665   35.9016   54.0830 C   0  0  2  0  0  0  0  0  0  0  0  0
   53.4892   36.4641   53.7539 N   0  0  0  0  0  0  0  0  0  0  0  0
   52.1745   34.3716   53.8723 C   0  0  1  0  0  0  0  0  0  0  0  0
   53.1587   33.7643   54.7262 O   0  0  0  0  0  0  0  0  0  0  0  0
   50.7695   33.8450   54.2313 C   0  0  2  0  0  0  0  0  0  0  0  0
   50.7373   32.4205   54.0392 O   0  0  0  0  0  0  0  0  0  0  0  0
   49.7351   34.5302   53.2861 C   0  0  2  0  0  0  0  0  0  0  0  0
   49.7662   35.9786   53.4562 O   0  0  0  0  0  0  0  0  0  0  0  0
   48.3058   34.0620   53.6046 C   0  0  0  0  0  0  0  0  0  0  0  0
   47.9450   34.4084   54.9533 O   0  0  0  0  0  0  0  0  0  0  0  0
  1  2  1  1  0  0  0
  1  3  1  0  0  0  0
  1  4  2  0  0  0  0
  1 16  1  0  0  0  0
  5  6  1  6  0  0  0
  5  7  1  0  0  0  0
  5 14  1  0  0  0  0
  7  8  1  6  0  0  0
  7  9  1  0  0  0  0
  9 10  1  1  0  0  0
  9 11  1  0  0  0  0
 11 12  1  6  0  0  0
 11 13  1  0  0  0  0
 13 14  1  0  0  0  0
 13 15  1  1  0  0  0
 15 16  1  0  0  0  0
M  CHG  1   3  -1
M  END
>  <CHROM.1>
61.06950191,-178.17644448,177.41794875,49.39281092,34.50560467,54.22966577
2.78800160,-0.11227476,2.63832154

>  <Name>
ligand

>  <RI>
0

>  <Rbt.Current_Directory>
/home/itssahil/PROJECTS/Mol_Feturizer/New_Systems/rnas/3B4A

>  <Rbt.Executable>
rbdock ($Id: //depot/dev/client3/rdock/2013.1/src/exe/rbdock.cxx#4 $)

>  <Rbt.Library>
libRbt.so (2013.1, Build901 2013/11/27)

>  <Rbt.Parameter_File>
/export/apps/rDock/src/rDock_2013.1_src/data/scripts/dock_solv.prm

>  <Rbt.Receptor>
prm/pocket_docking_4.prm

>  <SCORE>
-6.47346

>  <SCORE.INTER>
-4.96203

>  <SCORE.INTER.CONST>
1

>  <SCORE.INTER.POLAR>
0

>  <SCORE.INTER.ROT>
3

>  <SCORE.INTER.SOLV>
10.6955

>  <SCORE.INTER.VDW>
-12.4732

>  <SCORE.INTER.norm>
-0.310127

>  <SCORE.INTRA>
-1.51142

>  <SCORE.INTRA.DIHEDRAL>
-2.02583

>  <SCORE.INTRA.DIHEDRAL.0>
2.05999

>  <SCORE.INTRA.POLAR>
0

>  <SCORE.INTRA.POLAR.0>
0

>  <SCORE.INTRA.REPUL>
0

>  <SCORE.INTRA.REPUL.0>
0

>  <SCORE.INTRA.SOLV>
-0.201893

>  <SCORE.INTRA.SOLV.lig_0>
-58.7001

>  <SCORE.INTRA.VDW>
-0.39756

>  <SCORE.INTRA.VDW.0>
-0.401036

>  <SCORE.INTRA.norm>
-0.0944639

>  <SCORE.RESTR>
0

>  <SCORE.RESTR.CAVITY>
0

>  <SCORE.RESTR.norm>
0

>  <SCORE.SYSTEM>
0

>  <SCORE.SYSTEM.CONST>
0

>  <SCORE.SYSTEM.DIHEDRAL>
0

>  <SCORE.SYSTEM.SOLV>
0

>  <SCORE.SYSTEM.norm>
0

>  <SCORE.heavy>
16

>  <SCORE.norm>
-0.404591

>  <RMSD>
5.996

$$$$
ligand
 OpenBabel11021811463D
libRbt.so/2013.1/901 2013/11/27
 16 16  0  0  0  0  0  0  0  0999 V2000
   43.0032   38.8212   52.4971 P   0  0  2  0  0  0  0  0  0  0  0  0
   41.5567   38.6788   52.1975 O   0  0  0  0  0  0  0  0  0  0  0  0
   43.2062   39.9891   53.5907 O   0  5  0  0  0  0  0  0  0  0  0  0
   43.7836   39.2000   51.1315 O   0  0  0  0  0  0  0  0  0  0  0  0
   44.9300   34.2582   55.3706 C   0  0  2  0  0  0  0  0  0  0  0  0
   45.8903   34.5094   56.4218 O   0  0  0  0  0  0  0  0  0  0  0  0
   45.5846   33.4818   54.1913 C   0  0  2  0  0  0  0  0  0  0  0  0
   46.1395   32.2086   54.6865 N   0  0  0  0  0  0  0  0  0  0  0  0
   46.7103   34.3517   53.5901 C   0  0  1  0  0  0  0  0  0  0  0  0
   47.3300   33.6613   52.4920 O   0  0  0  0  0  0  0  0  0  0  0  0
   46.0691   35.6637   53.0922 C   0  0  2  0  0  0  0  0  0  0  0  0
   47.0917   36.5043   52.5312 O   0  0  0  0  0  0  0  0  0  0  0  0
   45.4072   36.3769   54.3112 C   0  0  2  0  0  0  0  0  0  0  0  0
   44.3775   35.5302   54.9034 O   0  0  0  0  0  0  0  0  0  0  0  0
   44.7301   37.6878   53.8793 C   0  0  0  0  0  0  0  0  0  0  0  0
   43.5566   37.4194   53.0917 O   0  0  0  0  0  0  0  0  0  0  0  0
  1  2  1  6  0  0  0
  1  3  1  0  0  0  0
  1  4  2  0  0  0  0
  1 16  1  0  0  0  0
  5  6  1  1  0  0  0
  5  7  1  0  0  0  0
  5 14  1  0  0  0  0
  7  8  1  1  0  0  0
  7  9  1  0  0  0  0
  9 10  1  6  0  0  0
  9 11  1  0  0  0  0
 11 12  1  1  0  0  0
 11 13  1  0  0  0  0
 13 14  1  0  0  0  0
 13 15  1  6  0  0  0
 15 16  1  0  0  0  0
M  CHG  1   3  -1
M  END
>  <CHROM.1>
70.36076823,-172.32088014,-156.16859071,44.79054728,36.40238492,53.51750446
2.29301256,0.69683966,-0.86456440

>  <Name>
ligand

>  <RI>
0

>  <Rbt.Current_Directory>
/home/itssahil/PROJECTS/Mol_Feturizer/New_Systems/rnas/3B4A

>  <Rbt.Executable>
rbdock ($Id: //depot/dev/client3/rdock/2013.1/src/exe/rbdock.cxx#4 $)

>  <Rbt.Library>
libRbt.so (2013.1, Build901 2013/11/27)

>  <Rbt.Parameter_File>
/export/apps/rDock/src/rDock_2013.1_src/data/scripts/dock_solv.prm

>  <Rbt.Receptor>
prm/pocket_docking_7.prm

>  <SCORE>
-9.8997

>  <SCORE.INTER>
-9.52427

>  <SCORE.INTER.CONST>
1

>  <SCORE.INTER.POLAR>
0

>  <SCORE.INTER.ROT>
3

>  <SCORE.INTER.SOLV>
15.6957

>  <SCORE.INTER.VDW>
-17.1814

>  <SCORE.INTER.norm>
-0.595267

>  <SCORE.INTRA>
-0.375427

>  <SCORE.INTRA.DIHEDRAL>
-0.569393

>  <SCORE.INTRA.DIHEDRAL.0>
2.05999

>  <SCORE.INTRA.POLAR>
0

>  <SCORE.INTRA.POLAR.0>
0

>  <SCORE.INTRA.REPUL>
0

>  <SCORE.INTRA.REPUL.0>
0

>  <SCORE.INTRA.SOLV>
-0.190951

>  <SCORE.INTRA.SOLV.lig_0>
-58.7001

>  <SCORE.INTRA.VDW>
0.00474519

>  <SCORE.INTRA.VDW.0>
-0.401036

>  <SCORE.INTRA.norm>
-0.0234642

>  <SCORE.RESTR>
0

>  <SCORE.RESTR.CAVITY>
0

>  <SCORE.RESTR.norm>
0

>  <SCORE.SYSTEM>
0

>  <SCORE.SYSTEM.CONST>
0

>  <SCORE.SYSTEM.DIHEDRAL>
0

>  <SCORE.SYSTEM.SOLV>
0

>  <SCORE.SYSTEM.norm>
0

>  <SCORE.heavy>
16

>  <SCORE.norm>
-0.618731

>  <RMSD>
6.000

$$$$
ligand
 OpenBabel11021811463D
libRbt.so/2013.1/901 2013/11/27
 16 16  0  0  0  0  0  0  0  0999 V2000
   45.9431   33.8134   55.1638 P   0  0  2  0  0  0  0  0  0  0  0  0
   44.7363   32.9857   54.9167 O   0  0  0  0  0  0  0  0  0  0  0  0
   47.1582   33.2640   54.2567 O   0  5  0  0  0  0  0  0  0  0  0  0
   46.3326   33.7126   56.7308 O   0  0  0  0  0  0  0  0  0  0  0  0
   43.2999   38.6102   53.3648 C   0  0  2  0  0  0  0  0  0  0  0  0
   42.8894   38.6377   51.9788 O   0  0  0  0  0  0  0  0  0  0  0  0
   44.4594   39.6156   53.6229 C   0  0  2  0  0  0  0  0  0  0  0  0
   44.0264   40.9746   53.2488 N   0  0  0  0  0  0  0  0  0  0  0  0
   45.6779   39.1952   52.7720 C   0  0  1  0  0  0  0  0  0  0  0  0
   46.7690   40.1041   52.9954 O   0  0  0  0  0  0  0  0  0  0  0  0
   46.0813   37.7714   53.2084 C   0  0  2  0  0  0  0  0  0  0  0  0
   47.2113   37.3427   52.4297 O   0  0  0  0  0  0  0  0  0  0  0  0
   44.8711   36.8212   52.9528 C   0  0  2  0  0  0  0  0  0  0  0  0
   43.7096   37.2518   53.7231 O   0  0  0  0  0  0  0  0  0  0  0  0
   45.2008   35.3834   53.3858 C   0  0  0  0  0  0  0  0  0  0  0  0
   45.6178   35.3489   54.7621 O   0  0  0  0  0  0  0  0  0  0  0  0
  1  2  1  6  0  0  0
  1  3  1  0  0  0  0
  1  4  2  0  0  0  0
  1 16  1  0  0  0  0
  5  6  1  6  0  0  0
  5  7  1  0  0  0  0
  5 14  1  0  0  0  0
  7  8  1  6  0  0  0
  7  9  1  0  0  0  0
  9 10  1  1  0  0  0
  9 11  1  0  0  0  0
 11 12  1  6  0  0  0
 11 13  1  0  0  0  0
 13 14  1  0  0  0  0
 13 15  1  1  0  0  0
 15 16  1  0  0  0  0
M  CHG  1   3  -1
M  END
>  <CHROM.1>
55.59214975,179.70046649,-57.28541027,45.32222927,36.63492770,53.84330389
1.35855141,-0.02270035,2.76893700

>  <Name>
ligand

>  <RI>
0

>  <Rbt.Current_Directory>
/home/itssahil/PROJECTS/Mol_Feturizer/New_Systems/rnas/3B4A

>  <Rbt.Executable>
rbdock ($Id: //depot/dev/client3/rdock/2013.1/src/exe/rbdock.cxx#4 $)

>  <Rbt.Library>
libRbt.so (2013.1, Build901 2013/11/27)

>  <Rbt.Parameter_File>
/export/apps/rDock/src/rDock_2013.1_src/data/scripts/dock_solv.prm

>  <Rbt.Receptor>
prm/pocket_docking_7.prm

>  <SCORE>
-7.0221

>  <SCORE.INTER>
-5.43348

>  <SCORE.INTER.CONST>
1

>  <SCORE.INTER.POLAR>
0

>  <SCORE.INTER.ROT>
3

>  <SCORE.INTER.SOLV>
13.9298

>  <SCORE.INTER.VDW>
-13.8656

>  <SCORE.INTER.norm>
-0.339592

>  <SCORE.INTRA>
-1.58863

>  <SCORE.INTRA.DIHEDRAL>
-1.97627

>  <SCORE.INTRA.DIHEDRAL.0>
2.05999

>  <SCORE.INTRA.POLAR>
0

>  <SCORE.INTRA.POLAR.0>
0

>  <SCORE.INTRA.REPUL>
0

>  <SCORE.INTRA.REPUL.0>
0

>  <SCORE.INTRA.SOLV>
-0.871697

>  <SCORE.INTRA.SOLV.lig_0>
-58.7001

>  <SCORE.INTRA.VDW>
-0.164642

>  <SCORE.INTRA.VDW.0>
-0.401036

>  <SCORE.INTRA.norm>
-0.0992893

>  <SCORE.RESTR>
0

>  <SCORE.RESTR.CAVITY>
0

>  <SCORE.RESTR.norm>
0

>  <SCORE.SYSTEM>
0

>  <SCORE.SYSTEM.CONST>
0

>  <SCORE.SYSTEM.DIHEDRAL>
0

>  <SCORE.SYSTEM.SOLV>
0

>  <SCORE.SYSTEM.norm>
0

>  <SCORE.heavy>
16

>  <SCORE.norm>
-0.438881

>  <RMSD>
6.047

$$$$
ligand
 OpenBabel11021811463D
libRbt.so/2013.1/901 2013/11/27
 16 16  0  0  0  0  0  0  0  0999 V2000
   43.5838   38.9606   52.6372 P   0  0  2  0  0  0  0  0  0  0  0  0
   43.7397   39.7281   53.8978 O   0  0  0  0  0  0  0  0  0  0  0  0
   43.9668   39.9072   51.3888 O   0  5  0  0  0  0  0  0  0  0  0  0
   42.0466   38.4725   52.5107 O   0  0  0  0  0  0  0  0  0  0  0  0
   47.4709   34.9019   53.4215 C   0  0  2  0  0  0  0  0  0  0  0  0
   46.9125   33.8886   52.5544 O   0  0  0  0  0  0  0  0  0  0  0  0
   47.6745   34.3518   54.8630 C   0  0  2  0  0  0  0  0  0  0  0  0
   48.5617   33.1748   54.8211 N   0  0  0  0  0  0  0  0  0  0  0  0
   46.2978   33.9568   55.4411 C   0  0  1  0  0  0  0  0  0  0  0  0
   46.4543   33.4502   56.7774 O   0  0  0  0  0  0  0  0  0  0  0  0
   45.4192   35.2249   55.4587 C   0  0  2  0  0  0  0  0  0  0  0  0
   44.1233   34.8926   55.9854 O   0  0  0  0  0  0  0  0  0  0  0  0
   45.2786   35.7417   53.9938 C   0  0  2  0  0  0  0  0  0  0  0  0
   46.5871   36.0681   53.4376 O   0  0  0  0  0  0  0  0  0  0  0  0
   44.4267   37.0204   53.9419 C   0  0  0  0  0  0  0  0  0  0  0  0
   44.5792   37.6828   52.6741 O   0  0  0  0  0  0  0  0  0  0  0  0
  1  2  1  1  0  0  0
  1  3  1  0  0  0  0
  1  4  2  0  0  0  0
  1 16  1  0  0  0  0
  5  6  1  6  0  0  0
  5  7  1  0  0  0  0
  5 14  1  0  0  0  0
  7  8  1  6  0  0  0
  7  9  1  0  0  0  0
  9 10  1  1  0  0  0
  9 11  1  0  0  0  0
 11 12  1  6  0  0  0
 11 13  1  0  0  0  0
 13 14  1  0  0  0  0
 13 15  1  1  0  0  0
 15 16  1  0  0  0  0
M  CHG  1   3  -1
M  END
>  <CHROM.1>
165.13255427,176.07962251,47.80477874,45.25982651,36.34937225,53.86303345
-2.28111981,-0.63048767,2.23008763

>  <Name>
ligand

>  <RI>
0

>  <Rbt.Current_Directory>
/home/itssahil/PROJECTS/Mol_Feturizer/New_Systems/rnas/3B4A

>  <Rbt.Executable>
rbdock ($Id: //depot/dev/client3/rdock/2013.1/src/exe/rbdock.cxx#4 $)

>  <Rbt.Library>
libRbt.so (2013.1, Build901 2013/11/27)

>  <Rbt.Parameter_File>
/export/apps/rDock/src/rDock_2013.1_src/data/scripts/dock_solv.prm

>  <Rbt.Receptor>
prm/pocket_docking_7.prm

>  <SCORE>
-9.22383

>  <SCORE.INTER>
-8.40206

>  <SCORE.INTER.CONST>
1

>  <SCORE.INTER.POLAR>
0

>  <SCORE.INTER.ROT>
3

>  <SCORE.INTER.SOLV>
20.1042

>  <SCORE.INTER.VDW>
-17.9028

>  <SCORE.INTER.norm>
-0.525129

>  <SCORE.INTRA>
-0.82177

>  <SCORE.INTRA.DIHEDRAL>
-0.990199

>  <SCORE.INTRA.DIHEDRAL.0>
2.05999

>  <SCORE.INTRA.POLAR>
0

>  <SCORE.INTRA.POLAR.0>
0

>  <SCORE.INTRA.REPUL>
0

>  <SCORE.INTRA.REPUL.0>
0

>  <SCORE.INTRA.SOLV>
-1.1319

>  <SCORE.INTRA.SOLV.lig_0>
-58.7001

>  <SCORE.INTRA.VDW>
0.23928

>  <SCORE.INTRA.VDW.0>
-0.401036

>  <SCORE.INTRA.norm>
-0.0513606

>  <SCORE.RESTR>
0

>  <SCORE.RESTR.CAVITY>
0

>  <SCORE.RESTR.norm>
0

>  <SCORE.SYSTEM>
0

>  <SCORE.SYSTEM.CONST>
0

>  <SCORE.SYSTEM.DIHEDRAL>
0

>  <SCORE.SYSTEM.SOLV>
0

>  <SCORE.SYSTEM.norm>
0

>  <SCORE.heavy>
16

>  <SCORE.norm>
-0.576489

>  <RMSD>
6.076

$$$$
ligand
 OpenBabel11021811463D
libRbt.so/2013.1/901 2013/11/27
 16 16  0  0  0  0  0  0  0  0999 V2000
   43.5926   39.0392   52.6124 P   0  0  2  0  0  0  0  0  0  0  0  0
   43.7247   39.7785   53.8925 O   0  0  0  0  0  0  0  0  0  0  0  0
   43.9615   40.0245   51.3901 O   0  5  0  0  0  0  0  0  0  0  0  0
   42.0671   38.5210   52.4648 O   0  0  0  0  0  0  0  0  0  0  0  0
   47.5602   35.0181   53.3786 C   0  0  2  0  0  0  0  0  0  0  0  0
   47.0447   34.0579   52.4285 O   0  0  0  0  0  0  0  0  0  0  0  0
   47.6997   34.3835   54.7928 C   0  0  2  0  0  0  0  0  0  0  0  0
   48.5912   33.2112   54.7216 N   0  0  0  0  0  0  0  0  0  0  0  0
   46.2993   33.9546   55.2832 C   0  0  1  0  0  0  0  0  0  0  0  0
   46.3964   33.3698   56.5928 O   0  0  0  0  0  0  0  0  0  0  0  0
   45.4172   35.2193   55.3358 C   0  0  2  0  0  0  0  0  0  0  0  0
   44.0996   34.8561   55.7824 O   0  0  0  0  0  0  0  0  0  0  0  0
   45.3418   35.8220   53.8993 C   0  0  2  0  0  0  0  0  0  0  0  0
   46.6731   36.1811   53.4235 O   0  0  0  0  0  0  0  0  0  0  0  0
   44.4894   37.1014   53.8844 C   0  0  0  0  0  0  0  0  0  0  0  0
   44.6155   37.7828   52.6238 O   0  0  0  0  0  0  0  0  0  0  0  0
  1  2  1  1  0  0  0
  1  3  1  0  0  0  0
  1  4  2  0  0  0  0
  1 16  1  0  0  0  0
  5  6  1  6  0  0  0
  5  7  1  0  0  0  0
  5 14  1  0  0  0  0
  7  8  1  6  0  0  0
  7  9  1  0  0  0  0
  9 10  1  1  0  0  0
  9 11  1  0  0  0  0
 11 12  1  6  0  0  0
 11 13  1  0  0  0  0
 13 14  1  0  0  0  0
 13 15  1  1  0  0  0
 15 16  1  0  0  0  0
M  CHG  1   3  -1
M  END
>  <CHROM.1>
169.71007486,174.66135698,46.69810609,45.28616408,36.40749717,53.78619171
-2.26020645,-0.59025021,2.29003989

>  <Name>
ligand

>  <RI>
0

>  <Rbt.Current_Directory>
/home/itssahil/PROJECTS/Mol_Feturizer/New_Systems/rnas/3B4A

>  <Rbt.Executable>
rbdock ($Id: //depot/dev/client3/rdock/2013.1/src/exe/rbdock.cxx#4 $)

>  <Rbt.Library>
libRbt.so (2013.1, Build901 2013/11/27)

>  <Rbt.Parameter_File>
/export/apps/rDock/src/rDock_2013.1_src/data/scripts/dock_solv.prm

>  <Rbt.Receptor>
prm/pocket_docking_6.prm

>  <SCORE>
-9.23962

>  <SCORE.INTER>
-8.26372

>  <SCORE.INTER.CONST>
1

>  <SCORE.INTER.POLAR>
0

>  <SCORE.INTER.ROT>
3

>  <SCORE.INTER.SOLV>
19.0063

>  <SCORE.INTER.VDW>
-17.4446

>  <SCORE.INTER.norm>
-0.516482

>  <SCORE.INTRA>
-0.975903

>  <SCORE.INTRA.DIHEDRAL>
-1.26801

>  <SCORE.INTRA.DIHEDRAL.0>
2.05999

>  <SCORE.INTRA.POLAR>
0

>  <SCORE.INTRA.POLAR.0>
0

>  <SCORE.INTRA.REPUL>
0

>  <SCORE.INTRA.REPUL.0>
0

>  <SCORE.INTRA.SOLV>
-1.15376

>  <SCORE.INTRA.SOLV.lig_0>
-58.7001

>  <SCORE.INTRA.VDW>
0.234987

>  <SCORE.INTRA.VDW.0>
-0.401036

>  <SCORE.INTRA.norm>
-0.0609939

>  <SCORE.RESTR>
0

>  <SCORE.RESTR.CAVITY>
0

>  <SCORE.RESTR.norm>
0

>  <SCORE.SYSTEM>
0

>  <SCORE.SYSTEM.CONST>
0

>  <SCORE.SYSTEM.DIHEDRAL>
0

>  <SCORE.SYSTEM.SOLV>
0

>  <SCORE.SYSTEM.norm>
0

>  <SCORE.heavy>
16

>  <SCORE.norm>
-0.577476

>  <RMSD>
6.084

$$$$
ligand
 OpenBabel11021811463D
libRbt.so/2013.1/901 2013/11/27
 16 16  0  0  0  0  0  0  0  0999 V2000
   43.5897   39.0386   52.6242 P   0  0  2  0  0  0  0  0  0  0  0  0
   43.7315   39.7829   53.9003 O   0  0  0  0  0  0  0  0  0  0  0  0
   43.9497   40.0190   51.3952 O   0  5  0  0  0  0  0  0  0  0  0  0
   42.0631   38.5202   52.4899 O   0  0  0  0  0  0  0  0  0  0  0  0
   47.5572   35.0187   53.3797 C   0  0  2  0  0  0  0  0  0  0  0  0
   47.0430   34.0582   52.4294 O   0  0  0  0  0  0  0  0  0  0  0  0
   47.6994   34.3833   54.7933 C   0  0  2  0  0  0  0  0  0  0  0  0
   48.5935   33.2131   54.7204 N   0  0  0  0  0  0  0  0  0  0  0  0
   46.3004   33.9509   55.2846 C   0  0  1  0  0  0  0  0  0  0  0  0
   46.4000   33.3652   56.5937 O   0  0  0  0  0  0  0  0  0  0  0  0
   45.4155   35.2136   55.3391 C   0  0  2  0  0  0  0  0  0  0  0  0
   44.0992   34.8471   55.7865 O   0  0  0  0  0  0  0  0  0  0  0  0
   45.3375   35.8173   53.9030 C   0  0  2  0  0  0  0  0  0  0  0  0
   46.6676   36.1797   53.4264 O   0  0  0  0  0  0  0  0  0  0  0  0
   44.4822   37.0948   53.8900 C   0  0  0  0  0  0  0  0  0  0  0  0
   44.6124   37.7821   52.6330 O   0  0  0  0  0  0  0  0  0  0  0  0
  1  2  1  1  0  0  0
  1  3  1  0  0  0  0
  1  4  2  0  0  0  0
  1 16  1  0  0  0  0
  5  6  1  6  0  0  0
  5  7  1  0  0  0  0
  5 14  1  0  0  0  0
  7  8  1  6  0  0  0
  7  9  1  0  0  0  0
  9 10  1  1  0  0  0
  9 11  1  0  0  0  0
 11 12  1  6  0  0  0
 11 13  1  0  0  0  0
 13 14  1  0  0  0  0
 13 15  1  1  0  0  0
 15 16  1  0  0  0  0
M  CHG  1   3  -1
M  END
>  <CHROM.1>
169.33822137,174.81968867,47.48191308,45.28410200,36.40535846,53.79196684
-2.26102275,-0.59014918,2.29132218

>  <Name>
ligand

>  <RI>
0

>  <Rbt.Current_Directory>
/home/itssahil/PROJECTS/Mol_Feturizer/New_Systems/rnas/3B4A

>  <Rbt.Executable>
rbdock ($Id: //depot/dev/client3/rdock/2013.1/src/exe/rbdock.cxx#4 $)

>  <Rbt.Library>
libRbt.so (2013.1, Build901 2013/11/27)

>  <Rbt.Parameter_File>
/export/apps/rDock/src/rDock_2013.1_src/data/scripts/dock_solv.prm

>  <Rbt.Receptor>
prm/pocket_docking_6.prm

>  <SCORE>
-9.2408

>  <SCORE.INTER>
-8.24255

>  <SCORE.INTER.CONST>
1

>  <SCORE.INTER.POLAR>
0

>  <SCORE.INTER.ROT>
3

>  <SCORE.INTER.SOLV>
19.032

>  <SCORE.INTER.VDW>
-17.439

>  <SCORE.INTER.norm>
-0.515159

>  <SCORE.INTRA>
-0.998247

>  <SCORE.INTRA.DIHEDRAL>
-1.28022

>  <SCORE.INTRA.DIHEDRAL.0>
2.05999

>  <SCORE.INTRA.POLAR>
0

>  <SCORE.INTRA.POLAR.0>
0

>  <SCORE.INTRA.REPUL>
0

>  <SCORE.INTRA.REPUL.0>
0

>  <SCORE.INTRA.SOLV>
-1.14562

>  <SCORE.INTRA.SOLV.lig_0>
-58.7001

>  <SCORE.INTRA.VDW>
0.214675

>  <SCORE.INTRA.VDW.0>
-0.401036

>  <SCORE.INTRA.norm>
-0.0623904

>  <SCORE.RESTR>
0

>  <SCORE.RESTR.CAVITY>
0

>  <SCORE.RESTR.norm>
0

>  <SCORE.SYSTEM>
0

>  <SCORE.SYSTEM.CONST>
0

>  <SCORE.SYSTEM.DIHEDRAL>
0

>  <SCORE.SYSTEM.SOLV>
0

>  <SCORE.SYSTEM.norm>
0

>  <SCORE.heavy>
16

>  <SCORE.norm>
-0.57755

>  <RMSD>
6.085

$$$$
ligand
 OpenBabel11021811463D
libRbt.so/2013.1/901 2013/11/27
 16 16  0  0  0  0  0  0  0  0999 V2000
   43.5813   39.0444   52.6120 P   0  0  2  0  0  0  0  0  0  0  0  0
   43.7308   39.7901   53.8864 O   0  0  0  0  0  0  0  0  0  0  0  0
   43.9429   40.0208   51.3804 O   0  5  0  0  0  0  0  0  0  0  0  0
   42.0516   38.5338   52.4831 O   0  0  0  0  0  0  0  0  0  0  0  0
   47.5383   35.0091   53.3632 C   0  0  2  0  0  0  0  0  0  0  0  0
   47.0088   34.0461   52.4237 O   0  0  0  0  0  0  0  0  0  0  0  0
   47.6884   34.3819   54.7796 C   0  0  2  0  0  0  0  0  0  0  0  0
   48.5733   33.2047   54.7065 N   0  0  0  0  0  0  0  0  0  0  0  0
   46.2908   33.9630   55.2861 C   0  0  1  0  0  0  0  0  0  0  0  0
   46.3978   33.3851   56.5981 O   0  0  0  0  0  0  0  0  0  0  0  0
   45.4156   35.2324   55.3401 C   0  0  2  0  0  0  0  0  0  0  0  0
   44.1007   34.8785   55.8016 O   0  0  0  0  0  0  0  0  0  0  0  0
   45.3292   35.8273   53.9008 C   0  0  2  0  0  0  0  0  0  0  0  0
   46.6576   36.1769   53.4100 O   0  0  0  0  0  0  0  0  0  0  0  0
   44.4831   37.1109   53.8870 C   0  0  0  0  0  0  0  0  0  0  0  0
   44.5975   37.7825   52.6200 O   0  0  0  0  0  0  0  0  0  0  0  0
  1  2  1  1  0  0  0
  1  3  1  0  0  0  0
  1  4  2  0  0  0  0
  1 16  1  0  0  0  0
  5  6  1  6  0  0  0
  5  7  1  0  0  0  0
  5 14  1  0  0  0  0
  7  8  1  6  0  0  0
  7  9  1  0  0  0  0
  9 10  1  1  0  0  0
  9 11  1  0  0  0  0
 11 12  1  6  0  0  0
 11 13  1  0  0  0  0
 13 14  1  0  0  0  0
 13 15  1  1  0  0  0
 15 16  1  0  0  0  0
M  CHG  1   3  -1
M  END
>  <CHROM.1>
169.86579268,174.68713330,46.55730824,45.27451896,36.41181149,53.78472873
-2.26557039,-0.60028914,2.28111640

>  <Name>
ligand

>  <RI>
0

>  <Rbt.Current_Directory>
/home/itssahil/PROJECTS/Mol_Feturizer/New_Systems/rnas/3B4A

>  <Rbt.Executable>
rbdock ($Id: //depot/dev/client3/rdock/2013.1/src/exe/rbdock.cxx#4 $)

>  <Rbt.Library>
libRbt.so (2013.1, Build901 2013/11/27)

>  <Rbt.Parameter_File>
/export/apps/rDock/src/rDock_2013.1_src/data/scripts/dock_solv.prm

>  <Rbt.Receptor>
prm/pocket_docking_8.prm

>  <SCORE>
-9.25154

>  <SCORE.INTER>
-8.27455

>  <SCORE.INTER.CONST>
1

>  <SCORE.INTER.POLAR>
0

>  <SCORE.INTER.ROT>
3

>  <SCORE.INTER.SOLV>
19.0357

>  <SCORE.INTER.VDW>
-17.4616

>  <SCORE.INTER.norm>
-0.517159

>  <SCORE.INTRA>
-0.976998

>  <SCORE.INTRA.DIHEDRAL>
-1.27458

>  <SCORE.INTRA.DIHEDRAL.0>
2.05999

>  <SCORE.INTRA.POLAR>
0

>  <SCORE.INTRA.POLAR.0>
0

>  <SCORE.INTRA.REPUL>
0

>  <SCORE.INTRA.REPUL.0>
0

>  <SCORE.INTRA.SOLV>
-1.15562

>  <SCORE.INTRA.SOLV.lig_0>
-58.7001

>  <SCORE.INTRA.VDW>
0.238103

>  <SCORE.INTRA.VDW.0>
-0.401036

>  <SCORE.INTRA.norm>
-0.0610624

>  <SCORE.RESTR>
0

>  <SCORE.RESTR.CAVITY>
0

>  <SCORE.RESTR.norm>
0

>  <SCORE.SYSTEM>
0

>  <SCORE.SYSTEM.CONST>
0

>  <SCORE.SYSTEM.DIHEDRAL>
0

>  <SCORE.SYSTEM.SOLV>
0

>  <SCORE.SYSTEM.norm>
0

>  <SCORE.heavy>
16

>  <SCORE.norm>
-0.578221

>  <RMSD>
6.091

$$$$
ligand
 OpenBabel11021811463D
libRbt.so/2013.1/901 2013/11/27
 16 16  0  0  0  0  0  0  0  0999 V2000
   44.2617   40.7407   54.7829 P   0  0  2  0  0  0  0  0  0  0  0  0
   43.8018   41.4329   56.0125 O   0  0  0  0  0  0  0  0  0  0  0  0
   45.6351   41.4170   54.2754 O   0  5  0  0  0  0  0  0  0  0  0  0
   43.1203   40.8850   53.6455 O   0  0  0  0  0  0  0  0  0  0  0  0
   44.3272   35.0632   55.4292 C   0  0  2  0  0  0  0  0  0  0  0  0
   45.5993   34.9751   56.1104 O   0  0  0  0  0  0  0  0  0  0  0  0
   44.3181   34.1791   54.1484 C   0  0  2  0  0  0  0  0  0  0  0  0
   44.6022   32.7790   54.5136 N   0  0  0  0  0  0  0  0  0  0  0  0
   45.3991   34.7029   53.1776 C   0  0  1  0  0  0  0  0  0  0  0  0
   45.4093   33.9076   51.9801 O   0  0  0  0  0  0  0  0  0  0  0  0
   45.0475   36.1655   52.8349 C   0  0  2  0  0  0  0  0  0  0  0  0
   46.0396   36.6901   51.9362 O   0  0  0  0  0  0  0  0  0  0  0  0
   45.0440   36.9898   54.1590 C   0  0  2  0  0  0  0  0  0  0  0  0
   44.0537   36.4602   55.0899 O   0  0  0  0  0  0  0  0  0  0  0  0
   44.6805   38.4592   53.8903 C   0  0  0  0  0  0  0  0  0  0  0  0
   44.5208   39.1785   55.1257 O   0  0  0  0  0  0  0  0  0  0  0  0
  1  2  1  1  0  0  0
  1  3  1  0  0  0  0
  1  4  2  0  0  0  0
  1 16  1  0  0  0  0
  5  6  1  6  0  0  0
  5  7  1  0  0  0  0
  5 14  1  0  0  0  0
  7  8  1  1  0  0  0
  7  9  1  0  0  0  0
  9 10  1  6  0  0  0
  9 11  1  0  0  0  0
 11 12  1  6  0  0  0
 11 13  1  0  0  0  0
 13 14  1  0  0  0  0
 13 15  1  6  0  0  0
 15 16  1  0  0  0  0
M  CHG  1   3  -1
M  END
>  <CHROM.1>
173.07767452,175.35618177,167.64250909,44.70926211,37.46610180,54.24374988
1.97508824,1.27603854,-0.24693559

>  <Name>
ligand

>  <RI>
0

>  <Rbt.Current_Directory>
/home/itssahil/PROJECTS/Mol_Feturizer/New_Systems/rnas/3B4A

>  <Rbt.Executable>
rbdock ($Id: //depot/dev/client3/rdock/2013.1/src/exe/rbdock.cxx#4 $)

>  <Rbt.Library>
libRbt.so (2013.1, Build901 2013/11/27)

>  <Rbt.Parameter_File>
/export/apps/rDock/src/rDock_2013.1_src/data/scripts/dock_solv.prm

>  <Rbt.Receptor>
prm/pocket_docking_8.prm

>  <SCORE>
-8.11174

>  <SCORE.INTER>
-7.00221

>  <SCORE.INTER.CONST>
1

>  <SCORE.INTER.POLAR>
0

>  <SCORE.INTER.ROT>
3

>  <SCORE.INTER.SOLV>
12.8543

>  <SCORE.INTER.VDW>
-14.5529

>  <SCORE.INTER.norm>
-0.437638

>  <SCORE.INTRA>
-1.10953

>  <SCORE.INTRA.DIHEDRAL>
-1.54016

>  <SCORE.INTRA.DIHEDRAL.0>
2.05999

>  <SCORE.INTRA.POLAR>
0

>  <SCORE.INTRA.POLAR.0>
0

>  <SCORE.INTRA.REPUL>
0

>  <SCORE.INTRA.REPUL.0>
0

>  <SCORE.INTRA.SOLV>
-0.40669

>  <SCORE.INTRA.SOLV.lig_0>
-58.7001

>  <SCORE.INTRA.VDW>
-0.136099

>  <SCORE.INTRA.VDW.0>
-0.401036

>  <SCORE.INTRA.norm>
-0.0693454

>  <SCORE.RESTR>
0

>  <SCORE.RESTR.CAVITY>
0

>  <SCORE.RESTR.norm>
0

>  <SCORE.SYSTEM>
0

>  <SCORE.SYSTEM.CONST>
0

>  <SCORE.SYSTEM.DIHEDRAL>
0

>  <SCORE.SYSTEM.SOLV>
0

>  <SCORE.SYSTEM.norm>
0

>  <SCORE.heavy>
16

>  <SCORE.norm>
-0.506984

>  <RMSD>
6.095

$$$$
ligand
 OpenBabel11021811463D
libRbt.so/2013.1/901 2013/11/27
 16 16  0  0  0  0  0  0  0  0999 V2000
   44.3218   40.7771   54.3319 P   0  0  2  0  0  0  0  0  0  0  0  0
   43.7951   40.8827   55.7154 O   0  0  0  0  0  0  0  0  0  0  0  0
   45.3629   41.9801   54.0673 O   0  5  0  0  0  0  0  0  0  0  0  0
   43.0849   40.8772   53.2940 O   0  0  0  0  0  0  0  0  0  0  0  0
   44.6405   34.6487   55.2073 C   0  0  2  0  0  0  0  0  0  0  0  0
   45.9289   34.6856   55.8622 O   0  0  0  0  0  0  0  0  0  0  0  0
   44.7708   34.1182   53.7500 C   0  0  2  0  0  0  0  0  0  0  0  0
   45.3701   32.7710   53.7672 N   0  0  0  0  0  0  0  0  0  0  0  0
   45.6683   35.0868   52.9490 C   0  0  1  0  0  0  0  0  0  0  0  0
   45.8015   34.6247   51.5942 O   0  0  0  0  0  0  0  0  0  0  0  0
   44.9905   36.4726   52.9679 C   0  0  2  0  0  0  0  0  0  0  0  0
   45.8043   37.4048   52.2359 O   0  0  0  0  0  0  0  0  0  0  0  0
   44.8629   36.9333   54.4526 C   0  0  2  0  0  0  0  0  0  0  0  0
   44.0533   35.9890   55.2146 O   0  0  0  0  0  0  0  0  0  0  0  0
   44.1752   38.3052   54.5448 C   0  0  0  0  0  0  0  0  0  0  0  0
   45.0820   39.3560   54.1667 O   0  0  0  0  0  0  0  0  0  0  0  0
  1  2  1  1  0  0  0
  1  3  1  0  0  0  0
  1  4  2  0  0  0  0
  1 16  1  0  0  0  0
  5  6  1  6  0  0  0
  5  7  1  0  0  0  0
  5 14  1  0  0  0  0
  7  8  1  1  0  0  0
  7  9  1  0  0  0  0
  9 10  1  6  0  0  0
  9 11  1  0  0  0  0
 11 12  1  6  0  0  0
 11 13  1  0  0  0  0
 13 14  1  0  0  0  0
 13 15  1  6  0  0  0
 15 16  1  0  0  0  0
M  CHG  1   3  -1
M  END
>  <CHROM.1>
-75.92557074,-178.05701227,54.58023490,44.81889952,37.52397933,54.03292575
2.12497312,1.27494390,-0.45391285

>  <Name>
ligand

>  <RI>
0

>  <Rbt.Current_Directory>
/home/itssahil/PROJECTS/Mol_Feturizer/New_Systems/rnas/3B4A

>  <Rbt.Executable>
rbdock ($Id: //depot/dev/client3/rdock/2013.1/src/exe/rbdock.cxx#4 $)

>  <Rbt.Library>
libRbt.so (2013.1, Build901 2013/11/27)

>  <Rbt.Parameter_File>
/export/apps/rDock/src/rDock_2013.1_src/data/scripts/dock_solv.prm

>  <Rbt.Receptor>
prm/pocket_docking_8.prm

>  <SCORE>
-7.40882

>  <SCORE.INTER>
-6.26572

>  <SCORE.INTER.CONST>
1

>  <SCORE.INTER.POLAR>
0

>  <SCORE.INTER.ROT>
3

>  <SCORE.INTER.SOLV>
10.1219

>  <SCORE.INTER.VDW>
-13.1511

>  <SCORE.INTER.norm>
-0.391608

>  <SCORE.INTRA>
-1.14309

>  <SCORE.INTRA.DIHEDRAL>
-1.13012

>  <SCORE.INTRA.DIHEDRAL.0>
2.05999

>  <SCORE.INTRA.POLAR>
0

>  <SCORE.INTRA.POLAR.0>
0

>  <SCORE.INTRA.REPUL>
0

>  <SCORE.INTRA.REPUL.0>
0

>  <SCORE.INTRA.SOLV>
-0.869215

>  <SCORE.INTRA.SOLV.lig_0>
-58.7001

>  <SCORE.INTRA.VDW>
-0.143427

>  <SCORE.INTRA.VDW.0>
-0.401036

>  <SCORE.INTRA.norm>
-0.0714433

>  <SCORE.RESTR>
0

>  <SCORE.RESTR.CAVITY>
0

>  <SCORE.RESTR.norm>
0

>  <SCORE.SYSTEM>
0

>  <SCORE.SYSTEM.CONST>
0

>  <SCORE.SYSTEM.DIHEDRAL>
0

>  <SCORE.SYSTEM.SOLV>
0

>  <SCORE.SYSTEM.norm>
0

>  <SCORE.heavy>
16

>  <SCORE.norm>
-0.463051

>  <RMSD>
6.098

$$$$
ligand
 OpenBabel11021811463D
libRbt.so/2013.1/901 2013/11/27
 16 16  0  0  0  0  0  0  0  0999 V2000
   43.0162   39.0924   52.5011 P   0  0  2  0  0  0  0  0  0  0  0  0
   41.7969   38.4162   51.9926 O   0  0  0  0  0  0  0  0  0  0  0  0
   42.6066   40.5160   53.1390 O   0  5  0  0  0  0  0  0  0  0  0  0
   44.0424   39.3122   51.2699 O   0  0  0  0  0  0  0  0  0  0  0  0
   44.6810   34.3296   55.4097 C   0  0  2  0  0  0  0  0  0  0  0  0
   44.9883   35.0540   56.6226 O   0  0  0  0  0  0  0  0  0  0  0  0
   45.9356   33.5799   54.8750 C   0  0  2  0  0  0  0  0  0  0  0  0
   46.4334   32.6525   55.9076 N   0  0  0  0  0  0  0  0  0  0  0  0
   47.0236   34.6200   54.5286 C   0  0  1  0  0  0  0  0  0  0  0  0
   48.1945   33.9554   54.0248 O   0  0  0  0  0  0  0  0  0  0  0  0
   46.4445   35.5569   53.4482 C   0  0  2  0  0  0  0  0  0  0  0  0
   47.4301   36.5460   53.1054 O   0  0  0  0  0  0  0  0  0  0  0  0
   45.1775   36.2529   54.0338 C   0  0  2  0  0  0  0  0  0  0  0  0
   44.1727   35.2619   54.4028 O   0  0  0  0  0  0  0  0  0  0  0  0
   44.5373   37.1904   52.9971 C   0  0  0  0  0  0  0  0  0  0  0  0
   43.6952   38.1627   53.6411 O   0  0  0  0  0  0  0  0  0  0  0  0
  1  2  1  6  0  0  0
  1  3  1  0  0  0  0
  1  4  2  0  0  0  0
  1 16  1  0  0  0  0
  5  6  1  1  0  0  0
  5  7  1  0  0  0  0
  5 14  1  0  0  0  0
  7  8  1  1  0  0  0
  7  9  1  0  0  0  0
  9 10  1  6  0  0  0
  9 11  1  0  0  0  0
 11 12  1  1  0  0  0
 11 13  1  0  0  0  0
 13 14  1  0  0  0  0
 13 15  1  6  0  0  0
 15 16  1  0  0  0  0
M  CHG  1   3  -1
M  END
>  <CHROM.1>
-159.60567307,-178.37900873,84.65612110,44.83520891,36.55330124,53.74327779
2.17268525,0.39467117,-0.71773539

>  <Name>
ligand

>  <RI>
0

>  <Rbt.Current_Directory>
/home/itssahil/PROJECTS/Mol_Feturizer/New_Systems/rnas/3B4A

>  <Rbt.Executable>
rbdock ($Id: //depot/dev/client3/rdock/2013.1/src/exe/rbdock.cxx#4 $)

>  <Rbt.Library>
libRbt.so (2013.1, Build901 2013/11/27)

>  <Rbt.Parameter_File>
/export/apps/rDock/src/rDock_2013.1_src/data/scripts/dock_solv.prm

>  <Rbt.Receptor>
prm/pocket_docking_7.prm

>  <SCORE>
-9.61039

>  <SCORE.INTER>
-9.40461

>  <SCORE.INTER.CONST>
1

>  <SCORE.INTER.POLAR>
0

>  <SCORE.INTER.ROT>
3

>  <SCORE.INTER.SOLV>
18.2676

>  <SCORE.INTER.VDW>
-17.959

>  <SCORE.INTER.norm>
-0.587788

>  <SCORE.INTRA>
-0.205779

>  <SCORE.INTRA.DIHEDRAL>
0.195671

>  <SCORE.INTRA.DIHEDRAL.0>
2.05999

>  <SCORE.INTRA.POLAR>
0

>  <SCORE.INTRA.POLAR.0>
0

>  <SCORE.INTRA.REPUL>
0

>  <SCORE.INTRA.REPUL.0>
0

>  <SCORE.INTRA.SOLV>
-0.884083

>  <SCORE.INTRA.SOLV.lig_0>
-58.7001

>  <SCORE.INTRA.VDW>
0.138427

>  <SCORE.INTRA.VDW.0>
-0.401036

>  <SCORE.INTRA.norm>
-0.0128612

>  <SCORE.RESTR>
0

>  <SCORE.RESTR.CAVITY>
0

>  <SCORE.RESTR.norm>
0

>  <SCORE.SYSTEM>
0

>  <SCORE.SYSTEM.CONST>
0

>  <SCORE.SYSTEM.DIHEDRAL>
0

>  <SCORE.SYSTEM.SOLV>
0

>  <SCORE.SYSTEM.norm>
0

>  <SCORE.heavy>
16

>  <SCORE.norm>
-0.600649

>  <RMSD>
6.110

$$$$
ligand
 OpenBabel11021811463D
libRbt.so/2013.1/901 2013/11/27
 16 16  0  0  0  0  0  0  0  0999 V2000
   43.4094   38.8284   52.5627 P   0  0  2  0  0  0  0  0  0  0  0  0
   42.0073   38.3475   52.6364 O   0  0  0  0  0  0  0  0  0  0  0  0
   43.7125   39.7765   53.8317 O   0  5  0  0  0  0  0  0  0  0  0  0
   43.6030   39.6623   51.1899 O   0  0  0  0  0  0  0  0  0  0  0  0
   47.4562   34.8916   53.4228 C   0  0  2  0  0  0  0  0  0  0  0  0
   46.9120   33.8743   52.5516 O   0  0  0  0  0  0  0  0  0  0  0  0
   47.6509   34.3436   54.8664 C   0  0  2  0  0  0  0  0  0  0  0  0
   48.5459   33.1723   54.8329 N   0  0  0  0  0  0  0  0  0  0  0  0
   46.2718   33.9400   55.4328 C   0  0  1  0  0  0  0  0  0  0  0  0
   46.4200   33.4352   56.7706 O   0  0  0  0  0  0  0  0  0  0  0  0
   45.3850   35.2025   55.4420 C   0  0  2  0  0  0  0  0  0  0  0  0
   44.0867   34.8621   55.9576 O   0  0  0  0  0  0  0  0  0  0  0  0
   45.2538   35.7176   53.9756 C   0  0  2  0  0  0  0  0  0  0  0  0
   46.5648   36.0521   53.4306 O   0  0  0  0  0  0  0  0  0  0  0  0
   44.3941   36.9908   53.9156 C   0  0  0  0  0  0  0  0  0  0  0  0
   44.4048   37.5505   52.5905 O   0  0  0  0  0  0  0  0  0  0  0  0
  1  2  1  1  0  0  0
  1  3  1  0  0  0  0
  1  4  2  0  0  0  0
  1 16  1  0  0  0  0
  5  6  1  6  0  0  0
  5  7  1  0  0  0  0
  5 14  1  0  0  0  0
  7  8  1  6  0  0  0
  7  9  1  0  0  0  0
  9 10  1  1  0  0  0
  9 11  1  0  0  0  0
 11 12  1  6  0  0  0
 11 13  1  0  0  0  0
 13 14  1  0  0  0  0
 13 15  1  1  0  0  0
 15 16  1  0  0  0  0
M  CHG  1   3  -1
M  END
>  <CHROM.1>
173.22572992,176.33316972,-71.67487855,45.18501705,36.29350758,53.83411919
-2.31321321,-0.62897412,2.18694464

>  <Name>
ligand

>  <RI>
0

>  <Rbt.Current_Directory>
/home/itssahil/PROJECTS/Mol_Feturizer/New_Systems/rnas/3B4A

>  <Rbt.Executable>
rbdock ($Id: //depot/dev/client3/rdock/2013.1/src/exe/rbdock.cxx#4 $)

>  <Rbt.Library>
libRbt.so (2013.1, Build901 2013/11/27)

>  <Rbt.Parameter_File>
/export/apps/rDock/src/rDock_2013.1_src/data/scripts/dock_solv.prm

>  <Rbt.Receptor>
prm/pocket_docking_8.prm

>  <SCORE>
-11.6736

>  <SCORE.INTER>
-10.4198

>  <SCORE.INTER.CONST>
1

>  <SCORE.INTER.POLAR>
0

>  <SCORE.INTER.ROT>
3

>  <SCORE.INTER.SOLV>
17.0463

>  <SCORE.INTER.VDW>
-18.2287

>  <SCORE.INTER.norm>
-0.65124

>  <SCORE.INTRA>
-1.25375

>  <SCORE.INTRA.DIHEDRAL>
-1.61226

>  <SCORE.INTRA.DIHEDRAL.0>
2.05999

>  <SCORE.INTRA.POLAR>
0

>  <SCORE.INTRA.POLAR.0>
0

>  <SCORE.INTRA.REPUL>
0

>  <SCORE.INTRA.REPUL.0>
0

>  <SCORE.INTRA.SOLV>
-0.93897

>  <SCORE.INTRA.SOLV.lig_0>
-58.7001

>  <SCORE.INTRA.VDW>
0.0218671

>  <SCORE.INTRA.VDW.0>
-0.401036

>  <SCORE.INTRA.norm>
-0.0783592

>  <SCORE.RESTR>
0

>  <SCORE.RESTR.CAVITY>
0

>  <SCORE.RESTR.norm>
0

>  <SCORE.SYSTEM>
0

>  <SCORE.SYSTEM.CONST>
0

>  <SCORE.SYSTEM.DIHEDRAL>
0

>  <SCORE.SYSTEM.SOLV>
0

>  <SCORE.SYSTEM.norm>
0

>  <SCORE.heavy>
16

>  <SCORE.norm>
-0.7296

>  <RMSD>
6.120

$$$$
ligand
 OpenBabel11021811463D
libRbt.so/2013.1/901 2013/11/27
 16 16  0  0  0  0  0  0  0  0999 V2000
   43.4049   38.8260   52.5522 P   0  0  2  0  0  0  0  0  0  0  0  0
   41.9965   38.3662   52.6371 O   0  0  0  0  0  0  0  0  0  0  0  0
   43.7300   39.7761   53.8143 O   0  5  0  0  0  0  0  0  0  0  0  0
   43.6022   39.6498   51.1739 O   0  0  0  0  0  0  0  0  0  0  0  0
   47.4165   34.8530   53.3879 C   0  0  2  0  0  0  0  0  0  0  0  0
   46.8390   33.8239   52.5527 O   0  0  0  0  0  0  0  0  0  0  0  0
   47.6428   34.3332   54.8372 C   0  0  2  0  0  0  0  0  0  0  0  0
   48.5242   33.1516   54.8055 N   0  0  0  0  0  0  0  0  0  0  0  0
   46.2747   33.9570   55.4474 C   0  0  1  0  0  0  0  0  0  0  0  0
   46.4522   33.4786   56.7914 O   0  0  0  0  0  0  0  0  0  0  0  0
   45.4018   35.2291   55.4527 C   0  0  2  0  0  0  0  0  0  0  0  0
   44.1139   34.9141   56.0087 O   0  0  0  0  0  0  0  0  0  0  0  0
   45.2380   35.7148   53.9796 C   0  0  2  0  0  0  0  0  0  0  0  0
   46.5379   36.0233   53.3940 O   0  0  0  0  0  0  0  0  0  0  0  0
   44.3906   36.9960   53.9148 C   0  0  0  0  0  0  0  0  0  0  0  0
   44.3816   37.5337   52.5806 O   0  0  0  0  0  0  0  0  0  0  0  0
  1  2  1  1  0  0  0
  1  3  1  0  0  0  0
  1  4  2  0  0  0  0
  1 16  1  0  0  0  0
  5  6  1  6  0  0  0
  5  7  1  0  0  0  0
  5 14  1  0  0  0  0
  7  8  1  6  0  0  0
  7  9  1  0  0  0  0
  9 10  1  1  0  0  0
  9 11  1  0  0  0  0
 11 12  1  6  0  0  0
 11 13  1  0  0  0  0
 13 14  1  0  0  0  0
 13 15  1  1  0  0  0
 15 16  1  0  0  0  0
M  CHG  1   3  -1
M  END
>  <CHROM.1>
172.76075013,176.61360370,-72.74351189,45.17713318,36.29225364,53.82905254
-2.32935225,-0.65395000,2.15756879

>  <Name>
ligand

>  <RI>
0

>  <Rbt.Current_Directory>
/home/itssahil/PROJECTS/Mol_Feturizer/New_Systems/rnas/3B4A

>  <Rbt.Executable>
rbdock ($Id: //depot/dev/client3/rdock/2013.1/src/exe/rbdock.cxx#4 $)

>  <Rbt.Library>
libRbt.so (2013.1, Build901 2013/11/27)

>  <Rbt.Parameter_File>
/export/apps/rDock/src/rDock_2013.1_src/data/scripts/dock_solv.prm

>  <Rbt.Receptor>
prm/pocket_docking_7.prm

>  <SCORE>
-11.7078

>  <SCORE.INTER>
-10.5049

>  <SCORE.INTER.CONST>
1

>  <SCORE.INTER.POLAR>
0

>  <SCORE.INTER.ROT>
3

>  <SCORE.INTER.SOLV>
16.9849

>  <SCORE.INTER.VDW>
-18.2649

>  <SCORE.INTER.norm>
-0.656559

>  <SCORE.INTRA>
-1.20284

>  <SCORE.INTRA.DIHEDRAL>
-1.55904

>  <SCORE.INTRA.DIHEDRAL.0>
2.05999

>  <SCORE.INTRA.POLAR>
0

>  <SCORE.INTRA.POLAR.0>
0

>  <SCORE.INTRA.REPUL>
0

>  <SCORE.INTRA.REPUL.0>
0

>  <SCORE.INTRA.SOLV>
-0.924846

>  <SCORE.INTRA.SOLV.lig_0>
-58.7001

>  <SCORE.INTRA.VDW>
0.0390999

>  <SCORE.INTRA.VDW.0>
-0.401036

>  <SCORE.INTRA.norm>
-0.0751778

>  <SCORE.RESTR>
0

>  <SCORE.RESTR.CAVITY>
0

>  <SCORE.RESTR.norm>
0

>  <SCORE.SYSTEM>
0

>  <SCORE.SYSTEM.CONST>
0

>  <SCORE.SYSTEM.DIHEDRAL>
0

>  <SCORE.SYSTEM.SOLV>
0

>  <SCORE.SYSTEM.norm>
0

>  <SCORE.heavy>
16

>  <SCORE.norm>
-0.731737

>  <RMSD>
6.122

$$$$
ligand
 OpenBabel11021811463D
libRbt.so/2013.1/901 2013/11/27
 16 16  0  0  0  0  0  0  0  0999 V2000
   43.4073   38.8249   52.5408 P   0  0  2  0  0  0  0  0  0  0  0  0
   42.0050   38.3441   52.6102 O   0  0  0  0  0  0  0  0  0  0  0  0
   43.7027   39.7834   53.8038 O   0  5  0  0  0  0  0  0  0  0  0  0
   43.6088   39.6476   51.1625 O   0  0  0  0  0  0  0  0  0  0  0  0
   47.4053   34.8520   53.3912 C   0  0  2  0  0  0  0  0  0  0  0  0
   46.8276   33.8152   52.5657 O   0  0  0  0  0  0  0  0  0  0  0  0
   47.6374   34.3437   54.8437 C   0  0  2  0  0  0  0  0  0  0  0  0
   48.5215   33.1639   54.8181 N   0  0  0  0  0  0  0  0  0  0  0  0
   46.2722   33.9690   55.4612 C   0  0  1  0  0  0  0  0  0  0  0  0
   46.4552   33.5013   56.8081 O   0  0  0  0  0  0  0  0  0  0  0  0
   45.3964   35.2392   55.4596 C   0  0  2  0  0  0  0  0  0  0  0  0
   44.1110   34.9254   56.0221 O   0  0  0  0  0  0  0  0  0  0  0  0
   45.2267   35.7133   53.9834 C   0  0  2  0  0  0  0  0  0  0  0  0
   46.5240   36.0202   53.3912 O   0  0  0  0  0  0  0  0  0  0  0  0
   44.3762   36.9919   53.9115 C   0  0  0  0  0  0  0  0  0  0  0  0
   44.4030   37.5476   52.5849 O   0  0  0  0  0  0  0  0  0  0  0  0
  1  2  1  1  0  0  0
  1  3  1  0  0  0  0
  1  4  2  0  0  0  0
  1 16  1  0  0  0  0
  5  6  1  6  0  0  0
  5  7  1  0  0  0  0
  5 14  1  0  0  0  0
  7  8  1  6  0  0  0
  7  9  1  0  0  0  0
  9 10  1  1  0  0  0
  9 11  1  0  0  0  0
 11 12  1  6  0  0  0
 11 13  1  0  0  0  0
 13 14  1  0  0  0  0
 13 15  1  1  0  0  0
 15 16  1  0  0  0  0
M  CHG  1   3  -1
M  END
>  <CHROM.1>
170.57439768,175.88990254,-71.20473661,45.17360915,36.29534208,53.82970217
-2.32928176,-0.65604915,2.15160630

>  <Name>
ligand

>  <RI>
0

>  <Rbt.Current_Directory>
/home/itssahil/PROJECTS/Mol_Feturizer/New_Systems/rnas/3B4A

>  <Rbt.Executable>
rbdock ($Id: //depot/dev/client3/rdock/2013.1/src/exe/rbdock.cxx#4 $)

>  <Rbt.Library>
libRbt.so (2013.1, Build901 2013/11/27)

>  <Rbt.Parameter_File>
/export/apps/rDock/src/rDock_2013.1_src/data/scripts/dock_solv.prm

>  <Rbt.Receptor>
prm/pocket_docking_6.prm

>  <SCORE>
-11.7045

>  <SCORE.INTER>
-10.5372

>  <SCORE.INTER.CONST>
1

>  <SCORE.INTER.POLAR>
0

>  <SCORE.INTER.ROT>
3

>  <SCORE.INTER.SOLV>
17.0837

>  <SCORE.INTER.VDW>
-18.3194

>  <SCORE.INTER.norm>
-0.658576

>  <SCORE.INTRA>
-1.16725

>  <SCORE.INTRA.DIHEDRAL>
-1.46214

>  <SCORE.INTRA.DIHEDRAL.0>
2.05999

>  <SCORE.INTRA.POLAR>
0

>  <SCORE.INTRA.POLAR.0>
0

>  <SCORE.INTRA.REPUL>
0

>  <SCORE.INTRA.REPUL.0>
0

>  <SCORE.INTRA.SOLV>
-0.937721

>  <SCORE.INTRA.SOLV.lig_0>
-58.7001

>  <SCORE.INTRA.VDW>
0.0326808

>  <SCORE.INTRA.VDW.0>
-0.401036

>  <SCORE.INTRA.norm>
-0.072953

>  <SCORE.RESTR>
0

>  <SCORE.RESTR.CAVITY>
0

>  <SCORE.RESTR.norm>
0

>  <SCORE.SYSTEM>
0

>  <SCORE.SYSTEM.CONST>
0

>  <SCORE.SYSTEM.DIHEDRAL>
0

>  <SCORE.SYSTEM.SOLV>
0

>  <SCORE.SYSTEM.norm>
0

>  <SCORE.heavy>
16

>  <SCORE.norm>
-0.731529

>  <RMSD>
6.123

$$$$
ligand
 OpenBabel11021811463D
libRbt.so/2013.1/901 2013/11/27
 16 16  0  0  0  0  0  0  0  0999 V2000
   43.4035   38.8299   52.5391 P   0  0  2  0  0  0  0  0  0  0  0  0
   42.0021   38.3553   52.6540 O   0  0  0  0  0  0  0  0  0  0  0  0
   43.7364   39.8065   53.7787 O   0  5  0  0  0  0  0  0  0  0  0  0
   43.5699   39.6309   51.1433 O   0  0  0  0  0  0  0  0  0  0  0  0
   47.4186   34.8593   53.3840 C   0  0  2  0  0  0  0  0  0  0  0  0
   46.8381   33.8298   52.5512 O   0  0  0  0  0  0  0  0  0  0  0  0
   47.6448   34.3417   54.8342 C   0  0  2  0  0  0  0  0  0  0  0  0
   48.5234   33.1579   54.8040 N   0  0  0  0  0  0  0  0  0  0  0  0
   46.2763   33.9698   55.4461 C   0  0  1  0  0  0  0  0  0  0  0  0
   46.4538   33.4936   56.7909 O   0  0  0  0  0  0  0  0  0  0  0  0
   45.4064   35.2441   55.4496 C   0  0  2  0  0  0  0  0  0  0  0  0
   44.1182   34.9331   56.0073 O   0  0  0  0  0  0  0  0  0  0  0  0
   45.2426   35.7273   53.9757 C   0  0  2  0  0  0  0  0  0  0  0  0
   46.5428   36.0316   53.3885 O   0  0  0  0  0  0  0  0  0  0  0  0
   44.3982   37.0103   53.9091 C   0  0  0  0  0  0  0  0  0  0  0  0
   44.3960   37.5498   52.5756 O   0  0  0  0  0  0  0  0  0  0  0  0
  1  2  1  1  0  0  0
  1  3  1  0  0  0  0
  1  4  2  0  0  0  0
  1 16  1  0  0  0  0
  5  6  1  6  0  0  0
  5  7  1  0  0  0  0
  5 14  1  0  0  0  0
  7  8  1  6  0  0  0
  7  9  1  0  0  0  0
  9 10  1  1  0  0  0
  9 11  1  0  0  0  0
 11 12  1  6  0  0  0
 11 13  1  0  0  0  0
 13 14  1  0  0  0  0
 13 15  1  1  0  0  0
 15 16  1  0  0  0  0
M  CHG  1   3  -1
M  END
>  <CHROM.1>
172.42043147,175.71275341,-70.90931542,45.17836005,36.30084447,53.82226533
-2.33090322,-0.65499817,2.15322632

>  <Name>
ligand

>  <RI>
0

>  <Rbt.Current_Directory>
/home/itssahil/PROJECTS/Mol_Feturizer/New_Systems/rnas/3B4A

>  <Rbt.Executable>
rbdock ($Id: //depot/dev/client3/rdock/2013.1/src/exe/rbdock.cxx#4 $)

>  <Rbt.Library>
libRbt.so (2013.1, Build901 2013/11/27)

>  <Rbt.Parameter_File>
/export/apps/rDock/src/rDock_2013.1_src/data/scripts/dock_solv.prm

>  <Rbt.Receptor>
prm/pocket_docking_8.prm

>  <SCORE>
-11.6844

>  <SCORE.INTER>
-10.4407

>  <SCORE.INTER.CONST>
1

>  <SCORE.INTER.POLAR>
0

>  <SCORE.INTER.ROT>
3

>  <SCORE.INTER.SOLV>
17.0317

>  <SCORE.INTER.VDW>
-18.2377

>  <SCORE.INTER.norm>
-0.652546

>  <SCORE.INTRA>
-1.24364

>  <SCORE.INTRA.DIHEDRAL>
-1.57427

>  <SCORE.INTRA.DIHEDRAL.0>
2.05999

>  <SCORE.INTRA.POLAR>
0

>  <SCORE.INTRA.POLAR.0>
0

>  <SCORE.INTRA.REPUL>
0

>  <SCORE.INTRA.REPUL.0>
0

>  <SCORE.INTRA.SOLV>
-0.947844

>  <SCORE.INTRA.SOLV.lig_0>
-58.7001

>  <SCORE.INTRA.VDW>
0.0174194

>  <SCORE.INTRA.VDW.0>
-0.401036

>  <SCORE.INTRA.norm>
-0.0777273

>  <SCORE.RESTR>
0

>  <SCORE.RESTR.CAVITY>
0

>  <SCORE.RESTR.norm>
0

>  <SCORE.SYSTEM>
0

>  <SCORE.SYSTEM.CONST>
0

>  <SCORE.SYSTEM.DIHEDRAL>
0

>  <SCORE.SYSTEM.SOLV>
0

>  <SCORE.SYSTEM.norm>
0

>  <SCORE.heavy>
16

>  <SCORE.norm>
-0.730274

>  <RMSD>
6.123

$$$$
ligand
 OpenBabel11021811463D
libRbt.so/2013.1/901 2013/11/27
 16 16  0  0  0  0  0  0  0  0999 V2000
   43.4018   38.8308   52.5409 P   0  0  2  0  0  0  0  0  0  0  0  0
   41.9994   38.3510   52.6141 O   0  0  0  0  0  0  0  0  0  0  0  0
   43.7031   39.7846   53.8060 O   0  5  0  0  0  0  0  0  0  0  0  0
   43.5986   39.6581   51.1646 O   0  0  0  0  0  0  0  0  0  0  0  0
   47.4165   34.8560   53.3831 C   0  0  2  0  0  0  0  0  0  0  0  0
   46.8344   33.8297   52.5475 O   0  0  0  0  0  0  0  0  0  0  0  0
   47.6401   34.3347   54.8323 C   0  0  2  0  0  0  0  0  0  0  0  0
   48.5161   33.1490   54.8004 N   0  0  0  0  0  0  0  0  0  0  0  0
   46.2702   33.9646   55.4422 C   0  0  1  0  0  0  0  0  0  0  0  0
   46.4454   33.4851   56.7860 O   0  0  0  0  0  0  0  0  0  0  0  0
   45.4033   35.2409   55.4477 C   0  0  2  0  0  0  0  0  0  0  0  0
   44.1138   34.9317   56.0035 O   0  0  0  0  0  0  0  0  0  0  0  0
   45.2420   35.7277   53.9747 C   0  0  2  0  0  0  0  0  0  0  0  0
   46.5434   36.0303   53.3894 O   0  0  0  0  0  0  0  0  0  0  0  0
   44.4006   37.0128   53.9101 C   0  0  0  0  0  0  0  0  0  0  0  0
   44.3965   37.5524   52.5766 O   0  0  0  0  0  0  0  0  0  0  0  0
  1  2  1  1  0  0  0
  1  3  1  0  0  0  0
  1  4  2  0  0  0  0
  1 16  1  0  0  0  0
  5  6  1  6  0  0  0
  5  7  1  0  0  0  0
  5 14  1  0  0  0  0
  7  8  1  6  0  0  0
  7  9  1  0  0  0  0
  9 10  1  1  0  0  0
  9 11  1  0  0  0  0
 11 12  1  6  0  0  0
 11 13  1  0  0  0  0
 13 14  1  0  0  0  0
 13 15  1  1  0  0  0
 15 16  1  0  0  0  0
M  CHG  1   3  -1
M  END
>  <CHROM.1>
172.64491836,175.45281162,-72.65308389,45.17557062,36.29915776,53.82171861
-2.33008310,-0.65534075,2.15529692

>  <Name>
ligand

>  <RI>
0

>  <Rbt.Current_Directory>
/home/itssahil/PROJECTS/Mol_Feturizer/New_Systems/rnas/3B4A

>  <Rbt.Executable>
rbdock ($Id: //depot/dev/client3/rdock/2013.1/src/exe/rbdock.cxx#4 $)

>  <Rbt.Library>
libRbt.so (2013.1, Build901 2013/11/27)

>  <Rbt.Parameter_File>
/export/apps/rDock/src/rDock_2013.1_src/data/scripts/dock_solv.prm

>  <Rbt.Receptor>
prm/pocket_docking_7.prm

>  <SCORE>
-11.7178

>  <SCORE.INTER>
-10.5347

>  <SCORE.INTER.CONST>
1

>  <SCORE.INTER.POLAR>
0

>  <SCORE.INTER.ROT>
3

>  <SCORE.INTER.SOLV>
16.9884

>  <SCORE.INTER.VDW>
-18.286

>  <SCORE.INTER.norm>
-0.658419

>  <SCORE.INTRA>
-1.18304

>  <SCORE.INTRA.DIHEDRAL>
-1.5115

>  <SCORE.INTRA.DIHEDRAL.0>
2.05999

>  <SCORE.INTRA.POLAR>
0

>  <SCORE.INTRA.POLAR.0>
0

>  <SCORE.INTRA.REPUL>
0

>  <SCORE.INTRA.REPUL.0>
0

>  <SCORE.INTRA.SOLV>
-0.932335

>  <SCORE.INTRA.SOLV.lig_0>
-58.7001

>  <SCORE.INTRA.VDW>
0.0388744

>  <SCORE.INTRA.VDW.0>
-0.401036

>  <SCORE.INTRA.norm>
-0.0739402

>  <SCORE.RESTR>
0

>  <SCORE.RESTR.CAVITY>
0

>  <SCORE.RESTR.norm>
0

>  <SCORE.SYSTEM>
0

>  <SCORE.SYSTEM.CONST>
0

>  <SCORE.SYSTEM.DIHEDRAL>
0

>  <SCORE.SYSTEM.SOLV>
0

>  <SCORE.SYSTEM.norm>
0

>  <SCORE.heavy>
16

>  <SCORE.norm>
-0.73236

>  <RMSD>
6.124

$$$$
ligand
 OpenBabel11021811463D
libRbt.so/2013.1/901 2013/11/27
 16 16  0  0  0  0  0  0  0  0999 V2000
   43.0333   39.1645   52.5113 P   0  0  2  0  0  0  0  0  0  0  0  0
   41.8251   38.4741   51.9953 O   0  0  0  0  0  0  0  0  0  0  0  0
   42.6019   40.5786   53.1556 O   0  5  0  0  0  0  0  0  0  0  0  0
   44.0600   39.4053   51.2845 O   0  0  0  0  0  0  0  0  0  0  0  0
   44.6536   34.3766   55.3737 C   0  0  2  0  0  0  0  0  0  0  0  0
   44.9561   35.0801   56.6000 O   0  0  0  0  0  0  0  0  0  0  0  0
   45.9052   33.6199   54.8418 C   0  0  2  0  0  0  0  0  0  0  0  0
   46.3810   32.6722   55.8663 N   0  0  0  0  0  0  0  0  0  0  0  0
   47.0089   34.6519   54.5220 C   0  0  1  0  0  0  0  0  0  0  0  0
   48.1774   33.9808   54.0213 O   0  0  0  0  0  0  0  0  0  0  0  0
   46.4525   35.6108   53.4489 C   0  0  2  0  0  0  0  0  0  0  0  0
   47.4531   36.5930   53.1308 O   0  0  0  0  0  0  0  0  0  0  0  0
   45.1873   36.3132   54.0307 C   0  0  2  0  0  0  0  0  0  0  0  0
   44.1671   35.3289   54.3748 O   0  0  0  0  0  0  0  0  0  0  0  0
   44.5692   37.2727   53.0007 C   0  0  0  0  0  0  0  0  0  0  0  0
   43.7218   38.2381   53.6483 O   0  0  0  0  0  0  0  0  0  0  0  0
  1  2  1  6  0  0  0
  1  3  1  0  0  0  0
  1  4  2  0  0  0  0
  1 16  1  0  0  0  0
  5  6  1  1  0  0  0
  5  7  1  0  0  0  0
  5 14  1  0  0  0  0
  7  8  1  1  0  0  0
  7  9  1  0  0  0  0
  9 10  1  6  0  0  0
  9 11  1  0  0  0  0
 11 12  1  1  0  0  0
 11 13  1  0  0  0  0
 13 14  1  0  0  0  0
 13 15  1  6  0  0  0
 15 16  1  0  0  0  0
M  CHG  1   3  -1
M  END
>  <CHROM.1>
-160.13255624,-176.76568211,84.10293647,44.83564339,36.60869936,53.73918782
2.16422502,0.38982069,-0.70206827

>  <Name>
ligand

>  <RI>
0

>  <Rbt.Current_Directory>
/home/itssahil/PROJECTS/Mol_Feturizer/New_Systems/rnas/3B4A

>  <Rbt.Executable>
rbdock ($Id: //depot/dev/client3/rdock/2013.1/src/exe/rbdock.cxx#4 $)

>  <Rbt.Library>
libRbt.so (2013.1, Build901 2013/11/27)

>  <Rbt.Parameter_File>
/export/apps/rDock/src/rDock_2013.1_src/data/scripts/dock_solv.prm

>  <Rbt.Receptor>
prm/pocket_docking_8.prm

>  <SCORE>
-9.6038

>  <SCORE.INTER>
-9.37299

>  <SCORE.INTER.CONST>
1

>  <SCORE.INTER.POLAR>
0

>  <SCORE.INTER.ROT>
3

>  <SCORE.INTER.SOLV>
17.8285

>  <SCORE.INTER.VDW>
-17.7915

>  <SCORE.INTER.norm>
-0.585812

>  <SCORE.INTRA>
-0.230811

>  <SCORE.INTRA.DIHEDRAL>
0.137607

>  <SCORE.INTRA.DIHEDRAL.0>
2.05999

>  <SCORE.INTRA.POLAR>
0

>  <SCORE.INTRA.POLAR.0>
0

>  <SCORE.INTRA.REPUL>
0

>  <SCORE.INTRA.REPUL.0>
0

>  <SCORE.INTRA.SOLV>
-0.883618

>  <SCORE.INTRA.SOLV.lig_0>
-58.7001

>  <SCORE.INTRA.VDW>
0.142195

>  <SCORE.INTRA.VDW.0>
-0.401036

>  <SCORE.INTRA.norm>
-0.0144257

>  <SCORE.RESTR>
0

>  <SCORE.RESTR.CAVITY>
0

>  <SCORE.RESTR.norm>
0

>  <SCORE.SYSTEM>
0

>  <SCORE.SYSTEM.CONST>
0

>  <SCORE.SYSTEM.DIHEDRAL>
0

>  <SCORE.SYSTEM.SOLV>
0

>  <SCORE.SYSTEM.norm>
0

>  <SCORE.heavy>
16

>  <SCORE.norm>
-0.600237

>  <RMSD>
6.124

$$$$
ligand
 OpenBabel11021811463D
libRbt.so/2013.1/901 2013/11/27
 16 16  0  0  0  0  0  0  0  0999 V2000
   43.4078   38.8292   52.5761 P   0  0  2  0  0  0  0  0  0  0  0  0
   42.0054   38.3452   52.6158 O   0  0  0  0  0  0  0  0  0  0  0  0
   43.6860   39.7557   53.8666 O   0  5  0  0  0  0  0  0  0  0  0  0
   43.6252   39.6868   51.2217 O   0  0  0  0  0  0  0  0  0  0  0  0
   47.4677   34.9078   53.4153 C   0  0  2  0  0  0  0  0  0  0  0  0
   46.9220   33.8830   52.5537 O   0  0  0  0  0  0  0  0  0  0  0  0
   47.6782   34.3679   54.8597 C   0  0  2  0  0  0  0  0  0  0  0  0
   48.5800   33.2019   54.8239 N   0  0  0  0  0  0  0  0  0  0  0  0
   46.3066   33.9589   55.4400 C   0  0  1  0  0  0  0  0  0  0  0  0
   46.4694   33.4615   56.7789 O   0  0  0  0  0  0  0  0  0  0  0  0
   45.4123   35.2161   55.4509 C   0  0  2  0  0  0  0  0  0  0  0  0
   44.1206   34.8705   55.9796 O   0  0  0  0  0  0  0  0  0  0  0  0
   45.2652   35.7232   53.9833 C   0  0  2  0  0  0  0  0  0  0  0  0
   46.5694   36.0630   53.4252 O   0  0  0  0  0  0  0  0  0  0  0  0
   44.3974   36.9910   53.9247 C   0  0  0  0  0  0  0  0  0  0  0  0
   44.4047   37.5523   52.6003 O   0  0  0  0  0  0  0  0  0  0  0  0
  1  2  1  1  0  0  0
  1  3  1  0  0  0  0
  1  4  2  0  0  0  0
  1 16  1  0  0  0  0
  5  6  1  6  0  0  0
  5  7  1  0  0  0  0
  5 14  1  0  0  0  0
  7  8  1  6  0  0  0
  7  9  1  0  0  0  0
  9 10  1  1  0  0  0
  9 11  1  0  0  0  0
 11 12  1  6  0  0  0
 11 13  1  0  0  0  0
 13 14  1  0  0  0  0
 13 15  1  1  0  0  0
 15 16  1  0  0  0  0
M  CHG  1   3  -1
M  END
>  <CHROM.1>
172.61468688,176.66503778,-73.16819485,45.19850580,36.30295642,53.84153941
-2.32278396,-0.63077486,2.17823654

>  <Name>
ligand

>  <RI>
0

>  <Rbt.Current_Directory>
/home/itssahil/PROJECTS/Mol_Feturizer/New_Systems/rnas/3B4A

>  <Rbt.Executable>
rbdock ($Id: //depot/dev/client3/rdock/2013.1/src/exe/rbdock.cxx#4 $)

>  <Rbt.Library>
libRbt.so (2013.1, Build901 2013/11/27)

>  <Rbt.Parameter_File>
/export/apps/rDock/src/rDock_2013.1_src/data/scripts/dock_solv.prm

>  <Rbt.Receptor>
prm/pocket_docking_8.prm

>  <SCORE>
-11.6495

>  <SCORE.INTER>
-10.4677

>  <SCORE.INTER.CONST>
1

>  <SCORE.INTER.POLAR>
0

>  <SCORE.INTER.ROT>
3

>  <SCORE.INTER.SOLV>
17.0946

>  <SCORE.INTER.VDW>
-18.2766

>  <SCORE.INTER.norm>
-0.654228

>  <SCORE.INTRA>
-1.18188

>  <SCORE.INTRA.DIHEDRAL>
-1.53652

>  <SCORE.INTRA.DIHEDRAL.0>
2.05999

>  <SCORE.INTRA.POLAR>
0

>  <SCORE.INTRA.POLAR.0>
0

>  <SCORE.INTRA.REPUL>
0

>  <SCORE.INTRA.REPUL.0>
0

>  <SCORE.INTRA.SOLV>
-0.919742

>  <SCORE.INTRA.SOLV.lig_0>
-58.7001

>  <SCORE.INTRA.VDW>
0.0462485

>  <SCORE.INTRA.VDW.0>
-0.401036

>  <SCORE.INTRA.norm>
-0.0738675

>  <SCORE.RESTR>
0

>  <SCORE.RESTR.CAVITY>
0

>  <SCORE.RESTR.norm>
0

>  <SCORE.SYSTEM>
0

>  <SCORE.SYSTEM.CONST>
0

>  <SCORE.SYSTEM.DIHEDRAL>
0

>  <SCORE.SYSTEM.SOLV>
0

>  <SCORE.SYSTEM.norm>
0

>  <SCORE.heavy>
16

>  <SCORE.norm>
-0.728096

>  <RMSD>
6.124

$$$$
ligand
 OpenBabel11021811463D
libRbt.so/2013.1/901 2013/11/27
 16 16  0  0  0  0  0  0  0  0999 V2000
   43.4043   38.8418   52.5726 P   0  0  2  0  0  0  0  0  0  0  0  0
   42.0030   38.3560   52.6262 O   0  0  0  0  0  0  0  0  0  0  0  0
   43.6887   39.7836   53.8505 O   0  5  0  0  0  0  0  0  0  0  0  0
   43.6122   39.6840   51.2070 O   0  0  0  0  0  0  0  0  0  0  0  0
   47.4233   34.8766   53.4078 C   0  0  2  0  0  0  0  0  0  0  0  0
   46.8541   33.8524   52.5609 O   0  0  0  0  0  0  0  0  0  0  0  0
   47.6412   34.3462   54.8546 C   0  0  2  0  0  0  0  0  0  0  0  0
   48.5259   33.1671   54.8197 N   0  0  0  0  0  0  0  0  0  0  0  0
   46.2701   33.9617   55.4527 C   0  0  1  0  0  0  0  0  0  0  0  0
   46.4398   33.4735   56.7941 O   0  0  0  0  0  0  0  0  0  0  0  0
   45.3939   35.2316   55.4619 C   0  0  2  0  0  0  0  0  0  0  0  0
   44.1031   34.9090   56.0069 O   0  0  0  0  0  0  0  0  0  0  0  0
   45.2387   35.7282   53.9916 C   0  0  2  0  0  0  0  0  0  0  0  0
   46.5416   36.0445   53.4171 O   0  0  0  0  0  0  0  0  0  0  0  0
   44.3884   37.0077   53.9309 C   0  0  0  0  0  0  0  0  0  0  0  0
   44.4035   37.5668   52.6056 O   0  0  0  0  0  0  0  0  0  0  0  0
  1  2  1  1  0  0  0
  1  3  1  0  0  0  0
  1  4  2  0  0  0  0
  1 16  1  0  0  0  0
  5  6  1  6  0  0  0
  5  7  1  0  0  0  0
  5 14  1  0  0  0  0
  7  8  1  6  0  0  0
  7  9  1  0  0  0  0
  9 10  1  1  0  0  0
  9 11  1  0  0  0  0
 11 12  1  6  0  0  0
 11 13  1  0  0  0  0
 13 14  1  0  0  0  0
 13 15  1  1  0  0  0
 15 16  1  0  0  0  0
M  CHG  1   3  -1
M  END
>  <CHROM.1>
171.88737254,175.69148237,-72.24511285,45.17622059,36.30525662,53.84389676
-2.32458719,-0.64753784,2.16753799

>  <Name>
ligand

>  <RI>
0

>  <Rbt.Current_Directory>
/home/itssahil/PROJECTS/Mol_Feturizer/New_Systems/rnas/3B4A

>  <Rbt.Executable>
rbdock ($Id: //depot/dev/client3/rdock/2013.1/src/exe/rbdock.cxx#4 $)

>  <Rbt.Library>
libRbt.so (2013.1, Build901 2013/11/27)

>  <Rbt.Parameter_File>
/export/apps/rDock/src/rDock_2013.1_src/data/scripts/dock_solv.prm

>  <Rbt.Receptor>
prm/pocket_docking_6.prm

>  <SCORE>
-11.6704

>  <SCORE.INTER>
-10.4936

>  <SCORE.INTER.CONST>
1

>  <SCORE.INTER.POLAR>
0

>  <SCORE.INTER.ROT>
3

>  <SCORE.INTER.SOLV>
17.0483

>  <SCORE.INTER.VDW>
-18.2785

>  <SCORE.INTER.norm>
-0.65585

>  <SCORE.INTRA>
-1.17679

>  <SCORE.INTRA.DIHEDRAL>
-1.49636

>  <SCORE.INTRA.DIHEDRAL.0>
2.05999

>  <SCORE.INTRA.POLAR>
0

>  <SCORE.INTRA.POLAR.0>
0

>  <SCORE.INTRA.REPUL>
0

>  <SCORE.INTRA.REPUL.0>
0

>  <SCORE.INTRA.SOLV>
-0.932582

>  <SCORE.INTRA.SOLV.lig_0>
-58.7001

>  <SCORE.INTRA.VDW>
0.037681

>  <SCORE.INTRA.VDW.0>
-0.401036

>  <SCORE.INTRA.norm>
-0.0735493

>  <SCORE.RESTR>
0

>  <SCORE.RESTR.CAVITY>
0

>  <SCORE.RESTR.norm>
0

>  <SCORE.SYSTEM>
0

>  <SCORE.SYSTEM.CONST>
0

>  <SCORE.SYSTEM.DIHEDRAL>
0

>  <SCORE.SYSTEM.SOLV>
0

>  <SCORE.SYSTEM.norm>
0

>  <SCORE.heavy>
16

>  <SCORE.norm>
-0.729399

>  <RMSD>
6.128

$$$$
ligand
 OpenBabel11021811463D
libRbt.so/2013.1/901 2013/11/27
 16 16  0  0  0  0  0  0  0  0999 V2000
   43.4001   38.8452   52.5565 P   0  0  2  0  0  0  0  0  0  0  0  0
   41.9968   38.3679   52.6314 O   0  0  0  0  0  0  0  0  0  0  0  0
   43.7061   39.7941   53.8242 O   0  5  0  0  0  0  0  0  0  0  0  0
   43.5952   39.6768   51.1826 O   0  0  0  0  0  0  0  0  0  0  0  0
   47.3854   34.8419   53.3472 C   0  0  2  0  0  0  0  0  0  0  0  0
   46.7876   33.8142   52.5247 O   0  0  0  0  0  0  0  0  0  0  0  0
   47.6299   34.3254   54.7948 C   0  0  2  0  0  0  0  0  0  0  0  0
   48.5019   33.1371   54.7539 N   0  0  0  0  0  0  0  0  0  0  0  0
   46.2686   33.9616   55.4272 C   0  0  1  0  0  0  0  0  0  0  0  0
   46.4631   33.4866   56.7700 O   0  0  0  0  0  0  0  0  0  0  0  0
   45.4054   35.2403   55.4412 C   0  0  2  0  0  0  0  0  0  0  0  0
   44.1238   34.9370   56.0179 O   0  0  0  0  0  0  0  0  0  0  0  0
   45.2228   35.7222   53.9691 C   0  0  2  0  0  0  0  0  0  0  0  0
   46.5159   36.0188   53.3626 O   0  0  0  0  0  0  0  0  0  0  0  0
   44.3841   37.0094   53.9125 C   0  0  0  0  0  0  0  0  0  0  0  0
   44.3923   37.5648   52.5856 O   0  0  0  0  0  0  0  0  0  0  0  0
  1  2  1  1  0  0  0
  1  3  1  0  0  0  0
  1  4  2  0  0  0  0
  1 16  1  0  0  0  0
  5  6  1  6  0  0  0
  5  7  1  0  0  0  0
  5 14  1  0  0  0  0
  7  8  1  6  0  0  0
  7  9  1  0  0  0  0
  9 10  1  1  0  0  0
  9 11  1  0  0  0  0
 11 12  1  6  0  0  0
 11 13  1  0  0  0  0
 13 14  1  0  0  0  0
 13 15  1  1  0  0  0
 15 16  1  0  0  0  0
M  CHG  1   3  -1
M  END
>  <CHROM.1>
171.00673079,175.44954510,-71.86528949,45.16714902,36.30076803,53.81672037
-2.33840605,-0.66908460,2.14860566

>  <Name>
ligand

>  <RI>
0

>  <Rbt.Current_Directory>
/home/itssahil/PROJECTS/Mol_Feturizer/New_Systems/rnas/3B4A

>  <Rbt.Executable>
rbdock ($Id: //depot/dev/client3/rdock/2013.1/src/exe/rbdock.cxx#4 $)

>  <Rbt.Library>
libRbt.so (2013.1, Build901 2013/11/27)

>  <Rbt.Parameter_File>
/export/apps/rDock/src/rDock_2013.1_src/data/scripts/dock_solv.prm

>  <Rbt.Receptor>
prm/pocket_docking_8.prm

>  <SCORE>
-11.6953

>  <SCORE.INTER>
-10.5423

>  <SCORE.INTER.CONST>
1

>  <SCORE.INTER.POLAR>
0

>  <SCORE.INTER.ROT>
3

>  <SCORE.INTER.SOLV>
16.7374

>  <SCORE.INTER.VDW>
-18.2073

>  <SCORE.INTER.norm>
-0.658896

>  <SCORE.INTRA>
-1.15294

>  <SCORE.INTRA.DIHEDRAL>
-1.44751

>  <SCORE.INTRA.DIHEDRAL.0>
2.05999

>  <SCORE.INTRA.POLAR>
0

>  <SCORE.INTRA.POLAR.0>
0

>  <SCORE.INTRA.REPUL>
0

>  <SCORE.INTRA.REPUL.0>
0

>  <SCORE.INTRA.SOLV>
-0.934957

>  <SCORE.INTRA.SOLV.lig_0>
-58.7001

>  <SCORE.INTRA.VDW>
0.0382903

>  <SCORE.INTRA.VDW.0>
-0.401036

>  <SCORE.INTRA.norm>
-0.072059

>  <SCORE.RESTR>
0

>  <SCORE.RESTR.CAVITY>
0

>  <SCORE.RESTR.norm>
0

>  <SCORE.SYSTEM>
0

>  <SCORE.SYSTEM.CONST>
0

>  <SCORE.SYSTEM.DIHEDRAL>
0

>  <SCORE.SYSTEM.SOLV>
0

>  <SCORE.SYSTEM.norm>
0

>  <SCORE.heavy>
16

>  <SCORE.norm>
-0.730955

>  <RMSD>
6.128

$$$$
ligand
 OpenBabel11021811463D
libRbt.so/2013.1/901 2013/11/27
 16 16  0  0  0  0  0  0  0  0999 V2000
   43.4003   38.8390   52.5386 P   0  0  2  0  0  0  0  0  0  0  0  0
   41.9957   38.3668   52.6190 O   0  0  0  0  0  0  0  0  0  0  0  0
   43.7117   39.7953   53.7994 O   0  5  0  0  0  0  0  0  0  0  0  0
   43.5959   39.6609   51.1589 O   0  0  0  0  0  0  0  0  0  0  0  0
   47.3791   34.8349   53.3484 C   0  0  2  0  0  0  0  0  0  0  0  0
   46.7778   33.8009   52.5363 O   0  0  0  0  0  0  0  0  0  0  0  0
   47.6278   34.3303   54.7995 C   0  0  2  0  0  0  0  0  0  0  0  0
   48.4987   33.1410   54.7657 N   0  0  0  0  0  0  0  0  0  0  0  0
   46.2682   33.9728   55.4391 C   0  0  1  0  0  0  0  0  0  0  0  0
   46.4666   33.5089   56.7852 O   0  0  0  0  0  0  0  0  0  0  0  0
   45.4060   35.2523   55.4453 C   0  0  2  0  0  0  0  0  0  0  0  0
   44.1260   34.9548   56.0286 O   0  0  0  0  0  0  0  0  0  0  0  0
   45.2191   35.7220   53.9697 C   0  0  2  0  0  0  0  0  0  0  0  0
   46.5104   36.0125   53.3567 O   0  0  0  0  0  0  0  0  0  0  0  0
   44.3812   37.0094   53.9052 C   0  0  0  0  0  0  0  0  0  0  0  0
   44.3884   37.5556   52.5744 O   0  0  0  0  0  0  0  0  0  0  0  0
  1  2  1  1  0  0  0
  1  3  1  0  0  0  0
  1  4  2  0  0  0  0
  1 16  1  0  0  0  0
  5  6  1  6  0  0  0
  5  7  1  0  0  0  0
  5 14  1  0  0  0  0
  7  8  1  6  0  0  0
  7  9  1  0  0  0  0
  9 10  1  1  0  0  0
  9 11  1  0  0  0  0
 11 12  1  6  0  0  0
 11 13  1  0  0  0  0
 13 14  1  0  0  0  0
 13 15  1  1  0  0  0
 15 16  1  0  0  0  0
M  CHG  1   3  -1
M  END
>  <CHROM.1>
170.85596764,175.61246406,-71.89048018,45.16569645,36.30101866,53.81335794
-2.34009234,-0.67209479,2.13976928

>  <Name>
ligand

>  <RI>
0

>  <Rbt.Current_Directory>
/home/itssahil/PROJECTS/Mol_Feturizer/New_Systems/rnas/3B4A

>  <Rbt.Executable>
rbdock ($Id: //depot/dev/client3/rdock/2013.1/src/exe/rbdock.cxx#4 $)

>  <Rbt.Library>
libRbt.so (2013.1, Build901 2013/11/27)

>  <Rbt.Parameter_File>
/export/apps/rDock/src/rDock_2013.1_src/data/scripts/dock_solv.prm

>  <Rbt.Receptor>
prm/pocket_docking_8.prm

>  <SCORE>
-11.6942

>  <SCORE.INTER>
-10.545

>  <SCORE.INTER.CONST>
1

>  <SCORE.INTER.POLAR>
0

>  <SCORE.INTER.ROT>
3

>  <SCORE.INTER.SOLV>
16.8195

>  <SCORE.INTER.VDW>
-18.2365

>  <SCORE.INTER.norm>
-0.659064

>  <SCORE.INTRA>
-1.14918

>  <SCORE.INTRA.DIHEDRAL>
-1.44423

>  <SCORE.INTRA.DIHEDRAL.0>
2.05999

>  <SCORE.INTRA.POLAR>
0

>  <SCORE.INTRA.POLAR.0>
0

>  <SCORE.INTRA.REPUL>
0

>  <SCORE.INTRA.REPUL.0>
0

>  <SCORE.INTRA.SOLV>
-0.933267

>  <SCORE.INTRA.SOLV.lig_0>
-58.7001

>  <SCORE.INTRA.VDW>
0.0395707

>  <SCORE.INTRA.VDW.0>
-0.401036

>  <SCORE.INTRA.norm>
-0.0718236

>  <SCORE.RESTR>
0

>  <SCORE.RESTR.CAVITY>
0

>  <SCORE.RESTR.norm>
0

>  <SCORE.SYSTEM>
0

>  <SCORE.SYSTEM.CONST>
0

>  <SCORE.SYSTEM.DIHEDRAL>
0

>  <SCORE.SYSTEM.SOLV>
0

>  <SCORE.SYSTEM.norm>
0

>  <SCORE.heavy>
16

>  <SCORE.norm>
-0.730888

>  <RMSD>
6.128

$$$$
ligand
 OpenBabel11021811463D
libRbt.so/2013.1/901 2013/11/27
 16 16  0  0  0  0  0  0  0  0999 V2000
   43.3969   38.8460   52.5482 P   0  0  2  0  0  0  0  0  0  0  0  0
   41.9931   38.3712   52.6287 O   0  0  0  0  0  0  0  0  0  0  0  0
   43.7073   39.8009   53.8103 O   0  5  0  0  0  0  0  0  0  0  0  0
   43.5901   39.6704   51.1696 O   0  0  0  0  0  0  0  0  0  0  0  0
   47.3718   34.8325   53.3412 C   0  0  2  0  0  0  0  0  0  0  0  0
   46.7627   33.8008   52.5320 O   0  0  0  0  0  0  0  0  0  0  0  0
   47.6255   34.3269   54.7910 C   0  0  2  0  0  0  0  0  0  0  0  0
   48.4917   33.1342   54.7530 N   0  0  0  0  0  0  0  0  0  0  0  0
   46.2676   33.9746   55.4372 C   0  0  1  0  0  0  0  0  0  0  0  0
   46.4707   33.5098   56.7823 O   0  0  0  0  0  0  0  0  0  0  0  0
   45.4105   35.2574   55.4475 C   0  0  2  0  0  0  0  0  0  0  0  0
   44.1322   34.9648   56.0369 O   0  0  0  0  0  0  0  0  0  0  0  0
   45.2182   35.7279   53.9729 C   0  0  2  0  0  0  0  0  0  0  0  0
   46.5078   36.0135   53.3537 O   0  0  0  0  0  0  0  0  0  0  0  0
   44.3850   37.0185   53.9124 C   0  0  0  0  0  0  0  0  0  0  0  0
   44.3873   37.5643   52.5814 O   0  0  0  0  0  0  0  0  0  0  0  0
  1  2  1  1  0  0  0
  1  3  1  0  0  0  0
  1  4  2  0  0  0  0
  1 16  1  0  0  0  0
  5  6  1  6  0  0  0
  5  7  1  0  0  0  0
  5 14  1  0  0  0  0
  7  8  1  6  0  0  0
  7  9  1  0  0  0  0
  9 10  1  1  0  0  0
  9 11  1  0  0  0  0
 11 12  1  6  0  0  0
 11 13  1  0  0  0  0
 13 14  1  0  0  0  0
 13 15  1  1  0  0  0
 15 16  1  0  0  0  0
M  CHG  1   3  -1
M  END
>  <CHROM.1>
170.89420643,175.26571565,-72.06674593,45.16340851,36.30490511,53.81590791
-2.34408521,-0.67704452,2.13660477

>  <Name>
ligand

>  <RI>
0

>  <Rbt.Current_Directory>
/home/itssahil/PROJECTS/Mol_Feturizer/New_Systems/rnas/3B4A

>  <Rbt.Executable>
rbdock ($Id: //depot/dev/client3/rdock/2013.1/src/exe/rbdock.cxx#4 $)

>  <Rbt.Library>
libRbt.so (2013.1, Build901 2013/11/27)

>  <Rbt.Parameter_File>
/export/apps/rDock/src/rDock_2013.1_src/data/scripts/dock_solv.prm

>  <Rbt.Receptor>
prm/pocket_docking_7.prm

>  <SCORE>
-11.6884

>  <SCORE.INTER>
-10.5511

>  <SCORE.INTER.CONST>
1

>  <SCORE.INTER.POLAR>
0

>  <SCORE.INTER.ROT>
3

>  <SCORE.INTER.SOLV>
16.7743

>  <SCORE.INTER.VDW>
-18.2255

>  <SCORE.INTER.norm>
-0.659442

>  <SCORE.INTRA>
-1.13737

>  <SCORE.INTRA.DIHEDRAL>
-1.4247

>  <SCORE.INTRA.DIHEDRAL.0>
2.05999

>  <SCORE.INTRA.POLAR>
0

>  <SCORE.INTRA.POLAR.0>
0

>  <SCORE.INTRA.REPUL>
0

>  <SCORE.INTRA.REPUL.0>
0

>  <SCORE.INTRA.SOLV>
-0.93358

>  <SCORE.INTRA.SOLV.lig_0>
-58.7001

>  <SCORE.INTRA.VDW>
0.0417701

>  <SCORE.INTRA.VDW.0>
-0.401036

>  <SCORE.INTRA.norm>
-0.0710855

>  <SCORE.RESTR>
0

>  <SCORE.RESTR.CAVITY>
0

>  <SCORE.RESTR.norm>
0

>  <SCORE.SYSTEM>
0

>  <SCORE.SYSTEM.CONST>
0

>  <SCORE.SYSTEM.DIHEDRAL>
0

>  <SCORE.SYSTEM.SOLV>
0

>  <SCORE.SYSTEM.norm>
0

>  <SCORE.heavy>
16

>  <SCORE.norm>
-0.730528

>  <RMSD>
6.130

$$$$
ligand
 OpenBabel11021811463D
libRbt.so/2013.1/901 2013/11/27
 16 16  0  0  0  0  0  0  0  0999 V2000
   43.3949   38.8440   52.5532 P   0  0  2  0  0  0  0  0  0  0  0  0
   41.9879   38.3794   52.6364 O   0  0  0  0  0  0  0  0  0  0  0  0
   43.7154   39.7948   53.8159 O   0  5  0  0  0  0  0  0  0  0  0  0
   43.5910   39.6689   51.1753 O   0  0  0  0  0  0  0  0  0  0  0  0
   47.3686   34.8321   53.3428 C   0  0  2  0  0  0  0  0  0  0  0  0
   46.7630   33.7989   52.5329 O   0  0  0  0  0  0  0  0  0  0  0  0
   47.6230   34.3267   54.7926 C   0  0  2  0  0  0  0  0  0  0  0  0
   48.4927   33.1366   54.7546 N   0  0  0  0  0  0  0  0  0  0  0  0
   46.2658   33.9702   55.4379 C   0  0  1  0  0  0  0  0  0  0  0  0
   46.4695   33.5055   56.7829 O   0  0  0  0  0  0  0  0  0  0  0  0
   45.4048   35.2504   55.4482 C   0  0  2  0  0  0  0  0  0  0  0  0
   44.1271   34.9538   56.0368 O   0  0  0  0  0  0  0  0  0  0  0  0
   45.2120   35.7208   53.9737 C   0  0  2  0  0  0  0  0  0  0  0  0
   46.5010   36.0105   53.3553 O   0  0  0  0  0  0  0  0  0  0  0  0
   44.3750   37.0090   53.9131 C   0  0  0  0  0  0  0  0  0  0  0  0
   44.3759   37.5549   52.5823 O   0  0  0  0  0  0  0  0  0  0  0  0
  1  2  1  1  0  0  0
  1  3  1  0  0  0  0
  1  4  2  0  0  0  0
  1 16  1  0  0  0  0
  5  6  1  6  0  0  0
  5  7  1  0  0  0  0
  5 14  1  0  0  0  0
  7  8  1  6  0  0  0
  7  9  1  0  0  0  0
  9 10  1  1  0  0  0
  9 11  1  0  0  0  0
 11 12  1  6  0  0  0
 11 13  1  0  0  0  0
 13 14  1  0  0  0  0
 13 15  1  1  0  0  0
 15 16  1  0  0  0  0
M  CHG  1   3  -1
M  END
>  <CHROM.1>
170.91832733,175.90723706,-72.18652331,45.16036698,36.30142791,53.81839847
-2.34311804,-0.67568174,2.13880937

>  <Name>
ligand

>  <RI>
0

>  <Rbt.Current_Directory>
/home/itssahil/PROJECTS/Mol_Feturizer/New_Systems/rnas/3B4A

>  <Rbt.Executable>
rbdock ($Id: //depot/dev/client3/rdock/2013.1/src/exe/rbdock.cxx#4 $)

>  <Rbt.Library>
libRbt.so (2013.1, Build901 2013/11/27)

>  <Rbt.Parameter_File>
/export/apps/rDock/src/rDock_2013.1_src/data/scripts/dock_solv.prm

>  <Rbt.Receptor>
prm/pocket_docking_7.prm

>  <SCORE>
-11.6831

>  <SCORE.INTER>
-10.5371

>  <SCORE.INTER.CONST>
1

>  <SCORE.INTER.POLAR>
0

>  <SCORE.INTER.ROT>
3

>  <SCORE.INTER.SOLV>
16.7723

>  <SCORE.INTER.VDW>
-18.2155

>  <SCORE.INTER.norm>
-0.658567

>  <SCORE.INTRA>
-1.14605

>  <SCORE.INTRA.DIHEDRAL>
-1.44945

>  <SCORE.INTRA.DIHEDRAL.0>
2.05999

>  <SCORE.INTRA.POLAR>
0

>  <SCORE.INTRA.POLAR.0>
0

>  <SCORE.INTRA.REPUL>
0

>  <SCORE.INTRA.REPUL.0>
0

>  <SCORE.INTRA.SOLV>
-0.928734

>  <SCORE.INTRA.SOLV.lig_0>
-58.7001

>  <SCORE.INTRA.VDW>
0.0430388

>  <SCORE.INTRA.VDW.0>
-0.401036

>  <SCORE.INTRA.norm>
-0.0716284

>  <SCORE.RESTR>
0

>  <SCORE.RESTR.CAVITY>
0

>  <SCORE.RESTR.norm>
0

>  <SCORE.SYSTEM>
0

>  <SCORE.SYSTEM.CONST>
0

>  <SCORE.SYSTEM.DIHEDRAL>
0

>  <SCORE.SYSTEM.SOLV>
0

>  <SCORE.SYSTEM.norm>
0

>  <SCORE.heavy>
16

>  <SCORE.norm>
-0.730195

>  <RMSD>
6.131

$$$$
ligand
 OpenBabel11021811463D
libRbt.so/2013.1/901 2013/11/27
 16 16  0  0  0  0  0  0  0  0999 V2000
   43.3988   38.8410   52.5290 P   0  0  2  0  0  0  0  0  0  0  0  0
   41.9896   38.3813   52.6028 O   0  0  0  0  0  0  0  0  0  0  0  0
   43.7125   39.7951   53.7909 O   0  5  0  0  0  0  0  0  0  0  0  0
   43.6082   39.6604   51.1498 O   0  0  0  0  0  0  0  0  0  0  0  0
   47.3596   34.8259   53.3497 C   0  0  2  0  0  0  0  0  0  0  0  0
   46.7481   33.7832   52.5566 O   0  0  0  0  0  0  0  0  0  0  0  0
   47.6204   34.3392   54.8048 C   0  0  2  0  0  0  0  0  0  0  0  0
   48.4878   33.1472   54.7782 N   0  0  0  0  0  0  0  0  0  0  0  0
   46.2658   33.9938   55.4615 C   0  0  1  0  0  0  0  0  0  0  0  0
   46.4755   33.5466   56.8116 O   0  0  0  0  0  0  0  0  0  0  0  0
   45.4072   35.2756   55.4592 C   0  0  2  0  0  0  0  0  0  0  0  0
   44.1319   34.9891   56.0581 O   0  0  0  0  0  0  0  0  0  0  0  0
   45.2078   35.7269   53.9796 C   0  0  2  0  0  0  0  0  0  0  0  0
   46.4942   36.0060   53.3509 O   0  0  0  0  0  0  0  0  0  0  0  0
   44.3728   37.0157   53.9062 C   0  0  0  0  0  0  0  0  0  0  0  0
   44.3752   37.5488   52.5702 O   0  0  0  0  0  0  0  0  0  0  0  0
  1  2  1  1  0  0  0
  1  3  1  0  0  0  0
  1  4  2  0  0  0  0
  1 16  1  0  0  0  0
  5  6  1  6  0  0  0
  5  7  1  0  0  0  0
  5 14  1  0  0  0  0
  7  8  1  6  0  0  0
  7  9  1  0  0  0  0
  9 10  1  1  0  0  0
  9 11  1  0  0  0  0
 11 12  1  6  0  0  0
 11 13  1  0  0  0  0
 13 14  1  0  0  0  0
 13 15  1  1  0  0  0
 15 16  1  0  0  0  0
M  CHG  1   3  -1
M  END
>  <CHROM.1>
170.53778500,176.03313635,-72.76839913,45.16001248,36.30795880,53.81771609
-2.34542120,-0.68080816,2.12500780

>  <Name>
ligand

>  <RI>
0

>  <Rbt.Current_Directory>
/home/itssahil/PROJECTS/Mol_Feturizer/New_Systems/rnas/3B4A

>  <Rbt.Executable>
rbdock ($Id: //depot/dev/client3/rdock/2013.1/src/exe/rbdock.cxx#4 $)

>  <Rbt.Library>
libRbt.so (2013.1, Build901 2013/11/27)

>  <Rbt.Parameter_File>
/export/apps/rDock/src/rDock_2013.1_src/data/scripts/dock_solv.prm

>  <Rbt.Receptor>
prm/pocket_docking_8.prm

>  <SCORE>
-11.6717

>  <SCORE.INTER>
-10.5612

>  <SCORE.INTER.CONST>
1

>  <SCORE.INTER.POLAR>
0

>  <SCORE.INTER.ROT>
3

>  <SCORE.INTER.SOLV>
16.8969

>  <SCORE.INTER.VDW>
-18.2731

>  <SCORE.INTER.norm>
-0.660073

>  <SCORE.INTRA>
-1.11056

>  <SCORE.INTRA.DIHEDRAL>
-1.4078

>  <SCORE.INTRA.DIHEDRAL.0>
2.05999

>  <SCORE.INTRA.POLAR>
0

>  <SCORE.INTRA.POLAR.0>
0

>  <SCORE.INTRA.REPUL>
0

>  <SCORE.INTRA.REPUL.0>
0

>  <SCORE.INTRA.SOLV>
-0.92084

>  <SCORE.INTRA.SOLV.lig_0>
-58.7001

>  <SCORE.INTRA.VDW>
0.0537536

>  <SCORE.INTRA.VDW.0>
-0.401036

>  <SCORE.INTRA.norm>
-0.0694103

>  <SCORE.RESTR>
0

>  <SCORE.RESTR.CAVITY>
0

>  <SCORE.RESTR.norm>
0

>  <SCORE.SYSTEM>
0

>  <SCORE.SYSTEM.CONST>
0

>  <SCORE.SYSTEM.DIHEDRAL>
0

>  <SCORE.SYSTEM.SOLV>
0

>  <SCORE.SYSTEM.norm>
0

>  <SCORE.heavy>
16

>  <SCORE.norm>
-0.729483

>  <RMSD>
6.131

$$$$
ligand
 OpenBabel11021811463D
libRbt.so/2013.1/901 2013/11/27
 16 16  0  0  0  0  0  0  0  0999 V2000
   43.3983   38.8448   52.5444 P   0  0  2  0  0  0  0  0  0  0  0  0
   41.9952   38.3658   52.6118 O   0  0  0  0  0  0  0  0  0  0  0  0
   43.6957   39.7959   53.8124 O   0  5  0  0  0  0  0  0  0  0  0  0
   43.6005   39.6746   51.1704 O   0  0  0  0  0  0  0  0  0  0  0  0
   47.3778   34.8447   53.3534 C   0  0  2  0  0  0  0  0  0  0  0  0
   46.7824   33.8113   52.5361 O   0  0  0  0  0  0  0  0  0  0  0  0
   47.6233   34.3362   54.8037 C   0  0  2  0  0  0  0  0  0  0  0  0
   48.4980   33.1497   54.7690 N   0  0  0  0  0  0  0  0  0  0  0  0
   46.2627   33.9725   55.4377 C   0  0  1  0  0  0  0  0  0  0  0  0
   46.4581   33.5049   56.7830 O   0  0  0  0  0  0  0  0  0  0  0  0
   45.3965   35.2493   55.4450 C   0  0  2  0  0  0  0  0  0  0  0  0
   44.1156   34.9459   56.0232 O   0  0  0  0  0  0  0  0  0  0  0  0
   45.2129   35.7230   53.9704 C   0  0  2  0  0  0  0  0  0  0  0  0
   46.5054   36.0195   53.3625 O   0  0  0  0  0  0  0  0  0  0  0  0
   44.3713   37.0080   53.9071 C   0  0  0  0  0  0  0  0  0  0  0  0
   44.3919   37.5656   52.5812 O   0  0  0  0  0  0  0  0  0  0  0  0
  1  2  1  1  0  0  0
  1  3  1  0  0  0  0
  1  4  2  0  0  0  0
  1 16  1  0  0  0  0
  5  6  1  6  0  0  0
  5  7  1  0  0  0  0
  5 14  1  0  0  0  0
  7  8  1  6  0  0  0
  7  9  1  0  0  0  0
  9 10  1  1  0  0  0
  9 11  1  0  0  0  0
 11 12  1  6  0  0  0
 11 13  1  0  0  0  0
 13 14  1  0  0  0  0
 13 15  1  1  0  0  0
 15 16  1  0  0  0  0
M  CHG  1   3  -1
M  END
>  <CHROM.1>
170.29042482,175.54311034,-71.56839984,45.16170634,36.30458955,53.81620780
-2.33691303,-0.66853932,2.14554378

>  <Name>
ligand

>  <RI>
0

>  <Rbt.Current_Directory>
/home/itssahil/PROJECTS/Mol_Feturizer/New_Systems/rnas/3B4A

>  <Rbt.Executable>
rbdock ($Id: //depot/dev/client3/rdock/2013.1/src/exe/rbdock.cxx#4 $)

>  <Rbt.Library>
libRbt.so (2013.1, Build901 2013/11/27)

>  <Rbt.Parameter_File>
/export/apps/rDock/src/rDock_2013.1_src/data/scripts/dock_solv.prm

>  <Rbt.Receptor>
prm/pocket_docking_8.prm

>  <SCORE>
-11.6962

>  <SCORE.INTER>
-10.5599

>  <SCORE.INTER.CONST>
1

>  <SCORE.INTER.POLAR>
0

>  <SCORE.INTER.ROT>
3

>  <SCORE.INTER.SOLV>
16.8217

>  <SCORE.INTER.VDW>
-18.2472

>  <SCORE.INTER.norm>
-0.659992

>  <SCORE.INTRA>
-1.13632

>  <SCORE.INTRA.DIHEDRAL>
-1.41602

>  <SCORE.INTRA.DIHEDRAL.0>
2.05999

>  <SCORE.INTRA.POLAR>
0

>  <SCORE.INTRA.POLAR.0>
0

>  <SCORE.INTRA.REPUL>
0

>  <SCORE.INTRA.REPUL.0>
0

>  <SCORE.INTRA.SOLV>
-0.935109

>  <SCORE.INTRA.SOLV.lig_0>
-58.7001

>  <SCORE.INTRA.VDW>
0.0392423

>  <SCORE.INTRA.VDW.0>
-0.401036

>  <SCORE.INTRA.norm>
-0.0710201

>  <SCORE.RESTR>
0

>  <SCORE.RESTR.CAVITY>
0

>  <SCORE.RESTR.norm>
0

>  <SCORE.SYSTEM>
0

>  <SCORE.SYSTEM.CONST>
0

>  <SCORE.SYSTEM.DIHEDRAL>
0

>  <SCORE.SYSTEM.SOLV>
0

>  <SCORE.SYSTEM.norm>
0

>  <SCORE.heavy>
16

>  <SCORE.norm>
-0.731012

>  <RMSD>
6.131

$$$$
ligand
 OpenBabel11021811463D
libRbt.so/2013.1/901 2013/11/27
 16 16  0  0  0  0  0  0  0  0999 V2000
   43.3984   38.8467   52.5694 P   0  0  2  0  0  0  0  0  0  0  0  0
   41.9945   38.3719   52.6460 O   0  0  0  0  0  0  0  0  0  0  0  0
   43.7088   39.7922   53.8385 O   0  5  0  0  0  0  0  0  0  0  0  0
   43.5925   39.6810   51.1969 O   0  0  0  0  0  0  0  0  0  0  0  0
   47.4250   34.8913   53.3793 C   0  0  2  0  0  0  0  0  0  0  0  0
   46.8552   33.8607   52.5408 O   0  0  0  0  0  0  0  0  0  0  0  0
   47.6579   34.3675   54.8262 C   0  0  2  0  0  0  0  0  0  0  0  0
   48.5494   33.1936   54.7884 N   0  0  0  0  0  0  0  0  0  0  0  0
   46.2940   33.9770   55.4368 C   0  0  1  0  0  0  0  0  0  0  0  0
   46.4776   33.4947   56.7785 O   0  0  0  0  0  0  0  0  0  0  0  0
   45.4102   35.2416   55.4486 C   0  0  2  0  0  0  0  0  0  0  0  0
   44.1259   34.9133   56.0051 O   0  0  0  0  0  0  0  0  0  0  0  0
   45.2401   35.7319   53.9777 C   0  0  2  0  0  0  0  0  0  0  0  0
   46.5365   36.0540   53.3915 O   0  0  0  0  0  0  0  0  0  0  0  0
   44.3817   37.0060   53.9194 C   0  0  0  0  0  0  0  0  0  0  0  0
   44.3883   37.5643   52.5936 O   0  0  0  0  0  0  0  0  0  0  0  0
  1  2  1  1  0  0  0
  1  3  1  0  0  0  0
  1  4  2  0  0  0  0
  1 16  1  0  0  0  0
  5  6  1  6  0  0  0
  5  7  1  0  0  0  0
  5 14  1  0  0  0  0
  7  8  1  6  0  0  0
  7  9  1  0  0  0  0
  9 10  1  1  0  0  0
  9 11  1  0  0  0  0
 11 12  1  6  0  0  0
 11 13  1  0  0  0  0
 13 14  1  0  0  0  0
 13 15  1  1  0  0  0
 15 16  1  0  0  0  0
M  CHG  1   3  -1
M  END
>  <CHROM.1>
171.58554205,176.54423601,-71.86545665,45.18164020,36.31456278,53.83105012
-2.33292292,-0.64955002,2.16100088

>  <Name>
ligand

>  <RI>
0

>  <Rbt.Current_Directory>
/home/itssahil/PROJECTS/Mol_Feturizer/New_Systems/rnas/3B4A

>  <Rbt.Executable>
rbdock ($Id: //depot/dev/client3/rdock/2013.1/src/exe/rbdock.cxx#4 $)

>  <Rbt.Library>
libRbt.so (2013.1, Build901 2013/11/27)

>  <Rbt.Parameter_File>
/export/apps/rDock/src/rDock_2013.1_src/data/scripts/dock_solv.prm

>  <Rbt.Receptor>
prm/pocket_docking_6.prm

>  <SCORE>
-11.6749

>  <SCORE.INTER>
-10.4812

>  <SCORE.INTER.CONST>
1

>  <SCORE.INTER.POLAR>
0

>  <SCORE.INTER.ROT>
3

>  <SCORE.INTER.SOLV>
16.9411

>  <SCORE.INTER.VDW>
-18.2345

>  <SCORE.INTER.norm>
-0.655076

>  <SCORE.INTRA>
-1.19373

>  <SCORE.INTRA.DIHEDRAL>
-1.52547

>  <SCORE.INTRA.DIHEDRAL.0>
2.05999

>  <SCORE.INTRA.POLAR>
0

>  <SCORE.INTRA.POLAR.0>
0

>  <SCORE.INTRA.REPUL>
0

>  <SCORE.INTRA.REPUL.0>
0

>  <SCORE.INTRA.SOLV>
-0.930342

>  <SCORE.INTRA.SOLV.lig_0>
-58.7001

>  <SCORE.INTRA.VDW>
0.0341744

>  <SCORE.INTRA.VDW.0>
-0.401036

>  <SCORE.INTRA.norm>
-0.0746081

>  <SCORE.RESTR>
0

>  <SCORE.RESTR.CAVITY>
0

>  <SCORE.RESTR.norm>
0

>  <SCORE.SYSTEM>
0

>  <SCORE.SYSTEM.CONST>
0

>  <SCORE.SYSTEM.DIHEDRAL>
0

>  <SCORE.SYSTEM.SOLV>
0

>  <SCORE.SYSTEM.norm>
0

>  <SCORE.heavy>
16

>  <SCORE.norm>
-0.729684

>  <RMSD>
6.132

$$$$
ligand
 OpenBabel11021811463D
libRbt.so/2013.1/901 2013/11/27
 16 16  0  0  0  0  0  0  0  0999 V2000
   43.3972   38.8479   52.5524 P   0  0  2  0  0  0  0  0  0  0  0  0
   41.9882   38.3855   52.6086 O   0  0  0  0  0  0  0  0  0  0  0  0
   43.7009   39.7811   53.8322 O   0  5  0  0  0  0  0  0  0  0  0  0
   43.6155   39.6904   51.1887 O   0  0  0  0  0  0  0  0  0  0  0  0
   47.3940   34.8585   53.3694 C   0  0  2  0  0  0  0  0  0  0  0  0
   46.8089   33.8310   52.5375 O   0  0  0  0  0  0  0  0  0  0  0  0
   47.6257   34.3384   54.8178 C   0  0  2  0  0  0  0  0  0  0  0  0
   48.5029   33.1538   54.7821 N   0  0  0  0  0  0  0  0  0  0  0  0
   46.2594   33.9670   55.4349 C   0  0  1  0  0  0  0  0  0  0  0  0
   46.4420   33.4886   56.7782 O   0  0  0  0  0  0  0  0  0  0  0  0
   45.3909   35.2422   55.4440 C   0  0  2  0  0  0  0  0  0  0  0  0
   44.1047   34.9318   56.0066 O   0  0  0  0  0  0  0  0  0  0  0  0
   45.2215   35.7279   53.9716 C   0  0  2  0  0  0  0  0  0  0  0  0
   46.5195   36.0317   53.3794 O   0  0  0  0  0  0  0  0  0  0  0  0
   44.3781   37.0119   53.9105 C   0  0  0  0  0  0  0  0  0  0  0  0
   44.3750   37.5563   52.5790 O   0  0  0  0  0  0  0  0  0  0  0  0
  1  2  1  1  0  0  0
  1  3  1  0  0  0  0
  1  4  2  0  0  0  0
  1 16  1  0  0  0  0
  5  6  1  6  0  0  0
  5  7  1  0  0  0  0
  5 14  1  0  0  0  0
  7  8  1  6  0  0  0
  7  9  1  0  0  0  0
  9 10  1  1  0  0  0
  9 11  1  0  0  0  0
 11 12  1  6  0  0  0
 11 13  1  0  0  0  0
 13 14  1  0  0  0  0
 13 15  1  1  0  0  0
 15 16  1  0  0  0  0
M  CHG  1   3  -1
M  END
>  <CHROM.1>
172.20436920,176.37243529,-73.55188691,45.16379502,36.30666314,53.82139561
-2.33104616,-0.65989861,2.15660182

>  <Name>
ligand

>  <RI>
0

>  <Rbt.Current_Directory>
/home/itssahil/PROJECTS/Mol_Feturizer/New_Systems/rnas/3B4A

>  <Rbt.Executable>
rbdock ($Id: //depot/dev/client3/rdock/2013.1/src/exe/rbdock.cxx#4 $)

>  <Rbt.Library>
libRbt.so (2013.1, Build901 2013/11/27)

>  <Rbt.Parameter_File>
/export/apps/rDock/src/rDock_2013.1_src/data/scripts/dock_solv.prm

>  <Rbt.Receptor>
prm/pocket_docking_6.prm

>  <SCORE>
-11.6937

>  <SCORE.INTER>
-10.5457

>  <SCORE.INTER.CONST>
1

>  <SCORE.INTER.POLAR>
0

>  <SCORE.INTER.ROT>
3

>  <SCORE.INTER.SOLV>
16.8208

>  <SCORE.INTER.VDW>
-18.2374

>  <SCORE.INTER.norm>
-0.659108

>  <SCORE.INTRA>
-1.14797

>  <SCORE.INTRA.DIHEDRAL>
-1.48919

>  <SCORE.INTRA.DIHEDRAL.0>
2.05999

>  <SCORE.INTRA.POLAR>
0

>  <SCORE.INTRA.POLAR.0>
0

>  <SCORE.INTRA.REPUL>
0

>  <SCORE.INTRA.REPUL.0>
0

>  <SCORE.INTRA.SOLV>
-0.916293

>  <SCORE.INTRA.SOLV.lig_0>
-58.7001

>  <SCORE.INTRA.VDW>
0.054767

>  <SCORE.INTRA.VDW.0>
-0.401036

>  <SCORE.INTRA.norm>
-0.0717483

>  <SCORE.RESTR>
0

>  <SCORE.RESTR.CAVITY>
0

>  <SCORE.RESTR.norm>
0

>  <SCORE.SYSTEM>
0

>  <SCORE.SYSTEM.CONST>
0

>  <SCORE.SYSTEM.DIHEDRAL>
0

>  <SCORE.SYSTEM.SOLV>
0

>  <SCORE.SYSTEM.norm>
0

>  <SCORE.heavy>
16

>  <SCORE.norm>
-0.730856

>  <RMSD>
6.132

$$$$
ligand
 OpenBabel11021811463D
libRbt.so/2013.1/901 2013/11/27
 16 16  0  0  0  0  0  0  0  0999 V2000
   43.3965   38.8460   52.5551 P   0  0  2  0  0  0  0  0  0  0  0  0
   41.9897   38.3775   52.6187 O   0  0  0  0  0  0  0  0  0  0  0  0
   43.7006   39.7866   53.8295 O   0  5  0  0  0  0  0  0  0  0  0  0
   43.6058   39.6832   51.1867 O   0  0  0  0  0  0  0  0  0  0  0  0
   47.3896   34.8545   53.3653 C   0  0  2  0  0  0  0  0  0  0  0  0
   46.8007   33.8247   52.5388 O   0  0  0  0  0  0  0  0  0  0  0  0
   47.6276   34.3384   54.8141 C   0  0  2  0  0  0  0  0  0  0  0  0
   48.5045   33.1535   54.7779 N   0  0  0  0  0  0  0  0  0  0  0  0
   46.2640   33.9690   55.4382 C   0  0  1  0  0  0  0  0  0  0  0  0
   46.4524   33.4942   56.7820 O   0  0  0  0  0  0  0  0  0  0  0  0
   45.3957   35.2443   55.4476 C   0  0  2  0  0  0  0  0  0  0  0  0
   44.1119   34.9356   56.0167 O   0  0  0  0  0  0  0  0  0  0  0  0
   45.2198   35.7259   53.9746 C   0  0  2  0  0  0  0  0  0  0  0  0
   46.5153   36.0279   53.3759 O   0  0  0  0  0  0  0  0  0  0  0  0
   44.3764   37.0099   53.9136 C   0  0  0  0  0  0  0  0  0  0  0  0
   44.3802   37.5590   52.5841 O   0  0  0  0  0  0  0  0  0  0  0  0
  1  2  1  1  0  0  0
  1  3  1  0  0  0  0
  1  4  2  0  0  0  0
  1 16  1  0  0  0  0
  5  6  1  6  0  0  0
  5  7  1  0  0  0  0
  5 14  1  0  0  0  0
  7  8  1  6  0  0  0
  7  9  1  0  0  0  0
  9 10  1  1  0  0  0
  9 11  1  0  0  0  0
 11 12  1  6  0  0  0
 11 13  1  0  0  0  0
 13 14  1  0  0  0  0
 13 15  1  1  0  0  0
 15 16  1  0  0  0  0
M  CHG  1   3  -1
M  END
>  <CHROM.1>
171.53650584,176.09570216,-72.77031163,45.16408860,36.30570976,53.82319153
-2.33428093,-0.66302096,2.15215930

>  <Name>
ligand

>  <RI>
0

>  <Rbt.Current_Directory>
/home/itssahil/PROJECTS/Mol_Feturizer/New_Systems/rnas/3B4A

>  <Rbt.Executable>
rbdock ($Id: //depot/dev/client3/rdock/2013.1/src/exe/rbdock.cxx#4 $)

>  <Rbt.Library>
libRbt.so (2013.1, Build901 2013/11/27)

>  <Rbt.Parameter_File>
/export/apps/rDock/src/rDock_2013.1_src/data/scripts/dock_solv.prm

>  <Rbt.Receptor>
prm/pocket_docking_7.prm

>  <SCORE>
-11.6954

>  <SCORE.INTER>
-10.5446

>  <SCORE.INTER.CONST>
1

>  <SCORE.INTER.POLAR>
0

>  <SCORE.INTER.ROT>
3

>  <SCORE.INTER.SOLV>
16.8438

>  <SCORE.INTER.VDW>
-18.2443

>  <SCORE.INTER.norm>
-0.659036

>  <SCORE.INTRA>
-1.15078

>  <SCORE.INTRA.DIHEDRAL>
-1.47225

>  <SCORE.INTRA.DIHEDRAL.0>
2.05999

>  <SCORE.INTRA.POLAR>
0

>  <SCORE.INTRA.POLAR.0>
0

>  <SCORE.INTRA.REPUL>
0

>  <SCORE.INTRA.REPUL.0>
0

>  <SCORE.INTRA.SOLV>
-0.923698

>  <SCORE.INTRA.SOLV.lig_0>
-58.7001

>  <SCORE.INTRA.VDW>
0.047195

>  <SCORE.INTRA.VDW.0>
-0.401036

>  <SCORE.INTRA.norm>
-0.0719238

>  <SCORE.RESTR>
0

>  <SCORE.RESTR.CAVITY>
0

>  <SCORE.RESTR.norm>
0

>  <SCORE.SYSTEM>
0

>  <SCORE.SYSTEM.CONST>
0

>  <SCORE.SYSTEM.DIHEDRAL>
0

>  <SCORE.SYSTEM.SOLV>
0

>  <SCORE.SYSTEM.norm>
0

>  <SCORE.heavy>
16

>  <SCORE.norm>
-0.730959

>  <RMSD>
6.132

$$$$
ligand
 OpenBabel11021811463D
libRbt.so/2013.1/901 2013/11/27
 16 16  0  0  0  0  0  0  0  0999 V2000
   43.3983   38.8475   52.5622 P   0  0  2  0  0  0  0  0  0  0  0  0
   41.9936   38.3713   52.6127 O   0  0  0  0  0  0  0  0  0  0  0  0
   43.6885   39.7810   53.8449 O   0  5  0  0  0  0  0  0  0  0  0  0
   43.6129   39.6949   51.2009 O   0  0  0  0  0  0  0  0  0  0  0  0
   47.4189   34.8846   53.3821 C   0  0  2  0  0  0  0  0  0  0  0  0
   46.8467   33.8561   52.5425 O   0  0  0  0  0  0  0  0  0  0  0  0
   47.6472   34.3600   54.8294 C   0  0  2  0  0  0  0  0  0  0  0  0
   48.5344   33.1828   54.7931 N   0  0  0  0  0  0  0  0  0  0  0  0
   46.2808   33.9746   55.4376 C   0  0  1  0  0  0  0  0  0  0  0  0
   46.4602   33.4916   56.7796 O   0  0  0  0  0  0  0  0  0  0  0  0
   45.4017   35.2425   55.4477 C   0  0  2  0  0  0  0  0  0  0  0  0
   44.1152   34.9189   56.0020 O   0  0  0  0  0  0  0  0  0  0  0  0
   45.2361   35.7334   53.9766 C   0  0  2  0  0  0  0  0  0  0  0  0
   46.5346   36.0506   53.3927 O   0  0  0  0  0  0  0  0  0  0  0  0
   44.3825   37.0107   53.9167 C   0  0  0  0  0  0  0  0  0  0  0  0
   44.3884   37.5654   52.5894 O   0  0  0  0  0  0  0  0  0  0  0  0
  1  2  1  1  0  0  0
  1  3  1  0  0  0  0
  1  4  2  0  0  0  0
  1 16  1  0  0  0  0
  5  6  1  6  0  0  0
  5  7  1  0  0  0  0
  5 14  1  0  0  0  0
  7  8  1  6  0  0  0
  7  9  1  0  0  0  0
  9 10  1  1  0  0  0
  9 11  1  0  0  0  0
 11 12  1  6  0  0  0
 11 13  1  0  0  0  0
 13 14  1  0  0  0  0
 13 15  1  1  0  0  0
 15 16  1  0  0  0  0
M  CHG  1   3  -1
M  END
>  <CHROM.1>
171.85752477,176.28614762,-73.00718825,45.17614899,36.31343336,53.82886031
-2.33036131,-0.65053431,2.16175343

>  <Name>
ligand

>  <RI>
0

>  <Rbt.Current_Directory>
/home/itssahil/PROJECTS/Mol_Feturizer/New_Systems/rnas/3B4A

>  <Rbt.Executable>
rbdock ($Id: //depot/dev/client3/rdock/2013.1/src/exe/rbdock.cxx#4 $)

>  <Rbt.Library>
libRbt.so (2013.1, Build901 2013/11/27)

>  <Rbt.Parameter_File>
/export/apps/rDock/src/rDock_2013.1_src/data/scripts/dock_solv.prm

>  <Rbt.Receptor>
prm/pocket_docking_6.prm

>  <SCORE>
-11.6797

>  <SCORE.INTER>
-10.5234

>  <SCORE.INTER.CONST>
1

>  <SCORE.INTER.POLAR>
0

>  <SCORE.INTER.ROT>
3

>  <SCORE.INTER.SOLV>
16.9229

>  <SCORE.INTER.VDW>
-18.2565

>  <SCORE.INTER.norm>
-0.65771

>  <SCORE.INTRA>
-1.15634

>  <SCORE.INTRA.DIHEDRAL>
-1.48866

>  <SCORE.INTRA.DIHEDRAL.0>
2.05999

>  <SCORE.INTRA.POLAR>
0

>  <SCORE.INTRA.POLAR.0>
0

>  <SCORE.INTRA.REPUL>
0

>  <SCORE.INTRA.REPUL.0>
0

>  <SCORE.INTRA.SOLV>
-0.921202

>  <SCORE.INTRA.SOLV.lig_0>
-58.7001

>  <SCORE.INTRA.VDW>
0.0485917

>  <SCORE.INTRA.VDW.0>
-0.401036

>  <SCORE.INTRA.norm>
-0.0722713

>  <SCORE.RESTR>
0

>  <SCORE.RESTR.CAVITY>
0

>  <SCORE.RESTR.norm>
0

>  <SCORE.SYSTEM>
0

>  <SCORE.SYSTEM.CONST>
0

>  <SCORE.SYSTEM.DIHEDRAL>
0

>  <SCORE.SYSTEM.SOLV>
0

>  <SCORE.SYSTEM.norm>
0

>  <SCORE.heavy>
16

>  <SCORE.norm>
-0.729981

>  <RMSD>
6.133

$$$$
ligand
 OpenBabel11021811463D
libRbt.so/2013.1/901 2013/11/27
 16 16  0  0  0  0  0  0  0  0999 V2000
   42.9870   39.1133   52.5185 P   0  0  2  0  0  0  0  0  0  0  0  0
   41.7549   38.4445   52.0316 O   0  0  0  0  0  0  0  0  0  0  0  0
   42.5989   40.5449   53.1516 O   0  5  0  0  0  0  0  0  0  0  0  0
   43.9981   39.3151   51.2717 O   0  0  0  0  0  0  0  0  0  0  0  0
   44.6592   34.3193   55.3895 C   0  0  2  0  0  0  0  0  0  0  0  0
   44.9410   35.0343   56.6141 O   0  0  0  0  0  0  0  0  0  0  0  0
   45.9311   33.5941   54.8619 C   0  0  2  0  0  0  0  0  0  0  0  0
   46.4300   32.6625   55.8901 N   0  0  0  0  0  0  0  0  0  0  0  0
   47.0077   34.6539   54.5405 C   0  0  1  0  0  0  0  0  0  0  0  0
   48.1943   34.0123   54.0437 O   0  0  0  0  0  0  0  0  0  0  0  0
   46.4280   35.5944   53.4636 C   0  0  2  0  0  0  0  0  0  0  0  0
   47.4029   36.6017   53.1439 O   0  0  0  0  0  0  0  0  0  0  0  0
   45.1438   36.2651   54.0413 C   0  0  2  0  0  0  0  0  0  0  0  0
   44.1493   35.2554   54.3869 O   0  0  0  0  0  0  0  0  0  0  0  0
   44.5023   37.2048   53.0073 C   0  0  0  0  0  0  0  0  0  0  0  0
   43.6734   38.1856   53.6556 O   0  0  0  0  0  0  0  0  0  0  0  0
  1  2  1  6  0  0  0
  1  3  1  0  0  0  0
  1  4  2  0  0  0  0
  1 16  1  0  0  0  0
  5  6  1  1  0  0  0
  5  7  1  0  0  0  0
  5 14  1  0  0  0  0
  7  8  1  1  0  0  0
  7  9  1  0  0  0  0
  9 10  1  6  0  0  0
  9 11  1  0  0  0  0
 11 12  1  1  0  0  0
 11 13  1  0  0  0  0
 13 14  1  0  0  0  0
 13 15  1  6  0  0  0
 15 16  1  0  0  0  0
M  CHG  1   3  -1
M  END
>  <CHROM.1>
-157.67970403,-178.12805932,84.89971563,44.81114184,36.57247584,53.75148969
2.17055165,0.37906670,-0.70467330

>  <Name>
ligand

>  <RI>
0

>  <Rbt.Current_Directory>
/home/itssahil/PROJECTS/Mol_Feturizer/New_Systems/rnas/3B4A

>  <Rbt.Executable>
rbdock ($Id: //depot/dev/client3/rdock/2013.1/src/exe/rbdock.cxx#4 $)

>  <Rbt.Library>
libRbt.so (2013.1, Build901 2013/11/27)

>  <Rbt.Parameter_File>
/export/apps/rDock/src/rDock_2013.1_src/data/scripts/dock_solv.prm

>  <Rbt.Receptor>
prm/pocket_docking_7.prm

>  <SCORE>
-9.59115

>  <SCORE.INTER>
-9.51926

>  <SCORE.INTER.CONST>
1

>  <SCORE.INTER.POLAR>
0

>  <SCORE.INTER.ROT>
3

>  <SCORE.INTER.SOLV>
18.3363

>  <SCORE.INTER.VDW>
-18.0583

>  <SCORE.INTER.norm>
-0.594954

>  <SCORE.INTRA>
-0.071882

>  <SCORE.INTRA.DIHEDRAL>
0.454119

>  <SCORE.INTRA.DIHEDRAL.0>
2.05999

>  <SCORE.INTRA.POLAR>
0

>  <SCORE.INTRA.POLAR.0>
0

>  <SCORE.INTRA.REPUL>
0

>  <SCORE.INTRA.REPUL.0>
0

>  <SCORE.INTRA.SOLV>
-0.887203

>  <SCORE.INTRA.SOLV.lig_0>
-58.7001

>  <SCORE.INTRA.VDW>
0.14466

>  <SCORE.INTRA.VDW.0>
-0.401036

>  <SCORE.INTRA.norm>
-0.00449262

>  <SCORE.RESTR>
0

>  <SCORE.RESTR.CAVITY>
0

>  <SCORE.RESTR.norm>
0

>  <SCORE.SYSTEM>
0

>  <SCORE.SYSTEM.CONST>
0

>  <SCORE.SYSTEM.DIHEDRAL>
0

>  <SCORE.SYSTEM.SOLV>
0

>  <SCORE.SYSTEM.norm>
0

>  <SCORE.heavy>
16

>  <SCORE.norm>
-0.599447

>  <RMSD>
6.133

$$$$
ligand
 OpenBabel11021811463D
libRbt.so/2013.1/901 2013/11/27
 16 16  0  0  0  0  0  0  0  0999 V2000
   43.3936   38.8548   52.5380 P   0  0  2  0  0  0  0  0  0  0  0  0
   41.9858   38.3933   52.6249 O   0  0  0  0  0  0  0  0  0  0  0  0
   43.7172   39.8109   53.7959 O   0  5  0  0  0  0  0  0  0  0  0  0
   43.5898   39.6728   51.1561 O   0  0  0  0  0  0  0  0  0  0  0  0
   47.3522   34.8271   53.3321 C   0  0  2  0  0  0  0  0  0  0  0  0
   46.7330   33.7913   52.5359 O   0  0  0  0  0  0  0  0  0  0  0  0
   47.6148   34.3323   54.7841 C   0  0  2  0  0  0  0  0  0  0  0  0
   48.4760   33.1359   54.7493 N   0  0  0  0  0  0  0  0  0  0  0  0
   46.2604   33.9906   55.4431 C   0  0  1  0  0  0  0  0  0  0  0  0
   46.4717   33.5360   56.7905 O   0  0  0  0  0  0  0  0  0  0  0  0
   45.4083   35.2768   55.4494 C   0  0  2  0  0  0  0  0  0  0  0  0
   44.1333   34.9940   56.0507 O   0  0  0  0  0  0  0  0  0  0  0  0
   45.2069   35.7361   53.9725 C   0  0  2  0  0  0  0  0  0  0  0  0
   46.4928   36.0115   53.3414 O   0  0  0  0  0  0  0  0  0  0  0  0
   44.3782   37.0294   53.9076 C   0  0  0  0  0  0  0  0  0  0  0  0
   44.3722   37.5640   52.5722 O   0  0  0  0  0  0  0  0  0  0  0  0
  1  2  1  1  0  0  0
  1  3  1  0  0  0  0
  1  4  2  0  0  0  0
  1 16  1  0  0  0  0
  5  6  1  6  0  0  0
  5  7  1  0  0  0  0
  5 14  1  0  0  0  0
  7  8  1  6  0  0  0
  7  9  1  0  0  0  0
  9 10  1  1  0  0  0
  9 11  1  0  0  0  0
 11 12  1  6  0  0  0
 11 13  1  0  0  0  0
 13 14  1  0  0  0  0
 13 15  1  1  0  0  0
 15 16  1  0  0  0  0
M  CHG  1   3  -1
M  END
>  <CHROM.1>
170.91682006,175.60800016,-72.54367990,45.15559425,36.31390307,53.81200709
-2.34825905,-0.68503430,2.12652667

>  <Name>
ligand

>  <RI>
0

>  <Rbt.Current_Directory>
/home/itssahil/PROJECTS/Mol_Feturizer/New_Systems/rnas/3B4A

>  <Rbt.Executable>
rbdock ($Id: //depot/dev/client3/rdock/2013.1/src/exe/rbdock.cxx#4 $)

>  <Rbt.Library>
libRbt.so (2013.1, Build901 2013/11/27)

>  <Rbt.Parameter_File>
/export/apps/rDock/src/rDock_2013.1_src/data/scripts/dock_solv.prm

>  <Rbt.Receptor>
prm/pocket_docking_8.prm

>  <SCORE>
-11.6847

>  <SCORE.INTER>
-10.5577

>  <SCORE.INTER.CONST>
1

>  <SCORE.INTER.POLAR>
0

>  <SCORE.INTER.ROT>
3

>  <SCORE.INTER.SOLV>
16.7407

>  <SCORE.INTER.VDW>
-18.2187

>  <SCORE.INTER.norm>
-0.659854

>  <SCORE.INTRA>
-1.127

>  <SCORE.INTRA.DIHEDRAL>
-1.42341

>  <SCORE.INTRA.DIHEDRAL.0>
2.05999

>  <SCORE.INTRA.POLAR>
0

>  <SCORE.INTRA.POLAR.0>
0

>  <SCORE.INTRA.REPUL>
0

>  <SCORE.INTRA.REPUL.0>
0

>  <SCORE.INTRA.SOLV>
-0.926834

>  <SCORE.INTRA.SOLV.lig_0>
-58.7001

>  <SCORE.INTRA.VDW>
0.0481222

>  <SCORE.INTRA.VDW.0>
-0.401036

>  <SCORE.INTRA.norm>
-0.0704375

>  <SCORE.RESTR>
0

>  <SCORE.RESTR.CAVITY>
0

>  <SCORE.RESTR.norm>
0

>  <SCORE.SYSTEM>
0

>  <SCORE.SYSTEM.CONST>
0

>  <SCORE.SYSTEM.DIHEDRAL>
0

>  <SCORE.SYSTEM.SOLV>
0

>  <SCORE.SYSTEM.norm>
0

>  <SCORE.heavy>
16

>  <SCORE.norm>
-0.730292

>  <RMSD>
6.135

$$$$
ligand
 OpenBabel11021811463D
libRbt.so/2013.1/901 2013/11/27
 16 16  0  0  0  0  0  0  0  0999 V2000
   43.3932   38.8554   52.5443 P   0  0  2  0  0  0  0  0  0  0  0  0
   41.9837   38.3961   52.6137 O   0  0  0  0  0  0  0  0  0  0  0  0
   43.7070   39.7989   53.8141 O   0  5  0  0  0  0  0  0  0  0  0  0
   43.6039   39.6860   51.1720 O   0  0  0  0  0  0  0  0  0  0  0  0
   47.3476   34.8247   53.3267 C   0  0  2  0  0  0  0  0  0  0  0  0
   46.7277   33.7883   52.5319 O   0  0  0  0  0  0  0  0  0  0  0  0
   47.6141   34.3301   54.7780 C   0  0  2  0  0  0  0  0  0  0  0  0
   48.4766   33.1347   54.7412 N   0  0  0  0  0  0  0  0  0  0  0  0
   46.2616   33.9870   55.4403 C   0  0  1  0  0  0  0  0  0  0  0  0
   46.4766   33.5326   56.7871 O   0  0  0  0  0  0  0  0  0  0  0  0
   45.4082   35.2723   55.4486 C   0  0  2  0  0  0  0  0  0  0  0  0
   44.1349   34.9881   56.0528 O   0  0  0  0  0  0  0  0  0  0  0  0
   45.2028   35.7313   53.9721 C   0  0  2  0  0  0  0  0  0  0  0  0
   46.4870   36.0082   53.3380 O   0  0  0  0  0  0  0  0  0  0  0  0
   44.3726   37.0238   53.9093 C   0  0  0  0  0  0  0  0  0  0  0  0
   44.3688   37.5623   52.5754 O   0  0  0  0  0  0  0  0  0  0  0  0
  1  2  1  1  0  0  0
  1  3  1  0  0  0  0
  1  4  2  0  0  0  0
  1 16  1  0  0  0  0
  5  6  1  6  0  0  0
  5  7  1  0  0  0  0
  5 14  1  0  0  0  0
  7  8  1  6  0  0  0
  7  9  1  0  0  0  0
  9 10  1  1  0  0  0
  9 11  1  0  0  0  0
 11 12  1  6  0  0  0
 11 13  1  0  0  0  0
 13 14  1  0  0  0  0
 13 15  1  1  0  0  0
 15 16  1  0  0  0  0
M  CHG  1   3  -1
M  END
>  <CHROM.1>
170.61187013,175.83131008,-73.16591867,45.15443327,36.31183645,53.81275303
-2.34949837,-0.68637408,2.12671037

>  <Name>
ligand

>  <RI>
0

>  <Rbt.Current_Directory>
/home/itssahil/PROJECTS/Mol_Feturizer/New_Systems/rnas/3B4A

>  <Rbt.Executable>
rbdock ($Id: //depot/dev/client3/rdock/2013.1/src/exe/rbdock.cxx#4 $)

>  <Rbt.Library>
libRbt.so (2013.1, Build901 2013/11/27)

>  <Rbt.Parameter_File>
/export/apps/rDock/src/rDock_2013.1_src/data/scripts/dock_solv.prm

>  <Rbt.Receptor>
prm/pocket_docking_7.prm

>  <SCORE>
-11.6845

>  <SCORE.INTER>
-10.5902

>  <SCORE.INTER.CONST>
1

>  <SCORE.INTER.POLAR>
0

>  <SCORE.INTER.ROT>
3

>  <SCORE.INTER.SOLV>
16.6891

>  <SCORE.INTER.VDW>
-18.2231

>  <SCORE.INTER.norm>
-0.661886

>  <SCORE.INTRA>
-1.09434

>  <SCORE.INTRA.DIHEDRAL>
-1.38891

>  <SCORE.INTRA.DIHEDRAL.0>
2.05999

>  <SCORE.INTRA.POLAR>
0

>  <SCORE.INTRA.POLAR.0>
0

>  <SCORE.INTRA.REPUL>
0

>  <SCORE.INTRA.REPUL.0>
0

>  <SCORE.INTRA.SOLV>
-0.918216

>  <SCORE.INTRA.SOLV.lig_0>
-58.7001

>  <SCORE.INTRA.VDW>
0.0592273

>  <SCORE.INTRA.VDW.0>
-0.401036

>  <SCORE.INTRA.norm>
-0.0683961

>  <SCORE.RESTR>
0

>  <SCORE.RESTR.CAVITY>
0

>  <SCORE.RESTR.norm>
0

>  <SCORE.SYSTEM>
0

>  <SCORE.SYSTEM.CONST>
0

>  <SCORE.SYSTEM.DIHEDRAL>
0

>  <SCORE.SYSTEM.SOLV>
0

>  <SCORE.SYSTEM.norm>
0

>  <SCORE.heavy>
16

>  <SCORE.norm>
-0.730282

>  <RMSD>
6.136

$$$$
ligand
 OpenBabel11021811463D
libRbt.so/2013.1/901 2013/11/27
 16 16  0  0  0  0  0  0  0  0999 V2000
   43.4833   39.0344   52.5343 P   0  0  2  0  0  0  0  0  0  0  0  0
   43.6243   39.7912   53.8031 O   0  0  0  0  0  0  0  0  0  0  0  0
   43.8268   40.0076   51.2949 O   0  5  0  0  0  0  0  0  0  0  0  0
   41.9613   38.4995   52.4127 O   0  0  0  0  0  0  0  0  0  0  0  0
   47.5189   35.1195   53.3622 C   0  0  2  0  0  0  0  0  0  0  0  0
   47.0803   34.1498   52.3837 O   0  0  0  0  0  0  0  0  0  0  0  0
   47.6348   34.4741   54.7736 C   0  0  2  0  0  0  0  0  0  0  0  0
   48.5785   33.3423   54.7225 N   0  0  0  0  0  0  0  0  0  0  0  0
   46.2377   33.9793   55.2079 C   0  0  1  0  0  0  0  0  0  0  0  0
   46.3128   33.3831   56.5139 O   0  0  0  0  0  0  0  0  0  0  0  0
   45.3001   35.2041   55.2419 C   0  0  2  0  0  0  0  0  0  0  0  0
   43.9843   34.7791   55.6361 O   0  0  0  0  0  0  0  0  0  0  0  0
   45.2504   35.8207   53.8101 C   0  0  2  0  0  0  0  0  0  0  0  0
   46.5811   36.2426   53.3872 O   0  0  0  0  0  0  0  0  0  0  0  0
   44.3443   37.0623   53.7779 C   0  0  0  0  0  0  0  0  0  0  0  0
   44.5187   37.7884   52.5484 O   0  0  0  0  0  0  0  0  0  0  0  0
  1  2  1  1  0  0  0
  1  3  1  0  0  0  0
  1  4  2  0  0  0  0
  1 16  1  0  0  0  0
  5  6  1  6  0  0  0
  5  7  1  0  0  0  0
  5 14  1  0  0  0  0
  7  8  1  6  0  0  0
  7  9  1  0  0  0  0
  9 10  1  1  0  0  0
  9 11  1  0  0  0  0
 11 12  1  6  0  0  0
 11 13  1  0  0  0  0
 13 14  1  0  0  0  0
 13 15  1  1  0  0  0
 15 16  1  0  0  0  0
M  CHG  1   3  -1
M  END
>  <CHROM.1>
167.80373756,176.86504084,50.96655280,45.20054359,36.42677934,53.71629292
-2.24948668,-0.54187921,2.31583915

>  <Name>
ligand

>  <RI>
0

>  <Rbt.Current_Directory>
/home/itssahil/PROJECTS/Mol_Feturizer/New_Systems/rnas/3B4A

>  <Rbt.Executable>
rbdock ($Id: //depot/dev/client3/rdock/2013.1/src/exe/rbdock.cxx#4 $)

>  <Rbt.Library>
libRbt.so (2013.1, Build901 2013/11/27)

>  <Rbt.Parameter_File>
/export/apps/rDock/src/rDock_2013.1_src/data/scripts/dock_solv.prm

>  <Rbt.Receptor>
prm/pocket_docking_7.prm

>  <SCORE>
-9.2246

>  <SCORE.INTER>
-8.12388

>  <SCORE.INTER.CONST>
1

>  <SCORE.INTER.POLAR>
0

>  <SCORE.INTER.ROT>
3

>  <SCORE.INTER.SOLV>
19.6606

>  <SCORE.INTER.VDW>
-17.5695

>  <SCORE.INTER.norm>
-0.507742

>  <SCORE.INTRA>
-1.10073

>  <SCORE.INTRA.DIHEDRAL>
-1.36125

>  <SCORE.INTRA.DIHEDRAL.0>
2.05999

>  <SCORE.INTRA.POLAR>
0

>  <SCORE.INTRA.POLAR.0>
0

>  <SCORE.INTRA.REPUL>
0

>  <SCORE.INTRA.REPUL.0>
0

>  <SCORE.INTRA.SOLV>
-1.11153

>  <SCORE.INTRA.SOLV.lig_0>
-58.7001

>  <SCORE.INTRA.VDW>
0.135664

>  <SCORE.INTRA.VDW.0>
-0.401036

>  <SCORE.INTRA.norm>
-0.0687954

>  <SCORE.RESTR>
0

>  <SCORE.RESTR.CAVITY>
0

>  <SCORE.RESTR.norm>
0

>  <SCORE.SYSTEM>
0

>  <SCORE.SYSTEM.CONST>
0

>  <SCORE.SYSTEM.DIHEDRAL>
0

>  <SCORE.SYSTEM.SOLV>
0

>  <SCORE.SYSTEM.norm>
0

>  <SCORE.heavy>
16

>  <SCORE.norm>
-0.576538

>  <RMSD>
6.141

$$$$
ligand
 OpenBabel11021811463D
libRbt.so/2013.1/901 2013/11/27
 16 16  0  0  0  0  0  0  0  0999 V2000
   43.0008   39.1828   52.5255 P   0  0  2  0  0  0  0  0  0  0  0  0
   41.7714   38.5100   52.0372 O   0  0  0  0  0  0  0  0  0  0  0  0
   42.6056   40.6068   53.1712 O   0  5  0  0  0  0  0  0  0  0  0  0
   44.0066   39.4010   51.2772 O   0  0  0  0  0  0  0  0  0  0  0  0
   44.6333   34.3588   55.3739 C   0  0  2  0  0  0  0  0  0  0  0  0
   44.9429   35.0699   56.5941 O   0  0  0  0  0  0  0  0  0  0  0  0
   45.8867   33.6146   54.8289 C   0  0  2  0  0  0  0  0  0  0  0  0
   46.3860   32.6759   55.8505 N   0  0  0  0  0  0  0  0  0  0  0  0
   46.9744   34.6580   54.4919 C   0  0  1  0  0  0  0  0  0  0  0  0
   48.1442   33.9986   53.9789 O   0  0  0  0  0  0  0  0  0  0  0  0
   46.3938   35.6068   53.4228 C   0  0  2  0  0  0  0  0  0  0  0  0
   47.3791   36.5993   53.0890 O   0  0  0  0  0  0  0  0  0  0  0  0
   45.1280   36.2967   54.0180 C   0  0  2  0  0  0  0  0  0  0  0  0
   44.1235   35.3021   54.3781 O   0  0  0  0  0  0  0  0  0  0  0  0
   44.4862   37.2456   52.9927 C   0  0  0  0  0  0  0  0  0  0  0  0
   43.6967   38.2505   53.6531 O   0  0  0  0  0  0  0  0  0  0  0  0
  1  2  1  6  0  0  0
  1  3  1  0  0  0  0
  1  4  2  0  0  0  0
  1 16  1  0  0  0  0
  5  6  1  1  0  0  0
  5  7  1  0  0  0  0
  5 14  1  0  0  0  0
  7  8  1  1  0  0  0
  7  9  1  0  0  0  0
  9 10  1  6  0  0  0
  9 11  1  0  0  0  0
 11 12  1  1  0  0  0
 11 13  1  0  0  0  0
 13 14  1  0  0  0  0
 13 15  1  6  0  0  0
 15 16  1  0  0  0  0
M  CHG  1   3  -1
M  END
>  <CHROM.1>
-156.85167575,-177.81753738,82.56045195,44.79884830,36.61147674,53.73337320
2.16653554,0.40015168,-0.70306293

>  <Name>
ligand

>  <RI>
0

>  <Rbt.Current_Directory>
/home/itssahil/PROJECTS/Mol_Feturizer/New_Systems/rnas/3B4A

>  <Rbt.Executable>
rbdock ($Id: //depot/dev/client3/rdock/2013.1/src/exe/rbdock.cxx#4 $)

>  <Rbt.Library>
libRbt.so (2013.1, Build901 2013/11/27)

>  <Rbt.Parameter_File>
/export/apps/rDock/src/rDock_2013.1_src/data/scripts/dock_solv.prm

>  <Rbt.Receptor>
prm/pocket_docking_7.prm

>  <SCORE>
-9.59814

>  <SCORE.INTER>
-9.44254

>  <SCORE.INTER.CONST>
1

>  <SCORE.INTER.POLAR>
0

>  <SCORE.INTER.ROT>
3

>  <SCORE.INTER.SOLV>
17.7686

>  <SCORE.INTER.VDW>
-17.8179

>  <SCORE.INTER.norm>
-0.590159

>  <SCORE.INTRA>
-0.1556

>  <SCORE.INTRA.DIHEDRAL>
0.427581

>  <SCORE.INTRA.DIHEDRAL.0>
2.05999

>  <SCORE.INTRA.POLAR>
0

>  <SCORE.INTRA.POLAR.0>
0

>  <SCORE.INTRA.REPUL>
0

>  <SCORE.INTRA.REPUL.0>
0

>  <SCORE.INTRA.SOLV>
-0.911551

>  <SCORE.INTRA.SOLV.lig_0>
-58.7001

>  <SCORE.INTRA.VDW>
0.0863846

>  <SCORE.INTRA.VDW.0>
-0.401036

>  <SCORE.INTRA.norm>
-0.00972502

>  <SCORE.RESTR>
0

>  <SCORE.RESTR.CAVITY>
0

>  <SCORE.RESTR.norm>
0

>  <SCORE.SYSTEM>
0

>  <SCORE.SYSTEM.CONST>
0

>  <SCORE.SYSTEM.DIHEDRAL>
0

>  <SCORE.SYSTEM.SOLV>
0

>  <SCORE.SYSTEM.norm>
0

>  <SCORE.heavy>
16

>  <SCORE.norm>
-0.599884

>  <RMSD>
6.144

$$$$
ligand
 OpenBabel11021811463D
libRbt.so/2013.1/901 2013/11/27
 16 16  0  0  0  0  0  0  0  0999 V2000
   43.3307   38.8212   52.5141 P   0  0  2  0  0  0  0  0  0  0  0  0
   41.9218   38.3600   52.5835 O   0  0  0  0  0  0  0  0  0  0  0  0
   43.6426   39.7665   53.7831 O   0  5  0  0  0  0  0  0  0  0  0  0
   43.5408   39.6507   51.1411 O   0  0  0  0  0  0  0  0  0  0  0  0
   47.3076   34.8141   53.3009 C   0  0  2  0  0  0  0  0  0  0  0  0
   46.6884   33.7690   52.5170 O   0  0  0  0  0  0  0  0  0  0  0  0
   47.5849   34.3310   54.7541 C   0  0  2  0  0  0  0  0  0  0  0  0
   48.4532   33.1398   54.7208 N   0  0  0  0  0  0  0  0  0  0  0  0
   46.2380   33.9858   55.4265 C   0  0  1  0  0  0  0  0  0  0  0  0
   46.4629   33.5419   56.7752 O   0  0  0  0  0  0  0  0  0  0  0  0
   45.3781   35.2668   55.4307 C   0  0  2  0  0  0  0  0  0  0  0  0
   44.1097   34.9804   56.0443 O   0  0  0  0  0  0  0  0  0  0  0  0
   45.1619   35.7144   53.9523 C   0  0  2  0  0  0  0  0  0  0  0  0
   46.4410   35.9933   53.3089 O   0  0  0  0  0  0  0  0  0  0  0  0
   44.3249   37.0022   53.8852 C   0  0  0  0  0  0  0  0  0  0  0  0
   44.3081   37.5295   52.5470 O   0  0  0  0  0  0  0  0  0  0  0  0
  1  2  1  1  0  0  0
  1  3  1  0  0  0  0
  1  4  2  0  0  0  0
  1 16  1  0  0  0  0
  5  6  1  6  0  0  0
  5  7  1  0  0  0  0
  5 14  1  0  0  0  0
  7  8  1  6  0  0  0
  7  9  1  0  0  0  0
  9 10  1  1  0  0  0
  9 11  1  0  0  0  0
 11 12  1  6  0  0  0
 11 13  1  0  0  0  0
 13 14  1  0  0  0  0
 13 15  1  1  0  0  0
 15 16  1  0  0  0  0
M  CHG  1   3  -1
M  END
>  <CHROM.1>
170.74691958,176.06406490,-73.85663608,45.11058950,36.29425763,53.78960819
-2.35876126,-0.68530567,2.11418504

>  <Name>
ligand

>  <RI>
0

>  <Rbt.Current_Directory>
/home/itssahil/PROJECTS/Mol_Feturizer/New_Systems/rnas/3B4A

>  <Rbt.Executable>
rbdock ($Id: //depot/dev/client3/rdock/2013.1/src/exe/rbdock.cxx#4 $)

>  <Rbt.Library>
libRbt.so (2013.1, Build901 2013/11/27)

>  <Rbt.Parameter_File>
/export/apps/rDock/src/rDock_2013.1_src/data/scripts/dock_solv.prm

>  <Rbt.Receptor>
prm/pocket_docking_6.prm

>  <SCORE>
-11.6804

>  <SCORE.INTER>
-10.605

>  <SCORE.INTER.CONST>
1

>  <SCORE.INTER.POLAR>
0

>  <SCORE.INTER.ROT>
3

>  <SCORE.INTER.SOLV>
16.9323

>  <SCORE.INTER.VDW>
-18.3141

>  <SCORE.INTER.norm>
-0.662813

>  <SCORE.INTRA>
-1.07541

>  <SCORE.INTRA.DIHEDRAL>
-1.37869

>  <SCORE.INTRA.DIHEDRAL.0>
2.05999

>  <SCORE.INTRA.POLAR>
0

>  <SCORE.INTRA.POLAR.0>
0

>  <SCORE.INTRA.REPUL>
0

>  <SCORE.INTRA.REPUL.0>
0

>  <SCORE.INTRA.SOLV>
-0.910282

>  <SCORE.INTRA.SOLV.lig_0>
-58.7001

>  <SCORE.INTRA.VDW>
0.069074

>  <SCORE.INTRA.VDW.0>
-0.401036

>  <SCORE.INTRA.norm>
-0.0672132

>  <SCORE.RESTR>
0

>  <SCORE.RESTR.CAVITY>
0

>  <SCORE.RESTR.norm>
0

>  <SCORE.SYSTEM>
0

>  <SCORE.SYSTEM.CONST>
0

>  <SCORE.SYSTEM.DIHEDRAL>
0

>  <SCORE.SYSTEM.SOLV>
0

>  <SCORE.SYSTEM.norm>
0

>  <SCORE.heavy>
16

>  <SCORE.norm>
-0.730026

>  <RMSD>
6.158

$$$$
ligand
 OpenBabel11021811463D
libRbt.so/2013.1/901 2013/11/27
 16 16  0  0  0  0  0  0  0  0999 V2000
   43.3305   38.8193   52.5173 P   0  0  2  0  0  0  0  0  0  0  0  0
   41.9185   38.3656   52.5724 O   0  0  0  0  0  0  0  0  0  0  0  0
   43.6380   39.7532   53.7957 O   0  5  0  0  0  0  0  0  0  0  0  0
   43.5558   39.6577   51.1522 O   0  0  0  0  0  0  0  0  0  0  0  0
   47.3405   34.8601   53.3370 C   0  0  2  0  0  0  0  0  0  0  0  0
   46.7564   33.8102   52.5327 O   0  0  0  0  0  0  0  0  0  0  0  0
   47.5997   34.3698   54.7911 C   0  0  2  0  0  0  0  0  0  0  0  0
   48.4911   33.1956   54.7642 N   0  0  0  0  0  0  0  0  0  0  0  0
   46.2472   33.9931   55.4349 C   0  0  1  0  0  0  0  0  0  0  0  0
   46.4552   33.5418   56.7839 O   0  0  0  0  0  0  0  0  0  0  0  0
   45.3630   35.2574   55.4335 C   0  0  2  0  0  0  0  0  0  0  0  0
   44.0890   34.9416   56.0204 O   0  0  0  0  0  0  0  0  0  0  0  0
   45.1661   35.7137   53.9550 C   0  0  2  0  0  0  0  0  0  0  0  0
   46.4515   36.0225   53.3384 O   0  0  0  0  0  0  0  0  0  0  0  0
   44.3059   36.9859   53.8828 C   0  0  0  0  0  0  0  0  0  0  0  0
   44.3003   37.5217   52.5478 O   0  0  0  0  0  0  0  0  0  0  0  0
  1  2  1  1  0  0  0
  1  3  1  0  0  0  0
  1  4  2  0  0  0  0
  1 16  1  0  0  0  0
  5  6  1  6  0  0  0
  5  7  1  0  0  0  0
  5 14  1  0  0  0  0
  7  8  1  6  0  0  0
  7  9  1  0  0  0  0
  9 10  1  1  0  0  0
  9 11  1  0  0  0  0
 11 12  1  6  0  0  0
 11 13  1  0  0  0  0
 13 14  1  0  0  0  0
 13 15  1  1  0  0  0
 15 16  1  0  0  0  0
M  CHG  1   3  -1
M  END
>  <CHROM.1>
170.95187982,177.58582977,-73.96721684,45.11714349,36.30190928,53.79951837
-2.34582011,-0.66231183,2.13340321

>  <Name>
ligand

>  <RI>
0

>  <Rbt.Current_Directory>
/home/itssahil/PROJECTS/Mol_Feturizer/New_Systems/rnas/3B4A

>  <Rbt.Executable>
rbdock ($Id: //depot/dev/client3/rdock/2013.1/src/exe/rbdock.cxx#4 $)

>  <Rbt.Library>
libRbt.so (2013.1, Build901 2013/11/27)

>  <Rbt.Parameter_File>
/export/apps/rDock/src/rDock_2013.1_src/data/scripts/dock_solv.prm

>  <Rbt.Receptor>
prm/pocket_docking_7.prm

>  <SCORE>
-11.6895

>  <SCORE.INTER>
-10.5909

>  <SCORE.INTER.CONST>
1

>  <SCORE.INTER.POLAR>
0

>  <SCORE.INTER.ROT>
3

>  <SCORE.INTER.SOLV>
17.1148

>  <SCORE.INTER.VDW>
-18.3655

>  <SCORE.INTER.norm>
-0.66193

>  <SCORE.INTRA>
-1.09864

>  <SCORE.INTRA.DIHEDRAL>
-1.43452

>  <SCORE.INTRA.DIHEDRAL.0>
2.05999

>  <SCORE.INTRA.POLAR>
0

>  <SCORE.INTRA.POLAR.0>
0

>  <SCORE.INTRA.REPUL>
0

>  <SCORE.INTRA.REPUL.0>
0

>  <SCORE.INTRA.SOLV>
-0.900526

>  <SCORE.INTRA.SOLV.lig_0>
-58.7001

>  <SCORE.INTRA.VDW>
0.0688859

>  <SCORE.INTRA.VDW.0>
-0.401036

>  <SCORE.INTRA.norm>
-0.0686648

>  <SCORE.RESTR>
0

>  <SCORE.RESTR.CAVITY>
0

>  <SCORE.RESTR.norm>
0

>  <SCORE.SYSTEM>
0

>  <SCORE.SYSTEM.CONST>
0

>  <SCORE.SYSTEM.DIHEDRAL>
0

>  <SCORE.SYSTEM.SOLV>
0

>  <SCORE.SYSTEM.norm>
0

>  <SCORE.heavy>
16

>  <SCORE.norm>
-0.730595

>  <RMSD>
6.161

$$$$
ligand
 OpenBabel11021811463D
libRbt.so/2013.1/901 2013/11/27
 16 16  0  0  0  0  0  0  0  0999 V2000
   43.3311   38.8326   52.5082 P   0  0  2  0  0  0  0  0  0  0  0  0
   41.9138   38.4021   52.5986 O   0  0  0  0  0  0  0  0  0  0  0  0
   43.6783   39.7824   53.7646 O   0  5  0  0  0  0  0  0  0  0  0  0
   43.5420   39.6451   51.1252 O   0  0  0  0  0  0  0  0  0  0  0  0
   47.2766   34.7998   53.2915 C   0  0  2  0  0  0  0  0  0  0  0  0
   46.6395   33.7461   52.5338 O   0  0  0  0  0  0  0  0  0  0  0  0
   47.5738   34.3380   54.7477 C   0  0  2  0  0  0  0  0  0  0  0  0
   48.4347   33.1413   54.7198 N   0  0  0  0  0  0  0  0  0  0  0  0
   46.2356   34.0113   55.4462 C   0  0  1  0  0  0  0  0  0  0  0  0
   46.4789   33.5874   56.7981 O   0  0  0  0  0  0  0  0  0  0  0  0
   45.3831   35.2973   55.4434 C   0  0  2  0  0  0  0  0  0  0  0  0
   44.1228   35.0280   56.0810 O   0  0  0  0  0  0  0  0  0  0  0  0
   45.1465   35.7229   53.9617 C   0  0  2  0  0  0  0  0  0  0  0  0
   46.4170   35.9840   53.2943 O   0  0  0  0  0  0  0  0  0  0  0  0
   44.3158   37.0144   53.8872 C   0  0  0  0  0  0  0  0  0  0  0  0
   44.2813   37.5208   52.5412 O   0  0  0  0  0  0  0  0  0  0  0  0
  1  2  1  1  0  0  0
  1  3  1  0  0  0  0
  1  4  2  0  0  0  0
  1 16  1  0  0  0  0
  5  6  1  6  0  0  0
  5  7  1  0  0  0  0
  5 14  1  0  0  0  0
  7  8  1  6  0  0  0
  7  9  1  0  0  0  0
  9 10  1  1  0  0  0
  9 11  1  0  0  0  0
 11 12  1  6  0  0  0
 11 13  1  0  0  0  0
 13 14  1  0  0  0  0
 13 15  1  1  0  0  0
 15 16  1  0  0  0  0
M  CHG  1   3  -1
M  END
>  <CHROM.1>
170.73681468,177.02485720,-74.52300627,45.10362862,36.30601660,53.79260449
-2.36839107,-0.70042601,2.09414059

>  <Name>
ligand

>  <RI>
0

>  <Rbt.Current_Directory>
/home/itssahil/PROJECTS/Mol_Feturizer/New_Systems/rnas/3B4A

>  <Rbt.Executable>
rbdock ($Id: //depot/dev/client3/rdock/2013.1/src/exe/rbdock.cxx#4 $)

>  <Rbt.Library>
libRbt.so (2013.1, Build901 2013/11/27)

>  <Rbt.Parameter_File>
/export/apps/rDock/src/rDock_2013.1_src/data/scripts/dock_solv.prm

>  <Rbt.Receptor>
prm/pocket_docking_6.prm

>  <SCORE>
-11.663

>  <SCORE.INTER>
-10.6028

>  <SCORE.INTER.CONST>
1

>  <SCORE.INTER.POLAR>
0

>  <SCORE.INTER.ROT>
3

>  <SCORE.INTER.SOLV>
16.9022

>  <SCORE.INTER.VDW>
-18.3026

>  <SCORE.INTER.norm>
-0.662677

>  <SCORE.INTRA>
-1.06014

>  <SCORE.INTRA.DIHEDRAL>
-1.38233

>  <SCORE.INTRA.DIHEDRAL.0>
2.05999

>  <SCORE.INTRA.POLAR>
0

>  <SCORE.INTRA.POLAR.0>
0

>  <SCORE.INTRA.REPUL>
0

>  <SCORE.INTRA.REPUL.0>
0

>  <SCORE.INTRA.SOLV>
-0.897746

>  <SCORE.INTRA.SOLV.lig_0>
-58.7001

>  <SCORE.INTRA.VDW>
0.0798966

>  <SCORE.INTRA.VDW.0>
-0.401036

>  <SCORE.INTRA.norm>
-0.0662588

>  <SCORE.RESTR>
0

>  <SCORE.RESTR.CAVITY>
0

>  <SCORE.RESTR.norm>
0

>  <SCORE.SYSTEM>
0

>  <SCORE.SYSTEM.CONST>
0

>  <SCORE.SYSTEM.DIHEDRAL>
0

>  <SCORE.SYSTEM.SOLV>
0

>  <SCORE.SYSTEM.norm>
0

>  <SCORE.heavy>
16

>  <SCORE.norm>
-0.728936

>  <RMSD>
6.162

$$$$
ligand
 OpenBabel11021811463D
libRbt.so/2013.1/901 2013/11/27
 16 16  0  0  0  0  0  0  0  0999 V2000
   43.3289   38.8320   52.5123 P   0  0  2  0  0  0  0  0  0  0  0  0
   41.9233   38.3615   52.5862 O   0  0  0  0  0  0  0  0  0  0  0  0
   43.6354   39.7884   53.7742 O   0  5  0  0  0  0  0  0  0  0  0  0
   43.5320   39.6530   51.1331 O   0  0  0  0  0  0  0  0  0  0  0  0
   47.3161   34.8441   53.3282 C   0  0  2  0  0  0  0  0  0  0  0  0
   46.7108   33.7960   52.5374 O   0  0  0  0  0  0  0  0  0  0  0  0
   47.5836   34.3609   54.7832 C   0  0  2  0  0  0  0  0  0  0  0  0
   48.4599   33.1753   54.7560 N   0  0  0  0  0  0  0  0  0  0  0  0
   46.2330   34.0060   55.4431 C   0  0  1  0  0  0  0  0  0  0  0  0
   46.4488   33.5618   56.7931 O   0  0  0  0  0  0  0  0  0  0  0  0
   45.3648   35.2814   55.4412 C   0  0  2  0  0  0  0  0  0  0  0  0
   44.0929   34.9859   56.0430 O   0  0  0  0  0  0  0  0  0  0  0  0
   45.1589   35.7295   53.9615 C   0  0  2  0  0  0  0  0  0  0  0  0
   46.4419   36.0176   53.3299 O   0  0  0  0  0  0  0  0  0  0  0  0
   44.3141   37.0120   53.8885 C   0  0  0  0  0  0  0  0  0  0  0  0
   44.3153   37.5473   52.5534 O   0  0  0  0  0  0  0  0  0  0  0  0
  1  2  1  1  0  0  0
  1  3  1  0  0  0  0
  1  4  2  0  0  0  0
  1 16  1  0  0  0  0
  5  6  1  6  0  0  0
  5  7  1  0  0  0  0
  5 14  1  0  0  0  0
  7  8  1  6  0  0  0
  7  9  1  0  0  0  0
  9 10  1  1  0  0  0
  9 11  1  0  0  0  0
 11 12  1  6  0  0  0
 11 13  1  0  0  0  0
 13 14  1  0  0  0  0
 13 15  1  1  0  0  0
 15 16  1  0  0  0  0
M  CHG  1   3  -1
M  END
>  <CHROM.1>
170.24911800,176.03082303,-72.60942233,45.10849824,36.31139877,53.79947958
-2.35168748,-0.67602447,2.12041517

>  <Name>
ligand

>  <RI>
0

>  <Rbt.Current_Directory>
/home/itssahil/PROJECTS/Mol_Feturizer/New_Systems/rnas/3B4A

>  <Rbt.Executable>
rbdock ($Id: //depot/dev/client3/rdock/2013.1/src/exe/rbdock.cxx#4 $)

>  <Rbt.Library>
libRbt.so (2013.1, Build901 2013/11/27)

>  <Rbt.Parameter_File>
/export/apps/rDock/src/rDock_2013.1_src/data/scripts/dock_solv.prm

>  <Rbt.Receptor>
prm/pocket_docking_7.prm

>  <SCORE>
-11.7024

>  <SCORE.INTER>
-10.5977

>  <SCORE.INTER.CONST>
1

>  <SCORE.INTER.POLAR>
0

>  <SCORE.INTER.ROT>
3

>  <SCORE.INTER.SOLV>
17.1124

>  <SCORE.INTER.VDW>
-18.3692

>  <SCORE.INTER.norm>
-0.662355

>  <SCORE.INTRA>
-1.1047

>  <SCORE.INTRA.DIHEDRAL>
-1.39471

>  <SCORE.INTRA.DIHEDRAL.0>
2.05999

>  <SCORE.INTRA.POLAR>
0

>  <SCORE.INTRA.POLAR.0>
0

>  <SCORE.INTRA.REPUL>
0

>  <SCORE.INTRA.REPUL.0>
0

>  <SCORE.INTRA.SOLV>
-0.921538

>  <SCORE.INTRA.SOLV.lig_0>
-58.7001

>  <SCORE.INTRA.VDW>
0.0534312

>  <SCORE.INTRA.VDW.0>
-0.401036

>  <SCORE.INTRA.norm>
-0.0690435

>  <SCORE.RESTR>
0

>  <SCORE.RESTR.CAVITY>
0

>  <SCORE.RESTR.norm>
0

>  <SCORE.SYSTEM>
0

>  <SCORE.SYSTEM.CONST>
0

>  <SCORE.SYSTEM.DIHEDRAL>
0

>  <SCORE.SYSTEM.SOLV>
0

>  <SCORE.SYSTEM.norm>
0

>  <SCORE.heavy>
16

>  <SCORE.norm>
-0.731398

>  <RMSD>
6.164

$$$$
ligand
 OpenBabel11021811463D
libRbt.so/2013.1/901 2013/11/27
 16 16  0  0  0  0  0  0  0  0999 V2000
   43.3307   38.8487   52.5012 P   0  0  2  0  0  0  0  0  0  0  0  0
   41.9275   38.3712   52.5750 O   0  0  0  0  0  0  0  0  0  0  0  0
   43.6295   39.8140   53.7582 O   0  5  0  0  0  0  0  0  0  0  0  0
   43.5323   39.6628   51.1178 O   0  0  0  0  0  0  0  0  0  0  0  0
   47.2619   34.8129   53.2823 C   0  0  2  0  0  0  0  0  0  0  0  0
   46.6250   33.7571   52.5274 O   0  0  0  0  0  0  0  0  0  0  0  0
   47.5634   34.3536   54.7384 C   0  0  2  0  0  0  0  0  0  0  0  0
   48.4265   33.1585   54.7099 N   0  0  0  0  0  0  0  0  0  0  0  0
   46.2274   34.0253   55.4404 C   0  0  1  0  0  0  0  0  0  0  0  0
   46.4747   33.6036   56.7923 O   0  0  0  0  0  0  0  0  0  0  0  0
   45.3725   35.3096   55.4380 C   0  0  2  0  0  0  0  0  0  0  0  0
   44.1142   35.0388   56.0788 O   0  0  0  0  0  0  0  0  0  0  0  0
   45.1316   35.7328   53.9562 C   0  0  2  0  0  0  0  0  0  0  0  0
   46.4001   35.9955   53.2855 O   0  0  0  0  0  0  0  0  0  0  0  0
   44.2982   37.0226   53.8820 C   0  0  0  0  0  0  0  0  0  0  0  0
   44.3237   37.5695   52.5517 O   0  0  0  0  0  0  0  0  0  0  0  0
  1  2  1  1  0  0  0
  1  3  1  0  0  0  0
  1  4  2  0  0  0  0
  1 16  1  0  0  0  0
  5  6  1  6  0  0  0
  5  7  1  0  0  0  0
  5 14  1  0  0  0  0
  7  8  1  6  0  0  0
  7  9  1  0  0  0  0
  9 10  1  1  0  0  0
  9 11  1  0  0  0  0
 11 12  1  6  0  0  0
 11 13  1  0  0  0  0
 13 14  1  0  0  0  0
 13 15  1  1  0  0  0
 15 16  1  0  0  0  0
M  CHG  1   3  -1
M  END
>  <CHROM.1>
167.39381155,175.16541097,-71.25858435,45.09615815,36.32016340,53.78590532
-2.36737575,-0.70185635,2.09428455

>  <Name>
ligand

>  <RI>
0

>  <Rbt.Current_Directory>
/home/itssahil/PROJECTS/Mol_Feturizer/New_Systems/rnas/3B4A

>  <Rbt.Executable>
rbdock ($Id: //depot/dev/client3/rdock/2013.1/src/exe/rbdock.cxx#4 $)

>  <Rbt.Library>
libRbt.so (2013.1, Build901 2013/11/27)

>  <Rbt.Parameter_File>
/export/apps/rDock/src/rDock_2013.1_src/data/scripts/dock_solv.prm

>  <Rbt.Receptor>
prm/pocket_docking_6.prm

>  <SCORE>
-11.6382

>  <SCORE.INTER>
-10.6347

>  <SCORE.INTER.CONST>
1

>  <SCORE.INTER.POLAR>
0

>  <SCORE.INTER.ROT>
3

>  <SCORE.INTER.SOLV>
16.8884

>  <SCORE.INTER.VDW>
-18.3192

>  <SCORE.INTER.norm>
-0.664666

>  <SCORE.INTRA>
-1.00349

>  <SCORE.INTRA.DIHEDRAL>
-1.19007

>  <SCORE.INTRA.DIHEDRAL.0>
2.05999

>  <SCORE.INTRA.POLAR>
0

>  <SCORE.INTRA.POLAR.0>
0

>  <SCORE.INTRA.REPUL>
0

>  <SCORE.INTRA.REPUL.0>
0

>  <SCORE.INTRA.SOLV>
-0.931134

>  <SCORE.INTRA.SOLV.lig_0>
-58.7001

>  <SCORE.INTRA.VDW>
0.0571061

>  <SCORE.INTRA.VDW.0>
-0.401036

>  <SCORE.INTRA.norm>
-0.0627184

>  <SCORE.RESTR>
0

>  <SCORE.RESTR.CAVITY>
0

>  <SCORE.RESTR.norm>
0

>  <SCORE.SYSTEM>
0

>  <SCORE.SYSTEM.CONST>
0

>  <SCORE.SYSTEM.DIHEDRAL>
0

>  <SCORE.SYSTEM.SOLV>
0

>  <SCORE.SYSTEM.norm>
0

>  <SCORE.heavy>
16

>  <SCORE.norm>
-0.727385

>  <RMSD>
6.168

$$$$
ligand
 OpenBabel11021811463D
libRbt.so/2013.1/901 2013/11/27
 16 16  0  0  0  0  0  0  0  0999 V2000
   42.8863   39.0832   52.5153 P   0  0  2  0  0  0  0  0  0  0  0  0
   41.6042   38.4598   52.1027 O   0  0  0  0  0  0  0  0  0  0  0  0
   42.5933   40.5507   53.1168 O   0  5  0  0  0  0  0  0  0  0  0  0
   43.8505   39.1977   51.2213 O   0  0  0  0  0  0  0  0  0  0  0  0
   44.6332   34.3529   55.3935 C   0  0  2  0  0  0  0  0  0  0  0  0
   44.9250   35.0677   56.6159 O   0  0  0  0  0  0  0  0  0  0  0  0
   45.8990   33.6219   54.8593 C   0  0  2  0  0  0  0  0  0  0  0  0
   46.3998   32.6889   55.8854 N   0  0  0  0  0  0  0  0  0  0  0  0
   46.9783   34.6768   54.5309 C   0  0  1  0  0  0  0  0  0  0  0  0
   48.1593   34.0297   54.0280 O   0  0  0  0  0  0  0  0  0  0  0  0
   46.3965   35.6189   53.4565 C   0  0  2  0  0  0  0  0  0  0  0  0
   47.3739   36.6217   53.1306 O   0  0  0  0  0  0  0  0  0  0  0  0
   45.1184   36.2955   54.0409 C   0  0  2  0  0  0  0  0  0  0  0  0
   44.1217   35.2904   54.3930 O   0  0  0  0  0  0  0  0  0  0  0  0
   44.4752   37.2372   53.0098 C   0  0  0  0  0  0  0  0  0  0  0  0
   43.5773   38.1591   53.6526 O   0  0  0  0  0  0  0  0  0  0  0  0
  1  2  1  6  0  0  0
  1  3  1  0  0  0  0
  1  4  2  0  0  0  0
  1 16  1  0  0  0  0
  5  6  1  1  0  0  0
  5  7  1  0  0  0  0
  5 14  1  0  0  0  0
  7  8  1  1  0  0  0
  7  9  1  0  0  0  0
  9 10  1  6  0  0  0
  9 11  1  0  0  0  0
 11 12  1  1  0  0  0
 11 13  1  0  0  0  0
 13 14  1  0  0  0  0
 13 15  1  6  0  0  0
 15 16  1  0  0  0  0
M  CHG  1   3  -1
M  END
>  <CHROM.1>
-161.92959175,-177.75195789,92.73093568,44.75590658,36.57816636,53.74773893
2.18674771,0.37760043,-0.71562223

>  <Name>
ligand

>  <RI>
0

>  <Rbt.Current_Directory>
/home/itssahil/PROJECTS/Mol_Feturizer/New_Systems/rnas/3B4A

>  <Rbt.Executable>
rbdock ($Id: //depot/dev/client3/rdock/2013.1/src/exe/rbdock.cxx#4 $)

>  <Rbt.Library>
libRbt.so (2013.1, Build901 2013/11/27)

>  <Rbt.Parameter_File>
/export/apps/rDock/src/rDock_2013.1_src/data/scripts/dock_solv.prm

>  <Rbt.Receptor>
prm/pocket_docking_7.prm

>  <SCORE>
-9.53629

>  <SCORE.INTER>
-9.72188

>  <SCORE.INTER.CONST>
1

>  <SCORE.INTER.POLAR>
0

>  <SCORE.INTER.ROT>
3

>  <SCORE.INTER.SOLV>
18.7666

>  <SCORE.INTER.VDW>
-18.3368

>  <SCORE.INTER.norm>
-0.607618

>  <SCORE.INTRA>
0.185598

>  <SCORE.INTRA.DIHEDRAL>
0.43835

>  <SCORE.INTRA.DIHEDRAL.0>
2.05999

>  <SCORE.INTRA.POLAR>
0

>  <SCORE.INTRA.POLAR.0>
0

>  <SCORE.INTRA.REPUL>
0

>  <SCORE.INTRA.REPUL.0>
0

>  <SCORE.INTRA.SOLV>
-0.803594

>  <SCORE.INTRA.SOLV.lig_0>
-58.7001

>  <SCORE.INTRA.VDW>
0.36822

>  <SCORE.INTRA.VDW.0>
-0.401036

>  <SCORE.INTRA.norm>
0.0115999

>  <SCORE.RESTR>
0

>  <SCORE.RESTR.CAVITY>
0

>  <SCORE.RESTR.norm>
0

>  <SCORE.SYSTEM>
0

>  <SCORE.SYSTEM.CONST>
0

>  <SCORE.SYSTEM.DIHEDRAL>
0

>  <SCORE.SYSTEM.SOLV>
0

>  <SCORE.SYSTEM.norm>
0

>  <SCORE.heavy>
16

>  <SCORE.norm>
-0.596018

>  <RMSD>
6.176

$$$$
ligand
 OpenBabel11021811463D
libRbt.so/2013.1/901 2013/11/27
 16 16  0  0  0  0  0  0  0  0999 V2000
   43.3354   38.9009   52.4634 P   0  0  2  0  0  0  0  0  0  0  0  0
   41.9285   38.4307   52.5072 O   0  0  0  0  0  0  0  0  0  0  0  0
   43.6291   39.8175   53.7575 O   0  5  0  0  0  0  0  0  0  0  0  0
   43.5550   39.7636   51.1126 O   0  0  0  0  0  0  0  0  0  0  0  0
   47.3906   34.9837   53.2762 C   0  0  2  0  0  0  0  0  0  0  0  0
   46.8540   33.9564   52.4120 O   0  0  0  0  0  0  0  0  0  0  0  0
   47.6070   34.4416   54.7189 C   0  0  2  0  0  0  0  0  0  0  0  0
   48.5196   33.2841   54.6793 N   0  0  0  0  0  0  0  0  0  0  0  0
   46.2396   34.0181   55.2989 C   0  0  1  0  0  0  0  0  0  0  0  0
   46.4078   33.5183   56.6362 O   0  0  0  0  0  0  0  0  0  0  0  0
   45.3335   35.2668   55.3139 C   0  0  2  0  0  0  0  0  0  0  0  0
   44.0455   34.9076   55.8422 O   0  0  0  0  0  0  0  0  0  0  0  0
   45.1809   35.7768   53.8479 C   0  0  2  0  0  0  0  0  0  0  0  0
   46.4816   36.1304   53.2901 O   0  0  0  0  0  0  0  0  0  0  0  0
   44.3013   37.0366   53.7934 C   0  0  0  0  0  0  0  0  0  0  0  0
   44.3195   37.6139   52.4759 O   0  0  0  0  0  0  0  0  0  0  0  0
  1  2  1  1  0  0  0
  1  3  1  0  0  0  0
  1  4  2  0  0  0  0
  1 16  1  0  0  0  0
  5  6  1  6  0  0  0
  5  7  1  0  0  0  0
  5 14  1  0  0  0  0
  7  8  1  6  0  0  0
  7  9  1  0  0  0  0
  9 10  1  1  0  0  0
  9 11  1  0  0  0  0
 11 12  1  6  0  0  0
 11 13  1  0  0  0  0
 13 14  1  0  0  0  0
 13 15  1  1  0  0  0
 15 16  1  0  0  0  0
M  CHG  1   3  -1
M  END
>  <CHROM.1>
171.69616912,177.90340875,-72.52912070,45.12444221,36.36806660,53.71255734
-2.32206588,-0.62778724,2.18545986

>  <Name>
ligand

>  <RI>
0

>  <Rbt.Current_Directory>
/home/itssahil/PROJECTS/Mol_Feturizer/New_Systems/rnas/3B4A

>  <Rbt.Executable>
rbdock ($Id: //depot/dev/client3/rdock/2013.1/src/exe/rbdock.cxx#4 $)

>  <Rbt.Library>
libRbt.so (2013.1, Build901 2013/11/27)

>  <Rbt.Parameter_File>
/export/apps/rDock/src/rDock_2013.1_src/data/scripts/dock_solv.prm

>  <Rbt.Receptor>
prm/pocket_docking_6.prm

>  <SCORE>
-11.6603

>  <SCORE.INTER>
-10.4725

>  <SCORE.INTER.CONST>
1

>  <SCORE.INTER.POLAR>
0

>  <SCORE.INTER.ROT>
3

>  <SCORE.INTER.SOLV>
16.3117

>  <SCORE.INTER.VDW>
-18.0189

>  <SCORE.INTER.norm>
-0.654531

>  <SCORE.INTRA>
-1.18782

>  <SCORE.INTRA.DIHEDRAL>
-1.54418

>  <SCORE.INTRA.DIHEDRAL.0>
2.05999

>  <SCORE.INTRA.POLAR>
0

>  <SCORE.INTRA.POLAR.0>
0

>  <SCORE.INTRA.REPUL>
0

>  <SCORE.INTRA.REPUL.0>
0

>  <SCORE.INTRA.SOLV>
-0.915343

>  <SCORE.INTRA.SOLV.lig_0>
-58.7001

>  <SCORE.INTRA.VDW>
0.0419472

>  <SCORE.INTRA.VDW.0>
-0.401036

>  <SCORE.INTRA.norm>
-0.0742385

>  <SCORE.RESTR>
0

>  <SCORE.RESTR.CAVITY>
0

>  <SCORE.RESTR.norm>
0

>  <SCORE.SYSTEM>
0

>  <SCORE.SYSTEM.CONST>
0

>  <SCORE.SYSTEM.DIHEDRAL>
0

>  <SCORE.SYSTEM.SOLV>
0

>  <SCORE.SYSTEM.norm>
0

>  <SCORE.heavy>
16

>  <SCORE.norm>
-0.72877

>  <RMSD>
6.180

$$$$
ligand
 OpenBabel11021811463D
libRbt.so/2013.1/901 2013/11/27
 16 16  0  0  0  0  0  0  0  0999 V2000
   43.5001   39.0173   52.3736 P   0  0  2  0  0  0  0  0  0  0  0  0
   43.6647   39.7261   51.0802 O   0  0  0  0  0  0  0  0  0  0  0  0
   41.9790   38.4975   52.5041 O   0  5  0  0  0  0  0  0  0  0  0  0
   43.8397   40.0434   53.5774 O   0  0  0  0  0  0  0  0  0  0  0  0
   47.5157   35.0446   53.2757 C   0  0  2  0  0  0  0  0  0  0  0  0
   46.9904   34.0569   52.3599 O   0  0  0  0  0  0  0  0  0  0  0  0
   47.6563   34.4564   54.7096 C   0  0  2  0  0  0  0  0  0  0  0  0
   48.5399   33.2764   54.6743 N   0  0  0  0  0  0  0  0  0  0  0  0
   46.2550   34.0534   55.2190 C   0  0  1  0  0  0  0  0  0  0  0  0
   46.3532   33.5117   56.5470 O   0  0  0  0  0  0  0  0  0  0  0  0
   45.3814   35.3250   55.2327 C   0  0  2  0  0  0  0  0  0  0  0  0
   44.0632   34.9857   55.6958 O   0  0  0  0  0  0  0  0  0  0  0  0
   45.3046   35.8802   53.7772 C   0  0  2  0  0  0  0  0  0  0  0  0
   46.6365   36.2144   53.2851 O   0  0  0  0  0  0  0  0  0  0  0  0
   44.4606   37.1641   53.7229 C   0  0  0  0  0  0  0  0  0  0  0  0
   44.5107   37.7514   52.4107 O   0  0  0  0  0  0  0  0  0  0  0  0
  1  2  1  6  0  0  0
  1  3  1  0  0  0  0
  1  4  2  0  0  0  0
  1 16  1  0  0  0  0
  5  6  1  6  0  0  0
  5  7  1  0  0  0  0
  5 14  1  0  0  0  0
  7  8  1  6  0  0  0
  7  9  1  0  0  0  0
  9 10  1  1  0  0  0
  9 11  1  0  0  0  0
 11 12  1  6  0  0  0
 11 13  1  0  0  0  0
 13 14  1  0  0  0  0
 13 15  1  1  0  0  0
 15 16  1  0  0  0  0
M  CHG  1   3  -1
M  END
>  <CHROM.1>
173.79567616,174.84035216,173.30945014,45.22516056,36.44428769,53.64845621
-2.28182955,-0.60230385,2.23773484

>  <Name>
ligand

>  <RI>
0

>  <Rbt.Current_Directory>
/home/itssahil/PROJECTS/Mol_Feturizer/New_Systems/rnas/3B4A

>  <Rbt.Executable>
rbdock ($Id: //depot/dev/client3/rdock/2013.1/src/exe/rbdock.cxx#4 $)

>  <Rbt.Library>
libRbt.so (2013.1, Build901 2013/11/27)

>  <Rbt.Parameter_File>
/export/apps/rDock/src/rDock_2013.1_src/data/scripts/dock_solv.prm

>  <Rbt.Receptor>
prm/pocket_docking_7.prm

>  <SCORE>
-9.29856

>  <SCORE.INTER>
-8.03599

>  <SCORE.INTER.CONST>
1

>  <SCORE.INTER.POLAR>
0

>  <SCORE.INTER.ROT>
3

>  <SCORE.INTER.SOLV>
19.2658

>  <SCORE.INTER.VDW>
-17.3793

>  <SCORE.INTER.norm>
-0.502249

>  <SCORE.INTRA>
-1.26257

>  <SCORE.INTRA.DIHEDRAL>
-1.71815

>  <SCORE.INTRA.DIHEDRAL.0>
2.05999

>  <SCORE.INTRA.POLAR>
0

>  <SCORE.INTRA.POLAR.0>
0

>  <SCORE.INTRA.REPUL>
0

>  <SCORE.INTRA.REPUL.0>
0

>  <SCORE.INTRA.SOLV>
-0.40383

>  <SCORE.INTRA.SOLV.lig_0>
-58.7001

>  <SCORE.INTRA.VDW>
-0.201579

>  <SCORE.INTRA.VDW.0>
-0.401036

>  <SCORE.INTRA.norm>
-0.0789105

>  <SCORE.RESTR>
0

>  <SCORE.RESTR.CAVITY>
0

>  <SCORE.RESTR.norm>
0

>  <SCORE.SYSTEM>
0

>  <SCORE.SYSTEM.CONST>
0

>  <SCORE.SYSTEM.DIHEDRAL>
0

>  <SCORE.SYSTEM.SOLV>
0

>  <SCORE.SYSTEM.norm>
0

>  <SCORE.heavy>
16

>  <SCORE.norm>
-0.58116

>  <RMSD>
6.180

$$$$
ligand
 OpenBabel11021811463D
libRbt.so/2013.1/901 2013/11/27
 16 16  0  0  0  0  0  0  0  0999 V2000
   43.3377   38.9129   52.4505 P   0  0  2  0  0  0  0  0  0  0  0  0
   41.9489   38.3902   52.4657 O   0  0  0  0  0  0  0  0  0  0  0  0
   43.5674   39.8467   53.7453 O   0  5  0  0  0  0  0  0  0  0  0  0
   43.5551   39.7764   51.0998 O   0  0  0  0  0  0  0  0  0  0  0  0
   47.3771   34.9857   53.2778 C   0  0  2  0  0  0  0  0  0  0  0  0
   46.8311   33.9555   52.4228 O   0  0  0  0  0  0  0  0  0  0  0  0
   47.5973   34.4520   54.7231 C   0  0  2  0  0  0  0  0  0  0  0  0
   48.5036   33.2894   54.6869 N   0  0  0  0  0  0  0  0  0  0  0  0
   46.2304   34.0395   55.3120 C   0  0  1  0  0  0  0  0  0  0  0  0
   46.4022   33.5476   56.6519 O   0  0  0  0  0  0  0  0  0  0  0  0
   45.3310   35.2930   55.3230 C   0  0  2  0  0  0  0  0  0  0  0  0
   44.0435   34.9441   55.8596 O   0  0  0  0  0  0  0  0  0  0  0  0
   45.1743   35.7942   53.8544 C   0  0  2  0  0  0  0  0  0  0  0  0
   46.4742   36.1372   53.2883 O   0  0  0  0  0  0  0  0  0  0  0  0
   44.3010   37.0582   53.7956 C   0  0  0  0  0  0  0  0  0  0  0  0
   44.3691   37.6641   52.4928 O   0  0  0  0  0  0  0  0  0  0  0  0
  1  2  1  1  0  0  0
  1  3  1  0  0  0  0
  1  4  2  0  0  0  0
  1 16  1  0  0  0  0
  5  6  1  6  0  0  0
  5  7  1  0  0  0  0
  5 14  1  0  0  0  0
  7  8  1  6  0  0  0
  7  9  1  0  0  0  0
  9 10  1  1  0  0  0
  9 11  1  0  0  0  0
 11 12  1  6  0  0  0
 11 13  1  0  0  0  0
 13 14  1  0  0  0  0
 13 15  1  1  0  0  0
 15 16  1  0  0  0  0
M  CHG  1   3  -1
M  END
>  <CHROM.1>
168.82657341,175.27049223,-70.11934568,45.11980039,36.38287340,53.71280793
-2.32294196,-0.63397562,2.17716867

>  <Name>
ligand

>  <RI>
0

>  <Rbt.Current_Directory>
/home/itssahil/PROJECTS/Mol_Feturizer/New_Systems/rnas/3B4A

>  <Rbt.Executable>
rbdock ($Id: //depot/dev/client3/rdock/2013.1/src/exe/rbdock.cxx#4 $)

>  <Rbt.Library>
libRbt.so (2013.1, Build901 2013/11/27)

>  <Rbt.Parameter_File>
/export/apps/rDock/src/rDock_2013.1_src/data/scripts/dock_solv.prm

>  <Rbt.Receptor>
prm/pocket_docking_7.prm

>  <SCORE>
-11.6802

>  <SCORE.INTER>
-10.5659

>  <SCORE.INTER.CONST>
1

>  <SCORE.INTER.POLAR>
0

>  <SCORE.INTER.ROT>
3

>  <SCORE.INTER.SOLV>
16.4285

>  <SCORE.INTER.VDW>
-18.1201

>  <SCORE.INTER.norm>
-0.66037

>  <SCORE.INTRA>
-1.11429

>  <SCORE.INTRA.DIHEDRAL>
-1.34795

>  <SCORE.INTRA.DIHEDRAL.0>
2.05999

>  <SCORE.INTRA.POLAR>
0

>  <SCORE.INTRA.POLAR.0>
0

>  <SCORE.INTRA.REPUL>
0

>  <SCORE.INTRA.REPUL.0>
0

>  <SCORE.INTRA.SOLV>
-0.946743

>  <SCORE.INTRA.SOLV.lig_0>
-58.7001

>  <SCORE.INTRA.VDW>
0.0330571

>  <SCORE.INTRA.VDW.0>
-0.401036

>  <SCORE.INTRA.norm>
-0.0696432

>  <SCORE.RESTR>
0

>  <SCORE.RESTR.CAVITY>
0

>  <SCORE.RESTR.norm>
0

>  <SCORE.SYSTEM>
0

>  <SCORE.SYSTEM.CONST>
0

>  <SCORE.SYSTEM.DIHEDRAL>
0

>  <SCORE.SYSTEM.SOLV>
0

>  <SCORE.SYSTEM.norm>
0

>  <SCORE.heavy>
16

>  <SCORE.norm>
-0.730013

>  <RMSD>
6.184

$$$$
ligand
 OpenBabel11021811463D
libRbt.so/2013.1/901 2013/11/27
 16 16  0  0  0  0  0  0  0  0999 V2000
   43.3108   38.8880   52.4618 P   0  0  2  0  0  0  0  0  0  0  0  0
   41.9115   38.3956   52.5071 O   0  0  0  0  0  0  0  0  0  0  0  0
   43.5874   39.8199   53.7487 O   0  5  0  0  0  0  0  0  0  0  0  0
   43.5189   39.7430   51.1042 O   0  0  0  0  0  0  0  0  0  0  0  0
   47.3311   34.9306   53.2248 C   0  0  2  0  0  0  0  0  0  0  0  0
   46.7484   33.8899   52.4077 O   0  0  0  0  0  0  0  0  0  0  0  0
   47.5942   34.4217   54.6718 C   0  0  2  0  0  0  0  0  0  0  0  0
   48.4888   33.2504   54.6278 N   0  0  0  0  0  0  0  0  0  0  0  0
   46.2440   34.0328   55.3130 C   0  0  1  0  0  0  0  0  0  0  0  0
   46.4556   33.5642   56.6555 O   0  0  0  0  0  0  0  0  0  0  0  0
   45.3562   35.2946   55.3299 C   0  0  2  0  0  0  0  0  0  0  0  0
   44.0842   34.9675   55.9149 O   0  0  0  0  0  0  0  0  0  0  0  0
   45.1555   35.7699   53.8580 C   0  0  2  0  0  0  0  0  0  0  0  0
   46.4389   36.0904   53.2432 O   0  0  0  0  0  0  0  0  0  0  0  0
   44.2917   37.0406   53.8042 C   0  0  0  0  0  0  0  0  0  0  0  0
   44.3155   37.6172   52.4866 O   0  0  0  0  0  0  0  0  0  0  0  0
  1  2  1  1  0  0  0
  1  3  1  0  0  0  0
  1  4  2  0  0  0  0
  1 16  1  0  0  0  0
  5  6  1  6  0  0  0
  5  7  1  0  0  0  0
  5 14  1  0  0  0  0
  7  8  1  6  0  0  0
  7  9  1  0  0  0  0
  9 10  1  1  0  0  0
  9 11  1  0  0  0  0
 11 12  1  6  0  0  0
 11 13  1  0  0  0  0
 13 14  1  0  0  0  0
 13 15  1  1  0  0  0
 15 16  1  0  0  0  0
M  CHG  1   3  -1
M  END
>  <CHROM.1>
169.17348007,176.10160212,-71.83053049,45.10533800,36.35968219,53.70925514
-2.34910934,-0.66086477,2.14419470

>  <Name>
ligand

>  <RI>
0

>  <Rbt.Current_Directory>
/home/itssahil/PROJECTS/Mol_Feturizer/New_Systems/rnas/3B4A

>  <Rbt.Executable>
rbdock ($Id: //depot/dev/client3/rdock/2013.1/src/exe/rbdock.cxx#4 $)

>  <Rbt.Library>
libRbt.so (2013.1, Build901 2013/11/27)

>  <Rbt.Parameter_File>
/export/apps/rDock/src/rDock_2013.1_src/data/scripts/dock_solv.prm

>  <Rbt.Receptor>
prm/pocket_docking_6.prm

>  <SCORE>
-11.6157

>  <SCORE.INTER>
-10.5279

>  <SCORE.INTER.CONST>
1

>  <SCORE.INTER.POLAR>
0

>  <SCORE.INTER.ROT>
3

>  <SCORE.INTER.SOLV>
16.3389

>  <SCORE.INTER.VDW>
-18.0649

>  <SCORE.INTER.norm>
-0.657995

>  <SCORE.INTRA>
-1.08778

>  <SCORE.INTRA.DIHEDRAL>
-1.35069

>  <SCORE.INTRA.DIHEDRAL.0>
2.05999

>  <SCORE.INTRA.POLAR>
0

>  <SCORE.INTRA.POLAR.0>
0

>  <SCORE.INTRA.REPUL>
0

>  <SCORE.INTRA.REPUL.0>
0

>  <SCORE.INTRA.SOLV>
-0.92561

>  <SCORE.INTRA.SOLV.lig_0>
-58.7001

>  <SCORE.INTRA.VDW>
0.0503682

>  <SCORE.INTRA.VDW.0>
-0.401036

>  <SCORE.INTRA.norm>
-0.0679865

>  <SCORE.RESTR>
0

>  <SCORE.RESTR.CAVITY>
0

>  <SCORE.RESTR.norm>
0

>  <SCORE.SYSTEM>
0

>  <SCORE.SYSTEM.CONST>
0

>  <SCORE.SYSTEM.DIHEDRAL>
0

>  <SCORE.SYSTEM.SOLV>
0

>  <SCORE.SYSTEM.norm>
0

>  <SCORE.heavy>
16

>  <SCORE.norm>
-0.725982

>  <RMSD>
6.189

$$$$
ligand
 OpenBabel11021811463D
libRbt.so/2013.1/901 2013/11/27
 16 16  0  0  0  0  0  0  0  0999 V2000
   43.3267   38.9072   52.4525 P   0  0  2  0  0  0  0  0  0  0  0  0
   41.9307   38.4056   52.4988 O   0  0  0  0  0  0  0  0  0  0  0  0
   43.5971   39.8433   53.7377 O   0  5  0  0  0  0  0  0  0  0  0  0
   43.5292   39.7609   51.0934 O   0  0  0  0  0  0  0  0  0  0  0  0
   47.4004   35.0254   53.2761 C   0  0  2  0  0  0  0  0  0  0  0  0
   46.8757   33.9847   52.4205 O   0  0  0  0  0  0  0  0  0  0  0  0
   47.6269   34.4968   54.7223 C   0  0  2  0  0  0  0  0  0  0  0  0
   48.5548   33.3513   54.6891 N   0  0  0  0  0  0  0  0  0  0  0  0
   46.2665   34.0594   55.3082 C   0  0  1  0  0  0  0  0  0  0  0  0
   46.4441   33.5717   56.6488 O   0  0  0  0  0  0  0  0  0  0  0  0
   45.3439   35.2961   55.3161 C   0  0  2  0  0  0  0  0  0  0  0  0
   44.0619   34.9236   55.8498 O   0  0  0  0  0  0  0  0  0  0  0  0
   45.1815   35.7932   53.8467 C   0  0  2  0  0  0  0  0  0  0  0  0
   46.4762   36.1599   53.2835 O   0  0  0  0  0  0  0  0  0  0  0  0
   44.2851   37.0407   53.7849 C   0  0  0  0  0  0  0  0  0  0  0  0
   44.3398   37.6431   52.4798 O   0  0  0  0  0  0  0  0  0  0  0  0
  1  2  1  1  0  0  0
  1  3  1  0  0  0  0
  1  4  2  0  0  0  0
  1 16  1  0  0  0  0
  5  6  1  6  0  0  0
  5  7  1  0  0  0  0
  5 14  1  0  0  0  0
  7  8  1  6  0  0  0
  7  9  1  0  0  0  0
  9 10  1  1  0  0  0
  9 11  1  0  0  0  0
 11 12  1  6  0  0  0
 11 13  1  0  0  0  0
 13 14  1  0  0  0  0
 13 15  1  1  0  0  0
 15 16  1  0  0  0  0
M  CHG  1   3  -1
M  END
>  <CHROM.1>
169.11874934,177.38304007,-69.87218325,45.13007227,36.39211450,53.71063201
-2.32704891,-0.62163207,2.17821224

>  <Name>
ligand

>  <RI>
0

>  <Rbt.Current_Directory>
/home/itssahil/PROJECTS/Mol_Feturizer/New_Systems/rnas/3B4A

>  <Rbt.Executable>
rbdock ($Id: //depot/dev/client3/rdock/2013.1/src/exe/rbdock.cxx#4 $)

>  <Rbt.Library>
libRbt.so (2013.1, Build901 2013/11/27)

>  <Rbt.Parameter_File>
/export/apps/rDock/src/rDock_2013.1_src/data/scripts/dock_solv.prm

>  <Rbt.Receptor>
prm/pocket_docking_7.prm

>  <SCORE>
-11.6707

>  <SCORE.INTER>
-10.5027

>  <SCORE.INTER.CONST>
1

>  <SCORE.INTER.POLAR>
0

>  <SCORE.INTER.ROT>
3

>  <SCORE.INTER.SOLV>
16.5732

>  <SCORE.INTER.VDW>
-18.1262

>  <SCORE.INTER.norm>
-0.656416

>  <SCORE.INTRA>
-1.16804

>  <SCORE.INTRA.DIHEDRAL>
-1.45374

>  <SCORE.INTRA.DIHEDRAL.0>
2.05999

>  <SCORE.INTRA.POLAR>
0

>  <SCORE.INTRA.POLAR.0>
0

>  <SCORE.INTRA.REPUL>
0

>  <SCORE.INTRA.REPUL.0>
0

>  <SCORE.INTRA.SOLV>
-0.937506

>  <SCORE.INTRA.SOLV.lig_0>
-58.7001

>  <SCORE.INTRA.VDW>
0.027579

>  <SCORE.INTRA.VDW.0>
-0.401036

>  <SCORE.INTRA.norm>
-0.0730027

>  <SCORE.RESTR>
0

>  <SCORE.RESTR.CAVITY>
0

>  <SCORE.RESTR.norm>
0

>  <SCORE.SYSTEM>
0

>  <SCORE.SYSTEM.CONST>
0

>  <SCORE.SYSTEM.DIHEDRAL>
0

>  <SCORE.SYSTEM.SOLV>
0

>  <SCORE.SYSTEM.norm>
0

>  <SCORE.heavy>
16

>  <SCORE.norm>
-0.729419

>  <RMSD>
6.191

$$$$
ligand
 OpenBabel11021811463D
libRbt.so/2013.1/901 2013/11/27
 16 16  0  0  0  0  0  0  0  0999 V2000
   43.0541   38.7354   52.5084 P   0  0  2  0  0  0  0  0  0  0  0  0
   43.6040   39.0365   51.1632 O   0  0  0  0  0  0  0  0  0  0  0  0
   41.4429   38.7347   52.4350 O   0  5  0  0  0  0  0  0  0  0  0  0
   43.5605   39.8698   53.5446 O   0  0  0  0  0  0  0  0  0  0  0  0
   47.5542   34.5118   53.1702 C   0  0  2  0  0  0  0  0  0  0  0  0
   46.8539   33.4515   52.4807 O   0  0  0  0  0  0  0  0  0  0  0  0
   47.5306   34.2865   54.7099 C   0  0  2  0  0  0  0  0  0  0  0  0
   48.1435   32.9835   55.0272 N   0  0  0  0  0  0  0  0  0  0  0  0
   46.0633   34.3127   55.1916 C   0  0  1  0  0  0  0  0  0  0  0  0
   46.0107   34.1132   56.6143 O   0  0  0  0  0  0  0  0  0  0  0  0
   45.4802   35.6951   54.8322 C   0  0  2  0  0  0  0  0  0  0  0  0
   44.1088   35.7534   55.2601 O   0  0  0  0  0  0  0  0  0  0  0  0
   45.5597   35.8710   53.2845 C   0  0  2  0  0  0  0  0  0  0  0  0
   46.9441   35.7979   52.8306 O   0  0  0  0  0  0  0  0  0  0  0  0
   45.0097   37.2421   52.8586 C   0  0  0  0  0  0  0  0  0  0  0  0
   43.5762   37.2740   52.9738 O   0  0  0  0  0  0  0  0  0  0  0  0
  1  2  1  6  0  0  0
  1  3  1  0  0  0  0
  1  4  2  0  0  0  0
  1 16  1  0  0  0  0
  5  6  1  6  0  0  0
  5  7  1  0  0  0  0
  5 14  1  0  0  0  0
  7  8  1  6  0  0  0
  7  9  1  0  0  0  0
  9 10  1  1  0  0  0
  9 11  1  0  0  0  0
 11 12  1  6  0  0  0
 11 13  1  0  0  0  0
 13 14  1  0  0  0  0
 13 15  1  1  0  0  0
 15 16  1  0  0  0  0
M  CHG  1   3  -1
M  END
>  <CHROM.1>
-73.07687280,-179.79359204,52.94355798,45.05986715,36.34546730,53.57352511
-2.50309232,-0.70785172,2.01487916

>  <Name>
ligand

>  <RI>
0

>  <Rbt.Current_Directory>
/home/itssahil/PROJECTS/Mol_Feturizer/New_Systems/rnas/3B4A

>  <Rbt.Executable>
rbdock ($Id: //depot/dev/client3/rdock/2013.1/src/exe/rbdock.cxx#4 $)

>  <Rbt.Library>
libRbt.so (2013.1, Build901 2013/11/27)

>  <Rbt.Parameter_File>
/export/apps/rDock/src/rDock_2013.1_src/data/scripts/dock_solv.prm

>  <Rbt.Receptor>
prm/pocket_docking_6.prm

>  <SCORE>
-8.25243

>  <SCORE.INTER>
-7.04929

>  <SCORE.INTER.CONST>
1

>  <SCORE.INTER.POLAR>
0

>  <SCORE.INTER.ROT>
3

>  <SCORE.INTER.SOLV>
22.3944

>  <SCORE.INTER.VDW>
-17.7643

>  <SCORE.INTER.norm>
-0.440581

>  <SCORE.INTRA>
-1.20313

>  <SCORE.INTRA.DIHEDRAL>
-1.3856

>  <SCORE.INTRA.DIHEDRAL.0>
2.05999

>  <SCORE.INTRA.POLAR>
0

>  <SCORE.INTRA.POLAR.0>
0

>  <SCORE.INTRA.REPUL>
0

>  <SCORE.INTRA.REPUL.0>
0

>  <SCORE.INTRA.SOLV>
-0.831

>  <SCORE.INTRA.SOLV.lig_0>
-58.7001

>  <SCORE.INTRA.VDW>
-0.0948329

>  <SCORE.INTRA.VDW.0>
-0.401036

>  <SCORE.INTRA.norm>
-0.0751958

>  <SCORE.RESTR>
0

>  <SCORE.RESTR.CAVITY>
0

>  <SCORE.RESTR.norm>
0

>  <SCORE.SYSTEM>
0

>  <SCORE.SYSTEM.CONST>
0

>  <SCORE.SYSTEM.DIHEDRAL>
0

>  <SCORE.SYSTEM.SOLV>
0

>  <SCORE.SYSTEM.norm>
0

>  <SCORE.heavy>
16

>  <SCORE.norm>
-0.515777

>  <RMSD>
6.193

$$$$
ligand
 OpenBabel11021811463D
libRbt.so/2013.1/901 2013/11/27
 16 16  0  0  0  0  0  0  0  0999 V2000
   42.9892   38.7917   52.4844 P   0  0  2  0  0  0  0  0  0  0  0  0
   41.5156   38.6854   52.3437 O   0  0  0  0  0  0  0  0  0  0  0  0
   43.3383   39.9560   53.5444 O   0  5  0  0  0  0  0  0  0  0  0  0
   43.6264   39.1482   51.0407 O   0  0  0  0  0  0  0  0  0  0  0  0
   47.6858   34.8300   53.2404 C   0  0  2  0  0  0  0  0  0  0  0  0
   47.0942   33.8018   52.4140 O   0  0  0  0  0  0  0  0  0  0  0  0
   47.5812   34.4617   54.7489 C   0  0  2  0  0  0  0  0  0  0  0  0
   48.2507   33.1700   54.9889 N   0  0  0  0  0  0  0  0  0  0  0  0
   46.0882   34.3634   55.1321 C   0  0  1  0  0  0  0  0  0  0  0  0
   45.9604   34.0301   56.5247 O   0  0  0  0  0  0  0  0  0  0  0  0
   45.4462   35.7395   54.8593 C   0  0  2  0  0  0  0  0  0  0  0  0
   44.0501   35.6833   55.1984 O   0  0  0  0  0  0  0  0  0  0  0  0
   45.6099   36.0625   53.3422 C   0  0  2  0  0  0  0  0  0  0  0  0
   47.0215   36.1070   52.9770 O   0  0  0  0  0  0  0  0  0  0  0  0
   45.0058   37.4353   53.0046 C   0  0  0  0  0  0  0  0  0  0  0  0
   43.5685   37.3774   53.0219 O   0  0  0  0  0  0  0  0  0  0  0  0
  1  2  1  6  0  0  0
  1  3  1  0  0  0  0
  1  4  2  0  0  0  0
  1 16  1  0  0  0  0
  5  6  1  6  0  0  0
  5  7  1  0  0  0  0
  5 14  1  0  0  0  0
  7  8  1  6  0  0  0
  7  9  1  0  0  0  0
  9 10  1  1  0  0  0
  9 11  1  0  0  0  0
 11 12  1  6  0  0  0
 11 13  1  0  0  0  0
 13 14  1  0  0  0  0
 13 15  1  1  0  0  0
 15 16  1  0  0  0  0
M  CHG  1   3  -1
M  END
>  <CHROM.1>
-73.27556142,-173.11554776,173.25828118,45.07384463,36.46190672,53.56844922
-2.44563737,-0.62089253,2.10978006

>  <Name>
ligand

>  <RI>
0

>  <Rbt.Current_Directory>
/home/itssahil/PROJECTS/Mol_Feturizer/New_Systems/rnas/3B4A

>  <Rbt.Executable>
rbdock ($Id: //depot/dev/client3/rdock/2013.1/src/exe/rbdock.cxx#4 $)

>  <Rbt.Library>
libRbt.so (2013.1, Build901 2013/11/27)

>  <Rbt.Parameter_File>
/export/apps/rDock/src/rDock_2013.1_src/data/scripts/dock_solv.prm

>  <Rbt.Receptor>
prm/pocket_docking_6.prm

>  <SCORE>
-10.9936

>  <SCORE.INTER>
-10.0161

>  <SCORE.INTER.CONST>
1

>  <SCORE.INTER.POLAR>
0

>  <SCORE.INTER.ROT>
3

>  <SCORE.INTER.SOLV>
17.6094

>  <SCORE.INTER.VDW>
-18.1472

>  <SCORE.INTER.norm>
-0.626005

>  <SCORE.INTRA>
-0.977557

>  <SCORE.INTRA.DIHEDRAL>
-1.144

>  <SCORE.INTRA.DIHEDRAL.0>
2.05999

>  <SCORE.INTRA.POLAR>
0

>  <SCORE.INTRA.POLAR.0>
0

>  <SCORE.INTRA.REPUL>
0

>  <SCORE.INTRA.REPUL.0>
0

>  <SCORE.INTRA.SOLV>
-0.173245

>  <SCORE.INTRA.SOLV.lig_0>
-58.7001

>  <SCORE.INTRA.VDW>
-0.318935

>  <SCORE.INTRA.VDW.0>
-0.401036

>  <SCORE.INTRA.norm>
-0.0610973

>  <SCORE.RESTR>
0

>  <SCORE.RESTR.CAVITY>
0

>  <SCORE.RESTR.norm>
0

>  <SCORE.SYSTEM>
0

>  <SCORE.SYSTEM.CONST>
0

>  <SCORE.SYSTEM.DIHEDRAL>
0

>  <SCORE.SYSTEM.SOLV>
0

>  <SCORE.SYSTEM.norm>
0

>  <SCORE.heavy>
16

>  <SCORE.norm>
-0.687102

>  <RMSD>
6.204

$$$$
ligand
 OpenBabel11021811463D
libRbt.so/2013.1/901 2013/11/27
 16 16  0  0  0  0  0  0  0  0999 V2000
   43.2598   38.8960   52.4762 P   0  0  2  0  0  0  0  0  0  0  0  0
   41.8292   38.5064   52.5394 O   0  0  0  0  0  0  0  0  0  0  0  0
   43.6132   39.8256   53.7458 O   0  5  0  0  0  0  0  0  0  0  0  0
   43.5176   39.7125   51.1035 O   0  0  0  0  0  0  0  0  0  0  0  0
   46.8708   34.5504   53.0678 C   0  0  2  0  0  0  0  0  0  0  0  0
   46.0409   33.5118   52.4995 O   0  0  0  0  0  0  0  0  0  0  0  0
   47.3351   34.1698   54.5036 C   0  0  2  0  0  0  0  0  0  0  0  0
   48.0753   32.8952   54.4612 N   0  0  0  0  0  0  0  0  0  0  0  0
   46.0893   34.0288   55.4056 C   0  0  1  0  0  0  0  0  0  0  0  0
   46.4888   33.6835   56.7427 O   0  0  0  0  0  0  0  0  0  0  0  0
   45.3608   35.3888   55.4088 C   0  0  2  0  0  0  0  0  0  0  0  0
   44.1880   35.2927   56.2350 O   0  0  0  0  0  0  0  0  0  0  0  0
   44.9493   35.7256   53.9426 C   0  0  2  0  0  0  0  0  0  0  0  0
   46.1272   35.8106   53.0862 O   0  0  0  0  0  0  0  0  0  0  0  0
   44.2323   37.0837   53.8715 C   0  0  0  0  0  0  0  0  0  0  0  0
   44.1707   37.5568   52.5144 O   0  0  0  0  0  0  0  0  0  0  0  0
  1  2  1  1  0  0  0
  1  3  1  0  0  0  0
  1  4  2  0  0  0  0
  1 16  1  0  0  0  0
  5  6  1  1  0  0  0
  5  7  1  0  0  0  0
  5 14  1  0  0  0  0
  7  8  1  6  0  0  0
  7  9  1  0  0  0  0
  9 10  1  1  0  0  0
  9 11  1  0  0  0  0
 11 12  1  1  0  0  0
 11 13  1  0  0  0  0
 13 14  1  0  0  0  0
 13 15  1  1  0  0  0
 15 16  1  0  0  0  0
M  CHG  1   3  -1
M  END
>  <CHROM.1>
164.74078040,173.48074720,-77.87832036,44.94839560,36.30116120,53.72724227
-2.48159350,-0.84804372,1.93582113

>  <Name>
ligand

>  <RI>
0

>  <Rbt.Current_Directory>
/home/itssahil/PROJECTS/Mol_Feturizer/New_Systems/rnas/3B4A

>  <Rbt.Executable>
rbdock ($Id: //depot/dev/client3/rdock/2013.1/src/exe/rbdock.cxx#4 $)

>  <Rbt.Library>
libRbt.so (2013.1, Build901 2013/11/27)

>  <Rbt.Parameter_File>
/export/apps/rDock/src/rDock_2013.1_src/data/scripts/dock_solv.prm

>  <Rbt.Receptor>
prm/pocket_docking_6.prm

>  <SCORE>
-11.2105

>  <SCORE.INTER>
-10.6889

>  <SCORE.INTER.CONST>
1

>  <SCORE.INTER.POLAR>
0

>  <SCORE.INTER.ROT>
3

>  <SCORE.INTER.SOLV>
15.9836

>  <SCORE.INTER.VDW>
-18.0538

>  <SCORE.INTER.norm>
-0.668055

>  <SCORE.INTRA>
-0.521611

>  <SCORE.INTRA.DIHEDRAL>
-0.567933

>  <SCORE.INTRA.DIHEDRAL.0>
2.05999

>  <SCORE.INTRA.POLAR>
0

>  <SCORE.INTRA.POLAR.0>
0

>  <SCORE.INTRA.REPUL>
0

>  <SCORE.INTRA.REPUL.0>
0

>  <SCORE.INTRA.SOLV>
-0.863671

>  <SCORE.INTRA.SOLV.lig_0>
-58.7001

>  <SCORE.INTRA.VDW>
0.194191

>  <SCORE.INTRA.VDW.0>
-0.401036

>  <SCORE.INTRA.norm>
-0.0326007

>  <SCORE.RESTR>
0

>  <SCORE.RESTR.CAVITY>
0

>  <SCORE.RESTR.norm>
0

>  <SCORE.SYSTEM>
0

>  <SCORE.SYSTEM.CONST>
0

>  <SCORE.SYSTEM.DIHEDRAL>
0

>  <SCORE.SYSTEM.SOLV>
0

>  <SCORE.SYSTEM.norm>
0

>  <SCORE.heavy>
16

>  <SCORE.norm>
-0.700655

>  <RMSD>
6.205

$$$$
ligand
 OpenBabel11021811463D
libRbt.so/2013.1/901 2013/11/27
 16 16  0  0  0  0  0  0  0  0999 V2000
   43.1974   39.3056   52.2935 P   0  0  2  0  0  0  0  0  0  0  0  0
   43.6374   39.2211   50.8787 O   0  0  0  0  0  0  0  0  0  0  0  0
   41.7325   38.6457   52.4341 O   0  5  0  0  0  0  0  0  0  0  0  0
   43.1478   40.8621   52.7320 O   0  0  0  0  0  0  0  0  0  0  0  0
   45.0988   34.1449   55.1658 C   0  0  2  0  0  0  0  0  0  0  0  0
   45.3428   34.7825   56.4402 O   0  0  0  0  0  0  0  0  0  0  0  0
   46.4351   33.8536   54.4231 C   0  0  2  0  0  0  0  0  0  0  0  0
   47.2900   32.9958   55.2642 N   0  0  0  0  0  0  0  0  0  0  0  0
   47.1465   35.1948   54.1397 C   0  0  1  0  0  0  0  0  0  0  0  0
   48.3834   34.9569   53.4470 O   0  0  0  0  0  0  0  0  0  0  0  0
   46.2055   36.0438   53.2598 C   0  0  2  0  0  0  0  0  0  0  0  0
   46.8336   37.3068   52.9812 O   0  0  0  0  0  0  0  0  0  0  0  0
   44.8783   36.2746   54.0458 C   0  0  2  0  0  0  0  0  0  0  0  0
   44.2356   35.0013   54.3516 O   0  0  0  0  0  0  0  0  0  0  0  0
   43.8842   37.1015   53.2143 C   0  0  0  0  0  0  0  0  0  0  0  0
   44.2494   38.4929   53.2198 O   0  0  0  0  0  0  0  0  0  0  0  0
  1  2  1  6  0  0  0
  1  3  1  0  0  0  0
  1  4  2  0  0  0  0
  1 16  1  0  0  0  0
  5  6  1  1  0  0  0
  5  7  1  0  0  0  0
  5 14  1  0  0  0  0
  7  8  1  1  0  0  0
  7  9  1  0  0  0  0
  9 10  1  6  0  0  0
  9 11  1  0  0  0  0
 11 12  1  1  0  0  0
 11 13  1  0  0  0  0
 13 14  1  0  0  0  0
 13 15  1  6  0  0  0
 15 16  1  0  0  0  0
M  CHG  1   3  -1
M  END
>  <CHROM.1>
-76.93267788,178.25703286,-84.46212264,44.93500300,36.78393917,53.52022174
2.15352975,0.29264213,-0.64242236

>  <Name>
ligand

>  <RI>
0

>  <Rbt.Current_Directory>
/home/itssahil/PROJECTS/Mol_Feturizer/New_Systems/rnas/3B4A

>  <Rbt.Executable>
rbdock ($Id: //depot/dev/client3/rdock/2013.1/src/exe/rbdock.cxx#4 $)

>  <Rbt.Library>
libRbt.so (2013.1, Build901 2013/11/27)

>  <Rbt.Parameter_File>
/export/apps/rDock/src/rDock_2013.1_src/data/scripts/dock_solv.prm

>  <Rbt.Receptor>
prm/pocket_docking_7.prm

>  <SCORE>
-7.54079

>  <SCORE.INTER>
-7.27561

>  <SCORE.INTER.CONST>
1

>  <SCORE.INTER.POLAR>
0

>  <SCORE.INTER.ROT>
3

>  <SCORE.INTER.SOLV>
19.2332

>  <SCORE.INTER.VDW>
-16.8615

>  <SCORE.INTER.norm>
-0.454726

>  <SCORE.INTRA>
-0.265181

>  <SCORE.INTRA.DIHEDRAL>
-0.220302

>  <SCORE.INTRA.DIHEDRAL.0>
2.05999

>  <SCORE.INTRA.POLAR>
0

>  <SCORE.INTRA.POLAR.0>
0

>  <SCORE.INTRA.REPUL>
0

>  <SCORE.INTRA.REPUL.0>
0

>  <SCORE.INTRA.SOLV>
-0.52706

>  <SCORE.INTRA.SOLV.lig_0>
-58.7001

>  <SCORE.INTRA.VDW>
0.108501

>  <SCORE.INTRA.VDW.0>
-0.401036

>  <SCORE.INTRA.norm>
-0.0165738

>  <SCORE.RESTR>
0

>  <SCORE.RESTR.CAVITY>
0

>  <SCORE.RESTR.norm>
0

>  <SCORE.SYSTEM>
0

>  <SCORE.SYSTEM.CONST>
0

>  <SCORE.SYSTEM.DIHEDRAL>
0

>  <SCORE.SYSTEM.SOLV>
0

>  <SCORE.SYSTEM.norm>
0

>  <SCORE.heavy>
16

>  <SCORE.norm>
-0.4713

>  <RMSD>
6.207

$$$$
ligand
 OpenBabel11021811463D
libRbt.so/2013.1/901 2013/11/27
 16 16  0  0  0  0  0  0  0  0999 V2000
   42.9841   38.7978   52.4891 P   0  0  2  0  0  0  0  0  0  0  0  0
   41.5112   38.6935   52.3396 O   0  0  0  0  0  0  0  0  0  0  0  0
   43.3286   39.9658   53.5466 O   0  5  0  0  0  0  0  0  0  0  0  0
   43.6309   39.1474   51.0480 O   0  0  0  0  0  0  0  0  0  0  0  0
   47.6624   34.8276   53.2209 C   0  0  2  0  0  0  0  0  0  0  0  0
   47.0424   33.8033   52.4107 O   0  0  0  0  0  0  0  0  0  0  0  0
   47.5953   34.4601   54.7317 C   0  0  2  0  0  0  0  0  0  0  0  0
   48.2623   33.1641   54.9543 N   0  0  0  0  0  0  0  0  0  0  0  0
   46.1123   34.3718   55.1542 C   0  0  1  0  0  0  0  0  0  0  0  0
   46.0191   34.0395   56.5498 O   0  0  0  0  0  0  0  0  0  0  0  0
   45.4725   35.7521   54.8981 C   0  0  2  0  0  0  0  0  0  0  0  0
   44.0855   35.7052   55.2740 O   0  0  0  0  0  0  0  0  0  0  0  0
   45.5982   36.0738   53.3772 C   0  0  2  0  0  0  0  0  0  0  0  0
   46.9999   36.1089   52.9748 O   0  0  0  0  0  0  0  0  0  0  0  0
   44.9944   37.4506   53.0552 C   0  0  0  0  0  0  0  0  0  0  0  0
   43.5576   37.3847   53.0360 O   0  0  0  0  0  0  0  0  0  0  0  0
  1  2  1  6  0  0  0
  1  3  1  0  0  0  0
  1  4  2  0  0  0  0
  1 16  1  0  0  0  0
  5  6  1  6  0  0  0
  5  7  1  0  0  0  0
  5 14  1  0  0  0  0
  7  8  1  6  0  0  0
  7  9  1  0  0  0  0
  9 10  1  1  0  0  0
  9 11  1  0  0  0  0
 11 12  1  6  0  0  0
 11 13  1  0  0  0  0
 13 14  1  0  0  0  0
 13 15  1  1  0  0  0
 15 16  1  0  0  0  0
M  CHG  1   3  -1
M  END
>  <CHROM.1>
-76.53562289,-172.05767809,174.50899400,45.07476444,36.46838903,53.58025703
-2.45792251,-0.63463711,2.08857942

>  <Name>
ligand

>  <RI>
0

>  <Rbt.Current_Directory>
/home/itssahil/PROJECTS/Mol_Feturizer/New_Systems/rnas/3B4A

>  <Rbt.Executable>
rbdock ($Id: //depot/dev/client3/rdock/2013.1/src/exe/rbdock.cxx#4 $)

>  <Rbt.Library>
libRbt.so (2013.1, Build901 2013/11/27)

>  <Rbt.Parameter_File>
/export/apps/rDock/src/rDock_2013.1_src/data/scripts/dock_solv.prm

>  <Rbt.Receptor>
prm/pocket_docking_8.prm

>  <SCORE>
-11.0654

>  <SCORE.INTER>
-10.2178

>  <SCORE.INTER.CONST>
1

>  <SCORE.INTER.POLAR>
0

>  <SCORE.INTER.ROT>
3

>  <SCORE.INTER.SOLV>
17.6465

>  <SCORE.INTER.VDW>
-18.294

>  <SCORE.INTER.norm>
-0.63861

>  <SCORE.INTRA>
-0.847588

>  <SCORE.INTRA.DIHEDRAL>
-0.777468

>  <SCORE.INTRA.DIHEDRAL.0>
2.05999

>  <SCORE.INTRA.POLAR>
0

>  <SCORE.INTRA.POLAR.0>
0

>  <SCORE.INTRA.REPUL>
0

>  <SCORE.INTRA.REPUL.0>
0

>  <SCORE.INTRA.SOLV>
-0.214638

>  <SCORE.INTRA.SOLV.lig_0>
-58.7001

>  <SCORE.INTRA.VDW>
-0.351535

>  <SCORE.INTRA.VDW.0>
-0.401036

>  <SCORE.INTRA.norm>
-0.0529743

>  <SCORE.RESTR>
0

>  <SCORE.RESTR.CAVITY>
0

>  <SCORE.RESTR.norm>
0

>  <SCORE.SYSTEM>
0

>  <SCORE.SYSTEM.CONST>
0

>  <SCORE.SYSTEM.DIHEDRAL>
0

>  <SCORE.SYSTEM.SOLV>
0

>  <SCORE.SYSTEM.norm>
0

>  <SCORE.heavy>
16

>  <SCORE.norm>
-0.691584

>  <RMSD>
6.213

$$$$
ligand
 OpenBabel11021811463D
libRbt.so/2013.1/901 2013/11/27
 16 16  0  0  0  0  0  0  0  0999 V2000
   42.9686   38.8033   52.4569 P   0  0  2  0  0  0  0  0  0  0  0  0
   41.4928   38.7090   52.3327 O   0  0  0  0  0  0  0  0  0  0  0  0
   43.3388   39.9535   53.5252 O   0  5  0  0  0  0  0  0  0  0  0  0
   43.5912   39.1709   51.0096 O   0  0  0  0  0  0  0  0  0  0  0  0
   47.6374   34.7915   53.2120 C   0  0  2  0  0  0  0  0  0  0  0  0
   47.0182   33.7299   52.4506 O   0  0  0  0  0  0  0  0  0  0  0  0
   47.5601   34.5009   54.7389 C   0  0  2  0  0  0  0  0  0  0  0  0
   48.2209   33.2154   55.0305 N   0  0  0  0  0  0  0  0  0  0  0  0
   46.0744   34.4392   55.1565 C   0  0  1  0  0  0  0  0  0  0  0  0
   45.9719   34.1780   56.5664 O   0  0  0  0  0  0  0  0  0  0  0  0
   45.4413   35.8071   54.8274 C   0  0  2  0  0  0  0  0  0  0  0  0
   44.0520   35.7840   55.1968 O   0  0  0  0  0  0  0  0  0  0  0  0
   45.5770   36.0512   53.2929 C   0  0  2  0  0  0  0  0  0  0  0  0
   46.9811   36.0611   52.8976 O   0  0  0  0  0  0  0  0  0  0  0  0
   44.9803   37.4121   52.8984 C   0  0  0  0  0  0  0  0  0  0  0  0
   43.5441   37.3792   52.9722 O   0  0  0  0  0  0  0  0  0  0  0  0
  1  2  1  6  0  0  0
  1  3  1  0  0  0  0
  1  4  2  0  0  0  0
  1 16  1  0  0  0  0
  5  6  1  6  0  0  0
  5  7  1  0  0  0  0
  5 14  1  0  0  0  0
  7  8  1  6  0  0  0
  7  9  1  0  0  0  0
  9 10  1  1  0  0  0
  9 11  1  0  0  0  0
 11 12  1  6  0  0  0
 11 13  1  0  0  0  0
 13 14  1  0  0  0  0
 13 15  1  1  0  0  0
 15 16  1  0  0  0  0
M  CHG  1   3  -1
M  END
>  <CHROM.1>
-72.17226536,-176.42563651,171.46521077,45.05026230,36.48261902,53.54934367
-2.47142375,-0.64784679,2.05992020

>  <Name>
ligand

>  <RI>
0

>  <Rbt.Current_Directory>
/home/itssahil/PROJECTS/Mol_Feturizer/New_Systems/rnas/3B4A

>  <Rbt.Executable>
rbdock ($Id: //depot/dev/client3/rdock/2013.1/src/exe/rbdock.cxx#4 $)

>  <Rbt.Library>
libRbt.so (2013.1, Build901 2013/11/27)

>  <Rbt.Parameter_File>
/export/apps/rDock/src/rDock_2013.1_src/data/scripts/dock_solv.prm

>  <Rbt.Receptor>
prm/pocket_docking_7.prm

>  <SCORE>
-11.0226

>  <SCORE.INTER>
-9.9553

>  <SCORE.INTER.CONST>
1

>  <SCORE.INTER.POLAR>
0

>  <SCORE.INTER.ROT>
3

>  <SCORE.INTER.SOLV>
17.8923

>  <SCORE.INTER.VDW>
-18.201

>  <SCORE.INTER.norm>
-0.622206

>  <SCORE.INTRA>
-1.06728

>  <SCORE.INTRA.DIHEDRAL>
-1.36263

>  <SCORE.INTRA.DIHEDRAL.0>
2.05999

>  <SCORE.INTRA.POLAR>
0

>  <SCORE.INTRA.POLAR.0>
0

>  <SCORE.INTRA.REPUL>
0

>  <SCORE.INTRA.REPUL.0>
0

>  <SCORE.INTRA.SOLV>
-0.136473

>  <SCORE.INTRA.SOLV.lig_0>
-58.7001

>  <SCORE.INTRA.VDW>
-0.31773

>  <SCORE.INTRA.VDW.0>
-0.401036

>  <SCORE.INTRA.norm>
-0.0667051

>  <SCORE.RESTR>
0

>  <SCORE.RESTR.CAVITY>
0

>  <SCORE.RESTR.norm>
0

>  <SCORE.SYSTEM>
0

>  <SCORE.SYSTEM.CONST>
0

>  <SCORE.SYSTEM.DIHEDRAL>
0

>  <SCORE.SYSTEM.SOLV>
0

>  <SCORE.SYSTEM.norm>
0

>  <SCORE.heavy>
16

>  <SCORE.norm>
-0.688911

>  <RMSD>
6.215

$$$$
ligand
 OpenBabel11021811463D
libRbt.so/2013.1/901 2013/11/27
 16 16  0  0  0  0  0  0  0  0999 V2000
   42.9671   38.8025   52.4839 P   0  0  2  0  0  0  0  0  0  0  0  0
   41.4925   38.7109   52.3438 O   0  0  0  0  0  0  0  0  0  0  0  0
   43.3279   39.9536   53.5543 O   0  5  0  0  0  0  0  0  0  0  0  0
   43.6061   39.1666   51.0429 O   0  0  0  0  0  0  0  0  0  0  0  0
   47.6264   34.8074   53.2271 C   0  0  2  0  0  0  0  0  0  0  0  0
   46.9988   33.7773   52.4302 O   0  0  0  0  0  0  0  0  0  0  0  0
   47.5624   34.4570   54.7420 C   0  0  2  0  0  0  0  0  0  0  0  0
   48.2238   33.1603   54.9768 N   0  0  0  0  0  0  0  0  0  0  0  0
   46.0804   34.3807   55.1703 C   0  0  1  0  0  0  0  0  0  0  0  0
   45.9902   34.0643   56.5697 O   0  0  0  0  0  0  0  0  0  0  0  0
   45.4465   35.7612   54.9009 C   0  0  2  0  0  0  0  0  0  0  0  0
   44.0605   35.7253   55.2817 O   0  0  0  0  0  0  0  0  0  0  0  0
   45.5688   36.0654   53.3761 C   0  0  2  0  0  0  0  0  0  0  0  0
   46.9693   36.0892   52.9688 O   0  0  0  0  0  0  0  0  0  0  0  0
   44.9708   37.4415   53.0408 C   0  0  0  0  0  0  0  0  0  0  0  0
   43.5340   37.3780   53.0076 O   0  0  0  0  0  0  0  0  0  0  0  0
  1  2  1  6  0  0  0
  1  3  1  0  0  0  0
  1  4  2  0  0  0  0
  1 16  1  0  0  0  0
  5  6  1  6  0  0  0
  5  7  1  0  0  0  0
  5 14  1  0  0  0  0
  7  8  1  6  0  0  0
  7  9  1  0  0  0  0
  9 10  1  1  0  0  0
  9 11  1  0  0  0  0
 11 12  1  6  0  0  0
 11 13  1  0  0  0  0
 13 14  1  0  0  0  0
 13 15  1  1  0  0  0
 15 16  1  0  0  0  0
M  CHG  1   3  -1
M  END
>  <CHROM.1>
-77.38074417,-173.50184413,175.56208558,45.04872797,36.46862240,53.58307166
-2.45958802,-0.64213947,2.07935133

>  <Name>
ligand

>  <RI>
0

>  <Rbt.Current_Directory>
/home/itssahil/PROJECTS/Mol_Feturizer/New_Systems/rnas/3B4A

>  <Rbt.Executable>
rbdock ($Id: //depot/dev/client3/rdock/2013.1/src/exe/rbdock.cxx#4 $)

>  <Rbt.Library>
libRbt.so (2013.1, Build901 2013/11/27)

>  <Rbt.Parameter_File>
/export/apps/rDock/src/rDock_2013.1_src/data/scripts/dock_solv.prm

>  <Rbt.Receptor>
prm/pocket_docking_8.prm

>  <SCORE>
-11.1232

>  <SCORE.INTER>
-10.2511

>  <SCORE.INTER.CONST>
1

>  <SCORE.INTER.POLAR>
0

>  <SCORE.INTER.ROT>
3

>  <SCORE.INTER.SOLV>
17.7791

>  <SCORE.INTER.VDW>
-18.3604

>  <SCORE.INTER.norm>
-0.640693

>  <SCORE.INTRA>
-0.872112

>  <SCORE.INTRA.DIHEDRAL>
-0.804498

>  <SCORE.INTRA.DIHEDRAL.0>
2.05999

>  <SCORE.INTRA.POLAR>
0

>  <SCORE.INTRA.POLAR.0>
0

>  <SCORE.INTRA.REPUL>
0

>  <SCORE.INTRA.REPUL.0>
0

>  <SCORE.INTRA.SOLV>
-0.211788

>  <SCORE.INTRA.SOLV.lig_0>
-58.7001

>  <SCORE.INTRA.VDW>
-0.363969

>  <SCORE.INTRA.VDW.0>
-0.401036

>  <SCORE.INTRA.norm>
-0.054507

>  <SCORE.RESTR>
0

>  <SCORE.RESTR.CAVITY>
0

>  <SCORE.RESTR.norm>
0

>  <SCORE.SYSTEM>
0

>  <SCORE.SYSTEM.CONST>
0

>  <SCORE.SYSTEM.DIHEDRAL>
0

>  <SCORE.SYSTEM.SOLV>
0

>  <SCORE.SYSTEM.norm>
0

>  <SCORE.heavy>
16

>  <SCORE.norm>
-0.6952

>  <RMSD>
6.220

$$$$
ligand
 OpenBabel11021811463D
libRbt.so/2013.1/901 2013/11/27
 16 16  0  0  0  0  0  0  0  0999 V2000
   45.9607   33.9630   55.2615 P   0  0  2  0  0  0  0  0  0  0  0  0
   44.6534   33.3072   55.0097 O   0  0  0  0  0  0  0  0  0  0  0  0
   47.0768   33.3086   54.2987 O   0  5  0  0  0  0  0  0  0  0  0  0
   46.3664   33.7389   56.8115 O   0  0  0  0  0  0  0  0  0  0  0  0
   45.9603   38.7846   51.3501 C   0  0  2  0  0  0  0  0  0  0  0  0
   46.7163   39.6689   52.2085 O   0  0  0  0  0  0  0  0  0  0  0  0
   44.4499   39.1599   51.3547 C   0  0  2  0  0  0  0  0  0  0  0  0
   44.2875   40.5572   50.9129 N   0  0  0  0  0  0  0  0  0  0  0  0
   43.9021   38.9909   52.7888 C   0  0  1  0  0  0  0  0  0  0  0  0
   42.5043   39.3250   52.8223 O   0  0  0  0  0  0  0  0  0  0  0  0
   44.1002   37.5149   53.1918 C   0  0  2  0  0  0  0  0  0  0  0  0
   43.6071   37.3215   54.5284 O   0  0  0  0  0  0  0  0  0  0  0  0
   45.6258   37.1949   53.1389 C   0  0  2  0  0  0  0  0  0  0  0  0
   46.1466   37.4021   51.7921 O   0  0  0  0  0  0  0  0  0  0  0  0
   45.8925   35.7276   53.5125 C   0  0  0  0  0  0  0  0  0  0  0  0
   45.8254   35.5448   54.9378 O   0  0  0  0  0  0  0  0  0  0  0  0
  1  2  1  6  0  0  0
  1  3  1  0  0  0  0
  1  4  2  0  0  0  0
  1 16  1  0  0  0  0
  5  6  1  1  0  0  0
  5  7  1  0  0  0  0
  5 14  1  0  0  0  0
  7  8  1  1  0  0  0
  7  9  1  0  0  0  0
  9 10  1  6  0  0  0
  9 11  1  0  0  0  0
 11 12  1  1  0  0  0
 11 13  1  0  0  0  0
 13 14  1  0  0  0  0
 13 15  1  6  0  0  0
 15 16  1  0  0  0  0
M  CHG  1   3  -1
M  END
>  <CHROM.1>
-78.13178741,174.22514965,-78.81817230,45.26224745,36.69177579,53.56010038
1.33968344,-0.38587581,2.49610992

>  <Name>
ligand

>  <RI>
0

>  <Rbt.Current_Directory>
/home/itssahil/PROJECTS/Mol_Feturizer/New_Systems/rnas/3B4A

>  <Rbt.Executable>
rbdock ($Id: //depot/dev/client3/rdock/2013.1/src/exe/rbdock.cxx#4 $)

>  <Rbt.Library>
libRbt.so (2013.1, Build901 2013/11/27)

>  <Rbt.Parameter_File>
/export/apps/rDock/src/rDock_2013.1_src/data/scripts/dock_solv.prm

>  <Rbt.Receptor>
prm/pocket_docking_7.prm

>  <SCORE>
-6.56046

>  <SCORE.INTER>
-6.08944

>  <SCORE.INTER.CONST>
1

>  <SCORE.INTER.POLAR>
0

>  <SCORE.INTER.ROT>
3

>  <SCORE.INTER.SOLV>
14.9206

>  <SCORE.INTER.VDW>
-14.6332

>  <SCORE.INTER.norm>
-0.38059

>  <SCORE.INTRA>
-0.471019

>  <SCORE.INTRA.DIHEDRAL>
-0.260459

>  <SCORE.INTRA.DIHEDRAL.0>
2.05999

>  <SCORE.INTRA.POLAR>
0

>  <SCORE.INTRA.POLAR.0>
0

>  <SCORE.INTRA.REPUL>
0

>  <SCORE.INTRA.REPUL.0>
0

>  <SCORE.INTRA.SOLV>
-0.551185

>  <SCORE.INTRA.SOLV.lig_0>
-58.7001

>  <SCORE.INTRA.VDW>
-0.0651971

>  <SCORE.INTRA.VDW.0>
-0.401036

>  <SCORE.INTRA.norm>
-0.0294387

>  <SCORE.RESTR>
0

>  <SCORE.RESTR.CAVITY>
0

>  <SCORE.RESTR.norm>
0

>  <SCORE.SYSTEM>
0

>  <SCORE.SYSTEM.CONST>
0

>  <SCORE.SYSTEM.DIHEDRAL>
0

>  <SCORE.SYSTEM.SOLV>
0

>  <SCORE.SYSTEM.norm>
0

>  <SCORE.heavy>
16

>  <SCORE.norm>
-0.410029

>  <RMSD>
6.234

$$$$
ligand
 OpenBabel11021811463D
libRbt.so/2013.1/901 2013/11/27
 16 16  0  0  0  0  0  0  0  0999 V2000
   43.0779   38.7116   52.5337 P   0  0  2  0  0  0  0  0  0  0  0  0
   41.5969   38.6153   52.5326 O   0  0  0  0  0  0  0  0  0  0  0  0
   43.5539   39.5549   53.8234 O   0  5  0  0  0  0  0  0  0  0  0  0
   43.5528   39.4571   51.1787 O   0  0  0  0  0  0  0  0  0  0  0  0
   46.7072   34.3690   53.1243 C   0  0  2  0  0  0  0  0  0  0  0  0
   45.8388   33.3133   52.6535 O   0  0  0  0  0  0  0  0  0  0  0  0
   47.2478   34.0525   54.5489 C   0  0  2  0  0  0  0  0  0  0  0  0
   47.9744   32.7697   54.5271 N   0  0  0  0  0  0  0  0  0  0  0  0
   46.0532   33.9678   55.5242 C   0  0  1  0  0  0  0  0  0  0  0  0
   46.5238   33.6824   56.8522 O   0  0  0  0  0  0  0  0  0  0  0  0
   45.3367   35.3340   55.5022 C   0  0  2  0  0  0  0  0  0  0  0  0
   44.2110   35.2897   56.3956 O   0  0  0  0  0  0  0  0  0  0  0  0
   44.8467   35.6048   54.0464 C   0  0  2  0  0  0  0  0  0  0  0  0
   45.9757   35.6364   53.1231 O   0  0  0  0  0  0  0  0  0  0  0  0
   44.1375   36.9654   53.9497 C   0  0  0  0  0  0  0  0  0  0  0  0
   43.7009   37.2176   52.6025 O   0  0  0  0  0  0  0  0  0  0  0  0
  1  2  1  1  0  0  0
  1  3  1  0  0  0  0
  1  4  2  0  0  0  0
  1 16  1  0  0  0  0
  5  6  1  1  0  0  0
  5  7  1  0  0  0  0
  5 14  1  0  0  0  0
  7  8  1  6  0  0  0
  7  9  1  0  0  0  0
  9 10  1  1  0  0  0
  9 11  1  0  0  0  0
 11 12  1  1  0  0  0
 11 13  1  0  0  0  0
 13 14  1  0  0  0  0
 13 15  1  1  0  0  0
 15 16  1  0  0  0  0
M  CHG  1   3  -1
M  END
>  <CHROM.1>
179.34583761,-175.19640084,-102.17042022,44.82896199,36.16537966,53.80798433
-2.56201477,-0.87052390,1.82844189

>  <Name>
ligand

>  <RI>
0

>  <Rbt.Current_Directory>
/home/itssahil/PROJECTS/Mol_Feturizer/New_Systems/rnas/3B4A

>  <Rbt.Executable>
rbdock ($Id: //depot/dev/client3/rdock/2013.1/src/exe/rbdock.cxx#4 $)

>  <Rbt.Library>
libRbt.so (2013.1, Build901 2013/11/27)

>  <Rbt.Parameter_File>
/export/apps/rDock/src/rDock_2013.1_src/data/scripts/dock_solv.prm

>  <Rbt.Receptor>
prm/pocket_docking_8.prm

>  <SCORE>
-10.3877

>  <SCORE.INTER>
-10.8777

>  <SCORE.INTER.CONST>
1

>  <SCORE.INTER.POLAR>
0

>  <SCORE.INTER.ROT>
3

>  <SCORE.INTER.SOLV>
17.3996

>  <SCORE.INTER.VDW>
-18.6517

>  <SCORE.INTER.norm>
-0.679854

>  <SCORE.INTRA>
0.489971

>  <SCORE.INTRA.DIHEDRAL>
-0.0301164

>  <SCORE.INTRA.DIHEDRAL.0>
2.05999

>  <SCORE.INTRA.POLAR>
0

>  <SCORE.INTRA.POLAR.0>
0

>  <SCORE.INTRA.REPUL>
0

>  <SCORE.INTRA.REPUL.0>
0

>  <SCORE.INTRA.SOLV>
-0.634648

>  <SCORE.INTRA.SOLV.lig_0>
-58.7001

>  <SCORE.INTRA.VDW>
0.822353

>  <SCORE.INTRA.VDW.0>
-0.401036

>  <SCORE.INTRA.norm>
0.0306232

>  <SCORE.RESTR>
0

>  <SCORE.RESTR.CAVITY>
0

>  <SCORE.RESTR.norm>
0

>  <SCORE.SYSTEM>
0

>  <SCORE.SYSTEM.CONST>
0

>  <SCORE.SYSTEM.DIHEDRAL>
0

>  <SCORE.SYSTEM.SOLV>
0

>  <SCORE.SYSTEM.norm>
0

>  <SCORE.heavy>
16

>  <SCORE.norm>
-0.649231

>  <RMSD>
6.237

$$$$
ligand
 OpenBabel11021811463D
libRbt.so/2013.1/901 2013/11/27
 16 16  0  0  0  0  0  0  0  0999 V2000
   43.3307   38.9270   52.4325 P   0  0  2  0  0  0  0  0  0  0  0  0
   43.5461   39.6085   51.1319 O   0  0  0  0  0  0  0  0  0  0  0  0
   41.7846   38.4833   52.5494 O   0  5  0  0  0  0  0  0  0  0  0  0
   43.7041   39.9527   53.6266 O   0  0  0  0  0  0  0  0  0  0  0  0
   46.9349   34.5923   53.1011 C   0  0  2  0  0  0  0  0  0  0  0  0
   46.1267   33.5567   52.4973 O   0  0  0  0  0  0  0  0  0  0  0  0
   47.3559   34.1993   54.5468 C   0  0  2  0  0  0  0  0  0  0  0  0
   48.1015   32.9276   54.5149 N   0  0  0  0  0  0  0  0  0  0  0  0
   46.0833   34.0453   55.4084 C   0  0  1  0  0  0  0  0  0  0  0  0
   46.4425   33.6882   56.7538 O   0  0  0  0  0  0  0  0  0  0  0  0
   45.3502   35.4029   55.4023 C   0  0  2  0  0  0  0  0  0  0  0  0
   44.1528   35.2948   56.1908 O   0  0  0  0  0  0  0  0  0  0  0  0
   44.9831   35.7527   53.9273 C   0  0  2  0  0  0  0  0  0  0  0  0
   46.1865   35.8499   53.1088 O   0  0  0  0  0  0  0  0  0  0  0  0
   44.2637   37.1091   53.8473 C   0  0  0  0  0  0  0  0  0  0  0  0
   44.2782   37.6146   52.5006 O   0  0  0  0  0  0  0  0  0  0  0  0
  1  2  1  6  0  0  0
  1  3  1  0  0  0  0
  1  4  2  0  0  0  0
  1 16  1  0  0  0  0
  5  6  1  1  0  0  0
  5  7  1  0  0  0  0
  5 14  1  0  0  0  0
  7  8  1  6  0  0  0
  7  9  1  0  0  0  0
  9 10  1  1  0  0  0
  9 11  1  0  0  0  0
 11 12  1  1  0  0  0
 11 13  1  0  0  0  0
 13 14  1  0  0  0  0
 13 15  1  1  0  0  0
 15 16  1  0  0  0  0
M  CHG  1   3  -1
M  END
>  <CHROM.1>
162.98596211,171.93906358,168.92494109,44.98119554,36.32427363,53.71967353
-2.44351206,-0.82680537,1.97811842

>  <Name>
ligand

>  <RI>
0

>  <Rbt.Current_Directory>
/home/itssahil/PROJECTS/Mol_Feturizer/New_Systems/rnas/3B4A

>  <Rbt.Executable>
rbdock ($Id: //depot/dev/client3/rdock/2013.1/src/exe/rbdock.cxx#4 $)

>  <Rbt.Library>
libRbt.so (2013.1, Build901 2013/11/27)

>  <Rbt.Parameter_File>
/export/apps/rDock/src/rDock_2013.1_src/data/scripts/dock_solv.prm

>  <Rbt.Receptor>
prm/pocket_docking_8.prm

>  <SCORE>
-8.96629

>  <SCORE.INTER>
-8.42046

>  <SCORE.INTER.CONST>
1

>  <SCORE.INTER.POLAR>
0

>  <SCORE.INTER.ROT>
3

>  <SCORE.INTER.SOLV>
20.2726

>  <SCORE.INTER.VDW>
-17.9712

>  <SCORE.INTER.norm>
-0.526279

>  <SCORE.INTRA>
-0.545823

>  <SCORE.INTRA.DIHEDRAL>
-0.570897

>  <SCORE.INTRA.DIHEDRAL.0>
2.05999

>  <SCORE.INTRA.POLAR>
0

>  <SCORE.INTRA.POLAR.0>
0

>  <SCORE.INTRA.REPUL>
0

>  <SCORE.INTRA.REPUL.0>
0

>  <SCORE.INTRA.SOLV>
-0.372538

>  <SCORE.INTRA.SOLV.lig_0>
-58.7001

>  <SCORE.INTRA.VDW>
-0.0741059

>  <SCORE.INTRA.VDW.0>
-0.401036

>  <SCORE.INTRA.norm>
-0.034114

>  <SCORE.RESTR>
0

>  <SCORE.RESTR.CAVITY>
0

>  <SCORE.RESTR.norm>
0

>  <SCORE.SYSTEM>
0

>  <SCORE.SYSTEM.CONST>
0

>  <SCORE.SYSTEM.DIHEDRAL>
0

>  <SCORE.SYSTEM.SOLV>
0

>  <SCORE.SYSTEM.norm>
0

>  <SCORE.heavy>
16

>  <SCORE.norm>
-0.560393

>  <RMSD>
6.237

$$$$
ligand
 OpenBabel11021811463D
libRbt.so/2013.1/901 2013/11/27
 16 16  0  0  0  0  0  0  0  0999 V2000
   42.1466   31.6610   53.8518 P   0  0  2  0  0  0  0  0  0  0  0  0
   41.4073   30.7689   54.7792 O   0  0  0  0  0  0  0  0  0  0  0  0
   41.0928   32.5724   53.0394 O   0  5  0  0  0  0  0  0  0  0  0  0
   43.0001   30.7506   52.8222 O   0  0  0  0  0  0  0  0  0  0  0  0
   47.2940   32.7160   55.0936 C   0  0  2  0  0  0  0  0  0  0  0  0
   47.1921   33.3082   56.4086 O   0  0  0  0  0  0  0  0  0  0  0  0
   48.1446   33.6090   54.1444 C   0  0  2  0  0  0  0  0  0  0  0  0
   49.4885   33.8007   54.7202 N   0  0  0  0  0  0  0  0  0  0  0  0
   47.4383   34.9730   53.9831 C   0  0  1  0  0  0  0  0  0  0  0  0
   48.1996   35.8184   53.1042 O   0  0  0  0  0  0  0  0  0  0  0  0
   46.0437   34.7064   53.3793 C   0  0  2  0  0  0  0  0  0  0  0  0
   45.3521   35.9570   53.2215 O   0  0  0  0  0  0  0  0  0  0  0  0
   45.2551   33.7854   54.3603 C   0  0  2  0  0  0  0  0  0  0  0  0
   45.9520   32.5173   54.5451 O   0  0  0  0  0  0  0  0  0  0  0  0
   43.8571   33.4636   53.8075 C   0  0  0  0  0  0  0  0  0  0  0  0
   43.1343   32.6124   54.7144 O   0  0  0  0  0  0  0  0  0  0  0  0
  1  2  1  1  0  0  0
  1  3  1  0  0  0  0
  1  4  2  0  0  0  0
  1 16  1  0  0  0  0
  5  6  1  1  0  0  0
  5  7  1  0  0  0  0
  5 14  1  0  0  0  0
  7  8  1  1  0  0  0
  7  9  1  0  0  0  0
  9 10  1  6  0  0  0
  9 11  1  0  0  0  0
 11 12  1  1  0  0  0
 11 13  1  0  0  0  0
 13 14  1  0  0  0  0
 13 15  1  6  0  0  0
 15 16  1  0  0  0  0
M  CHG  1   3  -1
M  END
>  <CHROM.1>
179.90879357,-148.51655512,179.39845146,45.01268589,33.17248696,54.10098808
-2.80802234,-0.30509119,-0.55290038

>  <Name>
ligand

>  <RI>
0

>  <Rbt.Current_Directory>
/home/itssahil/PROJECTS/Mol_Feturizer/New_Systems/rnas/3B4A

>  <Rbt.Executable>
rbdock ($Id: //depot/dev/client3/rdock/2013.1/src/exe/rbdock.cxx#4 $)

>  <Rbt.Library>
libRbt.so (2013.1, Build901 2013/11/27)

>  <Rbt.Parameter_File>
/export/apps/rDock/src/rDock_2013.1_src/data/scripts/dock_solv.prm

>  <Rbt.Receptor>
prm/pocket_docking_6.prm

>  <SCORE>
-5.40834

>  <SCORE.INTER>
-6.0154

>  <SCORE.INTER.CONST>
1

>  <SCORE.INTER.POLAR>
0

>  <SCORE.INTER.ROT>
3

>  <SCORE.INTER.SOLV>
22.9884

>  <SCORE.INTER.VDW>
-17.2731

>  <SCORE.INTER.norm>
-0.375963

>  <SCORE.INTRA>
0.607059

>  <SCORE.INTRA.DIHEDRAL>
1.82237

>  <SCORE.INTRA.DIHEDRAL.0>
2.05999

>  <SCORE.INTRA.POLAR>
0

>  <SCORE.INTRA.POLAR.0>
0

>  <SCORE.INTRA.REPUL>
0

>  <SCORE.INTRA.REPUL.0>
0

>  <SCORE.INTRA.SOLV>
0.190496

>  <SCORE.INTRA.SOLV.lig_0>
-58.7001

>  <SCORE.INTRA.VDW>
-0.399376

>  <SCORE.INTRA.VDW.0>
-0.401036

>  <SCORE.INTRA.norm>
0.0379412

>  <SCORE.RESTR>
0

>  <SCORE.RESTR.CAVITY>
0

>  <SCORE.RESTR.norm>
0

>  <SCORE.SYSTEM>
0

>  <SCORE.SYSTEM.CONST>
0

>  <SCORE.SYSTEM.DIHEDRAL>
0

>  <SCORE.SYSTEM.SOLV>
0

>  <SCORE.SYSTEM.norm>
0

>  <SCORE.heavy>
16

>  <SCORE.norm>
-0.338021

>  <RMSD>
6.334

$$$$
ligand
 OpenBabel11021811463D
libRbt.so/2013.1/901 2013/11/27
 16 16  0  0  0  0  0  0  0  0999 V2000
   43.7749   33.3501   54.4013 P   0  0  2  0  0  0  0  0  0  0  0  0
   42.5600   32.5384   54.6611 O   0  0  0  0  0  0  0  0  0  0  0  0
   43.6111   34.1140   52.9903 O   0  5  0  0  0  0  0  0  0  0  0  0
   45.0585   32.3665   54.3525 O   0  0  0  0  0  0  0  0  0  0  0  0
   43.5629   38.2452   53.7690 C   0  0  2  0  0  0  0  0  0  0  0  0
   42.9103   37.6223   52.6392 O   0  0  0  0  0  0  0  0  0  0  0  0
   44.8396   39.0143   53.3210 C   0  0  2  0  0  0  0  0  0  0  0  0
   44.4755   40.0338   52.3198 N   0  0  0  0  0  0  0  0  0  0  0  0
   45.8367   38.0051   52.7105 C   0  0  1  0  0  0  0  0  0  0  0  0
   47.0310   38.6876   52.2928 O   0  0  0  0  0  0  0  0  0  0  0  0
   46.1771   36.9690   53.8018 C   0  0  2  0  0  0  0  0  0  0  0  0
   47.1002   36.0061   53.2653 O   0  0  0  0  0  0  0  0  0  0  0  0
   44.8565   36.2565   54.2273 C   0  0  2  0  0  0  0  0  0  0  0  0
   43.9013   37.2222   54.7591 O   0  0  0  0  0  0  0  0  0  0  0  0
   45.1228   35.2199   55.3310 C   0  0  0  0  0  0  0  0  0  0  0  0
   43.9437   34.4377   55.5902 O   0  0  0  0  0  0  0  0  0  0  0  0
  1  2  1  1  0  0  0
  1  3  1  0  0  0  0
  1  4  2  0  0  0  0
  1 16  1  0  0  0  0
  5  6  1  6  0  0  0
  5  7  1  0  0  0  0
  5 14  1  0  0  0  0
  7  8  1  6  0  0  0
  7  9  1  0  0  0  0
  9 10  1  1  0  0  0
  9 11  1  0  0  0  0
 11 12  1  6  0  0  0
 11 13  1  0  0  0  0
 13 14  1  0  0  0  0
 13 15  1  1  0  0  0
 15 16  1  0  0  0  0
M  CHG  1   3  -1
M  END
>  <CHROM.1>
-172.03689829,76.63466425,-179.99614618,44.59477165,35.97592628,53.82592405
1.82011932,-0.11335340,2.87459647

>  <Name>
ligand

>  <RI>
0

>  <Rbt.Current_Directory>
/home/itssahil/PROJECTS/Mol_Feturizer/New_Systems/rnas/3B4A

>  <Rbt.Executable>
rbdock ($Id: //depot/dev/client3/rdock/2013.1/src/exe/rbdock.cxx#4 $)

>  <Rbt.Library>
libRbt.so (2013.1, Build901 2013/11/27)

>  <Rbt.Parameter_File>
/export/apps/rDock/src/rDock_2013.1_src/data/scripts/dock_solv.prm

>  <Rbt.Receptor>
prm/pocket_docking_7.prm

>  <SCORE>
-6.69272

>  <SCORE.INTER>
-7.6697

>  <SCORE.INTER.CONST>
1

>  <SCORE.INTER.POLAR>
0

>  <SCORE.INTER.ROT>
3

>  <SCORE.INTER.SOLV>
14.313

>  <SCORE.INTER.VDW>
-15.4841

>  <SCORE.INTER.norm>
-0.479356

>  <SCORE.INTRA>
0.976982

>  <SCORE.INTRA.DIHEDRAL>
-0.547907

>  <SCORE.INTRA.DIHEDRAL.0>
2.05999

>  <SCORE.INTRA.POLAR>
0

>  <SCORE.INTRA.POLAR.0>
0

>  <SCORE.INTRA.REPUL>
0

>  <SCORE.INTRA.REPUL.0>
0

>  <SCORE.INTRA.SOLV>
3.08049

>  <SCORE.INTRA.SOLV.lig_0>
-58.7001

>  <SCORE.INTRA.VDW>
-0.289307

>  <SCORE.INTRA.VDW.0>
-0.401036

>  <SCORE.INTRA.norm>
0.0610614

>  <SCORE.RESTR>
0

>  <SCORE.RESTR.CAVITY>
0

>  <SCORE.RESTR.norm>
0

>  <SCORE.SYSTEM>
0

>  <SCORE.SYSTEM.CONST>
0

>  <SCORE.SYSTEM.DIHEDRAL>
0

>  <SCORE.SYSTEM.SOLV>
0

>  <SCORE.SYSTEM.norm>
0

>  <SCORE.heavy>
16

>  <SCORE.norm>
-0.418295

>  <RMSD>
6.372

$$$$
ligand
 OpenBabel11021811463D
libRbt.so/2013.1/901 2013/11/27
 16 16  0  0  0  0  0  0  0  0999 V2000
   43.0686   32.6962   53.8227 P   0  0  2  0  0  0  0  0  0  0  0  0
   43.8852   31.4658   53.9711 O   0  0  0  0  0  0  0  0  0  0  0  0
   42.6844   33.2577   55.2849 O   0  5  0  0  0  0  0  0  0  0  0  0
   41.7247   32.3336   52.9982 O   0  0  0  0  0  0  0  0  0  0  0  0
   47.1614   35.6301   51.0465 C   0  0  2  0  0  0  0  0  0  0  0  0
   48.4028   35.8362   51.7582 O   0  0  0  0  0  0  0  0  0  0  0  0
   46.3999   36.9735   50.8529 C   0  0  2  0  0  0  0  0  0  0  0  0
   47.2548   37.9235   50.1175 N   0  0  0  0  0  0  0  0  0  0  0  0
   46.0457   37.5465   52.2428 C   0  0  1  0  0  0  0  0  0  0  0  0
   45.3344   38.7869   52.0949 O   0  0  0  0  0  0  0  0  0  0  0  0
   45.1545   36.5110   52.9596 C   0  0  2  0  0  0  0  0  0  0  0  0
   44.8103   37.0087   54.2639 O   0  0  0  0  0  0  0  0  0  0  0  0
   45.9615   35.1832   53.0957 C   0  0  2  0  0  0  0  0  0  0  0  0
   46.3337   34.6725   51.7809 O   0  0  0  0  0  0  0  0  0  0  0  0
   45.1207   34.0979   53.7876 C   0  0  0  0  0  0  0  0  0  0  0  0
   43.9357   33.8085   53.0253 O   0  0  0  0  0  0  0  0  0  0  0  0
  1  2  1  1  0  0  0
  1  3  1  0  0  0  0
  1  4  2  0  0  0  0
  1 16  1  0  0  0  0
  5  6  1  1  0  0  0
  5  7  1  0  0  0  0
  5 14  1  0  0  0  0
  7  8  1  1  0  0  0
  7  9  1  0  0  0  0
  9 10  1  6  0  0  0
  9 11  1  0  0  0  0
 11 12  1  1  0  0  0
 11 13  1  0  0  0  0
 13 14  1  0  0  0  0
 13 15  1  6  0  0  0
 15 16  1  0  0  0  0
M  CHG  1   3  -1
M  END
>  <CHROM.1>
60.68572649,-178.24237885,-60.43359577,45.00689381,35.00302246,52.81146001
-2.36420656,0.61561310,0.04151825

>  <Name>
ligand

>  <RI>
0

>  <Rbt.Current_Directory>
/home/itssahil/PROJECTS/Mol_Feturizer/New_Systems/rnas/3B4A

>  <Rbt.Executable>
rbdock ($Id: //depot/dev/client3/rdock/2013.1/src/exe/rbdock.cxx#4 $)

>  <Rbt.Library>
libRbt.so (2013.1, Build901 2013/11/27)

>  <Rbt.Parameter_File>
/export/apps/rDock/src/rDock_2013.1_src/data/scripts/dock_solv.prm

>  <Rbt.Receptor>
prm/pocket_docking_5.prm

>  <SCORE>
-4.41375

>  <SCORE.INTER>
-2.77624

>  <SCORE.INTER.CONST>
1

>  <SCORE.INTER.POLAR>
0

>  <SCORE.INTER.ROT>
3

>  <SCORE.INTER.SOLV>
15.5283

>  <SCORE.INTER.VDW>
-12.6269

>  <SCORE.INTER.norm>
-0.173515

>  <SCORE.INTRA>
-1.6375

>  <SCORE.INTRA.DIHEDRAL>
-2.04011

>  <SCORE.INTRA.DIHEDRAL.0>
2.05999

>  <SCORE.INTRA.POLAR>
0

>  <SCORE.INTRA.POLAR.0>
0

>  <SCORE.INTRA.REPUL>
0

>  <SCORE.INTRA.REPUL.0>
0

>  <SCORE.INTRA.SOLV>
-0.83489

>  <SCORE.INTRA.SOLV.lig_0>
-58.7001

>  <SCORE.INTRA.VDW>
-0.200003

>  <SCORE.INTRA.VDW.0>
-0.401036

>  <SCORE.INTRA.norm>
-0.102344

>  <SCORE.RESTR>
0

>  <SCORE.RESTR.CAVITY>
0

>  <SCORE.RESTR.norm>
0

>  <SCORE.SYSTEM>
0

>  <SCORE.SYSTEM.CONST>
0

>  <SCORE.SYSTEM.DIHEDRAL>
0

>  <SCORE.SYSTEM.SOLV>
0

>  <SCORE.SYSTEM.norm>
0

>  <SCORE.heavy>
16

>  <SCORE.norm>
-0.275859

>  <RMSD>
6.405

$$$$
ligand
 OpenBabel11021811463D
libRbt.so/2013.1/901 2013/11/27
 16 16  0  0  0  0  0  0  0  0999 V2000
   42.0209   31.7192   53.5947 P   0  0  2  0  0  0  0  0  0  0  0  0
   42.9551   31.4141   52.4826 O   0  0  0  0  0  0  0  0  0  0  0  0
   41.4047   30.3415   54.1631 O   0  5  0  0  0  0  0  0  0  0  0  0
   40.8351   32.6665   53.0344 O   0  0  0  0  0  0  0  0  0  0  0  0
   46.9689   32.0176   54.3483 C   0  0  2  0  0  0  0  0  0  0  0  0
   47.1421   31.9614   55.7825 O   0  0  0  0  0  0  0  0  0  0  0  0
   47.8233   33.1610   53.7279 C   0  0  2  0  0  0  0  0  0  0  0  0
   49.2445   32.9504   54.0595 N   0  0  0  0  0  0  0  0  0  0  0  0
   47.3392   34.5095   54.3047 C   0  0  1  0  0  0  0  0  0  0  0  0
   48.1077   35.5869   53.7433 O   0  0  0  0  0  0  0  0  0  0  0  0
   45.8523   34.6707   53.9261 C   0  0  2  0  0  0  0  0  0  0  0  0
   45.3641   35.9155   54.4546 O   0  0  0  0  0  0  0  0  0  0  0  0
   45.0580   33.4826   54.5506 C   0  0  2  0  0  0  0  0  0  0  0  0
   45.5519   32.2096   54.0373 O   0  0  0  0  0  0  0  0  0  0  0  0
   43.5652   33.5722   54.1940 C   0  0  0  0  0  0  0  0  0  0  0  0
   42.8365   32.4753   54.7729 O   0  0  0  0  0  0  0  0  0  0  0  0
  1  2  1  6  0  0  0
  1  3  1  0  0  0  0
  1  4  2  0  0  0  0
  1 16  1  0  0  0  0
  5  6  1  1  0  0  0
  5  7  1  0  0  0  0
  5 14  1  0  0  0  0
  7  8  1  1  0  0  0
  7  9  1  0  0  0  0
  9 10  1  6  0  0  0
  9 11  1  0  0  0  0
 11 12  1  1  0  0  0
 11 13  1  0  0  0  0
 13 14  1  0  0  0  0
 13 15  1  6  0  0  0
 15 16  1  0  0  0  0
M  CHG  1   3  -1
M  END
>  <CHROM.1>
-179.95066422,-125.72050191,50.81256504,44.83697511,32.92774854,54.03847320
-2.78520678,-0.13934441,-0.08230606

>  <Name>
ligand

>  <RI>
0

>  <Rbt.Current_Directory>
/home/itssahil/PROJECTS/Mol_Feturizer/New_Systems/rnas/3B4A

>  <Rbt.Executable>
rbdock ($Id: //depot/dev/client3/rdock/2013.1/src/exe/rbdock.cxx#4 $)

>  <Rbt.Library>
libRbt.so (2013.1, Build901 2013/11/27)

>  <Rbt.Parameter_File>
/export/apps/rDock/src/rDock_2013.1_src/data/scripts/dock_solv.prm

>  <Rbt.Receptor>
prm/pocket_docking_7.prm

>  <SCORE>
-5.50489

>  <SCORE.INTER>
-7.32134

>  <SCORE.INTER.CONST>
1

>  <SCORE.INTER.POLAR>
0

>  <SCORE.INTER.ROT>
3

>  <SCORE.INTER.SOLV>
21.004

>  <SCORE.INTER.VDW>
-17.4822

>  <SCORE.INTER.norm>
-0.457584

>  <SCORE.INTRA>
1.81644

>  <SCORE.INTRA.DIHEDRAL>
5.11806

>  <SCORE.INTRA.DIHEDRAL.0>
2.05999

>  <SCORE.INTRA.POLAR>
0

>  <SCORE.INTRA.POLAR.0>
0

>  <SCORE.INTRA.REPUL>
0

>  <SCORE.INTRA.REPUL.0>
0

>  <SCORE.INTRA.SOLV>
-0.743482

>  <SCORE.INTRA.SOLV.lig_0>
-58.7001

>  <SCORE.INTRA.VDW>
-0.370845

>  <SCORE.INTRA.VDW.0>
-0.401036

>  <SCORE.INTRA.norm>
0.113528

>  <SCORE.RESTR>
0

>  <SCORE.RESTR.CAVITY>
0

>  <SCORE.RESTR.norm>
0

>  <SCORE.SYSTEM>
0

>  <SCORE.SYSTEM.CONST>
0

>  <SCORE.SYSTEM.DIHEDRAL>
0

>  <SCORE.SYSTEM.SOLV>
0

>  <SCORE.SYSTEM.norm>
0

>  <SCORE.heavy>
16

>  <SCORE.norm>
-0.344056

>  <RMSD>
6.466

$$$$
ligand
 OpenBabel11021811463D
libRbt.so/2013.1/901 2013/11/27
 16 16  0  0  0  0  0  0  0  0999 V2000
   44.3690   35.2599   55.4673 P   0  0  2  0  0  0  0  0  0  0  0  0
   44.0787   35.6603   56.8665 O   0  0  0  0  0  0  0  0  0  0  0  0
   45.8939   34.7440   55.3685 O   0  5  0  0  0  0  0  0  0  0  0  0
   44.1546   36.5413   54.5032 O   0  0  0  0  0  0  0  0  0  0  0  0
   42.7626   30.0865   54.1360 C   0  0  2  0  0  0  0  0  0  0  0  0
   43.3244   29.5487   52.9172 O   0  0  0  0  0  0  0  0  0  0  0  0
   41.2106   30.1619   54.0487 C   0  0  2  0  0  0  0  0  0  0  0  0
   40.6653   28.8167   53.7890 N   0  0  0  0  0  0  0  0  0  0  0  0
   40.8253   31.1202   52.9004 C   0  0  1  0  0  0  0  0  0  0  0  0
   39.3944   31.2148   52.8002 O   0  0  0  0  0  0  0  0  0  0  0  0
   41.4224   32.5043   53.2292 C   0  0  2  0  0  0  0  0  0  0  0  0
   41.0893   33.4232   52.1748 O   0  0  0  0  0  0  0  0  0  0  0  0
   42.9716   32.3556   53.3320 C   0  0  2  0  0  0  0  0  0  0  0  0
   43.3272   31.4130   54.3870 O   0  0  0  0  0  0  0  0  0  0  0  0
   43.6307   33.7007   53.6781 C   0  0  0  0  0  0  0  0  0  0  0  0
   43.3630   34.0624   55.0445 O   0  0  0  0  0  0  0  0  0  0  0  0
  1  2  1  1  0  0  0
  1  3  1  0  0  0  0
  1  4  2  0  0  0  0
  1 16  1  0  0  0  0
  5  6  1  6  0  0  0
  5  7  1  0  0  0  0
  5 14  1  0  0  0  0
  7  8  1  6  0  0  0
  7  9  1  0  0  0  0
  9 10  1  1  0  0  0
  9 11  1  0  0  0  0
 11 12  1  6  0  0  0
 11 13  1  0  0  0  0
 13 14  1  0  0  0  0
 13 15  1  1  0  0  0
 15 16  1  0  0  0  0
M  CHG  1   3  -1
M  END
>  <CHROM.1>
71.81293289,165.66037522,178.73359027,42.81337828,32.79675168,54.15995129
-0.93682054,0.52615477,-3.08952258

>  <Name>
ligand

>  <RI>
0

>  <Rbt.Current_Directory>
/home/itssahil/PROJECTS/Mol_Feturizer/New_Systems/rnas/3B4A

>  <Rbt.Executable>
rbdock ($Id: //depot/dev/client3/rdock/2013.1/src/exe/rbdock.cxx#4 $)

>  <Rbt.Library>
libRbt.so (2013.1, Build901 2013/11/27)

>  <Rbt.Parameter_File>
/export/apps/rDock/src/rDock_2013.1_src/data/scripts/dock_solv.prm

>  <Rbt.Receptor>
prm/pocket_docking_8.prm

>  <SCORE>
1.4209

>  <SCORE.INTER>
2.02371

>  <SCORE.INTER.CONST>
1

>  <SCORE.INTER.POLAR>
0

>  <SCORE.INTER.ROT>
3

>  <SCORE.INTER.SOLV>
28.856

>  <SCORE.INTER.VDW>
-13.8695

>  <SCORE.INTER.norm>
0.126482

>  <SCORE.INTRA>
-0.686072

>  <SCORE.INTRA.DIHEDRAL>
-0.595001

>  <SCORE.INTRA.DIHEDRAL.0>
2.05999

>  <SCORE.INTRA.POLAR>
0

>  <SCORE.INTRA.POLAR.0>
0

>  <SCORE.INTRA.REPUL>
0

>  <SCORE.INTRA.REPUL.0>
0

>  <SCORE.INTRA.SOLV>
-0.11822

>  <SCORE.INTRA.SOLV.lig_0>
-58.7001

>  <SCORE.INTRA.VDW>
-0.329461

>  <SCORE.INTRA.VDW.0>
-0.401036

>  <SCORE.INTRA.norm>
-0.0428795

>  <SCORE.RESTR>
0.0832593

>  <SCORE.RESTR.CAVITY>
0.0832593

>  <SCORE.RESTR.norm>
0.00520371

>  <SCORE.SYSTEM>
0

>  <SCORE.SYSTEM.CONST>
0

>  <SCORE.SYSTEM.DIHEDRAL>
0

>  <SCORE.SYSTEM.SOLV>
0

>  <SCORE.SYSTEM.norm>
0

>  <SCORE.heavy>
16

>  <SCORE.norm>
0.0888062

>  <RMSD>
6.468

$$$$
ligand
 OpenBabel11021811463D
libRbt.so/2013.1/901 2013/11/27
 16 16  0  0  0  0  0  0  0  0999 V2000
   42.4933   31.9907   53.8754 P   0  0  2  0  0  0  0  0  0  0  0  0
   42.6360   30.6455   54.4859 O   0  0  0  0  0  0  0  0  0  0  0  0
   42.1963   33.0711   55.0355 O   0  5  0  0  0  0  0  0  0  0  0  0
   41.2658   31.9577   52.8222 O   0  0  0  0  0  0  0  0  0  0  0  0
   47.2920   34.4536   51.8947 C   0  0  2  0  0  0  0  0  0  0  0  0
   47.6663   33.3729   51.0104 O   0  0  0  0  0  0  0  0  0  0  0  0
   48.4280   34.7593   52.9136 C   0  0  2  0  0  0  0  0  0  0  0  0
   49.6636   35.1036   52.1862 N   0  0  0  0  0  0  0  0  0  0  0  0
   48.6596   33.5069   53.7873 C   0  0  1  0  0  0  0  0  0  0  0  0
   49.7013   33.7626   54.7443 O   0  0  0  0  0  0  0  0  0  0  0  0
   47.3367   33.1990   54.5192 C   0  0  2  0  0  0  0  0  0  0  0  0
   47.5129   32.0310   55.3388 O   0  0  0  0  0  0  0  0  0  0  0  0
   46.2362   32.9321   53.4467 C   0  0  2  0  0  0  0  0  0  0  0  0
   46.0559   34.1024   52.5948 O   0  0  0  0  0  0  0  0  0  0  0  0
   44.8818   32.6363   54.1114 C   0  0  0  0  0  0  0  0  0  0  0  0
   43.8742   32.3730   53.1191 O   0  0  0  0  0  0  0  0  0  0  0  0
  1  2  1  1  0  0  0
  1  3  1  0  0  0  0
  1  4  2  0  0  0  0
  1 16  1  0  0  0  0
  5  6  1  6  0  0  0
  5  7  1  0  0  0  0
  5 14  1  0  0  0  0
  7  8  1  6  0  0  0
  7  9  1  0  0  0  0
  9 10  1  1  0  0  0
  9 11  1  0  0  0  0
 11 12  1  1  0  0  0
 11 13  1  0  0  0  0
 13 14  1  0  0  0  0
 13 15  1  1  0  0  0
 15 16  1  0  0  0  0
M  CHG  1   3  -1
M  END
>  <CHROM.1>
-179.22456929,176.98576669,-71.25083022,45.67111718,33.00117129,53.53171564
2.90636130,0.24710115,1.99627181

>  <Name>
ligand

>  <RI>
0

>  <Rbt.Current_Directory>
/home/itssahil/PROJECTS/Mol_Feturizer/New_Systems/rnas/3B4A

>  <Rbt.Executable>
rbdock ($Id: //depot/dev/client3/rdock/2013.1/src/exe/rbdock.cxx#4 $)

>  <Rbt.Library>
libRbt.so (2013.1, Build901 2013/11/27)

>  <Rbt.Parameter_File>
/export/apps/rDock/src/rDock_2013.1_src/data/scripts/dock_solv.prm

>  <Rbt.Receptor>
prm/pocket_docking_6.prm

>  <SCORE>
-5.66431

>  <SCORE.INTER>
-4.26045

>  <SCORE.INTER.CONST>
1

>  <SCORE.INTER.POLAR>
0

>  <SCORE.INTER.ROT>
3

>  <SCORE.INTER.SOLV>
19.0883

>  <SCORE.INTER.VDW>
-14.8031

>  <SCORE.INTER.norm>
-0.266278

>  <SCORE.INTRA>
-1.40386

>  <SCORE.INTRA.DIHEDRAL>
-1.80854

>  <SCORE.INTRA.DIHEDRAL.0>
2.05999

>  <SCORE.INTRA.POLAR>
0

>  <SCORE.INTRA.POLAR.0>
0

>  <SCORE.INTRA.REPUL>
0

>  <SCORE.INTRA.REPUL.0>
0

>  <SCORE.INTRA.SOLV>
-0.965119

>  <SCORE.INTRA.SOLV.lig_0>
-58.7001

>  <SCORE.INTRA.VDW>
-0.017028

>  <SCORE.INTRA.VDW.0>
-0.401036

>  <SCORE.INTRA.norm>
-0.087741

>  <SCORE.RESTR>
0

>  <SCORE.RESTR.CAVITY>
0

>  <SCORE.RESTR.norm>
0

>  <SCORE.SYSTEM>
0

>  <SCORE.SYSTEM.CONST>
0

>  <SCORE.SYSTEM.DIHEDRAL>
0

>  <SCORE.SYSTEM.SOLV>
0

>  <SCORE.SYSTEM.norm>
0

>  <SCORE.heavy>
16

>  <SCORE.norm>
-0.354019

>  <RMSD>
6.471

$$$$
ligand
 OpenBabel11021811463D
libRbt.so/2013.1/901 2013/11/27
 16 16  0  0  0  0  0  0  0  0999 V2000
   42.8660   31.8920   53.6244 P   0  0  2  0  0  0  0  0  0  0  0  0
   41.8985   31.9055   52.4992 O   0  0  0  0  0  0  0  0  0  0  0  0
   43.1982   30.3643   54.0204 O   0  5  0  0  0  0  0  0  0  0  0  0
   42.2082   32.6606   54.8869 O   0  0  0  0  0  0  0  0  0  0  0  0
   46.6366   35.2678   50.8790 C   0  0  2  0  0  0  0  0  0  0  0  0
   47.8158   34.7018   51.4951 O   0  0  0  0  0  0  0  0  0  0  0  0
   46.5566   36.8012   51.1326 C   0  0  2  0  0  0  0  0  0  0  0  0
   47.7685   37.4527   50.6025 N   0  0  0  0  0  0  0  0  0  0  0  0
   46.4459   37.0463   52.6535 C   0  0  1  0  0  0  0  0  0  0  0  0
   46.3634   38.4569   52.9179 O   0  0  0  0  0  0  0  0  0  0  0  0
   45.1641   36.3429   53.1461 C   0  0  2  0  0  0  0  0  0  0  0  0
   45.0319   36.5439   54.5636 O   0  0  0  0  0  0  0  0  0  0  0  0
   45.2939   34.8196   52.8373 C   0  0  2  0  0  0  0  0  0  0  0  0
   45.4458   34.5983   51.4035 O   0  0  0  0  0  0  0  0  0  0  0  0
   44.0361   34.0588   53.2877 C   0  0  0  0  0  0  0  0  0  0  0  0
   44.2256   32.6388   53.1566 O   0  0  0  0  0  0  0  0  0  0  0  0
  1  2  1  6  0  0  0
  1  3  1  0  0  0  0
  1  4  2  0  0  0  0
  1 16  1  0  0  0  0
  5  6  1  1  0  0  0
  5  7  1  0  0  0  0
  5 14  1  0  0  0  0
  7  8  1  1  0  0  0
  7  9  1  0  0  0  0
  9 10  1  6  0  0  0
  9 11  1  0  0  0  0
 11 12  1  1  0  0  0
 11 13  1  0  0  0  0
 13 14  1  0  0  0  0
 13 15  1  6  0  0  0
 15 16  1  0  0  0  0
M  CHG  1   3  -1
M  END
>  <CHROM.1>
-172.77336572,-179.23086434,81.74125869,44.85925251,34.45862251,52.79466507
-2.55714229,0.77910114,0.47190276

>  <Name>
ligand

>  <RI>
0

>  <Rbt.Current_Directory>
/home/itssahil/PROJECTS/Mol_Feturizer/New_Systems/rnas/3B4A

>  <Rbt.Executable>
rbdock ($Id: //depot/dev/client3/rdock/2013.1/src/exe/rbdock.cxx#4 $)

>  <Rbt.Library>
libRbt.so (2013.1, Build901 2013/11/27)

>  <Rbt.Parameter_File>
/export/apps/rDock/src/rDock_2013.1_src/data/scripts/dock_solv.prm

>  <Rbt.Receptor>
prm/pocket_docking_6.prm

>  <SCORE>
-5.65017

>  <SCORE.INTER>
-4.72439

>  <SCORE.INTER.CONST>
1

>  <SCORE.INTER.POLAR>
0

>  <SCORE.INTER.ROT>
3

>  <SCORE.INTER.SOLV>
17.098

>  <SCORE.INTER.VDW>
-14.4489

>  <SCORE.INTER.norm>
-0.295274

>  <SCORE.INTRA>
-0.925782

>  <SCORE.INTRA.DIHEDRAL>
-1.16854

>  <SCORE.INTRA.DIHEDRAL.0>
2.05999

>  <SCORE.INTRA.POLAR>
0

>  <SCORE.INTRA.POLAR.0>
0

>  <SCORE.INTRA.REPUL>
0

>  <SCORE.INTRA.REPUL.0>
0

>  <SCORE.INTRA.SOLV>
-0.87296

>  <SCORE.INTRA.SOLV.lig_0>
-58.7001

>  <SCORE.INTRA.VDW>
0.0949661

>  <SCORE.INTRA.VDW.0>
-0.401036

>  <SCORE.INTRA.norm>
-0.0578614

>  <SCORE.RESTR>
0

>  <SCORE.RESTR.CAVITY>
0

>  <SCORE.RESTR.norm>
0

>  <SCORE.SYSTEM>
0

>  <SCORE.SYSTEM.CONST>
0

>  <SCORE.SYSTEM.DIHEDRAL>
0

>  <SCORE.SYSTEM.SOLV>
0

>  <SCORE.SYSTEM.norm>
0

>  <SCORE.heavy>
16

>  <SCORE.norm>
-0.353136

>  <RMSD>
6.618

$$$$
ligand
 OpenBabel11021811463D
libRbt.so/2013.1/901 2013/11/27
 16 16  0  0  0  0  0  0  0  0999 V2000
   42.8724   31.8835   53.6089 P   0  0  2  0  0  0  0  0  0  0  0  0
   41.8998   31.8956   52.4880 O   0  0  0  0  0  0  0  0  0  0  0  0
   43.2446   30.3569   53.9722 O   0  5  0  0  0  0  0  0  0  0  0  0
   42.2011   32.6093   54.8895 O   0  0  0  0  0  0  0  0  0  0  0  0
   46.6351   35.3681   50.9639 C   0  0  2  0  0  0  0  0  0  0  0  0
   47.8025   34.8461   51.6384 O   0  0  0  0  0  0  0  0  0  0  0  0
   46.4922   36.8995   51.2014 C   0  0  2  0  0  0  0  0  0  0  0  0
   47.7050   37.5882   50.7230 N   0  0  0  0  0  0  0  0  0  0  0  0
   46.3025   37.1504   52.7135 C   0  0  1  0  0  0  0  0  0  0  0  0
   46.1608   38.5591   52.9628 O   0  0  0  0  0  0  0  0  0  0  0  0
   45.0234   36.4072   53.1516 C   0  0  2  0  0  0  0  0  0  0  0  0
   44.8185   36.6126   54.5598 O   0  0  0  0  0  0  0  0  0  0  0  0
   45.2182   34.8872   52.8612 C   0  0  2  0  0  0  0  0  0  0  0  0
   45.4441   34.6622   51.4377 O   0  0  0  0  0  0  0  0  0  0  0  0
   43.9669   34.0873   53.2586 C   0  0  0  0  0  0  0  0  0  0  0  0
   44.2107   32.6737   53.1511 O   0  0  0  0  0  0  0  0  0  0  0  0
  1  2  1  6  0  0  0
  1  3  1  0  0  0  0
  1  4  2  0  0  0  0
  1 16  1  0  0  0  0
  5  6  1  1  0  0  0
  5  7  1  0  0  0  0
  5 14  1  0  0  0  0
  7  8  1  1  0  0  0
  7  9  1  0  0  0  0
  9 10  1  6  0  0  0
  9 11  1  0  0  0  0
 11 12  1  1  0  0  0
 11 13  1  0  0  0  0
 13 14  1  0  0  0  0
 13 15  1  6  0  0  0
 15 16  1  0  0  0  0
M  CHG  1   3  -1
M  END
>  <CHROM.1>
-172.61795318,178.88521857,79.35417008,44.80494520,34.51106242,52.82031364
-2.48803222,0.75726032,0.41044859

>  <Name>
ligand

>  <RI>
0

>  <Rbt.Current_Directory>
/home/itssahil/PROJECTS/Mol_Feturizer/New_Systems/rnas/3B4A

>  <Rbt.Executable>
rbdock ($Id: //depot/dev/client3/rdock/2013.1/src/exe/rbdock.cxx#4 $)

>  <Rbt.Library>
libRbt.so (2013.1, Build901 2013/11/27)

>  <Rbt.Parameter_File>
/export/apps/rDock/src/rDock_2013.1_src/data/scripts/dock_solv.prm

>  <Rbt.Receptor>
prm/pocket_docking_6.prm

>  <SCORE>
-5.58408

>  <SCORE.INTER>
-4.53395

>  <SCORE.INTER.CONST>
1

>  <SCORE.INTER.POLAR>
0

>  <SCORE.INTER.ROT>
3

>  <SCORE.INTER.SOLV>
17.0143

>  <SCORE.INTER.VDW>
-14.2941

>  <SCORE.INTER.norm>
-0.283372

>  <SCORE.INTRA>
-1.05013

>  <SCORE.INTRA.DIHEDRAL>
-1.28916

>  <SCORE.INTRA.DIHEDRAL.0>
2.05999

>  <SCORE.INTRA.POLAR>
0

>  <SCORE.INTRA.POLAR.0>
0

>  <SCORE.INTRA.REPUL>
0

>  <SCORE.INTRA.REPUL.0>
0

>  <SCORE.INTRA.SOLV>
-0.898984

>  <SCORE.INTRA.SOLV.lig_0>
-58.7001

>  <SCORE.INTRA.VDW>
0.0439463

>  <SCORE.INTRA.VDW.0>
-0.401036

>  <SCORE.INTRA.norm>
-0.0656329

>  <SCORE.RESTR>
0

>  <SCORE.RESTR.CAVITY>
0

>  <SCORE.RESTR.norm>
0

>  <SCORE.SYSTEM>
0

>  <SCORE.SYSTEM.CONST>
0

>  <SCORE.SYSTEM.DIHEDRAL>
0

>  <SCORE.SYSTEM.SOLV>
0

>  <SCORE.SYSTEM.norm>
0

>  <SCORE.heavy>
16

>  <SCORE.norm>
-0.349005

>  <RMSD>
6.633

$$$$
ligand
 OpenBabel11021811463D
libRbt.so/2013.1/901 2013/11/27
 16 16  0  0  0  0  0  0  0  0999 V2000
   44.0987   33.3133   54.0639 P   0  0  2  0  0  0  0  0  0  0  0  0
   43.3148   33.6010   55.2908 O   0  0  0  0  0  0  0  0  0  0  0  0
   43.2333   32.3599   53.0927 O   0  5  0  0  0  0  0  0  0  0  0  0
   45.4736   32.5722   54.4855 O   0  0  0  0  0  0  0  0  0  0  0  0
   46.4550   38.0428   51.6710 C   0  0  2  0  0  0  0  0  0  0  0  0
   47.3084   38.8356   52.5273 O   0  0  0  0  0  0  0  0  0  0  0  0
   45.1197   38.7849   51.3734 C   0  0  2  0  0  0  0  0  0  0  0  0
   45.4084   40.0845   50.7394 N   0  0  0  0  0  0  0  0  0  0  0  0
   44.3662   39.0009   52.7042 C   0  0  1  0  0  0  0  0  0  0  0  0
   43.1230   39.6799   52.4590 O   0  0  0  0  0  0  0  0  0  0  0  0
   44.0947   37.6108   53.3161 C   0  0  2  0  0  0  0  0  0  0  0  0
   43.3990   37.7733   54.5638 O   0  0  0  0  0  0  0  0  0  0  0  0
   45.4660   36.9095   53.5620 C   0  0  2  0  0  0  0  0  0  0  0  0
   46.1932   36.7514   52.3074 O   0  0  0  0  0  0  0  0  0  0  0  0
   45.2661   35.5055   54.1558 C   0  0  0  0  0  0  0  0  0  0  0  0
   44.4205   34.7093   53.3072 O   0  0  0  0  0  0  0  0  0  0  0  0
  1  2  1  1  0  0  0
  1  3  1  0  0  0  0
  1  4  2  0  0  0  0
  1 16  1  0  0  0  0
  5  6  1  1  0  0  0
  5  7  1  0  0  0  0
  5 14  1  0  0  0  0
  7  8  1  1  0  0  0
  7  9  1  0  0  0  0
  9 10  1  6  0  0  0
  9 11  1  0  0  0  0
 11 12  1  1  0  0  0
 11 13  1  0  0  0  0
 13 14  1  0  0  0  0
 13 15  1  6  0  0  0
 15 16  1  0  0  0  0
M  CHG  1   3  -1
M  END
>  <CHROM.1>
56.08250024,-173.20606832,64.39484268,44.72835551,36.29475705,53.20285495
-1.76213401,0.37685314,-0.27466590

>  <Name>
ligand

>  <RI>
0

>  <Rbt.Current_Directory>
/home/itssahil/PROJECTS/Mol_Feturizer/New_Systems/rnas/3B4A

>  <Rbt.Executable>
rbdock ($Id: //depot/dev/client3/rdock/2013.1/src/exe/rbdock.cxx#4 $)

>  <Rbt.Library>
libRbt.so (2013.1, Build901 2013/11/27)

>  <Rbt.Parameter_File>
/export/apps/rDock/src/rDock_2013.1_src/data/scripts/dock_solv.prm

>  <Rbt.Receptor>
prm/pocket_docking_6.prm

>  <SCORE>
-5.88884

>  <SCORE.INTER>
-4.36312

>  <SCORE.INTER.CONST>
1

>  <SCORE.INTER.POLAR>
0

>  <SCORE.INTER.ROT>
3

>  <SCORE.INTER.SOLV>
12.1372

>  <SCORE.INTER.VDW>
-12.5545

>  <SCORE.INTER.norm>
-0.272695

>  <SCORE.INTRA>
-1.52572

>  <SCORE.INTRA.DIHEDRAL>
-1.74626

>  <SCORE.INTRA.DIHEDRAL.0>
2.05999

>  <SCORE.INTRA.POLAR>
0

>  <SCORE.INTRA.POLAR.0>
0

>  <SCORE.INTRA.REPUL>
0

>  <SCORE.INTRA.REPUL.0>
0

>  <SCORE.INTRA.SOLV>
-0.827928

>  <SCORE.INTRA.SOLV.lig_0>
-58.7001

>  <SCORE.INTRA.VDW>
-0.23863

>  <SCORE.INTRA.VDW.0>
-0.401036

>  <SCORE.INTRA.norm>
-0.0953578

>  <SCORE.RESTR>
0

>  <SCORE.RESTR.CAVITY>
0

>  <SCORE.RESTR.norm>
0

>  <SCORE.SYSTEM>
0

>  <SCORE.SYSTEM.CONST>
0

>  <SCORE.SYSTEM.DIHEDRAL>
0

>  <SCORE.SYSTEM.SOLV>
0

>  <SCORE.SYSTEM.norm>
0

>  <SCORE.heavy>
16

>  <SCORE.norm>
-0.368053

>  <RMSD>
6.635

$$$$
ligand
 OpenBabel11021811463D
libRbt.so/2013.1/901 2013/11/27
 16 16  0  0  0  0  0  0  0  0999 V2000
   45.1984   34.2522   55.0979 P   0  0  2  0  0  0  0  0  0  0  0  0
   43.7850   33.9627   55.4457 O   0  0  0  0  0  0  0  0  0  0  0  0
   45.5409   33.5851   53.6700 O   0  5  0  0  0  0  0  0  0  0  0  0
   46.1555   33.6291   56.2438 O   0  0  0  0  0  0  0  0  0  0  0  0
   44.5536   39.9676   55.0863 C   0  0  2  0  0  0  0  0  0  0  0  0
   43.5588   40.5029   54.1840 O   0  0  0  0  0  0  0  0  0  0  0  0
   45.9885   40.3651   54.6335 C   0  0  2  0  0  0  0  0  0  0  0  0
   46.0972   41.8343   54.5722 N   0  0  0  0  0  0  0  0  0  0  0  0
   46.2542   39.7559   53.2393 C   0  0  1  0  0  0  0  0  0  0  0  0
   47.5777   40.1018   52.7973 O   0  0  0  0  0  0  0  0  0  0  0  0
   46.1263   38.2238   53.3688 C   0  0  2  0  0  0  0  0  0  0  0  0
   46.3605   37.6216   52.0844 O   0  0  0  0  0  0  0  0  0  0  0  0
   44.6806   37.8939   53.8525 C   0  0  2  0  0  0  0  0  0  0  0  0
   44.4200   38.5116   55.1480 O   0  0  0  0  0  0  0  0  0  0  0  0
   44.4907   36.3776   54.0214 C   0  0  0  0  0  0  0  0  0  0  0  0
   45.3987   35.8574   55.0084 O   0  0  0  0  0  0  0  0  0  0  0  0
  1  2  1  1  0  0  0
  1  3  1  0  0  0  0
  1  4  2  0  0  0  0
  1 16  1  0  0  0  0
  5  6  1  6  0  0  0
  5  7  1  0  0  0  0
  5 14  1  0  0  0  0
  7  8  1  6  0  0  0
  7  9  1  0  0  0  0
  9 10  1  1  0  0  0
  9 11  1  0  0  0  0
 11 12  1  6  0  0  0
 11 13  1  0  0  0  0
 13 14  1  0  0  0  0
 13 15  1  1  0  0  0
 15 16  1  0  0  0  0
M  CHG  1   3  -1
M  END
>  <CHROM.1>
61.09258666,-177.60180744,-58.17770933,45.36894651,37.33367526,54.34103826
1.68592398,-0.72391747,3.03933586

>  <Name>
ligand

>  <RI>
0

>  <Rbt.Current_Directory>
/home/itssahil/PROJECTS/Mol_Feturizer/New_Systems/rnas/3B4A

>  <Rbt.Executable>
rbdock ($Id: //depot/dev/client3/rdock/2013.1/src/exe/rbdock.cxx#4 $)

>  <Rbt.Library>
libRbt.so (2013.1, Build901 2013/11/27)

>  <Rbt.Parameter_File>
/export/apps/rDock/src/rDock_2013.1_src/data/scripts/dock_solv.prm

>  <Rbt.Receptor>
prm/pocket_docking_8.prm

>  <SCORE>
-7.46068

>  <SCORE.INTER>
-5.84332

>  <SCORE.INTER.CONST>
1

>  <SCORE.INTER.POLAR>
0

>  <SCORE.INTER.ROT>
3

>  <SCORE.INTER.SOLV>
12.8708

>  <SCORE.INTER.VDW>
-13.7858

>  <SCORE.INTER.norm>
-0.365207

>  <SCORE.INTRA>
-1.61737

>  <SCORE.INTRA.DIHEDRAL>
-2.01905

>  <SCORE.INTRA.DIHEDRAL.0>
2.05999

>  <SCORE.INTRA.POLAR>
0

>  <SCORE.INTRA.POLAR.0>
0

>  <SCORE.INTRA.REPUL>
0

>  <SCORE.INTRA.REPUL.0>
0

>  <SCORE.INTRA.SOLV>
-0.844674

>  <SCORE.INTRA.SOLV.lig_0>
-58.7001

>  <SCORE.INTRA.VDW>
-0.185503

>  <SCORE.INTRA.VDW.0>
-0.401036

>  <SCORE.INTRA.norm>
-0.101085

>  <SCORE.RESTR>
0

>  <SCORE.RESTR.CAVITY>
0

>  <SCORE.RESTR.norm>
0

>  <SCORE.SYSTEM>
0

>  <SCORE.SYSTEM.CONST>
0

>  <SCORE.SYSTEM.DIHEDRAL>
0

>  <SCORE.SYSTEM.SOLV>
0

>  <SCORE.SYSTEM.norm>
0

>  <SCORE.heavy>
16

>  <SCORE.norm>
-0.466293

>  <RMSD>
6.652

$$$$
ligand
 OpenBabel11021811463D
libRbt.so/2013.1/901 2013/11/27
 16 16  0  0  0  0  0  0  0  0999 V2000
   42.6611   32.3353   53.9087 P   0  0  2  0  0  0  0  0  0  0  0  0
   42.3306   33.0491   55.1672 O   0  0  0  0  0  0  0  0  0  0  0  0
   41.4823   32.5786   52.8353 O   0  5  0  0  0  0  0  0  0  0  0  0
   42.8025   30.7554   54.2271 O   0  0  0  0  0  0  0  0  0  0  0  0
   46.5968   35.1563   50.8153 C   0  0  2  0  0  0  0  0  0  0  0  0
   47.7498   34.5232   51.4152 O   0  0  0  0  0  0  0  0  0  0  0  0
   46.6690   36.7036   50.9659 C   0  0  2  0  0  0  0  0  0  0  0  0
   47.9061   37.2032   50.3381 N   0  0  0  0  0  0  0  0  0  0  0  0
   46.6589   37.0557   52.4697 C   0  0  1  0  0  0  0  0  0  0  0  0
   46.7182   38.4819   52.6397 O   0  0  0  0  0  0  0  0  0  0  0  0
   45.3457   36.5087   53.0669 C   0  0  2  0  0  0  0  0  0  0  0  0
   45.3050   36.8122   54.4717 O   0  0  0  0  0  0  0  0  0  0  0  0
   45.3211   34.9632   52.8584 C   0  0  2  0  0  0  0  0  0  0  0  0
   45.3786   34.6366   51.4378 O   0  0  0  0  0  0  0  0  0  0  0  0
   44.0243   34.3543   53.4163 C   0  0  0  0  0  0  0  0  0  0  0  0
   44.0551   32.9190   53.3248 O   0  0  0  0  0  0  0  0  0  0  0  0
  1  2  1  1  0  0  0
  1  3  1  0  0  0  0
  1  4  2  0  0  0  0
  1 16  1  0  0  0  0
  5  6  1  1  0  0  0
  5  7  1  0  0  0  0
  5 14  1  0  0  0  0
  7  8  1  1  0  0  0
  7  9  1  0  0  0  0
  9 10  1  6  0  0  0
  9 11  1  0  0  0  0
 11 12  1  1  0  0  0
 11 13  1  0  0  0  0
 13 14  1  0  0  0  0
 13 15  1  6  0  0  0
 15 16  1  0  0  0  0
M  CHG  1   3  -1
M  END
>  <CHROM.1>
-175.11879972,-179.33246180,-44.32374250,44.84341973,34.64103318,52.83420957
-2.70405977,0.77146360,0.52085885

>  <Name>
ligand

>  <RI>
0

>  <Rbt.Current_Directory>
/home/itssahil/PROJECTS/Mol_Feturizer/New_Systems/rnas/3B4A

>  <Rbt.Executable>
rbdock ($Id: //depot/dev/client3/rdock/2013.1/src/exe/rbdock.cxx#4 $)

>  <Rbt.Library>
libRbt.so (2013.1, Build901 2013/11/27)

>  <Rbt.Parameter_File>
/export/apps/rDock/src/rDock_2013.1_src/data/scripts/dock_solv.prm

>  <Rbt.Receptor>
prm/pocket_docking_6.prm

>  <SCORE>
-6.56278

>  <SCORE.INTER>
-5.41008

>  <SCORE.INTER.CONST>
1

>  <SCORE.INTER.POLAR>
0

>  <SCORE.INTER.ROT>
3

>  <SCORE.INTER.SOLV>
15.4585

>  <SCORE.INTER.VDW>
-14.3596

>  <SCORE.INTER.norm>
-0.33813

>  <SCORE.INTRA>
-1.1527

>  <SCORE.INTRA.DIHEDRAL>
-1.58589

>  <SCORE.INTRA.DIHEDRAL.0>
2.05999

>  <SCORE.INTRA.POLAR>
0

>  <SCORE.INTRA.POLAR.0>
0

>  <SCORE.INTRA.REPUL>
0

>  <SCORE.INTRA.REPUL.0>
0

>  <SCORE.INTRA.SOLV>
-1.21584

>  <SCORE.INTRA.SOLV.lig_0>
-58.7001

>  <SCORE.INTRA.VDW>
0.248163

>  <SCORE.INTRA.VDW.0>
-0.401036

>  <SCORE.INTRA.norm>
-0.0720439

>  <SCORE.RESTR>
0

>  <SCORE.RESTR.CAVITY>
0

>  <SCORE.RESTR.norm>
0

>  <SCORE.SYSTEM>
0

>  <SCORE.SYSTEM.CONST>
0

>  <SCORE.SYSTEM.DIHEDRAL>
0

>  <SCORE.SYSTEM.SOLV>
0

>  <SCORE.SYSTEM.norm>
0

>  <SCORE.heavy>
16

>  <SCORE.norm>
-0.410174

>  <RMSD>
6.655

$$$$
ligand
 OpenBabel11021811463D
libRbt.so/2013.1/901 2013/11/27
 16 16  0  0  0  0  0  0  0  0999 V2000
   45.1807   34.7718   55.6191 P   0  0  2  0  0  0  0  0  0  0  0  0
   44.1642   35.2111   56.6072 O   0  0  0  0  0  0  0  0  0  0  0  0
   44.4935   33.7655   54.5626 O   0  5  0  0  0  0  0  0  0  0  0  0
   46.3782   34.0180   56.4033 O   0  0  0  0  0  0  0  0  0  0  0  0
   45.7238   40.2508   54.0608 C   0  0  2  0  0  0  0  0  0  0  0  0
   44.6562   40.8076   53.2605 O   0  0  0  0  0  0  0  0  0  0  0  0
   47.0422   40.1511   53.2399 C   0  0  2  0  0  0  0  0  0  0  0  0
   47.4205   41.4893   52.7497 N   0  0  0  0  0  0  0  0  0  0  0  0
   46.8122   39.1962   52.0480 C   0  0  1  0  0  0  0  0  0  0  0  0
   48.0179   39.0792   51.2738 O   0  0  0  0  0  0  0  0  0  0  0  0
   46.4209   37.8192   52.6236 C   0  0  2  0  0  0  0  0  0  0  0  0
   46.1909   36.9037   51.5391 O   0  0  0  0  0  0  0  0  0  0  0  0
   45.1137   37.9921   53.4567 C   0  0  2  0  0  0  0  0  0  0  0  0
   45.3247   38.9315   54.5525 O   0  0  0  0  0  0  0  0  0  0  0  0
   44.6771   36.6549   54.0773 C   0  0  0  0  0  0  0  0  0  0  0  0
   45.7499   36.0721   54.8381 O   0  0  0  0  0  0  0  0  0  0  0  0
  1  2  1  1  0  0  0
  1  3  1  0  0  0  0
  1  4  2  0  0  0  0
  1 16  1  0  0  0  0
  5  6  1  6  0  0  0
  5  7  1  0  0  0  0
  5 14  1  0  0  0  0
  7  8  1  6  0  0  0
  7  9  1  0  0  0  0
  9 10  1  1  0  0  0
  9 11  1  0  0  0  0
 11 12  1  6  0  0  0
 11 13  1  0  0  0  0
 13 14  1  0  0  0  0
 13 15  1  1  0  0  0
 15 16  1  0  0  0  0
M  CHG  1   3  -1
M  END
>  <CHROM.1>
53.96798532,172.86184706,-64.81400889,45.77016467,37.41714710,53.96352657
2.01539635,-0.99014334,3.01396995

>  <Name>
ligand

>  <RI>
0

>  <Rbt.Current_Directory>
/home/itssahil/PROJECTS/Mol_Feturizer/New_Systems/rnas/3B4A

>  <Rbt.Executable>
rbdock ($Id: //depot/dev/client3/rdock/2013.1/src/exe/rbdock.cxx#4 $)

>  <Rbt.Library>
libRbt.so (2013.1, Build901 2013/11/27)

>  <Rbt.Parameter_File>
/export/apps/rDock/src/rDock_2013.1_src/data/scripts/dock_solv.prm

>  <Rbt.Receptor>
prm/pocket_docking_7.prm

>  <SCORE>
-6.39059

>  <SCORE.INTER>
-5.00282

>  <SCORE.INTER.CONST>
1

>  <SCORE.INTER.POLAR>
0

>  <SCORE.INTER.ROT>
3

>  <SCORE.INTER.SOLV>
15.3365

>  <SCORE.INTER.VDW>
-14.0474

>  <SCORE.INTER.norm>
-0.312676

>  <SCORE.INTRA>
-1.38777

>  <SCORE.INTRA.DIHEDRAL>
-1.64254

>  <SCORE.INTRA.DIHEDRAL.0>
2.05999

>  <SCORE.INTRA.POLAR>
0

>  <SCORE.INTRA.POLAR.0>
0

>  <SCORE.INTRA.REPUL>
0

>  <SCORE.INTRA.REPUL.0>
0

>  <SCORE.INTRA.SOLV>
-0.806651

>  <SCORE.INTRA.SOLV.lig_0>
-58.7001

>  <SCORE.INTRA.VDW>
-0.16318

>  <SCORE.INTRA.VDW.0>
-0.401036

>  <SCORE.INTRA.norm>
-0.0867358

>  <SCORE.RESTR>
0

>  <SCORE.RESTR.CAVITY>
0

>  <SCORE.RESTR.norm>
0

>  <SCORE.SYSTEM>
0

>  <SCORE.SYSTEM.CONST>
0

>  <SCORE.SYSTEM.DIHEDRAL>
0

>  <SCORE.SYSTEM.SOLV>
0

>  <SCORE.SYSTEM.norm>
0

>  <SCORE.heavy>
16

>  <SCORE.norm>
-0.399412

>  <RMSD>
6.661

$$$$
ligand
 OpenBabel11021811463D
libRbt.so/2013.1/901 2013/11/27
 16 16  0  0  0  0  0  0  0  0999 V2000
   45.4822   34.3699   55.2568 P   0  0  2  0  0  0  0  0  0  0  0  0
   46.1637   33.9229   56.4970 O   0  0  0  0  0  0  0  0  0  0  0  0
   44.0894   33.5721   55.0996 O   0  5  0  0  0  0  0  0  0  0  0  0
   46.4434   34.0599   53.9930 O   0  0  0  0  0  0  0  0  0  0  0  0
   45.7555   39.9477   54.4123 C   0  0  2  0  0  0  0  0  0  0  0  0
   44.8930   40.3980   55.4817 O   0  0  0  0  0  0  0  0  0  0  0  0
   45.2788   40.5048   53.0395 C   0  0  2  0  0  0  0  0  0  0  0  0
   45.2556   41.9784   53.0864 N   0  0  0  0  0  0  0  0  0  0  0  0
   43.8622   39.9620   52.7499 C   0  0  1  0  0  0  0  0  0  0  0  0
   43.3976   40.4559   51.4823 O   0  0  0  0  0  0  0  0  0  0  0  0
   43.9522   38.4222   52.7137 C   0  0  2  0  0  0  0  0  0  0  0  0
   42.6462   37.8802   52.4531 O   0  0  0  0  0  0  0  0  0  0  0  0
   44.4619   37.9303   54.1033 C   0  0  2  0  0  0  0  0  0  0  0  0
   45.7800   38.4847   54.3915 O   0  0  0  0  0  0  0  0  0  0  0  0
   44.5933   36.3987   54.1294 C   0  0  0  0  0  0  0  0  0  0  0  0
   45.1875   35.9595   55.3636 O   0  0  0  0  0  0  0  0  0  0  0  0
  1  2  1  1  0  0  0
  1  3  1  0  0  0  0
  1  4  2  0  0  0  0
  1 16  1  0  0  0  0
  5  6  1  1  0  0  0
  5  7  1  0  0  0  0
  5 14  1  0  0  0  0
  7  8  1  1  0  0  0
  7  9  1  0  0  0  0
  9 10  1  6  0  0  0
  9 11  1  0  0  0  0
 11 12  1  1  0  0  0
 11 13  1  0  0  0  0
 13 14  1  0  0  0  0
 13 15  1  6  0  0  0
 15 16  1  0  0  0  0
M  CHG  1   3  -1
M  END
>  <CHROM.1>
174.30327599,-172.55615606,176.91452779,44.87478551,37.44727941,54.13217380
-1.34620733,-0.83106982,-0.17636010

>  <Name>
ligand

>  <RI>
0

>  <Rbt.Current_Directory>
/home/itssahil/PROJECTS/Mol_Feturizer/New_Systems/rnas/3B4A

>  <Rbt.Executable>
rbdock ($Id: //depot/dev/client3/rdock/2013.1/src/exe/rbdock.cxx#4 $)

>  <Rbt.Library>
libRbt.so (2013.1, Build901 2013/11/27)

>  <Rbt.Parameter_File>
/export/apps/rDock/src/rDock_2013.1_src/data/scripts/dock_solv.prm

>  <Rbt.Receptor>
prm/pocket_docking_8.prm

>  <SCORE>
-9.90514

>  <SCORE.INTER>
-8.64795

>  <SCORE.INTER.CONST>
1

>  <SCORE.INTER.POLAR>
0

>  <SCORE.INTER.ROT>
3

>  <SCORE.INTER.SOLV>
11.6695

>  <SCORE.INTER.VDW>
-15.2551

>  <SCORE.INTER.norm>
-0.540497

>  <SCORE.INTRA>
-1.25718

>  <SCORE.INTRA.DIHEDRAL>
-1.65721

>  <SCORE.INTRA.DIHEDRAL.0>
2.05999

>  <SCORE.INTRA.POLAR>
0

>  <SCORE.INTRA.POLAR.0>
0

>  <SCORE.INTRA.REPUL>
0

>  <SCORE.INTRA.REPUL.0>
0

>  <SCORE.INTRA.SOLV>
-0.350421

>  <SCORE.INTRA.SOLV.lig_0>
-58.7001

>  <SCORE.INTRA.VDW>
-0.25337

>  <SCORE.INTRA.VDW.0>
-0.401036

>  <SCORE.INTRA.norm>
-0.078574

>  <SCORE.RESTR>
0

>  <SCORE.RESTR.CAVITY>
0

>  <SCORE.RESTR.norm>
0

>  <SCORE.SYSTEM>
0

>  <SCORE.SYSTEM.CONST>
0

>  <SCORE.SYSTEM.DIHEDRAL>
0

>  <SCORE.SYSTEM.SOLV>
0

>  <SCORE.SYSTEM.norm>
0

>  <SCORE.heavy>
16

>  <SCORE.norm>
-0.619071

>  <RMSD>
6.706

$$$$
ligand
 OpenBabel11021811463D
libRbt.so/2013.1/901 2013/11/27
 16 16  0  0  0  0  0  0  0  0999 V2000
   45.3365   34.2517   55.0014 P   0  0  2  0  0  0  0  0  0  0  0  0
   46.0946   34.0173   53.7473 O   0  0  0  0  0  0  0  0  0  0  0  0
   46.1532   33.6211   56.2409 O   0  5  0  0  0  0  0  0  0  0  0  0
   43.8877   33.5429   54.8750 O   0  0  0  0  0  0  0  0  0  0  0  0
   45.8252   39.8725   54.5655 C   0  0  2  0  0  0  0  0  0  0  0  0
   45.0264   40.2693   55.7034 O   0  0  0  0  0  0  0  0  0  0  0  0
   45.3147   40.5519   53.2617 C   0  0  2  0  0  0  0  0  0  0  0  0
   45.3522   42.0172   53.4218 N   0  0  0  0  0  0  0  0  0  0  0  0
   43.8667   40.0853   52.9947 C   0  0  1  0  0  0  0  0  0  0  0  0
   43.3701   40.6930   51.7903 O   0  0  0  0  0  0  0  0  0  0  0  0
   43.8938   38.5508   52.8373 C   0  0  2  0  0  0  0  0  0  0  0  0
   42.5577   38.0788   52.5944 O   0  0  0  0  0  0  0  0  0  0  0  0
   44.4406   37.9339   54.1614 C   0  0  2  0  0  0  0  0  0  0  0  0
   45.7906   38.4156   54.4322 O   0  0  0  0  0  0  0  0  0  0  0  0
   44.5119   36.4011   54.0648 C   0  0  0  0  0  0  0  0  0  0  0  0
   45.1654   35.8478   55.2207 O   0  0  0  0  0  0  0  0  0  0  0  0
  1  2  1  6  0  0  0
  1  3  1  0  0  0  0
  1  4  2  0  0  0  0
  1 16  1  0  0  0  0
  5  6  1  1  0  0  0
  5  7  1  0  0  0  0
  5 14  1  0  0  0  0
  7  8  1  1  0  0  0
  7  9  1  0  0  0  0
  9 10  1  6  0  0  0
  9 11  1  0  0  0  0
 11 12  1  1  0  0  0
 11 13  1  0  0  0  0
 13 14  1  0  0  0  0
 13 15  1  6  0  0  0
 15 16  1  0  0  0  0
M  CHG  1   3  -1
M  END
>  <CHROM.1>
173.03015518,-174.74196019,56.93997141,44.82405541,37.43108253,54.14724012
-1.39701029,-0.78266393,-0.14211581

>  <Name>
ligand

>  <RI>
0

>  <Rbt.Current_Directory>
/home/itssahil/PROJECTS/Mol_Feturizer/New_Systems/rnas/3B4A

>  <Rbt.Executable>
rbdock ($Id: //depot/dev/client3/rdock/2013.1/src/exe/rbdock.cxx#4 $)

>  <Rbt.Library>
libRbt.so (2013.1, Build901 2013/11/27)

>  <Rbt.Parameter_File>
/export/apps/rDock/src/rDock_2013.1_src/data/scripts/dock_solv.prm

>  <Rbt.Receptor>
prm/pocket_docking_8.prm

>  <SCORE>
-7.08611

>  <SCORE.INTER>
-5.64857

>  <SCORE.INTER.CONST>
1

>  <SCORE.INTER.POLAR>
0

>  <SCORE.INTER.ROT>
3

>  <SCORE.INTER.SOLV>
16.3256

>  <SCORE.INTER.VDW>
-14.8076

>  <SCORE.INTER.norm>
-0.353036

>  <SCORE.INTRA>
-1.43754

>  <SCORE.INTRA.DIHEDRAL>
-1.735

>  <SCORE.INTRA.DIHEDRAL.0>
2.05999

>  <SCORE.INTRA.POLAR>
0

>  <SCORE.INTRA.POLAR.0>
0

>  <SCORE.INTRA.REPUL>
0

>  <SCORE.INTRA.REPUL.0>
0

>  <SCORE.INTRA.SOLV>
-1.06789

>  <SCORE.INTRA.SOLV.lig_0>
-58.7001

>  <SCORE.INTRA.VDW>
-0.0360964

>  <SCORE.INTRA.VDW.0>
-0.401036

>  <SCORE.INTRA.norm>
-0.0898463

>  <SCORE.RESTR>
0

>  <SCORE.RESTR.CAVITY>
0

>  <SCORE.RESTR.norm>
0

>  <SCORE.SYSTEM>
0

>  <SCORE.SYSTEM.CONST>
0

>  <SCORE.SYSTEM.DIHEDRAL>
0

>  <SCORE.SYSTEM.SOLV>
0

>  <SCORE.SYSTEM.norm>
0

>  <SCORE.heavy>
16

>  <SCORE.norm>
-0.442882

>  <RMSD>
6.755

$$$$
ligand
 OpenBabel11021811463D
libRbt.so/2013.1/901 2013/11/27
 16 16  0  0  0  0  0  0  0  0999 V2000
   45.1916   34.7780   55.6071 P   0  0  2  0  0  0  0  0  0  0  0  0
   44.1430   35.1921   56.5722 O   0  0  0  0  0  0  0  0  0  0  0  0
   44.5498   33.7654   54.5283 O   0  5  0  0  0  0  0  0  0  0  0  0
   46.3837   34.0421   56.4163 O   0  0  0  0  0  0  0  0  0  0  0  0
   46.9481   38.9619   52.1491 C   0  0  2  0  0  0  0  0  0  0  0  0
   47.1796   39.9612   53.1680 O   0  0  0  0  0  0  0  0  0  0  0  0
   45.9583   39.4861   51.0686 C   0  0  2  0  0  0  0  0  0  0  0  0
   46.4984   40.7157   50.4599 N   0  0  0  0  0  0  0  0  0  0  0  0
   44.6004   39.7814   51.7428 C   0  0  1  0  0  0  0  0  0  0  0  0
   43.6621   40.2619   50.7655 O   0  0  0  0  0  0  0  0  0  0  0  0
   44.0898   38.4620   52.3583 C   0  0  2  0  0  0  0  0  0  0  0  0
   42.8272   38.7009   53.0031 O   0  0  0  0  0  0  0  0  0  0  0  0
   45.1364   37.9755   53.4074 C   0  0  2  0  0  0  0  0  0  0  0  0
   46.4291   37.7439   52.7725 O   0  0  0  0  0  0  0  0  0  0  0  0
   44.6963   36.6489   54.0478 C   0  0  0  0  0  0  0  0  0  0  0  0
   45.7551   36.0936   54.8477 O   0  0  0  0  0  0  0  0  0  0  0  0
  1  2  1  1  0  0  0
  1  3  1  0  0  0  0
  1  4  2  0  0  0  0
  1 16  1  0  0  0  0
  5  6  1  1  0  0  0
  5  7  1  0  0  0  0
  5 14  1  0  0  0  0
  7  8  1  1  0  0  0
  7  9  1  0  0  0  0
  9 10  1  6  0  0  0
  9 11  1  0  0  0  0
 11 12  1  1  0  0  0
 11 13  1  0  0  0  0
 13 14  1  0  0  0  0
 13 15  1  6  0  0  0
 15 16  1  0  0  0  0
M  CHG  1   3  -1
M  END
>  <CHROM.1>
170.62810650,174.68149341,-65.68649087,45.23839423,37.39795676,53.52918468
-1.60231470,-0.07815265,-0.68236207

>  <Name>
ligand

>  <RI>
0

>  <Rbt.Current_Directory>
/home/itssahil/PROJECTS/Mol_Feturizer/New_Systems/rnas/3B4A

>  <Rbt.Executable>
rbdock ($Id: //depot/dev/client3/rdock/2013.1/src/exe/rbdock.cxx#4 $)

>  <Rbt.Library>
libRbt.so (2013.1, Build901 2013/11/27)

>  <Rbt.Parameter_File>
/export/apps/rDock/src/rDock_2013.1_src/data/scripts/dock_solv.prm

>  <Rbt.Receptor>
prm/pocket_docking_8.prm

>  <SCORE>
-7.3657

>  <SCORE.INTER>
-6.07634

>  <SCORE.INTER.CONST>
1

>  <SCORE.INTER.POLAR>
0

>  <SCORE.INTER.ROT>
3

>  <SCORE.INTER.SOLV>
16.1513

>  <SCORE.INTER.VDW>
-15.0347

>  <SCORE.INTER.norm>
-0.379771

>  <SCORE.INTRA>
-1.28936

>  <SCORE.INTRA.DIHEDRAL>
-1.55764

>  <SCORE.INTRA.DIHEDRAL.0>
2.05999

>  <SCORE.INTRA.POLAR>
0

>  <SCORE.INTRA.POLAR.0>
0

>  <SCORE.INTRA.REPUL>
0

>  <SCORE.INTRA.REPUL.0>
0

>  <SCORE.INTRA.SOLV>
-1.00132

>  <SCORE.INTRA.SOLV.lig_0>
-58.7001

>  <SCORE.INTRA.VDW>
-0.00987959

>  <SCORE.INTRA.VDW.0>
-0.401036

>  <SCORE.INTRA.norm>
-0.0805848

>  <SCORE.RESTR>
0

>  <SCORE.RESTR.CAVITY>
0

>  <SCORE.RESTR.norm>
0

>  <SCORE.SYSTEM>
0

>  <SCORE.SYSTEM.CONST>
0

>  <SCORE.SYSTEM.DIHEDRAL>
0

>  <SCORE.SYSTEM.SOLV>
0

>  <SCORE.SYSTEM.norm>
0

>  <SCORE.heavy>
16

>  <SCORE.norm>
-0.460356

>  <RMSD>
6.781

$$$$
ligand
 OpenBabel11021811463D
libRbt.so/2013.1/901 2013/11/27
 16 16  0  0  0  0  0  0  0  0999 V2000
   45.2776   34.6992   54.9218 P   0  0  2  0  0  0  0  0  0  0  0  0
   45.4522   34.7841   56.3931 O   0  0  0  0  0  0  0  0  0  0  0  0
   43.8713   33.9804   54.5950 O   0  5  0  0  0  0  0  0  0  0  0  0
   46.4975   33.8370   54.3009 O   0  0  0  0  0  0  0  0  0  0  0  0
   45.5154   40.3464   54.2339 C   0  0  2  0  0  0  0  0  0  0  0  0
   44.5424   41.1251   54.9668 O   0  0  0  0  0  0  0  0  0  0  0  0
   45.2846   40.4670   52.6996 C   0  0  2  0  0  0  0  0  0  0  0  0
   45.3627   41.8839   52.2988 N   0  0  0  0  0  0  0  0  0  0  0  0
   43.8890   39.8977   52.3626 C   0  0  1  0  0  0  0  0  0  0  0  0
   43.6504   39.9900   50.9480 O   0  0  0  0  0  0  0  0  0  0  0  0
   43.8705   38.4194   52.8039 C   0  0  2  0  0  0  0  0  0  0  0  0
   42.5800   37.8570   52.5118 O   0  0  0  0  0  0  0  0  0  0  0  0
   44.1362   38.3652   54.3399 C   0  0  2  0  0  0  0  0  0  0  0  0
   45.4357   38.9476   54.6562 O   0  0  0  0  0  0  0  0  0  0  0  0
   44.1501   36.9128   54.8439 C   0  0  0  0  0  0  0  0  0  0  0  0
   45.2765   36.1978   54.3060 O   0  0  0  0  0  0  0  0  0  0  0  0
  1  2  1  1  0  0  0
  1  3  1  0  0  0  0
  1  4  2  0  0  0  0
  1 16  1  0  0  0  0
  5  6  1  1  0  0  0
  5  7  1  0  0  0  0
  5 14  1  0  0  0  0
  7  8  1  1  0  0  0
  7  9  1  0  0  0  0
  9 10  1  6  0  0  0
  9 11  1  0  0  0  0
 11 12  1  1  0  0  0
 11 13  1  0  0  0  0
 13 14  1  0  0  0  0
 13 15  1  6  0  0  0
 15 16  1  0  0  0  0
M  CHG  1   3  -1
M  END
>  <CHROM.1>
66.80535668,177.46522080,-62.79233756,44.71699791,37.67477267,53.92485817
-1.38153892,-0.94759745,-0.19162511

>  <Name>
ligand

>  <RI>
0

>  <Rbt.Current_Directory>
/home/itssahil/PROJECTS/Mol_Feturizer/New_Systems/rnas/3B4A

>  <Rbt.Executable>
rbdock ($Id: //depot/dev/client3/rdock/2013.1/src/exe/rbdock.cxx#4 $)

>  <Rbt.Library>
libRbt.so (2013.1, Build901 2013/11/27)

>  <Rbt.Parameter_File>
/export/apps/rDock/src/rDock_2013.1_src/data/scripts/dock_solv.prm

>  <Rbt.Receptor>
prm/pocket_docking_8.prm

>  <SCORE>
-9.34371

>  <SCORE.INTER>
-7.80146

>  <SCORE.INTER.CONST>
1

>  <SCORE.INTER.POLAR>
0

>  <SCORE.INTER.ROT>
3

>  <SCORE.INTER.SOLV>
10.5615

>  <SCORE.INTER.VDW>
-14.3215

>  <SCORE.INTER.norm>
-0.487591

>  <SCORE.INTRA>
-1.54225

>  <SCORE.INTRA.DIHEDRAL>
-1.84549

>  <SCORE.INTRA.DIHEDRAL.0>
2.05999

>  <SCORE.INTRA.POLAR>
0

>  <SCORE.INTRA.POLAR.0>
0

>  <SCORE.INTRA.REPUL>
0

>  <SCORE.INTRA.REPUL.0>
0

>  <SCORE.INTRA.SOLV>
-0.833383

>  <SCORE.INTRA.SOLV.lig_0>
-58.7001

>  <SCORE.INTRA.VDW>
-0.202813

>  <SCORE.INTRA.VDW.0>
-0.401036

>  <SCORE.INTRA.norm>
-0.0963906

>  <SCORE.RESTR>
0

>  <SCORE.RESTR.CAVITY>
0

>  <SCORE.RESTR.norm>
0

>  <SCORE.SYSTEM>
0

>  <SCORE.SYSTEM.CONST>
0

>  <SCORE.SYSTEM.DIHEDRAL>
0

>  <SCORE.SYSTEM.SOLV>
0

>  <SCORE.SYSTEM.norm>
0

>  <SCORE.heavy>
16

>  <SCORE.norm>
-0.583982

>  <RMSD>
6.953

$$$$
ligand
 OpenBabel11021811463D
libRbt.so/2013.1/901 2013/11/27
 16 16  0  0  0  0  0  0  0  0999 V2000
   44.6931   34.6558   54.9878 P   0  0  2  0  0  0  0  0  0  0  0  0
   44.5649   35.1334   56.3871 O   0  0  0  0  0  0  0  0  0  0  0  0
   43.5165   33.5970   54.6786 O   0  5  0  0  0  0  0  0  0  0  0  0
   46.1364   33.9472   54.8090 O   0  0  0  0  0  0  0  0  0  0  0  0
   45.3996   38.8281   51.0622 C   0  0  2  0  0  0  0  0  0  0  0  0
   46.5805   39.6505   51.2015 O   0  0  0  0  0  0  0  0  0  0  0  0
   44.1124   39.6419   51.3829 C   0  0  2  0  0  0  0  0  0  0  0  0
   44.0285   40.8070   50.4830 N   0  0  0  0  0  0  0  0  0  0  0  0
   44.1771   40.1118   52.8527 C   0  0  1  0  0  0  0  0  0  0  0  0
   42.9955   40.8623   53.1800 O   0  0  0  0  0  0  0  0  0  0  0  0
   44.2635   38.8528   53.7404 C   0  0  2  0  0  0  0  0  0  0  0  0
   44.3332   39.2530   55.1196 O   0  0  0  0  0  0  0  0  0  0  0  0
   45.5542   38.0686   53.3509 C   0  0  2  0  0  0  0  0  0  0  0  0
   45.5077   37.6689   51.9487 O   0  0  0  0  0  0  0  0  0  0  0  0
   45.6918   36.7867   54.1884 C   0  0  0  0  0  0  0  0  0  0  0  0
   44.5597   35.9225   53.9865 O   0  0  0  0  0  0  0  0  0  0  0  0
  1  2  1  1  0  0  0
  1  3  1  0  0  0  0
  1  4  2  0  0  0  0
  1 16  1  0  0  0  0
  5  6  1  1  0  0  0
  5  7  1  0  0  0  0
  5 14  1  0  0  0  0
  7  8  1  6  0  0  0
  7  9  1  0  0  0  0
  9 10  1  1  0  0  0
  9 11  1  0  0  0  0
 11 12  1  1  0  0  0
 11 13  1  0  0  0  0
 13 14  1  0  0  0  0
 13 15  1  1  0  0  0
 15 16  1  0  0  0  0
M  CHG  1   3  -1
M  END
>  <CHROM.1>
59.70862795,-175.03231971,66.28302726,44.75510184,37.45623539,53.49966907
-1.51724883,0.92027981,-0.57559415

>  <Name>
ligand

>  <RI>
0

>  <Rbt.Current_Directory>
/home/itssahil/PROJECTS/Mol_Feturizer/New_Systems/rnas/3B4A

>  <Rbt.Executable>
rbdock ($Id: //depot/dev/client3/rdock/2013.1/src/exe/rbdock.cxx#4 $)

>  <Rbt.Library>
libRbt.so (2013.1, Build901 2013/11/27)

>  <Rbt.Parameter_File>
/export/apps/rDock/src/rDock_2013.1_src/data/scripts/dock_solv.prm

>  <Rbt.Receptor>
prm/pocket_docking_8.prm

>  <SCORE>
-7.17038

>  <SCORE.INTER>
-5.58334

>  <SCORE.INTER.CONST>
1

>  <SCORE.INTER.POLAR>
0

>  <SCORE.INTER.ROT>
3

>  <SCORE.INTER.SOLV>
12.1222

>  <SCORE.INTER.VDW>
-13.3629

>  <SCORE.INTER.norm>
-0.348959

>  <SCORE.INTRA>
-1.58703

>  <SCORE.INTRA.DIHEDRAL>
-1.87171

>  <SCORE.INTRA.DIHEDRAL.0>
2.05999

>  <SCORE.INTRA.POLAR>
0

>  <SCORE.INTRA.POLAR.0>
0

>  <SCORE.INTRA.REPUL>
0

>  <SCORE.INTRA.REPUL.0>
0

>  <SCORE.INTRA.SOLV>
-0.807322

>  <SCORE.INTRA.SOLV.lig_0>
-58.7001

>  <SCORE.INTRA.VDW>
-0.247518

>  <SCORE.INTRA.VDW.0>
-0.401036

>  <SCORE.INTRA.norm>
-0.0991897

>  <SCORE.RESTR>
0

>  <SCORE.RESTR.CAVITY>
0

>  <SCORE.RESTR.norm>
0

>  <SCORE.SYSTEM>
0

>  <SCORE.SYSTEM.CONST>
0

>  <SCORE.SYSTEM.DIHEDRAL>
0

>  <SCORE.SYSTEM.SOLV>
0

>  <SCORE.SYSTEM.norm>
0

>  <SCORE.heavy>
16

>  <SCORE.norm>
-0.448149

>  <RMSD>
6.962

$$$$
ligand
 OpenBabel11021811463D
libRbt.so/2013.1/901 2013/11/27
 16 16  0  0  0  0  0  0  0  0999 V2000
   44.5214   34.5264   55.0368 P   0  0  2  0  0  0  0  0  0  0  0  0
   44.5030   35.1053   56.4032 O   0  0  0  0  0  0  0  0  0  0  0  0
   43.4516   33.3222   54.9563 O   0  5  0  0  0  0  0  0  0  0  0  0
   46.0079   33.9679   54.7272 O   0  0  0  0  0  0  0  0  0  0  0  0
   42.9516   39.4772   52.6650 C   0  0  2  0  0  0  0  0  0  0  0  0
   42.7918   38.9939   51.3118 O   0  0  0  0  0  0  0  0  0  0  0  0
   43.9551   40.6656   52.7177 C   0  0  2  0  0  0  0  0  0  0  0  0
   43.4781   41.7531   51.8435 N   0  0  0  0  0  0  0  0  0  0  0  0
   45.3367   40.1686   52.2386 C   0  0  1  0  0  0  0  0  0  0  0  0
   46.2876   41.2458   52.2830 O   0  0  0  0  0  0  0  0  0  0  0  0
   45.7792   39.0366   53.1890 C   0  0  2  0  0  0  0  0  0  0  0  0
   47.0621   38.5428   52.7677 O   0  0  0  0  0  0  0  0  0  0  0  0
   44.7209   37.8935   53.1126 C   0  0  2  0  0  0  0  0  0  0  0  0
   43.4084   38.3818   53.5212 O   0  0  0  0  0  0  0  0  0  0  0  0
   45.0929   36.7368   54.0545 C   0  0  0  0  0  0  0  0  0  0  0  0
   44.1202   35.6802   53.9725 O   0  0  0  0  0  0  0  0  0  0  0  0
  1  2  1  1  0  0  0
  1  3  1  0  0  0  0
  1  4  2  0  0  0  0
  1 16  1  0  0  0  0
  5  6  1  6  0  0  0
  5  7  1  0  0  0  0
  5 14  1  0  0  0  0
  7  8  1  6  0  0  0
  7  9  1  0  0  0  0
  9 10  1  1  0  0  0
  9 11  1  0  0  0  0
 11 12  1  6  0  0  0
 11 13  1  0  0  0  0
 13 14  1  0  0  0  0
 13 15  1  1  0  0  0
 15 16  1  0  0  0  0
M  CHG  1   3  -1
M  END
>  <CHROM.1>
-179.51611874,-177.17176780,61.07928928,44.59503197,37.52945097,53.56621815
1.57093756,0.11064874,2.70212364

>  <Name>
ligand

>  <RI>
0

>  <Rbt.Current_Directory>
/home/itssahil/PROJECTS/Mol_Feturizer/New_Systems/rnas/3B4A

>  <Rbt.Executable>
rbdock ($Id: //depot/dev/client3/rdock/2013.1/src/exe/rbdock.cxx#4 $)

>  <Rbt.Library>
libRbt.so (2013.1, Build901 2013/11/27)

>  <Rbt.Parameter_File>
/export/apps/rDock/src/rDock_2013.1_src/data/scripts/dock_solv.prm

>  <Rbt.Receptor>
prm/pocket_docking_8.prm

>  <SCORE>
-7.47124

>  <SCORE.INTER>
-5.8315

>  <SCORE.INTER.CONST>
1

>  <SCORE.INTER.POLAR>
0

>  <SCORE.INTER.ROT>
3

>  <SCORE.INTER.SOLV>
13.0866

>  <SCORE.INTER.VDW>
-13.8499

>  <SCORE.INTER.norm>
-0.364469

>  <SCORE.INTRA>
-1.63974

>  <SCORE.INTRA.DIHEDRAL>
-2.01521

>  <SCORE.INTRA.DIHEDRAL.0>
2.05999

>  <SCORE.INTRA.POLAR>
0

>  <SCORE.INTRA.POLAR.0>
0

>  <SCORE.INTRA.REPUL>
0

>  <SCORE.INTRA.REPUL.0>
0

>  <SCORE.INTRA.SOLV>
-1.05348

>  <SCORE.INTRA.SOLV.lig_0>
-58.7001

>  <SCORE.INTRA.VDW>
-0.105398

>  <SCORE.INTRA.VDW.0>
-0.401036

>  <SCORE.INTRA.norm>
-0.102484

>  <SCORE.RESTR>
0

>  <SCORE.RESTR.CAVITY>
0

>  <SCORE.RESTR.norm>
0

>  <SCORE.SYSTEM>
0

>  <SCORE.SYSTEM.CONST>
0

>  <SCORE.SYSTEM.DIHEDRAL>
0

>  <SCORE.SYSTEM.SOLV>
0

>  <SCORE.SYSTEM.norm>
0

>  <SCORE.heavy>
16

>  <SCORE.norm>
-0.466953

>  <RMSD>
7.066

$$$$
ligand
 OpenBabel11021811463D
libRbt.so/2013.1/901 2013/11/27
 16 16  0  0  0  0  0  0  0  0999 V2000
   45.0393   34.7930   54.8504 P   0  0  2  0  0  0  0  0  0  0  0  0
   43.7520   34.1623   54.4661 O   0  0  0  0  0  0  0  0  0  0  0  0
   46.2571   33.9134   54.2637 O   0  5  0  0  0  0  0  0  0  0  0  0
   45.1283   34.8544   56.4646 O   0  0  0  0  0  0  0  0  0  0  0  0
   45.5085   40.4432   54.1189 C   0  0  2  0  0  0  0  0  0  0  0  0
   44.5611   41.2674   54.8354 O   0  0  0  0  0  0  0  0  0  0  0  0
   45.2794   40.5375   52.5825 C   0  0  2  0  0  0  0  0  0  0  0  0
   45.4007   41.9422   52.1509 N   0  0  0  0  0  0  0  0  0  0  0  0
   43.8664   40.0044   52.2590 C   0  0  1  0  0  0  0  0  0  0  0  0
   43.6287   40.0733   50.8429 O   0  0  0  0  0  0  0  0  0  0  0  0
   43.8028   38.5374   52.7324 C   0  0  2  0  0  0  0  0  0  0  0  0
   42.4951   38.0089   52.4536 O   0  0  0  0  0  0  0  0  0  0  0  0
   44.0689   38.5084   54.2690 C   0  0  2  0  0  0  0  0  0  0  0  0
   45.3862   39.0570   54.5716 O   0  0  0  0  0  0  0  0  0  0  0  0
   44.0386   37.0676   54.8045 C   0  0  0  0  0  0  0  0  0  0  0  0
   45.0991   36.2867   54.2259 O   0  0  0  0  0  0  0  0  0  0  0  0
  1  2  1  6  0  0  0
  1  3  1  0  0  0  0
  1  4  2  0  0  0  0
  1 16  1  0  0  0  0
  5  6  1  1  0  0  0
  5  7  1  0  0  0  0
  5 14  1  0  0  0  0
  7  8  1  1  0  0  0
  7  9  1  0  0  0  0
  9 10  1  6  0  0  0
  9 11  1  0  0  0  0
 11 12  1  1  0  0  0
 11 13  1  0  0  0  0
 13 14  1  0  0  0  0
 13 15  1  6  0  0  0
 15 16  1  0  0  0  0
M  CHG  1   3  -1
M  END
>  <CHROM.1>
63.70783337,178.69982939,62.96430778,44.61149909,37.78316521,53.84582717
-1.43810645,-0.97694730,-0.24613348

>  <Name>
ligand

>  <RI>
0

>  <Rbt.Current_Directory>
/home/itssahil/PROJECTS/Mol_Feturizer/New_Systems/rnas/3B4A

>  <Rbt.Executable>
rbdock ($Id: //depot/dev/client3/rdock/2013.1/src/exe/rbdock.cxx#4 $)

>  <Rbt.Library>
libRbt.so (2013.1, Build901 2013/11/27)

>  <Rbt.Parameter_File>
/export/apps/rDock/src/rDock_2013.1_src/data/scripts/dock_solv.prm

>  <Rbt.Receptor>
prm/pocket_docking_8.prm

>  <SCORE>
-7.59662

>  <SCORE.INTER>
-5.95565

>  <SCORE.INTER.CONST>
1

>  <SCORE.INTER.POLAR>
0

>  <SCORE.INTER.ROT>
3

>  <SCORE.INTER.SOLV>
13.7086

>  <SCORE.INTER.VDW>
-14.14

>  <SCORE.INTER.norm>
-0.372228

>  <SCORE.INTRA>
-1.64097

>  <SCORE.INTRA.DIHEDRAL>
-1.98405

>  <SCORE.INTRA.DIHEDRAL.0>
2.05999

>  <SCORE.INTRA.POLAR>
0

>  <SCORE.INTRA.POLAR.0>
0

>  <SCORE.INTRA.REPUL>
0

>  <SCORE.INTRA.REPUL.0>
0

>  <SCORE.INTRA.SOLV>
-0.825972

>  <SCORE.INTRA.SOLV.lig_0>
-58.7001

>  <SCORE.INTRA.VDW>
-0.235962

>  <SCORE.INTRA.VDW.0>
-0.401036

>  <SCORE.INTRA.norm>
-0.102561

>  <SCORE.RESTR>
0

>  <SCORE.RESTR.CAVITY>
0

>  <SCORE.RESTR.norm>
0

>  <SCORE.SYSTEM>
0

>  <SCORE.SYSTEM.CONST>
0

>  <SCORE.SYSTEM.DIHEDRAL>
0

>  <SCORE.SYSTEM.SOLV>
0

>  <SCORE.SYSTEM.norm>
0

>  <SCORE.heavy>
16

>  <SCORE.norm>
-0.474789

>  <RMSD>
7.132

$$$$
ligand
 OpenBabel11021811463D
libRbt.so/2013.1/901 2013/11/27
 16 16  0  0  0  0  0  0  0  0999 V2000
   55.4327   35.0322   56.5257 P   0  0  2  0  0  0  0  0  0  0  0  0
   55.8758   33.7647   55.8934 O   0  0  0  0  0  0  0  0  0  0  0  0
   55.0551   36.0961   55.3739 O   0  5  0  0  0  0  0  0  0  0  0  0
   56.6376   35.6086   57.4384 O   0  0  0  0  0  0  0  0  0  0  0  0
   50.9845   32.9365   59.5336 C   0  0  2  0  0  0  0  0  0  0  0  0
   50.6381   34.1968   60.1514 O   0  0  0  0  0  0  0  0  0  0  0  0
   51.2816   31.8513   60.6089 C   0  0  2  0  0  0  0  0  0  0  0  0
   50.1028   31.6830   61.4786 N   0  0  0  0  0  0  0  0  0  0  0  0
   52.4973   32.3045   61.4468 C   0  0  1  0  0  0  0  0  0  0  0  0
   52.7997   31.3163   62.4462 O   0  0  0  0  0  0  0  0  0  0  0  0
   53.6929   32.4625   60.4845 C   0  0  2  0  0  0  0  0  0  0  0  0
   54.8443   32.8922   61.2307 O   0  0  0  0  0  0  0  0  0  0  0  0
   53.3219   33.5382   59.4176 C   0  0  2  0  0  0  0  0  0  0  0  0
   52.1445   33.1257   58.6617 O   0  0  0  0  0  0  0  0  0  0  0  0
   54.4679   33.7316   58.4112 C   0  0  0  0  0  0  0  0  0  0  0  0
   54.1274   34.7351   57.4384 O   0  0  0  0  0  0  0  0  0  0  0  0
  1  2  1  6  0  0  0
  1  3  1  0  0  0  0
  1  4  2  0  0  0  0
  1 16  1  0  0  0  0
  5  6  1  1  0  0  0
  5  7  1  0  0  0  0
  5 14  1  0  0  0  0
  7  8  1  1  0  0  0
  7  9  1  0  0  0  0
  9 10  1  1  0  0  0
  9 11  1  0  0  0  0
 11 12  1  1  0  0  0
 11 13  1  0  0  0  0
 13 14  1  0  0  0  0
 13 15  1  6  0  0  0
 15 16  1  0  0  0  0
M  CHG  1   3  -1
M  END
>  <CHROM.1>
-179.35137247,172.84437566,57.54242328,53.56871008,33.60967043,58.92256450
0.96314976,-0.02419780,-1.03824659

>  <Name>
ligand

>  <RI>
0

>  <Rbt.Current_Directory>
/home/itssahil/PROJECTS/Mol_Feturizer/New_Systems/rnas/3B4A

>  <Rbt.Executable>
rbdock ($Id: //depot/dev/client3/rdock/2013.1/src/exe/rbdock.cxx#4 $)

>  <Rbt.Library>
libRbt.so (2013.1, Build901 2013/11/27)

>  <Rbt.Parameter_File>
/export/apps/rDock/src/rDock_2013.1_src/data/scripts/dock_solv.prm

>  <Rbt.Receptor>
prm/blind_docking_100.prm

>  <SCORE>
-6.13316

>  <SCORE.INTER>
-4.64436

>  <SCORE.INTER.CONST>
1

>  <SCORE.INTER.POLAR>
0

>  <SCORE.INTER.ROT>
3

>  <SCORE.INTER.SOLV>
21.2976

>  <SCORE.INTER.VDW>
-15.7954

>  <SCORE.INTER.norm>
-0.290272

>  <SCORE.INTRA>
-1.4888

>  <SCORE.INTRA.DIHEDRAL>
-1.79626

>  <SCORE.INTRA.DIHEDRAL.0>
2.05999

>  <SCORE.INTRA.POLAR>
0

>  <SCORE.INTRA.POLAR.0>
0

>  <SCORE.INTRA.REPUL>
0

>  <SCORE.INTRA.REPUL.0>
0

>  <SCORE.INTRA.SOLV>
-1.08559

>  <SCORE.INTRA.SOLV.lig_0>
-58.7001

>  <SCORE.INTRA.VDW>
-0.0478823

>  <SCORE.INTRA.VDW.0>
-0.401036

>  <SCORE.INTRA.norm>
-0.0930503

>  <SCORE.RESTR>
0

>  <SCORE.RESTR.CAVITY>
0

>  <SCORE.RESTR.norm>
0

>  <SCORE.SYSTEM>
0

>  <SCORE.SYSTEM.CONST>
0

>  <SCORE.SYSTEM.DIHEDRAL>
0

>  <SCORE.SYSTEM.SOLV>
0

>  <SCORE.SYSTEM.norm>
0

>  <SCORE.heavy>
16

>  <SCORE.norm>
-0.383322

>  <RMSD>
8.003

$$$$
ligand
 OpenBabel11021811463D
libRbt.so/2013.1/901 2013/11/27
 16 16  0  0  0  0  0  0  0  0999 V2000
   55.6953   35.6822   58.5406 P   0  0  2  0  0  0  0  0  0  0  0  0
   56.5375   36.5100   59.4395 O   0  0  0  0  0  0  0  0  0  0  0  0
   56.2929   35.7479   57.0441 O   0  5  0  0  0  0  0  0  0  0  0  0
   54.1854   36.2629   58.5597 O   0  0  0  0  0  0  0  0  0  0  0  0
   51.0621   32.8660   59.5148 C   0  0  2  0  0  0  0  0  0  0  0  0
   50.7408   34.1837   60.0154 O   0  0  0  0  0  0  0  0  0  0  0  0
   51.2790   31.8628   60.6847 C   0  0  2  0  0  0  0  0  0  0  0  0
   50.0639   31.8067   61.5181 N   0  0  0  0  0  0  0  0  0  0  0  0
   52.4795   32.3409   61.5307 C   0  0  1  0  0  0  0  0  0  0  0  0
   52.7081   31.4279   62.6173 O   0  0  0  0  0  0  0  0  0  0  0  0
   53.7144   32.3786   60.6065 C   0  0  2  0  0  0  0  0  0  0  0  0
   54.8532   32.8279   61.3605 O   0  0  0  0  0  0  0  0  0  0  0  0
   53.4230   33.3755   59.4430 C   0  0  2  0  0  0  0  0  0  0  0  0
   52.2593   32.9433   58.6769 O   0  0  0  0  0  0  0  0  0  0  0  0
   54.6114   33.4467   58.4701 C   0  0  0  0  0  0  0  0  0  0  0  0
   55.7160   34.1497   59.0659 O   0  0  0  0  0  0  0  0  0  0  0  0
  1  2  1  1  0  0  0
  1  3  1  0  0  0  0
  1  4  2  0  0  0  0
  1 16  1  0  0  0  0
  5  6  1  1  0  0  0
  5  7  1  0  0  0  0
  5 14  1  0  0  0  0
  7  8  1  1  0  0  0
  7  9  1  0  0  0  0
  9 10  1  1  0  0  0
  9 11  1  0  0  0  0
 11 12  1  1  0  0  0
 11 13  1  0  0  0  0
 13 14  1  0  0  0  0
 13 15  1  6  0  0  0
 15 16  1  0  0  0  0
M  CHG  1   3  -1
M  END
>  <CHROM.1>
-72.23386360,-98.19766274,162.65715892,53.69038863,33.81374481,59.70741715
0.77531883,-0.20172233,-0.85076892

>  <Name>
ligand

>  <RI>
0

>  <Rbt.Current_Directory>
/home/itssahil/PROJECTS/Mol_Feturizer/New_Systems/rnas/3B4A

>  <Rbt.Executable>
rbdock ($Id: //depot/dev/client3/rdock/2013.1/src/exe/rbdock.cxx#4 $)

>  <Rbt.Library>
libRbt.so (2013.1, Build901 2013/11/27)

>  <Rbt.Parameter_File>
/export/apps/rDock/src/rDock_2013.1_src/data/scripts/dock_solv.prm

>  <Rbt.Receptor>
prm/blind_docking_100.prm

>  <SCORE>
-4.23422

>  <SCORE.INTER>
-6.506

>  <SCORE.INTER.CONST>
1

>  <SCORE.INTER.POLAR>
0

>  <SCORE.INTER.ROT>
3

>  <SCORE.INTER.SOLV>
23.7377

>  <SCORE.INTER.VDW>
-17.8499

>  <SCORE.INTER.norm>
-0.406625

>  <SCORE.INTRA>
2.27178

>  <SCORE.INTRA.DIHEDRAL>
4.02128

>  <SCORE.INTRA.DIHEDRAL.0>
2.05999

>  <SCORE.INTRA.POLAR>
0

>  <SCORE.INTRA.POLAR.0>
0

>  <SCORE.INTRA.REPUL>
0

>  <SCORE.INTRA.REPUL.0>
0

>  <SCORE.INTRA.SOLV>
1.38272

>  <SCORE.INTRA.SOLV.lig_0>
-58.7001

>  <SCORE.INTRA.VDW>
-0.430217

>  <SCORE.INTRA.VDW.0>
-0.401036

>  <SCORE.INTRA.norm>
0.141986

>  <SCORE.RESTR>
0

>  <SCORE.RESTR.CAVITY>
0

>  <SCORE.RESTR.norm>
0

>  <SCORE.SYSTEM>
0

>  <SCORE.SYSTEM.CONST>
0

>  <SCORE.SYSTEM.DIHEDRAL>
0

>  <SCORE.SYSTEM.SOLV>
0

>  <SCORE.SYSTEM.norm>
0

>  <SCORE.heavy>
16

>  <SCORE.norm>
-0.264639

>  <RMSD>
8.413

$$$$
ligand
 OpenBabel11021811463D
libRbt.so/2013.1/901 2013/11/27
 16 16  0  0  0  0  0  0  0  0999 V2000
   51.0450   32.9614   61.1084 P   0  0  2  0  0  0  0  0  0  0  0  0
   50.9759   34.1669   60.2456 O   0  0  0  0  0  0  0  0  0  0  0  0
   49.5564   32.3815   61.3301 O   0  5  0  0  0  0  0  0  0  0  0  0
   51.6955   33.3749   62.5308 O   0  0  0  0  0  0  0  0  0  0  0  0
   55.3499   34.9706   58.8494 C   0  0  2  0  0  0  0  0  0  0  0  0
   54.5244   36.1097   59.1829 O   0  0  0  0  0  0  0  0  0  0  0  0
   55.1888   34.5851   57.3502 C   0  0  2  0  0  0  0  0  0  0  0  0
   55.5480   35.7374   56.5032 N   0  0  0  0  0  0  0  0  0  0  0  0
   53.7198   34.1803   57.0983 C   0  0  1  0  0  0  0  0  0  0  0  0
   53.5422   33.8119   55.7201 O   0  0  0  0  0  0  0  0  0  0  0  0
   53.4062   32.9755   58.0096 C   0  0  2  0  0  0  0  0  0  0  0  0
   52.0404   32.5748   57.8069 O   0  0  0  0  0  0  0  0  0  0  0  0
   53.6143   33.4167   59.4910 C   0  0  2  0  0  0  0  0  0  0  0  0
   54.9921   33.8427   59.7103 O   0  0  0  0  0  0  0  0  0  0  0  0
   53.3357   32.2521   60.4552 C   0  0  0  0  0  0  0  0  0  0  0  0
   51.9591   31.8427   60.3750 O   0  0  0  0  0  0  0  0  0  0  0  0
  1  2  1  6  0  0  0
  1  3  1  0  0  0  0
  1  4  2  0  0  0  0
  1 16  1  0  0  0  0
  5  6  1  1  0  0  0
  5  7  1  0  0  0  0
  5 14  1  0  0  0  0
  7  8  1  6  0  0  0
  7  9  1  0  0  0  0
  9 10  1  6  0  0  0
  9 11  1  0  0  0  0
 11 12  1  1  0  0  0
 11 13  1  0  0  0  0
 13 14  1  0  0  0  0
 13 15  1  1  0  0  0
 15 16  1  0  0  0  0
M  CHG  1   3  -1
M  END
>  <CHROM.1>
-63.65705748,-73.65160306,73.32623300,52.94512630,33.63109686,59.29541025
-2.47702444,-0.59360302,-1.72580298

>  <Name>
ligand

>  <RI>
0

>  <Rbt.Current_Directory>
/home/itssahil/PROJECTS/Mol_Feturizer/New_Systems/rnas/3B4A

>  <Rbt.Executable>
rbdock ($Id: //depot/dev/client3/rdock/2013.1/src/exe/rbdock.cxx#4 $)

>  <Rbt.Library>
libRbt.so (2013.1, Build901 2013/11/27)

>  <Rbt.Parameter_File>
/export/apps/rDock/src/rDock_2013.1_src/data/scripts/dock_solv.prm

>  <Rbt.Receptor>
prm/blind_docking_100.prm

>  <SCORE>
-8.11551

>  <SCORE.INTER>
-8.01875

>  <SCORE.INTER.CONST>
1

>  <SCORE.INTER.POLAR>
0

>  <SCORE.INTER.ROT>
3

>  <SCORE.INTER.SOLV>
20.0488

>  <SCORE.INTER.VDW>
-17.6288

>  <SCORE.INTER.norm>
-0.501172

>  <SCORE.INTRA>
-0.0967671

>  <SCORE.INTRA.DIHEDRAL>
-0.848491

>  <SCORE.INTRA.DIHEDRAL.0>
2.05999

>  <SCORE.INTRA.POLAR>
0

>  <SCORE.INTRA.POLAR.0>
0

>  <SCORE.INTRA.REPUL>
0

>  <SCORE.INTRA.REPUL.0>
0

>  <SCORE.INTRA.SOLV>
0.940912

>  <SCORE.INTRA.SOLV.lig_0>
-58.7001

>  <SCORE.INTRA.VDW>
-0.142977

>  <SCORE.INTRA.VDW.0>
-0.401036

>  <SCORE.INTRA.norm>
-0.00604794

>  <SCORE.RESTR>
0

>  <SCORE.RESTR.CAVITY>
0

>  <SCORE.RESTR.norm>
0

>  <SCORE.SYSTEM>
0

>  <SCORE.SYSTEM.CONST>
0

>  <SCORE.SYSTEM.DIHEDRAL>
0

>  <SCORE.SYSTEM.SOLV>
0

>  <SCORE.SYSTEM.norm>
0

>  <SCORE.heavy>
16

>  <SCORE.norm>
-0.50722

>  <RMSD>
8.834

$$$$
ligand
 OpenBabel11021811463D
libRbt.so/2013.1/901 2013/11/27
 16 16  0  0  0  0  0  0  0  0999 V2000
   51.4956   32.6134   61.0369 P   0  0  2  0  0  0  0  0  0  0  0  0
   50.7576   31.5795   60.2695 O   0  0  0  0  0  0  0  0  0  0  0  0
   52.7175   31.9169   61.8262 O   0  5  0  0  0  0  0  0  0  0  0  0
   50.4802   33.3060   62.0888 O   0  0  0  0  0  0  0  0  0  0  0  0
   55.1792   35.9784   58.2173 C   0  0  2  0  0  0  0  0  0  0  0  0
   54.1877   36.8509   57.6293 O   0  0  0  0  0  0  0  0  0  0  0  0
   56.0713   35.3287   57.1200 C   0  0  2  0  0  0  0  0  0  0  0  0
   56.7297   36.3854   56.3300 N   0  0  0  0  0  0  0  0  0  0  0  0
   55.1782   34.4623   56.2049 C   0  0  1  0  0  0  0  0  0  0  0  0
   55.9779   33.8429   55.1834 O   0  0  0  0  0  0  0  0  0  0  0  0
   54.5201   33.3804   57.0862 C   0  0  2  0  0  0  0  0  0  0  0  0
   53.6728   32.5570   56.2668 O   0  0  0  0  0  0  0  0  0  0  0  0
   53.6673   34.0939   58.1799 C   0  0  2  0  0  0  0  0  0  0  0  0
   54.5094   34.9473   59.0108 O   0  0  0  0  0  0  0  0  0  0  0  0
   52.9961   33.0688   59.1086 C   0  0  0  0  0  0  0  0  0  0  0  0
   52.0768   33.7183   60.0043 O   0  0  0  0  0  0  0  0  0  0  0  0
  1  2  1  6  0  0  0
  1  3  1  0  0  0  0
  1  4  2  0  0  0  0
  1 16  1  0  0  0  0
  5  6  1  6  0  0  0
  5  7  1  0  0  0  0
  5 14  1  0  0  0  0
  7  8  1  6  0  0  0
  7  9  1  0  0  0  0
  9 10  1  6  0  0  0
  9 11  1  0  0  0  0
 11 12  1  6  0  0  0
 11 13  1  0  0  0  0
 13 14  1  0  0  0  0
 13 15  1  1  0  0  0
 15 16  1  0  0  0  0
M  CHG  1   3  -1
M  END
>  <CHROM.1>
-172.55567720,-175.30611382,-61.95243975,53.54288317,33.86963180,58.70264473
-3.01585216,-0.89583273,-2.46968364

>  <Name>
ligand

>  <RI>
0

>  <Rbt.Current_Directory>
/home/itssahil/PROJECTS/Mol_Feturizer/New_Systems/rnas/3B4A

>  <Rbt.Executable>
rbdock ($Id: //depot/dev/client3/rdock/2013.1/src/exe/rbdock.cxx#4 $)

>  <Rbt.Library>
libRbt.so (2013.1, Build901 2013/11/27)

>  <Rbt.Parameter_File>
/export/apps/rDock/src/rDock_2013.1_src/data/scripts/dock_solv.prm

>  <Rbt.Receptor>
prm/blind_docking_100.prm

>  <SCORE>
-9.93585

>  <SCORE.INTER>
-8.4535

>  <SCORE.INTER.CONST>
1

>  <SCORE.INTER.POLAR>
0

>  <SCORE.INTER.ROT>
3

>  <SCORE.INTER.SOLV>
20.0318

>  <SCORE.INTER.VDW>
-17.9129

>  <SCORE.INTER.norm>
-0.528344

>  <SCORE.INTRA>
-1.48235

>  <SCORE.INTRA.DIHEDRAL>
-1.74314

>  <SCORE.INTRA.DIHEDRAL.0>
2.05999

>  <SCORE.INTRA.POLAR>
0

>  <SCORE.INTRA.POLAR.0>
0

>  <SCORE.INTRA.REPUL>
0

>  <SCORE.INTRA.REPUL.0>
0

>  <SCORE.INTRA.SOLV>
-1.0175

>  <SCORE.INTRA.SOLV.lig_0>
-58.7001

>  <SCORE.INTRA.VDW>
-0.102029

>  <SCORE.INTRA.VDW.0>
-0.401036

>  <SCORE.INTRA.norm>
-0.0926469

>  <SCORE.RESTR>
0

>  <SCORE.RESTR.CAVITY>
0

>  <SCORE.RESTR.norm>
0

>  <SCORE.SYSTEM>
0

>  <SCORE.SYSTEM.CONST>
0

>  <SCORE.SYSTEM.DIHEDRAL>
0

>  <SCORE.SYSTEM.SOLV>
0

>  <SCORE.SYSTEM.norm>
0

>  <SCORE.heavy>
16

>  <SCORE.norm>
-0.620991

>  <RMSD>
9.059

$$$$
ligand
 OpenBabel11021811463D
libRbt.so/2013.1/901 2013/11/27
 16 16  0  0  0  0  0  0  0  0999 V2000
   51.4536   33.1428   60.0653 P   0  0  2  0  0  0  0  0  0  0  0  0
   51.3542   31.7984   59.4447 O   0  0  0  0  0  0  0  0  0  0  0  0
   51.9749   32.9890   61.5838 O   0  5  0  0  0  0  0  0  0  0  0  0
   49.9908   33.8337   60.0495 O   0  0  0  0  0  0  0  0  0  0  0  0
   55.0201   35.0149   56.0559 C   0  0  2  0  0  0  0  0  0  0  0  0
   56.1738   34.1868   55.7847 O   0  0  0  0  0  0  0  0  0  0  0  0
   55.4473   36.3903   56.6456 C   0  0  2  0  0  0  0  0  0  0  0  0
   56.3511   37.0727   55.7012 N   0  0  0  0  0  0  0  0  0  0  0  0
   56.1693   36.1500   57.9896 C   0  0  1  0  0  0  0  0  0  0  0  0
   56.5705   37.4061   58.5621 O   0  0  0  0  0  0  0  0  0  0  0  0
   55.1762   35.4363   58.9302 C   0  0  2  0  0  0  0  0  0  0  0  0
   55.8183   35.1887   60.1926 O   0  0  0  0  0  0  0  0  0  0  0  0
   54.7655   34.0837   58.2710 C   0  0  2  0  0  0  0  0  0  0  0  0
   54.1267   34.3157   56.9802 O   0  0  0  0  0  0  0  0  0  0  0  0
   53.7576   33.3273   59.1516 C   0  0  0  0  0  0  0  0  0  0  0  0
   52.5072   34.0355   59.2181 O   0  0  0  0  0  0  0  0  0  0  0  0
  1  2  1  6  0  0  0
  1  3  1  0  0  0  0
  1  4  2  0  0  0  0
  1 16  1  0  0  0  0
  5  6  1  1  0  0  0
  5  7  1  0  0  0  0
  5 14  1  0  0  0  0
  7  8  1  6  0  0  0
  7  9  1  0  0  0  0
  9 10  1  1  0  0  0
  9 11  1  0  0  0  0
 11 12  1  1  0  0  0
 11 13  1  0  0  0  0
 13 14  1  0  0  0  0
 13 15  1  1  0  0  0
 15 16  1  0  0  0  0
M  CHG  1   3  -1
M  END
>  <CHROM.1>
66.80380750,175.90097341,-55.32991352,53.92291273,34.50464820,58.57727848
2.75440496,0.66444426,1.34212255

>  <Name>
ligand

>  <RI>
0

>  <Rbt.Current_Directory>
/home/itssahil/PROJECTS/Mol_Feturizer/New_Systems/rnas/3B4A

>  <Rbt.Executable>
rbdock ($Id: //depot/dev/client3/rdock/2013.1/src/exe/rbdock.cxx#4 $)

>  <Rbt.Library>
libRbt.so (2013.1, Build901 2013/11/27)

>  <Rbt.Parameter_File>
/export/apps/rDock/src/rDock_2013.1_src/data/scripts/dock_solv.prm

>  <Rbt.Receptor>
prm/pocket_docking_8.prm

>  <SCORE>
-10.2883

>  <SCORE.INTER>
-8.80442

>  <SCORE.INTER.CONST>
1

>  <SCORE.INTER.POLAR>
0

>  <SCORE.INTER.ROT>
3

>  <SCORE.INTER.SOLV>
21.0453

>  <SCORE.INTER.VDW>
-18.4847

>  <SCORE.INTER.norm>
-0.550277

>  <SCORE.INTRA>
-1.48383

>  <SCORE.INTRA.DIHEDRAL>
-1.77151

>  <SCORE.INTRA.DIHEDRAL.0>
2.05999

>  <SCORE.INTRA.POLAR>
0

>  <SCORE.INTRA.POLAR.0>
0

>  <SCORE.INTRA.REPUL>
0

>  <SCORE.INTRA.REPUL.0>
0

>  <SCORE.INTRA.SOLV>
-0.912495

>  <SCORE.INTRA.SOLV.lig_0>
-58.7001

>  <SCORE.INTRA.VDW>
-0.141822

>  <SCORE.INTRA.VDW.0>
-0.401036

>  <SCORE.INTRA.norm>
-0.0927392

>  <SCORE.RESTR>
0

>  <SCORE.RESTR.CAVITY>
0

>  <SCORE.RESTR.norm>
0

>  <SCORE.SYSTEM>
0

>  <SCORE.SYSTEM.CONST>
0

>  <SCORE.SYSTEM.DIHEDRAL>
0

>  <SCORE.SYSTEM.SOLV>
0

>  <SCORE.SYSTEM.norm>
0

>  <SCORE.heavy>
16

>  <SCORE.norm>
-0.643016

>  <RMSD>
9.331

$$$$
ligand
 OpenBabel11021811463D
libRbt.so/2013.1/901 2013/11/27
 16 16  0  0  0  0  0  0  0  0999 V2000
   51.7249   32.9555   60.1804 P   0  0  2  0  0  0  0  0  0  0  0  0
   51.4430   31.7571   59.3516 O   0  0  0  0  0  0  0  0  0  0  0  0
   52.4476   32.4971   61.5474 O   0  5  0  0  0  0  0  0  0  0  0  0
   50.3272   33.6982   60.5154 O   0  0  0  0  0  0  0  0  0  0  0  0
   55.0331   35.1181   56.0887 C   0  0  2  0  0  0  0  0  0  0  0  0
   56.2355   34.3796   55.7740 O   0  0  0  0  0  0  0  0  0  0  0  0
   55.3760   36.5112   56.6917 C   0  0  2  0  0  0  0  0  0  0  0  0
   56.2034   37.2718   55.7372 N   0  0  0  0  0  0  0  0  0  0  0  0
   56.1486   36.3022   58.0127 C   0  0  1  0  0  0  0  0  0  0  0  0
   56.4736   37.5748   58.5971 O   0  0  0  0  0  0  0  0  0  0  0  0
   55.2343   35.5040   58.9652 C   0  0  2  0  0  0  0  0  0  0  0  0
   55.9255   35.2834   60.2065 O   0  0  0  0  0  0  0  0  0  0  0  0
   54.9043   34.1360   58.2927 C   0  0  2  0  0  0  0  0  0  0  0  0
   54.2168   34.3417   57.0227 O   0  0  0  0  0  0  0  0  0  0  0  0
   53.9767   33.2950   59.1848 C   0  0  0  0  0  0  0  0  0  0  0  0
   52.7053   33.9462   59.3545 O   0  0  0  0  0  0  0  0  0  0  0  0
  1  2  1  6  0  0  0
  1  3  1  0  0  0  0
  1  4  2  0  0  0  0
  1 16  1  0  0  0  0
  5  6  1  1  0  0  0
  5  7  1  0  0  0  0
  5 14  1  0  0  0  0
  7  8  1  6  0  0  0
  7  9  1  0  0  0  0
  9 10  1  1  0  0  0
  9 11  1  0  0  0  0
 11 12  1  1  0  0  0
 11 13  1  0  0  0  0
 13 14  1  0  0  0  0
 13 15  1  1  0  0  0
 15 16  1  0  0  0  0
M  CHG  1   3  -1
M  END
>  <CHROM.1>
63.67537226,174.66799962,-65.87404700,54.04615869,34.49903433,58.63859727
2.74092597,0.74274265,1.35695924

>  <Name>
ligand

>  <RI>
0

>  <Rbt.Current_Directory>
/home/itssahil/PROJECTS/Mol_Feturizer/New_Systems/rnas/3B4A

>  <Rbt.Executable>
rbdock ($Id: //depot/dev/client3/rdock/2013.1/src/exe/rbdock.cxx#4 $)

>  <Rbt.Library>
libRbt.so (2013.1, Build901 2013/11/27)

>  <Rbt.Parameter_File>
/export/apps/rDock/src/rDock_2013.1_src/data/scripts/dock_solv.prm

>  <Rbt.Receptor>
prm/pocket_docking_8.prm

>  <SCORE>
-10.8269

>  <SCORE.INTER>
-9.31678

>  <SCORE.INTER.CONST>
1

>  <SCORE.INTER.POLAR>
0

>  <SCORE.INTER.ROT>
3

>  <SCORE.INTER.SOLV>
19.1523

>  <SCORE.INTER.VDW>
-18.1953

>  <SCORE.INTER.norm>
-0.582299

>  <SCORE.INTRA>
-1.51013

>  <SCORE.INTRA.DIHEDRAL>
-1.81226

>  <SCORE.INTRA.DIHEDRAL.0>
2.05999

>  <SCORE.INTRA.POLAR>
0

>  <SCORE.INTRA.POLAR.0>
0

>  <SCORE.INTRA.REPUL>
0

>  <SCORE.INTRA.REPUL.0>
0

>  <SCORE.INTRA.SOLV>
-0.804648

>  <SCORE.INTRA.SOLV.lig_0>
-58.7001

>  <SCORE.INTRA.VDW>
-0.201673

>  <SCORE.INTRA.VDW.0>
-0.401036

>  <SCORE.INTRA.norm>
-0.0943831

>  <SCORE.RESTR>
0

>  <SCORE.RESTR.CAVITY>
0

>  <SCORE.RESTR.norm>
0

>  <SCORE.SYSTEM>
0

>  <SCORE.SYSTEM.CONST>
0

>  <SCORE.SYSTEM.DIHEDRAL>
0

>  <SCORE.SYSTEM.SOLV>
0

>  <SCORE.SYSTEM.norm>
0

>  <SCORE.heavy>
16

>  <SCORE.norm>
-0.676682

>  <RMSD>
9.402

$$$$
ligand
 OpenBabel11021811463D
libRbt.so/2013.1/901 2013/11/27
 16 16  0  0  0  0  0  0  0  0999 V2000
   51.5059   33.2130   60.0550 P   0  0  2  0  0  0  0  0  0  0  0  0
   50.1865   33.8912   60.0154 O   0  0  0  0  0  0  0  0  0  0  0  0
   51.3907   31.7845   59.3151 O   0  5  0  0  0  0  0  0  0  0  0  0
   51.9381   33.0030   61.5998 O   0  0  0  0  0  0  0  0  0  0  0  0
   55.1210   35.0769   56.1078 C   0  0  2  0  0  0  0  0  0  0  0  0
   56.2797   34.2501   55.8546 O   0  0  0  0  0  0  0  0  0  0  0  0
   55.5383   36.4582   56.6908 C   0  0  2  0  0  0  0  0  0  0  0  0
   56.4494   37.1358   55.7501 N   0  0  0  0  0  0  0  0  0  0  0  0
   56.2477   36.2306   58.0438 C   0  0  1  0  0  0  0  0  0  0  0  0
   56.6395   37.4924   58.6103 O   0  0  0  0  0  0  0  0  0  0  0  0
   55.2475   35.5213   58.9802 C   0  0  2  0  0  0  0  0  0  0  0  0
   55.8778   35.2856   60.2507 O   0  0  0  0  0  0  0  0  0  0  0  0
   54.8472   34.1624   58.3276 C   0  0  2  0  0  0  0  0  0  0  0  0
   54.2206   34.3823   57.0288 O   0  0  0  0  0  0  0  0  0  0  0  0
   53.8328   33.4099   59.2042 C   0  0  0  0  0  0  0  0  0  0  0  0
   52.5936   34.1356   59.2864 O   0  0  0  0  0  0  0  0  0  0  0  0
  1  2  1  6  0  0  0
  1  3  1  0  0  0  0
  1  4  2  0  0  0  0
  1 16  1  0  0  0  0
  5  6  1  1  0  0  0
  5  7  1  0  0  0  0
  5 14  1  0  0  0  0
  7  8  1  6  0  0  0
  7  9  1  0  0  0  0
  9 10  1  1  0  0  0
  9 11  1  0  0  0  0
 11 12  1  1  0  0  0
 11 13  1  0  0  0  0
 13 14  1  0  0  0  0
 13 15  1  1  0  0  0
 15 16  1  0  0  0  0
M  CHG  1   3  -1
M  END
>  <CHROM.1>
65.02134230,172.73268445,-173.94441220,53.99957258,34.57058530,58.60420510
2.78659720,0.67420202,1.31338464

>  <Name>
ligand

>  <RI>
0

>  <Rbt.Current_Directory>
/home/itssahil/PROJECTS/Mol_Feturizer/New_Systems/rnas/3B4A

>  <Rbt.Executable>
rbdock ($Id: //depot/dev/client3/rdock/2013.1/src/exe/rbdock.cxx#4 $)

>  <Rbt.Library>
libRbt.so (2013.1, Build901 2013/11/27)

>  <Rbt.Parameter_File>
/export/apps/rDock/src/rDock_2013.1_src/data/scripts/dock_solv.prm

>  <Rbt.Receptor>
prm/pocket_docking_8.prm

>  <SCORE>
-10.1523

>  <SCORE.INTER>
-8.87917

>  <SCORE.INTER.CONST>
1

>  <SCORE.INTER.POLAR>
0

>  <SCORE.INTER.ROT>
3

>  <SCORE.INTER.SOLV>
21.0959

>  <SCORE.INTER.VDW>
-18.5514

>  <SCORE.INTER.norm>
-0.554948

>  <SCORE.INTRA>
-1.2817

>  <SCORE.INTRA.DIHEDRAL>
-1.64795

>  <SCORE.INTRA.DIHEDRAL.0>
2.05999

>  <SCORE.INTRA.POLAR>
0

>  <SCORE.INTRA.POLAR.0>
0

>  <SCORE.INTRA.REPUL>
0

>  <SCORE.INTRA.REPUL.0>
0

>  <SCORE.INTRA.SOLV>
-0.197029

>  <SCORE.INTRA.SOLV.lig_0>
-58.7001

>  <SCORE.INTRA.VDW>
-0.359207

>  <SCORE.INTRA.VDW.0>
-0.401036

>  <SCORE.INTRA.norm>
-0.0801059

>  <SCORE.RESTR>
0.00857742

>  <SCORE.RESTR.CAVITY>
0.00857742

>  <SCORE.RESTR.norm>
0.000536089

>  <SCORE.SYSTEM>
0

>  <SCORE.SYSTEM.CONST>
0

>  <SCORE.SYSTEM.DIHEDRAL>
0

>  <SCORE.SYSTEM.SOLV>
0

>  <SCORE.SYSTEM.norm>
0

>  <SCORE.heavy>
16

>  <SCORE.norm>
-0.634518

>  <RMSD>
9.408

$$$$
ligand
 OpenBabel11021811463D
libRbt.so/2013.1/901 2013/11/27
 16 16  0  0  0  0  0  0  0  0999 V2000
   42.6270   31.8576   53.9980 P   0  0  2  0  0  0  0  0  0  0  0  0
   42.2817   32.9056   54.9905 O   0  0  0  0  0  0  0  0  0  0  0  0
   42.1423   30.4223   54.5515 O   0  5  0  0  0  0  0  0  0  0  0  0
   44.2300   31.8542   53.7797 O   0  0  0  0  0  0  0  0  0  0  0  0
   39.3024   32.7012   49.3144 C   0  0  2  0  0  0  0  0  0  0  0  0
   39.8510   34.0181   49.0797 O   0  0  0  0  0  0  0  0  0  0  0  0
   37.7629   32.7692   49.5324 C   0  0  2  0  0  0  0  0  0  0  0  0
   37.1243   33.3821   48.3531 N   0  0  0  0  0  0  0  0  0  0  0  0
   37.4782   33.6191   50.7903 C   0  0  1  0  0  0  0  0  0  0  0  0
   36.0612   33.6941   51.0208 O   0  0  0  0  0  0  0  0  0  0  0  0
   38.1697   32.9291   51.9844 C   0  0  2  0  0  0  0  0  0  0  0  0
   37.9318   33.6988   53.1753 O   0  0  0  0  0  0  0  0  0  0  0  0
   39.7005   32.8657   51.6921 C   0  0  2  0  0  0  0  0  0  0  0  0
   39.9590   32.1016   50.4767 O   0  0  0  0  0  0  0  0  0  0  0  0
   40.4504   32.1693   52.8393 C   0  0  0  0  0  0  0  0  0  0  0  0
   41.8694   32.1851   52.6038 O   0  0  0  0  0  0  0  0  0  0  0  0
  1  2  1  1  0  0  0
  1  3  1  0  0  0  0
  1  4  2  0  0  0  0
  1 16  1  0  0  0  0
  5  6  1  1  0  0  0
  5  7  1  0  0  0  0
  5 14  1  0  0  0  0
  7  8  1  6  0  0  0
  7  9  1  0  0  0  0
  9 10  1  1  0  0  0
  9 11  1  0  0  0  0
 11 12  1  1  0  0  0
 11 13  1  0  0  0  0
 13 14  1  0  0  0  0
 13 15  1  1  0  0  0
 15 16  1  0  0  0  0
M  CHG  1   3  -1
M  END
>  <CHROM.1>
-176.51201136,163.28383501,-61.03857904,40.07085352,32.63064145,51.97768588
-0.67633764,0.26237473,-1.52064430

>  <Name>
ligand

>  <RI>
0

>  <Rbt.Current_Directory>
/home/itssahil/PROJECTS/Mol_Feturizer/New_Systems/rnas/3B4A

>  <Rbt.Executable>
rbdock ($Id: //depot/dev/client3/rdock/2013.1/src/exe/rbdock.cxx#4 $)

>  <Rbt.Library>
libRbt.so (2013.1, Build901 2013/11/27)

>  <Rbt.Parameter_File>
/export/apps/rDock/src/rDock_2013.1_src/data/scripts/dock_solv.prm

>  <Rbt.Receptor>
prm/blind_docking_100.prm

>  <SCORE>
-12.0556

>  <SCORE.INTER>
-11.0565

>  <SCORE.INTER.CONST>
1

>  <SCORE.INTER.POLAR>
0

>  <SCORE.INTER.ROT>
3

>  <SCORE.INTER.SOLV>
21.4605

>  <SCORE.INTER.VDW>
-20.1245

>  <SCORE.INTER.norm>
-0.69103

>  <SCORE.INTRA>
-0.999128

>  <SCORE.INTRA.DIHEDRAL>
-0.717785

>  <SCORE.INTRA.DIHEDRAL.0>
2.05999

>  <SCORE.INTRA.POLAR>
0

>  <SCORE.INTRA.POLAR.0>
0

>  <SCORE.INTRA.REPUL>
0

>  <SCORE.INTRA.REPUL.0>
0

>  <SCORE.INTRA.SOLV>
-1.14599

>  <SCORE.INTRA.SOLV.lig_0>
-58.7001

>  <SCORE.INTRA.VDW>
-0.0672421

>  <SCORE.INTRA.VDW.0>
-0.401036

>  <SCORE.INTRA.norm>
-0.0624455

>  <SCORE.RESTR>
0

>  <SCORE.RESTR.CAVITY>
0

>  <SCORE.RESTR.norm>
0

>  <SCORE.SYSTEM>
0

>  <SCORE.SYSTEM.CONST>
0

>  <SCORE.SYSTEM.DIHEDRAL>
0

>  <SCORE.SYSTEM.SOLV>
0

>  <SCORE.SYSTEM.norm>
0

>  <SCORE.heavy>
16

>  <SCORE.norm>
-0.753475

>  <RMSD>
9.519

$$$$
ligand
 OpenBabel11021811463D
libRbt.so/2013.1/901 2013/11/27
 16 16  0  0  0  0  0  0  0  0999 V2000
   42.4491   31.6837   53.9015 P   0  0  2  0  0  0  0  0  0  0  0  0
   43.8887   31.4107   53.6665 O   0  0  0  0  0  0  0  0  0  0  0  0
   42.3040   32.9163   54.9314 O   0  5  0  0  0  0  0  0  0  0  0  0
   41.7619   30.3582   54.5243 O   0  0  0  0  0  0  0  0  0  0  0  0
   39.4485   32.7487   49.1089 C   0  0  2  0  0  0  0  0  0  0  0  0
   40.0296   34.0560   48.9005 O   0  0  0  0  0  0  0  0  0  0  0  0
   37.8986   32.8383   49.2177 C   0  0  2  0  0  0  0  0  0  0  0  0
   37.3523   33.4466   47.9906 N   0  0  0  0  0  0  0  0  0  0  0  0
   37.5377   33.7049   50.4441 C   0  0  1  0  0  0  0  0  0  0  0  0
   36.1091   33.8001   50.5738 O   0  0  0  0  0  0  0  0  0  0  0  0
   38.1346   33.0190   51.6905 C   0  0  2  0  0  0  0  0  0  0  0  0
   37.8241   33.8042   52.8542 O   0  0  0  0  0  0  0  0  0  0  0  0
   39.6811   32.9334   51.5069 C   0  0  2  0  0  0  0  0  0  0  0  0
   40.0141   32.1533   50.3201 O   0  0  0  0  0  0  0  0  0  0  0  0
   40.3396   32.2398   52.7107 C   0  0  0  0  0  0  0  0  0  0  0  0
   41.7511   32.0703   52.4914 O   0  0  0  0  0  0  0  0  0  0  0  0
  1  2  1  6  0  0  0
  1  3  1  0  0  0  0
  1  4  2  0  0  0  0
  1 16  1  0  0  0  0
  5  6  1  1  0  0  0
  5  7  1  0  0  0  0
  5 14  1  0  0  0  0
  7  8  1  6  0  0  0
  7  9  1  0  0  0  0
  9 10  1  1  0  0  0
  9 11  1  0  0  0  0
 11 12  1  1  0  0  0
 11 13  1  0  0  0  0
 13 14  1  0  0  0  0
 13 15  1  1  0  0  0
 15 16  1  0  0  0  0
M  CHG  1   3  -1
M  END
>  <CHROM.1>
175.55246492,166.17965394,175.93943888,40.02945466,32.61566247,51.77920358
-0.73345764,0.30994863,-1.50374951

>  <Name>
ligand

>  <RI>
0

>  <Rbt.Current_Directory>
/home/itssahil/PROJECTS/Mol_Feturizer/New_Systems/rnas/3B4A

>  <Rbt.Executable>
rbdock ($Id: //depot/dev/client3/rdock/2013.1/src/exe/rbdock.cxx#4 $)

>  <Rbt.Library>
libRbt.so (2013.1, Build901 2013/11/27)

>  <Rbt.Parameter_File>
/export/apps/rDock/src/rDock_2013.1_src/data/scripts/dock_solv.prm

>  <Rbt.Receptor>
prm/blind_docking_80.prm

>  <SCORE>
-10.9758

>  <SCORE.INTER>
-10.0177

>  <SCORE.INTER.CONST>
1

>  <SCORE.INTER.POLAR>
0

>  <SCORE.INTER.ROT>
3

>  <SCORE.INTER.SOLV>
23.944

>  <SCORE.INTER.VDW>
-20.2598

>  <SCORE.INTER.norm>
-0.626109

>  <SCORE.INTRA>
-0.958063

>  <SCORE.INTRA.DIHEDRAL>
-1.05863

>  <SCORE.INTRA.DIHEDRAL.0>
2.05999

>  <SCORE.INTRA.POLAR>
0

>  <SCORE.INTRA.POLAR.0>
0

>  <SCORE.INTRA.REPUL>
0

>  <SCORE.INTRA.REPUL.0>
0

>  <SCORE.INTRA.SOLV>
-0.404312

>  <SCORE.INTRA.SOLV.lig_0>
-58.7001

>  <SCORE.INTRA.VDW>
-0.226594

>  <SCORE.INTRA.VDW.0>
-0.401036

>  <SCORE.INTRA.norm>
-0.0598789

>  <SCORE.RESTR>
0

>  <SCORE.RESTR.CAVITY>
0

>  <SCORE.RESTR.norm>
0

>  <SCORE.SYSTEM>
0

>  <SCORE.SYSTEM.CONST>
0

>  <SCORE.SYSTEM.DIHEDRAL>
0

>  <SCORE.SYSTEM.SOLV>
0

>  <SCORE.SYSTEM.norm>
0

>  <SCORE.heavy>
16

>  <SCORE.norm>
-0.685988

>  <RMSD>
9.629

$$$$
ligand
 OpenBabel11021811463D
libRbt.so/2013.1/901 2013/11/27
 16 16  0  0  0  0  0  0  0  0999 V2000
   42.3765   32.1547   53.9377 P   0  0  2  0  0  0  0  0  0  0  0  0
   43.3674   31.9513   52.8518 O   0  0  0  0  0  0  0  0  0  0  0  0
   43.0124   33.1201   55.0623 O   0  5  0  0  0  0  0  0  0  0  0  0
   42.0097   30.7179   54.5847 O   0  0  0  0  0  0  0  0  0  0  0  0
   38.4531   32.8209   49.2245 C   0  0  2  0  0  0  0  0  0  0  0  0
   38.9251   34.1525   48.9175 O   0  0  0  0  0  0  0  0  0  0  0  0
   37.0543   32.8683   49.9051 C   0  0  2  0  0  0  0  0  0  0  0  0
   36.0969   33.5541   49.0178 N   0  0  0  0  0  0  0  0  0  0  0  0
   37.1795   33.6333   51.2410 C   0  0  1  0  0  0  0  0  0  0  0  0
   35.9013   33.6873   51.8966 O   0  0  0  0  0  0  0  0  0  0  0  0
   38.1906   32.8698   52.1215 C   0  0  2  0  0  0  0  0  0  0  0  0
   38.3387   33.5594   53.3744 O   0  0  0  0  0  0  0  0  0  0  0  0
   39.5585   32.8319   51.3732 C   0  0  2  0  0  0  0  0  0  0  0  0
   39.4227   32.1496   50.0910 O   0  0  0  0  0  0  0  0  0  0  0  0
   40.6108   32.0653   52.1908 C   0  0  0  0  0  0  0  0  0  0  0  0
   41.0505   32.8471   53.3155 O   0  0  0  0  0  0  0  0  0  0  0  0
  1  2  1  6  0  0  0
  1  3  1  0  0  0  0
  1  4  2  0  0  0  0
  1 16  1  0  0  0  0
  5  6  1  1  0  0  0
  5  7  1  0  0  0  0
  5 14  1  0  0  0  0
  7  8  1  6  0  0  0
  7  9  1  0  0  0  0
  9 10  1  1  0  0  0
  9 11  1  0  0  0  0
 11 12  1  1  0  0  0
 11 13  1  0  0  0  0
 13 14  1  0  0  0  0
 13 15  1  1  0  0  0
 15 16  1  0  0  0  0
M  CHG  1   3  -1
M  END
>  <CHROM.1>
-73.59298484,-167.29661603,52.53697699,39.74390826,32.76098209,52.02601961
-0.62380621,0.25021481,-1.58532715

>  <Name>
ligand

>  <RI>
0

>  <Rbt.Current_Directory>
/home/itssahil/PROJECTS/Mol_Feturizer/New_Systems/rnas/3B4A

>  <Rbt.Executable>
rbdock ($Id: //depot/dev/client3/rdock/2013.1/src/exe/rbdock.cxx#4 $)

>  <Rbt.Library>
libRbt.so (2013.1, Build901 2013/11/27)

>  <Rbt.Parameter_File>
/export/apps/rDock/src/rDock_2013.1_src/data/scripts/dock_solv.prm

>  <Rbt.Receptor>
prm/blind_docking_80.prm

>  <SCORE>
-10.1511

>  <SCORE.INTER>
-9.33961

>  <SCORE.INTER.CONST>
1

>  <SCORE.INTER.POLAR>
0

>  <SCORE.INTER.ROT>
3

>  <SCORE.INTER.SOLV>
21.3195

>  <SCORE.INTER.VDW>
-18.9329

>  <SCORE.INTER.norm>
-0.583726

>  <SCORE.INTRA>
-0.811528

>  <SCORE.INTRA.DIHEDRAL>
-0.563211

>  <SCORE.INTRA.DIHEDRAL.0>
2.05999

>  <SCORE.INTRA.POLAR>
0

>  <SCORE.INTRA.POLAR.0>
0

>  <SCORE.INTRA.REPUL>
0

>  <SCORE.INTRA.REPUL.0>
0

>  <SCORE.INTRA.SOLV>
-0.991126

>  <SCORE.INTRA.SOLV.lig_0>
-58.7001

>  <SCORE.INTRA.VDW>
-0.0343598

>  <SCORE.INTRA.VDW.0>
-0.401036

>  <SCORE.INTRA.norm>
-0.0507205

>  <SCORE.RESTR>
0

>  <SCORE.RESTR.CAVITY>
0

>  <SCORE.RESTR.norm>
0

>  <SCORE.SYSTEM>
0

>  <SCORE.SYSTEM.CONST>
0

>  <SCORE.SYSTEM.DIHEDRAL>
0

>  <SCORE.SYSTEM.SOLV>
0

>  <SCORE.SYSTEM.norm>
0

>  <SCORE.heavy>
16

>  <SCORE.norm>
-0.634446

>  <RMSD>
9.748

$$$$
ligand
 OpenBabel11021811463D
libRbt.so/2013.1/901 2013/11/27
 16 16  0  0  0  0  0  0  0  0999 V2000
   42.0253   31.4745   53.8527 P   0  0  2  0  0  0  0  0  0  0  0  0
   42.0874   32.6782   54.7186 O   0  0  0  0  0  0  0  0  0  0  0  0
   42.3195   30.1634   54.7446 O   0  5  0  0  0  0  0  0  0  0  0  0
   43.1389   31.6126   52.6874 O   0  0  0  0  0  0  0  0  0  0  0  0
   36.6491   32.4783   52.0455 C   0  0  2  0  0  0  0  0  0  0  0  0
   36.4168   31.1452   51.5364 O   0  0  0  0  0  0  0  0  0  0  0  0
   36.4460   33.5443   50.9299 C   0  0  2  0  0  0  0  0  0  0  0  0
   35.0781   33.4386   50.3897 N   0  0  0  0  0  0  0  0  0  0  0  0
   37.4786   33.2914   49.8096 C   0  0  1  0  0  0  0  0  0  0  0  0
   37.3188   34.2673   48.7662 O   0  0  0  0  0  0  0  0  0  0  0  0
   38.8836   33.4152   50.4351 C   0  0  2  0  0  0  0  0  0  0  0  0
   39.8735   33.1776   49.4198 O   0  0  0  0  0  0  0  0  0  0  0  0
   39.0126   32.3438   51.5613 C   0  0  2  0  0  0  0  0  0  0  0  0
   38.0039   32.5601   52.5926 O   0  0  0  0  0  0  0  0  0  0  0  0
   40.3887   32.4255   52.2420 C   0  0  0  0  0  0  0  0  0  0  0  0
   40.5435   31.3691   53.2060 O   0  0  0  0  0  0  0  0  0  0  0  0
  1  2  1  1  0  0  0
  1  3  1  0  0  0  0
  1  4  2  0  0  0  0
  1 16  1  0  0  0  0
  5  6  1  6  0  0  0
  5  7  1  0  0  0  0
  5 14  1  0  0  0  0
  7  8  1  6  0  0  0
  7  9  1  0  0  0  0
  9 10  1  6  0  0  0
  9 11  1  0  0  0  0
 11 12  1  6  0  0  0
 11 13  1  0  0  0  0
 13 14  1  0  0  0  0
 13 15  1  1  0  0  0
 15 16  1  0  0  0  0
M  CHG  1   3  -1
M  END
>  <CHROM.1>
-175.42558428,178.10202245,70.24164666,39.38266345,32.36281095,51.98820475
0.64207073,0.03250282,2.07798046

>  <Name>
ligand

>  <RI>
0

>  <Rbt.Current_Directory>
/home/itssahil/PROJECTS/Mol_Feturizer/New_Systems/rnas/3B4A

>  <Rbt.Executable>
rbdock ($Id: //depot/dev/client3/rdock/2013.1/src/exe/rbdock.cxx#4 $)

>  <Rbt.Library>
libRbt.so (2013.1, Build901 2013/11/27)

>  <Rbt.Parameter_File>
/export/apps/rDock/src/rDock_2013.1_src/data/scripts/dock_solv.prm

>  <Rbt.Receptor>
prm/blind_docking_80.prm

>  <SCORE>
-11.0903

>  <SCORE.INTER>
-9.62093

>  <SCORE.INTER.CONST>
1

>  <SCORE.INTER.POLAR>
0

>  <SCORE.INTER.ROT>
3

>  <SCORE.INTER.SOLV>
21.4704

>  <SCORE.INTER.VDW>
-19.1708

>  <SCORE.INTER.norm>
-0.601308

>  <SCORE.INTRA>
-1.46937

>  <SCORE.INTRA.DIHEDRAL>
-1.79445

>  <SCORE.INTRA.DIHEDRAL.0>
2.05999

>  <SCORE.INTRA.POLAR>
0

>  <SCORE.INTRA.POLAR.0>
0

>  <SCORE.INTRA.REPUL>
0

>  <SCORE.INTRA.REPUL.0>
0

>  <SCORE.INTRA.SOLV>
-0.979673

>  <SCORE.INTRA.SOLV.lig_0>
-58.7001

>  <SCORE.INTRA.VDW>
-0.0823041

>  <SCORE.INTRA.VDW.0>
-0.401036

>  <SCORE.INTRA.norm>
-0.0918353

>  <SCORE.RESTR>
0

>  <SCORE.RESTR.CAVITY>
0

>  <SCORE.RESTR.norm>
0

>  <SCORE.SYSTEM>
0

>  <SCORE.SYSTEM.CONST>
0

>  <SCORE.SYSTEM.DIHEDRAL>
0

>  <SCORE.SYSTEM.SOLV>
0

>  <SCORE.SYSTEM.norm>
0

>  <SCORE.heavy>
16

>  <SCORE.norm>
-0.693143

>  <RMSD>
9.915

$$$$
ligand
 OpenBabel11021811463D
libRbt.so/2013.1/901 2013/11/27
 16 16  0  0  0  0  0  0  0  0999 V2000
   54.9377   32.1586   65.1835 P   0  0  2  0  0  0  0  0  0  0  0  0
   55.3459   33.5801   65.0607 O   0  0  0  0  0  0  0  0  0  0  0  0
   54.6040   31.8338   66.7276 O   0  5  0  0  0  0  0  0  0  0  0  0
   56.1524   31.2212   64.6706 O   0  0  0  0  0  0  0  0  0  0  0  0
   50.5150   33.2327   61.8596 C   0  0  2  0  0  0  0  0  0  0  0  0
   49.8343   31.9594   61.9345 O   0  0  0  0  0  0  0  0  0  0  0  0
   50.7876   33.6331   60.3806 C   0  0  2  0  0  0  0  0  0  0  0  0
   49.5122   33.6954   59.6433 N   0  0  0  0  0  0  0  0  0  0  0  0
   51.7158   32.5752   59.7445 C   0  0  1  0  0  0  0  0  0  0  0  0
   51.9909   32.9231   58.3770 O   0  0  0  0  0  0  0  0  0  0  0  0
   53.0272   32.5577   60.5570 C   0  0  2  0  0  0  0  0  0  0  0  0
   53.9155   31.5759   59.9964 O   0  0  0  0  0  0  0  0  0  0  0  0
   52.6834   32.1803   62.0308 C   0  0  2  0  0  0  0  0  0  0  0  0
   51.7689   33.1580   62.6103 O   0  0  0  0  0  0  0  0  0  0  0  0
   53.9492   32.1636   62.9031 C   0  0  0  0  0  0  0  0  0  0  0  0
   53.6158   31.9121   64.2797 O   0  0  0  0  0  0  0  0  0  0  0  0
  1  2  1  6  0  0  0
  1  3  1  0  0  0  0
  1  4  2  0  0  0  0
  1 16  1  0  0  0  0
  5  6  1  6  0  0  0
  5  7  1  0  0  0  0
  5 14  1  0  0  0  0
  7  8  1  6  0  0  0
  7  9  1  0  0  0  0
  9 10  1  6  0  0  0
  9 11  1  0  0  0  0
 11 12  1  6  0  0  0
 11 13  1  0  0  0  0
 13 14  1  0  0  0  0
 13 15  1  1  0  0  0
 15 16  1  0  0  0  0
M  CHG  1   3  -1
M  END
>  <CHROM.1>
175.76225142,-170.31649769,62.55323635,52.97810633,32.47591729,62.51610100
0.90556719,-0.23835890,1.54447738

>  <Name>
ligand

>  <RI>
0

>  <Rbt.Current_Directory>
/home/itssahil/PROJECTS/Mol_Feturizer/New_Systems/rnas/3B4A

>  <Rbt.Executable>
rbdock ($Id: //depot/dev/client3/rdock/2013.1/src/exe/rbdock.cxx#4 $)

>  <Rbt.Library>
libRbt.so (2013.1, Build901 2013/11/27)

>  <Rbt.Parameter_File>
/export/apps/rDock/src/rDock_2013.1_src/data/scripts/dock_solv.prm

>  <Rbt.Receptor>
prm/blind_docking_100.prm

>  <SCORE>
-7.95372

>  <SCORE.INTER>
-6.57787

>  <SCORE.INTER.CONST>
1

>  <SCORE.INTER.POLAR>
0

>  <SCORE.INTER.ROT>
3

>  <SCORE.INTER.SOLV>
22.1161

>  <SCORE.INTER.VDW>
-17.3573

>  <SCORE.INTER.norm>
-0.411117

>  <SCORE.INTRA>
-1.37585

>  <SCORE.INTRA.DIHEDRAL>
-1.53043

>  <SCORE.INTRA.DIHEDRAL.0>
2.05999

>  <SCORE.INTRA.POLAR>
0

>  <SCORE.INTRA.POLAR.0>
0

>  <SCORE.INTRA.REPUL>
0

>  <SCORE.INTRA.REPUL.0>
0

>  <SCORE.INTRA.SOLV>
-1.00795

>  <SCORE.INTRA.SOLV.lig_0>
-58.7001

>  <SCORE.INTRA.VDW>
-0.106658

>  <SCORE.INTRA.VDW.0>
-0.401036

>  <SCORE.INTRA.norm>
-0.0859904

>  <SCORE.RESTR>
0

>  <SCORE.RESTR.CAVITY>
0

>  <SCORE.RESTR.norm>
0

>  <SCORE.SYSTEM>
0

>  <SCORE.SYSTEM.CONST>
0

>  <SCORE.SYSTEM.DIHEDRAL>
0

>  <SCORE.SYSTEM.SOLV>
0

>  <SCORE.SYSTEM.norm>
0

>  <SCORE.heavy>
16

>  <SCORE.norm>
-0.497107

>  <RMSD>
10.188

$$$$
ligand
 OpenBabel11021811463D
libRbt.so/2013.1/901 2013/11/27
 16 16  0  0  0  0  0  0  0  0999 V2000
   42.0614   31.8399   53.7350 P   0  0  2  0  0  0  0  0  0  0  0  0
   42.8219   31.4652   52.5170 O   0  0  0  0  0  0  0  0  0  0  0  0
   42.9513   32.8460   54.6277 O   0  5  0  0  0  0  0  0  0  0  0  0
   41.7307   30.4983   54.5765 O   0  0  0  0  0  0  0  0  0  0  0  0
   36.6712   31.8541   50.6622 C   0  0  2  0  0  0  0  0  0  0  0  0
   37.0451   32.9018   49.7387 O   0  0  0  0  0  0  0  0  0  0  0  0
   35.7017   32.3930   51.7539 C   0  0  2  0  0  0  0  0  0  0  0  0
   34.4997   32.9562   51.1117 N   0  0  0  0  0  0  0  0  0  0  0  0
   36.4296   33.4865   52.5662 C   0  0  1  0  0  0  0  0  0  0  0  0
   35.5586   33.9992   53.5886 O   0  0  0  0  0  0  0  0  0  0  0  0
   37.6724   32.8379   53.2104 C   0  0  2  0  0  0  0  0  0  0  0  0
   38.3812   33.8312   53.9708 O   0  0  0  0  0  0  0  0  0  0  0  0
   38.5857   32.2935   52.0693 C   0  0  2  0  0  0  0  0  0  0  0  0
   37.8760   31.2955   51.2767 O   0  0  0  0  0  0  0  0  0  0  0  0
   39.8389   31.6144   52.6455 C   0  0  0  0  0  0  0  0  0  0  0  0
   40.6895   32.5785   53.2908 O   0  0  0  0  0  0  0  0  0  0  0  0
  1  2  1  6  0  0  0
  1  3  1  0  0  0  0
  1  4  2  0  0  0  0
  1 16  1  0  0  0  0
  5  6  1  6  0  0  0
  5  7  1  0  0  0  0
  5 14  1  0  0  0  0
  7  8  1  6  0  0  0
  7  9  1  0  0  0  0
  9 10  1  1  0  0  0
  9 11  1  0  0  0  0
 11 12  1  6  0  0  0
 11 13  1  0  0  0  0
 13 14  1  0  0  0  0
 13 15  1  1  0  0  0
 15 16  1  0  0  0  0
M  CHG  1   3  -1
M  END
>  <CHROM.1>
-66.92799989,-173.95083092,67.90213881,38.98025479,32.37673944,52.69475855
-0.20869631,0.31186325,-2.07196875

>  <Name>
ligand

>  <RI>
0

>  <Rbt.Current_Directory>
/home/itssahil/PROJECTS/Mol_Feturizer/New_Systems/rnas/3B4A

>  <Rbt.Executable>
rbdock ($Id: //depot/dev/client3/rdock/2013.1/src/exe/rbdock.cxx#4 $)

>  <Rbt.Library>
libRbt.so (2013.1, Build901 2013/11/27)

>  <Rbt.Parameter_File>
/export/apps/rDock/src/rDock_2013.1_src/data/scripts/dock_solv.prm

>  <Rbt.Receptor>
prm/blind_docking_80.prm

>  <SCORE>
-10.815

>  <SCORE.INTER>
-9.57134

>  <SCORE.INTER.CONST>
1

>  <SCORE.INTER.POLAR>
0

>  <SCORE.INTER.ROT>
3

>  <SCORE.INTER.SOLV>
21.3378

>  <SCORE.INTER.VDW>
-19.0935

>  <SCORE.INTER.norm>
-0.598209

>  <SCORE.INTRA>
-1.2437

>  <SCORE.INTRA.DIHEDRAL>
-1.60736

>  <SCORE.INTRA.DIHEDRAL.0>
2.05999

>  <SCORE.INTRA.POLAR>
0

>  <SCORE.INTRA.POLAR.0>
0

>  <SCORE.INTRA.REPUL>
0

>  <SCORE.INTRA.REPUL.0>
0

>  <SCORE.INTRA.SOLV>
-0.697754

>  <SCORE.INTRA.SOLV.lig_0>
-58.7001

>  <SCORE.INTRA.VDW>
-0.0911467

>  <SCORE.INTRA.VDW.0>
-0.401036

>  <SCORE.INTRA.norm>
-0.0777315

>  <SCORE.RESTR>
0

>  <SCORE.RESTR.CAVITY>
0

>  <SCORE.RESTR.norm>
0

>  <SCORE.SYSTEM>
0

>  <SCORE.SYSTEM.CONST>
0

>  <SCORE.SYSTEM.DIHEDRAL>
0

>  <SCORE.SYSTEM.SOLV>
0

>  <SCORE.SYSTEM.norm>
0

>  <SCORE.heavy>
16

>  <SCORE.norm>
-0.67594

>  <RMSD>
10.286

$$$$
ligand
 OpenBabel11021811463D
libRbt.so/2013.1/901 2013/11/27
 16 16  0  0  0  0  0  0  0  0999 V2000
   55.8304   32.2588   64.3823 P   0  0  2  0  0  0  0  0  0  0  0  0
   57.2166   31.7289   64.3907 O   0  0  0  0  0  0  0  0  0  0  0  0
   55.7568   33.5368   63.4013 O   0  5  0  0  0  0  0  0  0  0  0  0
   55.4291   32.6931   65.8882 O   0  0  0  0  0  0  0  0  0  0  0  0
   53.6800   32.0004   60.0114 C   0  0  2  0  0  0  0  0  0  0  0  0
   54.5127   33.1786   59.9174 O   0  0  0  0  0  0  0  0  0  0  0  0
   52.1946   32.3409   59.6958 C   0  0  2  0  0  0  0  0  0  0  0  0
   52.0984   32.9240   58.3449 N   0  0  0  0  0  0  0  0  0  0  0  0
   51.6846   33.3519   60.7463 C   0  0  1  0  0  0  0  0  0  0  0  0
   50.3100   33.6805   60.4834 O   0  0  0  0  0  0  0  0  0  0  0  0
   51.8105   32.6861   62.1324 C   0  0  2  0  0  0  0  0  0  0  0  0
   51.3505   33.6038   63.1390 O   0  0  0  0  0  0  0  0  0  0  0  0
   53.3128   32.3439   62.3748 C   0  0  2  0  0  0  0  0  0  0  0  0
   53.8010   31.4258   61.3517 O   0  0  0  0  0  0  0  0  0  0  0  0
   53.5069   31.6574   63.7367 C   0  0  0  0  0  0  0  0  0  0  0  0
   54.8301   31.1036   63.8439 O   0  0  0  0  0  0  0  0  0  0  0  0
  1  2  1  1  0  0  0
  1  3  1  0  0  0  0
  1  4  2  0  0  0  0
  1 16  1  0  0  0  0
  5  6  1  1  0  0  0
  5  7  1  0  0  0  0
  5 14  1  0  0  0  0
  7  8  1  6  0  0  0
  7  9  1  0  0  0  0
  9 10  1  6  0  0  0
  9 11  1  0  0  0  0
 11 12  1  1  0  0  0
 11 13  1  0  0  0  0
 13 14  1  0  0  0  0
 13 15  1  1  0  0  0
 15 16  1  0  0  0  0
M  CHG  1   3  -1
M  END
>  <CHROM.1>
168.37469123,86.20491428,-175.43595886,53.79050876,32.51892594,62.33318233
-0.81834476,0.24901693,-1.62036514

>  <Name>
ligand

>  <RI>
0

>  <Rbt.Current_Directory>
/home/itssahil/PROJECTS/Mol_Feturizer/New_Systems/rnas/3B4A

>  <Rbt.Executable>
rbdock ($Id: //depot/dev/client3/rdock/2013.1/src/exe/rbdock.cxx#4 $)

>  <Rbt.Library>
libRbt.so (2013.1, Build901 2013/11/27)

>  <Rbt.Parameter_File>
/export/apps/rDock/src/rDock_2013.1_src/data/scripts/dock_solv.prm

>  <Rbt.Receptor>
prm/blind_docking_100.prm

>  <SCORE>
-9.24681

>  <SCORE.INTER>
-10.5712

>  <SCORE.INTER.CONST>
1

>  <SCORE.INTER.POLAR>
0

>  <SCORE.INTER.ROT>
3

>  <SCORE.INTER.SOLV>
22.0942

>  <SCORE.INTER.VDW>
-20.0122

>  <SCORE.INTER.norm>
-0.660702

>  <SCORE.INTRA>
1.32442

>  <SCORE.INTRA.DIHEDRAL>
1.33659

>  <SCORE.INTRA.DIHEDRAL.0>
2.05999

>  <SCORE.INTRA.POLAR>
0

>  <SCORE.INTRA.POLAR.0>
0

>  <SCORE.INTRA.REPUL>
0

>  <SCORE.INTRA.REPUL.0>
0

>  <SCORE.INTRA.SOLV>
2.23767

>  <SCORE.INTRA.SOLV.lig_0>
-58.7001

>  <SCORE.INTRA.VDW>
-0.462711

>  <SCORE.INTRA.VDW.0>
-0.401036

>  <SCORE.INTRA.norm>
0.0827761

>  <SCORE.RESTR>
0

>  <SCORE.RESTR.CAVITY>
0

>  <SCORE.RESTR.norm>
0

>  <SCORE.SYSTEM>
0

>  <SCORE.SYSTEM.CONST>
0

>  <SCORE.SYSTEM.DIHEDRAL>
0

>  <SCORE.SYSTEM.SOLV>
0

>  <SCORE.SYSTEM.norm>
0

>  <SCORE.heavy>
16

>  <SCORE.norm>
-0.577926

>  <RMSD>
10.534

$$$$
ligand
 OpenBabel11021811463D
libRbt.so/2013.1/901 2013/11/27
 16 16  0  0  0  0  0  0  0  0999 V2000
   55.8718   32.2735   64.3709 P   0  0  2  0  0  0  0  0  0  0  0  0
   57.2536   31.7352   64.3135 O   0  0  0  0  0  0  0  0  0  0  0  0
   55.7618   33.5574   63.4011 O   0  5  0  0  0  0  0  0  0  0  0  0
   55.5419   32.7016   65.8958 O   0  0  0  0  0  0  0  0  0  0  0  0
   53.6819   32.0268   60.0530 C   0  0  2  0  0  0  0  0  0  0  0  0
   54.5066   33.2097   59.9493 O   0  0  0  0  0  0  0  0  0  0  0  0
   52.1930   32.3559   59.7416 C   0  0  2  0  0  0  0  0  0  0  0  0
   52.0877   32.9309   58.3879 N   0  0  0  0  0  0  0  0  0  0  0  0
   51.6806   33.3693   60.7885 C   0  0  1  0  0  0  0  0  0  0  0  0
   50.3029   33.6876   60.5293 O   0  0  0  0  0  0  0  0  0  0  0  0
   51.8164   32.7119   62.1777 C   0  0  2  0  0  0  0  0  0  0  0  0
   51.3544   33.6322   63.1812 O   0  0  0  0  0  0  0  0  0  0  0  0
   53.3218   32.3808   62.4160 C   0  0  2  0  0  0  0  0  0  0  0  0
   53.8119   31.4603   61.3960 O   0  0  0  0  0  0  0  0  0  0  0  0
   53.5258   31.7031   63.7808 C   0  0  0  0  0  0  0  0  0  0  0  0
   54.8409   31.1274   63.8722 O   0  0  0  0  0  0  0  0  0  0  0  0
  1  2  1  6  0  0  0
  1  3  1  0  0  0  0
  1  4  2  0  0  0  0
  1 16  1  0  0  0  0
  5  6  1  1  0  0  0
  5  7  1  0  0  0  0
  5 14  1  0  0  0  0
  7  8  1  6  0  0  0
  7  9  1  0  0  0  0
  9 10  1  6  0  0  0
  9 11  1  0  0  0  0
 11 12  1  1  0  0  0
 11 13  1  0  0  0  0
 13 14  1  0  0  0  0
 13 15  1  1  0  0  0
 15 16  1  0  0  0  0
M  CHG  1   3  -1
M  END
>  <CHROM.1>
166.84401899,85.67985366,-173.34427984,53.80723654,32.54010690,62.35557612
-0.80431735,0.24588496,-1.62009897

>  <Name>
ligand

>  <RI>
0

>  <Rbt.Current_Directory>
/home/itssahil/PROJECTS/Mol_Feturizer/New_Systems/rnas/3B4A

>  <Rbt.Executable>
rbdock ($Id: //depot/dev/client3/rdock/2013.1/src/exe/rbdock.cxx#4 $)

>  <Rbt.Library>
libRbt.so (2013.1, Build901 2013/11/27)

>  <Rbt.Parameter_File>
/export/apps/rDock/src/rDock_2013.1_src/data/scripts/dock_solv.prm

>  <Rbt.Receptor>
prm/blind_docking_100.prm

>  <SCORE>
-9.23963

>  <SCORE.INTER>
-10.666

>  <SCORE.INTER.CONST>
1

>  <SCORE.INTER.POLAR>
0

>  <SCORE.INTER.ROT>
3

>  <SCORE.INTER.SOLV>
22.2684

>  <SCORE.INTER.VDW>
-20.1334

>  <SCORE.INTER.norm>
-0.666623

>  <SCORE.INTRA>
1.42633

>  <SCORE.INTRA.DIHEDRAL>
1.40527

>  <SCORE.INTRA.DIHEDRAL.0>
2.05999

>  <SCORE.INTRA.POLAR>
0

>  <SCORE.INTRA.POLAR.0>
0

>  <SCORE.INTRA.REPUL>
0

>  <SCORE.INTRA.REPUL.0>
0

>  <SCORE.INTRA.SOLV>
2.29882

>  <SCORE.INTRA.SOLV.lig_0>
-58.7001

>  <SCORE.INTRA.VDW>
-0.425711

>  <SCORE.INTRA.VDW.0>
-0.401036

>  <SCORE.INTRA.norm>
0.0891459

>  <SCORE.RESTR>
0

>  <SCORE.RESTR.CAVITY>
0

>  <SCORE.RESTR.norm>
0

>  <SCORE.SYSTEM>
0

>  <SCORE.SYSTEM.CONST>
0

>  <SCORE.SYSTEM.DIHEDRAL>
0

>  <SCORE.SYSTEM.SOLV>
0

>  <SCORE.SYSTEM.norm>
0

>  <SCORE.heavy>
16

>  <SCORE.norm>
-0.577477

>  <RMSD>
10.553

$$$$
ligand
 OpenBabel11021811463D
libRbt.so/2013.1/901 2013/11/27
 16 16  0  0  0  0  0  0  0  0999 V2000
   56.3916   31.8404   64.6441 P   0  0  2  0  0  0  0  0  0  0  0  0
   56.3823   30.3572   64.5946 O   0  0  0  0  0  0  0  0  0  0  0  0
   57.6405   32.3922   63.7856 O   0  5  0  0  0  0  0  0  0  0  0  0
   56.5295   32.3097   66.1862 O   0  0  0  0  0  0  0  0  0  0  0  0
   52.6774   32.4780   59.7451 C   0  0  2  0  0  0  0  0  0  0  0  0
   53.1364   33.8179   59.4552 O   0  0  0  0  0  0  0  0  0  0  0  0
   51.2649   32.5015   60.3980 C   0  0  2  0  0  0  0  0  0  0  0  0
   50.3156   33.1789   59.4957 N   0  0  0  0  0  0  0  0  0  0  0  0
   51.3526   33.2601   61.7405 C   0  0  1  0  0  0  0  0  0  0  0  0
   50.0610   33.2922   62.3708 O   0  0  0  0  0  0  0  0  0  0  0  0
   52.3569   32.5058   62.6365 C   0  0  2  0  0  0  0  0  0  0  0  0
   52.4703   33.1899   63.8960 O   0  0  0  0  0  0  0  0  0  0  0  0
   53.7398   32.4917   61.9154 C   0  0  2  0  0  0  0  0  0  0  0  0
   53.6391   31.8153   60.6269 O   0  0  0  0  0  0  0  0  0  0  0  0
   54.7865   31.7353   62.7495 C   0  0  0  0  0  0  0  0  0  0  0  0
   55.0088   32.3955   64.0080 O   0  0  0  0  0  0  0  0  0  0  0  0
  1  2  1  6  0  0  0
  1  3  1  0  0  0  0
  1  4  2  0  0  0  0
  1 16  1  0  0  0  0
  5  6  1  1  0  0  0
  5  7  1  0  0  0  0
  5 14  1  0  0  0  0
  7  8  1  6  0  0  0
  7  9  1  0  0  0  0
  9 10  1  1  0  0  0
  9 11  1  0  0  0  0
 11 12  1  1  0  0  0
 11 13  1  0  0  0  0
 13 14  1  0  0  0  0
 13 15  1  1  0  0  0
 15 16  1  0  0  0  0
M  CHG  1   3  -1
M  END
>  <CHROM.1>
-62.88712905,-163.48506431,-48.69667064,53.87036225,32.42489849,62.60967543
-0.67231336,0.23408176,-1.56957088

>  <Name>
ligand

>  <RI>
0

>  <Rbt.Current_Directory>
/home/itssahil/PROJECTS/Mol_Feturizer/New_Systems/rnas/3B4A

>  <Rbt.Executable>
rbdock ($Id: //depot/dev/client3/rdock/2013.1/src/exe/rbdock.cxx#4 $)

>  <Rbt.Library>
libRbt.so (2013.1, Build901 2013/11/27)

>  <Rbt.Parameter_File>
/export/apps/rDock/src/rDock_2013.1_src/data/scripts/dock_solv.prm

>  <Rbt.Receptor>
prm/blind_docking_100.prm

>  <SCORE>
-5.25651

>  <SCORE.INTER>
-4.79422

>  <SCORE.INTER.CONST>
1

>  <SCORE.INTER.POLAR>
0

>  <SCORE.INTER.ROT>
3

>  <SCORE.INTER.SOLV>
25.7874

>  <SCORE.INTER.VDW>
-17.3919

>  <SCORE.INTER.norm>
-0.299639

>  <SCORE.INTRA>
-0.46229

>  <SCORE.INTRA.DIHEDRAL>
-0.559831

>  <SCORE.INTRA.DIHEDRAL.0>
2.05999

>  <SCORE.INTRA.POLAR>
0

>  <SCORE.INTRA.POLAR.0>
0

>  <SCORE.INTRA.REPUL>
0

>  <SCORE.INTRA.REPUL.0>
0

>  <SCORE.INTRA.SOLV>
-0.792654

>  <SCORE.INTRA.SOLV.lig_0>
-58.7001

>  <SCORE.INTRA.VDW>
0.213953

>  <SCORE.INTRA.VDW.0>
-0.401036

>  <SCORE.INTRA.norm>
-0.0288931

>  <SCORE.RESTR>
0

>  <SCORE.RESTR.CAVITY>
0

>  <SCORE.RESTR.norm>
0

>  <SCORE.SYSTEM>
0

>  <SCORE.SYSTEM.CONST>
0

>  <SCORE.SYSTEM.DIHEDRAL>
0

>  <SCORE.SYSTEM.SOLV>
0

>  <SCORE.SYSTEM.norm>
0

>  <SCORE.heavy>
16

>  <SCORE.norm>
-0.328532

>  <RMSD>
10.757

$$$$
ligand
 OpenBabel11021811463D
libRbt.so/2013.1/901 2013/11/27
 16 16  0  0  0  0  0  0  0  0999 V2000
   50.4446   32.6601   61.0862 P   0  0  2  0  0  0  0  0  0  0  0  0
   50.8791   33.5392   59.9723 O   0  0  0  0  0  0  0  0  0  0  0  0
   50.5707   31.1194   60.6264 O   0  5  0  0  0  0  0  0  0  0  0  0
   48.9069   33.0044   61.4527 O   0  0  0  0  0  0  0  0  0  0  0  0
   54.0501   31.9363   65.5650 C   0  0  2  0  0  0  0  0  0  0  0  0
   53.9361   33.2999   66.0316 O   0  0  0  0  0  0  0  0  0  0  0  0
   55.5300   31.5795   65.2416 C   0  0  2  0  0  0  0  0  0  0  0  0
   56.3589   31.7750   66.4453 N   0  0  0  0  0  0  0  0  0  0  0  0
   56.0237   32.4996   64.1036 C   0  0  1  0  0  0  0  0  0  0  0  0
   57.3888   32.1878   63.7784 O   0  0  0  0  0  0  0  0  0  0  0  0
   55.1205   32.2497   62.8781 C   0  0  2  0  0  0  0  0  0  0  0  0
   55.5471   33.0974   61.7980 O   0  0  0  0  0  0  0  0  0  0  0  0
   53.6524   32.5962   63.2748 C   0  0  2  0  0  0  0  0  0  0  0  0
   53.2085   31.7559   64.3815 O   0  0  0  0  0  0  0  0  0  0  0  0
   52.6930   32.3499   62.0991 C   0  0  0  0  0  0  0  0  0  0  0  0
   51.4014   32.9237   62.3669 O   0  0  0  0  0  0  0  0  0  0  0  0
  1  2  1  6  0  0  0
  1  3  1  0  0  0  0
  1  4  2  0  0  0  0
  1 16  1  0  0  0  0
  5  6  1  6  0  0  0
  5  7  1  0  0  0  0
  5 14  1  0  0  0  0
  7  8  1  1  0  0  0
  7  9  1  0  0  0  0
  9 10  1  6  0  0  0
  9 11  1  0  0  0  0
 11 12  1  6  0  0  0
 11 13  1  0  0  0  0
 13 14  1  0  0  0  0
 13 15  1  6  0  0  0
 15 16  1  0  0  0  0
M  CHG  1   3  -1
M  END
>  <CHROM.1>
-168.06312638,178.88376141,-72.52186486,53.20263409,32.44526488,62.99129893
2.51986418,0.01252583,-1.47212854

>  <Name>
ligand

>  <RI>
0

>  <Rbt.Current_Directory>
/home/itssahil/PROJECTS/Mol_Feturizer/New_Systems/rnas/3B4A

>  <Rbt.Executable>
rbdock ($Id: //depot/dev/client3/rdock/2013.1/src/exe/rbdock.cxx#4 $)

>  <Rbt.Library>
libRbt.so (2013.1, Build901 2013/11/27)

>  <Rbt.Parameter_File>
/export/apps/rDock/src/rDock_2013.1_src/data/scripts/dock_solv.prm

>  <Rbt.Receptor>
prm/blind_docking_100.prm

>  <SCORE>
-13.0086

>  <SCORE.INTER>
-11.8479

>  <SCORE.INTER.CONST>
1

>  <SCORE.INTER.POLAR>
0

>  <SCORE.INTER.ROT>
3

>  <SCORE.INTER.SOLV>
26.7276

>  <SCORE.INTER.VDW>
-22.4078

>  <SCORE.INTER.norm>
-0.740492

>  <SCORE.INTRA>
-1.1607

>  <SCORE.INTRA.DIHEDRAL>
-1.30102

>  <SCORE.INTRA.DIHEDRAL.0>
2.05999

>  <SCORE.INTRA.POLAR>
0

>  <SCORE.INTRA.POLAR.0>
0

>  <SCORE.INTRA.REPUL>
0

>  <SCORE.INTRA.REPUL.0>
0

>  <SCORE.INTRA.SOLV>
-0.976003

>  <SCORE.INTRA.SOLV.lig_0>
-58.7001

>  <SCORE.INTRA.VDW>
-0.0221896

>  <SCORE.INTRA.VDW.0>
-0.401036

>  <SCORE.INTRA.norm>
-0.0725439

>  <SCORE.RESTR>
0

>  <SCORE.RESTR.CAVITY>
0

>  <SCORE.RESTR.norm>
0

>  <SCORE.SYSTEM>
0

>  <SCORE.SYSTEM.CONST>
0

>  <SCORE.SYSTEM.DIHEDRAL>
0

>  <SCORE.SYSTEM.SOLV>
0

>  <SCORE.SYSTEM.norm>
0

>  <SCORE.heavy>
16

>  <SCORE.norm>
-0.813036

>  <RMSD>
12.064

$$$$
ligand
 OpenBabel11021811463D
libRbt.so/2013.1/901 2013/11/27
 16 16  0  0  0  0  0  0  0  0999 V2000
   50.6695   32.4157   60.9747 P   0  0  2  0  0  0  0  0  0  0  0  0
   50.4510   30.9479   60.9640 O   0  0  0  0  0  0  0  0  0  0  0  0
   49.2458   33.1631   61.0998 O   0  5  0  0  0  0  0  0  0  0  0  0
   51.4004   32.8441   59.5965 O   0  0  0  0  0  0  0  0  0  0  0  0
   54.1800   31.9597   65.5524 C   0  0  2  0  0  0  0  0  0  0  0  0
   54.0013   33.3280   65.9836 O   0  0  0  0  0  0  0  0  0  0  0  0
   55.6810   31.6529   65.2785 C   0  0  2  0  0  0  0  0  0  0  0  0
   56.4673   31.9069   66.4997 N   0  0  0  0  0  0  0  0  0  0  0  0
   56.1718   32.5658   64.1334 C   0  0  1  0  0  0  0  0  0  0  0  0
   57.5565   32.2995   63.8533 O   0  0  0  0  0  0  0  0  0  0  0  0
   55.3140   32.2541   62.8895 C   0  0  2  0  0  0  0  0  0  0  0  0
   55.7389   33.0933   61.8021 O   0  0  0  0  0  0  0  0  0  0  0  0
   53.8232   32.5526   63.2373 C   0  0  2  0  0  0  0  0  0  0  0  0
   53.3800   31.7207   64.3506 O   0  0  0  0  0  0  0  0  0  0  0  0
   52.9077   32.2435   62.0415 C   0  0  0  0  0  0  0  0  0  0  0  0
   51.5968   32.7991   62.2467 O   0  0  0  0  0  0  0  0  0  0  0  0
  1  2  1  6  0  0  0
  1  3  1  0  0  0  0
  1  4  2  0  0  0  0
  1 16  1  0  0  0  0
  5  6  1  6  0  0  0
  5  7  1  0  0  0  0
  5 14  1  0  0  0  0
  7  8  1  1  0  0  0
  7  9  1  0  0  0  0
  9 10  1  6  0  0  0
  9 11  1  0  0  0  0
 11 12  1  6  0  0  0
 11 13  1  0  0  0  0
 13 14  1  0  0  0  0
 13 15  1  6  0  0  0
 15 16  1  0  0  0  0
M  CHG  1   3  -1
M  END
>  <CHROM.1>
-166.76600475,-178.77800777,66.89017046,53.38642897,32.37661663,62.94641912
2.49509521,-0.03162158,-1.49013558

>  <Name>
ligand

>  <RI>
0

>  <Rbt.Current_Directory>
/home/itssahil/PROJECTS/Mol_Feturizer/New_Systems/rnas/3B4A

>  <Rbt.Executable>
rbdock ($Id: //depot/dev/client3/rdock/2013.1/src/exe/rbdock.cxx#4 $)

>  <Rbt.Library>
libRbt.so (2013.1, Build901 2013/11/27)

>  <Rbt.Parameter_File>
/export/apps/rDock/src/rDock_2013.1_src/data/scripts/dock_solv.prm

>  <Rbt.Receptor>
prm/blind_docking_100.prm

>  <SCORE>
-15.3328

>  <SCORE.INTER>
-13.9988

>  <SCORE.INTER.CONST>
1

>  <SCORE.INTER.POLAR>
0

>  <SCORE.INTER.ROT>
3

>  <SCORE.INTER.SOLV>
23.1002

>  <SCORE.INTER.VDW>
-22.6326

>  <SCORE.INTER.norm>
-0.874928

>  <SCORE.INTRA>
-1.33394

>  <SCORE.INTRA.DIHEDRAL>
-1.36075

>  <SCORE.INTRA.DIHEDRAL.0>
2.05999

>  <SCORE.INTRA.POLAR>
0

>  <SCORE.INTRA.POLAR.0>
0

>  <SCORE.INTRA.REPUL>
0

>  <SCORE.INTRA.REPUL.0>
0

>  <SCORE.INTRA.SOLV>
-1.03819

>  <SCORE.INTRA.SOLV.lig_0>
-58.7001

>  <SCORE.INTRA.VDW>
-0.134469

>  <SCORE.INTRA.VDW.0>
-0.401036

>  <SCORE.INTRA.norm>
-0.0833713

>  <SCORE.RESTR>
0

>  <SCORE.RESTR.CAVITY>
0

>  <SCORE.RESTR.norm>
0

>  <SCORE.SYSTEM>
0

>  <SCORE.SYSTEM.CONST>
0

>  <SCORE.SYSTEM.DIHEDRAL>
0

>  <SCORE.SYSTEM.SOLV>
0

>  <SCORE.SYSTEM.norm>
0

>  <SCORE.heavy>
16

>  <SCORE.norm>
-0.958299

>  <RMSD>
12.102

$$$$
ligand
 OpenBabel11021811463D
libRbt.so/2013.1/901 2013/11/27
 16 16  0  0  0  0  0  0  0  0999 V2000
   50.4017   32.5774   61.1875 P   0  0  2  0  0  0  0  0  0  0  0  0
   49.0149   32.9443   61.5679 O   0  0  0  0  0  0  0  0  0  0  0  0
   50.8349   33.4212   59.8831 O   0  5  0  0  0  0  0  0  0  0  0  0
   50.4516   30.9931   60.8637 O   0  0  0  0  0  0  0  0  0  0  0  0
   54.0605   31.9547   65.6089 C   0  0  2  0  0  0  0  0  0  0  0  0
   53.9483   33.3207   66.0690 O   0  0  0  0  0  0  0  0  0  0  0  0
   55.5387   31.5974   65.2784 C   0  0  2  0  0  0  0  0  0  0  0  0
   56.3748   31.7997   66.4760 N   0  0  0  0  0  0  0  0  0  0  0  0
   56.0248   32.5120   64.1327 C   0  0  1  0  0  0  0  0  0  0  0  0
   57.3882   32.1994   63.8007 O   0  0  0  0  0  0  0  0  0  0  0  0
   55.1143   32.2550   62.9139 C   0  0  2  0  0  0  0  0  0  0  0  0
   55.5338   33.0975   61.8269 O   0  0  0  0  0  0  0  0  0  0  0  0
   53.6485   32.6025   63.3178 C   0  0  2  0  0  0  0  0  0  0  0  0
   53.2120   31.7676   64.4315 O   0  0  0  0  0  0  0  0  0  0  0  0
   52.6821   32.3494   62.1491 C   0  0  0  0  0  0  0  0  0  0  0  0
   51.3947   32.9325   62.4174 O   0  0  0  0  0  0  0  0  0  0  0  0
  1  2  1  1  0  0  0
  1  3  1  0  0  0  0
  1  4  2  0  0  0  0
  1 16  1  0  0  0  0
  5  6  1  6  0  0  0
  5  7  1  0  0  0  0
  5 14  1  0  0  0  0
  7  8  1  1  0  0  0
  7  9  1  0  0  0  0
  9 10  1  6  0  0  0
  9 11  1  0  0  0  0
 11 12  1  6  0  0  0
 11 13  1  0  0  0  0
 13 14  1  0  0  0  0
 13 15  1  6  0  0  0
 15 16  1  0  0  0  0
M  CHG  1   3  -1
M  END
>  <CHROM.1>
-167.62440830,-177.44224431,169.26077336,53.19432547,32.42364197,63.04667843
2.52833238,-0.00745591,-1.46825303

>  <Name>
ligand

>  <RI>
0

>  <Rbt.Current_Directory>
/home/itssahil/PROJECTS/Mol_Feturizer/New_Systems/rnas/3B4A

>  <Rbt.Executable>
rbdock ($Id: //depot/dev/client3/rdock/2013.1/src/exe/rbdock.cxx#4 $)

>  <Rbt.Library>
libRbt.so (2013.1, Build901 2013/11/27)

>  <Rbt.Parameter_File>
/export/apps/rDock/src/rDock_2013.1_src/data/scripts/dock_solv.prm

>  <Rbt.Receptor>
prm/blind_docking_100.prm

>  <SCORE>
-13.9823

>  <SCORE.INTER>
-12.8906

>  <SCORE.INTER.CONST>
1

>  <SCORE.INTER.POLAR>
0

>  <SCORE.INTER.ROT>
3

>  <SCORE.INTER.SOLV>
25.5404

>  <SCORE.INTER.VDW>
-22.7072

>  <SCORE.INTER.norm>
-0.805662

>  <SCORE.INTRA>
-1.09172

>  <SCORE.INTRA.DIHEDRAL>
-1.30279

>  <SCORE.INTRA.DIHEDRAL.0>
2.05999

>  <SCORE.INTRA.POLAR>
0

>  <SCORE.INTRA.POLAR.0>
0

>  <SCORE.INTRA.REPUL>
0

>  <SCORE.INTRA.REPUL.0>
0

>  <SCORE.INTRA.SOLV>
-0.446114

>  <SCORE.INTRA.SOLV.lig_0>
-58.7001

>  <SCORE.INTRA.VDW>
-0.217272

>  <SCORE.INTRA.VDW.0>
-0.401036

>  <SCORE.INTRA.norm>
-0.0682327

>  <SCORE.RESTR>
0

>  <SCORE.RESTR.CAVITY>
0

>  <SCORE.RESTR.norm>
0

>  <SCORE.SYSTEM>
0

>  <SCORE.SYSTEM.CONST>
0

>  <SCORE.SYSTEM.DIHEDRAL>
0

>  <SCORE.SYSTEM.SOLV>
0

>  <SCORE.SYSTEM.norm>
0

>  <SCORE.heavy>
16

>  <SCORE.norm>
-0.873894

>  <RMSD>
12.111

$$$$
ligand
 OpenBabel11021811463D
libRbt.so/2013.1/901 2013/11/27
 16 16  0  0  0  0  0  0  0  0999 V2000
   50.6527   32.4431   61.0496 P   0  0  2  0  0  0  0  0  0  0  0  0
   50.5179   30.9656   61.0130 O   0  0  0  0  0  0  0  0  0  0  0  0
   49.1953   33.1041   61.2506 O   0  5  0  0  0  0  0  0  0  0  0  0
   51.2992   32.9425   59.6532 O   0  0  0  0  0  0  0  0  0  0  0  0
   54.2167   31.9823   65.5835 C   0  0  2  0  0  0  0  0  0  0  0  0
   54.0555   33.3545   66.0093 O   0  0  0  0  0  0  0  0  0  0  0  0
   55.7114   31.6607   65.2928 C   0  0  2  0  0  0  0  0  0  0  0  0
   56.5150   31.9144   66.5029 N   0  0  0  0  0  0  0  0  0  0  0  0
   56.1961   32.5630   64.1368 C   0  0  1  0  0  0  0  0  0  0  0  0
   57.5748   32.2828   63.8412 O   0  0  0  0  0  0  0  0  0  0  0  0
   55.3203   32.2521   62.9052 C   0  0  2  0  0  0  0  0  0  0  0  0
   55.7391   33.0816   61.8081 O   0  0  0  0  0  0  0  0  0  0  0  0
   53.8366   32.5658   63.2697 C   0  0  2  0  0  0  0  0  0  0  0  0
   53.3999   31.7440   64.3930 O   0  0  0  0  0  0  0  0  0  0  0  0
   52.9037   32.2583   62.0871 C   0  0  0  0  0  0  0  0  0  0  0  0
   51.6095   32.8522   62.2914 O   0  0  0  0  0  0  0  0  0  0  0  0
  1  2  1  6  0  0  0
  1  3  1  0  0  0  0
  1  4  2  0  0  0  0
  1 16  1  0  0  0  0
  5  6  1  6  0  0  0
  5  7  1  0  0  0  0
  5 14  1  0  0  0  0
  7  8  1  1  0  0  0
  7  9  1  0  0  0  0
  9 10  1  6  0  0  0
  9 11  1  0  0  0  0
 11 12  1  6  0  0  0
 11 13  1  0  0  0  0
 13 14  1  0  0  0  0
 13 15  1  6  0  0  0
 15 16  1  0  0  0  0
M  CHG  1   3  -1
M  END
>  <CHROM.1>
-165.46976307,-177.58349740,60.92120833,53.39383654,32.39157248,62.98638742
2.50747593,-0.02298929,-1.49424902

>  <Name>
ligand

>  <RI>
0

>  <Rbt.Current_Directory>
/home/itssahil/PROJECTS/Mol_Feturizer/New_Systems/rnas/3B4A

>  <Rbt.Executable>
rbdock ($Id: //depot/dev/client3/rdock/2013.1/src/exe/rbdock.cxx#4 $)

>  <Rbt.Library>
libRbt.so (2013.1, Build901 2013/11/27)

>  <Rbt.Parameter_File>
/export/apps/rDock/src/rDock_2013.1_src/data/scripts/dock_solv.prm

>  <Rbt.Receptor>
prm/blind_docking_100.prm

>  <SCORE>
-15.1819

>  <SCORE.INTER>
-13.8566

>  <SCORE.INTER.CONST>
1

>  <SCORE.INTER.POLAR>
0

>  <SCORE.INTER.ROT>
3

>  <SCORE.INTER.SOLV>
23.236

>  <SCORE.INTER.VDW>
-22.5831

>  <SCORE.INTER.norm>
-0.866039

>  <SCORE.INTRA>
-1.32528

>  <SCORE.INTRA.DIHEDRAL>
-1.2961

>  <SCORE.INTRA.DIHEDRAL.0>
2.05999

>  <SCORE.INTRA.POLAR>
0

>  <SCORE.INTRA.POLAR.0>
0

>  <SCORE.INTRA.REPUL>
0

>  <SCORE.INTRA.REPUL.0>
0

>  <SCORE.INTRA.SOLV>
-1.10042

>  <SCORE.INTRA.SOLV.lig_0>
-58.7001

>  <SCORE.INTRA.VDW>
-0.127022

>  <SCORE.INTRA.VDW.0>
-0.401036

>  <SCORE.INTRA.norm>
-0.0828301

>  <SCORE.RESTR>
0

>  <SCORE.RESTR.CAVITY>
0

>  <SCORE.RESTR.norm>
0

>  <SCORE.SYSTEM>
0

>  <SCORE.SYSTEM.CONST>
0

>  <SCORE.SYSTEM.DIHEDRAL>
0

>  <SCORE.SYSTEM.SOLV>
0

>  <SCORE.SYSTEM.norm>
0

>  <SCORE.heavy>
16

>  <SCORE.norm>
-0.948869

>  <RMSD>
12.138

$$$$
ligand
 OpenBabel11021811463D
libRbt.so/2013.1/901 2013/11/27
 16 16  0  0  0  0  0  0  0  0999 V2000
   50.6613   32.4212   61.0602 P   0  0  2  0  0  0  0  0  0  0  0  0
   50.4941   30.9474   61.0083 O   0  0  0  0  0  0  0  0  0  0  0  0
   49.2159   33.1130   61.2425 O   0  5  0  0  0  0  0  0  0  0  0  0
   51.3425   32.9176   59.6793 O   0  0  0  0  0  0  0  0  0  0  0  0
   54.1973   31.8534   65.5880 C   0  0  2  0  0  0  0  0  0  0  0  0
   54.0260   33.2085   66.0619 O   0  0  0  0  0  0  0  0  0  0  0  0
   55.6961   31.5487   65.3002 C   0  0  2  0  0  0  0  0  0  0  0  0
   56.4869   31.7612   66.5264 N   0  0  0  0  0  0  0  0  0  0  0  0
   56.1878   32.4944   64.1825 C   0  0  1  0  0  0  0  0  0  0  0  0
   57.5704   32.2307   63.8903 O   0  0  0  0  0  0  0  0  0  0  0  0
   55.3251   32.2251   62.9321 C   0  0  2  0  0  0  0  0  0  0  0  0
   55.7507   33.0958   61.8700 O   0  0  0  0  0  0  0  0  0  0  0  0
   53.8366   32.5194   63.2934 C   0  0  2  0  0  0  0  0  0  0  0  0
   53.3928   31.6554   64.3817 O   0  0  0  0  0  0  0  0  0  0  0  0
   52.9164   32.2515   62.0913 C   0  0  0  0  0  0  0  0  0  0  0  0
   51.6058   32.7982   62.3214 O   0  0  0  0  0  0  0  0  0  0  0  0
  1  2  1  6  0  0  0
  1  3  1  0  0  0  0
  1  4  2  0  0  0  0
  1 16  1  0  0  0  0
  5  6  1  6  0  0  0
  5  7  1  0  0  0  0
  5 14  1  0  0  0  0
  7  8  1  1  0  0  0
  7  9  1  0  0  0  0
  9 10  1  6  0  0  0
  9 11  1  0  0  0  0
 11 12  1  6  0  0  0
 11 13  1  0  0  0  0
 13 14  1  0  0  0  0
 13 15  1  6  0  0  0
 15 16  1  0  0  0  0
M  CHG  1   3  -1
M  END
>  <CHROM.1>
-167.17009353,-177.13226769,64.69156158,53.39252096,32.33733035,63.00722612
2.50328195,-0.03322896,-1.46171231

>  <Name>
ligand

>  <RI>
0

>  <Rbt.Current_Directory>
/home/itssahil/PROJECTS/Mol_Feturizer/New_Systems/rnas/3B4A

>  <Rbt.Executable>
rbdock ($Id: //depot/dev/client3/rdock/2013.1/src/exe/rbdock.cxx#4 $)

>  <Rbt.Library>
libRbt.so (2013.1, Build901 2013/11/27)

>  <Rbt.Parameter_File>
/export/apps/rDock/src/rDock_2013.1_src/data/scripts/dock_solv.prm

>  <Rbt.Receptor>
prm/blind_docking_100.prm

>  <SCORE>
-15.2787

>  <SCORE.INTER>
-13.909

>  <SCORE.INTER.CONST>
1

>  <SCORE.INTER.POLAR>
0

>  <SCORE.INTER.ROT>
3

>  <SCORE.INTER.SOLV>
22.6653

>  <SCORE.INTER.VDW>
-22.4278

>  <SCORE.INTER.norm>
-0.86931

>  <SCORE.INTRA>
-1.36976

>  <SCORE.INTRA.DIHEDRAL>
-1.40417

>  <SCORE.INTRA.DIHEDRAL.0>
2.05999

>  <SCORE.INTRA.POLAR>
0

>  <SCORE.INTRA.POLAR.0>
0

>  <SCORE.INTRA.REPUL>
0

>  <SCORE.INTRA.REPUL.0>
0

>  <SCORE.INTRA.SOLV>
-1.05656

>  <SCORE.INTRA.SOLV.lig_0>
-58.7001

>  <SCORE.INTRA.VDW>
-0.139397

>  <SCORE.INTRA.VDW.0>
-0.401036

>  <SCORE.INTRA.norm>
-0.0856102

>  <SCORE.RESTR>
0

>  <SCORE.RESTR.CAVITY>
0

>  <SCORE.RESTR.norm>
0

>  <SCORE.SYSTEM>
0

>  <SCORE.SYSTEM.CONST>
0

>  <SCORE.SYSTEM.DIHEDRAL>
0

>  <SCORE.SYSTEM.SOLV>
0

>  <SCORE.SYSTEM.norm>
0

>  <SCORE.heavy>
16

>  <SCORE.norm>
-0.95492

>  <RMSD>
12.158

$$$$
ligand
 OpenBabel11021811463D
libRbt.so/2013.1/901 2013/11/27
 16 16  0  0  0  0  0  0  0  0999 V2000
   50.6204   32.5447   61.1011 P   0  0  2  0  0  0  0  0  0  0  0  0
   49.2742   33.1233   61.3369 O   0  0  0  0  0  0  0  0  0  0  0  0
   51.2433   33.1811   59.7565 O   0  5  0  0  0  0  0  0  0  0  0  0
   50.4778   30.9413   60.9403 O   0  0  0  0  0  0  0  0  0  0  0  0
   54.1513   31.9398   65.6266 C   0  0  2  0  0  0  0  0  0  0  0  0
   54.0168   33.3040   66.0858 O   0  0  0  0  0  0  0  0  0  0  0  0
   55.6409   31.5924   65.3394 C   0  0  2  0  0  0  0  0  0  0  0  0
   56.4398   31.7975   66.5617 N   0  0  0  0  0  0  0  0  0  0  0  0
   56.1550   32.5125   64.2104 C   0  0  1  0  0  0  0  0  0  0  0  0
   57.5295   32.2092   63.9185 O   0  0  0  0  0  0  0  0  0  0  0  0
   55.2827   32.2523   62.9646 C   0  0  2  0  0  0  0  0  0  0  0  0
   55.7289   33.0996   61.8922 O   0  0  0  0  0  0  0  0  0  0  0  0
   53.8033   32.5897   63.3255 C   0  0  2  0  0  0  0  0  0  0  0  0
   53.3393   31.7497   64.4241 O   0  0  0  0  0  0  0  0  0  0  0  0
   52.8737   32.3329   62.1282 C   0  0  0  0  0  0  0  0  0  0  0  0
   51.5733   32.9017   62.3619 O   0  0  0  0  0  0  0  0  0  0  0  0
  1  2  1  1  0  0  0
  1  3  1  0  0  0  0
  1  4  2  0  0  0  0
  1 16  1  0  0  0  0
  5  6  1  6  0  0  0
  5  7  1  0  0  0  0
  5 14  1  0  0  0  0
  7  8  1  1  0  0  0
  7  9  1  0  0  0  0
  9 10  1  6  0  0  0
  9 11  1  0  0  0  0
 11 12  1  6  0  0  0
 11 13  1  0  0  0  0
 13 14  1  0  0  0  0
 13 15  1  6  0  0  0
 15 16  1  0  0  0  0
M  CHG  1   3  -1
M  END
>  <CHROM.1>
-167.90205646,-177.51873074,179.76146853,53.35801741,32.40621931,63.04160088
2.50032562,-0.01902940,-1.46575455

>  <Name>
ligand

>  <RI>
0

>  <Rbt.Current_Directory>
/home/itssahil/PROJECTS/Mol_Feturizer/New_Systems/rnas/3B4A

>  <Rbt.Executable>
rbdock ($Id: //depot/dev/client3/rdock/2013.1/src/exe/rbdock.cxx#4 $)

>  <Rbt.Library>
libRbt.so (2013.1, Build901 2013/11/27)

>  <Rbt.Parameter_File>
/export/apps/rDock/src/rDock_2013.1_src/data/scripts/dock_solv.prm

>  <Rbt.Receptor>
prm/blind_docking_100.prm

>  <SCORE>
-13.8492

>  <SCORE.INTER>
-12.5985

>  <SCORE.INTER.CONST>
1

>  <SCORE.INTER.POLAR>
0

>  <SCORE.INTER.ROT>
3

>  <SCORE.INTER.SOLV>
24.7366

>  <SCORE.INTER.VDW>
-22.2445

>  <SCORE.INTER.norm>
-0.787406

>  <SCORE.INTRA>
-1.25068

>  <SCORE.INTRA.DIHEDRAL>
-1.51197

>  <SCORE.INTRA.DIHEDRAL.0>
2.05999

>  <SCORE.INTRA.POLAR>
0

>  <SCORE.INTRA.POLAR.0>
0

>  <SCORE.INTRA.REPUL>
0

>  <SCORE.INTRA.REPUL.0>
0

>  <SCORE.INTRA.SOLV>
-0.436056

>  <SCORE.INTRA.SOLV.lig_0>
-58.7001

>  <SCORE.INTRA.VDW>
-0.27666

>  <SCORE.INTRA.VDW.0>
-0.401036

>  <SCORE.INTRA.norm>
-0.0781672

>  <SCORE.RESTR>
0

>  <SCORE.RESTR.CAVITY>
0

>  <SCORE.RESTR.norm>
0

>  <SCORE.SYSTEM>
0

>  <SCORE.SYSTEM.CONST>
0

>  <SCORE.SYSTEM.DIHEDRAL>
0

>  <SCORE.SYSTEM.SOLV>
0

>  <SCORE.SYSTEM.norm>
0

>  <SCORE.heavy>
16

>  <SCORE.norm>
-0.865573

>  <RMSD>
12.173

$$$$
ligand
 OpenBabel11021811463D
libRbt.so/2013.1/901 2013/11/27
 16 16  0  0  0  0  0  0  0  0999 V2000
   50.3438   21.9349   46.5640 P   0  0  2  0  0  0  0  0  0  0  0  0
   49.3388   22.6363   45.7269 O   0  0  0  0  0  0  0  0  0  0  0  0
   51.0910   20.8182   45.6720 O   0  5  0  0  0  0  0  0  0  0  0  0
   49.5864   21.2329   47.8093 O   0  0  0  0  0  0  0  0  0  0  0  0
   52.9307   26.9202   47.3918 C   0  0  2  0  0  0  0  0  0  0  0  0
   54.1812   26.4184   47.9158 O   0  0  0  0  0  0  0  0  0  0  0  0
   52.2803   27.9345   48.3768 C   0  0  2  0  0  0  0  0  0  0  0  0
   53.2121   29.0507   48.6221 N   0  0  0  0  0  0  0  0  0  0  0  0
   51.9665   27.2059   49.7020 C   0  0  1  0  0  0  0  0  0  0  0  0
   51.3576   28.1185   50.6310 O   0  0  0  0  0  0  0  0  0  0  0  0
   50.9917   26.0541   49.3803 C   0  0  2  0  0  0  0  0  0  0  0  0
   50.6823   25.3466   50.5931 O   0  0  0  0  0  0  0  0  0  0  0  0
   51.6890   25.0924   48.3696 C   0  0  2  0  0  0  0  0  0  0  0  0
   52.0253   25.7988   47.1384 O   0  0  0  0  0  0  0  0  0  0  0  0
   50.7606   23.9272   47.9903 C   0  0  0  0  0  0  0  0  0  0  0  0
   51.4264   23.0147   47.0995 O   0  0  0  0  0  0  0  0  0  0  0  0
  1  2  1  6  0  0  0
  1  3  1  0  0  0  0
  1  4  2  0  0  0  0
  1 16  1  0  0  0  0
  5  6  1  1  0  0  0
  5  7  1  0  0  0  0
  5 14  1  0  0  0  0
  7  8  1  1  0  0  0
  7  9  1  0  0  0  0
  9 10  1  1  0  0  0
  9 11  1  0  0  0  0
 11 12  1  1  0  0  0
 11 13  1  0  0  0  0
 13 14  1  0  0  0  0
 13 15  1  6  0  0  0
 15 16  1  0  0  0  0
M  CHG  1   3  -1
M  END
>  <CHROM.1>
-177.72357898,-171.80979544,65.84922654,51.38704606,24.79274964,47.93415786
-2.03199531,0.79646413,0.75720450

>  <Name>
ligand

>  <RI>
0

>  <Rbt.Current_Directory>
/home/itssahil/PROJECTS/Mol_Feturizer/New_Systems/rnas/3B4A

>  <Rbt.Executable>
rbdock ($Id: //depot/dev/client3/rdock/2013.1/src/exe/rbdock.cxx#4 $)

>  <Rbt.Library>
libRbt.so (2013.1, Build901 2013/11/27)

>  <Rbt.Parameter_File>
/export/apps/rDock/src/rDock_2013.1_src/data/scripts/dock_solv.prm

>  <Rbt.Receptor>
prm/blind_docking_100.prm

>  <SCORE>
-8.69471

>  <SCORE.INTER>
-7.23574

>  <SCORE.INTER.CONST>
1

>  <SCORE.INTER.POLAR>
0

>  <SCORE.INTER.ROT>
3

>  <SCORE.INTER.SOLV>
8.7199

>  <SCORE.INTER.VDW>
-13.3305

>  <SCORE.INTER.norm>
-0.452234

>  <SCORE.INTRA>
-1.45898

>  <SCORE.INTRA.DIHEDRAL>
-1.65618

>  <SCORE.INTRA.DIHEDRAL.0>
2.05999

>  <SCORE.INTRA.POLAR>
0

>  <SCORE.INTRA.POLAR.0>
0

>  <SCORE.INTRA.REPUL>
0

>  <SCORE.INTRA.REPUL.0>
0

>  <SCORE.INTRA.SOLV>
-0.998847

>  <SCORE.INTRA.SOLV.lig_0>
-58.7001

>  <SCORE.INTRA.VDW>
-0.131464

>  <SCORE.INTRA.VDW.0>
-0.401036

>  <SCORE.INTRA.norm>
-0.091186

>  <SCORE.RESTR>
0

>  <SCORE.RESTR.CAVITY>
0

>  <SCORE.RESTR.norm>
0

>  <SCORE.SYSTEM>
0

>  <SCORE.SYSTEM.CONST>
0

>  <SCORE.SYSTEM.DIHEDRAL>
0

>  <SCORE.SYSTEM.SOLV>
0

>  <SCORE.SYSTEM.norm>
0

>  <SCORE.heavy>
16

>  <SCORE.norm>
-0.54342

>  <RMSD>
12.328

$$$$
ligand
 OpenBabel11021811463D
libRbt.so/2013.1/901 2013/11/27
 16 16  0  0  0  0  0  0  0  0999 V2000
   51.1068   32.6997   60.9473 P   0  0  2  0  0  0  0  0  0  0  0  0
   49.9798   33.6508   60.7808 O   0  0  0  0  0  0  0  0  0  0  0  0
   52.1188   32.8527   59.7009 O   0  5  0  0  0  0  0  0  0  0  0  0
   50.5156   31.1946   60.9988 O   0  0  0  0  0  0  0  0  0  0  0  0
   53.7332   32.2179   66.0746 C   0  0  2  0  0  0  0  0  0  0  0  0
   53.8057   33.6414   66.3169 O   0  0  0  0  0  0  0  0  0  0  0  0
   55.1503   31.5751   66.0998 C   0  0  2  0  0  0  0  0  0  0  0  0
   55.7873   31.8361   67.4038 N   0  0  0  0  0  0  0  0  0  0  0  0
   55.9950   32.1943   64.9646 C   0  0  1  0  0  0  0  0  0  0  0  0
   57.3100   31.6135   64.9593 O   0  0  0  0  0  0  0  0  0  0  0  0
   55.2794   31.8888   63.6324 C   0  0  2  0  0  0  0  0  0  0  0  0
   56.0356   32.4584   62.5503 O   0  0  0  0  0  0  0  0  0  0  0  0
   53.8595   32.5322   63.6822 C   0  0  2  0  0  0  0  0  0  0  0  0
   53.0836   31.9771   64.7857 O   0  0  0  0  0  0  0  0  0  0  0  0
   53.0819   32.2478   62.3867 C   0  0  0  0  0  0  0  0  0  0  0  0
   51.8866   33.0458   62.3246 O   0  0  0  0  0  0  0  0  0  0  0  0
  1  2  1  6  0  0  0
  1  3  1  0  0  0  0
  1  4  2  0  0  0  0
  1 16  1  0  0  0  0
  5  6  1  6  0  0  0
  5  7  1  0  0  0  0
  5 14  1  0  0  0  0
  7  8  1  1  0  0  0
  7  9  1  0  0  0  0
  9 10  1  6  0  0  0
  9 11  1  0  0  0  0
 11 12  1  6  0  0  0
 11 13  1  0  0  0  0
 13 14  1  0  0  0  0
 13 15  1  6  0  0  0
 15 16  1  0  0  0  0
M  CHG  1   3  -1
M  END
>  <CHROM.1>
-168.99061849,-179.70347078,-172.04426652,53.43918867,32.39317078,63.34610632
2.32792815,0.16641341,-1.60262994

>  <Name>
ligand

>  <RI>
0

>  <Rbt.Current_Directory>
/home/itssahil/PROJECTS/Mol_Feturizer/New_Systems/rnas/3B4A

>  <Rbt.Executable>
rbdock ($Id: //depot/dev/client3/rdock/2013.1/src/exe/rbdock.cxx#4 $)

>  <Rbt.Library>
libRbt.so (2013.1, Build901 2013/11/27)

>  <Rbt.Parameter_File>
/export/apps/rDock/src/rDock_2013.1_src/data/scripts/dock_solv.prm

>  <Rbt.Receptor>
prm/blind_docking_100.prm

>  <SCORE>
-13.3294

>  <SCORE.INTER>
-12.1225

>  <SCORE.INTER.CONST>
1

>  <SCORE.INTER.POLAR>
0

>  <SCORE.INTER.ROT>
3

>  <SCORE.INTER.SOLV>
20.366

>  <SCORE.INTER.VDW>
-20.4703

>  <SCORE.INTER.norm>
-0.757657

>  <SCORE.INTRA>
-1.20685

>  <SCORE.INTRA.DIHEDRAL>
-1.52491

>  <SCORE.INTRA.DIHEDRAL.0>
2.05999

>  <SCORE.INTRA.POLAR>
0

>  <SCORE.INTRA.POLAR.0>
0

>  <SCORE.INTRA.REPUL>
0

>  <SCORE.INTRA.REPUL.0>
0

>  <SCORE.INTRA.SOLV>
-0.447469

>  <SCORE.INTRA.SOLV.lig_0>
-58.7001

>  <SCORE.INTRA.VDW>
-0.22066

>  <SCORE.INTRA.VDW.0>
-0.401036

>  <SCORE.INTRA.norm>
-0.0754282

>  <SCORE.RESTR>
0

>  <SCORE.RESTR.CAVITY>
0

>  <SCORE.RESTR.norm>
0

>  <SCORE.SYSTEM>
0

>  <SCORE.SYSTEM.CONST>
0

>  <SCORE.SYSTEM.DIHEDRAL>
0

>  <SCORE.SYSTEM.SOLV>
0

>  <SCORE.SYSTEM.norm>
0

>  <SCORE.heavy>
16

>  <SCORE.norm>
-0.833085

>  <RMSD>
12.396

$$$$
ligand
 OpenBabel11021811463D
libRbt.so/2013.1/901 2013/11/27
 16 16  0  0  0  0  0  0  0  0999 V2000
   50.2947   21.8555   46.5327 P   0  0  2  0  0  0  0  0  0  0  0  0
   49.4052   22.6448   45.6448 O   0  0  0  0  0  0  0  0  0  0  0  0
   51.0341   20.7148   45.6649 O   0  5  0  0  0  0  0  0  0  0  0  0
   49.3994   21.1737   47.6949 O   0  0  0  0  0  0  0  0  0  0  0  0
   53.1580   26.6307   47.5010 C   0  0  2  0  0  0  0  0  0  0  0  0
   54.3061   26.0698   48.1775 O   0  0  0  0  0  0  0  0  0  0  0  0
   52.4847   27.7344   48.3672 C   0  0  2  0  0  0  0  0  0  0  0  0
   53.4655   28.7941   48.6656 N   0  0  0  0  0  0  0  0  0  0  0  0
   51.9804   27.0949   49.6795 C   0  0  1  0  0  0  0  0  0  0  0  0
   51.3465   28.0917   50.4987 O   0  0  0  0  0  0  0  0  0  0  0  0
   50.9623   25.9989   49.3019 C   0  0  2  0  0  0  0  0  0  0  0  0
   50.4757   25.3746   50.5021 O   0  0  0  0  0  0  0  0  0  0  0  0
   51.6888   24.9430   48.4131 C   0  0  2  0  0  0  0  0  0  0  0  0
   52.2039   25.5635   47.1975 O   0  0  0  0  0  0  0  0  0  0  0  0
   50.7217   23.8276   47.9838 C   0  0  0  0  0  0  0  0  0  0  0  0
   51.4009   22.8454   47.1818 O   0  0  0  0  0  0  0  0  0  0  0  0
  1  2  1  6  0  0  0
  1  3  1  0  0  0  0
  1  4  2  0  0  0  0
  1 16  1  0  0  0  0
  5  6  1  1  0  0  0
  5  7  1  0  0  0  0
  5 14  1  0  0  0  0
  7  8  1  1  0  0  0
  7  9  1  0  0  0  0
  9 10  1  1  0  0  0
  9 11  1  0  0  0  0
 11 12  1  1  0  0  0
 11 13  1  0  0  0  0
 13 14  1  0  0  0  0
 13 15  1  6  0  0  0
 15 16  1  0  0  0  0
M  CHG  1   3  -1
M  END
>  <CHROM.1>
-179.10515055,-169.57038432,62.39635281,51.40696452,24.66411377,47.93303169
-2.01152126,0.66723677,0.71315740

>  <Name>
ligand

>  <RI>
0

>  <Rbt.Current_Directory>
/home/itssahil/PROJECTS/Mol_Feturizer/New_Systems/rnas/3B4A

>  <Rbt.Executable>
rbdock ($Id: //depot/dev/client3/rdock/2013.1/src/exe/rbdock.cxx#4 $)

>  <Rbt.Library>
libRbt.so (2013.1, Build901 2013/11/27)

>  <Rbt.Parameter_File>
/export/apps/rDock/src/rDock_2013.1_src/data/scripts/dock_solv.prm

>  <Rbt.Receptor>
prm/blind_docking_100.prm

>  <SCORE>
-8.60972

>  <SCORE.INTER>
-7.20999

>  <SCORE.INTER.CONST>
1

>  <SCORE.INTER.POLAR>
0

>  <SCORE.INTER.ROT>
3

>  <SCORE.INTER.SOLV>
8.36155

>  <SCORE.INTER.VDW>
-13.1938

>  <SCORE.INTER.norm>
-0.450624

>  <SCORE.INTRA>
-1.39973

>  <SCORE.INTRA.DIHEDRAL>
-1.5213

>  <SCORE.INTRA.DIHEDRAL.0>
2.05999

>  <SCORE.INTRA.POLAR>
0

>  <SCORE.INTRA.POLAR.0>
0

>  <SCORE.INTRA.REPUL>
0

>  <SCORE.INTRA.REPUL.0>
0

>  <SCORE.INTRA.SOLV>
-1.02215

>  <SCORE.INTRA.SOLV.lig_0>
-58.7001

>  <SCORE.INTRA.VDW>
-0.127999

>  <SCORE.INTRA.VDW.0>
-0.401036

>  <SCORE.INTRA.norm>
-0.0874828

>  <SCORE.RESTR>
0

>  <SCORE.RESTR.CAVITY>
0

>  <SCORE.RESTR.norm>
0

>  <SCORE.SYSTEM>
0

>  <SCORE.SYSTEM.CONST>
0

>  <SCORE.SYSTEM.DIHEDRAL>
0

>  <SCORE.SYSTEM.SOLV>
0

>  <SCORE.SYSTEM.norm>
0

>  <SCORE.heavy>
16

>  <SCORE.norm>
-0.538107

>  <RMSD>
12.434

$$$$
ligand
 OpenBabel11021811463D
libRbt.so/2013.1/901 2013/11/27
 16 16  0  0  0  0  0  0  0  0999 V2000
   51.8977   32.3165   60.8477 P   0  0  2  0  0  0  0  0  0  0  0  0
   50.7897   31.4014   61.2183 O   0  0  0  0  0  0  0  0  0  0  0  0
   51.4490   33.8381   61.1382 O   0  5  0  0  0  0  0  0  0  0  0  0
   52.2265   32.1271   59.2750 O   0  0  0  0  0  0  0  0  0  0  0  0
   56.4250   32.0318   64.4742 C   0  0  2  0  0  0  0  0  0  0  0  0
   56.6133   30.6117   64.2793 O   0  0  0  0  0  0  0  0  0  0  0  0
   56.1598   32.3587   65.9725 C   0  0  2  0  0  0  0  0  0  0  0  0
   57.2902   31.8799   66.7893 N   0  0  0  0  0  0  0  0  0  0  0  0
   54.8558   31.6557   66.4093 C   0  0  1  0  0  0  0  0  0  0  0  0
   54.5814   31.9457   67.7903 O   0  0  0  0  0  0  0  0  0  0  0  0
   53.7158   32.1964   65.5215 C   0  0  2  0  0  0  0  0  0  0  0  0
   52.4837   31.5567   65.8957 O   0  0  0  0  0  0  0  0  0  0  0  0
   54.0547   31.8644   64.0357 C   0  0  2  0  0  0  0  0  0  0  0  0
   55.3116   32.4926   63.6439 O   0  0  0  0  0  0  0  0  0  0  0  0
   52.9634   32.3950   63.0916 C   0  0  0  0  0  0  0  0  0  0  0  0
   53.1989   31.9547   61.7426 O   0  0  0  0  0  0  0  0  0  0  0  0
  1  2  1  1  0  0  0
  1  3  1  0  0  0  0
  1  4  2  0  0  0  0
  1 16  1  0  0  0  0
  5  6  1  1  0  0  0
  5  7  1  0  0  0  0
  5 14  1  0  0  0  0
  7  8  1  1  0  0  0
  7  9  1  0  0  0  0
  9 10  1  1  0  0  0
  9 11  1  0  0  0  0
 11 12  1  1  0  0  0
 11 13  1  0  0  0  0
 13 14  1  0  0  0  0
 13 15  1  6  0  0  0
 15 16  1  0  0  0  0
M  CHG  1   3  -1
M  END
>  <CHROM.1>
-173.34776284,170.19659690,-72.42792498,53.79666668,32.05514558,63.60297653
-2.18995150,-0.09493750,1.60164332

>  <Name>
ligand

>  <RI>
0

>  <Rbt.Current_Directory>
/home/itssahil/PROJECTS/Mol_Feturizer/New_Systems/rnas/3B4A

>  <Rbt.Executable>
rbdock ($Id: //depot/dev/client3/rdock/2013.1/src/exe/rbdock.cxx#4 $)

>  <Rbt.Library>
libRbt.so (2013.1, Build901 2013/11/27)

>  <Rbt.Parameter_File>
/export/apps/rDock/src/rDock_2013.1_src/data/scripts/dock_solv.prm

>  <Rbt.Receptor>
prm/blind_docking_100.prm

>  <SCORE>
-11.4075

>  <SCORE.INTER>
-10.291

>  <SCORE.INTER.CONST>
1

>  <SCORE.INTER.POLAR>
0

>  <SCORE.INTER.ROT>
3

>  <SCORE.INTER.SOLV>
18.5712

>  <SCORE.INTER.VDW>
-18.6511

>  <SCORE.INTER.norm>
-0.643188

>  <SCORE.INTRA>
-1.11645

>  <SCORE.INTRA.DIHEDRAL>
-1.18848

>  <SCORE.INTRA.DIHEDRAL.0>
2.05999

>  <SCORE.INTRA.POLAR>
0

>  <SCORE.INTRA.POLAR.0>
0

>  <SCORE.INTRA.REPUL>
0

>  <SCORE.INTRA.REPUL.0>
0

>  <SCORE.INTRA.SOLV>
-1.0133

>  <SCORE.INTRA.SOLV.lig_0>
-58.7001

>  <SCORE.INTRA.VDW>
-0.0155654

>  <SCORE.INTRA.VDW.0>
-0.401036

>  <SCORE.INTRA.norm>
-0.0697783

>  <SCORE.RESTR>
0

>  <SCORE.RESTR.CAVITY>
0

>  <SCORE.RESTR.norm>
0

>  <SCORE.SYSTEM>
0

>  <SCORE.SYSTEM.CONST>
0

>  <SCORE.SYSTEM.DIHEDRAL>
0

>  <SCORE.SYSTEM.SOLV>
0

>  <SCORE.SYSTEM.norm>
0

>  <SCORE.heavy>
16

>  <SCORE.norm>
-0.712966

>  <RMSD>
12.818

$$$$
ligand
 OpenBabel11021811463D
libRbt.so/2013.1/901 2013/11/27
 16 16  0  0  0  0  0  0  0  0999 V2000
   51.7302   32.0956   61.3080 P   0  0  2  0  0  0  0  0  0  0  0  0
   50.5640   31.2231   61.0229 O   0  0  0  0  0  0  0  0  0  0  0  0
   51.2057   33.5298   61.8266 O   0  5  0  0  0  0  0  0  0  0  0  0
   52.5889   32.2786   59.9491 O   0  0  0  0  0  0  0  0  0  0  0  0
   57.0086   31.5542   64.5391 C   0  0  2  0  0  0  0  0  0  0  0  0
   57.0737   30.1105   64.4986 O   0  0  0  0  0  0  0  0  0  0  0  0
   56.5262   32.0517   65.9326 C   0  0  2  0  0  0  0  0  0  0  0  0
   57.4409   31.5554   66.9773 N   0  0  0  0  0  0  0  0  0  0  0  0
   55.0985   31.5178   66.1819 C   0  0  1  0  0  0  0  0  0  0  0  0
   54.6233   31.9679   67.4618 O   0  0  0  0  0  0  0  0  0  0  0  0
   54.1932   32.0693   65.0608 C   0  0  2  0  0  0  0  0  0  0  0  0
   52.8535   31.5853   65.2566 O   0  0  0  0  0  0  0  0  0  0  0  0
   54.7451   31.5612   63.6934 C   0  0  2  0  0  0  0  0  0  0  0  0
   56.1108   32.0297   63.4858 O   0  0  0  0  0  0  0  0  0  0  0  0
   53.8962   32.0925   62.5269 C   0  0  0  0  0  0  0  0  0  0  0  0
   52.6364   31.4015   62.4577 O   0  0  0  0  0  0  0  0  0  0  0  0
  1  2  1  6  0  0  0
  1  3  1  0  0  0  0
  1  4  2  0  0  0  0
  1 16  1  0  0  0  0
  5  6  1  1  0  0  0
  5  7  1  0  0  0  0
  5 14  1  0  0  0  0
  7  8  1  1  0  0  0
  7  9  1  0  0  0  0
  9 10  1  1  0  0  0
  9 11  1  0  0  0  0
 11 12  1  1  0  0  0
 11 13  1  0  0  0  0
 13 14  1  0  0  0  0
 13 15  1  6  0  0  0
 15 16  1  0  0  0  0
M  CHG  1   3  -1
M  END
>  <CHROM.1>
-74.21018660,174.59971872,167.82518562,54.02185688,31.80896520,63.64858225
-2.35684416,-0.18120322,1.52290945

>  <Name>
ligand

>  <RI>
0

>  <Rbt.Current_Directory>
/home/itssahil/PROJECTS/Mol_Feturizer/New_Systems/rnas/3B4A

>  <Rbt.Executable>
rbdock ($Id: //depot/dev/client3/rdock/2013.1/src/exe/rbdock.cxx#4 $)

>  <Rbt.Library>
libRbt.so (2013.1, Build901 2013/11/27)

>  <Rbt.Parameter_File>
/export/apps/rDock/src/rDock_2013.1_src/data/scripts/dock_solv.prm

>  <Rbt.Receptor>
prm/blind_docking_100.prm

>  <SCORE>
-13.8079

>  <SCORE.INTER>
-13.0153

>  <SCORE.INTER.CONST>
1

>  <SCORE.INTER.POLAR>
0

>  <SCORE.INTER.ROT>
3

>  <SCORE.INTER.SOLV>
16.7005

>  <SCORE.INTER.VDW>
-19.8437

>  <SCORE.INTER.norm>
-0.813454

>  <SCORE.INTRA>
-0.792638

>  <SCORE.INTRA.DIHEDRAL>
-0.986064

>  <SCORE.INTRA.DIHEDRAL.0>
2.05999

>  <SCORE.INTRA.POLAR>
0

>  <SCORE.INTRA.POLAR.0>
0

>  <SCORE.INTRA.REPUL>
0

>  <SCORE.INTRA.REPUL.0>
0

>  <SCORE.INTRA.SOLV>
0.0505507

>  <SCORE.INTRA.SOLV.lig_0>
-58.7001

>  <SCORE.INTRA.VDW>
-0.324881

>  <SCORE.INTRA.VDW.0>
-0.401036

>  <SCORE.INTRA.norm>
-0.0495398

>  <SCORE.RESTR>
0

>  <SCORE.RESTR.CAVITY>
0

>  <SCORE.RESTR.norm>
0

>  <SCORE.SYSTEM>
0

>  <SCORE.SYSTEM.CONST>
0

>  <SCORE.SYSTEM.DIHEDRAL>
0

>  <SCORE.SYSTEM.SOLV>
0

>  <SCORE.SYSTEM.norm>
0

>  <SCORE.heavy>
16

>  <SCORE.norm>
-0.862993

>  <RMSD>
12.988

$$$$
ligand
 OpenBabel11021811463D
libRbt.so/2013.1/901 2013/11/27
 16 16  0  0  0  0  0  0  0  0999 V2000
   51.8453   32.2040   61.3125 P   0  0  2  0  0  0  0  0  0  0  0  0
   51.5093   33.5633   61.8043 O   0  0  0  0  0  0  0  0  0  0  0  0
   52.7094   32.3289   59.9565 O   0  5  0  0  0  0  0  0  0  0  0  0
   50.4716   31.4005   61.0215 O   0  0  0  0  0  0  0  0  0  0  0  0
   57.0445   31.4378   64.6291 C   0  0  2  0  0  0  0  0  0  0  0  0
   57.0556   29.9921   64.6186 O   0  0  0  0  0  0  0  0  0  0  0  0
   56.5400   31.9817   65.9972 C   0  0  2  0  0  0  0  0  0  0  0  0
   57.4034   31.4730   67.0789 N   0  0  0  0  0  0  0  0  0  0  0  0
   55.0861   31.5072   66.2128 C   0  0  1  0  0  0  0  0  0  0  0  0
   54.5903   32.0011   67.4685 O   0  0  0  0  0  0  0  0  0  0  0  0
   54.2365   32.0691   65.0540 C   0  0  2  0  0  0  0  0  0  0  0  0
   52.8741   31.6400   65.2179 O   0  0  0  0  0  0  0  0  0  0  0  0
   54.8093   31.5125   63.7143 C   0  0  2  0  0  0  0  0  0  0  0  0
   56.1976   31.9249   63.5397 O   0  0  0  0  0  0  0  0  0  0  0  0
   54.0166   32.0512   62.5122 C   0  0  0  0  0  0  0  0  0  0  0  0
   52.7174   31.4377   62.4426 O   0  0  0  0  0  0  0  0  0  0  0  0
  1  2  1  1  0  0  0
  1  3  1  0  0  0  0
  1  4  2  0  0  0  0
  1 16  1  0  0  0  0
  5  6  1  1  0  0  0
  5  7  1  0  0  0  0
  5 14  1  0  0  0  0
  7  8  1  1  0  0  0
  7  9  1  0  0  0  0
  9 10  1  1  0  0  0
  9 11  1  0  0  0  0
 11 12  1  1  0  0  0
 11 13  1  0  0  0  0
 13 14  1  0  0  0  0
 13 15  1  6  0  0  0
 15 16  1  0  0  0  0
M  CHG  1   3  -1
M  END
>  <CHROM.1>
-72.38076190,171.12820996,-70.10280619,54.07786667,31.81298688,63.67128137
2.34386726,0.21118912,-1.61407842

>  <Name>
ligand

>  <RI>
0

>  <Rbt.Current_Directory>
/home/itssahil/PROJECTS/Mol_Feturizer/New_Systems/rnas/3B4A

>  <Rbt.Executable>
rbdock ($Id: //depot/dev/client3/rdock/2013.1/src/exe/rbdock.cxx#4 $)

>  <Rbt.Library>
libRbt.so (2013.1, Build901 2013/11/27)

>  <Rbt.Parameter_File>
/export/apps/rDock/src/rDock_2013.1_src/data/scripts/dock_solv.prm

>  <Rbt.Receptor>
prm/blind_docking_100.prm

>  <SCORE>
-12.7044

>  <SCORE.INTER>
-11.7531

>  <SCORE.INTER.CONST>
1

>  <SCORE.INTER.POLAR>
0

>  <SCORE.INTER.ROT>
3

>  <SCORE.INTER.SOLV>
18.9206

>  <SCORE.INTER.VDW>
-19.7423

>  <SCORE.INTER.norm>
-0.734571

>  <SCORE.INTRA>
-0.951315

>  <SCORE.INTRA.DIHEDRAL>
-0.980689

>  <SCORE.INTRA.DIHEDRAL.0>
2.05999

>  <SCORE.INTRA.POLAR>
0

>  <SCORE.INTRA.POLAR.0>
0

>  <SCORE.INTRA.REPUL>
0

>  <SCORE.INTRA.REPUL.0>
0

>  <SCORE.INTRA.SOLV>
-0.554232

>  <SCORE.INTRA.SOLV.lig_0>
-58.7001

>  <SCORE.INTRA.VDW>
-0.183854

>  <SCORE.INTRA.VDW.0>
-0.401036

>  <SCORE.INTRA.norm>
-0.0594572

>  <SCORE.RESTR>
0

>  <SCORE.RESTR.CAVITY>
0

>  <SCORE.RESTR.norm>
0

>  <SCORE.SYSTEM>
0

>  <SCORE.SYSTEM.CONST>
0

>  <SCORE.SYSTEM.DIHEDRAL>
0

>  <SCORE.SYSTEM.SOLV>
0

>  <SCORE.SYSTEM.norm>
0

>  <SCORE.heavy>
16

>  <SCORE.norm>
-0.794028

>  <RMSD>
13.016

$$$$
ligand
 OpenBabel11021811463D
libRbt.so/2013.1/901 2013/11/27
 16 16  0  0  0  0  0  0  0  0999 V2000
   51.7290   32.0980   61.3146 P   0  0  2  0  0  0  0  0  0  0  0  0
   52.4954   32.1297   60.0441 O   0  0  0  0  0  0  0  0  0  0  0  0
   50.3800   31.2408   61.0992 O   0  5  0  0  0  0  0  0  0  0  0  0
   51.3593   33.6148   61.7385 O   0  0  0  0  0  0  0  0  0  0  0  0
   57.0077   31.5784   64.5517 C   0  0  2  0  0  0  0  0  0  0  0  0
   57.0993   30.1367   64.4933 O   0  0  0  0  0  0  0  0  0  0  0  0
   56.5062   32.0491   65.9477 C   0  0  2  0  0  0  0  0  0  0  0  0
   57.4221   31.5561   66.9929 N   0  0  0  0  0  0  0  0  0  0  0  0
   55.0866   31.4863   66.1794 C   0  0  1  0  0  0  0  0  0  0  0  0
   54.5940   31.9113   67.4613 O   0  0  0  0  0  0  0  0  0  0  0  0
   54.1797   32.0357   65.0586 C   0  0  2  0  0  0  0  0  0  0  0  0
   52.8477   31.5251   65.2381 O   0  0  0  0  0  0  0  0  0  0  0  0
   54.7507   31.5553   63.6891 C   0  0  2  0  0  0  0  0  0  0  0  0
   56.1092   32.0510   63.4978 O   0  0  0  0  0  0  0  0  0  0  0  0
   53.9008   32.0861   62.5230 C   0  0  0  0  0  0  0  0  0  0  0  0
   52.6385   31.3992   62.4589 O   0  0  0  0  0  0  0  0  0  0  0  0
  1  2  1  6  0  0  0
  1  3  1  0  0  0  0
  1  4  2  0  0  0  0
  1 16  1  0  0  0  0
  5  6  1  1  0  0  0
  5  7  1  0  0  0  0
  5 14  1  0  0  0  0
  7  8  1  1  0  0  0
  7  9  1  0  0  0  0
  9 10  1  1  0  0  0
  9 11  1  0  0  0  0
 11 12  1  1  0  0  0
 11 13  1  0  0  0  0
 13 14  1  0  0  0  0
 13 15  1  6  0  0  0
 15 16  1  0  0  0  0
M  CHG  1   3  -1
M  END
>  <CHROM.1>
-72.57835966,174.31044572,53.91205973,54.01039179,31.79888086,63.65558933
-2.35981552,-0.16184736,1.53981710

>  <Name>
ligand

>  <RI>
0

>  <Rbt.Current_Directory>
/home/itssahil/PROJECTS/Mol_Feturizer/New_Systems/rnas/3B4A

>  <Rbt.Executable>
rbdock ($Id: //depot/dev/client3/rdock/2013.1/src/exe/rbdock.cxx#4 $)

>  <Rbt.Library>
libRbt.so (2013.1, Build901 2013/11/27)

>  <Rbt.Parameter_File>
/export/apps/rDock/src/rDock_2013.1_src/data/scripts/dock_solv.prm

>  <Rbt.Receptor>
prm/blind_docking_100.prm

>  <SCORE>
-12.0312

>  <SCORE.INTER>
-10.9324

>  <SCORE.INTER.CONST>
1

>  <SCORE.INTER.POLAR>
0

>  <SCORE.INTER.ROT>
3

>  <SCORE.INTER.SOLV>
21.0778

>  <SCORE.INTER.VDW>
-19.9142

>  <SCORE.INTER.norm>
-0.683275

>  <SCORE.INTRA>
-1.10017

>  <SCORE.INTRA.DIHEDRAL>
-1.29047

>  <SCORE.INTRA.DIHEDRAL.0>
2.05999

>  <SCORE.INTRA.POLAR>
0

>  <SCORE.INTRA.POLAR.0>
0

>  <SCORE.INTRA.REPUL>
0

>  <SCORE.INTRA.REPUL.0>
0

>  <SCORE.INTRA.SOLV>
-0.650887

>  <SCORE.INTRA.SOLV.lig_0>
-58.7001

>  <SCORE.INTRA.VDW>
-0.129492

>  <SCORE.INTRA.VDW.0>
-0.401036

>  <SCORE.INTRA.norm>
-0.0687606

>  <SCORE.RESTR>
0.0013211

>  <SCORE.RESTR.CAVITY>
0.0013211

>  <SCORE.RESTR.norm>
8.25688e-05

>  <SCORE.SYSTEM>
0

>  <SCORE.SYSTEM.CONST>
0

>  <SCORE.SYSTEM.DIHEDRAL>
0

>  <SCORE.SYSTEM.SOLV>
0

>  <SCORE.SYSTEM.norm>
0

>  <SCORE.heavy>
16

>  <SCORE.norm>
-0.751953

>  <RMSD>
13.019

$$$$
ligand
 OpenBabel11021811463D
libRbt.so/2013.1/901 2013/11/27
 16 16  0  0  0  0  0  0  0  0999 V2000
   34.0399   32.1888   48.3003 P   0  0  2  0  0  0  0  0  0  0  0  0
   34.6466   31.0294   47.6000 O   0  0  0  0  0  0  0  0  0  0  0  0
   32.7915   31.6800   49.1856 O   0  5  0  0  0  0  0  0  0  0  0  0
   33.5363   33.2592   47.1967 O   0  0  0  0  0  0  0  0  0  0  0  0
   38.2283   31.7755   52.8726 C   0  0  2  0  0  0  0  0  0  0  0  0
   37.8234   32.9210   53.6562 O   0  0  0  0  0  0  0  0  0  0  0  0
   39.4884   32.1009   52.0192 C   0  0  2  0  0  0  0  0  0  0  0  0
   40.5884   32.5240   52.9053 N   0  0  0  0  0  0  0  0  0  0  0  0
   39.1379   33.2355   51.0316 C   0  0  1  0  0  0  0  0  0  0  0  0
   40.2836   33.5535   50.2237 O   0  0  0  0  0  0  0  0  0  0  0  0
   37.9857   32.7338   50.1364 C   0  0  2  0  0  0  0  0  0  0  0  0
   37.6266   33.7699   49.2065 O   0  0  0  0  0  0  0  0  0  0  0  0
   36.7678   32.3978   51.0510 C   0  0  2  0  0  0  0  0  0  0  0  0
   37.1199   31.3590   52.0126 O   0  0  0  0  0  0  0  0  0  0  0  0
   35.5859   31.8717   50.2204 C   0  0  0  0  0  0  0  0  0  0  0  0
   35.1534   32.8590   49.2678 O   0  0  0  0  0  0  0  0  0  0  0  0
  1  2  1  6  0  0  0
  1  3  1  0  0  0  0
  1  4  2  0  0  0  0
  1 16  1  0  0  0  0
  5  6  1  6  0  0  0
  5  7  1  0  0  0  0
  5 14  1  0  0  0  0
  7  8  1  1  0  0  0
  7  9  1  0  0  0  0
  9 10  1  6  0  0  0
  9 11  1  0  0  0  0
 11 12  1  6  0  0  0
 11 13  1  0  0  0  0
 13 14  1  0  0  0  0
 13 15  1  6  0  0  0
 15 16  1  0  0  0  0
M  CHG  1   3  -1
M  END
>  <CHROM.1>
-60.67309395,172.91593894,-59.91167739,36.65281515,32.44223721,50.22728887
-2.58224308,0.31480661,1.91427704

>  <Name>
ligand

>  <RI>
0

>  <Rbt.Current_Directory>
/home/itssahil/PROJECTS/Mol_Feturizer/New_Systems/rnas/3B4A

>  <Rbt.Executable>
rbdock ($Id: //depot/dev/client3/rdock/2013.1/src/exe/rbdock.cxx#4 $)

>  <Rbt.Library>
libRbt.so (2013.1, Build901 2013/11/27)

>  <Rbt.Parameter_File>
/export/apps/rDock/src/rDock_2013.1_src/data/scripts/dock_solv.prm

>  <Rbt.Receptor>
prm/blind_docking_80.prm

>  <SCORE>
-8.23616

>  <SCORE.INTER>
-7.05589

>  <SCORE.INTER.CONST>
1

>  <SCORE.INTER.POLAR>
0

>  <SCORE.INTER.ROT>
3

>  <SCORE.INTER.SOLV>
10.8597

>  <SCORE.INTER.VDW>
-13.9238

>  <SCORE.INTER.norm>
-0.440993

>  <SCORE.INTRA>
-1.18027

>  <SCORE.INTRA.DIHEDRAL>
-1.81127

>  <SCORE.INTRA.DIHEDRAL.0>
2.05999

>  <SCORE.INTRA.POLAR>
0

>  <SCORE.INTRA.POLAR.0>
0

>  <SCORE.INTRA.REPUL>
0

>  <SCORE.INTRA.REPUL.0>
0

>  <SCORE.INTRA.SOLV>
-0.588081

>  <SCORE.INTRA.SOLV.lig_0>
-58.7001

>  <SCORE.INTRA.VDW>
0.0194113

>  <SCORE.INTRA.VDW.0>
-0.401036

>  <SCORE.INTRA.norm>
-0.0737666

>  <SCORE.RESTR>
0

>  <SCORE.RESTR.CAVITY>
0

>  <SCORE.RESTR.norm>
0

>  <SCORE.SYSTEM>
0

>  <SCORE.SYSTEM.CONST>
0

>  <SCORE.SYSTEM.DIHEDRAL>
0

>  <SCORE.SYSTEM.SOLV>
0

>  <SCORE.SYSTEM.norm>
0

>  <SCORE.heavy>
16

>  <SCORE.norm>
-0.51476

>  <RMSD>
13.113

$$$$
ligand
 OpenBabel11021811463D
libRbt.so/2013.1/901 2013/11/27
 16 16  0  0  0  0  0  0  0  0999 V2000
   34.0454   32.7603   48.0605 P   0  0  2  0  0  0  0  0  0  0  0  0
   34.4437   31.4614   47.4632 O   0  0  0  0  0  0  0  0  0  0  0  0
   32.7292   32.5458   48.9677 O   0  5  0  0  0  0  0  0  0  0  0  0
   33.7313   33.8079   46.8684 O   0  0  0  0  0  0  0  0  0  0  0  0
   38.0656   32.0552   52.7504 C   0  0  2  0  0  0  0  0  0  0  0  0
   37.7696   33.2771   53.4642 O   0  0  0  0  0  0  0  0  0  0  0  0
   39.3838   32.1916   51.9343 C   0  0  2  0  0  0  0  0  0  0  0  0
   40.4941   32.5298   52.8437 N   0  0  0  0  0  0  0  0  0  0  0  0
   39.2017   33.3082   50.8829 C   0  0  1  0  0  0  0  0  0  0  0  0
   40.4039   33.4526   50.1080 O   0  0  0  0  0  0  0  0  0  0  0  0
   38.0309   32.8976   49.9659 C   0  0  2  0  0  0  0  0  0  0  0  0
   37.8268   33.9203   48.9762 O   0  0  0  0  0  0  0  0  0  0  0  0
   36.7512   32.7490   50.8452 C   0  0  2  0  0  0  0  0  0  0  0  0
   36.9469   31.7259   51.8664 O   0  0  0  0  0  0  0  0  0  0  0  0
   35.5457   32.3207   49.9926 C   0  0  0  0  0  0  0  0  0  0  0  0
   35.2582   33.3067   48.9854 O   0  0  0  0  0  0  0  0  0  0  0  0
  1  2  1  6  0  0  0
  1  3  1  0  0  0  0
  1  4  2  0  0  0  0
  1 16  1  0  0  0  0
  5  6  1  6  0  0  0
  5  7  1  0  0  0  0
  5 14  1  0  0  0  0
  7  8  1  1  0  0  0
  7  9  1  0  0  0  0
  9 10  1  6  0  0  0
  9 11  1  0  0  0  0
 11 12  1  6  0  0  0
 11 13  1  0  0  0  0
 13 14  1  0  0  0  0
 13 15  1  6  0  0  0
 15 16  1  0  0  0  0
M  CHG  1   3  -1
M  END
>  <CHROM.1>
-61.07043738,176.39348667,-58.03866128,36.64512434,32.78187491,50.03924409
2.52252002,-0.20613636,-1.28859256

>  <Name>
ligand

>  <RI>
0

>  <Rbt.Current_Directory>
/home/itssahil/PROJECTS/Mol_Feturizer/New_Systems/rnas/3B4A

>  <Rbt.Executable>
rbdock ($Id: //depot/dev/client3/rdock/2013.1/src/exe/rbdock.cxx#4 $)

>  <Rbt.Library>
libRbt.so (2013.1, Build901 2013/11/27)

>  <Rbt.Parameter_File>
/export/apps/rDock/src/rDock_2013.1_src/data/scripts/dock_solv.prm

>  <Rbt.Receptor>
prm/blind_docking_80.prm

>  <SCORE>
-8.1193

>  <SCORE.INTER>
-6.84757

>  <SCORE.INTER.CONST>
1

>  <SCORE.INTER.POLAR>
0

>  <SCORE.INTER.ROT>
3

>  <SCORE.INTER.SOLV>
11.2004

>  <SCORE.INTER.VDW>
-13.8985

>  <SCORE.INTER.norm>
-0.427973

>  <SCORE.INTRA>
-1.27173

>  <SCORE.INTRA.DIHEDRAL>
-1.98335

>  <SCORE.INTRA.DIHEDRAL.0>
2.05999

>  <SCORE.INTRA.POLAR>
0

>  <SCORE.INTRA.POLAR.0>
0

>  <SCORE.INTRA.REPUL>
0

>  <SCORE.INTRA.REPUL.0>
0

>  <SCORE.INTRA.SOLV>
-0.637442

>  <SCORE.INTRA.SOLV.lig_0>
-58.7001

>  <SCORE.INTRA.VDW>
0.0386663

>  <SCORE.INTRA.VDW.0>
-0.401036

>  <SCORE.INTRA.norm>
-0.079483

>  <SCORE.RESTR>
0

>  <SCORE.RESTR.CAVITY>
0

>  <SCORE.RESTR.norm>
0

>  <SCORE.SYSTEM>
0

>  <SCORE.SYSTEM.CONST>
0

>  <SCORE.SYSTEM.DIHEDRAL>
0

>  <SCORE.SYSTEM.SOLV>
0

>  <SCORE.SYSTEM.norm>
0

>  <SCORE.heavy>
16

>  <SCORE.norm>
-0.507456

>  <RMSD>
13.125

$$$$
ligand
 OpenBabel11021811463D
libRbt.so/2013.1/901 2013/11/27
 16 16  0  0  0  0  0  0  0  0999 V2000
   33.7038   30.4427   50.2406 P   0  0  2  0  0  0  0  0  0  0  0  0
   33.6103   28.9618   50.2709 O   0  0  0  0  0  0  0  0  0  0  0  0
   32.6102   31.0641   51.2500 O   0  5  0  0  0  0  0  0  0  0  0  0
   33.4175   30.9524   48.7321 O   0  0  0  0  0  0  0  0  0  0  0  0
   38.1527   32.3976   53.1474 C   0  0  2  0  0  0  0  0  0  0  0  0
   38.0737   33.7739   53.5831 O   0  0  0  0  0  0  0  0  0  0  0  0
   39.3216   32.1980   52.1395 C   0  0  2  0  0  0  0  0  0  0  0  0
   40.5912   32.6044   52.7698 N   0  0  0  0  0  0  0  0  0  0  0  0
   39.0505   33.0634   50.8893 C   0  0  1  0  0  0  0  0  0  0  0  0
   40.1130   32.8939   49.9359 O   0  0  0  0  0  0  0  0  0  0  0  0
   37.7147   32.5920   50.2778 C   0  0  2  0  0  0  0  0  0  0  0  0
   37.4252   33.3828   49.1125 O   0  0  0  0  0  0  0  0  0  0  0  0
   36.5933   32.7896   51.3437 C   0  0  2  0  0  0  0  0  0  0  0  0
   36.8798   32.0064   52.5405 O   0  0  0  0  0  0  0  0  0  0  0  0
   35.2329   32.3195   50.8033 C   0  0  0  0  0  0  0  0  0  0  0  0
   35.1896   30.8845   50.7119 O   0  0  0  0  0  0  0  0  0  0  0  0
  1  2  1  1  0  0  0
  1  3  1  0  0  0  0
  1  4  2  0  0  0  0
  1 16  1  0  0  0  0
  5  6  1  6  0  0  0
  5  7  1  0  0  0  0
  5 14  1  0  0  0  0
  7  8  1  1  0  0  0
  7  9  1  0  0  0  0
  9 10  1  6  0  0  0
  9 11  1  0  0  0  0
 11 12  1  6  0  0  0
 11 13  1  0  0  0  0
 13 14  1  0  0  0  0
 13 15  1  6  0  0  0
 15 16  1  0  0  0  0
M  CHG  1   3  -1
M  END
>  <CHROM.1>
71.67495370,175.98247639,-174.55546492,36.44650932,31.88502256,51.02031604
2.88623242,-0.41103580,-1.55197131

>  <Name>
ligand

>  <RI>
0

>  <Rbt.Current_Directory>
/home/itssahil/PROJECTS/Mol_Feturizer/New_Systems/rnas/3B4A

>  <Rbt.Executable>
rbdock ($Id: //depot/dev/client3/rdock/2013.1/src/exe/rbdock.cxx#4 $)

>  <Rbt.Library>
libRbt.so (2013.1, Build901 2013/11/27)

>  <Rbt.Parameter_File>
/export/apps/rDock/src/rDock_2013.1_src/data/scripts/dock_solv.prm

>  <Rbt.Receptor>
prm/blind_docking_80.prm

>  <SCORE>
-9.31057

>  <SCORE.INTER>
-8.13562

>  <SCORE.INTER.CONST>
1

>  <SCORE.INTER.POLAR>
0

>  <SCORE.INTER.ROT>
3

>  <SCORE.INTER.SOLV>
14.5852

>  <SCORE.INTER.VDW>
-15.8855

>  <SCORE.INTER.norm>
-0.508476

>  <SCORE.INTRA>
-1.17494

>  <SCORE.INTRA.DIHEDRAL>
-1.44863

>  <SCORE.INTRA.DIHEDRAL.0>
2.05999

>  <SCORE.INTRA.POLAR>
0

>  <SCORE.INTRA.POLAR.0>
0

>  <SCORE.INTRA.REPUL>
0

>  <SCORE.INTRA.REPUL.0>
0

>  <SCORE.INTRA.SOLV>
-0.214024

>  <SCORE.INTRA.SOLV.lig_0>
-58.7001

>  <SCORE.INTRA.VDW>
-0.343619

>  <SCORE.INTRA.VDW.0>
-0.401036

>  <SCORE.INTRA.norm>
-0.073434

>  <SCORE.RESTR>
0

>  <SCORE.RESTR.CAVITY>
0

>  <SCORE.RESTR.norm>
0

>  <SCORE.SYSTEM>
0

>  <SCORE.SYSTEM.CONST>
0

>  <SCORE.SYSTEM.DIHEDRAL>
0

>  <SCORE.SYSTEM.SOLV>
0

>  <SCORE.SYSTEM.norm>
0

>  <SCORE.heavy>
16

>  <SCORE.norm>
-0.58191

>  <RMSD>
13.273

$$$$
ligand
 OpenBabel11021811463D
libRbt.so/2013.1/901 2013/11/27
 16 16  0  0  0  0  0  0  0  0999 V2000
   33.6908   32.1626   50.2857 P   0  0  2  0  0  0  0  0  0  0  0  0
   34.3353   31.3577   51.3530 O   0  0  0  0  0  0  0  0  0  0  0  0
   32.1155   32.3001   50.6030 O   0  5  0  0  0  0  0  0  0  0  0  0
   33.9066   31.4156   48.8670 O   0  0  0  0  0  0  0  0  0  0  0  0
   38.9092   32.0274   50.8974 C   0  0  2  0  0  0  0  0  0  0  0  0
   38.4498   30.6965   51.2255 O   0  0  0  0  0  0  0  0  0  0  0  0
   39.1417   32.8702   52.1849 C   0  0  2  0  0  0  0  0  0  0  0  0
   40.1264   32.1917   53.0476 N   0  0  0  0  0  0  0  0  0  0  0  0
   37.7969   33.0166   52.9303 C   0  0  1  0  0  0  0  0  0  0  0  0
   37.9800   33.7979   54.1231 O   0  0  0  0  0  0  0  0  0  0  0  0
   36.8132   33.7301   51.9797 C   0  0  2  0  0  0  0  0  0  0  0  0
   35.5442   33.8773   52.6393 O   0  0  0  0  0  0  0  0  0  0  0  0
   36.6467   32.8526   50.7011 C   0  0  2  0  0  0  0  0  0  0  0  0
   37.9291   32.6790   50.0279 O   0  0  0  0  0  0  0  0  0  0  0  0
   35.6895   33.5183   49.6989 C   0  0  0  0  0  0  0  0  0  0  0  0
   34.3684   33.6339   50.2563 O   0  0  0  0  0  0  0  0  0  0  0  0
  1  2  1  1  0  0  0
  1  3  1  0  0  0  0
  1  4  2  0  0  0  0
  1 16  1  0  0  0  0
  5  6  1  1  0  0  0
  5  7  1  0  0  0  0
  5 14  1  0  0  0  0
  7  8  1  1  0  0  0
  7  9  1  0  0  0  0
  9 10  1  1  0  0  0
  9 11  1  0  0  0  0
 11 12  1  1  0  0  0
 11 13  1  0  0  0  0
 13 14  1  0  0  0  0
 13 15  1  6  0  0  0
 15 16  1  0  0  0  0
M  CHG  1   3  -1
M  END
>  <CHROM.1>
-63.39106066,-73.12835182,72.68590090,36.19497352,32.58583900,51.21384441
-2.76912837,-0.17600391,0.98806030

>  <Name>
ligand

>  <RI>
0

>  <Rbt.Current_Directory>
/home/itssahil/PROJECTS/Mol_Feturizer/New_Systems/rnas/3B4A

>  <Rbt.Executable>
rbdock ($Id: //depot/dev/client3/rdock/2013.1/src/exe/rbdock.cxx#4 $)

>  <Rbt.Library>
libRbt.so (2013.1, Build901 2013/11/27)

>  <Rbt.Parameter_File>
/export/apps/rDock/src/rDock_2013.1_src/data/scripts/dock_solv.prm

>  <Rbt.Receptor>
prm/blind_docking_80.prm

>  <SCORE>
-7.34745

>  <SCORE.INTER>
-7.2518

>  <SCORE.INTER.CONST>
1

>  <SCORE.INTER.POLAR>
0

>  <SCORE.INTER.ROT>
3

>  <SCORE.INTER.SOLV>
11.3685

>  <SCORE.INTER.VDW>
-14.224

>  <SCORE.INTER.norm>
-0.453237

>  <SCORE.INTRA>
-0.0956502

>  <SCORE.INTRA.DIHEDRAL>
-0.94411

>  <SCORE.INTRA.DIHEDRAL.0>
2.05999

>  <SCORE.INTRA.POLAR>
0

>  <SCORE.INTRA.POLAR.0>
0

>  <SCORE.INTRA.REPUL>
0

>  <SCORE.INTRA.REPUL.0>
0

>  <SCORE.INTRA.SOLV>
0.966098

>  <SCORE.INTRA.SOLV.lig_0>
-58.7001

>  <SCORE.INTRA.VDW>
-0.106645

>  <SCORE.INTRA.VDW.0>
-0.401036

>  <SCORE.INTRA.norm>
-0.00597814

>  <SCORE.RESTR>
0

>  <SCORE.RESTR.CAVITY>
0

>  <SCORE.RESTR.norm>
0

>  <SCORE.SYSTEM>
0

>  <SCORE.SYSTEM.CONST>
0

>  <SCORE.SYSTEM.DIHEDRAL>
0

>  <SCORE.SYSTEM.SOLV>
0

>  <SCORE.SYSTEM.norm>
0

>  <SCORE.heavy>
16

>  <SCORE.norm>
-0.459215

>  <RMSD>
13.281

$$$$
ligand
 OpenBabel11021811463D
libRbt.so/2013.1/901 2013/11/27
 16 16  0  0  0  0  0  0  0  0999 V2000
   33.5957   30.5550   50.2652 P   0  0  2  0  0  0  0  0  0  0  0  0
   32.7247   30.7628   51.4487 O   0  0  0  0  0  0  0  0  0  0  0  0
   33.0846   31.4953   49.0586 O   0  5  0  0  0  0  0  0  0  0  0  0
   33.5168   28.9998   49.8265 O   0  0  0  0  0  0  0  0  0  0  0  0
   38.2068   32.2723   53.1379 C   0  0  2  0  0  0  0  0  0  0  0  0
   38.1944   33.6344   53.6224 O   0  0  0  0  0  0  0  0  0  0  0  0
   39.3096   32.0749   52.0576 C   0  0  2  0  0  0  0  0  0  0  0  0
   40.6248   32.4233   52.6258 N   0  0  0  0  0  0  0  0  0  0  0  0
   38.9934   32.9902   50.8544 C   0  0  1  0  0  0  0  0  0  0  0  0
   39.9939   32.8238   49.8356 O   0  0  0  0  0  0  0  0  0  0  0  0
   37.6112   32.5780   50.3067 C   0  0  2  0  0  0  0  0  0  0  0  0
   37.2793   33.4164   49.1868 O   0  0  0  0  0  0  0  0  0  0  0  0
   36.5591   32.7701   51.4420 C   0  0  2  0  0  0  0  0  0  0  0  0
   36.8901   31.9383   52.5937 O   0  0  0  0  0  0  0  0  0  0  0  0
   35.1565   32.3574   50.9667 C   0  0  0  0  0  0  0  0  0  0  0  0
   35.1166   30.9534   50.6562 O   0  0  0  0  0  0  0  0  0  0  0  0
  1  2  1  1  0  0  0
  1  3  1  0  0  0  0
  1  4  2  0  0  0  0
  1 16  1  0  0  0  0
  5  6  1  6  0  0  0
  5  7  1  0  0  0  0
  5 14  1  0  0  0  0
  7  8  1  1  0  0  0
  7  9  1  0  0  0  0
  9 10  1  6  0  0  0
  9 11  1  0  0  0  0
 11 12  1  6  0  0  0
 11 13  1  0  0  0  0
 13 14  1  0  0  0  0
 13 15  1  6  0  0  0
 15 16  1  0  0  0  0
M  CHG  1   3  -1
M  END
>  <CHROM.1>
63.84119816,175.98585737,-63.82934787,36.39002616,31.87915027,51.03028314
2.91062322,-0.38821441,-1.49675756

>  <Name>
ligand

>  <RI>
0

>  <Rbt.Current_Directory>
/home/itssahil/PROJECTS/Mol_Feturizer/New_Systems/rnas/3B4A

>  <Rbt.Executable>
rbdock ($Id: //depot/dev/client3/rdock/2013.1/src/exe/rbdock.cxx#4 $)

>  <Rbt.Library>
libRbt.so (2013.1, Build901 2013/11/27)

>  <Rbt.Parameter_File>
/export/apps/rDock/src/rDock_2013.1_src/data/scripts/dock_solv.prm

>  <Rbt.Receptor>
prm/blind_docking_80.prm

>  <SCORE>
-9.46941

>  <SCORE.INTER>
-7.90212

>  <SCORE.INTER.CONST>
1

>  <SCORE.INTER.POLAR>
0

>  <SCORE.INTER.ROT>
3

>  <SCORE.INTER.SOLV>
13.8512

>  <SCORE.INTER.VDW>
-15.4851

>  <SCORE.INTER.norm>
-0.493882

>  <SCORE.INTRA>
-1.56729

>  <SCORE.INTRA.DIHEDRAL>
-1.9001

>  <SCORE.INTRA.DIHEDRAL.0>
2.05999

>  <SCORE.INTRA.POLAR>
0

>  <SCORE.INTRA.POLAR.0>
0

>  <SCORE.INTRA.REPUL>
0

>  <SCORE.INTRA.REPUL.0>
0

>  <SCORE.INTRA.SOLV>
-0.823284

>  <SCORE.INTRA.SOLV.lig_0>
-58.7001

>  <SCORE.INTRA.VDW>
-0.205596

>  <SCORE.INTRA.VDW.0>
-0.401036

>  <SCORE.INTRA.norm>
-0.0979555

>  <SCORE.RESTR>
0

>  <SCORE.RESTR.CAVITY>
0

>  <SCORE.RESTR.norm>
0

>  <SCORE.SYSTEM>
0

>  <SCORE.SYSTEM.CONST>
0

>  <SCORE.SYSTEM.DIHEDRAL>
0

>  <SCORE.SYSTEM.SOLV>
0

>  <SCORE.SYSTEM.norm>
0

>  <SCORE.heavy>
16

>  <SCORE.norm>
-0.591838

>  <RMSD>
13.330

$$$$
ligand
 OpenBabel11021811463D
libRbt.so/2013.1/901 2013/11/27
 16 16  0  0  0  0  0  0  0  0999 V2000
   33.3265   33.1852   49.1433 P   0  0  2  0  0  0  0  0  0  0  0  0
   32.7967   34.2833   48.2972 O   0  0  0  0  0  0  0  0  0  0  0  0
   33.5859   31.8853   48.2245 O   0  5  0  0  0  0  0  0  0  0  0  0
   32.2411   32.8428   50.2930 O   0  0  0  0  0  0  0  0  0  0  0  0
   38.0858   32.3299   53.0474 C   0  0  2  0  0  0  0  0  0  0  0  0
   37.9938   33.6116   53.7101 O   0  0  0  0  0  0  0  0  0  0  0  0
   39.2623   32.3120   52.0288 C   0  0  2  0  0  0  0  0  0  0  0  0
   40.5249   32.6134   52.7281 N   0  0  0  0  0  0  0  0  0  0  0  0
   38.9921   33.3754   50.9418 C   0  0  1  0  0  0  0  0  0  0  0  0
   40.0616   33.3772   49.9812 O   0  0  0  0  0  0  0  0  0  0  0  0
   37.6636   33.0063   50.2496 C   0  0  2  0  0  0  0  0  0  0  0  0
   37.3752   33.9818   49.2335 O   0  0  0  0  0  0  0  0  0  0  0  0
   36.5344   33.0128   51.3254 C   0  0  2  0  0  0  0  0  0  0  0  0
   36.8196   32.0394   52.3738 O   0  0  0  0  0  0  0  0  0  0  0  0
   35.1809   32.6326   50.7032 C   0  0  0  0  0  0  0  0  0  0  0  0
   34.7226   33.6642   49.8115 O   0  0  0  0  0  0  0  0  0  0  0  0
  1  2  1  6  0  0  0
  1  3  1  0  0  0  0
  1  4  2  0  0  0  0
  1 16  1  0  0  0  0
  5  6  1  6  0  0  0
  5  7  1  0  0  0  0
  5 14  1  0  0  0  0
  7  8  1  1  0  0  0
  7  9  1  0  0  0  0
  9 10  1  6  0  0  0
  9 11  1  0  0  0  0
 11 12  1  6  0  0  0
 11 13  1  0  0  0  0
 13 14  1  0  0  0  0
 13 15  1  6  0  0  0
 15 16  1  0  0  0  0
M  CHG  1   3  -1
M  END
>  <CHROM.1>
-68.48096414,177.80474375,175.97015939,36.26903752,33.03804502,50.59970907
-2.68563373,0.07080181,1.80428993

>  <Name>
ligand

>  <RI>
0

>  <Rbt.Current_Directory>
/home/itssahil/PROJECTS/Mol_Feturizer/New_Systems/rnas/3B4A

>  <Rbt.Executable>
rbdock ($Id: //depot/dev/client3/rdock/2013.1/src/exe/rbdock.cxx#4 $)

>  <Rbt.Library>
libRbt.so (2013.1, Build901 2013/11/27)

>  <Rbt.Parameter_File>
/export/apps/rDock/src/rDock_2013.1_src/data/scripts/dock_solv.prm

>  <Rbt.Receptor>
prm/blind_docking_80.prm

>  <SCORE>
-8.42174

>  <SCORE.INTER>
-7.21217

>  <SCORE.INTER.CONST>
1

>  <SCORE.INTER.POLAR>
0

>  <SCORE.INTER.ROT>
3

>  <SCORE.INTER.SOLV>
12.4542

>  <SCORE.INTER.VDW>
-14.5595

>  <SCORE.INTER.norm>
-0.450761

>  <SCORE.INTRA>
-1.20956

>  <SCORE.INTRA.DIHEDRAL>
-1.7539

>  <SCORE.INTRA.DIHEDRAL.0>
2.05999

>  <SCORE.INTRA.POLAR>
0

>  <SCORE.INTRA.POLAR.0>
0

>  <SCORE.INTRA.REPUL>
0

>  <SCORE.INTRA.REPUL.0>
0

>  <SCORE.INTRA.SOLV>
-0.0307963

>  <SCORE.INTRA.SOLV.lig_0>
-58.7001

>  <SCORE.INTRA.VDW>
-0.317215

>  <SCORE.INTRA.VDW.0>
-0.401036

>  <SCORE.INTRA.norm>
-0.0755976

>  <SCORE.RESTR>
0

>  <SCORE.RESTR.CAVITY>
0

>  <SCORE.RESTR.norm>
0

>  <SCORE.SYSTEM>
0

>  <SCORE.SYSTEM.CONST>
0

>  <SCORE.SYSTEM.DIHEDRAL>
0

>  <SCORE.SYSTEM.SOLV>
0

>  <SCORE.SYSTEM.norm>
0

>  <SCORE.heavy>
16

>  <SCORE.norm>
-0.526358

>  <RMSD>
13.342

$$$$
ligand
 OpenBabel11021811463D
libRbt.so/2013.1/901 2013/11/27
 16 16  0  0  0  0  0  0  0  0999 V2000
   33.2506   33.1655   49.1346 P   0  0  2  0  0  0  0  0  0  0  0  0
   32.6713   34.2966   48.3681 O   0  0  0  0  0  0  0  0  0  0  0  0
   33.5547   31.9428   48.1279 O   0  5  0  0  0  0  0  0  0  0  0  0
   32.1882   32.7022   50.2633 O   0  0  0  0  0  0  0  0  0  0  0  0
   38.0357   32.2860   52.9900 C   0  0  2  0  0  0  0  0  0  0  0  0
   37.9083   33.5572   53.6668 O   0  0  0  0  0  0  0  0  0  0  0  0
   39.2295   32.3030   51.9917 C   0  0  2  0  0  0  0  0  0  0  0  0
   40.4741   32.6191   52.7164 N   0  0  0  0  0  0  0  0  0  0  0  0
   38.9579   33.3750   50.9135 C   0  0  1  0  0  0  0  0  0  0  0  0
   40.0433   33.4090   49.9715 O   0  0  0  0  0  0  0  0  0  0  0  0
   37.6486   32.9899   50.1939 C   0  0  2  0  0  0  0  0  0  0  0  0
   37.3591   33.9727   49.1851 O   0  0  0  0  0  0  0  0  0  0  0  0
   36.5012   32.9616   51.2500 C   0  0  2  0  0  0  0  0  0  0  0  0
   36.7869   31.9805   52.2911 O   0  0  0  0  0  0  0  0  0  0  0  0
   35.1660   32.5642   50.5999 C   0  0  0  0  0  0  0  0  0  0  0  0
   34.6314   33.6536   49.8275 O   0  0  0  0  0  0  0  0  0  0  0  0
  1  2  1  6  0  0  0
  1  3  1  0  0  0  0
  1  4  2  0  0  0  0
  1 16  1  0  0  0  0
  5  6  1  6  0  0  0
  5  7  1  0  0  0  0
  5 14  1  0  0  0  0
  7  8  1  1  0  0  0
  7  9  1  0  0  0  0
  9 10  1  6  0  0  0
  9 11  1  0  0  0  0
 11 12  1  6  0  0  0
 11 13  1  0  0  0  0
 13 14  1  0  0  0  0
 13 15  1  6  0  0  0
 15 16  1  0  0  0  0
M  CHG  1   3  -1
M  END
>  <CHROM.1>
-74.70232276,178.43068904,178.33841596,36.21875038,33.01505560,50.56494364
2.69540106,-0.07942378,-1.31929472

>  <Name>
ligand

>  <RI>
0

>  <Rbt.Current_Directory>
/home/itssahil/PROJECTS/Mol_Feturizer/New_Systems/rnas/3B4A

>  <Rbt.Executable>
rbdock ($Id: //depot/dev/client3/rdock/2013.1/src/exe/rbdock.cxx#4 $)

>  <Rbt.Library>
libRbt.so (2013.1, Build901 2013/11/27)

>  <Rbt.Parameter_File>
/export/apps/rDock/src/rDock_2013.1_src/data/scripts/dock_solv.prm

>  <Rbt.Receptor>
prm/blind_docking_100.prm

>  <SCORE>
-8.27585

>  <SCORE.INTER>
-7.18319

>  <SCORE.INTER.CONST>
1

>  <SCORE.INTER.POLAR>
0

>  <SCORE.INTER.ROT>
3

>  <SCORE.INTER.SOLV>
11.9171

>  <SCORE.INTER.VDW>
-14.3612

>  <SCORE.INTER.norm>
-0.448949

>  <SCORE.INTRA>
-1.09266

>  <SCORE.INTRA.DIHEDRAL>
-1.30106

>  <SCORE.INTRA.DIHEDRAL.0>
2.05999

>  <SCORE.INTRA.POLAR>
0

>  <SCORE.INTRA.POLAR.0>
0

>  <SCORE.INTRA.REPUL>
0

>  <SCORE.INTRA.REPUL.0>
0

>  <SCORE.INTRA.SOLV>
-0.10009

>  <SCORE.INTRA.SOLV.lig_0>
-58.7001

>  <SCORE.INTRA.VDW>
-0.392087

>  <SCORE.INTRA.VDW.0>
-0.401036

>  <SCORE.INTRA.norm>
-0.0682913

>  <SCORE.RESTR>
0

>  <SCORE.RESTR.CAVITY>
0

>  <SCORE.RESTR.norm>
0

>  <SCORE.SYSTEM>
0

>  <SCORE.SYSTEM.CONST>
0

>  <SCORE.SYSTEM.DIHEDRAL>
0

>  <SCORE.SYSTEM.SOLV>
0

>  <SCORE.SYSTEM.norm>
0

>  <SCORE.heavy>
16

>  <SCORE.norm>
-0.51724

>  <RMSD>
13.397

$$$$
ligand
 OpenBabel11021811463D
libRbt.so/2013.1/901 2013/11/27
 16 16  0  0  0  0  0  0  0  0999 V2000
   33.0141   31.0353   50.7610 P   0  0  2  0  0  0  0  0  0  0  0  0
   33.2890   29.5866   50.5924 O   0  0  0  0  0  0  0  0  0  0  0  0
   31.6930   31.2227   51.6669 O   0  5  0  0  0  0  0  0  0  0  0  0
   32.7831   31.6953   49.3021 O   0  0  0  0  0  0  0  0  0  0  0  0
   38.1983   31.9650   53.0391 C   0  0  2  0  0  0  0  0  0  0  0  0
   37.8737   33.2242   53.6707 O   0  0  0  0  0  0  0  0  0  0  0  0
   39.4043   32.1228   52.0680 C   0  0  2  0  0  0  0  0  0  0  0  0
   40.5714   32.6341   52.8100 N   0  0  0  0  0  0  0  0  0  0  0  0
   39.0127   33.1131   50.9494 C   0  0  1  0  0  0  0  0  0  0  0  0
   40.1075   33.2739   50.0317 O   0  0  0  0  0  0  0  0  0  0  0  0
   37.7912   32.5245   50.2133 C   0  0  2  0  0  0  0  0  0  0  0  0
   37.3928   33.4261   49.1666 O   0  0  0  0  0  0  0  0  0  0  0  0
   36.6313   32.3638   51.2436 C   0  0  2  0  0  0  0  0  0  0  0  0
   37.0248   31.4643   52.3224 O   0  0  0  0  0  0  0  0  0  0  0  0
   35.3839   31.7613   50.5767 C   0  0  0  0  0  0  0  0  0  0  0  0
   34.2799   31.7274   51.4982 O   0  0  0  0  0  0  0  0  0  0  0  0
  1  2  1  6  0  0  0
  1  3  1  0  0  0  0
  1  4  2  0  0  0  0
  1 16  1  0  0  0  0
  5  6  1  6  0  0  0
  5  7  1  0  0  0  0
  5 14  1  0  0  0  0
  7  8  1  1  0  0  0
  7  9  1  0  0  0  0
  9 10  1  6  0  0  0
  9 11  1  0  0  0  0
 11 12  1  6  0  0  0
 11 13  1  0  0  0  0
 13 14  1  0  0  0  0
 13 15  1  6  0  0  0
 15 16  1  0  0  0  0
M  CHG  1   3  -1
M  END
>  <CHROM.1>
-174.76985813,-177.93284951,70.79347824,36.19716508,31.98722701,51.19337402
3.05803281,-0.29606218,-1.34780979

>  <Name>
ligand

>  <RI>
0

>  <Rbt.Current_Directory>
/home/itssahil/PROJECTS/Mol_Feturizer/New_Systems/rnas/3B4A

>  <Rbt.Executable>
rbdock ($Id: //depot/dev/client3/rdock/2013.1/src/exe/rbdock.cxx#4 $)

>  <Rbt.Library>
libRbt.so (2013.1, Build901 2013/11/27)

>  <Rbt.Parameter_File>
/export/apps/rDock/src/rDock_2013.1_src/data/scripts/dock_solv.prm

>  <Rbt.Receptor>
prm/blind_docking_80.prm

>  <SCORE>
-9.3529

>  <SCORE.INTER>
-7.88955

>  <SCORE.INTER.CONST>
1

>  <SCORE.INTER.POLAR>
0

>  <SCORE.INTER.ROT>
3

>  <SCORE.INTER.SOLV>
13.8719

>  <SCORE.INTER.VDW>
-15.4837

>  <SCORE.INTER.norm>
-0.493097

>  <SCORE.INTRA>
-1.46334

>  <SCORE.INTRA.DIHEDRAL>
-1.74981

>  <SCORE.INTRA.DIHEDRAL.0>
2.05999

>  <SCORE.INTRA.POLAR>
0

>  <SCORE.INTRA.POLAR.0>
0

>  <SCORE.INTRA.REPUL>
0

>  <SCORE.INTRA.REPUL.0>
0

>  <SCORE.INTRA.SOLV>
-0.973039

>  <SCORE.INTRA.SOLV.lig_0>
-58.7001

>  <SCORE.INTRA.VDW>
-0.101918

>  <SCORE.INTRA.VDW.0>
-0.401036

>  <SCORE.INTRA.norm>
-0.091459

>  <SCORE.RESTR>
0

>  <SCORE.RESTR.CAVITY>
0

>  <SCORE.RESTR.norm>
0

>  <SCORE.SYSTEM>
0

>  <SCORE.SYSTEM.CONST>
0

>  <SCORE.SYSTEM.DIHEDRAL>
0

>  <SCORE.SYSTEM.SOLV>
0

>  <SCORE.SYSTEM.norm>
0

>  <SCORE.heavy>
16

>  <SCORE.norm>
-0.584556

>  <RMSD>
13.464

$$$$
ligand
 OpenBabel11021811463D
libRbt.so/2013.1/901 2013/11/27
 16 16  0  0  0  0  0  0  0  0999 V2000
   32.6440   32.8962   51.5271 P   0  0  2  0  0  0  0  0  0  0  0  0
   31.6516   33.2787   52.5621 O   0  0  0  0  0  0  0  0  0  0  0  0
   32.4027   33.7883   50.2053 O   0  5  0  0  0  0  0  0  0  0  0  0
   32.4555   31.3278   51.1783 O   0  0  0  0  0  0  0  0  0  0  0  0
   38.1182   32.4359   53.1590 C   0  0  2  0  0  0  0  0  0  0  0  0
   38.2279   33.7484   53.7552 O   0  0  0  0  0  0  0  0  0  0  0  0
   39.1952   32.2336   52.0539 C   0  0  2  0  0  0  0  0  0  0  0  0
   40.5382   32.4165   52.6346 N   0  0  0  0  0  0  0  0  0  0  0  0
   38.9567   33.2706   50.9345 C   0  0  1  0  0  0  0  0  0  0  0  0
   39.9348   33.1030   49.8944 O   0  0  0  0  0  0  0  0  0  0  0  0
   37.5414   33.0286   50.3698 C   0  0  2  0  0  0  0  0  0  0  0  0
   37.2808   33.9838   49.3272 O   0  0  0  0  0  0  0  0  0  0  0  0
   36.5147   33.2166   51.5287 C   0  0  2  0  0  0  0  0  0  0  0  0
   36.7751   32.2655   52.6036 O   0  0  0  0  0  0  0  0  0  0  0  0
   35.0793   32.9698   51.0363 C   0  0  0  0  0  0  0  0  0  0  0  0
   34.1338   33.1703   52.1017 O   0  0  0  0  0  0  0  0  0  0  0  0
  1  2  1  1  0  0  0
  1  3  1  0  0  0  0
  1  4  2  0  0  0  0
  1 16  1  0  0  0  0
  5  6  1  6  0  0  0
  5  7  1  0  0  0  0
  5 14  1  0  0  0  0
  7  8  1  1  0  0  0
  7  9  1  0  0  0  0
  9 10  1  6  0  0  0
  9 11  1  0  0  0  0
 11 12  1  6  0  0  0
 11 13  1  0  0  0  0
 13 14  1  0  0  0  0
 13 15  1  6  0  0  0
 15 16  1  0  0  0  0
M  CHG  1   3  -1
M  END
>  <CHROM.1>
-178.85489950,-179.95270641,-172.34904502,35.99578129,32.95333903,51.54513227
3.11512718,-0.00898107,-1.36454004

>  <Name>
ligand

>  <RI>
0

>  <Rbt.Current_Directory>
/home/itssahil/PROJECTS/Mol_Feturizer/New_Systems/rnas/3B4A

>  <Rbt.Executable>
rbdock ($Id: //depot/dev/client3/rdock/2013.1/src/exe/rbdock.cxx#4 $)

>  <Rbt.Library>
libRbt.so (2013.1, Build901 2013/11/27)

>  <Rbt.Parameter_File>
/export/apps/rDock/src/rDock_2013.1_src/data/scripts/dock_solv.prm

>  <Rbt.Receptor>
prm/blind_docking_100.prm

>  <SCORE>
-10.3259

>  <SCORE.INTER>
-8.93419

>  <SCORE.INTER.CONST>
1

>  <SCORE.INTER.POLAR>
0

>  <SCORE.INTER.ROT>
3

>  <SCORE.INTER.SOLV>
18.8676

>  <SCORE.INTER.VDW>
-17.8453

>  <SCORE.INTER.norm>
-0.558387

>  <SCORE.INTRA>
-1.39174

>  <SCORE.INTRA.DIHEDRAL>
-1.95725

>  <SCORE.INTRA.DIHEDRAL.0>
2.05999

>  <SCORE.INTRA.POLAR>
0

>  <SCORE.INTRA.POLAR.0>
0

>  <SCORE.INTRA.REPUL>
0

>  <SCORE.INTRA.REPUL.0>
0

>  <SCORE.INTRA.SOLV>
-0.415943

>  <SCORE.INTRA.SOLV.lig_0>
-58.7001

>  <SCORE.INTRA.VDW>
-0.205145

>  <SCORE.INTRA.VDW.0>
-0.401036

>  <SCORE.INTRA.norm>
-0.0869839

>  <SCORE.RESTR>
0

>  <SCORE.RESTR.CAVITY>
0

>  <SCORE.RESTR.norm>
0

>  <SCORE.SYSTEM>
0

>  <SCORE.SYSTEM.CONST>
0

>  <SCORE.SYSTEM.DIHEDRAL>
0

>  <SCORE.SYSTEM.SOLV>
0

>  <SCORE.SYSTEM.norm>
0

>  <SCORE.heavy>
16

>  <SCORE.norm>
-0.645371

>  <RMSD>
13.480

$$$$
ligand
 OpenBabel11021811463D
libRbt.so/2013.1/901 2013/11/27
 16 16  0  0  0  0  0  0  0  0999 V2000
   32.6126   32.7379   51.4382 P   0  0  2  0  0  0  0  0  0  0  0  0
   31.5806   33.1324   52.4291 O   0  0  0  0  0  0  0  0  0  0  0  0
   32.3932   33.5794   50.0800 O   0  5  0  0  0  0  0  0  0  0  0  0
   32.4687   31.1547   51.1379 O   0  0  0  0  0  0  0  0  0  0  0  0
   38.0881   32.3897   53.1739 C   0  0  2  0  0  0  0  0  0  0  0  0
   38.1230   33.6836   53.8180 O   0  0  0  0  0  0  0  0  0  0  0  0
   39.1909   32.2809   52.0811 C   0  0  2  0  0  0  0  0  0  0  0  0
   40.5139   32.5087   52.6911 N   0  0  0  0  0  0  0  0  0  0  0  0
   38.9184   33.3449   50.9952 C   0  0  1  0  0  0  0  0  0  0  0  0
   39.9198   33.2635   49.9669 O   0  0  0  0  0  0  0  0  0  0  0  0
   37.5260   33.0540   50.3978 C   0  0  2  0  0  0  0  0  0  0  0  0
   37.2343   34.0323   49.3854 O   0  0  0  0  0  0  0  0  0  0  0  0
   36.4732   33.1490   51.5447 C   0  0  2  0  0  0  0  0  0  0  0  0
   36.7640   32.1735   52.5896 O   0  0  0  0  0  0  0  0  0  0  0  0
   35.0598   32.8497   51.0190 C   0  0  0  0  0  0  0  0  0  0  0  0
   34.0777   33.0646   52.0479 O   0  0  0  0  0  0  0  0  0  0  0  0
  1  2  1  1  0  0  0
  1  3  1  0  0  0  0
  1  4  2  0  0  0  0
  1 16  1  0  0  0  0
  5  6  1  6  0  0  0
  5  7  1  0  0  0  0
  5 14  1  0  0  0  0
  7  8  1  1  0  0  0
  7  9  1  0  0  0  0
  9 10  1  6  0  0  0
  9 11  1  0  0  0  0
 11 12  1  6  0  0  0
 11 13  1  0  0  0  0
 13 14  1  0  0  0  0
 13 15  1  6  0  0  0
 15 16  1  0  0  0  0
M  CHG  1   3  -1
M  END
>  <CHROM.1>
-174.42069570,179.88875709,-172.35370901,35.96368634,32.89711774,51.53299597
3.10143917,-0.04702442,-1.33065620

>  <Name>
ligand

>  <RI>
0

>  <Rbt.Current_Directory>
/home/itssahil/PROJECTS/Mol_Feturizer/New_Systems/rnas/3B4A

>  <Rbt.Executable>
rbdock ($Id: //depot/dev/client3/rdock/2013.1/src/exe/rbdock.cxx#4 $)

>  <Rbt.Library>
libRbt.so (2013.1, Build901 2013/11/27)

>  <Rbt.Parameter_File>
/export/apps/rDock/src/rDock_2013.1_src/data/scripts/dock_solv.prm

>  <Rbt.Receptor>
prm/blind_docking_80.prm

>  <SCORE>
-10.2705

>  <SCORE.INTER>
-8.91353

>  <SCORE.INTER.CONST>
1

>  <SCORE.INTER.POLAR>
0

>  <SCORE.INTER.ROT>
3

>  <SCORE.INTER.SOLV>
17.9245

>  <SCORE.INTER.VDW>
-17.5172

>  <SCORE.INTER.norm>
-0.557096

>  <SCORE.INTRA>
-1.35695

>  <SCORE.INTRA.DIHEDRAL>
-1.849

>  <SCORE.INTRA.DIHEDRAL.0>
2.05999

>  <SCORE.INTRA.POLAR>
0

>  <SCORE.INTRA.POLAR.0>
0

>  <SCORE.INTRA.REPUL>
0

>  <SCORE.INTRA.REPUL.0>
0

>  <SCORE.INTRA.SOLV>
-0.432377

>  <SCORE.INTRA.SOLV.lig_0>
-58.7001

>  <SCORE.INTRA.VDW>
-0.216262

>  <SCORE.INTRA.VDW.0>
-0.401036

>  <SCORE.INTRA.norm>
-0.0848093

>  <SCORE.RESTR>
0

>  <SCORE.RESTR.CAVITY>
0

>  <SCORE.RESTR.norm>
0

>  <SCORE.SYSTEM>
0

>  <SCORE.SYSTEM.CONST>
0

>  <SCORE.SYSTEM.DIHEDRAL>
0

>  <SCORE.SYSTEM.SOLV>
0

>  <SCORE.SYSTEM.norm>
0

>  <SCORE.heavy>
16

>  <SCORE.norm>
-0.641905

>  <RMSD>
13.516

$$$$
ligand
 OpenBabel11021811463D
libRbt.so/2013.1/901 2013/11/27
 16 16  0  0  0  0  0  0  0  0999 V2000
   38.3040   32.4923   52.5358 P   0  0  2  0  0  0  0  0  0  0  0  0
   38.3098   33.6748   53.4326 O   0  0  0  0  0  0  0  0  0  0  0  0
   38.9970   31.2485   53.2933 O   0  5  0  0  0  0  0  0  0  0  0  0
   39.1307   32.8526   51.1926 O   0  0  0  0  0  0  0  0  0  0  0  0
   32.5485   32.6297   51.6804 C   0  0  2  0  0  0  0  0  0  0  0  0
   32.4660   31.2311   51.3234 O   0  0  0  0  0  0  0  0  0  0  0  0
   32.0275   33.5320   50.5243 C   0  0  2  0  0  0  0  0  0  0  0  0
   30.6338   33.1708   50.2064 N   0  0  0  0  0  0  0  0  0  0  0  0
   32.9256   33.3177   49.2861 C   0  0  1  0  0  0  0  0  0  0  0  0
   32.4712   34.1452   48.2019 O   0  0  0  0  0  0  0  0  0  0  0  0
   34.3642   33.7110   49.6810 C   0  0  2  0  0  0  0  0  0  0  0  0
   35.2323   33.5166   48.5515 O   0  0  0  0  0  0  0  0  0  0  0  0
   34.8150   32.7937   50.8592 C   0  0  2  0  0  0  0  0  0  0  0  0
   33.9342   32.9661   52.0091 O   0  0  0  0  0  0  0  0  0  0  0  0
   36.2397   33.1471   51.3163 C   0  0  0  0  0  0  0  0  0  0  0  0
   36.7706   32.1183   52.1701 O   0  0  0  0  0  0  0  0  0  0  0  0
  1  2  1  1  0  0  0
  1  3  1  0  0  0  0
  1  4  2  0  0  0  0
  1 16  1  0  0  0  0
  5  6  1  6  0  0  0
  5  7  1  0  0  0  0
  5 14  1  0  0  0  0
  7  8  1  6  0  0  0
  7  9  1  0  0  0  0
  9 10  1  6  0  0  0
  9 11  1  0  0  0  0
 11 12  1  6  0  0  0
 11 13  1  0  0  0  0
 13 14  1  0  0  0  0
 13 15  1  1  0  0  0
 15 16  1  0  0  0  0
M  CHG  1   3  -1
M  END
>  <CHROM.1>
-166.43110763,176.11875992,69.58175231,35.26676856,32.86351346,51.14688934
0.41460675,0.08005350,2.01856346

>  <Name>
ligand

>  <RI>
0

>  <Rbt.Current_Directory>
/home/itssahil/PROJECTS/Mol_Feturizer/New_Systems/rnas/3B4A

>  <Rbt.Executable>
rbdock ($Id: //depot/dev/client3/rdock/2013.1/src/exe/rbdock.cxx#4 $)

>  <Rbt.Library>
libRbt.so (2013.1, Build901 2013/11/27)

>  <Rbt.Parameter_File>
/export/apps/rDock/src/rDock_2013.1_src/data/scripts/dock_solv.prm

>  <Rbt.Receptor>
prm/blind_docking_100.prm

>  <SCORE>
-8.35971

>  <SCORE.INTER>
-7.15662

>  <SCORE.INTER.CONST>
1

>  <SCORE.INTER.POLAR>
0

>  <SCORE.INTER.ROT>
3

>  <SCORE.INTER.SOLV>
14.8058

>  <SCORE.INTER.VDW>
-15.3063

>  <SCORE.INTER.norm>
-0.447289

>  <SCORE.INTRA>
-1.20308

>  <SCORE.INTRA.DIHEDRAL>
-1.19342

>  <SCORE.INTRA.DIHEDRAL.0>
2.05999

>  <SCORE.INTRA.POLAR>
0

>  <SCORE.INTRA.POLAR.0>
0

>  <SCORE.INTRA.REPUL>
0

>  <SCORE.INTRA.REPUL.0>
0

>  <SCORE.INTRA.SOLV>
-1.01529

>  <SCORE.INTRA.SOLV.lig_0>
-58.7001

>  <SCORE.INTRA.VDW>
-0.0987302

>  <SCORE.INTRA.VDW.0>
-0.401036

>  <SCORE.INTRA.norm>
-0.0751928

>  <SCORE.RESTR>
0

>  <SCORE.RESTR.CAVITY>
0

>  <SCORE.RESTR.norm>
0

>  <SCORE.SYSTEM>
0

>  <SCORE.SYSTEM.CONST>
0

>  <SCORE.SYSTEM.DIHEDRAL>
0

>  <SCORE.SYSTEM.SOLV>
0

>  <SCORE.SYSTEM.norm>
0

>  <SCORE.heavy>
16

>  <SCORE.norm>
-0.522482

>  <RMSD>
13.866

$$$$
ligand
 OpenBabel11021811463D
libRbt.so/2013.1/901 2013/11/27
 16 16  0  0  0  0  0  0  0  0999 V2000
   38.0820   31.3649   51.7064 P   0  0  2  0  0  0  0  0  0  0  0  0
   38.8247   30.1306   51.3497 O   0  0  0  0  0  0  0  0  0  0  0  0
   38.7809   32.6301   50.9910 O   0  5  0  0  0  0  0  0  0  0  0  0
   38.1171   31.5486   53.3134 O   0  0  0  0  0  0  0  0  0  0  0  0
   32.0976   33.0201   51.8269 C   0  0  2  0  0  0  0  0  0  0  0  0
   31.5723   31.6764   51.9206 O   0  0  0  0  0  0  0  0  0  0  0  0
   31.9274   33.5861   50.3872 C   0  0  2  0  0  0  0  0  0  0  0  0
   30.5001   33.5722   50.0172 N   0  0  0  0  0  0  0  0  0  0  0  0
   32.7362   32.7049   49.4100 C   0  0  1  0  0  0  0  0  0  0  0  0
   32.6027   33.2088   48.0703 O   0  0  0  0  0  0  0  0  0  0  0  0
   34.2144   32.7601   49.8482 C   0  0  2  0  0  0  0  0  0  0  0  0
   34.9988   31.9426   48.9629 O   0  0  0  0  0  0  0  0  0  0  0  0
   34.3130   32.2092   51.3040 C   0  0  2  0  0  0  0  0  0  0  0  0
   33.5089   33.0179   52.2137 O   0  0  0  0  0  0  0  0  0  0  0  0
   35.7636   32.2544   51.8114 C   0  0  0  0  0  0  0  0  0  0  0  0
   36.5531   31.2256   51.1887 O   0  0  0  0  0  0  0  0  0  0  0  0
  1  2  1  6  0  0  0
  1  3  1  0  0  0  0
  1  4  2  0  0  0  0
  1 16  1  0  0  0  0
  5  6  1  6  0  0  0
  5  7  1  0  0  0  0
  5 14  1  0  0  0  0
  7  8  1  6  0  0  0
  7  9  1  0  0  0  0
  9 10  1  6  0  0  0
  9 11  1  0  0  0  0
 11 12  1  6  0  0  0
 11 13  1  0  0  0  0
 13 14  1  0  0  0  0
 13 15  1  1  0  0  0
 15 16  1  0  0  0  0
M  CHG  1   3  -1
M  END
>  <CHROM.1>
-73.83158856,177.37334298,166.04105901,34.98431187,32.20521886,50.96315064
0.25776909,-0.22674548,1.69667136

>  <Name>
ligand

>  <RI>
0

>  <Rbt.Current_Directory>
/home/itssahil/PROJECTS/Mol_Feturizer/New_Systems/rnas/3B4A

>  <Rbt.Executable>
rbdock ($Id: //depot/dev/client3/rdock/2013.1/src/exe/rbdock.cxx#4 $)

>  <Rbt.Library>
libRbt.so (2013.1, Build901 2013/11/27)

>  <Rbt.Parameter_File>
/export/apps/rDock/src/rDock_2013.1_src/data/scripts/dock_solv.prm

>  <Rbt.Receptor>
prm/blind_docking_80.prm

>  <SCORE>
-8.14983

>  <SCORE.INTER>
-7.31081

>  <SCORE.INTER.CONST>
1

>  <SCORE.INTER.POLAR>
0

>  <SCORE.INTER.ROT>
3

>  <SCORE.INTER.SOLV>
16.4728

>  <SCORE.INTER.VDW>
-15.9648

>  <SCORE.INTER.norm>
-0.456926

>  <SCORE.INTRA>
-0.839014

>  <SCORE.INTRA.DIHEDRAL>
-1.05922

>  <SCORE.INTRA.DIHEDRAL.0>
2.05999

>  <SCORE.INTRA.POLAR>
0

>  <SCORE.INTRA.POLAR.0>
0

>  <SCORE.INTRA.REPUL>
0

>  <SCORE.INTRA.REPUL.0>
0

>  <SCORE.INTRA.SOLV>
-0.0522887

>  <SCORE.INTRA.SOLV.lig_0>
-58.7001

>  <SCORE.INTRA.VDW>
-0.28326

>  <SCORE.INTRA.VDW.0>
-0.401036

>  <SCORE.INTRA.norm>
-0.0524384

>  <SCORE.RESTR>
0

>  <SCORE.RESTR.CAVITY>
0

>  <SCORE.RESTR.norm>
0

>  <SCORE.SYSTEM>
0

>  <SCORE.SYSTEM.CONST>
0

>  <SCORE.SYSTEM.DIHEDRAL>
0

>  <SCORE.SYSTEM.SOLV>
0

>  <SCORE.SYSTEM.norm>
0

>  <SCORE.heavy>
16

>  <SCORE.norm>
-0.509364

>  <RMSD>
14.286

$$$$
ligand
 OpenBabel11021811463D
libRbt.so/2013.1/901 2013/11/27
 16 16  0  0  0  0  0  0  0  0999 V2000
   55.8849   32.3821   64.1858 P   0  0  2  0  0  0  0  0  0  0  0  0
   56.6079   33.4012   63.3850 O   0  0  0  0  0  0  0  0  0  0  0  0
   56.9565   31.4299   64.9248 O   0  5  0  0  0  0  0  0  0  0  0  0
   54.9548   31.5042   63.1951 O   0  0  0  0  0  0  0  0  0  0  0  0
   51.2281   33.8725   67.1184 C   0  0  2  0  0  0  0  0  0  0  0  0
   51.7729   35.0633   67.7311 O   0  0  0  0  0  0  0  0  0  0  0  0
   50.6885   32.8879   68.1961 C   0  0  2  0  0  0  0  0  0  0  0  0
   49.6555   33.5602   69.0054 N   0  0  0  0  0  0  0  0  0  0  0  0
   51.8633   32.4476   69.0969 C   0  0  1  0  0  0  0  0  0  0  0  0
   51.3949   31.5305   70.1000 O   0  0  0  0  0  0  0  0  0  0  0  0
   52.9062   31.7542   68.1958 C   0  0  2  0  0  0  0  0  0  0  0  0
   54.0211   31.3362   69.0016 O   0  0  0  0  0  0  0  0  0  0  0  0
   53.3836   32.7805   67.1228 C   0  0  2  0  0  0  0  0  0  0  0  0
   52.2609   33.2282   66.3062 O   0  0  0  0  0  0  0  0  0  0  0  0
   54.4146   32.1453   66.1756 C   0  0  0  0  0  0  0  0  0  0  0  0
   54.9737   33.1349   65.2939 O   0  0  0  0  0  0  0  0  0  0  0  0
  1  2  1  6  0  0  0
  1  3  1  0  0  0  0
  1  4  2  0  0  0  0
  1 16  1  0  0  0  0
  5  6  1  1  0  0  0
  5  7  1  0  0  0  0
  5 14  1  0  0  0  0
  7  8  1  1  0  0  0
  7  9  1  0  0  0  0
  9 10  1  1  0  0  0
  9 11  1  0  0  0  0
 11 12  1  1  0  0  0
 11 13  1  0  0  0  0
 13 14  1  0  0  0  0
 13 15  1  6  0  0  0
 15 16  1  0  0  0  0
M  CHG  1   3  -1
M  END
>  <CHROM.1>
-172.92519296,-171.94416851,-172.57269921,53.56029278,32.62873829,66.57930896
0.54627931,0.58717651,-0.95291720

>  <Name>
ligand

>  <RI>
0

>  <Rbt.Current_Directory>
/home/itssahil/PROJECTS/Mol_Feturizer/New_Systems/rnas/3B4A

>  <Rbt.Executable>
rbdock ($Id: //depot/dev/client3/rdock/2013.1/src/exe/rbdock.cxx#4 $)

>  <Rbt.Library>
libRbt.so (2013.1, Build901 2013/11/27)

>  <Rbt.Parameter_File>
/export/apps/rDock/src/rDock_2013.1_src/data/scripts/dock_solv.prm

>  <Rbt.Receptor>
prm/blind_docking_100.prm

>  <SCORE>
-8.26859

>  <SCORE.INTER>
-7.09032

>  <SCORE.INTER.CONST>
1

>  <SCORE.INTER.POLAR>
0

>  <SCORE.INTER.ROT>
3

>  <SCORE.INTER.SOLV>
12.8438

>  <SCORE.INTER.VDW>
-14.6081

>  <SCORE.INTER.norm>
-0.443145

>  <SCORE.INTRA>
-1.17827

>  <SCORE.INTRA.DIHEDRAL>
-1.47123

>  <SCORE.INTRA.DIHEDRAL.0>
2.05999

>  <SCORE.INTRA.POLAR>
0

>  <SCORE.INTRA.POLAR.0>
0

>  <SCORE.INTRA.REPUL>
0

>  <SCORE.INTRA.REPUL.0>
0

>  <SCORE.INTRA.SOLV>
-0.383312

>  <SCORE.INTRA.SOLV.lig_0>
-58.7001

>  <SCORE.INTRA.VDW>
-0.250994

>  <SCORE.INTRA.VDW.0>
-0.401036

>  <SCORE.INTRA.norm>
-0.0736416

>  <SCORE.RESTR>
0

>  <SCORE.RESTR.CAVITY>
0

>  <SCORE.RESTR.norm>
0

>  <SCORE.SYSTEM>
0

>  <SCORE.SYSTEM.CONST>
0

>  <SCORE.SYSTEM.DIHEDRAL>
0

>  <SCORE.SYSTEM.SOLV>
0

>  <SCORE.SYSTEM.norm>
0

>  <SCORE.heavy>
16

>  <SCORE.norm>
-0.516787

>  <RMSD>
14.350

$$$$
ligand
 OpenBabel11021811463D
libRbt.so/2013.1/901 2013/11/27
 16 16  0  0  0  0  0  0  0  0999 V2000
   51.7929   33.9292   66.7659 P   0  0  2  0  0  0  0  0  0  0  0  0
   51.5248   34.6736   65.5104 O   0  0  0  0  0  0  0  0  0  0  0  0
   51.0865   32.4816   66.6856 O   0  5  0  0  0  0  0  0  0  0  0  0
   51.1910   34.7706   68.0097 O   0  0  0  0  0  0  0  0  0  0  0  0
   56.6662   31.2812   67.7404 C   0  0  2  0  0  0  0  0  0  0  0  0
   57.5254   32.4267   67.9398 O   0  0  0  0  0  0  0  0  0  0  0  0
   57.2333   30.3446   66.6345 C   0  0  2  0  0  0  0  0  0  0  0  0
   58.5891   29.9027   67.0098 N   0  0  0  0  0  0  0  0  0  0  0  0
   57.2804   31.1240   65.3019 C   0  0  1  0  0  0  0  0  0  0  0  0
   57.7952   30.2800   64.2582 O   0  0  0  0  0  0  0  0  0  0  0  0
   55.8385   31.5574   64.9650 C   0  0  2  0  0  0  0  0  0  0  0  0
   55.8447   32.2945   63.7306 O   0  0  0  0  0  0  0  0  0  0  0  0
   55.3191   32.4659   66.1215 C   0  0  2  0  0  0  0  0  0  0  0  0
   55.3220   31.7383   67.3858 O   0  0  0  0  0  0  0  0  0  0  0  0
   53.8741   32.9193   65.8570 C   0  0  0  0  0  0  0  0  0  0  0  0
   53.3935   33.7429   66.9341 O   0  0  0  0  0  0  0  0  0  0  0  0
  1  2  1  6  0  0  0
  1  3  1  0  0  0  0
  1  4  2  0  0  0  0
  1 16  1  0  0  0  0
  5  6  1  6  0  0  0
  5  7  1  0  0  0  0
  5 14  1  0  0  0  0
  7  8  1  1  0  0  0
  7  9  1  0  0  0  0
  9 10  1  6  0  0  0
  9 11  1  0  0  0  0
 11 12  1  6  0  0  0
 11 13  1  0  0  0  0
 13 14  1  0  0  0  0
 13 15  1  6  0  0  0
 15 16  1  0  0  0  0
M  CHG  1   3  -1
M  END
>  <CHROM.1>
179.27167979,-168.13689897,-64.29999685,54.72074549,32.41171158,66.33741918
-2.99116342,0.48658996,-1.65309081

>  <Name>
ligand

>  <RI>
0

>  <Rbt.Current_Directory>
/home/itssahil/PROJECTS/Mol_Feturizer/New_Systems/rnas/3B4A

>  <Rbt.Executable>
rbdock ($Id: //depot/dev/client3/rdock/2013.1/src/exe/rbdock.cxx#4 $)

>  <Rbt.Library>
libRbt.so (2013.1, Build901 2013/11/27)

>  <Rbt.Parameter_File>
/export/apps/rDock/src/rDock_2013.1_src/data/scripts/dock_solv.prm

>  <Rbt.Receptor>
prm/blind_docking_100.prm

>  <SCORE>
-11.2572

>  <SCORE.INTER>
-10.0501

>  <SCORE.INTER.CONST>
1

>  <SCORE.INTER.POLAR>
0

>  <SCORE.INTER.ROT>
3

>  <SCORE.INTER.SOLV>
16.4284

>  <SCORE.INTER.VDW>
-17.7762

>  <SCORE.INTER.norm>
-0.628132

>  <SCORE.INTRA>
-1.20707

>  <SCORE.INTRA.DIHEDRAL>
-1.35326

>  <SCORE.INTRA.DIHEDRAL.0>
2.05999

>  <SCORE.INTRA.POLAR>
0

>  <SCORE.INTRA.POLAR.0>
0

>  <SCORE.INTRA.REPUL>
0

>  <SCORE.INTRA.REPUL.0>
0

>  <SCORE.INTRA.SOLV>
-0.863898

>  <SCORE.INTRA.SOLV.lig_0>
-58.7001

>  <SCORE.INTRA.VDW>
-0.0984951

>  <SCORE.INTRA.VDW.0>
-0.401036

>  <SCORE.INTRA.norm>
-0.075442

>  <SCORE.RESTR>
0

>  <SCORE.RESTR.CAVITY>
0

>  <SCORE.RESTR.norm>
0

>  <SCORE.SYSTEM>
0

>  <SCORE.SYSTEM.CONST>
0

>  <SCORE.SYSTEM.DIHEDRAL>
0

>  <SCORE.SYSTEM.SOLV>
0

>  <SCORE.SYSTEM.norm>
0

>  <SCORE.heavy>
16

>  <SCORE.norm>
-0.703574

>  <RMSD>
15.278

$$$$
ligand
 OpenBabel11021811463D
libRbt.so/2013.1/901 2013/11/27
 16 16  0  0  0  0  0  0  0  0999 V2000
   34.2895   32.0795   50.5699 P   0  0  2  0  0  0  0  0  0  0  0  0
   35.0630   31.6719   51.7691 O   0  0  0  0  0  0  0  0  0  0  0  0
   35.1486   33.1499   49.7230 O   0  5  0  0  0  0  0  0  0  0  0  0
   32.8950   32.7445   51.0500 O   0  0  0  0  0  0  0  0  0  0  0  0
   33.8263   26.8101   48.3296 C   0  0  2  0  0  0  0  0  0  0  0  0
   33.1797   27.2193   47.1030 O   0  0  0  0  0  0  0  0  0  0  0  0
   32.9616   25.7664   49.0945 C   0  0  2  0  0  0  0  0  0  0  0  0
   32.7239   24.5950   48.2310 N   0  0  0  0  0  0  0  0  0  0  0  0
   31.6173   26.4230   49.4779 C   0  0  1  0  0  0  0  0  0  0  0  0
   30.7986   25.4823   50.1930 O   0  0  0  0  0  0  0  0  0  0  0  0
   31.9319   27.6367   50.3770 C   0  0  2  0  0  0  0  0  0  0  0  0
   30.7005   28.2792   50.7484 O   0  0  0  0  0  0  0  0  0  0  0  0
   32.8222   28.6274   49.5656 C   0  0  2  0  0  0  0  0  0  0  0  0
   34.0699   27.9860   49.1659 O   0  0  0  0  0  0  0  0  0  0  0  0
   33.1898   29.8561   50.4135 C   0  0  0  0  0  0  0  0  0  0  0  0
   34.0049   30.7702   49.6590 O   0  0  0  0  0  0  0  0  0  0  0  0
  1  2  1  1  0  0  0
  1  3  1  0  0  0  0
  1  4  2  0  0  0  0
  1 16  1  0  0  0  0
  5  6  1  6  0  0  0
  5  7  1  0  0  0  0
  5 14  1  0  0  0  0
  7  8  1  6  0  0  0
  7  9  1  0  0  0  0
  9 10  1  1  0  0  0
  9 11  1  0  0  0  0
 11 12  1  6  0  0  0
 11 13  1  0  0  0  0
 13 14  1  0  0  0  0
 13 15  1  1  0  0  0
 15 16  1  0  0  0  0
M  CHG  1   3  -1
M  END
>  <CHROM.1>
-179.69529585,176.79847876,63.07512065,33.17666372,29.01500914,49.79443143
-1.17242049,-0.64707084,-2.64396790

>  <Name>
ligand

>  <RI>
0

>  <Rbt.Current_Directory>
/home/itssahil/PROJECTS/Mol_Feturizer/New_Systems/rnas/3B4A

>  <Rbt.Executable>
rbdock ($Id: //depot/dev/client3/rdock/2013.1/src/exe/rbdock.cxx#4 $)

>  <Rbt.Library>
libRbt.so (2013.1, Build901 2013/11/27)

>  <Rbt.Parameter_File>
/export/apps/rDock/src/rDock_2013.1_src/data/scripts/dock_solv.prm

>  <Rbt.Receptor>
prm/blind_docking_80.prm

>  <SCORE>
-10.0607

>  <SCORE.INTER>
-8.45867

>  <SCORE.INTER.CONST>
1

>  <SCORE.INTER.POLAR>
0

>  <SCORE.INTER.ROT>
3

>  <SCORE.INTER.SOLV>
15.3422

>  <SCORE.INTER.VDW>
-16.3532

>  <SCORE.INTER.norm>
-0.528667

>  <SCORE.INTRA>
-1.60203

>  <SCORE.INTRA.DIHEDRAL>
-1.99105

>  <SCORE.INTRA.DIHEDRAL.0>
2.05999

>  <SCORE.INTRA.POLAR>
0

>  <SCORE.INTRA.POLAR.0>
0

>  <SCORE.INTRA.REPUL>
0

>  <SCORE.INTRA.REPUL.0>
0

>  <SCORE.INTRA.SOLV>
-1.03517

>  <SCORE.INTRA.SOLV.lig_0>
-58.7001

>  <SCORE.INTRA.VDW>
-0.0889174

>  <SCORE.INTRA.VDW.0>
-0.401036

>  <SCORE.INTRA.norm>
-0.100127

>  <SCORE.RESTR>
0

>  <SCORE.RESTR.CAVITY>
0

>  <SCORE.RESTR.norm>
0

>  <SCORE.SYSTEM>
0

>  <SCORE.SYSTEM.CONST>
0

>  <SCORE.SYSTEM.DIHEDRAL>
0

>  <SCORE.SYSTEM.SOLV>
0

>  <SCORE.SYSTEM.norm>
0

>  <SCORE.heavy>
16

>  <SCORE.norm>
-0.628793

>  <RMSD>
17.106

$$$$
ligand
 OpenBabel11021811463D
libRbt.so/2013.1/901 2013/11/27
 16 16  0  0  0  0  0  0  0  0999 V2000
   33.0579   32.1885   50.9894 P   0  0  2  0  0  0  0  0  0  0  0  0
   34.2395   31.9638   51.8587 O   0  0  0  0  0  0  0  0  0  0  0  0
   33.5020   33.0556   49.7040 O   0  5  0  0  0  0  0  0  0  0  0  0
   31.9333   32.9875   51.8344 O   0  0  0  0  0  0  0  0  0  0  0  0
   33.7509   26.8528   47.8974 C   0  0  2  0  0  0  0  0  0  0  0  0
   32.8084   27.1762   46.8499 O   0  0  0  0  0  0  0  0  0  0  0  0
   33.1347   25.8442   48.9100 C   0  0  2  0  0  0  0  0  0  0  0  0
   32.7261   24.6188   48.1990 N   0  0  0  0  0  0  0  0  0  0  0  0
   31.9080   26.5019   49.5794 C   0  0  1  0  0  0  0  0  0  0  0  0
   31.3209   25.5938   50.5267 O   0  0  0  0  0  0  0  0  0  0  0  0
   32.3986   27.7730   50.3033 C   0  0  2  0  0  0  0  0  0  0  0  0
   31.2787   28.4176   50.9338 O   0  0  0  0  0  0  0  0  0  0  0  0
   33.0296   28.7262   49.2423 C   0  0  2  0  0  0  0  0  0  0  0  0
   34.1582   28.0812   48.5805 O   0  0  0  0  0  0  0  0  0  0  0  0
   33.5584   30.0099   49.9027 C   0  0  0  0  0  0  0  0  0  0  0  0
   32.4834   30.7537   50.5033 O   0  0  0  0  0  0  0  0  0  0  0  0
  1  2  1  1  0  0  0
  1  3  1  0  0  0  0
  1  4  2  0  0  0  0
  1 16  1  0  0  0  0
  5  6  1  6  0  0  0
  5  7  1  0  0  0  0
  5 14  1  0  0  0  0
  7  8  1  6  0  0  0
  7  9  1  0  0  0  0
  9 10  1  1  0  0  0
  9 11  1  0  0  0  0
 11 12  1  6  0  0  0
 11 13  1  0  0  0  0
 13 14  1  0  0  0  0
 13 15  1  1  0  0  0
 15 16  1  0  0  0  0
M  CHG  1   3  -1
M  END
>  <CHROM.1>
-62.98129851,-171.82666409,-53.63844994,32.83835704,29.10680355,49.85624754
-1.46476645,-0.91541261,-2.70219592

>  <Name>
ligand

>  <RI>
0

>  <Rbt.Current_Directory>
/home/itssahil/PROJECTS/Mol_Feturizer/New_Systems/rnas/3B4A

>  <Rbt.Executable>
rbdock ($Id: //depot/dev/client3/rdock/2013.1/src/exe/rbdock.cxx#4 $)

>  <Rbt.Library>
libRbt.so (2013.1, Build901 2013/11/27)

>  <Rbt.Parameter_File>
/export/apps/rDock/src/rDock_2013.1_src/data/scripts/dock_solv.prm

>  <Rbt.Receptor>
prm/blind_docking_80.prm

>  <SCORE>
-8.86999

>  <SCORE.INTER>
-7.77688

>  <SCORE.INTER.CONST>
1

>  <SCORE.INTER.POLAR>
0

>  <SCORE.INTER.ROT>
3

>  <SCORE.INTER.SOLV>
16.982

>  <SCORE.INTER.VDW>
-16.4453

>  <SCORE.INTER.norm>
-0.486055

>  <SCORE.INTRA>
-1.09311

>  <SCORE.INTRA.DIHEDRAL>
-1.63557

>  <SCORE.INTRA.DIHEDRAL.0>
2.05999

>  <SCORE.INTRA.POLAR>
0

>  <SCORE.INTRA.POLAR.0>
0

>  <SCORE.INTRA.REPUL>
0

>  <SCORE.INTRA.REPUL.0>
0

>  <SCORE.INTRA.SOLV>
-0.749325

>  <SCORE.INTRA.SOLV.lig_0>
-58.7001

>  <SCORE.INTRA.VDW>
0.0993388

>  <SCORE.INTRA.VDW.0>
-0.401036

>  <SCORE.INTRA.norm>
-0.0683192

>  <SCORE.RESTR>
0

>  <SCORE.RESTR.CAVITY>
0

>  <SCORE.RESTR.norm>
0

>  <SCORE.SYSTEM>
0

>  <SCORE.SYSTEM.CONST>
0

>  <SCORE.SYSTEM.DIHEDRAL>
0

>  <SCORE.SYSTEM.SOLV>
0

>  <SCORE.SYSTEM.norm>
0

>  <SCORE.heavy>
16

>  <SCORE.norm>
-0.554374

>  <RMSD>
17.378

$$$$
ligand
 OpenBabel11021811463D
libRbt.so/2013.1/901 2013/11/27
 16 16  0  0  0  0  0  0  0  0999 V2000
   32.9929   32.1540   50.8930 P   0  0  2  0  0  0  0  0  0  0  0  0
   34.1541   31.9297   51.7896 O   0  0  0  0  0  0  0  0  0  0  0  0
   33.4599   33.0459   49.6330 O   0  5  0  0  0  0  0  0  0  0  0  0
   31.8371   32.9267   51.7202 O   0  0  0  0  0  0  0  0  0  0  0  0
   33.8368   26.7930   47.8659 C   0  0  2  0  0  0  0  0  0  0  0  0
   32.8823   27.0453   46.8098 O   0  0  0  0  0  0  0  0  0  0  0  0
   33.2570   25.8020   48.9165 C   0  0  2  0  0  0  0  0  0  0  0  0
   32.8895   24.5380   48.2521 N   0  0  0  0  0  0  0  0  0  0  0  0
   32.0096   26.4417   49.5647 C   0  0  1  0  0  0  0  0  0  0  0  0
   31.4553   25.5496   50.5463 O   0  0  0  0  0  0  0  0  0  0  0  0
   32.4575   27.7545   50.2401 C   0  0  2  0  0  0  0  0  0  0  0  0
   31.3172   28.3834   50.8495 O   0  0  0  0  0  0  0  0  0  0  0  0
   33.0540   28.6890   49.1430 C   0  0  2  0  0  0  0  0  0  0  0  0
   34.2030   28.0589   48.5022 O   0  0  0  0  0  0  0  0  0  0  0  0
   33.5396   30.0134   49.7544 C   0  0  0  0  0  0  0  0  0  0  0  0
   32.4486   30.7202   50.3704 O   0  0  0  0  0  0  0  0  0  0  0  0
  1  2  1  1  0  0  0
  1  3  1  0  0  0  0
  1  4  2  0  0  0  0
  1 16  1  0  0  0  0
  5  6  1  6  0  0  0
  5  7  1  0  0  0  0
  5 14  1  0  0  0  0
  7  8  1  6  0  0  0
  7  9  1  0  0  0  0
  9 10  1  1  0  0  0
  9 11  1  0  0  0  0
 11 12  1  6  0  0  0
 11 13  1  0  0  0  0
 13 14  1  0  0  0  0
 13 15  1  1  0  0  0
 15 16  1  0  0  0  0
M  CHG  1   3  -1
M  END
>  <CHROM.1>
-61.00855785,-175.63435900,-55.19156513,32.86078791,29.06357776,49.79247271
-1.51072626,-0.92803846,-2.75144729

>  <Name>
ligand

>  <RI>
0

>  <Rbt.Current_Directory>
/home/itssahil/PROJECTS/Mol_Feturizer/New_Systems/rnas/3B4A

>  <Rbt.Executable>
rbdock ($Id: //depot/dev/client3/rdock/2013.1/src/exe/rbdock.cxx#4 $)

>  <Rbt.Library>
libRbt.so (2013.1, Build901 2013/11/27)

>  <Rbt.Parameter_File>
/export/apps/rDock/src/rDock_2013.1_src/data/scripts/dock_solv.prm

>  <Rbt.Receptor>
prm/blind_docking_100.prm

>  <SCORE>
-8.92659

>  <SCORE.INTER>
-7.72834

>  <SCORE.INTER.CONST>
1

>  <SCORE.INTER.POLAR>
0

>  <SCORE.INTER.ROT>
3

>  <SCORE.INTER.SOLV>
16.5047

>  <SCORE.INTER.VDW>
-16.2538

>  <SCORE.INTER.norm>
-0.483021

>  <SCORE.INTRA>
-1.19826

>  <SCORE.INTRA.DIHEDRAL>
-1.92256

>  <SCORE.INTRA.DIHEDRAL.0>
2.05999

>  <SCORE.INTRA.POLAR>
0

>  <SCORE.INTRA.POLAR.0>
0

>  <SCORE.INTRA.REPUL>
0

>  <SCORE.INTRA.REPUL.0>
0

>  <SCORE.INTRA.SOLV>
-0.706521

>  <SCORE.INTRA.SOLV.lig_0>
-58.7001

>  <SCORE.INTRA.VDW>
0.116285

>  <SCORE.INTRA.VDW.0>
-0.401036

>  <SCORE.INTRA.norm>
-0.074891

>  <SCORE.RESTR>
0

>  <SCORE.RESTR.CAVITY>
0

>  <SCORE.RESTR.norm>
0

>  <SCORE.SYSTEM>
0

>  <SCORE.SYSTEM.CONST>
0

>  <SCORE.SYSTEM.DIHEDRAL>
0

>  <SCORE.SYSTEM.SOLV>
0

>  <SCORE.SYSTEM.norm>
0

>  <SCORE.heavy>
16

>  <SCORE.norm>
-0.557912

>  <RMSD>
17.386

$$$$
ligand
 OpenBabel11021811463D
libRbt.so/2013.1/901 2013/11/27
 16 16  0  0  0  0  0  0  0  0999 V2000
   35.5508   24.8477   46.6092 P   0  0  2  0  0  0  0  0  0  0  0  0
   36.9845   24.9927   46.2543 O   0  0  0  0  0  0  0  0  0  0  0  0
   35.3266   23.4291   47.3429 O   0  5  0  0  0  0  0  0  0  0  0  0
   34.6689   24.9158   45.2545 O   0  0  0  0  0  0  0  0  0  0  0  0
   33.1095   29.3526   49.1516 C   0  0  2  0  0  0  0  0  0  0  0  0
   33.9947   29.4155   50.2929 O   0  0  0  0  0  0  0  0  0  0  0  0
   31.6259   29.2225   49.6031 C   0  0  2  0  0  0  0  0  0  0  0  0
   31.2687   30.3683   50.4598 N   0  0  0  0  0  0  0  0  0  0  0  0
   31.4613   27.9027   50.3884 C   0  0  1  0  0  0  0  0  0  0  0  0
   30.0963   27.7521   50.8134 O   0  0  0  0  0  0  0  0  0  0  0  0
   31.8485   26.7470   49.4424 C   0  0  2  0  0  0  0  0  0  0  0  0
   31.7143   25.4993   50.1440 O   0  0  0  0  0  0  0  0  0  0  0  0
   33.3313   26.9510   49.0039 C   0  0  2  0  0  0  0  0  0  0  0  0
   33.4889   28.2213   48.3044 O   0  0  0  0  0  0  0  0  0  0  0  0
   33.7771   25.8390   48.0404 C   0  0  0  0  0  0  0  0  0  0  0  0
   35.1345   26.0492   47.6132 O   0  0  0  0  0  0  0  0  0  0  0  0
  1  2  1  6  0  0  0
  1  3  1  0  0  0  0
  1  4  2  0  0  0  0
  1 16  1  0  0  0  0
  5  6  1  1  0  0  0
  5  7  1  0  0  0  0
  5 14  1  0  0  0  0
  7  8  1  1  0  0  0
  7  9  1  0  0  0  0
  9 10  1  6  0  0  0
  9 11  1  0  0  0  0
 11 12  1  1  0  0  0
 11 13  1  0  0  0  0
 13 14  1  0  0  0  0
 13 15  1  6  0  0  0
 15 16  1  0  0  0  0
M  CHG  1   3  -1
M  END
>  <CHROM.1>
178.59272624,179.72814683,-175.24683789,33.54352330,26.76206420,48.48814137
-0.77754431,0.59381874,0.22792230

>  <Name>
ligand

>  <RI>
0

>  <Rbt.Current_Directory>
/home/itssahil/PROJECTS/Mol_Feturizer/New_Systems/rnas/3B4A

>  <Rbt.Executable>
rbdock ($Id: //depot/dev/client3/rdock/2013.1/src/exe/rbdock.cxx#4 $)

>  <Rbt.Library>
libRbt.so (2013.1, Build901 2013/11/27)

>  <Rbt.Parameter_File>
/export/apps/rDock/src/rDock_2013.1_src/data/scripts/dock_solv.prm

>  <Rbt.Receptor>
prm/blind_docking_100.prm

>  <SCORE>
-10.0812

>  <SCORE.INTER>
-8.64726

>  <SCORE.INTER.CONST>
1

>  <SCORE.INTER.POLAR>
0

>  <SCORE.INTER.ROT>
3

>  <SCORE.INTER.SOLV>
10.948

>  <SCORE.INTER.VDW>
-15.0142

>  <SCORE.INTER.norm>
-0.540454

>  <SCORE.INTRA>
-1.43389

>  <SCORE.INTRA.DIHEDRAL>
-2.01334

>  <SCORE.INTRA.DIHEDRAL.0>
2.05999

>  <SCORE.INTRA.POLAR>
0

>  <SCORE.INTRA.POLAR.0>
0

>  <SCORE.INTRA.REPUL>
0

>  <SCORE.INTRA.REPUL.0>
0

>  <SCORE.INTRA.SOLV>
-0.406395

>  <SCORE.INTRA.SOLV.lig_0>
-58.7001

>  <SCORE.INTRA.VDW>
-0.224028

>  <SCORE.INTRA.VDW.0>
-0.401036

>  <SCORE.INTRA.norm>
-0.0896184

>  <SCORE.RESTR>
0

>  <SCORE.RESTR.CAVITY>
0

>  <SCORE.RESTR.norm>
0

>  <SCORE.SYSTEM>
0

>  <SCORE.SYSTEM.CONST>
0

>  <SCORE.SYSTEM.DIHEDRAL>
0

>  <SCORE.SYSTEM.SOLV>
0

>  <SCORE.SYSTEM.norm>
0

>  <SCORE.heavy>
16

>  <SCORE.norm>
-0.630072

>  <RMSD>
17.768

$$$$
ligand
 OpenBabel11021811463D
libRbt.so/2013.1/901 2013/11/27
 16 16  0  0  0  0  0  0  0  0999 V2000
   35.9816   22.4781   49.9295 P   0  0  2  0  0  0  0  0  0  0  0  0
   36.7442   22.4460   51.2022 O   0  0  0  0  0  0  0  0  0  0  0  0
   34.8826   21.2978   49.9394 O   0  5  0  0  0  0  0  0  0  0  0  0
   37.0108   22.2659   48.6994 O   0  0  0  0  0  0  0  0  0  0  0  0
   32.1456   26.5984   50.1111 C   0  0  2  0  0  0  0  0  0  0  0  0
   30.9278   26.3578   49.3699 O   0  0  0  0  0  0  0  0  0  0  0  0
   32.9078   27.8320   49.5461 C   0  0  2  0  0  0  0  0  0  0  0  0
   32.0356   29.0196   49.6037 N   0  0  0  0  0  0  0  0  0  0  0  0
   33.3077   27.5394   48.0832 C   0  0  1  0  0  0  0  0  0  0  0  0
   34.0207   28.6614   47.5361 O   0  0  0  0  0  0  0  0  0  0  0  0
   34.2152   26.2917   48.0896 C   0  0  2  0  0  0  0  0  0  0  0  0
   34.6021   25.9840   46.7394 O   0  0  0  0  0  0  0  0  0  0  0  0
   33.4058   25.1025   48.6923 C   0  0  2  0  0  0  0  0  0  0  0  0
   32.9905   25.4048   50.0576 O   0  0  0  0  0  0  0  0  0  0  0  0
   34.2618   23.8265   48.7457 C   0  0  0  0  0  0  0  0  0  0  0  0
   35.2369   23.9112   49.7998 O   0  0  0  0  0  0  0  0  0  0  0  0
  1  2  1  1  0  0  0
  1  3  1  0  0  0  0
  1  4  2  0  0  0  0
  1 16  1  0  0  0  0
  5  6  1  6  0  0  0
  5  7  1  0  0  0  0
  5 14  1  0  0  0  0
  7  8  1  6  0  0  0
  7  9  1  0  0  0  0
  9 10  1  1  0  0  0
  9 11  1  0  0  0  0
 11 12  1  6  0  0  0
 11 13  1  0  0  0  0
 13 14  1  0  0  0  0
 13 15  1  1  0  0  0
 15 16  1  0  0  0  0
M  CHG  1   3  -1
M  END
>  <CHROM.1>
74.05655879,173.05005353,-166.58887521,34.22163149,25.04712962,49.19421065
0.87950539,-0.61403708,2.49866363

>  <Name>
ligand

>  <RI>
0

>  <Rbt.Current_Directory>
/home/itssahil/PROJECTS/Mol_Feturizer/New_Systems/rnas/3B4A

>  <Rbt.Executable>
rbdock ($Id: //depot/dev/client3/rdock/2013.1/src/exe/rbdock.cxx#4 $)

>  <Rbt.Library>
libRbt.so (2013.1, Build901 2013/11/27)

>  <Rbt.Parameter_File>
/export/apps/rDock/src/rDock_2013.1_src/data/scripts/dock_solv.prm

>  <Rbt.Receptor>
prm/blind_docking_100.prm

>  <SCORE>
-12.8333

>  <SCORE.INTER>
-12.0784

>  <SCORE.INTER.CONST>
1

>  <SCORE.INTER.POLAR>
0

>  <SCORE.INTER.ROT>
3

>  <SCORE.INTER.SOLV>
16.6134

>  <SCORE.INTER.VDW>
-19.19

>  <SCORE.INTER.norm>
-0.754897

>  <SCORE.INTRA>
-0.754902

>  <SCORE.INTRA.DIHEDRAL>
-0.851009

>  <SCORE.INTRA.DIHEDRAL.0>
2.05999

>  <SCORE.INTRA.POLAR>
0

>  <SCORE.INTRA.POLAR.0>
0

>  <SCORE.INTRA.REPUL>
0

>  <SCORE.INTRA.REPUL.0>
0

>  <SCORE.INTRA.SOLV>
-0.224739

>  <SCORE.INTRA.SOLV.lig_0>
-58.7001

>  <SCORE.INTRA.VDW>
-0.217027

>  <SCORE.INTRA.VDW.0>
-0.401036

>  <SCORE.INTRA.norm>
-0.0471813

>  <SCORE.RESTR>
0

>  <SCORE.RESTR.CAVITY>
0

>  <SCORE.RESTR.norm>
0

>  <SCORE.SYSTEM>
0

>  <SCORE.SYSTEM.CONST>
0

>  <SCORE.SYSTEM.DIHEDRAL>
0

>  <SCORE.SYSTEM.SOLV>
0

>  <SCORE.SYSTEM.norm>
0

>  <SCORE.heavy>
16

>  <SCORE.norm>
-0.802079

>  <RMSD>
17.788

$$$$
ligand
 OpenBabel11021811463D
libRbt.so/2013.1/901 2013/11/27
 16 16  0  0  0  0  0  0  0  0999 V2000
   35.9619   22.4508   49.9322 P   0  0  2  0  0  0  0  0  0  0  0  0
   36.7407   22.4190   51.1951 O   0  0  0  0  0  0  0  0  0  0  0  0
   34.8475   21.2855   49.9665 O   0  5  0  0  0  0  0  0  0  0  0  0
   36.9720   22.2144   48.6907 O   0  0  0  0  0  0  0  0  0  0  0  0
   32.1475   26.5810   50.1183 C   0  0  2  0  0  0  0  0  0  0  0  0
   30.9341   26.3494   49.3672 O   0  0  0  0  0  0  0  0  0  0  0  0
   32.9139   27.8203   49.5716 C   0  0  2  0  0  0  0  0  0  0  0  0
   32.0421   29.0077   49.6371 N   0  0  0  0  0  0  0  0  0  0  0  0
   33.3224   27.5436   48.1080 C   0  0  1  0  0  0  0  0  0  0  0  0
   34.0394   28.6711   47.5777 O   0  0  0  0  0  0  0  0  0  0  0  0
   34.2291   26.2952   48.1061 C   0  0  2  0  0  0  0  0  0  0  0  0
   34.6240   26.0023   46.7550 O   0  0  0  0  0  0  0  0  0  0  0  0
   33.4154   25.1000   48.6908 C   0  0  2  0  0  0  0  0  0  0  0  0
   32.9921   25.3875   50.0568 O   0  0  0  0  0  0  0  0  0  0  0  0
   34.2703   23.8230   48.7352 C   0  0  0  0  0  0  0  0  0  0  0  0
   35.2350   23.8927   49.8000 O   0  0  0  0  0  0  0  0  0  0  0  0
  1  2  1  1  0  0  0
  1  3  1  0  0  0  0
  1  4  2  0  0  0  0
  1 16  1  0  0  0  0
  5  6  1  6  0  0  0
  5  7  1  0  0  0  0
  5 14  1  0  0  0  0
  7  8  1  6  0  0  0
  7  9  1  0  0  0  0
  9 10  1  1  0  0  0
  9 11  1  0  0  0  0
 11 12  1  6  0  0  0
 11 13  1  0  0  0  0
 13 14  1  0  0  0  0
 13 15  1  1  0  0  0
 15 16  1  0  0  0  0
M  CHG  1   3  -1
M  END
>  <CHROM.1>
74.32535670,172.20768120,-168.12362937,34.22048925,25.03489050,49.20368176
0.88901576,-0.61247095,2.51088030

>  <Name>
ligand

>  <RI>
0

>  <Rbt.Current_Directory>
/home/itssahil/PROJECTS/Mol_Feturizer/New_Systems/rnas/3B4A

>  <Rbt.Executable>
rbdock ($Id: //depot/dev/client3/rdock/2013.1/src/exe/rbdock.cxx#4 $)

>  <Rbt.Library>
libRbt.so (2013.1, Build901 2013/11/27)

>  <Rbt.Parameter_File>
/export/apps/rDock/src/rDock_2013.1_src/data/scripts/dock_solv.prm

>  <Rbt.Receptor>
prm/blind_docking_100.prm

>  <SCORE>
-12.8364

>  <SCORE.INTER>
-12.0705

>  <SCORE.INTER.CONST>
1

>  <SCORE.INTER.POLAR>
0

>  <SCORE.INTER.ROT>
3

>  <SCORE.INTER.SOLV>
16.6883

>  <SCORE.INTER.VDW>
-19.2098

>  <SCORE.INTER.norm>
-0.754406

>  <SCORE.INTRA>
-0.765897

>  <SCORE.INTRA.DIHEDRAL>
-0.825343

>  <SCORE.INTRA.DIHEDRAL.0>
2.05999

>  <SCORE.INTRA.POLAR>
0

>  <SCORE.INTRA.POLAR.0>
0

>  <SCORE.INTRA.REPUL>
0

>  <SCORE.INTRA.REPUL.0>
0

>  <SCORE.INTRA.SOLV>
-0.219946

>  <SCORE.INTRA.SOLV.lig_0>
-58.7001

>  <SCORE.INTRA.VDW>
-0.243253

>  <SCORE.INTRA.VDW.0>
-0.401036

>  <SCORE.INTRA.norm>
-0.0478686

>  <SCORE.RESTR>
0

>  <SCORE.RESTR.CAVITY>
0

>  <SCORE.RESTR.norm>
0

>  <SCORE.SYSTEM>
0

>  <SCORE.SYSTEM.CONST>
0

>  <SCORE.SYSTEM.DIHEDRAL>
0

>  <SCORE.SYSTEM.SOLV>
0

>  <SCORE.SYSTEM.norm>
0

>  <SCORE.heavy>
16

>  <SCORE.norm>
-0.802274

>  <RMSD>
17.792

$$$$
ligand
 OpenBabel11021811463D
libRbt.so/2013.1/901 2013/11/27
 16 16  0  0  0  0  0  0  0  0999 V2000
   35.8029   22.3528   49.6909 P   0  0  2  0  0  0  0  0  0  0  0  0
   34.7411   21.3586   49.9854 O   0  0  0  0  0  0  0  0  0  0  0  0
   36.4719   22.0079   48.2645 O   0  5  0  0  0  0  0  0  0  0  0  0
   36.9209   22.2826   50.8582 O   0  0  0  0  0  0  0  0  0  0  0  0
   32.2131   26.6848   50.1802 C   0  0  2  0  0  0  0  0  0  0  0  0
   30.9556   26.5494   49.4799 O   0  0  0  0  0  0  0  0  0  0  0  0
   33.0366   27.8813   49.6213 C   0  0  2  0  0  0  0  0  0  0  0  0
   32.2502   29.1224   49.7458 N   0  0  0  0  0  0  0  0  0  0  0  0
   33.3621   27.6076   48.1365 C   0  0  1  0  0  0  0  0  0  0  0  0
   34.1296   28.6954   47.5942 O   0  0  0  0  0  0  0  0  0  0  0  0
   34.1820   26.3021   48.0728 C   0  0  2  0  0  0  0  0  0  0  0  0
   34.4976   26.0108   46.7007 O   0  0  0  0  0  0  0  0  0  0  0  0
   33.3158   25.1520   48.6725 C   0  0  2  0  0  0  0  0  0  0  0  0
   32.9722   25.4394   50.0607 O   0  0  0  0  0  0  0  0  0  0  0  0
   34.0842   23.8204   48.6570 C   0  0  0  0  0  0  0  0  0  0  0  0
   35.1385   23.8294   49.6355 O   0  0  0  0  0  0  0  0  0  0  0  0
  1  2  1  1  0  0  0
  1  3  1  0  0  0  0
  1  4  2  0  0  0  0
  1 16  1  0  0  0  0
  5  6  1  6  0  0  0
  5  7  1  0  0  0  0
  5 14  1  0  0  0  0
  7  8  1  6  0  0  0
  7  9  1  0  0  0  0
  9 10  1  1  0  0  0
  9 11  1  0  0  0  0
 11 12  1  6  0  0  0
 11 13  1  0  0  0  0
 13 14  1  0  0  0  0
 13 15  1  1  0  0  0
 15 16  1  0  0  0  0
M  CHG  1   3  -1
M  END
>  <CHROM.1>
71.54164314,173.72631527,-56.37181555,34.17097447,25.04086756,49.12763802
0.89136428,-0.69307183,2.52941393

>  <Name>
ligand

>  <RI>
0

>  <Rbt.Current_Directory>
/home/itssahil/PROJECTS/Mol_Feturizer/New_Systems/rnas/3B4A

>  <Rbt.Executable>
rbdock ($Id: //depot/dev/client3/rdock/2013.1/src/exe/rbdock.cxx#4 $)

>  <Rbt.Library>
libRbt.so (2013.1, Build901 2013/11/27)

>  <Rbt.Parameter_File>
/export/apps/rDock/src/rDock_2013.1_src/data/scripts/dock_solv.prm

>  <Rbt.Receptor>
prm/blind_docking_80.prm

>  <SCORE>
-12.2425

>  <SCORE.INTER>
-10.9608

>  <SCORE.INTER.CONST>
1

>  <SCORE.INTER.POLAR>
0

>  <SCORE.INTER.ROT>
3

>  <SCORE.INTER.SOLV>
16.1214

>  <SCORE.INTER.VDW>
-18.281

>  <SCORE.INTER.norm>
-0.68505

>  <SCORE.INTRA>
-1.28168

>  <SCORE.INTRA.DIHEDRAL>
-1.37293

>  <SCORE.INTRA.DIHEDRAL.0>
2.05999

>  <SCORE.INTRA.POLAR>
0

>  <SCORE.INTRA.POLAR.0>
0

>  <SCORE.INTRA.REPUL>
0

>  <SCORE.INTRA.REPUL.0>
0

>  <SCORE.INTRA.SOLV>
-0.914016

>  <SCORE.INTRA.SOLV.lig_0>
-58.7001

>  <SCORE.INTRA.VDW>
-0.138213

>  <SCORE.INTRA.VDW.0>
-0.401036

>  <SCORE.INTRA.norm>
-0.0801053

>  <SCORE.RESTR>
0

>  <SCORE.RESTR.CAVITY>
0

>  <SCORE.RESTR.norm>
0

>  <SCORE.SYSTEM>
0

>  <SCORE.SYSTEM.CONST>
0

>  <SCORE.SYSTEM.DIHEDRAL>
0

>  <SCORE.SYSTEM.SOLV>
0

>  <SCORE.SYSTEM.norm>
0

>  <SCORE.heavy>
16

>  <SCORE.norm>
-0.765156

>  <RMSD>
17.863

$$$$
ligand
 OpenBabel11021811463D
libRbt.so/2013.1/901 2013/11/27
 16 16  0  0  0  0  0  0  0  0999 V2000
   35.8458   22.3219   49.7456 P   0  0  2  0  0  0  0  0  0  0  0  0
   34.7846   21.3447   50.0939 O   0  0  0  0  0  0  0  0  0  0  0  0
   36.4905   21.9205   48.3228 O   0  5  0  0  0  0  0  0  0  0  0  0
   36.9820   22.2902   50.8968 O   0  0  0  0  0  0  0  0  0  0  0  0
   32.1974   26.5969   50.1303 C   0  0  2  0  0  0  0  0  0  0  0  0
   30.9582   26.4390   49.4025 O   0  0  0  0  0  0  0  0  0  0  0  0
   33.0096   27.8103   49.5917 C   0  0  2  0  0  0  0  0  0  0  0  0
   32.1969   29.0357   49.7015 N   0  0  0  0  0  0  0  0  0  0  0  0
   33.3724   27.5463   48.1138 C   0  0  1  0  0  0  0  0  0  0  0  0
   34.1304   28.6499   47.5904 O   0  0  0  0  0  0  0  0  0  0  0  0
   34.2184   26.2570   48.0654 C   0  0  2  0  0  0  0  0  0  0  0  0
   34.5692   25.9750   46.6999 O   0  0  0  0  0  0  0  0  0  0  0  0
   33.3618   25.0890   48.6440 C   0  0  2  0  0  0  0  0  0  0  0  0
   32.9826   25.3666   50.0249 O   0  0  0  0  0  0  0  0  0  0  0  0
   34.1558   23.7725   48.6426 C   0  0  0  0  0  0  0  0  0  0  0  0
   35.1871   23.7987   49.6451 O   0  0  0  0  0  0  0  0  0  0  0  0
  1  2  1  1  0  0  0
  1  3  1  0  0  0  0
  1  4  2  0  0  0  0
  1 16  1  0  0  0  0
  5  6  1  6  0  0  0
  5  7  1  0  0  0  0
  5 14  1  0  0  0  0
  7  8  1  6  0  0  0
  7  9  1  0  0  0  0
  9 10  1  1  0  0  0
  9 11  1  0  0  0  0
 11 12  1  6  0  0  0
 11 13  1  0  0  0  0
 13 14  1  0  0  0  0
 13 15  1  1  0  0  0
 15 16  1  0  0  0  0
M  CHG  1   3  -1
M  END
>  <CHROM.1>
71.62586999,171.91657055,-58.83633845,34.19617674,24.98794466,49.13012212
0.89497544,-0.66846214,2.52621958

>  <Name>
ligand

>  <RI>
0

>  <Rbt.Current_Directory>
/home/itssahil/PROJECTS/Mol_Feturizer/New_Systems/rnas/3B4A

>  <Rbt.Executable>
rbdock ($Id: //depot/dev/client3/rdock/2013.1/src/exe/rbdock.cxx#4 $)

>  <Rbt.Library>
libRbt.so (2013.1, Build901 2013/11/27)

>  <Rbt.Parameter_File>
/export/apps/rDock/src/rDock_2013.1_src/data/scripts/dock_solv.prm

>  <Rbt.Receptor>
prm/blind_docking_80.prm

>  <SCORE>
-12.2448

>  <SCORE.INTER>
-11.004

>  <SCORE.INTER.CONST>
1

>  <SCORE.INTER.POLAR>
0

>  <SCORE.INTER.ROT>
3

>  <SCORE.INTER.SOLV>
16.1868

>  <SCORE.INTER.VDW>
-18.3316

>  <SCORE.INTER.norm>
-0.687752

>  <SCORE.INTRA>
-1.24081

>  <SCORE.INTRA.DIHEDRAL>
-1.26053

>  <SCORE.INTRA.DIHEDRAL.0>
2.05999

>  <SCORE.INTRA.POLAR>
0

>  <SCORE.INTRA.POLAR.0>
0

>  <SCORE.INTRA.REPUL>
0

>  <SCORE.INTRA.REPUL.0>
0

>  <SCORE.INTRA.SOLV>
-0.891981

>  <SCORE.INTRA.SOLV.lig_0>
-58.7001

>  <SCORE.INTRA.VDW>
-0.164558

>  <SCORE.INTRA.VDW.0>
-0.401036

>  <SCORE.INTRA.norm>
-0.0775509

>  <SCORE.RESTR>
0

>  <SCORE.RESTR.CAVITY>
0

>  <SCORE.RESTR.norm>
0

>  <SCORE.SYSTEM>
0

>  <SCORE.SYSTEM.CONST>
0

>  <SCORE.SYSTEM.DIHEDRAL>
0

>  <SCORE.SYSTEM.SOLV>
0

>  <SCORE.SYSTEM.norm>
0

>  <SCORE.heavy>
16

>  <SCORE.norm>
-0.765303

>  <RMSD>
17.869

$$$$
ligand
 OpenBabel11021811463D
libRbt.so/2013.1/901 2013/11/27
 16 16  0  0  0  0  0  0  0  0999 V2000
   35.8187   22.4455   49.6675 P   0  0  2  0  0  0  0  0  0  0  0  0
   34.7878   21.4421   50.0320 O   0  0  0  0  0  0  0  0  0  0  0  0
   36.4281   22.0784   48.2201 O   0  5  0  0  0  0  0  0  0  0  0  0
   36.9893   22.4194   50.7838 O   0  0  0  0  0  0  0  0  0  0  0  0
   32.1744   26.7243   50.2103 C   0  0  2  0  0  0  0  0  0  0  0  0
   30.8954   26.5553   49.5577 O   0  0  0  0  0  0  0  0  0  0  0  0
   32.9562   27.9248   49.6024 C   0  0  2  0  0  0  0  0  0  0  0  0
   32.1529   29.1542   49.7344 N   0  0  0  0  0  0  0  0  0  0  0  0
   33.2337   27.6311   48.1117 C   0  0  1  0  0  0  0  0  0  0  0  0
   33.9621   28.7225   47.5244 O   0  0  0  0  0  0  0  0  0  0  0  0
   34.0738   26.3390   48.0405 C   0  0  2  0  0  0  0  0  0  0  0  0
   34.3457   26.0295   46.6631 O   0  0  0  0  0  0  0  0  0  0  0  0
   33.2499   25.1847   48.6898 C   0  0  2  0  0  0  0  0  0  0  0  0
   32.9506   25.4902   50.0845 O   0  0  0  0  0  0  0  0  0  0  0  0
   34.0407   23.8665   48.6690 C   0  0  0  0  0  0  0  0  0  0  0  0
   35.1283   23.9100   49.6095 O   0  0  0  0  0  0  0  0  0  0  0  0
  1  2  1  1  0  0  0
  1  3  1  0  0  0  0
  1  4  2  0  0  0  0
  1 16  1  0  0  0  0
  5  6  1  6  0  0  0
  5  7  1  0  0  0  0
  5 14  1  0  0  0  0
  7  8  1  6  0  0  0
  7  9  1  0  0  0  0
  9 10  1  1  0  0  0
  9 11  1  0  0  0  0
 11 12  1  6  0  0  0
 11 13  1  0  0  0  0
 13 14  1  0  0  0  0
 13 15  1  1  0  0  0
 15 16  1  0  0  0  0
M  CHG  1   3  -1
M  END
>  <CHROM.1>
71.57649049,173.63541442,-57.02647657,34.12172631,25.09576011,49.11670386
0.84583282,-0.71163026,2.48261013

>  <Name>
ligand

>  <RI>
0

>  <Rbt.Current_Directory>
/home/itssahil/PROJECTS/Mol_Feturizer/New_Systems/rnas/3B4A

>  <Rbt.Executable>
rbdock ($Id: //depot/dev/client3/rdock/2013.1/src/exe/rbdock.cxx#4 $)

>  <Rbt.Library>
libRbt.so (2013.1, Build901 2013/11/27)

>  <Rbt.Parameter_File>
/export/apps/rDock/src/rDock_2013.1_src/data/scripts/dock_solv.prm

>  <Rbt.Receptor>
prm/blind_docking_100.prm

>  <SCORE>
-12.1563

>  <SCORE.INTER>
-10.8706

>  <SCORE.INTER.CONST>
1

>  <SCORE.INTER.POLAR>
0

>  <SCORE.INTER.ROT>
3

>  <SCORE.INTER.SOLV>
16.1593

>  <SCORE.INTER.VDW>
-18.2335

>  <SCORE.INTER.norm>
-0.67941

>  <SCORE.INTRA>
-1.28573

>  <SCORE.INTRA.DIHEDRAL>
-1.37171

>  <SCORE.INTRA.DIHEDRAL.0>
2.05999

>  <SCORE.INTRA.POLAR>
0

>  <SCORE.INTRA.POLAR.0>
0

>  <SCORE.INTRA.REPUL>
0

>  <SCORE.INTRA.REPUL.0>
0

>  <SCORE.INTRA.SOLV>
-0.907699

>  <SCORE.INTRA.SOLV.lig_0>
-58.7001

>  <SCORE.INTRA.VDW>
-0.146031

>  <SCORE.INTRA.VDW.0>
-0.401036

>  <SCORE.INTRA.norm>
-0.0803583

>  <SCORE.RESTR>
0

>  <SCORE.RESTR.CAVITY>
0

>  <SCORE.RESTR.norm>
0

>  <SCORE.SYSTEM>
0

>  <SCORE.SYSTEM.CONST>
0

>  <SCORE.SYSTEM.DIHEDRAL>
0

>  <SCORE.SYSTEM.SOLV>
0

>  <SCORE.SYSTEM.norm>
0

>  <SCORE.heavy>
16

>  <SCORE.norm>
-0.759769

>  <RMSD>
17.875

$$$$
ligand
 OpenBabel11021811463D
libRbt.so/2013.1/901 2013/11/27
 16 16  0  0  0  0  0  0  0  0999 V2000
   36.2216   24.2011   45.8366 P   0  0  2  0  0  0  0  0  0  0  0  0
   36.3712   25.3202   44.8735 O   0  0  0  0  0  0  0  0  0  0  0  0
   37.4816   24.1955   46.8433 O   0  5  0  0  0  0  0  0  0  0  0  0
   36.1643   22.8093   45.0138 O   0  0  0  0  0  0  0  0  0  0  0  0
   31.9474   25.5047   49.5897 C   0  0  2  0  0  0  0  0  0  0  0  0
   30.9112   25.1814   48.6347 O   0  0  0  0  0  0  0  0  0  0  0  0
   31.8429   26.9894   50.0445 C   0  0  2  0  0  0  0  0  0  0  0  0
   30.5141   27.2318   50.6359 N   0  0  0  0  0  0  0  0  0  0  0  0
   32.0487   27.8997   48.8139 C   0  0  1  0  0  0  0  0  0  0  0  0
   31.9639   29.2803   49.2057 O   0  0  0  0  0  0  0  0  0  0  0  0
   33.4503   27.6001   48.2427 C   0  0  2  0  0  0  0  0  0  0  0  0
   33.6745   28.4265   47.0877 O   0  0  0  0  0  0  0  0  0  0  0  0
   33.4996   26.0955   47.8347 C   0  0  2  0  0  0  0  0  0  0  0  0
   33.2573   25.2421   48.9927 O   0  0  0  0  0  0  0  0  0  0  0  0
   34.8815   25.7238   47.2727 C   0  0  0  0  0  0  0  0  0  0  0  0
   34.8547   24.4134   46.6800 O   0  0  0  0  0  0  0  0  0  0  0  0
  1  2  1  6  0  0  0
  1  3  1  0  0  0  0
  1  4  2  0  0  0  0
  1 16  1  0  0  0  0
  5  6  1  6  0  0  0
  5  7  1  0  0  0  0
  5 14  1  0  0  0  0
  7  8  1  6  0  0  0
  7  9  1  0  0  0  0
  9 10  1  1  0  0  0
  9 11  1  0  0  0  0
 11 12  1  6  0  0  0
 11 13  1  0  0  0  0
 13 14  1  0  0  0  0
 13 15  1  1  0  0  0
 15 16  1  0  0  0  0
M  CHG  1   3  -1
M  END
>  <CHROM.1>
-169.71729475,168.13728269,-54.21430363,33.92593545,25.84449327,47.65065139
0.47621855,-0.67986672,3.10688749

>  <Name>
ligand

>  <RI>
0

>  <Rbt.Current_Directory>
/home/itssahil/PROJECTS/Mol_Feturizer/New_Systems/rnas/3B4A

>  <Rbt.Executable>
rbdock ($Id: //depot/dev/client3/rdock/2013.1/src/exe/rbdock.cxx#4 $)

>  <Rbt.Library>
libRbt.so (2013.1, Build901 2013/11/27)

>  <Rbt.Parameter_File>
/export/apps/rDock/src/rDock_2013.1_src/data/scripts/dock_solv.prm

>  <Rbt.Receptor>
prm/blind_docking_80.prm

>  <SCORE>
-7.33079

>  <SCORE.INTER>
-6.27101

>  <SCORE.INTER.CONST>
1

>  <SCORE.INTER.POLAR>
0

>  <SCORE.INTER.ROT>
3

>  <SCORE.INTER.SOLV>
18.4265

>  <SCORE.INTER.VDW>
-15.9228

>  <SCORE.INTER.norm>
-0.391938

>  <SCORE.INTRA>
-1.09362

>  <SCORE.INTRA.DIHEDRAL>
-0.95424

>  <SCORE.INTRA.DIHEDRAL.0>
2.05999

>  <SCORE.INTRA.POLAR>
0

>  <SCORE.INTRA.POLAR.0>
0

>  <SCORE.INTRA.REPUL>
0

>  <SCORE.INTRA.REPUL.0>
0

>  <SCORE.INTRA.SOLV>
-1.22308

>  <SCORE.INTRA.SOLV.lig_0>
-58.7001

>  <SCORE.INTRA.VDW>
-0.00495675

>  <SCORE.INTRA.VDW.0>
-0.401036

>  <SCORE.INTRA.norm>
-0.068351

>  <SCORE.RESTR>
0.0338338

>  <SCORE.RESTR.CAVITY>
0.0338338

>  <SCORE.RESTR.norm>
0.00211461

>  <SCORE.SYSTEM>
0

>  <SCORE.SYSTEM.CONST>
0

>  <SCORE.SYSTEM.DIHEDRAL>
0

>  <SCORE.SYSTEM.SOLV>
0

>  <SCORE.SYSTEM.norm>
0

>  <SCORE.heavy>
16

>  <SCORE.norm>
-0.458175

>  <RMSD>
17.965

$$$$
ligand
 OpenBabel11021811463D
libRbt.so/2013.1/901 2013/11/27
 16 16  0  0  0  0  0  0  0  0999 V2000
   33.5113   25.6571   48.6007 P   0  0  2  0  0  0  0  0  0  0  0  0
   34.4576   26.3985   47.7305 O   0  0  0  0  0  0  0  0  0  0  0  0
   32.4876   24.8190   47.6783 O   0  5  0  0  0  0  0  0  0  0  0  0
   32.6958   26.7196   49.5082 O   0  0  0  0  0  0  0  0  0  0  0  0
   36.0517   21.1970   51.2892 C   0  0  2  0  0  0  0  0  0  0  0  0
   36.8801   22.0338   52.1282 O   0  0  0  0  0  0  0  0  0  0  0  0
   36.9218   20.2394   50.4244 C   0  0  2  0  0  0  0  0  0  0  0  0
   37.7597   19.4042   51.3046 N   0  0  0  0  0  0  0  0  0  0  0  0
   37.8146   21.0877   49.4924 C   0  0  1  0  0  0  0  0  0  0  0  0
   38.6265   20.2279   48.6751 O   0  0  0  0  0  0  0  0  0  0  0  0
   36.8835   21.9356   48.6010 C   0  0  2  0  0  0  0  0  0  0  0  0
   37.6825   22.7464   47.7227 O   0  0  0  0  0  0  0  0  0  0  0  0
   36.0208   22.8485   49.5256 C   0  0  2  0  0  0  0  0  0  0  0  0
   35.2154   22.0416   50.4356 O   0  0  0  0  0  0  0  0  0  0  0  0
   35.0528   23.7100   48.6983 C   0  0  0  0  0  0  0  0  0  0  0  0
   34.3505   24.6398   49.5418 O   0  0  0  0  0  0  0  0  0  0  0  0
  1  2  1  6  0  0  0
  1  3  1  0  0  0  0
  1  4  2  0  0  0  0
  1 16  1  0  0  0  0
  5  6  1  6  0  0  0
  5  7  1  0  0  0  0
  5 14  1  0  0  0  0
  7  8  1  1  0  0  0
  7  9  1  0  0  0  0
  9 10  1  6  0  0  0
  9 11  1  0  0  0  0
 11 12  1  6  0  0  0
 11 13  1  0  0  0  0
 13 14  1  0  0  0  0
 13 15  1  6  0  0  0
 15 16  1  0  0  0  0
M  CHG  1   3  -1
M  END
>  <CHROM.1>
-174.52663219,171.96579149,-60.96309687,35.57430730,23.12606716,49.37608956
2.52219102,0.72847020,-1.06308710

>  <Name>
ligand

>  <RI>
0

>  <Rbt.Current_Directory>
/home/itssahil/PROJECTS/Mol_Feturizer/New_Systems/rnas/3B4A

>  <Rbt.Executable>
rbdock ($Id: //depot/dev/client3/rdock/2013.1/src/exe/rbdock.cxx#4 $)

>  <Rbt.Library>
libRbt.so (2013.1, Build901 2013/11/27)

>  <Rbt.Parameter_File>
/export/apps/rDock/src/rDock_2013.1_src/data/scripts/dock_solv.prm

>  <Rbt.Receptor>
prm/blind_docking_80.prm

>  <SCORE>
-9.61726

>  <SCORE.INTER>
-8.17345

>  <SCORE.INTER.CONST>
1

>  <SCORE.INTER.POLAR>
0

>  <SCORE.INTER.ROT>
3

>  <SCORE.INTER.SOLV>
12.1327

>  <SCORE.INTER.VDW>
-15.0932

>  <SCORE.INTER.norm>
-0.51084

>  <SCORE.INTRA>
-1.44382

>  <SCORE.INTRA.DIHEDRAL>
-1.63299

>  <SCORE.INTRA.DIHEDRAL.0>
2.05999

>  <SCORE.INTRA.POLAR>
0

>  <SCORE.INTRA.POLAR.0>
0

>  <SCORE.INTRA.REPUL>
0

>  <SCORE.INTRA.REPUL.0>
0

>  <SCORE.INTRA.SOLV>
-1.11877

>  <SCORE.INTRA.SOLV.lig_0>
-58.7001

>  <SCORE.INTRA.VDW>
-0.0679353

>  <SCORE.INTRA.VDW.0>
-0.401036

>  <SCORE.INTRA.norm>
-0.0902386

>  <SCORE.RESTR>
0

>  <SCORE.RESTR.CAVITY>
0

>  <SCORE.RESTR.norm>
0

>  <SCORE.SYSTEM>
0

>  <SCORE.SYSTEM.CONST>
0

>  <SCORE.SYSTEM.DIHEDRAL>
0

>  <SCORE.SYSTEM.SOLV>
0

>  <SCORE.SYSTEM.norm>
0

>  <SCORE.heavy>
16

>  <SCORE.norm>
-0.601079

>  <RMSD>
18.100

$$$$
ligand
 OpenBabel11021811463D
libRbt.so/2013.1/901 2013/11/27
 16 16  0  0  0  0  0  0  0  0999 V2000
   35.5858   22.2968   49.3520 P   0  0  2  0  0  0  0  0  0  0  0  0
   36.3792   22.9686   50.4111 O   0  0  0  0  0  0  0  0  0  0  0  0
   35.2208   20.8006   49.8309 O   0  5  0  0  0  0  0  0  0  0  0  0
   36.4658   22.2446   47.9954 O   0  0  0  0  0  0  0  0  0  0  0  0
   32.0997   26.6203   50.1986 C   0  0  2  0  0  0  0  0  0  0  0  0
   30.8673   25.9989   49.7681 O   0  0  0  0  0  0  0  0  0  0  0  0
   32.3511   27.9506   49.4312 C   0  0  2  0  0  0  0  0  0  0  0  0
   31.2172   28.8677   49.6492 N   0  0  0  0  0  0  0  0  0  0  0  0
   32.4944   27.6345   47.9262 C   0  0  1  0  0  0  0  0  0  0  0  0
   32.7345   28.8465   47.1913 O   0  0  0  0  0  0  0  0  0  0  0  0
   33.6917   26.6750   47.7642 C   0  0  2  0  0  0  0  0  0  0  0  0
   33.8511   26.3518   46.3723 O   0  0  0  0  0  0  0  0  0  0  0  0
   33.3918   25.3785   48.5778 C   0  0  2  0  0  0  0  0  0  0  0  0
   33.2106   25.6906   49.9911 O   0  0  0  0  0  0  0  0  0  0  0  0
   34.5588   24.3830   48.4743 C   0  0  0  0  0  0  0  0  0  0  0  0
   34.2216   23.1356   49.1065 O   0  0  0  0  0  0  0  0  0  0  0  0
  1  2  1  1  0  0  0
  1  3  1  0  0  0  0
  1  4  2  0  0  0  0
  1 16  1  0  0  0  0
  5  6  1  6  0  0  0
  5  7  1  0  0  0  0
  5 14  1  0  0  0  0
  7  8  1  6  0  0  0
  7  9  1  0  0  0  0
  9 10  1  6  0  0  0
  9 11  1  0  0  0  0
 11 12  1  6  0  0  0
 11 13  1  0  0  0  0
 13 14  1  0  0  0  0
 13 15  1  1  0  0  0
 15 16  1  0  0  0  0
M  CHG  1   3  -1
M  END
>  <CHROM.1>
-173.92618704,-163.82578688,69.96390523,33.82330392,25.07507481,48.90854712
0.73039966,-0.78777881,2.35149249

>  <Name>
ligand

>  <RI>
0

>  <Rbt.Current_Directory>
/home/itssahil/PROJECTS/Mol_Feturizer/New_Systems/rnas/3B4A

>  <Rbt.Executable>
rbdock ($Id: //depot/dev/client3/rdock/2013.1/src/exe/rbdock.cxx#4 $)

>  <Rbt.Library>
libRbt.so (2013.1, Build901 2013/11/27)

>  <Rbt.Parameter_File>
/export/apps/rDock/src/rDock_2013.1_src/data/scripts/dock_solv.prm

>  <Rbt.Receptor>
prm/blind_docking_100.prm

>  <SCORE>
-11.1483

>  <SCORE.INTER>
-10.2668

>  <SCORE.INTER.CONST>
1

>  <SCORE.INTER.POLAR>
0

>  <SCORE.INTER.ROT>
3

>  <SCORE.INTER.SOLV>
13.6725

>  <SCORE.INTER.VDW>
-17.002

>  <SCORE.INTER.norm>
-0.641674

>  <SCORE.INTRA>
-0.881553

>  <SCORE.INTRA.DIHEDRAL>
-0.547986

>  <SCORE.INTRA.DIHEDRAL.0>
2.05999

>  <SCORE.INTRA.POLAR>
0

>  <SCORE.INTRA.POLAR.0>
0

>  <SCORE.INTRA.REPUL>
0

>  <SCORE.INTRA.REPUL.0>
0

>  <SCORE.INTRA.SOLV>
-0.932459

>  <SCORE.INTRA.SOLV.lig_0>
-58.7001

>  <SCORE.INTRA.VDW>
-0.141331

>  <SCORE.INTRA.VDW.0>
-0.401036

>  <SCORE.INTRA.norm>
-0.0550971

>  <SCORE.RESTR>
0

>  <SCORE.RESTR.CAVITY>
0

>  <SCORE.RESTR.norm>
0

>  <SCORE.SYSTEM>
0

>  <SCORE.SYSTEM.CONST>
0

>  <SCORE.SYSTEM.DIHEDRAL>
0

>  <SCORE.SYSTEM.SOLV>
0

>  <SCORE.SYSTEM.norm>
0

>  <SCORE.heavy>
16

>  <SCORE.norm>
-0.696771

>  <RMSD>
18.123

$$$$
ligand
 OpenBabel11021811463D
libRbt.so/2013.1/901 2013/11/27
 16 16  0  0  0  0  0  0  0  0999 V2000
   33.2657   25.5244   48.7229 P   0  0  2  0  0  0  0  0  0  0  0  0
   32.3484   26.2713   49.6191 O   0  0  0  0  0  0  0  0  0  0  0  0
   34.1536   26.5733   47.8788 O   0  5  0  0  0  0  0  0  0  0  0  0
   32.3850   24.6110   47.7193 O   0  0  0  0  0  0  0  0  0  0  0  0
   36.0564   21.1938   51.2781 C   0  0  2  0  0  0  0  0  0  0  0  0
   36.8773   22.0249   52.1299 O   0  0  0  0  0  0  0  0  0  0  0  0
   36.9354   20.2686   50.3873 C   0  0  2  0  0  0  0  0  0  0  0  0
   37.7917   19.4276   51.2438 N   0  0  0  0  0  0  0  0  0  0  0  0
   37.8091   21.1506   49.4685 C   0  0  1  0  0  0  0  0  0  0  0  0
   38.6287   20.3213   48.6276 O   0  0  0  0  0  0  0  0  0  0  0  0
   36.8594   22.0031   48.6015 C   0  0  2  0  0  0  0  0  0  0  0  0
   37.6401   22.8450   47.7362 O   0  0  0  0  0  0  0  0  0  0  0  0
   35.9888   22.8824   49.5511 C   0  0  2  0  0  0  0  0  0  0  0  0
   35.2017   22.0436   50.4482 O   0  0  0  0  0  0  0  0  0  0  0  0
   35.0024   23.7466   48.7487 C   0  0  0  0  0  0  0  0  0  0  0  0
   34.2379   24.5935   49.6248 O   0  0  0  0  0  0  0  0  0  0  0  0
  1  2  1  1  0  0  0
  1  3  1  0  0  0  0
  1  4  2  0  0  0  0
  1 16  1  0  0  0  0
  5  6  1  6  0  0  0
  5  7  1  0  0  0  0
  5 14  1  0  0  0  0
  7  8  1  1  0  0  0
  7  9  1  0  0  0  0
  9 10  1  6  0  0  0
  9 11  1  0  0  0  0
 11 12  1  6  0  0  0
 11 13  1  0  0  0  0
 13 14  1  0  0  0  0
 13 15  1  6  0  0  0
 15 16  1  0  0  0  0
M  CHG  1   3  -1
M  END
>  <CHROM.1>
-177.76631710,177.53961737,172.63288384,35.48230121,23.10116917,49.41120710
2.55095540,0.68155442,-1.05258643

>  <Name>
ligand

>  <RI>
0

>  <Rbt.Current_Directory>
/home/itssahil/PROJECTS/Mol_Feturizer/New_Systems/rnas/3B4A

>  <Rbt.Executable>
rbdock ($Id: //depot/dev/client3/rdock/2013.1/src/exe/rbdock.cxx#4 $)

>  <Rbt.Library>
libRbt.so (2013.1, Build901 2013/11/27)

>  <Rbt.Parameter_File>
/export/apps/rDock/src/rDock_2013.1_src/data/scripts/dock_solv.prm

>  <Rbt.Receptor>
prm/blind_docking_80.prm

>  <SCORE>
-9.4324

>  <SCORE.INTER>
-8.02572

>  <SCORE.INTER.CONST>
1

>  <SCORE.INTER.POLAR>
0

>  <SCORE.INTER.ROT>
3

>  <SCORE.INTER.SOLV>
13.1869

>  <SCORE.INTER.VDW>
-15.3461

>  <SCORE.INTER.norm>
-0.501608

>  <SCORE.INTRA>
-1.40668

>  <SCORE.INTRA.DIHEDRAL>
-1.92111

>  <SCORE.INTRA.DIHEDRAL.0>
2.05999

>  <SCORE.INTRA.POLAR>
0

>  <SCORE.INTRA.POLAR.0>
0

>  <SCORE.INTRA.REPUL>
0

>  <SCORE.INTRA.REPUL.0>
0

>  <SCORE.INTRA.SOLV>
-0.428567

>  <SCORE.INTRA.SOLV.lig_0>
-58.7001

>  <SCORE.INTRA.VDW>
-0.231843

>  <SCORE.INTRA.VDW.0>
-0.401036

>  <SCORE.INTRA.norm>
-0.0879176

>  <SCORE.RESTR>
0

>  <SCORE.RESTR.CAVITY>
0

>  <SCORE.RESTR.norm>
0

>  <SCORE.SYSTEM>
0

>  <SCORE.SYSTEM.CONST>
0

>  <SCORE.SYSTEM.DIHEDRAL>
0

>  <SCORE.SYSTEM.SOLV>
0

>  <SCORE.SYSTEM.norm>
0

>  <SCORE.heavy>
16

>  <SCORE.norm>
-0.589525

>  <RMSD>
18.156

$$$$
ligand
 OpenBabel11021811463D
libRbt.so/2013.1/901 2013/11/27
 16 16  0  0  0  0  0  0  0  0999 V2000
   35.4227   22.3834   49.2421 P   0  0  2  0  0  0  0  0  0  0  0  0
   36.2129   23.0598   50.3008 O   0  0  0  0  0  0  0  0  0  0  0  0
   35.0740   20.8823   49.7176 O   0  5  0  0  0  0  0  0  0  0  0  0
   36.2988   22.3441   47.8826 O   0  0  0  0  0  0  0  0  0  0  0  0
   31.8565   26.5508   50.3271 C   0  0  2  0  0  0  0  0  0  0  0  0
   30.6416   25.9680   49.8031 O   0  0  0  0  0  0  0  0  0  0  0  0
   32.1194   27.9503   49.6991 C   0  0  2  0  0  0  0  0  0  0  0  0
   30.9729   28.8366   49.9716 N   0  0  0  0  0  0  0  0  0  0  0  0
   32.3079   27.7818   48.1755 C   0  0  1  0  0  0  0  0  0  0  0  0
   32.5595   29.0602   47.5682 O   0  0  0  0  0  0  0  0  0  0  0  0
   33.5166   26.8482   47.9565 C   0  0  2  0  0  0  0  0  0  0  0  0
   33.7179   26.6618   46.5452 O   0  0  0  0  0  0  0  0  0  0  0  0
   33.2036   25.4778   48.6322 C   0  0  2  0  0  0  0  0  0  0  0  0
   32.9799   25.6510   50.0633 O   0  0  0  0  0  0  0  0  0  0  0  0
   34.3806   24.5025   48.4672 C   0  0  0  0  0  0  0  0  0  0  0  0
   34.0495   23.2094   49.0035 O   0  0  0  0  0  0  0  0  0  0  0  0
  1  2  1  1  0  0  0
  1  3  1  0  0  0  0
  1  4  2  0  0  0  0
  1 16  1  0  0  0  0
  5  6  1  6  0  0  0
  5  7  1  0  0  0  0
  5 14  1  0  0  0  0
  7  8  1  6  0  0  0
  7  9  1  0  0  0  0
  9 10  1  6  0  0  0
  9 11  1  0  0  0  0
 11 12  1  6  0  0  0
 11 13  1  0  0  0  0
 13 14  1  0  0  0  0
 13 15  1  1  0  0  0
 15 16  1  0  0  0  0
M  CHG  1   3  -1
M  END
>  <CHROM.1>
-175.70141858,-162.12193474,65.68440284,33.63693956,25.15945327,48.97244192
0.74715007,-0.75669282,2.44666122

>  <Name>
ligand

>  <RI>
0

>  <Rbt.Current_Directory>
/home/itssahil/PROJECTS/Mol_Feturizer/New_Systems/rnas/3B4A

>  <Rbt.Executable>
rbdock ($Id: //depot/dev/client3/rdock/2013.1/src/exe/rbdock.cxx#4 $)

>  <Rbt.Library>
libRbt.so (2013.1, Build901 2013/11/27)

>  <Rbt.Parameter_File>
/export/apps/rDock/src/rDock_2013.1_src/data/scripts/dock_solv.prm

>  <Rbt.Receptor>
prm/blind_docking_100.prm

>  <SCORE>
-11.229

>  <SCORE.INTER>
-10.3486

>  <SCORE.INTER.CONST>
1

>  <SCORE.INTER.POLAR>
0

>  <SCORE.INTER.ROT>
3

>  <SCORE.INTER.SOLV>
14.5889

>  <SCORE.INTER.VDW>
-17.362

>  <SCORE.INTER.norm>
-0.646789

>  <SCORE.INTRA>
-0.880397

>  <SCORE.INTRA.DIHEDRAL>
-0.47141

>  <SCORE.INTRA.DIHEDRAL.0>
2.05999

>  <SCORE.INTRA.POLAR>
0

>  <SCORE.INTRA.POLAR.0>
0

>  <SCORE.INTRA.REPUL>
0

>  <SCORE.INTRA.REPUL.0>
0

>  <SCORE.INTRA.SOLV>
-0.963649

>  <SCORE.INTRA.SOLV.lig_0>
-58.7001

>  <SCORE.INTRA.VDW>
-0.162868

>  <SCORE.INTRA.VDW.0>
-0.401036

>  <SCORE.INTRA.norm>
-0.0550248

>  <SCORE.RESTR>
0

>  <SCORE.RESTR.CAVITY>
0

>  <SCORE.RESTR.norm>
0

>  <SCORE.SYSTEM>
0

>  <SCORE.SYSTEM.CONST>
0

>  <SCORE.SYSTEM.DIHEDRAL>
0

>  <SCORE.SYSTEM.SOLV>
0

>  <SCORE.SYSTEM.norm>
0

>  <SCORE.heavy>
16

>  <SCORE.norm>
-0.701814

>  <RMSD>
18.207

$$$$
ligand
 OpenBabel11021811463D
libRbt.so/2013.1/901 2013/11/27
 16 16  0  0  0  0  0  0  0  0999 V2000
   35.0786   22.1898   48.9029 P   0  0  2  0  0  0  0  0  0  0  0  0
   34.6490   20.9636   49.6202 O   0  0  0  0  0  0  0  0  0  0  0  0
   35.3548   21.8298   47.3552 O   0  5  0  0  0  0  0  0  0  0  0  0
   36.4316   22.7494   49.5910 O   0  0  0  0  0  0  0  0  0  0  0  0
   32.3954   27.0454   50.1976 C   0  0  2  0  0  0  0  0  0  0  0  0
   31.0479   26.5927   49.9340 O   0  0  0  0  0  0  0  0  0  0  0  0
   32.7295   28.3167   49.3643 C   0  0  2  0  0  0  0  0  0  0  0  0
   31.7638   29.3841   49.6844 N   0  0  0  0  0  0  0  0  0  0  0  0
   32.6470   27.9609   47.8637 C   0  0  1  0  0  0  0  0  0  0  0  0
   32.9580   29.1170   47.0679 O   0  0  0  0  0  0  0  0  0  0  0  0
   33.6761   26.8436   47.5932 C   0  0  2  0  0  0  0  0  0  0  0  0
   33.6221   26.4803   46.2031 O   0  0  0  0  0  0  0  0  0  0  0  0
   33.3045   25.6133   48.4768 C   0  0  2  0  0  0  0  0  0  0  0  0
   33.3381   25.9689   49.8911 O   0  0  0  0  0  0  0  0  0  0  0  0
   34.3059   24.4654   48.2691 C   0  0  0  0  0  0  0  0  0  0  0  0
   33.8984   23.2955   49.0002 O   0  0  0  0  0  0  0  0  0  0  0  0
  1  2  1  1  0  0  0
  1  3  1  0  0  0  0
  1  4  2  0  0  0  0
  1 16  1  0  0  0  0
  5  6  1  6  0  0  0
  5  7  1  0  0  0  0
  5 14  1  0  0  0  0
  7  8  1  6  0  0  0
  7  9  1  0  0  0  0
  9 10  1  6  0  0  0
  9 11  1  0  0  0  0
 11 12  1  6  0  0  0
 11 13  1  0  0  0  0
 13 14  1  0  0  0  0
 13 15  1  1  0  0  0
 15 16  1  0  0  0  0
M  CHG  1   3  -1
M  END
>  <CHROM.1>
-175.24964875,-172.73460904,-178.30052398,33.70987172,25.23467993,48.69593470
0.72981095,-0.99015764,2.35268250

>  <Name>
ligand

>  <RI>
0

>  <Rbt.Current_Directory>
/home/itssahil/PROJECTS/Mol_Feturizer/New_Systems/rnas/3B4A

>  <Rbt.Executable>
rbdock ($Id: //depot/dev/client3/rdock/2013.1/src/exe/rbdock.cxx#4 $)

>  <Rbt.Library>
libRbt.so (2013.1, Build901 2013/11/27)

>  <Rbt.Parameter_File>
/export/apps/rDock/src/rDock_2013.1_src/data/scripts/dock_solv.prm

>  <Rbt.Receptor>
prm/blind_docking_100.prm

>  <SCORE>
-10.2077

>  <SCORE.INTER>
-8.87215

>  <SCORE.INTER.CONST>
1

>  <SCORE.INTER.POLAR>
0

>  <SCORE.INTER.ROT>
3

>  <SCORE.INTER.SOLV>
12.4727

>  <SCORE.INTER.VDW>
-15.6723

>  <SCORE.INTER.norm>
-0.55451

>  <SCORE.INTRA>
-1.33557

>  <SCORE.INTRA.DIHEDRAL>
-1.71281

>  <SCORE.INTRA.DIHEDRAL.0>
2.05999

>  <SCORE.INTRA.POLAR>
0

>  <SCORE.INTRA.POLAR.0>
0

>  <SCORE.INTRA.REPUL>
0

>  <SCORE.INTRA.REPUL.0>
0

>  <SCORE.INTRA.SOLV>
-0.381736

>  <SCORE.INTRA.SOLV.lig_0>
-58.7001

>  <SCORE.INTRA.VDW>
-0.288293

>  <SCORE.INTRA.VDW.0>
-0.401036

>  <SCORE.INTRA.norm>
-0.0834729

>  <SCORE.RESTR>
0

>  <SCORE.RESTR.CAVITY>
0

>  <SCORE.RESTR.norm>
0

>  <SCORE.SYSTEM>
0

>  <SCORE.SYSTEM.CONST>
0

>  <SCORE.SYSTEM.DIHEDRAL>
0

>  <SCORE.SYSTEM.SOLV>
0

>  <SCORE.SYSTEM.norm>
0

>  <SCORE.heavy>
16

>  <SCORE.norm>
-0.637983

>  <RMSD>
18.216

$$$$
ligand
 OpenBabel11021811463D
libRbt.so/2013.1/901 2013/11/27
 16 16  0  0  0  0  0  0  0  0999 V2000
   35.3743   22.3725   49.2395 P   0  0  2  0  0  0  0  0  0  0  0  0
   36.1350   23.0318   50.3300 O   0  0  0  0  0  0  0  0  0  0  0  0
   35.0067   20.8665   49.6843 O   0  5  0  0  0  0  0  0  0  0  0  0
   36.2901   22.3479   47.9060 O   0  0  0  0  0  0  0  0  0  0  0  0
   31.8318   26.5518   50.3380 C   0  0  2  0  0  0  0  0  0  0  0  0
   30.6190   25.9797   49.7976 O   0  0  0  0  0  0  0  0  0  0  0  0
   32.1062   27.9565   49.7268 C   0  0  2  0  0  0  0  0  0  0  0  0
   30.9611   28.8449   49.9985 N   0  0  0  0  0  0  0  0  0  0  0  0
   32.3071   27.8028   48.2031 C   0  0  1  0  0  0  0  0  0  0  0  0
   32.5694   29.0863   47.6113 O   0  0  0  0  0  0  0  0  0  0  0  0
   33.5137   26.8663   47.9850 C   0  0  2  0  0  0  0  0  0  0  0  0
   33.7264   26.6935   46.5736 O   0  0  0  0  0  0  0  0  0  0  0  0
   33.1890   25.4904   48.6438 C   0  0  2  0  0  0  0  0  0  0  0  0
   32.9537   25.6498   50.0746 O   0  0  0  0  0  0  0  0  0  0  0  0
   34.3632   24.5117   48.4789 C   0  0  0  0  0  0  0  0  0  0  0  0
   34.0116   23.2067   48.9714 O   0  0  0  0  0  0  0  0  0  0  0  0
  1  2  1  1  0  0  0
  1  3  1  0  0  0  0
  1  4  2  0  0  0  0
  1 16  1  0  0  0  0
  5  6  1  6  0  0  0
  5  7  1  0  0  0  0
  5 14  1  0  0  0  0
  7  8  1  6  0  0  0
  7  9  1  0  0  0  0
  9 10  1  1  0  0  0
  9 11  1  0  0  0  0
 11 12  1  6  0  0  0
 11 13  1  0  0  0  0
 13 14  1  0  0  0  0
 13 15  1  1  0  0  0
 15 16  1  0  0  0  0
M  CHG  1   3  -1
M  END
>  <CHROM.1>
-174.40259718,-161.28922449,64.94744272,33.61236652,25.16376142,48.98385673
0.76268788,-0.75395335,2.46804591

>  <Name>
ligand

>  <RI>
0

>  <Rbt.Current_Directory>
/home/itssahil/PROJECTS/Mol_Feturizer/New_Systems/rnas/3B4A

>  <Rbt.Executable>
rbdock ($Id: //depot/dev/client3/rdock/2013.1/src/exe/rbdock.cxx#4 $)

>  <Rbt.Library>
libRbt.so (2013.1, Build901 2013/11/27)

>  <Rbt.Parameter_File>
/export/apps/rDock/src/rDock_2013.1_src/data/scripts/dock_solv.prm

>  <Rbt.Receptor>
prm/blind_docking_80.prm

>  <SCORE>
-11.1966

>  <SCORE.INTER>
-10.3877

>  <SCORE.INTER.CONST>
1

>  <SCORE.INTER.POLAR>
0

>  <SCORE.INTER.ROT>
3

>  <SCORE.INTER.SOLV>
14.7865

>  <SCORE.INTER.VDW>
-17.454

>  <SCORE.INTER.norm>
-0.649232

>  <SCORE.INTRA>
-0.808902

>  <SCORE.INTRA.DIHEDRAL>
-0.309443

>  <SCORE.INTRA.DIHEDRAL.0>
2.05999

>  <SCORE.INTRA.POLAR>
0

>  <SCORE.INTRA.POLAR.0>
0

>  <SCORE.INTRA.REPUL>
0

>  <SCORE.INTRA.REPUL.0>
0

>  <SCORE.INTRA.SOLV>
-0.970865

>  <SCORE.INTRA.SOLV.lig_0>
-58.7001

>  <SCORE.INTRA.VDW>
-0.168748

>  <SCORE.INTRA.VDW.0>
-0.401036

>  <SCORE.INTRA.norm>
-0.0505564

>  <SCORE.RESTR>
0

>  <SCORE.RESTR.CAVITY>
0

>  <SCORE.RESTR.norm>
0

>  <SCORE.SYSTEM>
0

>  <SCORE.SYSTEM.CONST>
0

>  <SCORE.SYSTEM.DIHEDRAL>
0

>  <SCORE.SYSTEM.SOLV>
0

>  <SCORE.SYSTEM.norm>
0

>  <SCORE.heavy>
16

>  <SCORE.norm>
-0.699788

>  <RMSD>
18.222

$$$$
ligand
 OpenBabel11021811463D
libRbt.so/2013.1/901 2013/11/27
 16 16  0  0  0  0  0  0  0  0999 V2000
   34.6284   22.3607   47.8444 P   0  0  2  0  0  0  0  0  0  0  0  0
   33.9946   21.5646   48.9248 O   0  0  0  0  0  0  0  0  0  0  0  0
   34.5426   21.5388   46.4595 O   0  5  0  0  0  0  0  0  0  0  0  0
   36.1755   22.6293   48.2338 O   0  0  0  0  0  0  0  0  0  0  0  0
   32.5026   27.6713   50.2471 C   0  0  2  0  0  0  0  0  0  0  0  0
   31.1054   27.3605   50.0437 O   0  0  0  0  0  0  0  0  0  0  0  0
   33.0029   28.7039   49.1957 C   0  0  2  0  0  0  0  0  0  0  0  0
   32.1916   29.9319   49.2856 N   0  0  0  0  0  0  0  0  0  0  0  0
   32.8682   28.0823   47.7882 C   0  0  1  0  0  0  0  0  0  0  0  0
   33.3301   29.0132   46.7949 O   0  0  0  0  0  0  0  0  0  0  0  0
   33.7357   26.8068   47.7579 C   0  0  2  0  0  0  0  0  0  0  0  0
   33.6285   26.1953   46.4611 O   0  0  0  0  0  0  0  0  0  0  0  0
   33.2039   25.8286   48.8501 C   0  0  2  0  0  0  0  0  0  0  0  0
   33.2900   26.4401   50.1717 O   0  0  0  0  0  0  0  0  0  0  0  0
   34.0401   24.5390   48.8865 C   0  0  0  0  0  0  0  0  0  0  0  0
   33.8342   23.7646   47.6919 O   0  0  0  0  0  0  0  0  0  0  0  0
  1  2  1  1  0  0  0
  1  3  1  0  0  0  0
  1  4  2  0  0  0  0
  1 16  1  0  0  0  0
  5  6  1  6  0  0  0
  5  7  1  0  0  0  0
  5 14  1  0  0  0  0
  7  8  1  6  0  0  0
  7  9  1  0  0  0  0
  9 10  1  6  0  0  0
  9 11  1  0  0  0  0
 11 12  1  6  0  0  0
 11 13  1  0  0  0  0
 13 14  1  0  0  0  0
 13 15  1  1  0  0  0
 15 16  1  0  0  0  0
M  CHG  1   3  -1
M  END
>  <CHROM.1>
-68.40223091,-174.85168346,66.49954258,33.60371633,25.45380108,48.34948228
0.72874762,-1.12884202,2.51881323

>  <Name>
ligand

>  <RI>
0

>  <Rbt.Current_Directory>
/home/itssahil/PROJECTS/Mol_Feturizer/New_Systems/rnas/3B4A

>  <Rbt.Executable>
rbdock ($Id: //depot/dev/client3/rdock/2013.1/src/exe/rbdock.cxx#4 $)

>  <Rbt.Library>
libRbt.so (2013.1, Build901 2013/11/27)

>  <Rbt.Parameter_File>
/export/apps/rDock/src/rDock_2013.1_src/data/scripts/dock_solv.prm

>  <Rbt.Receptor>
prm/blind_docking_100.prm

>  <SCORE>
-9.47521

>  <SCORE.INTER>
-8.19086

>  <SCORE.INTER.CONST>
1

>  <SCORE.INTER.POLAR>
0

>  <SCORE.INTER.ROT>
3

>  <SCORE.INTER.SOLV>
10.8857

>  <SCORE.INTER.VDW>
-14.6891

>  <SCORE.INTER.norm>
-0.511929

>  <SCORE.INTRA>
-1.28435

>  <SCORE.INTRA.DIHEDRAL>
-1.60977

>  <SCORE.INTRA.DIHEDRAL.0>
2.05999

>  <SCORE.INTRA.POLAR>
0

>  <SCORE.INTRA.POLAR.0>
0

>  <SCORE.INTRA.REPUL>
0

>  <SCORE.INTRA.REPUL.0>
0

>  <SCORE.INTRA.SOLV>
-0.716425

>  <SCORE.INTRA.SOLV.lig_0>
-58.7001

>  <SCORE.INTRA.VDW>
-0.121252

>  <SCORE.INTRA.VDW.0>
-0.401036

>  <SCORE.INTRA.norm>
-0.0802717

>  <SCORE.RESTR>
0

>  <SCORE.RESTR.CAVITY>
0

>  <SCORE.RESTR.norm>
0

>  <SCORE.SYSTEM>
0

>  <SCORE.SYSTEM.CONST>
0

>  <SCORE.SYSTEM.DIHEDRAL>
0

>  <SCORE.SYSTEM.SOLV>
0

>  <SCORE.SYSTEM.norm>
0

>  <SCORE.heavy>
16

>  <SCORE.norm>
-0.592201

>  <RMSD>
18.297

$$$$
ligand
 OpenBabel11021811463D
libRbt.so/2013.1/901 2013/11/27
 16 16  0  0  0  0  0  0  0  0999 V2000
   34.7773   22.2199   47.8538 P   0  0  2  0  0  0  0  0  0  0  0  0
   34.0973   21.4418   48.9189 O   0  0  0  0  0  0  0  0  0  0  0  0
   34.7247   21.3880   46.4731 O   0  5  0  0  0  0  0  0  0  0  0  0
   36.3146   22.4698   48.2913 O   0  0  0  0  0  0  0  0  0  0  0  0
   32.4662   27.4553   50.2278 C   0  0  2  0  0  0  0  0  0  0  0  0
   31.0886   27.1047   49.9638 O   0  0  0  0  0  0  0  0  0  0  0  0
   32.9735   28.5232   49.2157 C   0  0  2  0  0  0  0  0  0  0  0  0
   32.1203   29.7231   49.2954 N   0  0  0  0  0  0  0  0  0  0  0  0
   32.9139   27.9247   47.7931 C   0  0  1  0  0  0  0  0  0  0  0  0
   33.3839   28.8885   46.8357 O   0  0  0  0  0  0  0  0  0  0  0  0
   33.8226   26.6780   47.7743 C   0  0  2  0  0  0  0  0  0  0  0  0
   33.7857   26.0883   46.4635 O   0  0  0  0  0  0  0  0  0  0  0  0
   33.2803   25.6628   48.8269 C   0  0  2  0  0  0  0  0  0  0  0  0
   33.2951   26.2512   50.1616 O   0  0  0  0  0  0  0  0  0  0  0  0
   34.1555   24.3996   48.8733 C   0  0  0  0  0  0  0  0  0  0  0  0
   34.0087   23.6336   47.6646 O   0  0  0  0  0  0  0  0  0  0  0  0
  1  2  1  1  0  0  0
  1  3  1  0  0  0  0
  1  4  2  0  0  0  0
  1 16  1  0  0  0  0
  5  6  1  6  0  0  0
  5  7  1  0  0  0  0
  5 14  1  0  0  0  0
  7  8  1  6  0  0  0
  7  9  1  0  0  0  0
  9 10  1  6  0  0  0
  9 11  1  0  0  0  0
 11 12  1  6  0  0  0
 11 13  1  0  0  0  0
 13 14  1  0  0  0  0
 13 15  1  1  0  0  0
 15 16  1  0  0  0  0
M  CHG  1   3  -1
M  END
>  <CHROM.1>
-69.11059232,-171.91055265,64.92137999,33.68249088,25.29457249,48.34981868
0.74790269,-1.08534010,2.54657124

>  <Name>
ligand

>  <RI>
0

>  <Rbt.Current_Directory>
/home/itssahil/PROJECTS/Mol_Feturizer/New_Systems/rnas/3B4A

>  <Rbt.Executable>
rbdock ($Id: //depot/dev/client3/rdock/2013.1/src/exe/rbdock.cxx#4 $)

>  <Rbt.Library>
libRbt.so (2013.1, Build901 2013/11/27)

>  <Rbt.Parameter_File>
/export/apps/rDock/src/rDock_2013.1_src/data/scripts/dock_solv.prm

>  <Rbt.Receptor>
prm/blind_docking_80.prm

>  <SCORE>
-9.3758

>  <SCORE.INTER>
-8.15645

>  <SCORE.INTER.CONST>
1

>  <SCORE.INTER.POLAR>
0

>  <SCORE.INTER.ROT>
3

>  <SCORE.INTER.SOLV>
10.6595

>  <SCORE.INTER.VDW>
-14.5908

>  <SCORE.INTER.norm>
-0.509778

>  <SCORE.INTRA>
-1.21935

>  <SCORE.INTRA.DIHEDRAL>
-1.40777

>  <SCORE.INTRA.DIHEDRAL.0>
2.05999

>  <SCORE.INTRA.POLAR>
0

>  <SCORE.INTRA.POLAR.0>
0

>  <SCORE.INTRA.REPUL>
0

>  <SCORE.INTRA.REPUL.0>
0

>  <SCORE.INTRA.SOLV>
-0.772108

>  <SCORE.INTRA.SOLV.lig_0>
-58.7001

>  <SCORE.INTRA.VDW>
-0.129416

>  <SCORE.INTRA.VDW.0>
-0.401036

>  <SCORE.INTRA.norm>
-0.0762096

>  <SCORE.RESTR>
0

>  <SCORE.RESTR.CAVITY>
0

>  <SCORE.RESTR.norm>
0

>  <SCORE.SYSTEM>
0

>  <SCORE.SYSTEM.CONST>
0

>  <SCORE.SYSTEM.DIHEDRAL>
0

>  <SCORE.SYSTEM.SOLV>
0

>  <SCORE.SYSTEM.norm>
0

>  <SCORE.heavy>
16

>  <SCORE.norm>
-0.585988

>  <RMSD>
18.305

$$$$
ligand
 OpenBabel11021811463D
libRbt.so/2013.1/901 2013/11/27
 16 16  0  0  0  0  0  0  0  0999 V2000
   35.5088   21.4763   49.6519 P   0  0  2  0  0  0  0  0  0  0  0  0
   35.0865   21.4931   51.0745 O   0  0  0  0  0  0  0  0  0  0  0  0
   35.3389   19.9834   49.0656 O   0  5  0  0  0  0  0  0  0  0  0  0
   37.0582   21.9331   49.5625 O   0  0  0  0  0  0  0  0  0  0  0  0
   32.8144   26.9947   49.0829 C   0  0  2  0  0  0  0  0  0  0  0  0
   31.4818   26.4422   49.1784 O   0  0  0  0  0  0  0  0  0  0  0  0
   33.1342   27.4301   47.6234 C   0  0  2  0  0  0  0  0  0  0  0  0
   32.1400   28.4227   47.1757 N   0  0  0  0  0  0  0  0  0  0  0  0
   33.0849   26.1836   46.7129 C   0  0  1  0  0  0  0  0  0  0  0  0
   33.3835   26.5550   45.3566 O   0  0  0  0  0  0  0  0  0  0  0  0
   34.1428   25.1870   47.2306 C   0  0  2  0  0  0  0  0  0  0  0  0
   34.1202   24.0073   46.4090 O   0  0  0  0  0  0  0  0  0  0  0  0
   33.7836   24.8144   48.7019 C   0  0  2  0  0  0  0  0  0  0  0  0
   33.7856   26.0034   49.5470 O   0  0  0  0  0  0  0  0  0  0  0  0
   34.8135   23.8344   49.2874 C   0  0  0  0  0  0  0  0  0  0  0  0
   34.5712   22.4979   48.8139 O   0  0  0  0  0  0  0  0  0  0  0  0
  1  2  1  1  0  0  0
  1  3  1  0  0  0  0
  1  4  2  0  0  0  0
  1 16  1  0  0  0  0
  5  6  1  6  0  0  0
  5  7  1  0  0  0  0
  5 14  1  0  0  0  0
  7  8  1  6  0  0  0
  7  9  1  0  0  0  0
  9 10  1  6  0  0  0
  9 11  1  0  0  0  0
 11 12  1  6  0  0  0
 11 13  1  0  0  0  0
 13 14  1  0  0  0  0
 13 15  1  1  0  0  0
 15 16  1  0  0  0  0
M  CHG  1   3  -1
M  END
>  <CHROM.1>
-78.36380103,-170.26863007,64.84810133,34.14964129,24.27858251,48.51311301
0.55344038,-1.05063920,1.81231816

>  <Name>
ligand

>  <RI>
0

>  <Rbt.Current_Directory>
/home/itssahil/PROJECTS/Mol_Feturizer/New_Systems/rnas/3B4A

>  <Rbt.Executable>
rbdock ($Id: //depot/dev/client3/rdock/2013.1/src/exe/rbdock.cxx#4 $)

>  <Rbt.Library>
libRbt.so (2013.1, Build901 2013/11/27)

>  <Rbt.Parameter_File>
/export/apps/rDock/src/rDock_2013.1_src/data/scripts/dock_solv.prm

>  <Rbt.Receptor>
prm/blind_docking_80.prm

>  <SCORE>
-9.34935

>  <SCORE.INTER>
-8.47163

>  <SCORE.INTER.CONST>
1

>  <SCORE.INTER.POLAR>
0

>  <SCORE.INTER.ROT>
3

>  <SCORE.INTER.SOLV>
11.6715

>  <SCORE.INTER.VDW>
-15.1382

>  <SCORE.INTER.norm>
-0.529477

>  <SCORE.INTRA>
-0.877714

>  <SCORE.INTRA.DIHEDRAL>
-0.437957

>  <SCORE.INTRA.DIHEDRAL.0>
2.05999

>  <SCORE.INTRA.POLAR>
0

>  <SCORE.INTRA.POLAR.0>
0

>  <SCORE.INTRA.REPUL>
0

>  <SCORE.INTRA.REPUL.0>
0

>  <SCORE.INTRA.SOLV>
-0.891247

>  <SCORE.INTRA.SOLV.lig_0>
-58.7001

>  <SCORE.INTRA.VDW>
-0.213112

>  <SCORE.INTRA.VDW.0>
-0.401036

>  <SCORE.INTRA.norm>
-0.0548571

>  <SCORE.RESTR>
0

>  <SCORE.RESTR.CAVITY>
0

>  <SCORE.RESTR.norm>
0

>  <SCORE.SYSTEM>
0

>  <SCORE.SYSTEM.CONST>
0

>  <SCORE.SYSTEM.DIHEDRAL>
0

>  <SCORE.SYSTEM.SOLV>
0

>  <SCORE.SYSTEM.norm>
0

>  <SCORE.heavy>
16

>  <SCORE.norm>
-0.584334

>  <RMSD>
18.473

$$$$
ligand
 OpenBabel11021811463D
libRbt.so/2013.1/901 2013/11/27
 16 16  0  0  0  0  0  0  0  0999 V2000
   33.5414   26.7523   48.0673 P   0  0  2  0  0  0  0  0  0  0  0  0
   34.2428   28.0585   47.9992 O   0  0  0  0  0  0  0  0  0  0  0  0
   32.8252   26.4603   46.6521 O   0  5  0  0  0  0  0  0  0  0  0  0
   32.4344   26.8158   49.2454 O   0  0  0  0  0  0  0  0  0  0  0  0
   36.3748   22.4644   50.5451 C   0  0  2  0  0  0  0  0  0  0  0  0
   37.5288   22.4717   49.6742 O   0  0  0  0  0  0  0  0  0  0  0  0
   35.7043   21.0602   50.5706 C   0  0  2  0  0  0  0  0  0  0  0  0
   36.6844   20.0536   51.0185 N   0  0  0  0  0  0  0  0  0  0  0  0
   35.2106   20.7215   49.1469 C   0  0  1  0  0  0  0  0  0  0  0  0
   34.5795   19.4298   49.1412 O   0  0  0  0  0  0  0  0  0  0  0  0
   34.1928   21.8062   48.7370 C   0  0  2  0  0  0  0  0  0  0  0  0
   33.7159   21.5268   47.4097 O   0  0  0  0  0  0  0  0  0  0  0  0
   34.9161   23.1878   48.7598 C   0  0  2  0  0  0  0  0  0  0  0  0
   35.4214   23.4800   50.0966 O   0  0  0  0  0  0  0  0  0  0  0  0
   33.9491   24.3203   48.3778 C   0  0  0  0  0  0  0  0  0  0  0  0
   34.6264   25.5894   48.3761 O   0  0  0  0  0  0  0  0  0  0  0  0
  1  2  1  6  0  0  0
  1  3  1  0  0  0  0
  1  4  2  0  0  0  0
  1 16  1  0  0  0  0
  5  6  1  6  0  0  0
  5  7  1  0  0  0  0
  5 14  1  0  0  0  0
  7  8  1  6  0  0  0
  7  9  1  0  0  0  0
  9 10  1  1  0  0  0
  9 11  1  0  0  0  0
 11 12  1  6  0  0  0
 11 13  1  0  0  0  0
 13 14  1  0  0  0  0
 13 15  1  1  0  0  0
 15 16  1  0  0  0  0
M  CHG  1   3  -1
M  END
>  <CHROM.1>
-178.94069825,-176.19695986,-177.31378717,34.63457897,23.69734295,48.88932528
-2.02076601,0.68487607,-3.13524905

>  <Name>
ligand

>  <RI>
0

>  <Rbt.Current_Directory>
/home/itssahil/PROJECTS/Mol_Feturizer/New_Systems/rnas/3B4A

>  <Rbt.Executable>
rbdock ($Id: //depot/dev/client3/rdock/2013.1/src/exe/rbdock.cxx#4 $)

>  <Rbt.Library>
libRbt.so (2013.1, Build901 2013/11/27)

>  <Rbt.Parameter_File>
/export/apps/rDock/src/rDock_2013.1_src/data/scripts/dock_solv.prm

>  <Rbt.Receptor>
prm/blind_docking_100.prm

>  <SCORE>
-12.2917

>  <SCORE.INTER>
-10.8417

>  <SCORE.INTER.CONST>
1

>  <SCORE.INTER.POLAR>
0

>  <SCORE.INTER.ROT>
3

>  <SCORE.INTER.SOLV>
13.3976

>  <SCORE.INTER.VDW>
-17.2937

>  <SCORE.INTER.norm>
-0.677608

>  <SCORE.INTRA>
-1.45

>  <SCORE.INTRA.DIHEDRAL>
-1.97011

>  <SCORE.INTRA.DIHEDRAL.0>
2.05999

>  <SCORE.INTRA.POLAR>
0

>  <SCORE.INTRA.POLAR.0>
0

>  <SCORE.INTRA.REPUL>
0

>  <SCORE.INTRA.REPUL.0>
0

>  <SCORE.INTRA.SOLV>
-0.392977

>  <SCORE.INTRA.SOLV.lig_0>
-58.7001

>  <SCORE.INTRA.VDW>
-0.268459

>  <SCORE.INTRA.VDW.0>
-0.401036

>  <SCORE.INTRA.norm>
-0.0906252

>  <SCORE.RESTR>
0

>  <SCORE.RESTR.CAVITY>
0

>  <SCORE.RESTR.norm>
0

>  <SCORE.SYSTEM>
0

>  <SCORE.SYSTEM.CONST>
0

>  <SCORE.SYSTEM.DIHEDRAL>
0

>  <SCORE.SYSTEM.SOLV>
0

>  <SCORE.SYSTEM.norm>
0

>  <SCORE.heavy>
16

>  <SCORE.norm>
-0.768234

>  <RMSD>
18.544

$$$$
ligand
 OpenBabel11021811463D
libRbt.so/2013.1/901 2013/11/27
 16 16  0  0  0  0  0  0  0  0999 V2000
   33.5486   26.7464   47.9370 P   0  0  2  0  0  0  0  0  0  0  0  0
   34.2348   28.0624   47.9341 O   0  0  0  0  0  0  0  0  0  0  0  0
   32.9774   26.4426   46.4597 O   0  5  0  0  0  0  0  0  0  0  0  0
   32.3317   26.7953   49.0019 O   0  0  0  0  0  0  0  0  0  0  0  0
   36.3539   22.4956   50.5515 C   0  0  2  0  0  0  0  0  0  0  0  0
   37.5161   22.4987   49.6916 O   0  0  0  0  0  0  0  0  0  0  0  0
   35.6868   21.0898   50.5823 C   0  0  2  0  0  0  0  0  0  0  0  0
   36.6652   20.0897   51.0478 N   0  0  0  0  0  0  0  0  0  0  0  0
   35.2075   20.7380   49.1568 C   0  0  1  0  0  0  0  0  0  0  0  0
   34.5799   19.4447   49.1559 O   0  0  0  0  0  0  0  0  0  0  0  0
   34.1908   21.8165   48.7283 C   0  0  2  0  0  0  0  0  0  0  0  0
   33.7273   21.5249   47.3989 O   0  0  0  0  0  0  0  0  0  0  0  0
   34.9103   23.2002   48.7464 C   0  0  2  0  0  0  0  0  0  0  0  0
   35.4022   23.5048   50.0855 O   0  0  0  0  0  0  0  0  0  0  0  0
   33.9441   24.3270   48.3459 C   0  0  0  0  0  0  0  0  0  0  0  0
   34.6149   25.5995   48.3526 O   0  0  0  0  0  0  0  0  0  0  0  0
  1  2  1  6  0  0  0
  1  3  1  0  0  0  0
  1  4  2  0  0  0  0
  1 16  1  0  0  0  0
  5  6  1  6  0  0  0
  5  7  1  0  0  0  0
  5 14  1  0  0  0  0
  7  8  1  6  0  0  0
  7  9  1  0  0  0  0
  9 10  1  1  0  0  0
  9 11  1  0  0  0  0
 11 12  1  6  0  0  0
 11 13  1  0  0  0  0
 13 14  1  0  0  0  0
 13 15  1  1  0  0  0
 15 16  1  0  0  0  0
M  CHG  1   3  -1
M  END
>  <CHROM.1>
-179.49418125,-179.51219941,-179.68805283,34.63217537,23.70674153,48.84082807
-2.02161428,0.69629654,3.12755020

>  <Name>
ligand

>  <RI>
0

>  <Rbt.Current_Directory>
/home/itssahil/PROJECTS/Mol_Feturizer/New_Systems/rnas/3B4A

>  <Rbt.Executable>
rbdock ($Id: //depot/dev/client3/rdock/2013.1/src/exe/rbdock.cxx#4 $)

>  <Rbt.Library>
libRbt.so (2013.1, Build901 2013/11/27)

>  <Rbt.Parameter_File>
/export/apps/rDock/src/rDock_2013.1_src/data/scripts/dock_solv.prm

>  <Rbt.Receptor>
prm/blind_docking_80.prm

>  <SCORE>
-12.2192

>  <SCORE.INTER>
-10.7348

>  <SCORE.INTER.CONST>
1

>  <SCORE.INTER.POLAR>
0

>  <SCORE.INTER.ROT>
3

>  <SCORE.INTER.SOLV>
13.3237

>  <SCORE.INTER.VDW>
-17.1978

>  <SCORE.INTER.norm>
-0.670927

>  <SCORE.INTRA>
-1.48434

>  <SCORE.INTRA.DIHEDRAL>
-2.05513

>  <SCORE.INTRA.DIHEDRAL.0>
2.05999

>  <SCORE.INTRA.POLAR>
0

>  <SCORE.INTRA.POLAR.0>
0

>  <SCORE.INTRA.REPUL>
0

>  <SCORE.INTRA.REPUL.0>
0

>  <SCORE.INTRA.SOLV>
-0.408386

>  <SCORE.INTRA.SOLV.lig_0>
-58.7001

>  <SCORE.INTRA.VDW>
-0.252583

>  <SCORE.INTRA.VDW.0>
-0.401036

>  <SCORE.INTRA.norm>
-0.0927713

>  <SCORE.RESTR>
0

>  <SCORE.RESTR.CAVITY>
0

>  <SCORE.RESTR.norm>
0

>  <SCORE.SYSTEM>
0

>  <SCORE.SYSTEM.CONST>
0

>  <SCORE.SYSTEM.DIHEDRAL>
0

>  <SCORE.SYSTEM.SOLV>
0

>  <SCORE.SYSTEM.norm>
0

>  <SCORE.heavy>
16

>  <SCORE.norm>
-0.763698

>  <RMSD>
18.548

$$$$
ligand
 OpenBabel11021811463D
libRbt.so/2013.1/901 2013/11/27
 16 16  0  0  0  0  0  0  0  0999 V2000
   33.5314   26.7611   48.0902 P   0  0  2  0  0  0  0  0  0  0  0  0
   34.2322   28.0681   48.0342 O   0  0  0  0  0  0  0  0  0  0  0  0
   32.8358   26.4705   46.6644 O   0  5  0  0  0  0  0  0  0  0  0  0
   32.4075   26.8216   49.2523 O   0  0  0  0  0  0  0  0  0  0  0  0
   36.3437   22.4702   50.5632 C   0  0  2  0  0  0  0  0  0  0  0  0
   37.5065   22.4724   49.7042 O   0  0  0  0  0  0  0  0  0  0  0  0
   35.6697   21.0676   50.5856 C   0  0  2  0  0  0  0  0  0  0  0  0
   36.6427   20.0599   51.0461 N   0  0  0  0  0  0  0  0  0  0  0  0
   35.1897   20.7262   49.1578 C   0  0  1  0  0  0  0  0  0  0  0  0
   34.5556   19.4360   49.1491 O   0  0  0  0  0  0  0  0  0  0  0  0
   34.1787   21.8122   48.7347 C   0  0  2  0  0  0  0  0  0  0  0  0
   33.7147   21.5303   47.4033 O   0  0  0  0  0  0  0  0  0  0  0  0
   34.9050   23.1922   48.7611 C   0  0  2  0  0  0  0  0  0  0  0  0
   35.3973   23.4867   50.1023 O   0  0  0  0  0  0  0  0  0  0  0  0
   33.9447   24.3259   48.3663 C   0  0  0  0  0  0  0  0  0  0  0  0
   34.6130   25.5989   48.4129 O   0  0  0  0  0  0  0  0  0  0  0  0
  1  2  1  6  0  0  0
  1  3  1  0  0  0  0
  1  4  2  0  0  0  0
  1 16  1  0  0  0  0
  5  6  1  6  0  0  0
  5  7  1  0  0  0  0
  5 14  1  0  0  0  0
  7  8  1  6  0  0  0
  7  9  1  0  0  0  0
  9 10  1  1  0  0  0
  9 11  1  0  0  0  0
 11 12  1  6  0  0  0
 11 13  1  0  0  0  0
 13 14  1  0  0  0  0
 13 15  1  1  0  0  0
 15 16  1  0  0  0  0
M  CHG  1   3  -1
M  END
>  <CHROM.1>
179.07648410,-176.09074118,-175.74008689,34.61790954,23.70386548,48.90337688
-2.02031658,0.69336892,-3.13099826

>  <Name>
ligand

>  <RI>
0

>  <Rbt.Current_Directory>
/home/itssahil/PROJECTS/Mol_Feturizer/New_Systems/rnas/3B4A

>  <Rbt.Executable>
rbdock ($Id: //depot/dev/client3/rdock/2013.1/src/exe/rbdock.cxx#4 $)

>  <Rbt.Library>
libRbt.so (2013.1, Build901 2013/11/27)

>  <Rbt.Parameter_File>
/export/apps/rDock/src/rDock_2013.1_src/data/scripts/dock_solv.prm

>  <Rbt.Receptor>
prm/blind_docking_80.prm

>  <SCORE>
-12.2663

>  <SCORE.INTER>
-10.846

>  <SCORE.INTER.CONST>
1

>  <SCORE.INTER.POLAR>
0

>  <SCORE.INTER.ROT>
3

>  <SCORE.INTER.SOLV>
13.5412

>  <SCORE.INTER.VDW>
-17.3444

>  <SCORE.INTER.norm>
-0.677876

>  <SCORE.INTRA>
-1.42026

>  <SCORE.INTRA.DIHEDRAL>
-1.94974

>  <SCORE.INTRA.DIHEDRAL.0>
2.05999

>  <SCORE.INTRA.POLAR>
0

>  <SCORE.INTRA.POLAR.0>
0

>  <SCORE.INTRA.REPUL>
0

>  <SCORE.INTRA.REPUL.0>
0

>  <SCORE.INTRA.SOLV>
-0.38613

>  <SCORE.INTRA.SOLV.lig_0>
-58.7001

>  <SCORE.INTRA.VDW>
-0.252324

>  <SCORE.INTRA.VDW.0>
-0.401036

>  <SCORE.INTRA.norm>
-0.0887662

>  <SCORE.RESTR>
0

>  <SCORE.RESTR.CAVITY>
0

>  <SCORE.RESTR.norm>
0

>  <SCORE.SYSTEM>
0

>  <SCORE.SYSTEM.CONST>
0

>  <SCORE.SYSTEM.DIHEDRAL>
0

>  <SCORE.SYSTEM.SOLV>
0

>  <SCORE.SYSTEM.norm>
0

>  <SCORE.heavy>
16

>  <SCORE.norm>
-0.766642

>  <RMSD>
18.548

$$$$
ligand
 OpenBabel11021811463D
libRbt.so/2013.1/901 2013/11/27
 16 16  0  0  0  0  0  0  0  0999 V2000
   35.8373   20.9090   50.2446 P   0  0  2  0  0  0  0  0  0  0  0  0
   36.9887   21.5177   50.9562 O   0  0  0  0  0  0  0  0  0  0  0  0
   34.5677   20.8559   51.2378 O   0  5  0  0  0  0  0  0  0  0  0  0
   36.2419   19.4123   49.7828 O   0  0  0  0  0  0  0  0  0  0  0  0
   36.3055   24.5363   46.0144 C   0  0  2  0  0  0  0  0  0  0  0  0
   36.6852   25.8790   46.3925 O   0  0  0  0  0  0  0  0  0  0  0  0
   34.9171   24.5265   45.3113 C   0  0  2  0  0  0  0  0  0  0  0  0
   34.9607   25.3958   44.1211 N   0  0  0  0  0  0  0  0  0  0  0  0
   33.8549   25.0439   46.3061 C   0  0  1  0  0  0  0  0  0  0  0  0
   32.5584   25.0398   45.6850 O   0  0  0  0  0  0  0  0  0  0  0  0
   33.8578   24.0971   47.5242 C   0  0  2  0  0  0  0  0  0  0  0  0
   32.8833   24.5536   48.4777 O   0  0  0  0  0  0  0  0  0  0  0  0
   35.2798   24.1292   48.1640 C   0  0  2  0  0  0  0  0  0  0  0  0
   36.2840   23.6844   47.2040 O   0  0  0  0  0  0  0  0  0  0  0  0
   35.3575   23.1883   49.3774 C   0  0  0  0  0  0  0  0  0  0  0  0
   35.4778   21.8190   48.9532 O   0  0  0  0  0  0  0  0  0  0  0  0
  1  2  1  1  0  0  0
  1  3  1  0  0  0  0
  1  4  2  0  0  0  0
  1 16  1  0  0  0  0
  5  6  1  1  0  0  0
  5  7  1  0  0  0  0
  5 14  1  0  0  0  0
  7  8  1  6  0  0  0
  7  9  1  0  0  0  0
  9 10  1  6  0  0  0
  9 11  1  0  0  0  0
 11 12  1  1  0  0  0
 11 13  1  0  0  0  0
 13 14  1  0  0  0  0
 13 15  1  1  0  0  0
 15 16  1  0  0  0  0
M  CHG  1   3  -1
M  END
>  <CHROM.1>
77.38706488,169.35572388,-50.54693280,35.18711581,23.18677373,48.08954468
-1.37329883,0.19193275,-0.86318388

>  <Name>
ligand

>  <RI>
0

>  <Rbt.Current_Directory>
/home/itssahil/PROJECTS/Mol_Feturizer/New_Systems/rnas/3B4A

>  <Rbt.Executable>
rbdock ($Id: //depot/dev/client3/rdock/2013.1/src/exe/rbdock.cxx#4 $)

>  <Rbt.Library>
libRbt.so (2013.1, Build901 2013/11/27)

>  <Rbt.Parameter_File>
/export/apps/rDock/src/rDock_2013.1_src/data/scripts/dock_solv.prm

>  <Rbt.Receptor>
prm/blind_docking_80.prm

>  <SCORE>
-4.68686

>  <SCORE.INTER>
-4.05922

>  <SCORE.INTER.CONST>
1

>  <SCORE.INTER.POLAR>
0

>  <SCORE.INTER.ROT>
3

>  <SCORE.INTER.SOLV>
13.8156

>  <SCORE.INTER.VDW>
-12.9113

>  <SCORE.INTER.norm>
-0.253701

>  <SCORE.INTRA>
-0.627646

>  <SCORE.INTRA.DIHEDRAL>
-0.344298

>  <SCORE.INTRA.DIHEDRAL.0>
2.05999

>  <SCORE.INTRA.POLAR>
0

>  <SCORE.INTRA.POLAR.0>
0

>  <SCORE.INTRA.REPUL>
0

>  <SCORE.INTRA.REPUL.0>
0

>  <SCORE.INTRA.SOLV>
-0.987927

>  <SCORE.INTRA.SOLV.lig_0>
-58.7001

>  <SCORE.INTRA.VDW>
0.0384668

>  <SCORE.INTRA.VDW.0>
-0.401036

>  <SCORE.INTRA.norm>
-0.0392279

>  <SCORE.RESTR>
0

>  <SCORE.RESTR.CAVITY>
0

>  <SCORE.RESTR.norm>
0

>  <SCORE.SYSTEM>
0

>  <SCORE.SYSTEM.CONST>
0

>  <SCORE.SYSTEM.DIHEDRAL>
0

>  <SCORE.SYSTEM.SOLV>
0

>  <SCORE.SYSTEM.norm>
0

>  <SCORE.heavy>
16

>  <SCORE.norm>
-0.292929

>  <RMSD>
18.580

$$$$
ligand
 OpenBabel11021811463D
libRbt.so/2013.1/901 2013/11/27
 16 16  0  0  0  0  0  0  0  0999 V2000
   34.5956   21.1491   48.8646 P   0  0  2  0  0  0  0  0  0  0  0  0
   33.7799   19.9604   49.2171 O   0  0  0  0  0  0  0  0  0  0  0  0
   35.3789   20.8647   47.4839 O   0  5  0  0  0  0  0  0  0  0  0  0
   35.6552   21.4260   50.0553 O   0  0  0  0  0  0  0  0  0  0  0  0
   32.2706   26.2531   49.9489 C   0  0  2  0  0  0  0  0  0  0  0  0
   31.0622   26.0561   49.1801 O   0  0  0  0  0  0  0  0  0  0  0  0
   33.0315   27.5254   49.4753 C   0  0  2  0  0  0  0  0  0  0  0  0
   32.1519   28.7020   49.6022 N   0  0  0  0  0  0  0  0  0  0  0  0
   33.4486   27.3327   48.0008 C   0  0  1  0  0  0  0  0  0  0  0  0
   34.1607   28.4922   47.5372 O   0  0  0  0  0  0  0  0  0  0  0  0
   34.3632   26.0920   47.9342 C   0  0  2  0  0  0  0  0  0  0  0  0
   34.7661   25.8767   46.5709 O   0  0  0  0  0  0  0  0  0  0  0  0
   33.5544   24.8612   48.4478 C   0  0  2  0  0  0  0  0  0  0  0  0
   33.1230   25.0700   49.8255 O   0  0  0  0  0  0  0  0  0  0  0  0
   34.4173   23.5890   48.4256 C   0  0  0  0  0  0  0  0  0  0  0  0
   33.6127   22.4235   48.6778 O   0  0  0  0  0  0  0  0  0  0  0  0
  1  2  1  1  0  0  0
  1  3  1  0  0  0  0
  1  4  2  0  0  0  0
  1 16  1  0  0  0  0
  5  6  1  6  0  0  0
  5  7  1  0  0  0  0
  5 14  1  0  0  0  0
  7  8  1  6  0  0  0
  7  9  1  0  0  0  0
  9 10  1  1  0  0  0
  9 11  1  0  0  0  0
 11 12  1  6  0  0  0
 11 13  1  0  0  0  0
 13 14  1  0  0  0  0
 13 15  1  1  0  0  0
 15 16  1  0  0  0  0
M  CHG  1   3  -1
M  END
>  <CHROM.1>
-170.13800821,-171.57867892,176.16719685,33.79238728,24.39497384,48.70416063
1.21944646,-0.75432824,2.87143447

>  <Name>
ligand

>  <RI>
0

>  <Rbt.Current_Directory>
/home/itssahil/PROJECTS/Mol_Feturizer/New_Systems/rnas/3B4A

>  <Rbt.Executable>
rbdock ($Id: //depot/dev/client3/rdock/2013.1/src/exe/rbdock.cxx#4 $)

>  <Rbt.Library>
libRbt.so (2013.1, Build901 2013/11/27)

>  <Rbt.Parameter_File>
/export/apps/rDock/src/rDock_2013.1_src/data/scripts/dock_solv.prm

>  <Rbt.Receptor>
prm/blind_docking_80.prm

>  <SCORE>
-11.6886

>  <SCORE.INTER>
-10.5226

>  <SCORE.INTER.CONST>
1

>  <SCORE.INTER.POLAR>
0

>  <SCORE.INTER.ROT>
3

>  <SCORE.INTER.SOLV>
14.4279

>  <SCORE.INTER.VDW>
-17.4244

>  <SCORE.INTER.norm>
-0.657664

>  <SCORE.INTRA>
-1.16599

>  <SCORE.INTRA.DIHEDRAL>
-1.3425

>  <SCORE.INTRA.DIHEDRAL.0>
2.05999

>  <SCORE.INTRA.POLAR>
0

>  <SCORE.INTRA.POLAR.0>
0

>  <SCORE.INTRA.REPUL>
0

>  <SCORE.INTRA.REPUL.0>
0

>  <SCORE.INTRA.SOLV>
-0.391414

>  <SCORE.INTRA.SOLV.lig_0>
-58.7001

>  <SCORE.INTRA.VDW>
-0.299033

>  <SCORE.INTRA.VDW.0>
-0.401036

>  <SCORE.INTRA.norm>
-0.0728745

>  <SCORE.RESTR>
0

>  <SCORE.RESTR.CAVITY>
0

>  <SCORE.RESTR.norm>
0

>  <SCORE.SYSTEM>
0

>  <SCORE.SYSTEM.CONST>
0

>  <SCORE.SYSTEM.DIHEDRAL>
0

>  <SCORE.SYSTEM.SOLV>
0

>  <SCORE.SYSTEM.norm>
0

>  <SCORE.heavy>
16

>  <SCORE.norm>
-0.730538

>  <RMSD>
18.585

$$$$
ligand
 OpenBabel11021811463D
libRbt.so/2013.1/901 2013/11/27
 16 16  0  0  0  0  0  0  0  0999 V2000
   34.6126   21.1429   48.8713 P   0  0  2  0  0  0  0  0  0  0  0  0
   33.8035   19.9584   49.2517 O   0  0  0  0  0  0  0  0  0  0  0  0
   35.3870   20.8354   47.4904 O   0  5  0  0  0  0  0  0  0  0  0  0
   35.6798   21.4453   50.0490 O   0  0  0  0  0  0  0  0  0  0  0  0
   32.2905   26.2412   49.9507 C   0  0  2  0  0  0  0  0  0  0  0  0
   31.0730   26.0394   49.1975 O   0  0  0  0  0  0  0  0  0  0  0  0
   33.0426   27.5139   49.4643 C   0  0  2  0  0  0  0  0  0  0  0  0
   32.1620   28.6889   49.5987 N   0  0  0  0  0  0  0  0  0  0  0  0
   33.4418   27.3180   47.9852 C   0  0  1  0  0  0  0  0  0  0  0  0
   34.1456   28.4777   47.5096 O   0  0  0  0  0  0  0  0  0  0  0  0
   34.3583   26.0791   47.9107 C   0  0  2  0  0  0  0  0  0  0  0  0
   34.7448   25.8609   46.5431 O   0  0  0  0  0  0  0  0  0  0  0  0
   33.5587   24.8480   48.4377 C   0  0  2  0  0  0  0  0  0  0  0  0
   33.1439   25.0597   49.8201 O   0  0  0  0  0  0  0  0  0  0  0  0
   34.4240   23.5776   48.4084 C   0  0  0  0  0  0  0  0  0  0  0  0
   33.6241   22.4105   48.6680 O   0  0  0  0  0  0  0  0  0  0  0  0
  1  2  1  1  0  0  0
  1  3  1  0  0  0  0
  1  4  2  0  0  0  0
  1 16  1  0  0  0  0
  5  6  1  6  0  0  0
  5  7  1  0  0  0  0
  5 14  1  0  0  0  0
  7  8  1  6  0  0  0
  7  9  1  0  0  0  0
  9 10  1  1  0  0  0
  9 11  1  0  0  0  0
 11 12  1  6  0  0  0
 11 13  1  0  0  0  0
 13 14  1  0  0  0  0
 13 15  1  1  0  0  0
 15 16  1  0  0  0  0
M  CHG  1   3  -1
M  END
>  <CHROM.1>
-169.89004877,-170.63905427,175.31260481,33.80061083,24.38429901,48.69962918
1.21227049,-0.76536986,2.86045530

>  <Name>
ligand

>  <RI>
0

>  <Rbt.Current_Directory>
/home/itssahil/PROJECTS/Mol_Feturizer/New_Systems/rnas/3B4A

>  <Rbt.Executable>
rbdock ($Id: //depot/dev/client3/rdock/2013.1/src/exe/rbdock.cxx#4 $)

>  <Rbt.Library>
libRbt.so (2013.1, Build901 2013/11/27)

>  <Rbt.Parameter_File>
/export/apps/rDock/src/rDock_2013.1_src/data/scripts/dock_solv.prm

>  <Rbt.Receptor>
prm/blind_docking_80.prm

>  <SCORE>
-11.6767

>  <SCORE.INTER>
-10.5692

>  <SCORE.INTER.CONST>
1

>  <SCORE.INTER.POLAR>
0

>  <SCORE.INTER.ROT>
3

>  <SCORE.INTER.SOLV>
14.3159

>  <SCORE.INTER.VDW>
-17.4181

>  <SCORE.INTER.norm>
-0.660576

>  <SCORE.INTRA>
-1.10745

>  <SCORE.INTRA.DIHEDRAL>
-1.23399

>  <SCORE.INTRA.DIHEDRAL.0>
2.05999

>  <SCORE.INTRA.POLAR>
0

>  <SCORE.INTRA.POLAR.0>
0

>  <SCORE.INTRA.REPUL>
0

>  <SCORE.INTRA.REPUL.0>
0

>  <SCORE.INTRA.SOLV>
-0.38546

>  <SCORE.INTRA.SOLV.lig_0>
-58.7001

>  <SCORE.INTRA.VDW>
-0.29772

>  <SCORE.INTRA.VDW.0>
-0.401036

>  <SCORE.INTRA.norm>
-0.0692153

>  <SCORE.RESTR>
0

>  <SCORE.RESTR.CAVITY>
0

>  <SCORE.RESTR.norm>
0

>  <SCORE.SYSTEM>
0

>  <SCORE.SYSTEM.CONST>
0

>  <SCORE.SYSTEM.DIHEDRAL>
0

>  <SCORE.SYSTEM.SOLV>
0

>  <SCORE.SYSTEM.norm>
0

>  <SCORE.heavy>
16

>  <SCORE.norm>
-0.729792

>  <RMSD>
18.585

$$$$
ligand
 OpenBabel11021811463D
libRbt.so/2013.1/901 2013/11/27
 16 16  0  0  0  0  0  0  0  0999 V2000
   34.5860   21.1455   48.8648 P   0  0  2  0  0  0  0  0  0  0  0  0
   33.7620   19.9466   49.1583 O   0  0  0  0  0  0  0  0  0  0  0  0
   35.4074   20.9032   47.4982 O   0  5  0  0  0  0  0  0  0  0  0  0
   35.6122   21.3860   50.0922 O   0  0  0  0  0  0  0  0  0  0  0  0
   32.2143   26.2459   49.9640 C   0  0  2  0  0  0  0  0  0  0  0  0
   31.0304   26.0466   49.1584 O   0  0  0  0  0  0  0  0  0  0  0  0
   32.9832   27.5235   49.5186 C   0  0  2  0  0  0  0  0  0  0  0  0
   32.0949   28.6957   49.6235 N   0  0  0  0  0  0  0  0  0  0  0  0
   33.4453   27.3387   48.0565 C   0  0  1  0  0  0  0  0  0  0  0  0
   34.1659   28.5032   47.6191 O   0  0  0  0  0  0  0  0  0  0  0  0
   34.3672   26.1023   48.0126 C   0  0  2  0  0  0  0  0  0  0  0  0
   34.8119   25.8944   46.6612 O   0  0  0  0  0  0  0  0  0  0  0  0
   33.5490   24.8659   48.4967 C   0  0  2  0  0  0  0  0  0  0  0  0
   33.0754   25.0671   49.8617 O   0  0  0  0  0  0  0  0  0  0  0  0
   34.4179   23.5975   48.4956 C   0  0  0  0  0  0  0  0  0  0  0  0
   33.6076   22.4249   48.6898 O   0  0  0  0  0  0  0  0  0  0  0  0
  1  2  1  1  0  0  0
  1  3  1  0  0  0  0
  1  4  2  0  0  0  0
  1 16  1  0  0  0  0
  5  6  1  6  0  0  0
  5  7  1  0  0  0  0
  5 14  1  0  0  0  0
  7  8  1  6  0  0  0
  7  9  1  0  0  0  0
  9 10  1  1  0  0  0
  9 11  1  0  0  0  0
 11 12  1  6  0  0  0
 11 13  1  0  0  0  0
 13 14  1  0  0  0  0
 13 15  1  1  0  0  0
 15 16  1  0  0  0  0
M  CHG  1   3  -1
M  END
>  <CHROM.1>
-168.88659367,-173.02288413,176.16421724,33.77823837,24.39540676,48.73384429
1.22520958,-0.72534955,2.89016287

>  <Name>
ligand

>  <RI>
0

>  <Rbt.Current_Directory>
/home/itssahil/PROJECTS/Mol_Feturizer/New_Systems/rnas/3B4A

>  <Rbt.Executable>
rbdock ($Id: //depot/dev/client3/rdock/2013.1/src/exe/rbdock.cxx#4 $)

>  <Rbt.Library>
libRbt.so (2013.1, Build901 2013/11/27)

>  <Rbt.Parameter_File>
/export/apps/rDock/src/rDock_2013.1_src/data/scripts/dock_solv.prm

>  <Rbt.Receptor>
prm/blind_docking_80.prm

>  <SCORE>
-11.5927

>  <SCORE.INTER>
-10.4128

>  <SCORE.INTER.CONST>
1

>  <SCORE.INTER.POLAR>
0

>  <SCORE.INTER.ROT>
3

>  <SCORE.INTER.SOLV>
14.7923

>  <SCORE.INTER.VDW>
-17.4726

>  <SCORE.INTER.norm>
-0.6508

>  <SCORE.INTRA>
-1.1799

>  <SCORE.INTRA.DIHEDRAL>
-1.35871

>  <SCORE.INTRA.DIHEDRAL.0>
2.05999

>  <SCORE.INTRA.POLAR>
0

>  <SCORE.INTRA.POLAR.0>
0

>  <SCORE.INTRA.REPUL>
0

>  <SCORE.INTRA.REPUL.0>
0

>  <SCORE.INTRA.SOLV>
-0.406113

>  <SCORE.INTRA.SOLV.lig_0>
-58.7001

>  <SCORE.INTRA.VDW>
-0.297486

>  <SCORE.INTRA.VDW.0>
-0.401036

>  <SCORE.INTRA.norm>
-0.0737437

>  <SCORE.RESTR>
0

>  <SCORE.RESTR.CAVITY>
0

>  <SCORE.RESTR.norm>
0

>  <SCORE.SYSTEM>
0

>  <SCORE.SYSTEM.CONST>
0

>  <SCORE.SYSTEM.DIHEDRAL>
0

>  <SCORE.SYSTEM.SOLV>
0

>  <SCORE.SYSTEM.norm>
0

>  <SCORE.heavy>
16

>  <SCORE.norm>
-0.724544

>  <RMSD>
18.588

$$$$
ligand
 OpenBabel11021811463D
libRbt.so/2013.1/901 2013/11/27
 16 16  0  0  0  0  0  0  0  0999 V2000
   31.5348   25.8254   49.6903 P   0  0  2  0  0  0  0  0  0  0  0  0
   30.8825   25.7815   51.0226 O   0  0  0  0  0  0  0  0  0  0  0  0
   31.6748   27.3613   49.2184 O   0  5  0  0  0  0  0  0  0  0  0  0
   30.6234   25.0033   48.6363 O   0  0  0  0  0  0  0  0  0  0  0  0
   35.7991   22.0981   49.0944 C   0  0  2  0  0  0  0  0  0  0  0  0
   36.7042   22.6847   50.0571 O   0  0  0  0  0  0  0  0  0  0  0  0
   36.4758   21.9706   47.6987 C   0  0  2  0  0  0  0  0  0  0  0  0
   37.6951   21.1496   47.8147 N   0  0  0  0  0  0  0  0  0  0  0  0
   36.8358   23.3845   47.1921 C   0  0  1  0  0  0  0  0  0  0  0  0
   37.4578   23.2983   45.8989 O   0  0  0  0  0  0  0  0  0  0  0  0
   35.5243   24.1911   47.0925 C   0  0  2  0  0  0  0  0  0  0  0  0
   35.8225   25.5193   46.6297 O   0  0  0  0  0  0  0  0  0  0  0  0
   34.8827   24.2568   48.5125 C   0  0  2  0  0  0  0  0  0  0  0  0
   34.5887   22.9155   49.0048 O   0  0  0  0  0  0  0  0  0  0  0  0
   33.5565   25.0340   48.4806 C   0  0  0  0  0  0  0  0  0  0  0  0
   33.0062   25.1568   49.8039 O   0  0  0  0  0  0  0  0  0  0  0  0
  1  2  1  1  0  0  0
  1  3  1  0  0  0  0
  1  4  2  0  0  0  0
  1 16  1  0  0  0  0
  5  6  1  1  0  0  0
  5  7  1  0  0  0  0
  5 14  1  0  0  0  0
  7  8  1  1  0  0  0
  7  9  1  0  0  0  0
  9 10  1  6  0  0  0
  9 11  1  0  0  0  0
 11 12  1  1  0  0  0
 11 13  1  0  0  0  0
 13 14  1  0  0  0  0
 13 15  1  6  0  0  0
 15 16  1  0  0  0  0
M  CHG  1   3  -1
M  END
>  <CHROM.1>
-176.76893294,-173.41749532,172.12541840,34.29055115,24.27482912,48.60099646
3.04805876,0.61236339,-0.83889046

>  <Name>
ligand

>  <RI>
0

>  <Rbt.Current_Directory>
/home/itssahil/PROJECTS/Mol_Feturizer/New_Systems/rnas/3B4A

>  <Rbt.Executable>
rbdock ($Id: //depot/dev/client3/rdock/2013.1/src/exe/rbdock.cxx#4 $)

>  <Rbt.Library>
libRbt.so (2013.1, Build901 2013/11/27)

>  <Rbt.Parameter_File>
/export/apps/rDock/src/rDock_2013.1_src/data/scripts/dock_solv.prm

>  <Rbt.Receptor>
prm/blind_docking_80.prm

>  <SCORE>
-9.82627

>  <SCORE.INTER>
-8.51915

>  <SCORE.INTER.CONST>
1

>  <SCORE.INTER.POLAR>
0

>  <SCORE.INTER.ROT>
3

>  <SCORE.INTER.SOLV>
19.2906

>  <SCORE.INTER.VDW>
-17.7096

>  <SCORE.INTER.norm>
-0.532447

>  <SCORE.INTRA>
-1.30712

>  <SCORE.INTRA.DIHEDRAL>
-1.70693

>  <SCORE.INTRA.DIHEDRAL.0>
2.05999

>  <SCORE.INTRA.POLAR>
0

>  <SCORE.INTRA.POLAR.0>
0

>  <SCORE.INTRA.REPUL>
0

>  <SCORE.INTRA.REPUL.0>
0

>  <SCORE.INTRA.SOLV>
-0.389631

>  <SCORE.INTRA.SOLV.lig_0>
-58.7001

>  <SCORE.INTRA.VDW>
-0.258846

>  <SCORE.INTRA.VDW.0>
-0.401036

>  <SCORE.INTRA.norm>
-0.0816953

>  <SCORE.RESTR>
0

>  <SCORE.RESTR.CAVITY>
0

>  <SCORE.RESTR.norm>
0

>  <SCORE.SYSTEM>
0

>  <SCORE.SYSTEM.CONST>
0

>  <SCORE.SYSTEM.DIHEDRAL>
0

>  <SCORE.SYSTEM.SOLV>
0

>  <SCORE.SYSTEM.norm>
0

>  <SCORE.heavy>
16

>  <SCORE.norm>
-0.614142

>  <RMSD>
18.595

$$$$
ligand
 OpenBabel11021811463D
libRbt.so/2013.1/901 2013/11/27
 16 16  0  0  0  0  0  0  0  0999 V2000
   33.2808   26.7083   48.2153 P   0  0  2  0  0  0  0  0  0  0  0  0
   32.0577   26.4288   49.0081 O   0  0  0  0  0  0  0  0  0  0  0  0
   33.8357   28.1742   48.5948 O   0  5  0  0  0  0  0  0  0  0  0  0
   32.9075   26.6478   46.6423 O   0  0  0  0  0  0  0  0  0  0  0  0
   36.2914   22.5098   50.5481 C   0  0  2  0  0  0  0  0  0  0  0  0
   37.4600   22.5640   49.6986 O   0  0  0  0  0  0  0  0  0  0  0  0
   35.6718   21.0822   50.5536 C   0  0  2  0  0  0  0  0  0  0  0  0
   36.6794   20.1090   51.0140 N   0  0  0  0  0  0  0  0  0  0  0  0
   35.2167   20.7346   49.1192 C   0  0  1  0  0  0  0  0  0  0  0  0
   34.6330   19.4210   49.0949 O   0  0  0  0  0  0  0  0  0  0  0  0
   34.1679   21.7843   48.6965 C   0  0  2  0  0  0  0  0  0  0  0  0
   33.7257   21.4959   47.3592 O   0  0  0  0  0  0  0  0  0  0  0  0
   34.8402   23.1909   48.7401 C   0  0  2  0  0  0  0  0  0  0  0  0
   35.3102   23.4930   50.0876 O   0  0  0  0  0  0  0  0  0  0  0  0
   33.8400   24.2902   48.3465 C   0  0  0  0  0  0  0  0  0  0  0  0
   34.4027   25.5949   48.5710 O   0  0  0  0  0  0  0  0  0  0  0  0
  1  2  1  1  0  0  0
  1  3  1  0  0  0  0
  1  4  2  0  0  0  0
  1 16  1  0  0  0  0
  5  6  1  6  0  0  0
  5  7  1  0  0  0  0
  5 14  1  0  0  0  0
  7  8  1  6  0  0  0
  7  9  1  0  0  0  0
  9 10  1  1  0  0  0
  9 11  1  0  0  0  0
 11 12  1  6  0  0  0
 11 13  1  0  0  0  0
 13 14  1  0  0  0  0
 13 15  1  1  0  0  0
 15 16  1  0  0  0  0
M  CHG  1   3  -1
M  END
>  <CHROM.1>
171.76277340,-177.01788281,55.12411056,34.51919880,23.69572120,48.92955685
-2.07410645,0.69713428,-3.06751167

>  <Name>
ligand

>  <RI>
0

>  <Rbt.Current_Directory>
/home/itssahil/PROJECTS/Mol_Feturizer/New_Systems/rnas/3B4A

>  <Rbt.Executable>
rbdock ($Id: //depot/dev/client3/rdock/2013.1/src/exe/rbdock.cxx#4 $)

>  <Rbt.Library>
libRbt.so (2013.1, Build901 2013/11/27)

>  <Rbt.Parameter_File>
/export/apps/rDock/src/rDock_2013.1_src/data/scripts/dock_solv.prm

>  <Rbt.Receptor>
prm/blind_docking_80.prm

>  <SCORE>
-11.4386

>  <SCORE.INTER>
-10.0299

>  <SCORE.INTER.CONST>
1

>  <SCORE.INTER.POLAR>
0

>  <SCORE.INTER.ROT>
3

>  <SCORE.INTER.SOLV>
14.4474

>  <SCORE.INTER.VDW>
-17.1024

>  <SCORE.INTER.norm>
-0.62687

>  <SCORE.INTRA>
-1.40871

>  <SCORE.INTRA.DIHEDRAL>
-1.73581

>  <SCORE.INTRA.DIHEDRAL.0>
2.05999

>  <SCORE.INTRA.POLAR>
0

>  <SCORE.INTRA.POLAR.0>
0

>  <SCORE.INTRA.REPUL>
0

>  <SCORE.INTRA.REPUL.0>
0

>  <SCORE.INTRA.SOLV>
-1.08497

>  <SCORE.INTRA.SOLV.lig_0>
-58.7001

>  <SCORE.INTRA.VDW>
0.00167572

>  <SCORE.INTRA.VDW.0>
-0.401036

>  <SCORE.INTRA.norm>
-0.0880446

>  <SCORE.RESTR>
0

>  <SCORE.RESTR.CAVITY>
0

>  <SCORE.RESTR.norm>
0

>  <SCORE.SYSTEM>
0

>  <SCORE.SYSTEM.CONST>
0

>  <SCORE.SYSTEM.DIHEDRAL>
0

>  <SCORE.SYSTEM.SOLV>
0

>  <SCORE.SYSTEM.norm>
0

>  <SCORE.heavy>
16

>  <SCORE.norm>
-0.714915

>  <RMSD>
18.604

$$$$
ligand
 OpenBabel11021811463D
libRbt.so/2013.1/901 2013/11/27
 16 16  0  0  0  0  0  0  0  0999 V2000
   33.2746   26.7107   48.4825 P   0  0  2  0  0  0  0  0  0  0  0  0
   32.0868   26.3829   49.3096 O   0  0  0  0  0  0  0  0  0  0  0  0
   33.8473   28.1523   48.9242 O   0  5  0  0  0  0  0  0  0  0  0  0
   32.8334   26.7434   46.9264 O   0  0  0  0  0  0  0  0  0  0  0  0
   36.3381   22.4023   50.5085 C   0  0  2  0  0  0  0  0  0  0  0  0
   37.4804   22.4883   49.6266 O   0  0  0  0  0  0  0  0  0  0  0  0
   35.7105   20.9786   50.4709 C   0  0  2  0  0  0  0  0  0  0  0  0
   36.7260   19.9816   50.8570 N   0  0  0  0  0  0  0  0  0  0  0  0
   35.2095   20.6962   49.0375 C   0  0  1  0  0  0  0  0  0  0  0  0
   34.6177   19.3877   48.9739 O   0  0  0  0  0  0  0  0  0  0  0  0
   34.1546   21.7681   48.6936 C   0  0  2  0  0  0  0  0  0  0  0  0
   33.6698   21.5407   47.3593 O   0  0  0  0  0  0  0  0  0  0  0  0
   34.8362   23.1685   48.7777 C   0  0  2  0  0  0  0  0  0  0  0  0
   35.3491   23.4091   50.1219 O   0  0  0  0  0  0  0  0  0  0  0  0
   33.8309   24.2884   48.4636 C   0  0  0  0  0  0  0  0  0  0  0  0
   34.4096   25.5797   48.7225 O   0  0  0  0  0  0  0  0  0  0  0  0
  1  2  1  1  0  0  0
  1  3  1  0  0  0  0
  1  4  2  0  0  0  0
  1 16  1  0  0  0  0
  5  6  1  6  0  0  0
  5  7  1  0  0  0  0
  5 14  1  0  0  0  0
  7  8  1  6  0  0  0
  7  9  1  0  0  0  0
  9 10  1  1  0  0  0
  9 11  1  0  0  0  0
 11 12  1  6  0  0  0
 11 13  1  0  0  0  0
 13 14  1  0  0  0  0
 13 15  1  1  0  0  0
 15 16  1  0  0  0  0
M  CHG  1   3  -1
M  END
>  <CHROM.1>
171.97935266,-175.78100146,54.32870125,34.52122305,23.66535803,49.00905496
-2.06505289,0.66565383,-3.02523497

>  <Name>
ligand

>  <RI>
0

>  <Rbt.Current_Directory>
/home/itssahil/PROJECTS/Mol_Feturizer/New_Systems/rnas/3B4A

>  <Rbt.Executable>
rbdock ($Id: //depot/dev/client3/rdock/2013.1/src/exe/rbdock.cxx#4 $)

>  <Rbt.Library>
libRbt.so (2013.1, Build901 2013/11/27)

>  <Rbt.Parameter_File>
/export/apps/rDock/src/rDock_2013.1_src/data/scripts/dock_solv.prm

>  <Rbt.Receptor>
prm/blind_docking_80.prm

>  <SCORE>
-11.3929

>  <SCORE.INTER>
-10.0131

>  <SCORE.INTER.CONST>
1

>  <SCORE.INTER.POLAR>
0

>  <SCORE.INTER.ROT>
3

>  <SCORE.INTER.SOLV>
14.6664

>  <SCORE.INTER.VDW>
-17.1642

>  <SCORE.INTER.norm>
-0.625819

>  <SCORE.INTRA>
-1.37979

>  <SCORE.INTRA.DIHEDRAL>
-1.69082

>  <SCORE.INTRA.DIHEDRAL.0>
2.05999

>  <SCORE.INTRA.POLAR>
0

>  <SCORE.INTRA.POLAR.0>
0

>  <SCORE.INTRA.REPUL>
0

>  <SCORE.INTRA.REPUL.0>
0

>  <SCORE.INTRA.SOLV>
-1.0921

>  <SCORE.INTRA.SOLV.lig_0>
-58.7001

>  <SCORE.INTRA.VDW>
0.0116678

>  <SCORE.INTRA.VDW.0>
-0.401036

>  <SCORE.INTRA.norm>
-0.0862369

>  <SCORE.RESTR>
0

>  <SCORE.RESTR.CAVITY>
0

>  <SCORE.RESTR.norm>
0

>  <SCORE.SYSTEM>
0

>  <SCORE.SYSTEM.CONST>
0

>  <SCORE.SYSTEM.DIHEDRAL>
0

>  <SCORE.SYSTEM.SOLV>
0

>  <SCORE.SYSTEM.norm>
0

>  <SCORE.heavy>
16

>  <SCORE.norm>
-0.712056

>  <RMSD>
18.609

$$$$
ligand
 OpenBabel11021811463D
libRbt.so/2013.1/901 2013/11/27
 16 16  0  0  0  0  0  0  0  0999 V2000
   33.3724   26.5628   48.4721 P   0  0  2  0  0  0  0  0  0  0  0  0
   32.2253   26.2894   49.3733 O   0  0  0  0  0  0  0  0  0  0  0  0
   33.9780   28.0187   48.8110 O   0  5  0  0  0  0  0  0  0  0  0  0
   32.8534   26.5220   46.9404 O   0  0  0  0  0  0  0  0  0  0  0  0
   36.3981   22.2637   50.5915 C   0  0  2  0  0  0  0  0  0  0  0  0
   37.5548   22.3529   49.7289 O   0  0  0  0  0  0  0  0  0  0  0  0
   35.7764   20.8377   50.5450 C   0  0  2  0  0  0  0  0  0  0  0  0
   36.7888   19.8448   50.9493 N   0  0  0  0  0  0  0  0  0  0  0  0
   35.3008   20.5519   49.1036 C   0  0  1  0  0  0  0  0  0  0  0  0
   34.7148   19.2411   49.0316 O   0  0  0  0  0  0  0  0  0  0  0  0
   34.2478   21.6196   48.7407 C   0  0  2  0  0  0  0  0  0  0  0  0
   33.7865   21.3889   47.3986 O   0  0  0  0  0  0  0  0  0  0  0  0
   34.9229   23.0225   48.8347 C   0  0  2  0  0  0  0  0  0  0  0  0
   35.4121   23.2665   50.1871 O   0  0  0  0  0  0  0  0  0  0  0  0
   33.9189   24.1384   48.5023 C   0  0  0  0  0  0  0  0  0  0  0  0
   34.5090   25.4335   48.7119 O   0  0  0  0  0  0  0  0  0  0  0  0
  1  2  1  1  0  0  0
  1  3  1  0  0  0  0
  1  4  2  0  0  0  0
  1 16  1  0  0  0  0
  5  6  1  6  0  0  0
  5  7  1  0  0  0  0
  5 14  1  0  0  0  0
  7  8  1  6  0  0  0
  7  9  1  0  0  0  0
  9 10  1  1  0  0  0
  9 11  1  0  0  0  0
 11 12  1  6  0  0  0
 11 13  1  0  0  0  0
 13 14  1  0  0  0  0
 13 15  1  1  0  0  0
 15 16  1  0  0  0  0
M  CHG  1   3  -1
M  END
>  <CHROM.1>
174.58145307,-175.13686704,56.30914775,34.60908321,23.51982341,49.04582237
-2.06799001,0.68224137,-3.03117716

>  <Name>
ligand

>  <RI>
0

>  <Rbt.Current_Directory>
/home/itssahil/PROJECTS/Mol_Feturizer/New_Systems/rnas/3B4A

>  <Rbt.Executable>
rbdock ($Id: //depot/dev/client3/rdock/2013.1/src/exe/rbdock.cxx#4 $)

>  <Rbt.Library>
libRbt.so (2013.1, Build901 2013/11/27)

>  <Rbt.Parameter_File>
/export/apps/rDock/src/rDock_2013.1_src/data/scripts/dock_solv.prm

>  <Rbt.Receptor>
prm/blind_docking_80.prm

>  <SCORE>
-11.512

>  <SCORE.INTER>
-10.0292

>  <SCORE.INTER.CONST>
1

>  <SCORE.INTER.POLAR>
0

>  <SCORE.INTER.ROT>
3

>  <SCORE.INTER.SOLV>
14.6491

>  <SCORE.INTER.VDW>
-17.1692

>  <SCORE.INTER.norm>
-0.626826

>  <SCORE.INTRA>
-1.48282

>  <SCORE.INTRA.DIHEDRAL>
-1.81538

>  <SCORE.INTRA.DIHEDRAL.0>
2.05999

>  <SCORE.INTRA.POLAR>
0

>  <SCORE.INTRA.POLAR.0>
0

>  <SCORE.INTRA.REPUL>
0

>  <SCORE.INTRA.REPUL.0>
0

>  <SCORE.INTRA.SOLV>
-1.07934

>  <SCORE.INTRA.SOLV.lig_0>
-58.7001

>  <SCORE.INTRA.VDW>
-0.0354629

>  <SCORE.INTRA.VDW.0>
-0.401036

>  <SCORE.INTRA.norm>
-0.0926765

>  <SCORE.RESTR>
0

>  <SCORE.RESTR.CAVITY>
0

>  <SCORE.RESTR.norm>
0

>  <SCORE.SYSTEM>
0

>  <SCORE.SYSTEM.CONST>
0

>  <SCORE.SYSTEM.DIHEDRAL>
0

>  <SCORE.SYSTEM.SOLV>
0

>  <SCORE.SYSTEM.norm>
0

>  <SCORE.heavy>
16

>  <SCORE.norm>
-0.719503

>  <RMSD>
18.618

$$$$
ligand
 OpenBabel11021811463D
libRbt.so/2013.1/901 2013/11/27
 16 16  0  0  0  0  0  0  0  0999 V2000
   33.3798   26.5337   48.4433 P   0  0  2  0  0  0  0  0  0  0  0  0
   32.2241   26.2709   49.3364 O   0  0  0  0  0  0  0  0  0  0  0  0
   33.9798   27.9951   48.7681 O   0  5  0  0  0  0  0  0  0  0  0  0
   32.8765   26.4709   46.9071 O   0  0  0  0  0  0  0  0  0  0  0  0
   36.3967   22.2275   50.5869 C   0  0  2  0  0  0  0  0  0  0  0  0
   37.5685   22.3430   49.7480 O   0  0  0  0  0  0  0  0  0  0  0  0
   35.7910   20.7963   50.5046 C   0  0  2  0  0  0  0  0  0  0  0  0
   36.8058   19.8070   50.9116 N   0  0  0  0  0  0  0  0  0  0  0  0
   35.3456   20.5301   49.0499 C   0  0  1  0  0  0  0  0  0  0  0  0
   34.7748   19.2149   48.9448 O   0  0  0  0  0  0  0  0  0  0  0  0
   34.2887   21.5931   48.6849 C   0  0  2  0  0  0  0  0  0  0  0  0
   33.8553   21.3804   47.3306 O   0  0  0  0  0  0  0  0  0  0  0  0
   34.9471   23.0010   48.8151 C   0  0  2  0  0  0  0  0  0  0  0  0
   35.4081   23.2270   50.1805 O   0  0  0  0  0  0  0  0  0  0  0  0
   33.9380   24.1121   48.4823 C   0  0  0  0  0  0  0  0  0  0  0  0
   34.5157   25.4097   48.7102 O   0  0  0  0  0  0  0  0  0  0  0  0
  1  2  1  1  0  0  0
  1  3  1  0  0  0  0
  1  4  2  0  0  0  0
  1 16  1  0  0  0  0
  5  6  1  6  0  0  0
  5  7  1  0  0  0  0
  5 14  1  0  0  0  0
  7  8  1  6  0  0  0
  7  9  1  0  0  0  0
  9 10  1  1  0  0  0
  9 11  1  0  0  0  0
 11 12  1  6  0  0  0
 11 13  1  0  0  0  0
 13 14  1  0  0  0  0
 13 15  1  1  0  0  0
 15 16  1  0  0  0  0
M  CHG  1   3  -1
M  END
>  <CHROM.1>
175.23938476,-176.12071402,57.62560525,34.62908651,23.49230578,49.01377780
-2.08175782,0.70123340,-3.01200196

>  <Name>
ligand

>  <RI>
0

>  <Rbt.Current_Directory>
/home/itssahil/PROJECTS/Mol_Feturizer/New_Systems/rnas/3B4A

>  <Rbt.Executable>
rbdock ($Id: //depot/dev/client3/rdock/2013.1/src/exe/rbdock.cxx#4 $)

>  <Rbt.Library>
libRbt.so (2013.1, Build901 2013/11/27)

>  <Rbt.Parameter_File>
/export/apps/rDock/src/rDock_2013.1_src/data/scripts/dock_solv.prm

>  <Rbt.Receptor>
prm/blind_docking_80.prm

>  <SCORE>
-11.5045

>  <SCORE.INTER>
-9.96822

>  <SCORE.INTER.CONST>
1

>  <SCORE.INTER.POLAR>
0

>  <SCORE.INTER.ROT>
3

>  <SCORE.INTER.SOLV>
14.3174

>  <SCORE.INTER.VDW>
-17.0179

>  <SCORE.INTER.norm>
-0.623014

>  <SCORE.INTRA>
-1.53626

>  <SCORE.INTRA.DIHEDRAL>
-1.89422

>  <SCORE.INTRA.DIHEDRAL.0>
2.05999

>  <SCORE.INTRA.POLAR>
0

>  <SCORE.INTRA.POLAR.0>
0

>  <SCORE.INTRA.REPUL>
0

>  <SCORE.INTRA.REPUL.0>
0

>  <SCORE.INTRA.SOLV>
-1.06974

>  <SCORE.INTRA.SOLV.lig_0>
-58.7001

>  <SCORE.INTRA.VDW>
-0.0542769

>  <SCORE.INTRA.VDW.0>
-0.401036

>  <SCORE.INTRA.norm>
-0.0960162

>  <SCORE.RESTR>
0

>  <SCORE.RESTR.CAVITY>
0

>  <SCORE.RESTR.norm>
0

>  <SCORE.SYSTEM>
0

>  <SCORE.SYSTEM.CONST>
0

>  <SCORE.SYSTEM.DIHEDRAL>
0

>  <SCORE.SYSTEM.SOLV>
0

>  <SCORE.SYSTEM.norm>
0

>  <SCORE.heavy>
16

>  <SCORE.norm>
-0.71903

>  <RMSD>
18.627

$$$$
ligand
 OpenBabel11021811463D
libRbt.so/2013.1/901 2013/11/27
 16 16  0  0  0  0  0  0  0  0999 V2000
   33.3026   26.6833   48.1735 P   0  0  2  0  0  0  0  0  0  0  0  0
   33.0666   26.6334   46.7091 O   0  0  0  0  0  0  0  0  0  0  0  0
   31.9232   26.3614   48.9446 O   0  5  0  0  0  0  0  0  0  0  0  0
   33.8247   28.1630   48.5673 O   0  0  0  0  0  0  0  0  0  0  0  0
   36.2715   22.5005   50.5714 C   0  0  2  0  0  0  0  0  0  0  0  0
   37.4552   22.5420   49.7424 O   0  0  0  0  0  0  0  0  0  0  0  0
   35.6469   21.0750   50.5805 C   0  0  2  0  0  0  0  0  0  0  0  0
   36.6427   20.1032   51.0686 N   0  0  0  0  0  0  0  0  0  0  0  0
   35.2160   20.7142   49.1418 C   0  0  1  0  0  0  0  0  0  0  0  0
   34.6283   19.4025   49.1205 O   0  0  0  0  0  0  0  0  0  0  0  0
   34.1787   21.7630   48.6899 C   0  0  2  0  0  0  0  0  0  0  0  0
   33.7593   21.4625   47.3479 O   0  0  0  0  0  0  0  0  0  0  0  0
   34.8551   23.1678   48.7310 C   0  0  2  0  0  0  0  0  0  0  0  0
   35.3021   23.4821   50.0835 O   0  0  0  0  0  0  0  0  0  0  0  0
   33.8659   24.2663   48.3085 C   0  0  0  0  0  0  0  0  0  0  0  0
   34.4144   25.5713   48.5641 O   0  0  0  0  0  0  0  0  0  0  0  0
  1  2  1  6  0  0  0
  1  3  1  0  0  0  0
  1  4  2  0  0  0  0
  1 16  1  0  0  0  0
  5  6  1  6  0  0  0
  5  7  1  0  0  0  0
  5 14  1  0  0  0  0
  7  8  1  6  0  0  0
  7  9  1  0  0  0  0
  9 10  1  1  0  0  0
  9 11  1  0  0  0  0
 11 12  1  6  0  0  0
 11 13  1  0  0  0  0
 13 14  1  0  0  0  0
 13 15  1  1  0  0  0
 15 16  1  0  0  0  0
M  CHG  1   3  -1
M  END
>  <CHROM.1>
170.16823913,-177.07666025,-65.67182375,34.52286641,23.67402066,48.92973948
-2.06721665,0.69379075,-3.08036910

>  <Name>
ligand

>  <RI>
0

>  <Rbt.Current_Directory>
/home/itssahil/PROJECTS/Mol_Feturizer/New_Systems/rnas/3B4A

>  <Rbt.Executable>
rbdock ($Id: //depot/dev/client3/rdock/2013.1/src/exe/rbdock.cxx#4 $)

>  <Rbt.Library>
libRbt.so (2013.1, Build901 2013/11/27)

>  <Rbt.Parameter_File>
/export/apps/rDock/src/rDock_2013.1_src/data/scripts/dock_solv.prm

>  <Rbt.Receptor>
prm/blind_docking_80.prm

>  <SCORE>
-11.2237

>  <SCORE.INTER>
-9.92912

>  <SCORE.INTER.CONST>
1

>  <SCORE.INTER.POLAR>
0

>  <SCORE.INTER.ROT>
3

>  <SCORE.INTER.SOLV>
15.2001

>  <SCORE.INTER.VDW>
-17.2861

>  <SCORE.INTER.norm>
-0.62057

>  <SCORE.INTRA>
-1.29462

>  <SCORE.INTRA.DIHEDRAL>
-1.62402

>  <SCORE.INTRA.DIHEDRAL.0>
2.05999

>  <SCORE.INTRA.POLAR>
0

>  <SCORE.INTRA.POLAR.0>
0

>  <SCORE.INTRA.REPUL>
0

>  <SCORE.INTRA.REPUL.0>
0

>  <SCORE.INTRA.SOLV>
-0.942017

>  <SCORE.INTRA.SOLV.lig_0>
-58.7001

>  <SCORE.INTRA.VDW>
-0.0116011

>  <SCORE.INTRA.VDW.0>
-0.401036

>  <SCORE.INTRA.norm>
-0.0809137

>  <SCORE.RESTR>
0

>  <SCORE.RESTR.CAVITY>
0

>  <SCORE.RESTR.norm>
0

>  <SCORE.SYSTEM>
0

>  <SCORE.SYSTEM.CONST>
0

>  <SCORE.SYSTEM.DIHEDRAL>
0

>  <SCORE.SYSTEM.SOLV>
0

>  <SCORE.SYSTEM.norm>
0

>  <SCORE.heavy>
16

>  <SCORE.norm>
-0.701484

>  <RMSD>
18.633

$$$$
ligand
 OpenBabel11021811463D
libRbt.so/2013.1/901 2013/11/27
 16 16  0  0  0  0  0  0  0  0999 V2000
   32.5478   26.7386   49.4406 P   0  0  2  0  0  0  0  0  0  0  0  0
   33.4950   27.6565   50.1210 O   0  0  0  0  0  0  0  0  0  0  0  0
   32.3850   27.1901   47.9009 O   0  5  0  0  0  0  0  0  0  0  0  0
   31.1179   26.8132   50.1935 O   0  0  0  0  0  0  0  0  0  0  0  0
   36.2467   22.5505   50.3667 C   0  0  2  0  0  0  0  0  0  0  0  0
   37.4032   22.5045   49.5004 O   0  0  0  0  0  0  0  0  0  0  0  0
   35.3483   21.2958   50.1647 C   0  0  2  0  0  0  0  0  0  0  0  0
   36.1348   20.0777   50.4325 N   0  0  0  0  0  0  0  0  0  0  0  0
   34.8342   21.2845   48.7083 C   0  0  1  0  0  0  0  0  0  0  0  0
   33.9943   20.1376   48.4938 O   0  0  0  0  0  0  0  0  0  0  0  0
   34.0229   22.5787   48.4911 C   0  0  2  0  0  0  0  0  0  0  0  0
   33.5334   22.6063   47.1395 O   0  0  0  0  0  0  0  0  0  0  0  0
   34.9685   23.7945   48.7366 C   0  0  2  0  0  0  0  0  0  0  0  0
   35.4880   23.7730   50.0995 O   0  0  0  0  0  0  0  0  0  0  0  0
   34.2148   25.1221   48.5545 C   0  0  0  0  0  0  0  0  0  0  0  0
   33.1399   25.2319   49.5041 O   0  0  0  0  0  0  0  0  0  0  0  0
  1  2  1  1  0  0  0
  1  3  1  0  0  0  0
  1  4  2  0  0  0  0
  1 16  1  0  0  0  0
  5  6  1  6  0  0  0
  5  7  1  0  0  0  0
  5 14  1  0  0  0  0
  7  8  1  6  0  0  0
  7  9  1  0  0  0  0
  9 10  1  1  0  0  0
  9 11  1  0  0  0  0
 11 12  1  6  0  0  0
 11 13  1  0  0  0  0
 13 14  1  0  0  0  0
 13 15  1  1  0  0  0
 15 16  1  0  0  0  0
M  CHG  1   3  -1
M  END
>  <CHROM.1>
61.55024531,170.40107448,-75.13174863,34.14047394,23.99058061,49.24517922
-2.17385484,0.56508388,-2.79658766

>  <Name>
ligand

>  <RI>
0

>  <Rbt.Current_Directory>
/home/itssahil/PROJECTS/Mol_Feturizer/New_Systems/rnas/3B4A

>  <Rbt.Executable>
rbdock ($Id: //depot/dev/client3/rdock/2013.1/src/exe/rbdock.cxx#4 $)

>  <Rbt.Library>
libRbt.so (2013.1, Build901 2013/11/27)

>  <Rbt.Parameter_File>
/export/apps/rDock/src/rDock_2013.1_src/data/scripts/dock_solv.prm

>  <Rbt.Receptor>
prm/blind_docking_100.prm

>  <SCORE>
-12.1451

>  <SCORE.INTER>
-11.0695

>  <SCORE.INTER.CONST>
1

>  <SCORE.INTER.POLAR>
0

>  <SCORE.INTER.ROT>
3

>  <SCORE.INTER.SOLV>
17.0776

>  <SCORE.INTER.VDW>
-18.6722

>  <SCORE.INTER.norm>
-0.691845

>  <SCORE.INTRA>
-1.07563

>  <SCORE.INTRA.DIHEDRAL>
-1.24641

>  <SCORE.INTRA.DIHEDRAL.0>
2.05999

>  <SCORE.INTRA.POLAR>
0

>  <SCORE.INTRA.POLAR.0>
0

>  <SCORE.INTRA.REPUL>
0

>  <SCORE.INTRA.REPUL.0>
0

>  <SCORE.INTRA.SOLV>
-0.707416

>  <SCORE.INTRA.SOLV.lig_0>
-58.7001

>  <SCORE.INTRA.VDW>
-0.0987151

>  <SCORE.INTRA.VDW.0>
-0.401036

>  <SCORE.INTRA.norm>
-0.0672267

>  <SCORE.RESTR>
0

>  <SCORE.RESTR.CAVITY>
0

>  <SCORE.RESTR.norm>
0

>  <SCORE.SYSTEM>
0

>  <SCORE.SYSTEM.CONST>
0

>  <SCORE.SYSTEM.DIHEDRAL>
0

>  <SCORE.SYSTEM.SOLV>
0

>  <SCORE.SYSTEM.norm>
0

>  <SCORE.heavy>
16

>  <SCORE.norm>
-0.759072

>  <RMSD>
18.642

$$$$
ligand
 OpenBabel11021811463D
libRbt.so/2013.1/901 2013/11/27
 16 16  0  0  0  0  0  0  0  0999 V2000
   30.2884   30.3291   51.2232 P   0  0  2  0  0  0  0  0  0  0  0  0
   31.4103   30.7040   52.1195 O   0  0  0  0  0  0  0  0  0  0  0  0
   29.5486   31.6675   50.7108 O   0  5  0  0  0  0  0  0  0  0  0  0
   29.2492   29.4034   52.0481 O   0  0  0  0  0  0  0  0  0  0  0  0
   33.7521   27.5809   47.5204 C   0  0  2  0  0  0  0  0  0  0  0  0
   32.7555   27.4290   46.4841 O   0  0  0  0  0  0  0  0  0  0  0  0
   34.3222   26.1988   47.9526 C   0  0  2  0  0  0  0  0  0  0  0  0
   34.9066   25.5183   46.7823 N   0  0  0  0  0  0  0  0  0  0  0  0
   33.1723   25.3504   48.5386 C   0  0  1  0  0  0  0  0  0  0  0  0
   33.6716   24.0677   48.9534 O   0  0  0  0  0  0  0  0  0  0  0  0
   32.6046   26.1122   49.7542 C   0  0  2  0  0  0  0  0  0  0  0  0
   31.5237   25.3535   50.3226 O   0  0  0  0  0  0  0  0  0  0  0  0
   32.0786   27.4954   49.2613 C   0  0  2  0  0  0  0  0  0  0  0  0
   33.1601   28.2726   48.6660 O   0  0  0  0  0  0  0  0  0  0  0  0
   31.5142   28.3172   50.4316 C   0  0  0  0  0  0  0  0  0  0  0  0
   30.8806   29.5166   49.9528 O   0  0  0  0  0  0  0  0  0  0  0  0
  1  2  1  1  0  0  0
  1  3  1  0  0  0  0
  1  4  2  0  0  0  0
  1 16  1  0  0  0  0
  5  6  1  6  0  0  0
  5  7  1  0  0  0  0
  5 14  1  0  0  0  0
  7  8  1  6  0  0  0
  7  9  1  0  0  0  0
  9 10  1  1  0  0  0
  9 11  1  0  0  0  0
 11 12  1  6  0  0  0
 11 13  1  0  0  0  0
 13 14  1  0  0  0  0
 13 15  1  1  0  0  0
 15 16  1  0  0  0  0
M  CHG  1   3  -1
M  END
>  <CHROM.1>
-172.80965467,179.21535371,61.61174331,31.98919859,27.94411025,49.58829428
-2.66190723,-0.94160725,2.76031684

>  <Name>
ligand

>  <RI>
0

>  <Rbt.Current_Directory>
/home/itssahil/PROJECTS/Mol_Feturizer/New_Systems/rnas/3B4A

>  <Rbt.Executable>
rbdock ($Id: //depot/dev/client3/rdock/2013.1/src/exe/rbdock.cxx#4 $)

>  <Rbt.Library>
libRbt.so (2013.1, Build901 2013/11/27)

>  <Rbt.Parameter_File>
/export/apps/rDock/src/rDock_2013.1_src/data/scripts/dock_solv.prm

>  <Rbt.Receptor>
prm/blind_docking_100.prm

>  <SCORE>
-8.63453

>  <SCORE.INTER>
-7.06498

>  <SCORE.INTER.CONST>
1

>  <SCORE.INTER.POLAR>
0

>  <SCORE.INTER.ROT>
3

>  <SCORE.INTER.SOLV>
14.5289

>  <SCORE.INTER.VDW>
-15.1529

>  <SCORE.INTER.norm>
-0.441561

>  <SCORE.INTRA>
-1.56955

>  <SCORE.INTRA.DIHEDRAL>
-1.86335

>  <SCORE.INTRA.DIHEDRAL.0>
2.05999

>  <SCORE.INTRA.POLAR>
0

>  <SCORE.INTRA.POLAR.0>
0

>  <SCORE.INTRA.REPUL>
0

>  <SCORE.INTRA.REPUL.0>
0

>  <SCORE.INTRA.SOLV>
-1.07398

>  <SCORE.INTRA.SOLV.lig_0>
-58.7001

>  <SCORE.INTRA.VDW>
-0.100886

>  <SCORE.INTRA.VDW.0>
-0.401036

>  <SCORE.INTRA.norm>
-0.098097

>  <SCORE.RESTR>
0

>  <SCORE.RESTR.CAVITY>
0

>  <SCORE.RESTR.norm>
0

>  <SCORE.SYSTEM>
0

>  <SCORE.SYSTEM.CONST>
0

>  <SCORE.SYSTEM.DIHEDRAL>
0

>  <SCORE.SYSTEM.SOLV>
0

>  <SCORE.SYSTEM.norm>
0

>  <SCORE.heavy>
16

>  <SCORE.norm>
-0.539658

>  <RMSD>
18.686

$$$$
ligand
 OpenBabel11021811463D
libRbt.so/2013.1/901 2013/11/27
 16 16  0  0  0  0  0  0  0  0999 V2000
   34.5871   21.0082   48.6638 P   0  0  2  0  0  0  0  0  0  0  0  0
   33.7982   19.8185   49.0697 O   0  0  0  0  0  0  0  0  0  0  0  0
   35.2598   20.7328   47.2241 O   0  5  0  0  0  0  0  0  0  0  0  0
   35.7369   21.2738   49.7704 O   0  0  0  0  0  0  0  0  0  0  0  0
   32.2194   26.0573   49.8778 C   0  0  2  0  0  0  0  0  0  0  0  0
   31.0172   25.8858   49.0932 O   0  0  0  0  0  0  0  0  0  0  0  0
   32.9808   27.3476   49.4565 C   0  0  2  0  0  0  0  0  0  0  0  0
   32.0975   28.5170   49.6193 N   0  0  0  0  0  0  0  0  0  0  0  0
   33.4094   27.2093   47.9792 C   0  0  1  0  0  0  0  0  0  0  0  0
   34.1224   28.3864   47.5634 O   0  0  0  0  0  0  0  0  0  0  0  0
   34.3274   25.9737   47.8746 C   0  0  2  0  0  0  0  0  0  0  0  0
   34.7411   25.8089   46.5075 O   0  0  0  0  0  0  0  0  0  0  0  0
   33.5177   24.7235   48.3370 C   0  0  2  0  0  0  0  0  0  0  0  0
   33.0754   24.8813   49.7181 O   0  0  0  0  0  0  0  0  0  0  0  0
   34.3836   23.4546   48.2754 C   0  0  0  0  0  0  0  0  0  0  0  0
   33.5960   22.2860   48.5637 O   0  0  0  0  0  0  0  0  0  0  0  0
  1  2  1  1  0  0  0
  1  3  1  0  0  0  0
  1  4  2  0  0  0  0
  1 16  1  0  0  0  0
  5  6  1  6  0  0  0
  5  7  1  0  0  0  0
  5 14  1  0  0  0  0
  7  8  1  6  0  0  0
  7  9  1  0  0  0  0
  9 10  1  1  0  0  0
  9 11  1  0  0  0  0
 11 12  1  6  0  0  0
 11 13  1  0  0  0  0
 13 14  1  0  0  0  0
 13 15  1  1  0  0  0
 15 16  1  0  0  0  0
M  CHG  1   3  -1
M  END
>  <CHROM.1>
-173.82318066,-173.15775258,175.43932521,33.76324794,24.25144690,48.59166310
1.21483653,-0.74441909,2.89913775

>  <Name>
ligand

>  <RI>
0

>  <Rbt.Current_Directory>
/home/itssahil/PROJECTS/Mol_Feturizer/New_Systems/rnas/3B4A

>  <Rbt.Executable>
rbdock ($Id: //depot/dev/client3/rdock/2013.1/src/exe/rbdock.cxx#4 $)

>  <Rbt.Library>
libRbt.so (2013.1, Build901 2013/11/27)

>  <Rbt.Parameter_File>
/export/apps/rDock/src/rDock_2013.1_src/data/scripts/dock_solv.prm

>  <Rbt.Receptor>
prm/blind_docking_100.prm

>  <SCORE>
-11.6142

>  <SCORE.INTER>
-10.3015

>  <SCORE.INTER.CONST>
1

>  <SCORE.INTER.POLAR>
0

>  <SCORE.INTER.ROT>
3

>  <SCORE.INTER.SOLV>
14.0743

>  <SCORE.INTER.VDW>
-17.1591

>  <SCORE.INTER.norm>
-0.643844

>  <SCORE.INTRA>
-1.31274

>  <SCORE.INTRA.DIHEDRAL>
-1.65651

>  <SCORE.INTRA.DIHEDRAL.0>
2.05999

>  <SCORE.INTRA.POLAR>
0

>  <SCORE.INTRA.POLAR.0>
0

>  <SCORE.INTRA.REPUL>
0

>  <SCORE.INTRA.REPUL.0>
0

>  <SCORE.INTRA.SOLV>
-0.393423

>  <SCORE.INTRA.SOLV.lig_0>
-58.7001

>  <SCORE.INTRA.VDW>
-0.287773

>  <SCORE.INTRA.VDW.0>
-0.401036

>  <SCORE.INTRA.norm>
-0.0820462

>  <SCORE.RESTR>
0

>  <SCORE.RESTR.CAVITY>
0

>  <SCORE.RESTR.norm>
0

>  <SCORE.SYSTEM>
0

>  <SCORE.SYSTEM.CONST>
0

>  <SCORE.SYSTEM.DIHEDRAL>
0

>  <SCORE.SYSTEM.SOLV>
0

>  <SCORE.SYSTEM.norm>
0

>  <SCORE.heavy>
16

>  <SCORE.norm>
-0.72589

>  <RMSD>
18.707

$$$$
ligand
 OpenBabel11021811463D
libRbt.so/2013.1/901 2013/11/27
 16 16  0  0  0  0  0  0  0  0999 V2000
   33.2782   26.1198   47.6938 P   0  0  2  0  0  0  0  0  0  0  0  0
   34.2403   27.1470   48.1644 O   0  0  0  0  0  0  0  0  0  0  0  0
   32.8302   26.4648   46.1834 O   0  5  0  0  0  0  0  0  0  0  0  0
   31.9877   26.1281   48.6695 O   0  0  0  0  0  0  0  0  0  0  0  0
   36.7940   21.9088   50.5705 C   0  0  2  0  0  0  0  0  0  0  0  0
   37.8509   21.9501   49.5849 O   0  0  0  0  0  0  0  0  0  0  0  0
   35.9456   20.6122   50.4244 C   0  0  2  0  0  0  0  0  0  0  0  0
   36.8188   19.4327   50.5669 N   0  0  0  0  0  0  0  0  0  0  0  0
   35.2783   20.6117   49.0315 C   0  0  1  0  0  0  0  0  0  0  0  0
   34.4810   19.4264   48.8703 O   0  0  0  0  0  0  0  0  0  0  0  0
   34.3820   21.8645   48.9444 C   0  0  2  0  0  0  0  0  0  0  0  0
   33.7484   21.9014   47.6543 O   0  0  0  0  0  0  0  0  0  0  0  0
   35.2840   23.1237   49.1274 C   0  0  2  0  0  0  0  0  0  0  0  0
   35.9483   23.0942   50.4258 O   0  0  0  0  0  0  0  0  0  0  0  0
   34.4470   24.4120   49.0702 C   0  0  0  0  0  0  0  0  0  0  0  0
   34.0002   24.6698   47.7273 O   0  0  0  0  0  0  0  0  0  0  0  0
  1  2  1  1  0  0  0
  1  3  1  0  0  0  0
  1  4  2  0  0  0  0
  1 16  1  0  0  0  0
  5  6  1  6  0  0  0
  5  7  1  0  0  0  0
  5 14  1  0  0  0  0
  7  8  1  6  0  0  0
  7  9  1  0  0  0  0
  9 10  1  1  0  0  0
  9 11  1  0  0  0  0
 11 12  1  6  0  0  0
 11 13  1  0  0  0  0
 13 14  1  0  0  0  0
 13 15  1  1  0  0  0
 15 16  1  0  0  0  0
M  CHG  1   3  -1
M  END
>  <CHROM.1>
-71.93185864,-173.37702718,57.91509785,34.68552547,23.33884424,48.79091893
-2.13186584,0.60638306,3.10925046

>  <Name>
ligand

>  <RI>
0

>  <Rbt.Current_Directory>
/home/itssahil/PROJECTS/Mol_Feturizer/New_Systems/rnas/3B4A

>  <Rbt.Executable>
rbdock ($Id: //depot/dev/client3/rdock/2013.1/src/exe/rbdock.cxx#4 $)

>  <Rbt.Library>
libRbt.so (2013.1, Build901 2013/11/27)

>  <Rbt.Parameter_File>
/export/apps/rDock/src/rDock_2013.1_src/data/scripts/dock_solv.prm

>  <Rbt.Receptor>
prm/blind_docking_100.prm

>  <SCORE>
-10.6095

>  <SCORE.INTER>
-9.38366

>  <SCORE.INTER.CONST>
1

>  <SCORE.INTER.POLAR>
0

>  <SCORE.INTER.ROT>
3

>  <SCORE.INTER.SOLV>
12.6571

>  <SCORE.INTER.VDW>
-16.0748

>  <SCORE.INTER.norm>
-0.586479

>  <SCORE.INTRA>
-1.22582

>  <SCORE.INTRA.DIHEDRAL>
-1.3412

>  <SCORE.INTRA.DIHEDRAL.0>
2.05999

>  <SCORE.INTRA.POLAR>
0

>  <SCORE.INTRA.POLAR.0>
0

>  <SCORE.INTRA.REPUL>
0

>  <SCORE.INTRA.REPUL.0>
0

>  <SCORE.INTRA.SOLV>
-0.856399

>  <SCORE.INTRA.SOLV.lig_0>
-58.7001

>  <SCORE.INTRA.VDW>
-0.12702

>  <SCORE.INTRA.VDW.0>
-0.401036

>  <SCORE.INTRA.norm>
-0.0766136

>  <SCORE.RESTR>
0

>  <SCORE.RESTR.CAVITY>
0

>  <SCORE.RESTR.norm>
0

>  <SCORE.SYSTEM>
0

>  <SCORE.SYSTEM.CONST>
0

>  <SCORE.SYSTEM.DIHEDRAL>
0

>  <SCORE.SYSTEM.SOLV>
0

>  <SCORE.SYSTEM.norm>
0

>  <SCORE.heavy>
16

>  <SCORE.norm>
-0.663092

>  <RMSD>
18.711

$$$$
ligand
 OpenBabel11021811463D
libRbt.so/2013.1/901 2013/11/27
 16 16  0  0  0  0  0  0  0  0999 V2000
   33.1034   26.1477   47.8307 P   0  0  2  0  0  0  0  0  0  0  0  0
   32.7576   26.5572   46.4468 O   0  0  0  0  0  0  0  0  0  0  0  0
   31.7460   25.8875   48.6619 O   0  5  0  0  0  0  0  0  0  0  0  0
   33.9600   27.3311   48.5259 O   0  0  0  0  0  0  0  0  0  0  0  0
   36.7827   21.9120   50.4856 C   0  0  2  0  0  0  0  0  0  0  0  0
   37.8272   21.9893   49.4891 O   0  0  0  0  0  0  0  0  0  0  0  0
   35.9336   20.6204   50.3043 C   0  0  2  0  0  0  0  0  0  0  0  0
   36.8094   19.4376   50.3944 N   0  0  0  0  0  0  0  0  0  0  0  0
   35.2491   20.6682   48.9206 C   0  0  1  0  0  0  0  0  0  0  0  0
   34.4508   19.4883   48.7275 O   0  0  0  0  0  0  0  0  0  0  0  0
   34.3508   21.9222   48.8888 C   0  0  2  0  0  0  0  0  0  0  0  0
   33.7013   22.0038   47.6087 O   0  0  0  0  0  0  0  0  0  0  0  0
   35.2540   23.1752   49.1050 C   0  0  2  0  0  0  0  0  0  0  0  0
   35.9343   23.1007   50.3933 O   0  0  0  0  0  0  0  0  0  0  0  0
   34.4153   24.4637   49.1036 C   0  0  0  0  0  0  0  0  0  0  0  0
   33.9736   24.7823   47.7722 O   0  0  0  0  0  0  0  0  0  0  0  0
  1  2  1  6  0  0  0
  1  3  1  0  0  0  0
  1  4  2  0  0  0  0
  1 16  1  0  0  0  0
  5  6  1  6  0  0  0
  5  7  1  0  0  0  0
  5 14  1  0  0  0  0
  7  8  1  6  0  0  0
  7  9  1  0  0  0  0
  9 10  1  1  0  0  0
  9 11  1  0  0  0  0
 11 12  1  6  0  0  0
 11 13  1  0  0  0  0
 13 14  1  0  0  0  0
 13 15  1  1  0  0  0
 15 16  1  0  0  0  0
M  CHG  1   3  -1
M  END
>  <CHROM.1>
-73.05170671,-179.75052930,174.43438708,34.60916406,23.37731993,48.80159057
-2.15304071,0.57590444,-3.12744327

>  <Name>
ligand

>  <RI>
0

>  <Rbt.Current_Directory>
/home/itssahil/PROJECTS/Mol_Feturizer/New_Systems/rnas/3B4A

>  <Rbt.Executable>
rbdock ($Id: //depot/dev/client3/rdock/2013.1/src/exe/rbdock.cxx#4 $)

>  <Rbt.Library>
libRbt.so (2013.1, Build901 2013/11/27)

>  <Rbt.Parameter_File>
/export/apps/rDock/src/rDock_2013.1_src/data/scripts/dock_solv.prm

>  <Rbt.Receptor>
prm/blind_docking_80.prm

>  <SCORE>
-9.66355

>  <SCORE.INTER>
-8.54194

>  <SCORE.INTER.CONST>
1

>  <SCORE.INTER.POLAR>
0

>  <SCORE.INTER.ROT>
3

>  <SCORE.INTER.SOLV>
14.3683

>  <SCORE.INTER.VDW>
-16.084

>  <SCORE.INTER.norm>
-0.533871

>  <SCORE.INTRA>
-1.12161

>  <SCORE.INTRA.DIHEDRAL>
-1.41802

>  <SCORE.INTRA.DIHEDRAL.0>
2.05999

>  <SCORE.INTRA.POLAR>
0

>  <SCORE.INTRA.POLAR.0>
0

>  <SCORE.INTRA.REPUL>
0

>  <SCORE.INTRA.REPUL.0>
0

>  <SCORE.INTRA.SOLV>
-0.107551

>  <SCORE.INTRA.SOLV.lig_0>
-58.7001

>  <SCORE.INTRA.VDW>
-0.358818

>  <SCORE.INTRA.VDW.0>
-0.401036

>  <SCORE.INTRA.norm>
-0.0701004

>  <SCORE.RESTR>
0

>  <SCORE.RESTR.CAVITY>
0

>  <SCORE.RESTR.norm>
0

>  <SCORE.SYSTEM>
0

>  <SCORE.SYSTEM.CONST>
0

>  <SCORE.SYSTEM.DIHEDRAL>
0

>  <SCORE.SYSTEM.SOLV>
0

>  <SCORE.SYSTEM.norm>
0

>  <SCORE.heavy>
16

>  <SCORE.norm>
-0.603972

>  <RMSD>
18.750

$$$$
ligand
 OpenBabel11021811463D
libRbt.so/2013.1/901 2013/11/27
 16 16  0  0  0  0  0  0  0  0999 V2000
   35.4465   20.7296   49.5046 P   0  0  2  0  0  0  0  0  0  0  0  0
   34.4860   19.6857   49.0684 O   0  0  0  0  0  0  0  0  0  0  0  0
   36.6439   20.8316   48.4291 O   0  5  0  0  0  0  0  0  0  0  0  0
   36.0375   20.3212   50.9541 O   0  0  0  0  0  0  0  0  0  0  0  0
   33.3528   26.0171   49.4972 C   0  0  2  0  0  0  0  0  0  0  0  0
   31.9691   25.6869   49.7550 O   0  0  0  0  0  0  0  0  0  0  0  0
   33.4916   26.8616   48.1973 C   0  0  2  0  0  0  0  0  0  0  0  0
   32.6906   28.0933   48.3214 N   0  0  0  0  0  0  0  0  0  0  0  0
   32.9875   26.0202   47.0042 C   0  0  1  0  0  0  0  0  0  0  0  0
   33.1101   26.7740   45.7862 O   0  0  0  0  0  0  0  0  0  0  0  0
   33.8613   24.7510   46.9277 C   0  0  2  0  0  0  0  0  0  0  0  0
   33.4146   23.9373   45.8296 O   0  0  0  0  0  0  0  0  0  0  0  0
   33.7017   23.9670   48.2666 C   0  0  2  0  0  0  0  0  0  0  0  0
   34.1351   24.7847   49.3942 O   0  0  0  0  0  0  0  0  0  0  0  0
   34.5650   22.6949   48.2645 C   0  0  0  0  0  0  0  0  0  0  0  0
   34.6734   22.1507   49.5917 O   0  0  0  0  0  0  0  0  0  0  0  0
  1  2  1  6  0  0  0
  1  3  1  0  0  0  0
  1  4  2  0  0  0  0
  1 16  1  0  0  0  0
  5  6  1  6  0  0  0
  5  7  1  0  0  0  0
  5 14  1  0  0  0  0
  7  8  1  1  0  0  0
  7  9  1  0  0  0  0
  9 10  1  6  0  0  0
  9 11  1  0  0  0  0
 11 12  1  6  0  0  0
 11 13  1  0  0  0  0
 13 14  1  0  0  0  0
 13 15  1  6  0  0  0
 15 16  1  0  0  0  0
M  CHG  1   3  -1
M  END
>  <CHROM.1>
166.10502699,173.64973570,-79.92271947,34.15861029,23.64954902,48.51706256
0.30660196,-1.16416827,1.59781702

>  <Name>
ligand

>  <RI>
0

>  <Rbt.Current_Directory>
/home/itssahil/PROJECTS/Mol_Feturizer/New_Systems/rnas/3B4A

>  <Rbt.Executable>
rbdock ($Id: //depot/dev/client3/rdock/2013.1/src/exe/rbdock.cxx#4 $)

>  <Rbt.Library>
libRbt.so (2013.1, Build901 2013/11/27)

>  <Rbt.Parameter_File>
/export/apps/rDock/src/rDock_2013.1_src/data/scripts/dock_solv.prm

>  <Rbt.Receptor>
prm/blind_docking_80.prm

>  <SCORE>
-8.69453

>  <SCORE.INTER>
-8.20038

>  <SCORE.INTER.CONST>
1

>  <SCORE.INTER.POLAR>
0

>  <SCORE.INTER.ROT>
3

>  <SCORE.INTER.SOLV>
9.62522

>  <SCORE.INTER.VDW>
-14.2753

>  <SCORE.INTER.norm>
-0.512524

>  <SCORE.INTRA>
-0.494156

>  <SCORE.INTRA.DIHEDRAL>
-0.601166

>  <SCORE.INTRA.DIHEDRAL.0>
2.05999

>  <SCORE.INTRA.POLAR>
0

>  <SCORE.INTRA.POLAR.0>
0

>  <SCORE.INTRA.REPUL>
0

>  <SCORE.INTRA.REPUL.0>
0

>  <SCORE.INTRA.SOLV>
-0.846529

>  <SCORE.INTRA.SOLV.lig_0>
-58.7001

>  <SCORE.INTRA.VDW>
0.229692

>  <SCORE.INTRA.VDW.0>
-0.401036

>  <SCORE.INTRA.norm>
-0.0308847

>  <SCORE.RESTR>
0

>  <SCORE.RESTR.CAVITY>
0

>  <SCORE.RESTR.norm>
0

>  <SCORE.SYSTEM>
0

>  <SCORE.SYSTEM.CONST>
0

>  <SCORE.SYSTEM.DIHEDRAL>
0

>  <SCORE.SYSTEM.SOLV>
0

>  <SCORE.SYSTEM.norm>
0

>  <SCORE.heavy>
16

>  <SCORE.norm>
-0.543408

>  <RMSD>
18.784

$$$$
ligand
 OpenBabel11021811463D
libRbt.so/2013.1/901 2013/11/27
 16 16  0  0  0  0  0  0  0  0999 V2000
   35.2824   25.2567   46.9911 P   0  0  2  0  0  0  0  0  0  0  0  0
   36.5490   25.8844   46.5395 O   0  0  0  0  0  0  0  0  0  0  0  0
   34.3178   25.0328   45.7181 O   0  5  0  0  0  0  0  0  0  0  0  0
   34.5676   26.2366   48.0617 O   0  0  0  0  0  0  0  0  0  0  0  0
   34.8764   19.6807   48.2701 C   0  0  2  0  0  0  0  0  0  0  0  0
   33.7462   19.2816   49.0786 O   0  0  0  0  0  0  0  0  0  0  0  0
   36.2101   19.5123   49.0542 C   0  0  2  0  0  0  0  0  0  0  0  0
   36.3596   18.1077   49.4774 N   0  0  0  0  0  0  0  0  0  0  0  0
   36.1775   20.4371   50.2908 C   0  0  1  0  0  0  0  0  0  0  0  0
   37.4022   20.3074   51.0324 O   0  0  0  0  0  0  0  0  0  0  0  0
   36.0200   21.8859   49.7843 C   0  0  2  0  0  0  0  0  0  0  0  0
   35.9781   22.7769   50.9119 O   0  0  0  0  0  0  0  0  0  0  0  0
   34.6843   21.9810   48.9846 C   0  0  2  0  0  0  0  0  0  0  0  0
   34.7031   21.0702   47.8452 O   0  0  0  0  0  0  0  0  0  0  0  0
   34.4743   23.4006   48.4330 C   0  0  0  0  0  0  0  0  0  0  0  0
   35.6196   23.8267   47.6741 O   0  0  0  0  0  0  0  0  0  0  0  0
  1  2  1  6  0  0  0
  1  3  1  0  0  0  0
  1  4  2  0  0  0  0
  1 16  1  0  0  0  0
  5  6  1  1  0  0  0
  5  7  1  0  0  0  0
  5 14  1  0  0  0  0
  7  8  1  1  0  0  0
  7  9  1  0  0  0  0
  9 10  1  6  0  0  0
  9 11  1  0  0  0  0
 11 12  1  1  0  0  0
 11 13  1  0  0  0  0
 13 14  1  0  0  0  0
 13 15  1  6  0  0  0
 15 16  1  0  0  0  0
M  CHG  1   3  -1
M  END
>  <CHROM.1>
53.48788995,174.14229131,164.03875781,35.41727650,22.46014690,48.49352037
1.73431748,-0.92700049,-0.30856082

>  <Name>
ligand

>  <RI>
0

>  <Rbt.Current_Directory>
/home/itssahil/PROJECTS/Mol_Feturizer/New_Systems/rnas/3B4A

>  <Rbt.Executable>
rbdock ($Id: //depot/dev/client3/rdock/2013.1/src/exe/rbdock.cxx#4 $)

>  <Rbt.Library>
libRbt.so (2013.1, Build901 2013/11/27)

>  <Rbt.Parameter_File>
/export/apps/rDock/src/rDock_2013.1_src/data/scripts/dock_solv.prm

>  <Rbt.Receptor>
prm/blind_docking_100.prm

>  <SCORE>
-9.34358

>  <SCORE.INTER>
-8.36739

>  <SCORE.INTER.CONST>
1

>  <SCORE.INTER.POLAR>
0

>  <SCORE.INTER.ROT>
3

>  <SCORE.INTER.SOLV>
14.582

>  <SCORE.INTER.VDW>
-16.0389

>  <SCORE.INTER.norm>
-0.522962

>  <SCORE.INTRA>
-0.976198

>  <SCORE.INTRA.DIHEDRAL>
-1.34492

>  <SCORE.INTRA.DIHEDRAL.0>
2.05999

>  <SCORE.INTRA.POLAR>
0

>  <SCORE.INTRA.POLAR.0>
0

>  <SCORE.INTRA.REPUL>
0

>  <SCORE.INTRA.REPUL.0>
0

>  <SCORE.INTRA.SOLV>
-0.197774

>  <SCORE.INTRA.SOLV.lig_0>
-58.7001

>  <SCORE.INTRA.VDW>
-0.204854

>  <SCORE.INTRA.VDW.0>
-0.401036

>  <SCORE.INTRA.norm>
-0.0610124

>  <SCORE.RESTR>
0

>  <SCORE.RESTR.CAVITY>
0

>  <SCORE.RESTR.norm>
0

>  <SCORE.SYSTEM>
0

>  <SCORE.SYSTEM.CONST>
0

>  <SCORE.SYSTEM.DIHEDRAL>
0

>  <SCORE.SYSTEM.SOLV>
0

>  <SCORE.SYSTEM.norm>
0

>  <SCORE.heavy>
16

>  <SCORE.norm>
-0.583974

>  <RMSD>
18.820

$$$$
ligand
 OpenBabel11021811463D
libRbt.so/2013.1/901 2013/11/27
 16 16  0  0  0  0  0  0  0  0999 V2000
   31.9693   23.5741   46.2345 P   0  0  2  0  0  0  0  0  0  0  0  0
   30.6791   23.1161   46.8072 O   0  0  0  0  0  0  0  0  0  0  0  0
   31.9099   23.4513   44.6275 O   0  5  0  0  0  0  0  0  0  0  0  0
   33.1578   22.6441   46.8172 O   0  0  0  0  0  0  0  0  0  0  0  0
   32.5548   27.9657   50.5779 C   0  0  2  0  0  0  0  0  0  0  0  0
   31.2157   28.4896   50.4276 O   0  0  0  0  0  0  0  0  0  0  0  0
   33.5983   28.8991   49.8982 C   0  0  2  0  0  0  0  0  0  0  0  0
   33.5118   30.2477   50.4880 N   0  0  0  0  0  0  0  0  0  0  0  0
   33.2944   28.9624   48.3853 C   0  0  1  0  0  0  0  0  0  0  0  0
   34.2485   29.8141   47.7288 O   0  0  0  0  0  0  0  0  0  0  0  0
   33.4000   27.5272   47.8289 C   0  0  2  0  0  0  0  0  0  0  0  0
   33.1150   27.5463   46.4198 O   0  0  0  0  0  0  0  0  0  0  0  0
   32.3532   26.6386   48.5687 C   0  0  2  0  0  0  0  0  0  0  0  0
   32.6178   26.6214   50.0032 O   0  0  0  0  0  0  0  0  0  0  0  0
   32.4188   25.1848   48.0732 C   0  0  0  0  0  0  0  0  0  0  0  0
   32.2089   25.1213   46.6516 O   0  0  0  0  0  0  0  0  0  0  0  0
  1  2  1  1  0  0  0
  1  3  1  0  0  0  0
  1  4  2  0  0  0  0
  1 16  1  0  0  0  0
  5  6  1  6  0  0  0
  5  7  1  0  0  0  0
  5 14  1  0  0  0  0
  7  8  1  1  0  0  0
  7  9  1  0  0  0  0
  9 10  1  6  0  0  0
  9 11  1  0  0  0  0
 11 12  1  6  0  0  0
 11 13  1  0  0  0  0
 13 14  1  0  0  0  0
 13 15  1  6  0  0  0
 15 16  1  0  0  0  0
M  CHG  1   3  -1
M  END
>  <CHROM.1>
-57.27984103,-167.93584820,67.44896995,32.57218886,26.33276330,47.91028708
1.93726908,-1.06459000,-2.26861264

>  <Name>
ligand

>  <RI>
0

>  <Rbt.Current_Directory>
/home/itssahil/PROJECTS/Mol_Feturizer/New_Systems/rnas/3B4A

>  <Rbt.Executable>
rbdock ($Id: //depot/dev/client3/rdock/2013.1/src/exe/rbdock.cxx#4 $)

>  <Rbt.Library>
libRbt.so (2013.1, Build901 2013/11/27)

>  <Rbt.Parameter_File>
/export/apps/rDock/src/rDock_2013.1_src/data/scripts/dock_solv.prm

>  <Rbt.Receptor>
prm/blind_docking_80.prm

>  <SCORE>
-9.78764

>  <SCORE.INTER>
-8.99734

>  <SCORE.INTER.CONST>
1

>  <SCORE.INTER.POLAR>
0

>  <SCORE.INTER.ROT>
3

>  <SCORE.INTER.SOLV>
16.3649

>  <SCORE.INTER.VDW>
-17.0532

>  <SCORE.INTER.norm>
-0.562334

>  <SCORE.INTRA>
-0.790303

>  <SCORE.INTRA.DIHEDRAL>
-1.24506

>  <SCORE.INTRA.DIHEDRAL.0>
2.05999

>  <SCORE.INTRA.POLAR>
0

>  <SCORE.INTRA.POLAR.0>
0

>  <SCORE.INTRA.REPUL>
0

>  <SCORE.INTRA.REPUL.0>
0

>  <SCORE.INTRA.SOLV>
-0.660078

>  <SCORE.INTRA.SOLV.lig_0>
-58.7001

>  <SCORE.INTRA.VDW>
0.162264

>  <SCORE.INTRA.VDW.0>
-0.401036

>  <SCORE.INTRA.norm>
-0.0493939

>  <SCORE.RESTR>
0

>  <SCORE.RESTR.CAVITY>
0

>  <SCORE.RESTR.norm>
0

>  <SCORE.SYSTEM>
0

>  <SCORE.SYSTEM.CONST>
0

>  <SCORE.SYSTEM.DIHEDRAL>
0

>  <SCORE.SYSTEM.SOLV>
0

>  <SCORE.SYSTEM.norm>
0

>  <SCORE.heavy>
16

>  <SCORE.norm>
-0.611728

>  <RMSD>
18.906

$$$$
ligand
 OpenBabel11021811463D
libRbt.so/2013.1/901 2013/11/27
 16 16  0  0  0  0  0  0  0  0999 V2000
   33.7667   25.6636   48.0004 P   0  0  2  0  0  0  0  0  0  0  0  0
   35.0991   26.0319   47.4604 O   0  0  0  0  0  0  0  0  0  0  0  0
   32.6332   26.0342   46.9147 O   0  5  0  0  0  0  0  0  0  0  0  0
   33.5129   26.4879   49.3691 O   0  0  0  0  0  0  0  0  0  0  0  0
   34.8187   20.0691   48.2135 C   0  0  2  0  0  0  0  0  0  0  0  0
   33.6687   19.6770   48.9970 O   0  0  0  0  0  0  0  0  0  0  0  0
   36.1398   19.5976   48.8876 C   0  0  2  0  0  0  0  0  0  0  0  0
   36.1139   18.1326   49.0526 N   0  0  0  0  0  0  0  0  0  0  0  0
   36.2644   20.2835   50.2659 C   0  0  1  0  0  0  0  0  0  0  0  0
   37.4814   19.8710   50.9104 O   0  0  0  0  0  0  0  0  0  0  0  0
   36.2860   21.8076   50.0270 C   0  0  2  0  0  0  0  0  0  0  0  0
   36.3939   22.4810   51.2927 O   0  0  0  0  0  0  0  0  0  0  0  0
   34.9528   22.2105   49.3249 C   0  0  2  0  0  0  0  0  0  0  0  0
   34.8191   21.5228   48.0454 O   0  0  0  0  0  0  0  0  0  0  0  0
   34.9172   23.7207   49.0393 C   0  0  0  0  0  0  0  0  0  0  0  0
   33.7400   24.0697   48.2897 O   0  0  0  0  0  0  0  0  0  0  0  0
  1  2  1  6  0  0  0
  1  3  1  0  0  0  0
  1  4  2  0  0  0  0
  1 16  1  0  0  0  0
  5  6  1  1  0  0  0
  5  7  1  0  0  0  0
  5 14  1  0  0  0  0
  7  8  1  1  0  0  0
  7  9  1  0  0  0  0
  9 10  1  6  0  0  0
  9 11  1  0  0  0  0
 11 12  1  1  0  0  0
 11 13  1  0  0  0  0
 13 14  1  0  0  0  0
 13 15  1  6  0  0  0
 15 16  1  0  0  0  0
M  CHG  1   3  -1
M  END
>  <CHROM.1>
175.02277602,-179.18745393,49.03991842,34.91623201,22.66528990,48.92532699
2.10153808,-0.81511757,0.13335802

>  <Name>
ligand

>  <RI>
0

>  <Rbt.Current_Directory>
/home/itssahil/PROJECTS/Mol_Feturizer/New_Systems/rnas/3B4A

>  <Rbt.Executable>
rbdock ($Id: //depot/dev/client3/rdock/2013.1/src/exe/rbdock.cxx#4 $)

>  <Rbt.Library>
libRbt.so (2013.1, Build901 2013/11/27)

>  <Rbt.Parameter_File>
/export/apps/rDock/src/rDock_2013.1_src/data/scripts/dock_solv.prm

>  <Rbt.Receptor>
prm/blind_docking_80.prm

>  <SCORE>
-9.76003

>  <SCORE.INTER>
-8.40974

>  <SCORE.INTER.CONST>
1

>  <SCORE.INTER.POLAR>
0

>  <SCORE.INTER.ROT>
3

>  <SCORE.INTER.SOLV>
15.5721

>  <SCORE.INTER.VDW>
-16.3972

>  <SCORE.INTER.norm>
-0.525609

>  <SCORE.INTRA>
-1.35029

>  <SCORE.INTRA.DIHEDRAL>
-1.77483

>  <SCORE.INTRA.DIHEDRAL.0>
2.05999

>  <SCORE.INTRA.POLAR>
0

>  <SCORE.INTRA.POLAR.0>
0

>  <SCORE.INTRA.REPUL>
0

>  <SCORE.INTRA.REPUL.0>
0

>  <SCORE.INTRA.SOLV>
-1.1546

>  <SCORE.INTRA.SOLV.lig_0>
-58.7001

>  <SCORE.INTRA.VDW>
0.114427

>  <SCORE.INTRA.VDW.0>
-0.401036

>  <SCORE.INTRA.norm>
-0.0843931

>  <SCORE.RESTR>
0

>  <SCORE.RESTR.CAVITY>
0

>  <SCORE.RESTR.norm>
0

>  <SCORE.SYSTEM>
0

>  <SCORE.SYSTEM.CONST>
0

>  <SCORE.SYSTEM.DIHEDRAL>
0

>  <SCORE.SYSTEM.SOLV>
0

>  <SCORE.SYSTEM.norm>
0

>  <SCORE.heavy>
16

>  <SCORE.norm>
-0.610002

>  <RMSD>
18.988

$$$$
ligand
 OpenBabel11021811463D
libRbt.so/2013.1/901 2013/11/27
 16 16  0  0  0  0  0  0  0  0999 V2000
   32.0822   23.5998   46.0983 P   0  0  2  0  0  0  0  0  0  0  0  0
   30.7193   23.0180   46.1794 O   0  0  0  0  0  0  0  0  0  0  0  0
   32.4738   23.8200   44.5494 O   0  5  0  0  0  0  0  0  0  0  0  0
   33.1270   22.5790   46.7938 O   0  0  0  0  0  0  0  0  0  0  0  0
   32.9045   29.1785   47.3998 C   0  0  2  0  0  0  0  0  0  0  0  0
   34.2779   29.6074   47.5409 O   0  0  0  0  0  0  0  0  0  0  0  0
   32.1764   29.1778   48.7753 C   0  0  2  0  0  0  0  0  0  0  0  0
   32.2281   30.5298   49.3614 N   0  0  0  0  0  0  0  0  0  0  0  0
   32.8818   28.1690   49.7082 C   0  0  1  0  0  0  0  0  0  0  0  0
   32.2254   28.1420   50.9868 O   0  0  0  0  0  0  0  0  0  0  0  0
   32.7945   26.7799   49.0425 C   0  0  2  0  0  0  0  0  0  0  0  0
   33.4495   25.8136   49.8818 O   0  0  0  0  0  0  0  0  0  0  0  0
   33.5137   26.8548   47.6605 C   0  0  2  0  0  0  0  0  0  0  0  0
   32.8716   27.8434   46.8014 O   0  0  0  0  0  0  0  0  0  0  0  0
   33.4466   25.5024   46.9324 C   0  0  0  0  0  0  0  0  0  0  0  0
   32.0909   25.0255   46.8678 O   0  0  0  0  0  0  0  0  0  0  0  0
  1  2  1  1  0  0  0
  1  3  1  0  0  0  0
  1  4  2  0  0  0  0
  1 16  1  0  0  0  0
  5  6  1  1  0  0  0
  5  7  1  0  0  0  0
  5 14  1  0  0  0  0
  7  8  1  1  0  0  0
  7  9  1  0  0  0  0
  9 10  1  1  0  0  0
  9 11  1  0  0  0  0
 11 12  1  1  0  0  0
 11 13  1  0  0  0  0
 13 14  1  0  0  0  0
 13 15  1  6  0  0  0
 15 16  1  0  0  0  0
M  CHG  1   3  -1
M  END
>  <CHROM.1>
52.05069743,-179.76962101,172.80822952,32.65608141,26.31723196,47.63697076
-2.22624967,1.39233595,1.14422441

>  <Name>
ligand

>  <RI>
0

>  <Rbt.Current_Directory>
/home/itssahil/PROJECTS/Mol_Feturizer/New_Systems/rnas/3B4A

>  <Rbt.Executable>
rbdock ($Id: //depot/dev/client3/rdock/2013.1/src/exe/rbdock.cxx#4 $)

>  <Rbt.Library>
libRbt.so (2013.1, Build901 2013/11/27)

>  <Rbt.Parameter_File>
/export/apps/rDock/src/rDock_2013.1_src/data/scripts/dock_solv.prm

>  <Rbt.Receptor>
prm/blind_docking_100.prm

>  <SCORE>
-9.28721

>  <SCORE.INTER>
-7.99459

>  <SCORE.INTER.CONST>
1

>  <SCORE.INTER.POLAR>
0

>  <SCORE.INTER.ROT>
3

>  <SCORE.INTER.SOLV>
11.8125

>  <SCORE.INTER.VDW>
-14.8672

>  <SCORE.INTER.norm>
-0.499662

>  <SCORE.INTRA>
-1.29261

>  <SCORE.INTRA.DIHEDRAL>
-1.75052

>  <SCORE.INTRA.DIHEDRAL.0>
2.05999

>  <SCORE.INTRA.POLAR>
0

>  <SCORE.INTRA.POLAR.0>
0

>  <SCORE.INTRA.REPUL>
0

>  <SCORE.INTRA.REPUL.0>
0

>  <SCORE.INTRA.SOLV>
-0.201449

>  <SCORE.INTRA.SOLV.lig_0>
-58.7001

>  <SCORE.INTRA.VDW>
-0.31663

>  <SCORE.INTRA.VDW.0>
-0.401036

>  <SCORE.INTRA.norm>
-0.0807884

>  <SCORE.RESTR>
0

>  <SCORE.RESTR.CAVITY>
0

>  <SCORE.RESTR.norm>
0

>  <SCORE.SYSTEM>
0

>  <SCORE.SYSTEM.CONST>
0

>  <SCORE.SYSTEM.DIHEDRAL>
0

>  <SCORE.SYSTEM.SOLV>
0

>  <SCORE.SYSTEM.norm>
0

>  <SCORE.heavy>
16

>  <SCORE.norm>
-0.58045

>  <RMSD>
19.011

$$$$
ligand
 OpenBabel11021811463D
libRbt.so/2013.1/901 2013/11/27
 16 16  0  0  0  0  0  0  0  0999 V2000
   33.4146   25.8981   48.8771 P   0  0  2  0  0  0  0  0  0  0  0  0
   33.3868   26.9203   49.9526 O   0  0  0  0  0  0  0  0  0  0  0  0
   34.2983   26.4479   47.6451 O   0  5  0  0  0  0  0  0  0  0  0  0
   31.8987   25.6147   48.3880 O   0  0  0  0  0  0  0  0  0  0  0  0
   34.5683   19.8467   48.3209 C   0  0  2  0  0  0  0  0  0  0  0  0
   33.6146   19.4697   49.3399 O   0  0  0  0  0  0  0  0  0  0  0  0
   36.0267   19.7287   48.8511 C   0  0  2  0  0  0  0  0  0  0  0  0
   36.2795   18.3459   49.2960 N   0  0  0  0  0  0  0  0  0  0  0  0
   36.2041   20.7061   50.0338 C   0  0  1  0  0  0  0  0  0  0  0  0
   37.5467   20.6236   50.5408 O   0  0  0  0  0  0  0  0  0  0  0  0
   35.9272   22.1295   49.5067 C   0  0  2  0  0  0  0  0  0  0  0  0
   36.0760   23.0682   50.5856 O   0  0  0  0  0  0  0  0  0  0  0  0
   34.4655   22.1735   48.9645 C   0  0  2  0  0  0  0  0  0  0  0  0
   34.2922   21.2143   47.8793 O   0  0  0  0  0  0  0  0  0  0  0  0
   34.1292   23.5651   48.4041 C   0  0  0  0  0  0  0  0  0  0  0  0
   34.0813   24.5412   49.4597 O   0  0  0  0  0  0  0  0  0  0  0  0
  1  2  1  1  0  0  0
  1  3  1  0  0  0  0
  1  4  2  0  0  0  0
  1 16  1  0  0  0  0
  5  6  1  1  0  0  0
  5  7  1  0  0  0  0
  5 14  1  0  0  0  0
  7  8  1  1  0  0  0
  7  9  1  0  0  0  0
  9 10  1  6  0  0  0
  9 11  1  0  0  0  0
 11 12  1  1  0  0  0
 11 13  1  0  0  0  0
 13 14  1  0  0  0  0
 13 15  1  6  0  0  0
 15 16  1  0  0  0  0
M  CHG  1   3  -1
M  END
>  <CHROM.1>
-67.71820656,-167.75583629,-178.84780149,34.63606873,22.83856533,49.11682050
2.01138369,-0.55330431,0.15427918

>  <Name>
ligand

>  <RI>
0

>  <Rbt.Current_Directory>
/home/itssahil/PROJECTS/Mol_Feturizer/New_Systems/rnas/3B4A

>  <Rbt.Executable>
rbdock ($Id: //depot/dev/client3/rdock/2013.1/src/exe/rbdock.cxx#4 $)

>  <Rbt.Library>
libRbt.so (2013.1, Build901 2013/11/27)

>  <Rbt.Parameter_File>
/export/apps/rDock/src/rDock_2013.1_src/data/scripts/dock_solv.prm

>  <Rbt.Receptor>
prm/blind_docking_80.prm

>  <SCORE>
-10.4058

>  <SCORE.INTER>
-9.51306

>  <SCORE.INTER.CONST>
1

>  <SCORE.INTER.POLAR>
0

>  <SCORE.INTER.ROT>
3

>  <SCORE.INTER.SOLV>
18.2187

>  <SCORE.INTER.VDW>
-18.015

>  <SCORE.INTER.norm>
-0.594566

>  <SCORE.INTRA>
-0.892696

>  <SCORE.INTRA.DIHEDRAL>
-1.13023

>  <SCORE.INTRA.DIHEDRAL.0>
2.05999

>  <SCORE.INTRA.POLAR>
0

>  <SCORE.INTRA.POLAR.0>
0

>  <SCORE.INTRA.REPUL>
0

>  <SCORE.INTRA.REPUL.0>
0

>  <SCORE.INTRA.SOLV>
-0.133666

>  <SCORE.INTRA.SOLV.lig_0>
-58.7001

>  <SCORE.INTRA.VDW>
-0.260747

>  <SCORE.INTRA.VDW.0>
-0.401036

>  <SCORE.INTRA.norm>
-0.0557935

>  <SCORE.RESTR>
0

>  <SCORE.RESTR.CAVITY>
0

>  <SCORE.RESTR.norm>
0

>  <SCORE.SYSTEM>
0

>  <SCORE.SYSTEM.CONST>
0

>  <SCORE.SYSTEM.DIHEDRAL>
0

>  <SCORE.SYSTEM.SOLV>
0

>  <SCORE.SYSTEM.norm>
0

>  <SCORE.heavy>
16

>  <SCORE.norm>
-0.65036

>  <RMSD>
19.040

$$$$
ligand
 OpenBabel11021811463D
libRbt.so/2013.1/901 2013/11/27
 16 16  0  0  0  0  0  0  0  0999 V2000
   33.4772   25.8656   48.8387 P   0  0  2  0  0  0  0  0  0  0  0  0
   33.3721   26.8658   49.9300 O   0  0  0  0  0  0  0  0  0  0  0  0
   34.4551   26.4348   47.6895 O   0  5  0  0  0  0  0  0  0  0  0  0
   32.0019   25.6018   48.2294 O   0  0  0  0  0  0  0  0  0  0  0  0
   34.5663   19.7966   48.3070 C   0  0  2  0  0  0  0  0  0  0  0  0
   33.5862   19.4266   49.3034 O   0  0  0  0  0  0  0  0  0  0  0  0
   36.0111   19.6650   48.8704 C   0  0  2  0  0  0  0  0  0  0  0  0
   36.2415   18.2794   49.3188 N   0  0  0  0  0  0  0  0  0  0  0  0
   36.1698   20.6392   50.0584 C   0  0  1  0  0  0  0  0  0  0  0  0
   37.4997   20.5442   50.5960 O   0  0  0  0  0  0  0  0  0  0  0  0
   35.9176   22.0656   49.5274 C   0  0  2  0  0  0  0  0  0  0  0  0
   36.0498   23.0016   50.6108 O   0  0  0  0  0  0  0  0  0  0  0  0
   34.4691   22.1232   48.9518 C   0  0  2  0  0  0  0  0  0  0  0  0
   34.3124   21.1671   47.8614 O   0  0  0  0  0  0  0  0  0  0  0  0
   34.1580   23.5185   48.3860 C   0  0  0  0  0  0  0  0  0  0  0  0
   34.0910   24.4930   49.4421 O   0  0  0  0  0  0  0  0  0  0  0  0
  1  2  1  1  0  0  0
  1  3  1  0  0  0  0
  1  4  2  0  0  0  0
  1 16  1  0  0  0  0
  5  6  1  1  0  0  0
  5  7  1  0  0  0  0
  5 14  1  0  0  0  0
  7  8  1  1  0  0  0
  7  9  1  0  0  0  0
  9 10  1  6  0  0  0
  9 11  1  0  0  0  0
 11 12  1  1  0  0  0
 11 13  1  0  0  0  0
 13 14  1  0  0  0  0
 13 15  1  6  0  0  0
 15 16  1  0  0  0  0
M  CHG  1   3  -1
M  END
>  <CHROM.1>
-67.86751476,-168.86782844,178.56524558,34.65128076,22.78987830,49.10615894
2.00013158,-0.57895230,0.14894956

>  <Name>
ligand

>  <RI>
0

>  <Rbt.Current_Directory>
/home/itssahil/PROJECTS/Mol_Feturizer/New_Systems/rnas/3B4A

>  <Rbt.Executable>
rbdock ($Id: //depot/dev/client3/rdock/2013.1/src/exe/rbdock.cxx#4 $)

>  <Rbt.Library>
libRbt.so (2013.1, Build901 2013/11/27)

>  <Rbt.Parameter_File>
/export/apps/rDock/src/rDock_2013.1_src/data/scripts/dock_solv.prm

>  <Rbt.Receptor>
prm/blind_docking_80.prm

>  <SCORE>
-10.4238

>  <SCORE.INTER>
-9.4692

>  <SCORE.INTER.CONST>
1

>  <SCORE.INTER.POLAR>
0

>  <SCORE.INTER.ROT>
3

>  <SCORE.INTER.SOLV>
18.4357

>  <SCORE.INTER.VDW>
-18.058

>  <SCORE.INTER.norm>
-0.591825

>  <SCORE.INTRA>
-0.954648

>  <SCORE.INTRA.DIHEDRAL>
-1.24137

>  <SCORE.INTRA.DIHEDRAL.0>
2.05999

>  <SCORE.INTRA.POLAR>
0

>  <SCORE.INTRA.POLAR.0>
0

>  <SCORE.INTRA.REPUL>
0

>  <SCORE.INTRA.REPUL.0>
0

>  <SCORE.INTRA.SOLV>
-0.133458

>  <SCORE.INTRA.SOLV.lig_0>
-58.7001

>  <SCORE.INTRA.VDW>
-0.267234

>  <SCORE.INTRA.VDW.0>
-0.401036

>  <SCORE.INTRA.norm>
-0.0596655

>  <SCORE.RESTR>
0

>  <SCORE.RESTR.CAVITY>
0

>  <SCORE.RESTR.norm>
0

>  <SCORE.SYSTEM>
0

>  <SCORE.SYSTEM.CONST>
0

>  <SCORE.SYSTEM.DIHEDRAL>
0

>  <SCORE.SYSTEM.SOLV>
0

>  <SCORE.SYSTEM.norm>
0

>  <SCORE.heavy>
16

>  <SCORE.norm>
-0.651491

>  <RMSD>
19.059

$$$$
ligand
 OpenBabel11021811463D
libRbt.so/2013.1/901 2013/11/27
 16 16  0  0  0  0  0  0  0  0999 V2000
   32.2933   23.7667   46.6494 P   0  0  2  0  0  0  0  0  0  0  0  0
   31.0343   23.1915   46.1142 O   0  0  0  0  0  0  0  0  0  0  0  0
   33.2019   24.2880   45.4231 O   0  5  0  0  0  0  0  0  0  0  0  0
   33.0816   22.6194   47.4738 O   0  0  0  0  0  0  0  0  0  0  0  0
   33.1134   28.9339   48.9852 C   0  0  2  0  0  0  0  0  0  0  0  0
   34.0717   29.0210   50.0642 O   0  0  0  0  0  0  0  0  0  0  0  0
   31.6669   29.1822   49.5029 C   0  0  2  0  0  0  0  0  0  0  0  0
   31.5925   30.5091   50.1417 N   0  0  0  0  0  0  0  0  0  0  0  0
   31.3114   28.0813   50.5262 C   0  0  1  0  0  0  0  0  0  0  0  0
   29.9754   28.2816   51.0176 O   0  0  0  0  0  0  0  0  0  0  0  0
   31.4070   26.7231   49.8005 C   0  0  2  0  0  0  0  0  0  0  0  0
   31.0891   25.6708   50.7272 O   0  0  0  0  0  0  0  0  0  0  0  0
   32.8676   26.5485   49.2820 C   0  0  2  0  0  0  0  0  0  0  0  0
   33.2129   27.6182   48.3523 O   0  0  0  0  0  0  0  0  0  0  0  0
   33.0277   25.2177   48.5290 C   0  0  0  0  0  0  0  0  0  0  0  0
   31.9303   25.0104   47.6223 O   0  0  0  0  0  0  0  0  0  0  0  0
  1  2  1  6  0  0  0
  1  3  1  0  0  0  0
  1  4  2  0  0  0  0
  1 16  1  0  0  0  0
  5  6  1  1  0  0  0
  5  7  1  0  0  0  0
  5 14  1  0  0  0  0
  7  8  1  1  0  0  0
  7  9  1  0  0  0  0
  9 10  1  6  0  0  0
  9 11  1  0  0  0  0
 11 12  1  1  0  0  0
 11 13  1  0  0  0  0
 13 14  1  0  0  0  0
 13 15  1  6  0  0  0
 15 16  1  0  0  0  0
M  CHG  1   3  -1
M  END
>  <CHROM.1>
45.23306034,168.63067753,157.27340272,32.19086496,26.27569147,48.57798900
-1.47642518,0.67076355,0.53162759

>  <Name>
ligand

>  <RI>
0

>  <Rbt.Current_Directory>
/home/itssahil/PROJECTS/Mol_Feturizer/New_Systems/rnas/3B4A

>  <Rbt.Executable>
rbdock ($Id: //depot/dev/client3/rdock/2013.1/src/exe/rbdock.cxx#4 $)

>  <Rbt.Library>
libRbt.so (2013.1, Build901 2013/11/27)

>  <Rbt.Parameter_File>
/export/apps/rDock/src/rDock_2013.1_src/data/scripts/dock_solv.prm

>  <Rbt.Receptor>
prm/blind_docking_80.prm

>  <SCORE>
-8.98339

>  <SCORE.INTER>
-8.99151

>  <SCORE.INTER.CONST>
1

>  <SCORE.INTER.POLAR>
0

>  <SCORE.INTER.ROT>
3

>  <SCORE.INTER.SOLV>
13.8747

>  <SCORE.INTER.VDW>
-16.2192

>  <SCORE.INTER.norm>
-0.56197

>  <SCORE.INTRA>
0.00812037

>  <SCORE.INTRA.DIHEDRAL>
0.0609274

>  <SCORE.INTRA.DIHEDRAL.0>
2.05999

>  <SCORE.INTRA.POLAR>
0

>  <SCORE.INTRA.POLAR.0>
0

>  <SCORE.INTRA.REPUL>
0

>  <SCORE.INTRA.REPUL.0>
0

>  <SCORE.INTRA.SOLV>
-0.169238

>  <SCORE.INTRA.SOLV.lig_0>
-58.7001

>  <SCORE.INTRA.VDW>
0.0622754

>  <SCORE.INTRA.VDW.0>
-0.401036

>  <SCORE.INTRA.norm>
0.000507523

>  <SCORE.RESTR>
0

>  <SCORE.RESTR.CAVITY>
0

>  <SCORE.RESTR.norm>
0

>  <SCORE.SYSTEM>
0

>  <SCORE.SYSTEM.CONST>
0

>  <SCORE.SYSTEM.DIHEDRAL>
0

>  <SCORE.SYSTEM.SOLV>
0

>  <SCORE.SYSTEM.norm>
0

>  <SCORE.heavy>
16

>  <SCORE.norm>
-0.561462

>  <RMSD>
19.093

$$$$
ligand
 OpenBabel11021811463D
libRbt.so/2013.1/901 2013/11/27
 16 16  0  0  0  0  0  0  0  0999 V2000
   33.5476   25.8039   48.5410 P   0  0  2  0  0  0  0  0  0  0  0  0
   34.7169   26.3530   47.8106 O   0  0  0  0  0  0  0  0  0  0  0  0
   32.3495   25.5315   47.4962 O   0  5  0  0  0  0  0  0  0  0  0  0
   33.0770   26.8785   49.6550 O   0  0  0  0  0  0  0  0  0  0  0  0
   34.6828   19.7092   48.2775 C   0  0  2  0  0  0  0  0  0  0  0  0
   33.6580   19.3392   49.2278 O   0  0  0  0  0  0  0  0  0  0  0  0
   36.0963   19.6343   48.9243 C   0  0  2  0  0  0  0  0  0  0  0  0
   36.3379   18.2686   49.4251 N   0  0  0  0  0  0  0  0  0  0  0  0
   36.1613   20.6450   50.0904 C   0  0  1  0  0  0  0  0  0  0  0  0
   37.4606   20.6026   50.7041 O   0  0  0  0  0  0  0  0  0  0  0  0
   35.9015   22.0485   49.5047 C   0  0  2  0  0  0  0  0  0  0  0  0
   35.9470   23.0174   50.5661 O   0  0  0  0  0  0  0  0  0  0  0  0
   34.4869   22.0491   48.8477 C   0  0  2  0  0  0  0  0  0  0  0  0
   34.4179   21.0591   47.7785 O   0  0  0  0  0  0  0  0  0  0  0  0
   34.1712   23.4188   48.2249 C   0  0  0  0  0  0  0  0  0  0  0  0
   33.9773   24.4110   49.2483 O   0  0  0  0  0  0  0  0  0  0  0  0
  1  2  1  6  0  0  0
  1  3  1  0  0  0  0
  1  4  2  0  0  0  0
  1 16  1  0  0  0  0
  5  6  1  1  0  0  0
  5  7  1  0  0  0  0
  5 14  1  0  0  0  0
  7  8  1  1  0  0  0
  7  9  1  0  0  0  0
  9 10  1  6  0  0  0
  9 11  1  0  0  0  0
 11 12  1  1  0  0  0
 11 13  1  0  0  0  0
 13 14  1  0  0  0  0
 13 15  1  6  0  0  0
 15 16  1  0  0  0  0
M  CHG  1   3  -1
M  END
>  <CHROM.1>
-69.65577883,-176.10311724,-70.17744126,34.69105107,22.74390954,48.98827010
2.02125398,-0.65535200,0.14247217

>  <Name>
ligand

>  <RI>
0

>  <Rbt.Current_Directory>
/home/itssahil/PROJECTS/Mol_Feturizer/New_Systems/rnas/3B4A

>  <Rbt.Executable>
rbdock ($Id: //depot/dev/client3/rdock/2013.1/src/exe/rbdock.cxx#4 $)

>  <Rbt.Library>
libRbt.so (2013.1, Build901 2013/11/27)

>  <Rbt.Parameter_File>
/export/apps/rDock/src/rDock_2013.1_src/data/scripts/dock_solv.prm

>  <Rbt.Receptor>
prm/blind_docking_100.prm

>  <SCORE>
-10.56

>  <SCORE.INTER>
-9.39496

>  <SCORE.INTER.CONST>
1

>  <SCORE.INTER.POLAR>
0

>  <SCORE.INTER.ROT>
3

>  <SCORE.INTER.SOLV>
16.1455

>  <SCORE.INTER.VDW>
-17.2452

>  <SCORE.INTER.norm>
-0.587185

>  <SCORE.INTRA>
-1.16507

>  <SCORE.INTRA.DIHEDRAL>
-1.48956

>  <SCORE.INTRA.DIHEDRAL.0>
2.05999

>  <SCORE.INTRA.POLAR>
0

>  <SCORE.INTRA.POLAR.0>
0

>  <SCORE.INTRA.REPUL>
0

>  <SCORE.INTRA.REPUL.0>
0

>  <SCORE.INTRA.SOLV>
-0.637092

>  <SCORE.INTRA.SOLV.lig_0>
-58.7001

>  <SCORE.INTRA.VDW>
-0.101742

>  <SCORE.INTRA.VDW.0>
-0.401036

>  <SCORE.INTRA.norm>
-0.0728168

>  <SCORE.RESTR>
0

>  <SCORE.RESTR.CAVITY>
0

>  <SCORE.RESTR.norm>
0

>  <SCORE.SYSTEM>
0

>  <SCORE.SYSTEM.CONST>
0

>  <SCORE.SYSTEM.DIHEDRAL>
0

>  <SCORE.SYSTEM.SOLV>
0

>  <SCORE.SYSTEM.norm>
0

>  <SCORE.heavy>
16

>  <SCORE.norm>
-0.660002

>  <RMSD>
19.095

$$$$
ligand
 OpenBabel11021811463D
libRbt.so/2013.1/901 2013/11/27
 16 16  0  0  0  0  0  0  0  0999 V2000
   34.4855   20.3274   48.7789 P   0  0  2  0  0  0  0  0  0  0  0  0
   33.5589   19.1691   48.8287 O   0  0  0  0  0  0  0  0  0  0  0  0
   35.6242   20.0487   47.6713 O   0  5  0  0  0  0  0  0  0  0  0  0
   35.1641   20.5152   50.2354 O   0  0  0  0  0  0  0  0  0  0  0  0
   33.4054   26.3731   49.2242 C   0  0  2  0  0  0  0  0  0  0  0  0
   32.0055   26.1757   49.5271 O   0  0  0  0  0  0  0  0  0  0  0  0
   33.5908   26.9297   47.7827 C   0  0  2  0  0  0  0  0  0  0  0  0
   32.8580   28.2020   47.6471 N   0  0  0  0  0  0  0  0  0  0  0  0
   33.0425   25.8932   46.7775 C   0  0  1  0  0  0  0  0  0  0  0  0
   33.2069   26.3784   45.4343 O   0  0  0  0  0  0  0  0  0  0  0  0
   33.8460   24.5899   46.9681 C   0  0  2  0  0  0  0  0  0  0  0  0
   33.3565   23.5966   46.0511 O   0  0  0  0  0  0  0  0  0  0  0  0
   33.6430   24.1015   48.4354 C   0  0  2  0  0  0  0  0  0  0  0  0
   34.1196   25.1054   49.3804 O   0  0  0  0  0  0  0  0  0  0  0  0
   34.4358   22.8110   48.6994 C   0  0  0  0  0  0  0  0  0  0  0  0
   33.6472   21.6531   48.3730 O   0  0  0  0  0  0  0  0  0  0  0  0
  1  2  1  1  0  0  0
  1  3  1  0  0  0  0
  1  4  2  0  0  0  0
  1 16  1  0  0  0  0
  5  6  1  6  0  0  0
  5  7  1  0  0  0  0
  5 14  1  0  0  0  0
  7  8  1  1  0  0  0
  7  9  1  0  0  0  0
  9 10  1  6  0  0  0
  9 11  1  0  0  0  0
 11 12  1  6  0  0  0
 11 13  1  0  0  0  0
 13 14  1  0  0  0  0
 13 15  1  6  0  0  0
 15 16  1  0  0  0  0
M  CHG  1   3  -1
M  END
>  <CHROM.1>
-88.91766466,-175.60431846,163.46548859,33.80917299,23.52948391,48.16836239
0.17082114,-1.34712873,1.56391620

>  <Name>
ligand

>  <RI>
0

>  <Rbt.Current_Directory>
/home/itssahil/PROJECTS/Mol_Feturizer/New_Systems/rnas/3B4A

>  <Rbt.Executable>
rbdock ($Id: //depot/dev/client3/rdock/2013.1/src/exe/rbdock.cxx#4 $)

>  <Rbt.Library>
libRbt.so (2013.1, Build901 2013/11/27)

>  <Rbt.Parameter_File>
/export/apps/rDock/src/rDock_2013.1_src/data/scripts/dock_solv.prm

>  <Rbt.Receptor>
prm/blind_docking_80.prm

>  <SCORE>
-10.6089

>  <SCORE.INTER>
-10.6426

>  <SCORE.INTER.CONST>
1

>  <SCORE.INTER.POLAR>
0

>  <SCORE.INTER.ROT>
3

>  <SCORE.INTER.SOLV>
13.3514

>  <SCORE.INTER.VDW>
-17.1455

>  <SCORE.INTER.norm>
-0.665162

>  <SCORE.INTRA>
0.0337317

>  <SCORE.INTRA.DIHEDRAL>
0.942006

>  <SCORE.INTRA.DIHEDRAL.0>
2.05999

>  <SCORE.INTRA.POLAR>
0

>  <SCORE.INTRA.POLAR.0>
0

>  <SCORE.INTRA.REPUL>
0

>  <SCORE.INTRA.REPUL.0>
0

>  <SCORE.INTRA.SOLV>
-0.343024

>  <SCORE.INTRA.SOLV.lig_0>
-58.7001

>  <SCORE.INTRA.VDW>
-0.265759

>  <SCORE.INTRA.VDW.0>
-0.401036

>  <SCORE.INTRA.norm>
0.00210823

>  <SCORE.RESTR>
0

>  <SCORE.RESTR.CAVITY>
0

>  <SCORE.RESTR.norm>
0

>  <SCORE.SYSTEM>
0

>  <SCORE.SYSTEM.CONST>
0

>  <SCORE.SYSTEM.DIHEDRAL>
0

>  <SCORE.SYSTEM.SOLV>
0

>  <SCORE.SYSTEM.norm>
0

>  <SCORE.heavy>
16

>  <SCORE.norm>
-0.663054

>  <RMSD>
19.218

$$$$
ligand
 OpenBabel11021811463D
libRbt.so/2013.1/901 2013/11/27
 16 16  0  0  0  0  0  0  0  0999 V2000
   31.9399   23.8124   46.3512 P   0  0  2  0  0  0  0  0  0  0  0  0
   30.7363   23.1880   46.9545 O   0  0  0  0  0  0  0  0  0  0  0  0
   31.6848   24.0428   44.7754 O   0  5  0  0  0  0  0  0  0  0  0  0
   33.2036   22.8261   46.5690 O   0  0  0  0  0  0  0  0  0  0  0  0
   33.3102   28.6123   49.1822 C   0  0  2  0  0  0  0  0  0  0  0  0
   34.1691   28.4738   50.3370 O   0  0  0  0  0  0  0  0  0  0  0  0
   31.8689   29.0196   49.6050 C   0  0  2  0  0  0  0  0  0  0  0  0
   31.9151   30.2866   50.3579 N   0  0  0  0  0  0  0  0  0  0  0  0
   31.2772   27.8998   50.4890 C   0  0  1  0  0  0  0  0  0  0  0  0
   29.9409   28.2463   50.8900 O   0  0  0  0  0  0  0  0  0  0  0  0
   31.2557   26.6060   49.6488 C   0  0  2  0  0  0  0  0  0  0  0  0
   30.7163   25.5368   50.4445 O   0  0  0  0  0  0  0  0  0  0  0  0
   32.7208   26.2695   49.2331 C   0  0  2  0  0  0  0  0  0  0  0  0
   33.2897   27.3523   48.4383 O   0  0  0  0  0  0  0  0  0  0  0  0
   32.7690   24.9958   48.3734 C   0  0  0  0  0  0  0  0  0  0  0  0
   32.2080   25.2388   47.0712 O   0  0  0  0  0  0  0  0  0  0  0  0
  1  2  1  1  0  0  0
  1  3  1  0  0  0  0
  1  4  2  0  0  0  0
  1 16  1  0  0  0  0
  5  6  1  1  0  0  0
  5  7  1  0  0  0  0
  5 14  1  0  0  0  0
  7  8  1  1  0  0  0
  7  9  1  0  0  0  0
  9 10  1  6  0  0  0
  9 11  1  0  0  0  0
 11 12  1  1  0  0  0
 11 13  1  0  0  0  0
 13 14  1  0  0  0  0
 13 15  1  6  0  0  0
 15 16  1  0  0  0  0
M  CHG  1   3  -1
M  END
>  <CHROM.1>
70.74887372,-165.93374031,75.41593363,32.04976931,26.15125243,48.46442749
-1.57583149,0.49541881,0.67066051

>  <Name>
ligand

>  <RI>
0

>  <Rbt.Current_Directory>
/home/itssahil/PROJECTS/Mol_Feturizer/New_Systems/rnas/3B4A

>  <Rbt.Executable>
rbdock ($Id: //depot/dev/client3/rdock/2013.1/src/exe/rbdock.cxx#4 $)

>  <Rbt.Library>
libRbt.so (2013.1, Build901 2013/11/27)

>  <Rbt.Parameter_File>
/export/apps/rDock/src/rDock_2013.1_src/data/scripts/dock_solv.prm

>  <Rbt.Receptor>
prm/blind_docking_80.prm

>  <SCORE>
-10.0085

>  <SCORE.INTER>
-9.29173

>  <SCORE.INTER.CONST>
1

>  <SCORE.INTER.POLAR>
0

>  <SCORE.INTER.ROT>
3

>  <SCORE.INTER.SOLV>
15.5876

>  <SCORE.INTER.VDW>
-16.9904

>  <SCORE.INTER.norm>
-0.580733

>  <SCORE.INTRA>
-0.716801

>  <SCORE.INTRA.DIHEDRAL>
-0.344142

>  <SCORE.INTRA.DIHEDRAL.0>
2.05999

>  <SCORE.INTRA.POLAR>
0

>  <SCORE.INTRA.POLAR.0>
0

>  <SCORE.INTRA.REPUL>
0

>  <SCORE.INTRA.REPUL.0>
0

>  <SCORE.INTRA.SOLV>
-0.715212

>  <SCORE.INTRA.SOLV.lig_0>
-58.7001

>  <SCORE.INTRA.VDW>
-0.187124

>  <SCORE.INTRA.VDW.0>
-0.401036

>  <SCORE.INTRA.norm>
-0.0448001

>  <SCORE.RESTR>
0

>  <SCORE.RESTR.CAVITY>
0

>  <SCORE.RESTR.norm>
0

>  <SCORE.SYSTEM>
0

>  <SCORE.SYSTEM.CONST>
0

>  <SCORE.SYSTEM.DIHEDRAL>
0

>  <SCORE.SYSTEM.SOLV>
0

>  <SCORE.SYSTEM.norm>
0

>  <SCORE.heavy>
16

>  <SCORE.norm>
-0.625533

>  <RMSD>
19.280

$$$$
ligand
 OpenBabel11021811463D
libRbt.so/2013.1/901 2013/11/27
 16 16  0  0  0  0  0  0  0  0999 V2000
   34.3892   20.2102   48.4201 P   0  0  2  0  0  0  0  0  0  0  0  0
   33.6428   19.1202   49.0962 O   0  0  0  0  0  0  0  0  0  0  0  0
   34.3970   19.9410   46.8299 O   0  5  0  0  0  0  0  0  0  0  0  0
   35.9049   20.2327   48.9852 O   0  0  0  0  0  0  0  0  0  0  0  0
   33.2516   25.7982   49.5616 C   0  0  2  0  0  0  0  0  0  0  0  0
   31.8311   25.5845   49.7248 O   0  0  0  0  0  0  0  0  0  0  0  0
   33.5342   26.8246   48.4263 C   0  0  2  0  0  0  0  0  0  0  0  0
   32.8614   28.0998   48.7355 N   0  0  0  0  0  0  0  0  0  0  0  0
   32.9976   26.2518   47.0962 C   0  0  1  0  0  0  0  0  0  0  0  0
   33.2511   27.1775   46.0260 O   0  0  0  0  0  0  0  0  0  0  0  0
   33.7367   24.9240   46.8295 C   0  0  2  0  0  0  0  0  0  0  0  0
   33.2558   24.3564   45.5991 O   0  0  0  0  0  0  0  0  0  0  0  0
   33.4380   23.9529   48.0129 C   0  0  2  0  0  0  0  0  0  0  0  0
   33.9049   24.5211   49.2727 O   0  0  0  0  0  0  0  0  0  0  0  0
   34.1632   22.6112   47.8187 C   0  0  0  0  0  0  0  0  0  0  0  0
   33.6525   21.6201   48.7277 O   0  0  0  0  0  0  0  0  0  0  0  0
  1  2  1  1  0  0  0
  1  3  1  0  0  0  0
  1  4  2  0  0  0  0
  1 16  1  0  0  0  0
  5  6  1  6  0  0  0
  5  7  1  0  0  0  0
  5 14  1  0  0  0  0
  7  8  1  1  0  0  0
  7  9  1  0  0  0  0
  9 10  1  6  0  0  0
  9 11  1  0  0  0  0
 11 12  1  6  0  0  0
 11 13  1  0  0  0  0
 13 14  1  0  0  0  0
 13 15  1  6  0  0  0
 15 16  1  0  0  0  0
M  CHG  1   3  -1
M  END
>  <CHROM.1>
-166.64911136,176.73031625,-165.77520723,33.69946338,23.48565603,48.09518827
0.51505911,-1.32814977,2.02182242

>  <Name>
ligand

>  <RI>
0

>  <Rbt.Current_Directory>
/home/itssahil/PROJECTS/Mol_Feturizer/New_Systems/rnas/3B4A

>  <Rbt.Executable>
rbdock ($Id: //depot/dev/client3/rdock/2013.1/src/exe/rbdock.cxx#4 $)

>  <Rbt.Library>
libRbt.so (2013.1, Build901 2013/11/27)

>  <Rbt.Parameter_File>
/export/apps/rDock/src/rDock_2013.1_src/data/scripts/dock_solv.prm

>  <Rbt.Receptor>
prm/blind_docking_80.prm

>  <SCORE>
-11.3659

>  <SCORE.INTER>
-10.4729

>  <SCORE.INTER.CONST>
1

>  <SCORE.INTER.POLAR>
0

>  <SCORE.INTER.ROT>
3

>  <SCORE.INTER.SOLV>
14.7468

>  <SCORE.INTER.VDW>
-17.4975

>  <SCORE.INTER.norm>
-0.654556

>  <SCORE.INTRA>
-0.893001

>  <SCORE.INTRA.DIHEDRAL>
-1.06452

>  <SCORE.INTRA.DIHEDRAL.0>
2.05999

>  <SCORE.INTRA.POLAR>
0

>  <SCORE.INTRA.POLAR.0>
0

>  <SCORE.INTRA.REPUL>
0

>  <SCORE.INTRA.REPUL.0>
0

>  <SCORE.INTRA.SOLV>
-0.480227

>  <SCORE.INTRA.SOLV.lig_0>
-58.7001

>  <SCORE.INTRA.VDW>
-0.120629

>  <SCORE.INTRA.VDW.0>
-0.401036

>  <SCORE.INTRA.norm>
-0.0558125

>  <SCORE.RESTR>
0

>  <SCORE.RESTR.CAVITY>
0

>  <SCORE.RESTR.norm>
0

>  <SCORE.SYSTEM>
0

>  <SCORE.SYSTEM.CONST>
0

>  <SCORE.SYSTEM.DIHEDRAL>
0

>  <SCORE.SYSTEM.SOLV>
0

>  <SCORE.SYSTEM.norm>
0

>  <SCORE.heavy>
16

>  <SCORE.norm>
-0.710368

>  <RMSD>
19.309

$$$$
ligand
 OpenBabel11021811463D
libRbt.so/2013.1/901 2013/11/27
 16 16  0  0  0  0  0  0  0  0999 V2000
   32.7999   25.5031   48.4959 P   0  0  2  0  0  0  0  0  0  0  0  0
   31.4151   25.0204   48.2685 O   0  0  0  0  0  0  0  0  0  0  0  0
   32.7712   26.7162   49.5582 O   0  5  0  0  0  0  0  0  0  0  0  0
   33.4115   26.0145   47.0881 O   0  0  0  0  0  0  0  0  0  0  0  0
   34.6204   19.6130   48.1406 C   0  0  2  0  0  0  0  0  0  0  0  0
   33.7041   19.1791   49.1714 O   0  0  0  0  0  0  0  0  0  0  0  0
   36.0798   19.6666   48.6784 C   0  0  2  0  0  0  0  0  0  0  0  0
   36.4709   18.3354   49.1775 N   0  0  0  0  0  0  0  0  0  0  0  0
   36.1480   20.7020   49.8225 C   0  0  1  0  0  0  0  0  0  0  0  0
   37.4888   20.7781   50.3354 O   0  0  0  0  0  0  0  0  0  0  0  0
   35.7293   22.0678   49.2397 C   0  0  2  0  0  0  0  0  0  0  0  0
   35.7738   23.0578   50.2814 O   0  0  0  0  0  0  0  0  0  0  0  0
   34.2743   21.9397   48.6928 C   0  0  2  0  0  0  0  0  0  0  0  0
   34.2075   20.9266   47.6454 O   0  0  0  0  0  0  0  0  0  0  0  0
   33.8000   23.2665   48.0778 C   0  0  0  0  0  0  0  0  0  0  0  0
   33.6899   24.2853   49.0873 O   0  0  0  0  0  0  0  0  0  0  0  0
  1  2  1  6  0  0  0
  1  3  1  0  0  0  0
  1  4  2  0  0  0  0
  1 16  1  0  0  0  0
  5  6  1  1  0  0  0
  5  7  1  0  0  0  0
  5 14  1  0  0  0  0
  7  8  1  1  0  0  0
  7  9  1  0  0  0  0
  9 10  1  6  0  0  0
  9 11  1  0  0  0  0
 11 12  1  1  0  0  0
 11 13  1  0  0  0  0
 13 14  1  0  0  0  0
 13 15  1  6  0  0  0
 15 16  1  0  0  0  0
M  CHG  1   3  -1
M  END
>  <CHROM.1>
-65.71222612,-163.83002841,65.66534359,34.36187455,22.62011934,48.83879899
2.14173464,-0.55278141,0.20141571

>  <Name>
ligand

>  <RI>
0

>  <Rbt.Current_Directory>
/home/itssahil/PROJECTS/Mol_Feturizer/New_Systems/rnas/3B4A

>  <Rbt.Executable>
rbdock ($Id: //depot/dev/client3/rdock/2013.1/src/exe/rbdock.cxx#4 $)

>  <Rbt.Library>
libRbt.so (2013.1, Build901 2013/11/27)

>  <Rbt.Parameter_File>
/export/apps/rDock/src/rDock_2013.1_src/data/scripts/dock_solv.prm

>  <Rbt.Receptor>
prm/blind_docking_80.prm

>  <SCORE>
-10.4076

>  <SCORE.INTER>
-9.62329

>  <SCORE.INTER.CONST>
1

>  <SCORE.INTER.POLAR>
0

>  <SCORE.INTER.ROT>
3

>  <SCORE.INTER.SOLV>
14.5334

>  <SCORE.INTER.VDW>
-16.86

>  <SCORE.INTER.norm>
-0.601456

>  <SCORE.INTRA>
-0.784297

>  <SCORE.INTRA.DIHEDRAL>
-0.674505

>  <SCORE.INTRA.DIHEDRAL.0>
2.05999

>  <SCORE.INTRA.POLAR>
0

>  <SCORE.INTRA.POLAR.0>
0

>  <SCORE.INTRA.REPUL>
0

>  <SCORE.INTRA.REPUL.0>
0

>  <SCORE.INTRA.SOLV>
-0.792653

>  <SCORE.INTRA.SOLV.lig_0>
-58.7001

>  <SCORE.INTRA.VDW>
-0.0507172

>  <SCORE.INTRA.VDW.0>
-0.401036

>  <SCORE.INTRA.norm>
-0.0490185

>  <SCORE.RESTR>
0

>  <SCORE.RESTR.CAVITY>
0

>  <SCORE.RESTR.norm>
0

>  <SCORE.SYSTEM>
0

>  <SCORE.SYSTEM.CONST>
0

>  <SCORE.SYSTEM.DIHEDRAL>
0

>  <SCORE.SYSTEM.SOLV>
0

>  <SCORE.SYSTEM.norm>
0

>  <SCORE.heavy>
16

>  <SCORE.norm>
-0.650474

>  <RMSD>
19.432

$$$$
ligand
 OpenBabel11021811463D
libRbt.so/2013.1/901 2013/11/27
 16 16  0  0  0  0  0  0  0  0999 V2000
   31.2394   26.1898   42.5521 P   0  0  2  0  0  0  0  0  0  0  0  0
   30.2839   27.0279   41.7858 O   0  0  0  0  0  0  0  0  0  0  0  0
   32.6996   26.2963   41.8755 O   0  5  0  0  0  0  0  0  0  0  0  0
   30.7265   24.6557   42.5234 O   0  0  0  0  0  0  0  0  0  0  0  0
   33.2185   28.2808   47.5118 C   0  0  2  0  0  0  0  0  0  0  0  0
   32.0223   28.0293   48.2839 O   0  0  0  0  0  0  0  0  0  0  0  0
   33.6106   29.7859   47.5654 C   0  0  2  0  0  0  0  0  0  0  0  0
   33.8170   30.1922   48.9678 N   0  0  0  0  0  0  0  0  0  0  0  0
   32.4713   30.6170   46.9357 C   0  0  1  0  0  0  0  0  0  0  0  0
   32.8093   32.0140   46.9654 O   0  0  0  0  0  0  0  0  0  0  0  0
   32.3045   30.1470   45.4757 C   0  0  2  0  0  0  0  0  0  0  0  0
   31.2439   30.8959   44.8581 O   0  0  0  0  0  0  0  0  0  0  0  0
   31.9428   28.6299   45.4896 C   0  0  2  0  0  0  0  0  0  0  0  0
   33.0017   27.8562   46.1283 O   0  0  0  0  0  0  0  0  0  0  0  0
   31.7806   28.0908   44.0590 C   0  0  0  0  0  0  0  0  0  0  0  0
   31.3076   26.7324   44.0772 O   0  0  0  0  0  0  0  0  0  0  0  0
  1  2  1  6  0  0  0
  1  3  1  0  0  0  0
  1  4  2  0  0  0  0
  1 16  1  0  0  0  0
  5  6  1  1  0  0  0
  5  7  1  0  0  0  0
  5 14  1  0  0  0  0
  7  8  1  1  0  0  0
  7  9  1  0  0  0  0
  9 10  1  6  0  0  0
  9 11  1  0  0  0  0
 11 12  1  1  0  0  0
 11 13  1  0  0  0  0
 13 14  1  0  0  0  0
 13 15  1  6  0  0  0
 15 16  1  0  0  0  0
M  CHG  1   3  -1
M  END
>  <CHROM.1>
-173.80968597,-176.70251578,-61.26393810,32.05758730,28.25847966,45.05706154
-2.37917038,-1.20811020,0.11833199

>  <Name>
ligand

>  <RI>
0

>  <Rbt.Current_Directory>
/home/itssahil/PROJECTS/Mol_Feturizer/New_Systems/rnas/3B4A

>  <Rbt.Executable>
rbdock ($Id: //depot/dev/client3/rdock/2013.1/src/exe/rbdock.cxx#4 $)

>  <Rbt.Library>
libRbt.so (2013.1, Build901 2013/11/27)

>  <Rbt.Parameter_File>
/export/apps/rDock/src/rDock_2013.1_src/data/scripts/dock_solv.prm

>  <Rbt.Receptor>
prm/blind_docking_80.prm

>  <SCORE>
-7.72735

>  <SCORE.INTER>
-6.18404

>  <SCORE.INTER.CONST>
1

>  <SCORE.INTER.POLAR>
0

>  <SCORE.INTER.ROT>
3

>  <SCORE.INTER.SOLV>
10.9805

>  <SCORE.INTER.VDW>
-13.3828

>  <SCORE.INTER.norm>
-0.386503

>  <SCORE.INTRA>
-1.54331

>  <SCORE.INTRA.DIHEDRAL>
-1.86227

>  <SCORE.INTRA.DIHEDRAL.0>
2.05999

>  <SCORE.INTRA.POLAR>
0

>  <SCORE.INTRA.POLAR.0>
0

>  <SCORE.INTRA.REPUL>
0

>  <SCORE.INTRA.REPUL.0>
0

>  <SCORE.INTRA.SOLV>
-1.03385

>  <SCORE.INTRA.SOLV.lig_0>
-58.7001

>  <SCORE.INTRA.VDW>
-0.0952486

>  <SCORE.INTRA.VDW.0>
-0.401036

>  <SCORE.INTRA.norm>
-0.0964569

>  <SCORE.RESTR>
0

>  <SCORE.RESTR.CAVITY>
0

>  <SCORE.RESTR.norm>
0

>  <SCORE.SYSTEM>
0

>  <SCORE.SYSTEM.CONST>
0

>  <SCORE.SYSTEM.DIHEDRAL>
0

>  <SCORE.SYSTEM.SOLV>
0

>  <SCORE.SYSTEM.norm>
0

>  <SCORE.heavy>
16

>  <SCORE.norm>
-0.48296

>  <RMSD>
19.668

$$$$
ligand
 OpenBabel11021811463D
libRbt.so/2013.1/901 2013/11/27
 16 16  0  0  0  0  0  0  0  0999 V2000
   32.6932   25.6312   48.5728 P   0  0  2  0  0  0  0  0  0  0  0  0
   31.3072   25.1063   48.4949 O   0  0  0  0  0  0  0  0  0  0  0  0
   32.7669   26.7675   49.7149 O   0  5  0  0  0  0  0  0  0  0  0  0
   33.0933   26.2620   47.1378 O   0  0  0  0  0  0  0  0  0  0  0  0
   34.7265   20.4093   49.7572 C   0  0  2  0  0  0  0  0  0  0  0  0
   36.0286   20.8351   50.2190 O   0  0  0  0  0  0  0  0  0  0  0  0
   34.8552   19.3917   48.5867 C   0  0  2  0  0  0  0  0  0  0  0  0
   35.6423   18.2264   49.0305 N   0  0  0  0  0  0  0  0  0  0  0  0
   35.5608   20.0868   47.4017 C   0  0  1  0  0  0  0  0  0  0  0  0
   35.6880   19.1708   46.3011 O   0  0  0  0  0  0  0  0  0  0  0  0
   34.6925   21.2923   46.9853 C   0  0  2  0  0  0  0  0  0  0  0  0
   35.3242   21.9702   45.8860 O   0  0  0  0  0  0  0  0  0  0  0  0
   34.5780   22.2562   48.2062 C   0  0  2  0  0  0  0  0  0  0  0  0
   33.9537   21.5789   49.3373 O   0  0  0  0  0  0  0  0  0  0  0  0
   33.7057   23.4750   47.8637 C   0  0  0  0  0  0  0  0  0  0  0  0
   33.6943   24.4152   48.9523 O   0  0  0  0  0  0  0  0  0  0  0  0
  1  2  1  6  0  0  0
  1  3  1  0  0  0  0
  1  4  2  0  0  0  0
  1 16  1  0  0  0  0
  5  6  1  6  0  0  0
  5  7  1  0  0  0  0
  5 14  1  0  0  0  0
  7  8  1  1  0  0  0
  7  9  1  0  0  0  0
  9 10  1  6  0  0  0
  9 11  1  0  0  0  0
 11 12  1  6  0  0  0
 11 13  1  0  0  0  0
 13 14  1  0  0  0  0
 13 15  1  6  0  0  0
 15 16  1  0  0  0  0
M  CHG  1   3  -1
M  END
>  <CHROM.1>
-175.16001534,-176.65479188,65.87533450,34.13308236,22.62096254,48.29812291
2.97619332,1.13748376,-1.31902064

>  <Name>
ligand

>  <RI>
0

>  <Rbt.Current_Directory>
/home/itssahil/PROJECTS/Mol_Feturizer/New_Systems/rnas/3B4A

>  <Rbt.Executable>
rbdock ($Id: //depot/dev/client3/rdock/2013.1/src/exe/rbdock.cxx#4 $)

>  <Rbt.Library>
libRbt.so (2013.1, Build901 2013/11/27)

>  <Rbt.Parameter_File>
/export/apps/rDock/src/rDock_2013.1_src/data/scripts/dock_solv.prm

>  <Rbt.Receptor>
prm/blind_docking_80.prm

>  <SCORE>
-9.49489

>  <SCORE.INTER>
-7.92619

>  <SCORE.INTER.CONST>
1

>  <SCORE.INTER.POLAR>
0

>  <SCORE.INTER.ROT>
3

>  <SCORE.INTER.SOLV>
16.5827

>  <SCORE.INTER.VDW>
-16.4117

>  <SCORE.INTER.norm>
-0.495387

>  <SCORE.INTRA>
-1.56871

>  <SCORE.INTRA.DIHEDRAL>
-1.86029

>  <SCORE.INTRA.DIHEDRAL.0>
2.05999

>  <SCORE.INTRA.POLAR>
0

>  <SCORE.INTRA.POLAR.0>
0

>  <SCORE.INTRA.REPUL>
0

>  <SCORE.INTRA.REPUL.0>
0

>  <SCORE.INTRA.SOLV>
-1.01925

>  <SCORE.INTRA.SOLV.lig_0>
-58.7001

>  <SCORE.INTRA.VDW>
-0.128936

>  <SCORE.INTRA.VDW.0>
-0.401036

>  <SCORE.INTRA.norm>
-0.0980441

>  <SCORE.RESTR>
0

>  <SCORE.RESTR.CAVITY>
0

>  <SCORE.RESTR.norm>
0

>  <SCORE.SYSTEM>
0

>  <SCORE.SYSTEM.CONST>
0

>  <SCORE.SYSTEM.DIHEDRAL>
0

>  <SCORE.SYSTEM.SOLV>
0

>  <SCORE.SYSTEM.norm>
0

>  <SCORE.heavy>
16

>  <SCORE.norm>
-0.593431

>  <RMSD>
19.713

$$$$
ligand
 OpenBabel11021811463D
libRbt.so/2013.1/901 2013/11/27
 16 16  0  0  0  0  0  0  0  0999 V2000
   32.6880   25.6265   48.5454 P   0  0  2  0  0  0  0  0  0  0  0  0
   31.3028   25.1006   48.4612 O   0  0  0  0  0  0  0  0  0  0  0  0
   32.7555   26.7633   49.6875 O   0  5  0  0  0  0  0  0  0  0  0  0
   33.0943   26.2571   47.1120 O   0  0  0  0  0  0  0  0  0  0  0  0
   34.7262   20.4098   49.7449 C   0  0  2  0  0  0  0  0  0  0  0  0
   36.0275   20.8383   50.2066 O   0  0  0  0  0  0  0  0  0  0  0  0
   34.8570   19.3894   48.5772 C   0  0  2  0  0  0  0  0  0  0  0  0
   35.6451   18.2261   49.0245 N   0  0  0  0  0  0  0  0  0  0  0  0
   35.5628   20.0823   47.3909 C   0  0  1  0  0  0  0  0  0  0  0  0
   35.6918   19.1637   46.2928 O   0  0  0  0  0  0  0  0  0  0  0  0
   34.6934   21.2857   46.9708 C   0  0  2  0  0  0  0  0  0  0  0  0
   35.3252   21.9615   45.8702 O   0  0  0  0  0  0  0  0  0  0  0  0
   34.5768   22.2526   48.1891 C   0  0  2  0  0  0  0  0  0  0  0  0
   33.9524   21.5774   49.3215 O   0  0  0  0  0  0  0  0  0  0  0  0
   33.7034   23.4695   47.8429 C   0  0  0  0  0  0  0  0  0  0  0  0
   33.6883   24.4114   48.9300 O   0  0  0  0  0  0  0  0  0  0  0  0
  1  2  1  6  0  0  0
  1  3  1  0  0  0  0
  1  4  2  0  0  0  0
  1 16  1  0  0  0  0
  5  6  1  6  0  0  0
  5  7  1  0  0  0  0
  5 14  1  0  0  0  0
  7  8  1  1  0  0  0
  7  9  1  0  0  0  0
  9 10  1  6  0  0  0
  9 11  1  0  0  0  0
 11 12  1  6  0  0  0
 11 13  1  0  0  0  0
 13 14  1  0  0  0  0
 13 15  1  6  0  0  0
 15 16  1  0  0  0  0
M  CHG  1   3  -1
M  END
>  <CHROM.1>
-175.25639783,-176.74724329,65.76078431,34.13146521,22.61715476,48.27969347
2.97479789,1.13619029,-1.32028724

>  <Name>
ligand

>  <RI>
0

>  <Rbt.Current_Directory>
/home/itssahil/PROJECTS/Mol_Feturizer/New_Systems/rnas/3B4A

>  <Rbt.Executable>
rbdock ($Id: //depot/dev/client3/rdock/2013.1/src/exe/rbdock.cxx#4 $)

>  <Rbt.Library>
libRbt.so (2013.1, Build901 2013/11/27)

>  <Rbt.Parameter_File>
/export/apps/rDock/src/rDock_2013.1_src/data/scripts/dock_solv.prm

>  <Rbt.Receptor>
prm/blind_docking_100.prm

>  <SCORE>
-9.49578

>  <SCORE.INTER>
-7.92252

>  <SCORE.INTER.CONST>
1

>  <SCORE.INTER.POLAR>
0

>  <SCORE.INTER.ROT>
3

>  <SCORE.INTER.SOLV>
16.4451

>  <SCORE.INTER.VDW>
-16.3634

>  <SCORE.INTER.norm>
-0.495158

>  <SCORE.INTRA>
-1.57326

>  <SCORE.INTRA.DIHEDRAL>
-1.86878

>  <SCORE.INTRA.DIHEDRAL.0>
2.05999

>  <SCORE.INTRA.POLAR>
0

>  <SCORE.INTRA.POLAR.0>
0

>  <SCORE.INTRA.REPUL>
0

>  <SCORE.INTRA.REPUL.0>
0

>  <SCORE.INTRA.SOLV>
-1.02023

>  <SCORE.INTRA.SOLV.lig_0>
-58.7001

>  <SCORE.INTRA.VDW>
-0.128754

>  <SCORE.INTRA.VDW.0>
-0.401036

>  <SCORE.INTRA.norm>
-0.0983288

>  <SCORE.RESTR>
0

>  <SCORE.RESTR.CAVITY>
0

>  <SCORE.RESTR.norm>
0

>  <SCORE.SYSTEM>
0

>  <SCORE.SYSTEM.CONST>
0

>  <SCORE.SYSTEM.DIHEDRAL>
0

>  <SCORE.SYSTEM.SOLV>
0

>  <SCORE.SYSTEM.norm>
0

>  <SCORE.heavy>
16

>  <SCORE.norm>
-0.593486

>  <RMSD>
19.721

$$$$
ligand
 OpenBabel11021811463D
libRbt.so/2013.1/901 2013/11/27
 16 16  0  0  0  0  0  0  0  0999 V2000
   31.9478   27.0969   42.4139 P   0  0  2  0  0  0  0  0  0  0  0  0
   30.6299   26.4432   42.6097 O   0  0  0  0  0  0  0  0  0  0  0  0
   32.1037   27.5234   40.8664 O   0  5  0  0  0  0  0  0  0  0  0  0
   33.1137   26.0515   42.8202 O   0  0  0  0  0  0  0  0  0  0  0  0
   30.4915   31.0229   46.2645 C   0  0  2  0  0  0  0  0  0  0  0  0
   31.4834   32.0163   45.9189 O   0  0  0  0  0  0  0  0  0  0  0  0
   30.5817   30.6456   47.7717 C   0  0  2  0  0  0  0  0  0  0  0  0
   30.3969   31.8550   48.5949 N   0  0  0  0  0  0  0  0  0  0  0  0
   31.9700   30.0264   48.0447 C   0  0  1  0  0  0  0  0  0  0  0  0
   32.0800   29.6613   49.4308 O   0  0  0  0  0  0  0  0  0  0  0  0
   32.1022   28.7709   47.1578 C   0  0  2  0  0  0  0  0  0  0  0  0
   33.3895   28.1705   47.3804 O   0  0  0  0  0  0  0  0  0  0  0  0
   31.9739   29.2107   45.6669 C   0  0  2  0  0  0  0  0  0  0  0  0
   30.6788   29.8376   45.4270 O   0  0  0  0  0  0  0  0  0  0  0  0
   32.0779   27.9994   44.7260 C   0  0  0  0  0  0  0  0  0  0  0  0
   32.0233   28.4167   43.3505 O   0  0  0  0  0  0  0  0  0  0  0  0
  1  2  1  1  0  0  0
  1  3  1  0  0  0  0
  1  4  2  0  0  0  0
  1 16  1  0  0  0  0
  5  6  1  6  0  0  0
  5  7  1  0  0  0  0
  5 14  1  0  0  0  0
  7  8  1  1  0  0  0
  7  9  1  0  0  0  0
  9 10  1  1  0  0  0
  9 11  1  0  0  0  0
 11 12  1  6  0  0  0
 11 13  1  0  0  0  0
 13 14  1  0  0  0  0
 13 15  1  6  0  0  0
 15 16  1  0  0  0  0
M  CHG  1   3  -1
M  END
>  <CHROM.1>
-177.24821407,-172.92969003,68.86907912,31.72849724,28.86441125,45.23892270
1.39687545,0.99869531,-1.99047705

>  <Name>
ligand

>  <RI>
0

>  <Rbt.Current_Directory>
/home/itssahil/PROJECTS/Mol_Feturizer/New_Systems/rnas/3B4A

>  <Rbt.Executable>
rbdock ($Id: //depot/dev/client3/rdock/2013.1/src/exe/rbdock.cxx#4 $)

>  <Rbt.Library>
libRbt.so (2013.1, Build901 2013/11/27)

>  <Rbt.Parameter_File>
/export/apps/rDock/src/rDock_2013.1_src/data/scripts/dock_solv.prm

>  <Rbt.Receptor>
prm/blind_docking_100.prm

>  <SCORE>
-6.45725

>  <SCORE.INTER>
-5.02273

>  <SCORE.INTER.CONST>
1

>  <SCORE.INTER.POLAR>
0

>  <SCORE.INTER.ROT>
3

>  <SCORE.INTER.SOLV>
6.24724

>  <SCORE.INTER.VDW>
-11.0309

>  <SCORE.INTER.norm>
-0.31392

>  <SCORE.INTRA>
-1.43452

>  <SCORE.INTRA.DIHEDRAL>
-1.65821

>  <SCORE.INTRA.DIHEDRAL.0>
2.05999

>  <SCORE.INTRA.POLAR>
0

>  <SCORE.INTRA.POLAR.0>
0

>  <SCORE.INTRA.REPUL>
0

>  <SCORE.INTRA.REPUL.0>
0

>  <SCORE.INTRA.SOLV>
-0.972838

>  <SCORE.INTRA.SOLV.lig_0>
-58.7001

>  <SCORE.INTRA.VDW>
-0.118994

>  <SCORE.INTRA.VDW.0>
-0.401036

>  <SCORE.INTRA.norm>
-0.0896576

>  <SCORE.RESTR>
0

>  <SCORE.RESTR.CAVITY>
0

>  <SCORE.RESTR.norm>
0

>  <SCORE.SYSTEM>
0

>  <SCORE.SYSTEM.CONST>
0

>  <SCORE.SYSTEM.DIHEDRAL>
0

>  <SCORE.SYSTEM.SOLV>
0

>  <SCORE.SYSTEM.norm>
0

>  <SCORE.heavy>
16

>  <SCORE.norm>
-0.403578

>  <RMSD>
19.785

$$$$
ligand
 OpenBabel11021811463D
libRbt.so/2013.1/901 2013/11/27
 16 16  0  0  0  0  0  0  0  0999 V2000
   37.0821   17.5731   49.2495 P   0  0  2  0  0  0  0  0  0  0  0  0
   36.0626   16.5033   49.3857 O   0  0  0  0  0  0  0  0  0  0  0  0
   38.4736   16.9208   48.7603 O   0  5  0  0  0  0  0  0  0  0  0  0
   37.2815   18.2892   50.6864 O   0  0  0  0  0  0  0  0  0  0  0  0
   34.1369   21.3875   45.8509 C   0  0  2  0  0  0  0  0  0  0  0  0
   35.3692   21.9174   45.3115 O   0  0  0  0  0  0  0  0  0  0  0  0
   33.3454   22.4869   46.6170 C   0  0  2  0  0  0  0  0  0  0  0  0
   33.0592   23.6124   45.7084 N   0  0  0  0  0  0  0  0  0  0  0  0
   34.1998   22.9725   47.8085 C   0  0  1  0  0  0  0  0  0  0  0  0
   33.4898   23.9860   48.5401 O   0  0  0  0  0  0  0  0  0  0  0  0
   34.4645   21.7548   48.7182 C   0  0  2  0  0  0  0  0  0  0  0  0
   35.2662   22.1688   49.8376 O   0  0  0  0  0  0  0  0  0  0  0  0
   35.2313   20.6814   47.8861 C   0  0  2  0  0  0  0  0  0  0  0  0
   34.4384   20.2618   46.7358 O   0  0  0  0  0  0  0  0  0  0  0  0
   35.5112   19.4281   48.7314 C   0  0  0  0  0  0  0  0  0  0  0  0
   36.5712   18.6482   48.1504 O   0  0  0  0  0  0  0  0  0  0  0  0
  1  2  1  1  0  0  0
  1  3  1  0  0  0  0
  1  4  2  0  0  0  0
  1 16  1  0  0  0  0
  5  6  1  1  0  0  0
  5  7  1  0  0  0  0
  5 14  1  0  0  0  0
  7  8  1  6  0  0  0
  7  9  1  0  0  0  0
  9 10  1  1  0  0  0
  9 11  1  0  0  0  0
 11 12  1  1  0  0  0
 11 13  1  0  0  0  0
 13 14  1  0  0  0  0
 13 15  1  1  0  0  0
 15 16  1  0  0  0  0
M  CHG  1   3  -1
M  END
>  <CHROM.1>
-160.68936352,165.58590203,73.44512499,35.43063482,20.26730021,48.12208453
-0.08340204,1.05737617,-1.89165587

>  <Name>
ligand

>  <RI>
0

>  <Rbt.Current_Directory>
/home/itssahil/PROJECTS/Mol_Feturizer/New_Systems/rnas/3B4A

>  <Rbt.Executable>
rbdock ($Id: //depot/dev/client3/rdock/2013.1/src/exe/rbdock.cxx#4 $)

>  <Rbt.Library>
libRbt.so (2013.1, Build901 2013/11/27)

>  <Rbt.Parameter_File>
/export/apps/rDock/src/rDock_2013.1_src/data/scripts/dock_solv.prm

>  <Rbt.Receptor>
prm/blind_docking_100.prm

>  <SCORE>
-8.61984

>  <SCORE.INTER>
-8.21783

>  <SCORE.INTER.CONST>
1

>  <SCORE.INTER.POLAR>
0

>  <SCORE.INTER.ROT>
3

>  <SCORE.INTER.SOLV>
13.4377

>  <SCORE.INTER.VDW>
-15.5578

>  <SCORE.INTER.norm>
-0.513615

>  <SCORE.INTRA>
-0.402008

>  <SCORE.INTRA.DIHEDRAL>
0.447756

>  <SCORE.INTRA.DIHEDRAL.0>
2.05999

>  <SCORE.INTRA.POLAR>
0

>  <SCORE.INTRA.POLAR.0>
0

>  <SCORE.INTRA.REPUL>
0

>  <SCORE.INTRA.REPUL.0>
0

>  <SCORE.INTRA.SOLV>
-0.971878

>  <SCORE.INTRA.SOLV.lig_0>
-58.7001

>  <SCORE.INTRA.VDW>
-0.139947

>  <SCORE.INTRA.VDW.0>
-0.401036

>  <SCORE.INTRA.norm>
-0.0251255

>  <SCORE.RESTR>
0

>  <SCORE.RESTR.CAVITY>
0

>  <SCORE.RESTR.norm>
0

>  <SCORE.SYSTEM>
0

>  <SCORE.SYSTEM.CONST>
0

>  <SCORE.SYSTEM.DIHEDRAL>
0

>  <SCORE.SYSTEM.SOLV>
0

>  <SCORE.SYSTEM.norm>
0

>  <SCORE.heavy>
16

>  <SCORE.norm>
-0.53874

>  <RMSD>
20.183

$$$$
ligand
 OpenBabel11021811463D
libRbt.so/2013.1/901 2013/11/27
 16 16  0  0  0  0  0  0  0  0999 V2000
   31.7009   23.6489   45.7219 P   0  0  2  0  0  0  0  0  0  0  0  0
   30.5588   23.6800   46.6691 O   0  0  0  0  0  0  0  0  0  0  0  0
   32.3728   25.1135   45.6527 O   0  5  0  0  0  0  0  0  0  0  0  0
   31.1546   23.2209   44.2605 O   0  0  0  0  0  0  0  0  0  0  0  0
   34.2872   19.9677   49.2405 C   0  0  2  0  0  0  0  0  0  0  0  0
   34.9528   20.5296   50.3943 O   0  0  0  0  0  0  0  0  0  0  0  0
   35.3149   19.3397   48.2548 C   0  0  2  0  0  0  0  0  0  0  0  0
   36.0918   18.2971   48.9503 N   0  0  0  0  0  0  0  0  0  0  0  0
   36.2579   20.4527   47.7474 C   0  0  1  0  0  0  0  0  0  0  0  0
   37.2160   19.9020   46.8280 O   0  0  0  0  0  0  0  0  0  0  0  0
   35.3893   21.5085   47.0326 C   0  0  2  0  0  0  0  0  0  0  0  0
   36.2353   22.5671   46.5521 O   0  0  0  0  0  0  0  0  0  0  0  0
   34.3645   22.0759   48.0624 C   0  0  2  0  0  0  0  0  0  0  0  0
   33.5081   21.0112   48.5731 O   0  0  0  0  0  0  0  0  0  0  0  0
   33.4507   23.1244   47.4072 C   0  0  0  0  0  0  0  0  0  0  0  0
   32.7930   22.5757   46.2515 O   0  0  0  0  0  0  0  0  0  0  0  0
  1  2  1  1  0  0  0
  1  3  1  0  0  0  0
  1  4  2  0  0  0  0
  1 16  1  0  0  0  0
  5  6  1  1  0  0  0
  5  7  1  0  0  0  0
  5 14  1  0  0  0  0
  7  8  1  1  0  0  0
  7  9  1  0  0  0  0
  9 10  1  6  0  0  0
  9 11  1  0  0  0  0
 11 12  1  1  0  0  0
 11 13  1  0  0  0  0
 13 14  1  0  0  0  0
 13 15  1  6  0  0  0
 15 16  1  0  0  0  0
M  CHG  1   3  -1
M  END
>  <CHROM.1>
55.46099087,172.50499974,-72.34871425,33.88945076,21.88073869,47.19766647
2.34335220,0.36088200,-0.95243509

>  <Name>
ligand

>  <RI>
0

>  <Rbt.Current_Directory>
/home/itssahil/PROJECTS/Mol_Feturizer/New_Systems/rnas/3B4A

>  <Rbt.Executable>
rbdock ($Id: //depot/dev/client3/rdock/2013.1/src/exe/rbdock.cxx#4 $)

>  <Rbt.Library>
libRbt.so (2013.1, Build901 2013/11/27)

>  <Rbt.Parameter_File>
/export/apps/rDock/src/rDock_2013.1_src/data/scripts/dock_solv.prm

>  <Rbt.Receptor>
prm/blind_docking_80.prm

>  <SCORE>
-8.43818

>  <SCORE.INTER>
-7.22388

>  <SCORE.INTER.CONST>
1

>  <SCORE.INTER.POLAR>
0

>  <SCORE.INTER.ROT>
3

>  <SCORE.INTER.SOLV>
15.285

>  <SCORE.INTER.VDW>
-15.5109

>  <SCORE.INTER.norm>
-0.451493

>  <SCORE.INTRA>
-1.2143

>  <SCORE.INTRA.DIHEDRAL>
-1.46928

>  <SCORE.INTRA.DIHEDRAL.0>
2.05999

>  <SCORE.INTRA.POLAR>
0

>  <SCORE.INTRA.POLAR.0>
0

>  <SCORE.INTRA.REPUL>
0

>  <SCORE.INTRA.REPUL.0>
0

>  <SCORE.INTRA.SOLV>
-0.730252

>  <SCORE.INTRA.SOLV.lig_0>
-58.7001

>  <SCORE.INTRA.VDW>
-0.114537

>  <SCORE.INTRA.VDW.0>
-0.401036

>  <SCORE.INTRA.norm>
-0.075894

>  <SCORE.RESTR>
0

>  <SCORE.RESTR.CAVITY>
0

>  <SCORE.RESTR.norm>
0

>  <SCORE.SYSTEM>
0

>  <SCORE.SYSTEM.CONST>
0

>  <SCORE.SYSTEM.DIHEDRAL>
0

>  <SCORE.SYSTEM.SOLV>
0

>  <SCORE.SYSTEM.norm>
0

>  <SCORE.heavy>
16

>  <SCORE.norm>
-0.527387

>  <RMSD>
20.553

$$$$
ligand
 OpenBabel11021811463D
libRbt.so/2013.1/901 2013/11/27
 16 16  0  0  0  0  0  0  0  0999 V2000
   31.4571   29.8010   47.1829 P   0  0  2  0  0  0  0  0  0  0  0  0
   30.0975   30.3008   46.8602 O   0  0  0  0  0  0  0  0  0  0  0  0
   31.4785   29.2659   48.7041 O   0  5  0  0  0  0  0  0  0  0  0  0
   32.5135   31.0137   47.0077 O   0  0  0  0  0  0  0  0  0  0  0  0
   30.9262   26.0393   42.9238 C   0  0  2  0  0  0  0  0  0  0  0  0
   31.9934   25.1536   43.3323 O   0  0  0  0  0  0  0  0  0  0  0  0
   31.1450   26.5411   41.4670 C   0  0  2  0  0  0  0  0  0  0  0  0
   31.2232   25.3859   40.5539 N   0  0  0  0  0  0  0  0  0  0  0  0
   32.4608   27.3481   41.4136 C   0  0  1  0  0  0  0  0  0  0  0  0
   32.6860   27.8309   40.0784 O   0  0  0  0  0  0  0  0  0  0  0  0
   32.3170   28.5374   42.3859 C   0  0  2  0  0  0  0  0  0  0  0  0
   33.5299   29.3092   42.3683 O   0  0  0  0  0  0  0  0  0  0  0  0
   32.0712   27.9702   43.8179 C   0  0  2  0  0  0  0  0  0  0  0  0
   30.8520   27.1699   43.8500 O   0  0  0  0  0  0  0  0  0  0  0  0
   31.8992   29.1081   44.8373 C   0  0  0  0  0  0  0  0  0  0  0  0
   31.8225   28.5859   46.1754 O   0  0  0  0  0  0  0  0  0  0  0  0
  1  2  1  6  0  0  0
  1  3  1  0  0  0  0
  1  4  2  0  0  0  0
  1 16  1  0  0  0  0
  5  6  1  1  0  0  0
  5  7  1  0  0  0  0
  5 14  1  0  0  0  0
  7  8  1  6  0  0  0
  7  9  1  0  0  0  0
  9 10  1  6  0  0  0
  9 11  1  0  0  0  0
 11 12  1  1  0  0  0
 11 13  1  0  0  0  0
 13 14  1  0  0  0  0
 13 15  1  1  0  0  0
 15 16  1  0  0  0  0
M  CHG  1   3  -1
M  END
>  <CHROM.1>
-173.56434290,-172.98757186,65.02024250,31.76361270,28.24748222,44.23816148
1.70500544,1.05281821,0.95893763

>  <Name>
ligand

>  <RI>
0

>  <Rbt.Current_Directory>
/home/itssahil/PROJECTS/Mol_Feturizer/New_Systems/rnas/3B4A

>  <Rbt.Executable>
rbdock ($Id: //depot/dev/client3/rdock/2013.1/src/exe/rbdock.cxx#4 $)

>  <Rbt.Library>
libRbt.so (2013.1, Build901 2013/11/27)

>  <Rbt.Parameter_File>
/export/apps/rDock/src/rDock_2013.1_src/data/scripts/dock_solv.prm

>  <Rbt.Receptor>
prm/blind_docking_80.prm

>  <SCORE>
-8.15466

>  <SCORE.INTER>
-6.69043

>  <SCORE.INTER.CONST>
1

>  <SCORE.INTER.POLAR>
0

>  <SCORE.INTER.ROT>
3

>  <SCORE.INTER.SOLV>
9.5188

>  <SCORE.INTER.VDW>
-13.2332

>  <SCORE.INTER.norm>
-0.418152

>  <SCORE.INTRA>
-1.46422

>  <SCORE.INTRA.DIHEDRAL>
-1.62601

>  <SCORE.INTRA.DIHEDRAL.0>
2.05999

>  <SCORE.INTRA.POLAR>
0

>  <SCORE.INTRA.POLAR.0>
0

>  <SCORE.INTRA.REPUL>
0

>  <SCORE.INTRA.REPUL.0>
0

>  <SCORE.INTRA.SOLV>
-1.02447

>  <SCORE.INTRA.SOLV.lig_0>
-58.7001

>  <SCORE.INTRA.VDW>
-0.138985

>  <SCORE.INTRA.VDW.0>
-0.401036

>  <SCORE.INTRA.norm>
-0.091514

>  <SCORE.RESTR>
0

>  <SCORE.RESTR.CAVITY>
0

>  <SCORE.RESTR.norm>
0

>  <SCORE.SYSTEM>
0

>  <SCORE.SYSTEM.CONST>
0

>  <SCORE.SYSTEM.DIHEDRAL>
0

>  <SCORE.SYSTEM.SOLV>
0

>  <SCORE.SYSTEM.norm>
0

>  <SCORE.heavy>
16

>  <SCORE.norm>
-0.509666

>  <RMSD>
20.640

$$$$
ligand
 OpenBabel11021811463D
libRbt.so/2013.1/901 2013/11/27
 16 16  0  0  0  0  0  0  0  0999 V2000
   34.1900   26.6458   36.6596 P   0  0  2  0  0  0  0  0  0  0  0  0
   35.5869   26.3415   36.2614 O   0  0  0  0  0  0  0  0  0  0  0  0
   33.1844   25.6833   35.8450 O   0  5  0  0  0  0  0  0  0  0  0  0
   33.8751   28.1946   36.3144 O   0  0  0  0  0  0  0  0  0  0  0  0
   30.7534   26.5292   41.8379 C   0  0  2  0  0  0  0  0  0  0  0  0
   31.5189   27.5061   42.5794 O   0  0  0  0  0  0  0  0  0  0  0  0
   31.0719   25.0855   42.3240 C   0  0  2  0  0  0  0  0  0  0  0  0
   30.7774   24.9738   43.7645 N   0  0  0  0  0  0  0  0  0  0  0  0
   32.5664   24.7943   42.0651 C   0  0  1  0  0  0  0  0  0  0  0  0
   32.8888   23.4623   42.4991 O   0  0  0  0  0  0  0  0  0  0  0  0
   32.8101   24.9266   40.5473 C   0  0  2  0  0  0  0  0  0  0  0  0
   34.1969   24.6690   40.2689 O   0  0  0  0  0  0  0  0  0  0  0  0
   32.4456   26.3815   40.1194 C   0  0  2  0  0  0  0  0  0  0  0  0
   31.0447   26.6657   40.4103 O   0  0  0  0  0  0  0  0  0  0  0  0
   32.6483   26.5765   38.6079 C   0  0  0  0  0  0  0  0  0  0  0  0
   34.0273   26.3788   38.2494 O   0  0  0  0  0  0  0  0  0  0  0  0
  1  2  1  6  0  0  0
  1  3  1  0  0  0  0
  1  4  2  0  0  0  0
  1 16  1  0  0  0  0
  5  6  1  1  0  0  0
  5  7  1  0  0  0  0
  5 14  1  0  0  0  0
  7  8  1  1  0  0  0
  7  9  1  0  0  0  0
  9 10  1  6  0  0  0
  9 11  1  0  0  0  0
 11 12  1  1  0  0  0
 11 13  1  0  0  0  0
 13 14  1  0  0  0  0
 13 15  1  6  0  0  0
 15 16  1  0  0  0  0
M  CHG  1   3  -1
M  END
>  <CHROM.1>
-61.98273884,-178.09144510,-175.63819476,32.87416933,25.99371776,39.59673941
-0.96307579,-0.80116606,2.25304528

>  <Name>
ligand

>  <RI>
0

>  <Rbt.Current_Directory>
/home/itssahil/PROJECTS/Mol_Feturizer/New_Systems/rnas/3B4A

>  <Rbt.Executable>
rbdock ($Id: //depot/dev/client3/rdock/2013.1/src/exe/rbdock.cxx#4 $)

>  <Rbt.Library>
libRbt.so (2013.1, Build901 2013/11/27)

>  <Rbt.Parameter_File>
/export/apps/rDock/src/rDock_2013.1_src/data/scripts/dock_solv.prm

>  <Rbt.Receptor>
prm/blind_docking_60.prm

>  <SCORE>
-4.28165

>  <SCORE.INTER>
-3.11242

>  <SCORE.INTER.CONST>
1

>  <SCORE.INTER.POLAR>
0

>  <SCORE.INTER.ROT>
3

>  <SCORE.INTER.SOLV>
9.7293

>  <SCORE.INTER.VDW>
-10.918

>  <SCORE.INTER.norm>
-0.194527

>  <SCORE.INTRA>
-1.17119

>  <SCORE.INTRA.DIHEDRAL>
-1.99469

>  <SCORE.INTRA.DIHEDRAL.0>
2.05999

>  <SCORE.INTRA.POLAR>
0

>  <SCORE.INTRA.POLAR.0>
0

>  <SCORE.INTRA.REPUL>
0

>  <SCORE.INTRA.REPUL.0>
0

>  <SCORE.INTRA.SOLV>
-0.0207023

>  <SCORE.INTRA.SOLV.lig_0>
-58.7001

>  <SCORE.INTRA.VDW>
-0.163493

>  <SCORE.INTRA.VDW.0>
-0.401036

>  <SCORE.INTRA.norm>
-0.0731993

>  <SCORE.RESTR>
0.0019637

>  <SCORE.RESTR.CAVITY>
0.0019637

>  <SCORE.RESTR.norm>
0.000122731

>  <SCORE.SYSTEM>
0

>  <SCORE.SYSTEM.CONST>
0

>  <SCORE.SYSTEM.DIHEDRAL>
0

>  <SCORE.SYSTEM.SOLV>
0

>  <SCORE.SYSTEM.norm>
0

>  <SCORE.heavy>
16

>  <SCORE.norm>
-0.267603

>  <RMSD>
22.732

$$$$
ligand
 OpenBabel11021811463D
libRbt.so/2013.1/901 2013/11/27
 16 16  0  0  0  0  0  0  0  0999 V2000
   34.3072   26.9064   36.2146 P   0  0  2  0  0  0  0  0  0  0  0  0
   35.6969   26.3867   36.2502 O   0  0  0  0  0  0  0  0  0  0  0  0
   33.3768   25.8774   35.3921 O   0  5  0  0  0  0  0  0  0  0  0  0
   34.3096   28.3522   35.4887 O   0  0  0  0  0  0  0  0  0  0  0  0
   31.1989   26.2431   40.9878 C   0  0  2  0  0  0  0  0  0  0  0  0
   31.8107   27.3200   41.7335 O   0  0  0  0  0  0  0  0  0  0  0  0
   31.3186   24.8947   41.7557 C   0  0  2  0  0  0  0  0  0  0  0  0
   30.6805   25.0223   43.0789 N   0  0  0  0  0  0  0  0  0  0  0  0
   32.8151   24.5502   41.9207 C   0  0  1  0  0  0  0  0  0  0  0  0
   32.9567   23.3035   42.6223 O   0  0  0  0  0  0  0  0  0  0  0  0
   33.4236   24.4309   40.5079 C   0  0  2  0  0  0  0  0  0  0  0  0
   34.8221   24.1173   40.6226 O   0  0  0  0  0  0  0  0  0  0  0  0
   33.2458   25.8002   39.7826 C   0  0  2  0  0  0  0  0  0  0  0  0
   31.8320   26.1422   39.6724 O   0  0  0  0  0  0  0  0  0  0  0  0
   33.8163   25.7442   38.3561 C   0  0  0  0  0  0  0  0  0  0  0  0
   33.7576   27.0394   37.7329 O   0  0  0  0  0  0  0  0  0  0  0  0
  1  2  1  1  0  0  0
  1  3  1  0  0  0  0
  1  4  2  0  0  0  0
  1 16  1  0  0  0  0
  5  6  1  1  0  0  0
  5  7  1  0  0  0  0
  5 14  1  0  0  0  0
  7  8  1  1  0  0  0
  7  9  1  0  0  0  0
  9 10  1  6  0  0  0
  9 11  1  0  0  0  0
 11 12  1  1  0  0  0
 11 13  1  0  0  0  0
 13 14  1  0  0  0  0
 13 15  1  6  0  0  0
 15 16  1  0  0  0  0
M  CHG  1   3  -1
M  END
>  <CHROM.1>
-174.91764636,-177.46311474,-58.63154266,33.21187461,25.86624438,39.20492643
1.11115305,0.68545474,-0.93574163

>  <Name>
ligand

>  <RI>
0

>  <Rbt.Current_Directory>
/home/itssahil/PROJECTS/Mol_Feturizer/New_Systems/rnas/3B4A

>  <Rbt.Executable>
rbdock ($Id: //depot/dev/client3/rdock/2013.1/src/exe/rbdock.cxx#4 $)

>  <Rbt.Library>
libRbt.so (2013.1, Build901 2013/11/27)

>  <Rbt.Parameter_File>
/export/apps/rDock/src/rDock_2013.1_src/data/scripts/dock_solv.prm

>  <Rbt.Receptor>
prm/blind_docking_60.prm

>  <SCORE>
-3.74769

>  <SCORE.INTER>
-2.17711

>  <SCORE.INTER.CONST>
1

>  <SCORE.INTER.POLAR>
0

>  <SCORE.INTER.ROT>
3

>  <SCORE.INTER.SOLV>
8.97204

>  <SCORE.INTER.VDW>
-10.0421

>  <SCORE.INTER.norm>
-0.136069

>  <SCORE.INTRA>
-1.57058

>  <SCORE.INTRA.DIHEDRAL>
-1.92837

>  <SCORE.INTRA.DIHEDRAL.0>
2.05999

>  <SCORE.INTRA.POLAR>
0

>  <SCORE.INTRA.POLAR.0>
0

>  <SCORE.INTRA.REPUL>
0

>  <SCORE.INTRA.REPUL.0>
0

>  <SCORE.INTRA.SOLV>
-1.06321

>  <SCORE.INTRA.SOLV.lig_0>
-58.7001

>  <SCORE.INTRA.VDW>
-0.0747952

>  <SCORE.INTRA.VDW.0>
-0.401036

>  <SCORE.INTRA.norm>
-0.0981614

>  <SCORE.RESTR>
0

>  <SCORE.RESTR.CAVITY>
0

>  <SCORE.RESTR.norm>
0

>  <SCORE.SYSTEM>
0

>  <SCORE.SYSTEM.CONST>
0

>  <SCORE.SYSTEM.DIHEDRAL>
0

>  <SCORE.SYSTEM.SOLV>
0

>  <SCORE.SYSTEM.norm>
0

>  <SCORE.heavy>
16

>  <SCORE.norm>
-0.234231

>  <RMSD>
22.795

$$$$
ligand
 OpenBabel11021811463D
libRbt.so/2013.1/901 2013/11/27
 16 16  0  0  0  0  0  0  0  0999 V2000
   33.6834   27.2343   36.3160 P   0  0  2  0  0  0  0  0  0  0  0  0
   32.9258   26.2606   35.4912 O   0  0  0  0  0  0  0  0  0  0  0  0
   33.0334   28.6995   36.1380 O   0  5  0  0  0  0  0  0  0  0  0  0
   35.2240   27.2485   35.8224 O   0  0  0  0  0  0  0  0  0  0  0  0
   32.4383   24.1574   40.9930 C   0  0  2  0  0  0  0  0  0  0  0  0
   32.7271   25.1999   41.9521 O   0  0  0  0  0  0  0  0  0  0  0  0
   33.2882   22.8854   41.2791 C   0  0  2  0  0  0  0  0  0  0  0  0
   33.0146   22.4067   42.6466 N   0  0  0  0  0  0  0  0  0  0  0  0
   34.7830   23.2457   41.1334 C   0  0  1  0  0  0  0  0  0  0  0  0
   35.5937   22.0858   41.3861 O   0  0  0  0  0  0  0  0  0  0  0  0
   35.0043   23.7376   39.6879 C   0  0  2  0  0  0  0  0  0  0  0  0
   36.3877   24.0903   39.5173 O   0  0  0  0  0  0  0  0  0  0  0  0
   34.1059   24.9913   39.4560 C   0  0  2  0  0  0  0  0  0  0  0  0
   32.6987   24.6550   39.6417 O   0  0  0  0  0  0  0  0  0  0  0  0
   34.2646   25.5231   38.0222 C   0  0  0  0  0  0  0  0  0  0  0  0
   33.5943   26.7868   37.8706 O   0  0  0  0  0  0  0  0  0  0  0  0
  1  2  1  6  0  0  0
  1  3  1  0  0  0  0
  1  4  2  0  0  0  0
  1 16  1  0  0  0  0
  5  6  1  1  0  0  0
  5  7  1  0  0  0  0
  5 14  1  0  0  0  0
  7  8  1  1  0  0  0
  7  9  1  0  0  0  0
  9 10  1  6  0  0  0
  9 11  1  0  0  0  0
 11 12  1  1  0  0  0
 11 13  1  0  0  0  0
 13 14  1  0  0  0  0
 13 15  1  6  0  0  0
 15 16  1  0  0  0  0
M  CHG  1   3  -1
M  END
>  <CHROM.1>
-171.42135257,-175.11214024,64.72222313,33.91315914,25.16957911,38.94298741
1.61897837,0.42822770,-0.91963340

>  <Name>
ligand

>  <RI>
0

>  <Rbt.Current_Directory>
/home/itssahil/PROJECTS/Mol_Feturizer/New_Systems/rnas/3B4A

>  <Rbt.Executable>
rbdock ($Id: //depot/dev/client3/rdock/2013.1/src/exe/rbdock.cxx#4 $)

>  <Rbt.Library>
libRbt.so (2013.1, Build901 2013/11/27)

>  <Rbt.Parameter_File>
/export/apps/rDock/src/rDock_2013.1_src/data/scripts/dock_solv.prm

>  <Rbt.Receptor>
prm/blind_docking_60.prm

>  <SCORE>
-2.82192

>  <SCORE.INTER>
-1.34408

>  <SCORE.INTER.CONST>
1

>  <SCORE.INTER.POLAR>
0

>  <SCORE.INTER.ROT>
3

>  <SCORE.INTER.SOLV>
11.1327

>  <SCORE.INTER.VDW>
-10.207

>  <SCORE.INTER.norm>
-0.0840051

>  <SCORE.INTRA>
-1.47784

>  <SCORE.INTRA.DIHEDRAL>
-1.63953

>  <SCORE.INTRA.DIHEDRAL.0>
2.05999

>  <SCORE.INTRA.POLAR>
0

>  <SCORE.INTRA.POLAR.0>
0

>  <SCORE.INTRA.REPUL>
0

>  <SCORE.INTRA.REPUL.0>
0

>  <SCORE.INTRA.SOLV>
-1.03931

>  <SCORE.INTRA.SOLV.lig_0>
-58.7001

>  <SCORE.INTRA.VDW>
-0.13842

>  <SCORE.INTRA.VDW.0>
-0.401036

>  <SCORE.INTRA.norm>
-0.092365

>  <SCORE.RESTR>
0

>  <SCORE.RESTR.CAVITY>
0

>  <SCORE.RESTR.norm>
0

>  <SCORE.SYSTEM>
0

>  <SCORE.SYSTEM.CONST>
0

>  <SCORE.SYSTEM.DIHEDRAL>
0

>  <SCORE.SYSTEM.SOLV>
0

>  <SCORE.SYSTEM.norm>
0

>  <SCORE.heavy>
16

>  <SCORE.norm>
-0.17637

>  <RMSD>
22.824

$$$$
ligand
 OpenBabel11021811463D
libRbt.so/2013.1/901 2013/11/27
 16 16  0  0  0  0  0  0  0  0999 V2000
   33.5729   27.1139   36.2365 P   0  0  2  0  0  0  0  0  0  0  0  0
   32.8498   28.3906   36.0139 O   0  0  0  0  0  0  0  0  0  0  0  0
   35.1176   27.2976   35.8108 O   0  5  0  0  0  0  0  0  0  0  0  0
   32.8837   25.9604   35.3354 O   0  0  0  0  0  0  0  0  0  0  0  0
   32.4212   24.2979   41.0689 C   0  0  2  0  0  0  0  0  0  0  0  0
   32.7492   25.3665   41.9858 O   0  0  0  0  0  0  0  0  0  0  0  0
   33.2467   23.0174   41.3867 C   0  0  2  0  0  0  0  0  0  0  0  0
   32.9849   22.5935   42.7745 N   0  0  0  0  0  0  0  0  0  0  0  0
   34.7466   23.3376   41.2050 C   0  0  1  0  0  0  0  0  0  0  0  0
   35.5350   22.1689   41.4860 O   0  0  0  0  0  0  0  0  0  0  0  0
   34.9553   23.7732   39.7397 C   0  0  2  0  0  0  0  0  0  0  0  0
   36.3433   24.0876   39.5350 O   0  0  0  0  0  0  0  0  0  0  0  0
   34.0817   25.0385   39.4774 C   0  0  2  0  0  0  0  0  0  0  0  0
   32.6705   24.7415   39.6969 O   0  0  0  0  0  0  0  0  0  0  0  0
   34.2288   25.5157   38.0234 C   0  0  0  0  0  0  0  0  0  0  0  0
   33.4857   26.7284   37.8077 O   0  0  0  0  0  0  0  0  0  0  0  0
  1  2  1  6  0  0  0
  1  3  1  0  0  0  0
  1  4  2  0  0  0  0
  1 16  1  0  0  0  0
  5  6  1  1  0  0  0
  5  7  1  0  0  0  0
  5 14  1  0  0  0  0
  7  8  1  1  0  0  0
  7  9  1  0  0  0  0
  9 10  1  6  0  0  0
  9 11  1  0  0  0  0
 11 12  1  1  0  0  0
 11 13  1  0  0  0  0
 13 14  1  0  0  0  0
 13 15  1  6  0  0  0
 15 16  1  0  0  0  0
M  CHG  1   3  -1
M  END
>  <CHROM.1>
-176.51871508,-175.23542359,-177.97025235,33.85233834,25.16977000,38.94794416
1.63286764,0.44108518,-0.97615668

>  <Name>
ligand

>  <RI>
0

>  <Rbt.Current_Directory>
/home/itssahil/PROJECTS/Mol_Feturizer/New_Systems/rnas/3B4A

>  <Rbt.Executable>
rbdock ($Id: //depot/dev/client3/rdock/2013.1/src/exe/rbdock.cxx#4 $)

>  <Rbt.Library>
libRbt.so (2013.1, Build901 2013/11/27)

>  <Rbt.Parameter_File>
/export/apps/rDock/src/rDock_2013.1_src/data/scripts/dock_solv.prm

>  <Rbt.Receptor>
prm/blind_docking_60.prm

>  <SCORE>
-3.27311

>  <SCORE.INTER>
-1.8486

>  <SCORE.INTER.CONST>
1

>  <SCORE.INTER.POLAR>
0

>  <SCORE.INTER.ROT>
3

>  <SCORE.INTER.SOLV>
8.91543

>  <SCORE.INTER.VDW>
-9.80421

>  <SCORE.INTER.norm>
-0.115538

>  <SCORE.INTRA>
-1.42451

>  <SCORE.INTRA.DIHEDRAL>
-1.89454

>  <SCORE.INTRA.DIHEDRAL.0>
2.05999

>  <SCORE.INTRA.POLAR>
0

>  <SCORE.INTRA.POLAR.0>
0

>  <SCORE.INTRA.REPUL>
0

>  <SCORE.INTRA.REPUL.0>
0

>  <SCORE.INTRA.SOLV>
-0.395061

>  <SCORE.INTRA.SOLV.lig_0>
-58.7001

>  <SCORE.INTRA.VDW>
-0.279708

>  <SCORE.INTRA.VDW.0>
-0.401036

>  <SCORE.INTRA.norm>
-0.0890318

>  <SCORE.RESTR>
0

>  <SCORE.RESTR.CAVITY>
0

>  <SCORE.RESTR.norm>
0

>  <SCORE.SYSTEM>
0

>  <SCORE.SYSTEM.CONST>
0

>  <SCORE.SYSTEM.DIHEDRAL>
0

>  <SCORE.SYSTEM.SOLV>
0

>  <SCORE.SYSTEM.norm>
0

>  <SCORE.heavy>
16

>  <SCORE.norm>
-0.20457

>  <RMSD>
22.842

$$$$
ligand
 OpenBabel11021811463D
libRbt.so/2013.1/901 2013/11/27
 16 16  0  0  0  0  0  0  0  0999 V2000
   34.2592   27.1917   35.6134 P   0  0  2  0  0  0  0  0  0  0  0  0
   32.8630   26.9718   35.1612 O   0  0  0  0  0  0  0  0  0  0  0  0
   34.3628   28.6303   36.3353 O   0  5  0  0  0  0  0  0  0  0  0  0
   35.2376   27.1468   34.3258 O   0  0  0  0  0  0  0  0  0  0  0  0
   35.6324   23.5901   39.8936 C   0  0  2  0  0  0  0  0  0  0  0  0
   35.1843   22.4047   39.1978 O   0  0  0  0  0  0  0  0  0  0  0  0
   34.8909   23.7530   41.2522 C   0  0  2  0  0  0  0  0  0  0  0  0
   35.1199   22.5583   42.0856 N   0  0  0  0  0  0  0  0  0  0  0  0
   33.3811   23.9234   40.9747 C   0  0  1  0  0  0  0  0  0  0  0  0
   32.6699   24.0830   42.2138 O   0  0  0  0  0  0  0  0  0  0  0  0
   33.2077   25.1841   40.1024 C   0  0  2  0  0  0  0  0  0  0  0  0
   31.8109   25.3706   39.8168 O   0  0  0  0  0  0  0  0  0  0  0  0
   33.9957   24.9703   38.7735 C   0  0  2  0  0  0  0  0  0  0  0  0
   35.4136   24.7627   39.0460 O   0  0  0  0  0  0  0  0  0  0  0  0
   33.8800   26.2029   37.8619 C   0  0  0  0  0  0  0  0  0  0  0  0
   34.6596   26.0269   36.6659 O   0  0  0  0  0  0  0  0  0  0  0  0
  1  2  1  6  0  0  0
  1  3  1  0  0  0  0
  1  4  2  0  0  0  0
  1 16  1  0  0  0  0
  5  6  1  6  0  0  0
  5  7  1  0  0  0  0
  5 14  1  0  0  0  0
  7  8  1  1  0  0  0
  7  9  1  0  0  0  0
  9 10  1  1  0  0  0
  9 11  1  0  0  0  0
 11 12  1  6  0  0  0
 11 13  1  0  0  0  0
 13 14  1  0  0  0  0
 13 15  1  6  0  0  0
 15 16  1  0  0  0  0
M  CHG  1   3  -1
M  END
>  <CHROM.1>
177.27273428,168.09264000,-67.62145761,34.15741410,25.35822090,38.41542791
-1.55215856,-0.55782222,2.16704919

>  <Name>
ligand

>  <RI>
0

>  <Rbt.Current_Directory>
/home/itssahil/PROJECTS/Mol_Feturizer/New_Systems/rnas/3B4A

>  <Rbt.Executable>
rbdock ($Id: //depot/dev/client3/rdock/2013.1/src/exe/rbdock.cxx#4 $)

>  <Rbt.Library>
libRbt.so (2013.1, Build901 2013/11/27)

>  <Rbt.Parameter_File>
/export/apps/rDock/src/rDock_2013.1_src/data/scripts/dock_solv.prm

>  <Rbt.Receptor>
prm/blind_docking_60.prm

>  <SCORE>
-3.7947

>  <SCORE.INTER>
-2.60897

>  <SCORE.INTER.CONST>
1

>  <SCORE.INTER.POLAR>
0

>  <SCORE.INTER.ROT>
3

>  <SCORE.INTER.SOLV>
9.17721

>  <SCORE.INTER.VDW>
-10.3984

>  <SCORE.INTER.norm>
-0.163061

>  <SCORE.INTRA>
-1.18572

>  <SCORE.INTRA.DIHEDRAL>
-1.26017

>  <SCORE.INTRA.DIHEDRAL.0>
2.05999

>  <SCORE.INTRA.POLAR>
0

>  <SCORE.INTRA.POLAR.0>
0

>  <SCORE.INTRA.REPUL>
0

>  <SCORE.INTRA.REPUL.0>
0

>  <SCORE.INTRA.SOLV>
-1.03637

>  <SCORE.INTRA.SOLV.lig_0>
-58.7001

>  <SCORE.INTRA.VDW>
-0.0374534

>  <SCORE.INTRA.VDW.0>
-0.401036

>  <SCORE.INTRA.norm>
-0.0741078

>  <SCORE.RESTR>
0

>  <SCORE.RESTR.CAVITY>
0

>  <SCORE.RESTR.norm>
0

>  <SCORE.SYSTEM>
0

>  <SCORE.SYSTEM.CONST>
0

>  <SCORE.SYSTEM.DIHEDRAL>
0

>  <SCORE.SYSTEM.SOLV>
0

>  <SCORE.SYSTEM.norm>
0

>  <SCORE.heavy>
16

>  <SCORE.norm>
-0.237169

>  <RMSD>
22.892

$$$$
ligand
 OpenBabel11021811463D
libRbt.so/2013.1/901 2013/11/27
 16 16  0  0  0  0  0  0  0  0999 V2000
   34.6556   27.1141   35.7250 P   0  0  2  0  0  0  0  0  0  0  0  0
   35.9171   27.2899   34.9633 O   0  0  0  0  0  0  0  0  0  0  0  0
   33.4956   26.6143   34.7222 O   0  5  0  0  0  0  0  0  0  0  0  0
   34.2434   28.5322   36.3854 O   0  0  0  0  0  0  0  0  0  0  0  0
   35.2823   23.6480   40.2308 C   0  0  2  0  0  0  0  0  0  0  0  0
   35.1524   22.4103   39.4951 O   0  0  0  0  0  0  0  0  0  0  0  0
   34.2319   23.7285   41.3764 C   0  0  2  0  0  0  0  0  0  0  0  0
   34.4022   22.5787   42.2836 N   0  0  0  0  0  0  0  0  0  0  0  0
   32.8184   23.7072   40.7543 C   0  0  1  0  0  0  0  0  0  0  0  0
   31.8254   23.7873   41.7907 O   0  0  0  0  0  0  0  0  0  0  0  0
   32.7029   24.9292   39.8195 C   0  0  2  0  0  0  0  0  0  0  0  0
   31.3985   24.9378   39.2148 O   0  0  0  0  0  0  0  0  0  0  0  0
   33.7974   24.8042   38.7153 C   0  0  2  0  0  0  0  0  0  0  0  0
   35.1278   24.7772   39.3129 O   0  0  0  0  0  0  0  0  0  0  0  0
   33.7501   26.0052   37.7566 C   0  0  0  0  0  0  0  0  0  0  0  0
   34.8904   26.0021   36.8797 O   0  0  0  0  0  0  0  0  0  0  0  0
  1  2  1  6  0  0  0
  1  3  1  0  0  0  0
  1  4  2  0  0  0  0
  1 16  1  0  0  0  0
  5  6  1  6  0  0  0
  5  7  1  0  0  0  0
  5 14  1  0  0  0  0
  7  8  1  1  0  0  0
  7  9  1  0  0  0  0
  9 10  1  1  0  0  0
  9 11  1  0  0  0  0
 11 12  1  6  0  0  0
 11 13  1  0  0  0  0
 13 14  1  0  0  0  0
 13 15  1  6  0  0  0
 15 16  1  0  0  0  0
M  CHG  1   3  -1
M  END
>  <CHROM.1>
170.49089517,169.71243775,170.02851445,34.03194130,25.24127082,38.42920520
-1.40344429,-0.30199559,2.22449101

>  <Name>
ligand

>  <RI>
0

>  <Rbt.Current_Directory>
/home/itssahil/PROJECTS/Mol_Feturizer/New_Systems/rnas/3B4A

>  <Rbt.Executable>
rbdock ($Id: //depot/dev/client3/rdock/2013.1/src/exe/rbdock.cxx#4 $)

>  <Rbt.Library>
libRbt.so (2013.1, Build901 2013/11/27)

>  <Rbt.Parameter_File>
/export/apps/rDock/src/rDock_2013.1_src/data/scripts/dock_solv.prm

>  <Rbt.Receptor>
prm/blind_docking_60.prm

>  <SCORE>
-4.16563

>  <SCORE.INTER>
-3.28295

>  <SCORE.INTER.CONST>
1

>  <SCORE.INTER.POLAR>
0

>  <SCORE.INTER.ROT>
3

>  <SCORE.INTER.SOLV>
6.8203

>  <SCORE.INTER.VDW>
-10.0621

>  <SCORE.INTER.norm>
-0.205185

>  <SCORE.INTRA>
-0.882675

>  <SCORE.INTRA.DIHEDRAL>
-1.07069

>  <SCORE.INTRA.DIHEDRAL.0>
2.05999

>  <SCORE.INTRA.POLAR>
0

>  <SCORE.INTRA.POLAR.0>
0

>  <SCORE.INTRA.REPUL>
0

>  <SCORE.INTRA.REPUL.0>
0

>  <SCORE.INTRA.SOLV>
-0.394118

>  <SCORE.INTRA.SOLV.lig_0>
-58.7001

>  <SCORE.INTRA.VDW>
-0.150271

>  <SCORE.INTRA.VDW.0>
-0.401036

>  <SCORE.INTRA.norm>
-0.0551672

>  <SCORE.RESTR>
0

>  <SCORE.RESTR.CAVITY>
0

>  <SCORE.RESTR.norm>
0

>  <SCORE.SYSTEM>
0

>  <SCORE.SYSTEM.CONST>
0

>  <SCORE.SYSTEM.DIHEDRAL>
0

>  <SCORE.SYSTEM.SOLV>
0

>  <SCORE.SYSTEM.norm>
0

>  <SCORE.heavy>
16

>  <SCORE.norm>
-0.260352

>  <RMSD>
23.006

$$$$
ligand
 OpenBabel11021811463D
libRbt.so/2013.1/901 2013/11/27
 16 16  0  0  0  0  0  0  0  0999 V2000
   34.4151   27.2155   35.6059 P   0  0  2  0  0  0  0  0  0  0  0  0
   33.1501   26.9027   34.8958 O   0  0  0  0  0  0  0  0  0  0  0  0
   34.2462   28.6076   36.4025 O   0  5  0  0  0  0  0  0  0  0  0  0
   35.6062   27.3411   34.5182 O   0  0  0  0  0  0  0  0  0  0  0  0
   35.5190   23.6876   40.0022 C   0  0  2  0  0  0  0  0  0  0  0  0
   35.3470   22.4629   39.2535 O   0  0  0  0  0  0  0  0  0  0  0  0
   34.5644   23.7289   41.2307 C   0  0  2  0  0  0  0  0  0  0  0  0
   34.8242   22.5641   42.0966 N   0  0  0  0  0  0  0  0  0  0  0  0
   33.1054   23.6979   40.7251 C   0  0  1  0  0  0  0  0  0  0  0  0
   32.1991   23.7417   41.8401 O   0  0  0  0  0  0  0  0  0  0  0  0
   32.8970   24.9362   39.8287 C   0  0  2  0  0  0  0  0  0  0  0  0
   31.5477   24.9365   39.3322 O   0  0  0  0  0  0  0  0  0  0  0  0
   33.8996   24.8504   38.6369 C   0  0  2  0  0  0  0  0  0  0  0  0
   35.2745   24.8323   39.1239 O   0  0  0  0  0  0  0  0  0  0  0  0
   33.7575   26.0693   37.7108 C   0  0  0  0  0  0  0  0  0  0  0  0
   34.7355   26.0248   36.6568 O   0  0  0  0  0  0  0  0  0  0  0  0
  1  2  1  6  0  0  0
  1  3  1  0  0  0  0
  1  4  2  0  0  0  0
  1 16  1  0  0  0  0
  5  6  1  6  0  0  0
  5  7  1  0  0  0  0
  5 14  1  0  0  0  0
  7  8  1  1  0  0  0
  7  9  1  0  0  0  0
  9 10  1  1  0  0  0
  9 11  1  0  0  0  0
 11 12  1  6  0  0  0
 11 13  1  0  0  0  0
 13 14  1  0  0  0  0
 13 15  1  6  0  0  0
 15 16  1  0  0  0  0
M  CHG  1   3  -1
M  END
>  <CHROM.1>
176.68029657,172.50826189,-68.72009986,34.08928286,25.29246921,38.33019911
-1.48508561,-0.35313509,2.21556235

>  <Name>
ligand

>  <RI>
0

>  <Rbt.Current_Directory>
/home/itssahil/PROJECTS/Mol_Feturizer/New_Systems/rnas/3B4A

>  <Rbt.Executable>
rbdock ($Id: //depot/dev/client3/rdock/2013.1/src/exe/rbdock.cxx#4 $)

>  <Rbt.Library>
libRbt.so (2013.1, Build901 2013/11/27)

>  <Rbt.Parameter_File>
/export/apps/rDock/src/rDock_2013.1_src/data/scripts/dock_solv.prm

>  <Rbt.Receptor>
prm/blind_docking_60.prm

>  <SCORE>
-3.70029

>  <SCORE.INTER>
-2.36129

>  <SCORE.INTER.CONST>
1

>  <SCORE.INTER.POLAR>
0

>  <SCORE.INTER.ROT>
3

>  <SCORE.INTER.SOLV>
8.45228

>  <SCORE.INTER.VDW>
-9.99162

>  <SCORE.INTER.norm>
-0.14758

>  <SCORE.INTRA>
-1.339

>  <SCORE.INTRA.DIHEDRAL>
-1.62272

>  <SCORE.INTRA.DIHEDRAL.0>
2.05999

>  <SCORE.INTRA.POLAR>
0

>  <SCORE.INTRA.POLAR.0>
0

>  <SCORE.INTRA.REPUL>
0

>  <SCORE.INTRA.REPUL.0>
0

>  <SCORE.INTRA.SOLV>
-1.00297

>  <SCORE.INTRA.SOLV.lig_0>
-58.7001

>  <SCORE.INTRA.VDW>
-0.0261567

>  <SCORE.INTRA.VDW.0>
-0.401036

>  <SCORE.INTRA.norm>
-0.0836878

>  <SCORE.RESTR>
0

>  <SCORE.RESTR.CAVITY>
0

>  <SCORE.RESTR.norm>
0

>  <SCORE.SYSTEM>
0

>  <SCORE.SYSTEM.CONST>
0

>  <SCORE.SYSTEM.DIHEDRAL>
0

>  <SCORE.SYSTEM.SOLV>
0

>  <SCORE.SYSTEM.norm>
0

>  <SCORE.heavy>
16

>  <SCORE.norm>
-0.231268

>  <RMSD>
23.016

$$$$
ligand
 OpenBabel11021811463D
libRbt.so/2013.1/901 2013/11/27
 16 16  0  0  0  0  0  0  0  0999 V2000
   34.1622   26.4842   36.3576 P   0  0  2  0  0  0  0  0  0  0  0  0
   35.6315   26.4059   36.1638 O   0  0  0  0  0  0  0  0  0  0  0  0
   33.4323   26.4004   34.9218 O   0  5  0  0  0  0  0  0  0  0  0  0
   33.8055   27.8877   37.0789 O   0  0  0  0  0  0  0  0  0  0  0  0
   34.6581   22.9925   41.4646 C   0  0  2  0  0  0  0  0  0  0  0  0
   34.8044   21.7380   40.7610 O   0  0  0  0  0  0  0  0  0  0  0  0
   33.2294   23.1311   42.0660 C   0  0  2  0  0  0  0  0  0  0  0  0
   32.9670   22.0035   42.9791 N   0  0  0  0  0  0  0  0  0  0  0  0
   32.2037   23.1270   40.9112 C   0  0  1  0  0  0  0  0  0  0  0  0
   30.8726   23.2606   41.4374 O   0  0  0  0  0  0  0  0  0  0  0  0
   32.5299   24.3245   39.9948 C   0  0  2  0  0  0  0  0  0  0  0  0
   31.5971   24.3481   38.9009 O   0  0  0  0  0  0  0  0  0  0  0  0
   33.9799   24.1415   39.4501 C   0  0  2  0  0  0  0  0  0  0  0  0
   34.9386   24.0987   40.5487 O   0  0  0  0  0  0  0  0  0  0  0  0
   34.3772   25.3158   38.5407 C   0  0  0  0  0  0  0  0  0  0  0  0
   33.6875   25.2401   37.2806 O   0  0  0  0  0  0  0  0  0  0  0  0
  1  2  1  6  0  0  0
  1  3  1  0  0  0  0
  1  4  2  0  0  0  0
  1 16  1  0  0  0  0
  5  6  1  6  0  0  0
  5  7  1  0  0  0  0
  5 14  1  0  0  0  0
  7  8  1  1  0  0  0
  7  9  1  0  0  0  0
  9 10  1  1  0  0  0
  9 11  1  0  0  0  0
 11 12  1  6  0  0  0
 11 13  1  0  0  0  0
 13 14  1  0  0  0  0
 13 15  1  6  0  0  0
 15 16  1  0  0  0  0
M  CHG  1   3  -1
M  END
>  <CHROM.1>
-72.67636415,-179.06968641,59.10363652,33.60296532,24.61792545,39.01837154
-1.40842704,-0.08991996,2.20255027

>  <Name>
ligand

>  <RI>
0

>  <Rbt.Current_Directory>
/home/itssahil/PROJECTS/Mol_Feturizer/New_Systems/rnas/3B4A

>  <Rbt.Executable>
rbdock ($Id: //depot/dev/client3/rdock/2013.1/src/exe/rbdock.cxx#4 $)

>  <Rbt.Library>
libRbt.so (2013.1, Build901 2013/11/27)

>  <Rbt.Parameter_File>
/export/apps/rDock/src/rDock_2013.1_src/data/scripts/dock_solv.prm

>  <Rbt.Receptor>
prm/blind_docking_60.prm

>  <SCORE>
-2.83568

>  <SCORE.INTER>
-1.52186

>  <SCORE.INTER.CONST>
1

>  <SCORE.INTER.POLAR>
0

>  <SCORE.INTER.ROT>
3

>  <SCORE.INTER.SOLV>
8.68024

>  <SCORE.INTER.VDW>
-9.50798

>  <SCORE.INTER.norm>
-0.0951161

>  <SCORE.INTRA>
-1.31382

>  <SCORE.INTRA.DIHEDRAL>
-1.49543

>  <SCORE.INTRA.DIHEDRAL.0>
2.05999

>  <SCORE.INTRA.POLAR>
0

>  <SCORE.INTRA.POLAR.0>
0

>  <SCORE.INTRA.REPUL>
0

>  <SCORE.INTRA.REPUL.0>
0

>  <SCORE.INTRA.SOLV>
-0.777501

>  <SCORE.INTRA.SOLV.lig_0>
-58.7001

>  <SCORE.INTRA.VDW>
-0.177356

>  <SCORE.INTRA.VDW.0>
-0.401036

>  <SCORE.INTRA.norm>
-0.0821137

>  <SCORE.RESTR>
0

>  <SCORE.RESTR.CAVITY>
0

>  <SCORE.RESTR.norm>
0

>  <SCORE.SYSTEM>
0

>  <SCORE.SYSTEM.CONST>
0

>  <SCORE.SYSTEM.DIHEDRAL>
0

>  <SCORE.SYSTEM.SOLV>
0

>  <SCORE.SYSTEM.norm>
0

>  <SCORE.heavy>
16

>  <SCORE.norm>
-0.17723

>  <RMSD>
23.105

$$$$
ligand
 OpenBabel11021811463D
libRbt.so/2013.1/901 2013/11/27
 16 16  0  0  0  0  0  0  0  0999 V2000
   35.6177   27.0368   35.0964 P   0  0  2  0  0  0  0  0  0  0  0  0
   36.9885   26.5907   34.7436 O   0  0  0  0  0  0  0  0  0  0  0  0
   34.6326   26.7614   33.8494 O   0  5  0  0  0  0  0  0  0  0  0  0
   35.6548   28.6187   35.4336 O   0  0  0  0  0  0  0  0  0  0  0  0
   33.9325   24.7472   40.0123 C   0  0  2  0  0  0  0  0  0  0  0  0
   33.3587   23.5260   39.4931 O   0  0  0  0  0  0  0  0  0  0  0  0
   32.8961   25.5297   40.8699 C   0  0  2  0  0  0  0  0  0  0  0  0
   32.4290   24.6772   41.9785 N   0  0  0  0  0  0  0  0  0  0  0  0
   31.7059   25.9255   39.9686 C   0  0  1  0  0  0  0  0  0  0  0  0
   30.7335   26.6571   40.7339 O   0  0  0  0  0  0  0  0  0  0  0  0
   32.2570   26.8124   38.8328 C   0  0  2  0  0  0  0  0  0  0  0  0
   31.1749   27.1949   37.9668 O   0  0  0  0  0  0  0  0  0  0  0  0
   33.3080   25.9833   38.0323 C   0  0  2  0  0  0  0  0  0  0  0  0
   34.4059   25.5724   38.9004 O   0  0  0  0  0  0  0  0  0  0  0  0
   33.9132   26.8183   36.8921 C   0  0  0  0  0  0  0  0  0  0  0  0
   35.1082   26.1980   36.3855 O   0  0  0  0  0  0  0  0  0  0  0  0
  1  2  1  6  0  0  0
  1  3  1  0  0  0  0
  1  4  2  0  0  0  0
  1 16  1  0  0  0  0
  5  6  1  6  0  0  0
  5  7  1  0  0  0  0
  5 14  1  0  0  0  0
  7  8  1  1  0  0  0
  7  9  1  0  0  0  0
  9 10  1  1  0  0  0
  9 11  1  0  0  0  0
 11 12  1  6  0  0  0
 11 13  1  0  0  0  0
 13 14  1  0  0  0  0
 13 15  1  6  0  0  0
 15 16  1  0  0  0  0
M  CHG  1   3  -1
M  END
>  <CHROM.1>
164.86233465,174.42634554,168.06657219,33.80554087,26.24563531,37.78899410
-0.92998069,-0.53169833,2.21911240

>  <Name>
ligand

>  <RI>
0

>  <Rbt.Current_Directory>
/home/itssahil/PROJECTS/Mol_Feturizer/New_Systems/rnas/3B4A

>  <Rbt.Executable>
rbdock ($Id: //depot/dev/client3/rdock/2013.1/src/exe/rbdock.cxx#4 $)

>  <Rbt.Library>
libRbt.so (2013.1, Build901 2013/11/27)

>  <Rbt.Parameter_File>
/export/apps/rDock/src/rDock_2013.1_src/data/scripts/dock_solv.prm

>  <Rbt.Receptor>
prm/blind_docking_60.prm

>  <SCORE>
-3.69542

>  <SCORE.INTER>
-2.976

>  <SCORE.INTER.CONST>
1

>  <SCORE.INTER.POLAR>
0

>  <SCORE.INTER.ROT>
3

>  <SCORE.INTER.SOLV>
8.25148

>  <SCORE.INTER.VDW>
-10.3345

>  <SCORE.INTER.norm>
-0.186

>  <SCORE.INTRA>
-0.719422

>  <SCORE.INTRA.DIHEDRAL>
-0.896924

>  <SCORE.INTRA.DIHEDRAL.0>
2.05999

>  <SCORE.INTRA.POLAR>
0

>  <SCORE.INTRA.POLAR.0>
0

>  <SCORE.INTRA.REPUL>
0

>  <SCORE.INTRA.REPUL.0>
0

>  <SCORE.INTRA.SOLV>
-0.380244

>  <SCORE.INTRA.SOLV.lig_0>
-58.7001

>  <SCORE.INTRA.VDW>
-0.0808376

>  <SCORE.INTRA.VDW.0>
-0.401036

>  <SCORE.INTRA.norm>
-0.0449639

>  <SCORE.RESTR>
0

>  <SCORE.RESTR.CAVITY>
0

>  <SCORE.RESTR.norm>
0

>  <SCORE.SYSTEM>
0

>  <SCORE.SYSTEM.CONST>
0

>  <SCORE.SYSTEM.DIHEDRAL>
0

>  <SCORE.SYSTEM.SOLV>
0

>  <SCORE.SYSTEM.norm>
0

>  <SCORE.heavy>
16

>  <SCORE.norm>
-0.230964

>  <RMSD>
23.123

$$$$
ligand
 OpenBabel11021811463D
libRbt.so/2013.1/901 2013/11/27
 16 16  0  0  0  0  0  0  0  0999 V2000
   35.8285   26.9801   35.1320 P   0  0  2  0  0  0  0  0  0  0  0  0
   37.3044   26.8536   35.2233 O   0  0  0  0  0  0  0  0  0  0  0  0
   35.3007   26.1325   33.8655 O   0  5  0  0  0  0  0  0  0  0  0  0
   35.4494   28.5422   34.9495 O   0  0  0  0  0  0  0  0  0  0  0  0
   33.1007   24.0705   39.2581 C   0  0  2  0  0  0  0  0  0  0  0  0
   31.7266   23.7072   38.9935 O   0  0  0  0  0  0  0  0  0  0  0  0
   33.1889   25.1252   40.3991 C   0  0  2  0  0  0  0  0  0  0  0  0
   32.5629   24.5846   41.6199 N   0  0  0  0  0  0  0  0  0  0  0  0
   32.4514   26.4051   39.9483 C   0  0  1  0  0  0  0  0  0  0  0  0
   32.5221   27.4016   40.9820 O   0  0  0  0  0  0  0  0  0  0  0  0
   33.1501   26.9199   38.6726 C   0  0  2  0  0  0  0  0  0  0  0  0
   32.4837   28.1101   38.2184 O   0  0  0  0  0  0  0  0  0  0  0  0
   33.0534   25.8098   37.5813 C   0  0  2  0  0  0  0  0  0  0  0  0
   33.7107   24.5883   38.0328 O   0  0  0  0  0  0  0  0  0  0  0  0
   33.7500   26.2524   36.2843 C   0  0  0  0  0  0  0  0  0  0  0  0
   35.1666   26.3948   36.4901 O   0  0  0  0  0  0  0  0  0  0  0  0
  1  2  1  1  0  0  0
  1  3  1  0  0  0  0
  1  4  2  0  0  0  0
  1 16  1  0  0  0  0
  5  6  1  6  0  0  0
  5  7  1  0  0  0  0
  5 14  1  0  0  0  0
  7  8  1  1  0  0  0
  7  9  1  0  0  0  0
  9 10  1  1  0  0  0
  9 11  1  0  0  0  0
 11 12  1  6  0  0  0
 11 13  1  0  0  0  0
 13 14  1  0  0  0  0
 13 15  1  6  0  0  0
 15 16  1  0  0  0  0
M  CHG  1   3  -1
M  END
>  <CHROM.1>
65.79626419,-175.31031092,-167.78173884,33.97544758,26.20635987,37.59608732
-0.18529034,-1.01545334,-3.04976526

>  <Name>
ligand

>  <RI>
0

>  <Rbt.Current_Directory>
/home/itssahil/PROJECTS/Mol_Feturizer/New_Systems/rnas/3B4A

>  <Rbt.Executable>
rbdock ($Id: //depot/dev/client3/rdock/2013.1/src/exe/rbdock.cxx#4 $)

>  <Rbt.Library>
libRbt.so (2013.1, Build901 2013/11/27)

>  <Rbt.Parameter_File>
/export/apps/rDock/src/rDock_2013.1_src/data/scripts/dock_solv.prm

>  <Rbt.Receptor>
prm/blind_docking_60.prm

>  <SCORE>
-4.16863

>  <SCORE.INTER>
-2.99723

>  <SCORE.INTER.CONST>
1

>  <SCORE.INTER.POLAR>
0

>  <SCORE.INTER.ROT>
3

>  <SCORE.INTER.SOLV>
7.87035

>  <SCORE.INTER.VDW>
-10.2216

>  <SCORE.INTER.norm>
-0.187327

>  <SCORE.INTRA>
-1.17994

>  <SCORE.INTRA.DIHEDRAL>
-1.58974

>  <SCORE.INTRA.DIHEDRAL.0>
2.05999

>  <SCORE.INTRA.POLAR>
0

>  <SCORE.INTRA.POLAR.0>
0

>  <SCORE.INTRA.REPUL>
0

>  <SCORE.INTRA.REPUL.0>
0

>  <SCORE.INTRA.SOLV>
-0.189612

>  <SCORE.INTRA.SOLV.lig_0>
-58.7001

>  <SCORE.INTRA.VDW>
-0.290267

>  <SCORE.INTRA.VDW.0>
-0.401036

>  <SCORE.INTRA.norm>
-0.0737464

>  <SCORE.RESTR>
0.0085406

>  <SCORE.RESTR.CAVITY>
0.0085406

>  <SCORE.RESTR.norm>
0.000533787

>  <SCORE.SYSTEM>
0

>  <SCORE.SYSTEM.CONST>
0

>  <SCORE.SYSTEM.DIHEDRAL>
0

>  <SCORE.SYSTEM.SOLV>
0

>  <SCORE.SYSTEM.norm>
0

>  <SCORE.heavy>
16

>  <SCORE.norm>
-0.260539

>  <RMSD>
23.185

$$$$
ligand
 OpenBabel11021811463D
libRbt.so/2013.1/901 2013/11/27
 16 16  0  0  0  0  0  0  0  0999 V2000
   35.2479   26.8391   35.5164 P   0  0  2  0  0  0  0  0  0  0  0  0
   36.7252   26.7235   35.5977 O   0  0  0  0  0  0  0  0  0  0  0  0
   34.7034   25.8712   34.3469 O   0  5  0  0  0  0  0  0  0  0  0  0
   34.8625   28.3756   35.1876 O   0  0  0  0  0  0  0  0  0  0  0  0
   32.6169   24.1773   39.8296 C   0  0  2  0  0  0  0  0  0  0  0  0
   31.2390   23.7992   39.6091 O   0  0  0  0  0  0  0  0  0  0  0  0
   32.7260   25.2663   40.9361 C   0  0  2  0  0  0  0  0  0  0  0  0
   32.1324   24.7595   42.1871 N   0  0  0  0  0  0  0  0  0  0  0  0
   31.9705   26.5283   40.4649 C   0  0  1  0  0  0  0  0  0  0  0  0
   32.0600   27.5557   41.4663 O   0  0  0  0  0  0  0  0  0  0  0  0
   32.6356   27.0079   39.1580 C   0  0  2  0  0  0  0  0  0  0  0  0
   31.9515   28.1805   38.6844 O   0  0  0  0  0  0  0  0  0  0  0  0
   32.5193   25.8650   38.1031 C   0  0  2  0  0  0  0  0  0  0  0  0
   33.1944   24.6611   38.5751 O   0  0  0  0  0  0  0  0  0  0  0  0
   33.1823   26.2720   36.7770 C   0  0  0  0  0  0  0  0  0  0  0  0
   34.6073   26.3891   36.9349 O   0  0  0  0  0  0  0  0  0  0  0  0
  1  2  1  1  0  0  0
  1  3  1  0  0  0  0
  1  4  2  0  0  0  0
  1 16  1  0  0  0  0
  5  6  1  6  0  0  0
  5  7  1  0  0  0  0
  5 14  1  0  0  0  0
  7  8  1  1  0  0  0
  7  9  1  0  0  0  0
  9 10  1  1  0  0  0
  9 11  1  0  0  0  0
 11 12  1  6  0  0  0
 11 13  1  0  0  0  0
 13 14  1  0  0  0  0
 13 15  1  6  0  0  0
 15 16  1  0  0  0  0
M  CHG  1   3  -1
M  END
>  <CHROM.1>
67.50496312,-179.20112707,-169.79018946,33.44650330,26.21533043,38.06961949
-0.18939032,-1.03671699,-3.11400906

>  <Name>
ligand

>  <RI>
0

>  <Rbt.Current_Directory>
/home/itssahil/PROJECTS/Mol_Feturizer/New_Systems/rnas/3B4A

>  <Rbt.Executable>
rbdock ($Id: //depot/dev/client3/rdock/2013.1/src/exe/rbdock.cxx#4 $)

>  <Rbt.Library>
libRbt.so (2013.1, Build901 2013/11/27)

>  <Rbt.Parameter_File>
/export/apps/rDock/src/rDock_2013.1_src/data/scripts/dock_solv.prm

>  <Rbt.Receptor>
prm/blind_docking_60.prm

>  <SCORE>
-3.73937

>  <SCORE.INTER>
-2.48323

>  <SCORE.INTER.CONST>
1

>  <SCORE.INTER.POLAR>
0

>  <SCORE.INTER.ROT>
3

>  <SCORE.INTER.SOLV>
7.7513

>  <SCORE.INTER.VDW>
-9.83925

>  <SCORE.INTER.norm>
-0.155202

>  <SCORE.INTRA>
-1.25782

>  <SCORE.INTRA.DIHEDRAL>
-1.6835

>  <SCORE.INTRA.DIHEDRAL.0>
2.05999

>  <SCORE.INTRA.POLAR>
0

>  <SCORE.INTRA.POLAR.0>
0

>  <SCORE.INTRA.REPUL>
0

>  <SCORE.INTRA.REPUL.0>
0

>  <SCORE.INTRA.SOLV>
-0.213186

>  <SCORE.INTRA.SOLV.lig_0>
-58.7001

>  <SCORE.INTRA.VDW>
-0.30948

>  <SCORE.INTRA.VDW.0>
-0.401036

>  <SCORE.INTRA.norm>
-0.0786138

>  <SCORE.RESTR>
0.00167899

>  <SCORE.RESTR.CAVITY>
0.00167899

>  <SCORE.RESTR.norm>
0.000104937

>  <SCORE.SYSTEM>
0

>  <SCORE.SYSTEM.CONST>
0

>  <SCORE.SYSTEM.DIHEDRAL>
0

>  <SCORE.SYSTEM.SOLV>
0

>  <SCORE.SYSTEM.norm>
0

>  <SCORE.heavy>
16

>  <SCORE.norm>
-0.233711

>  <RMSD>
23.191

$$$$
ligand
 OpenBabel11021811463D
libRbt.so/2013.1/901 2013/11/27
 16 16  0  0  0  0  0  0  0  0999 V2000
   36.0832   27.0731   34.9371 P   0  0  2  0  0  0  0  0  0  0  0  0
   37.5487   26.8479   35.0024 O   0  0  0  0  0  0  0  0  0  0  0  0
   35.5052   26.4152   33.5828 O   0  5  0  0  0  0  0  0  0  0  0  0
   35.7997   28.6659   34.9435 O   0  0  0  0  0  0  0  0  0  0  0  0
   33.0651   23.8910   38.6512 C   0  0  2  0  0  0  0  0  0  0  0  0
   31.6413   23.8003   38.4169 O   0  0  0  0  0  0  0  0  0  0  0  0
   33.3664   24.6940   39.9498 C   0  0  2  0  0  0  0  0  0  0  0  0
   32.7038   24.0449   41.0961 N   0  0  0  0  0  0  0  0  0  0  0  0
   32.8343   26.1335   39.7764 C   0  0  1  0  0  0  0  0  0  0  0  0
   33.1051   26.9023   40.9606 O   0  0  0  0  0  0  0  0  0  0  0  0
   33.5624   26.7562   38.5670 C   0  0  2  0  0  0  0  0  0  0  0  0
   33.0854   28.0982   38.3701 O   0  0  0  0  0  0  0  0  0  0  0  0
   33.2452   25.8916   37.3082 C   0  0  2  0  0  0  0  0  0  0  0  0
   33.7080   24.5213   37.4976 O   0  0  0  0  0  0  0  0  0  0  0  0
   33.9586   26.4485   36.0654 C   0  0  0  0  0  0  0  0  0  0  0  0
   35.3867   26.3720   36.2209 O   0  0  0  0  0  0  0  0  0  0  0  0
  1  2  1  1  0  0  0
  1  3  1  0  0  0  0
  1  4  2  0  0  0  0
  1 16  1  0  0  0  0
  5  6  1  6  0  0  0
  5  7  1  0  0  0  0
  5 14  1  0  0  0  0
  7  8  1  1  0  0  0
  7  9  1  0  0  0  0
  9 10  1  1  0  0  0
  9 11  1  0  0  0  0
 11 12  1  6  0  0  0
 11 13  1  0  0  0  0
 13 14  1  0  0  0  0
 13 15  1  6  0  0  0
 15 16  1  0  0  0  0
M  CHG  1   3  -1
M  END
>  <CHROM.1>
63.76948674,-175.72073961,-172.88936848,34.21875495,26.14210982,37.33615346
0.13031018,-1.01388143,-2.59626706

>  <Name>
ligand

>  <RI>
0

>  <Rbt.Current_Directory>
/home/itssahil/PROJECTS/Mol_Feturizer/New_Systems/rnas/3B4A

>  <Rbt.Executable>
rbdock ($Id: //depot/dev/client3/rdock/2013.1/src/exe/rbdock.cxx#4 $)

>  <Rbt.Library>
libRbt.so (2013.1, Build901 2013/11/27)

>  <Rbt.Parameter_File>
/export/apps/rDock/src/rDock_2013.1_src/data/scripts/dock_solv.prm

>  <Rbt.Receptor>
prm/blind_docking_60.prm

>  <SCORE>
-3.81601

>  <SCORE.INTER>
-2.44611

>  <SCORE.INTER.CONST>
1

>  <SCORE.INTER.POLAR>
0

>  <SCORE.INTER.ROT>
3

>  <SCORE.INTER.SOLV>
8.11197

>  <SCORE.INTER.VDW>
-9.93473

>  <SCORE.INTER.norm>
-0.152882

>  <SCORE.INTRA>
-1.36991

>  <SCORE.INTRA.DIHEDRAL>
-1.83283

>  <SCORE.INTRA.DIHEDRAL.0>
2.05999

>  <SCORE.INTRA.POLAR>
0

>  <SCORE.INTRA.POLAR.0>
0

>  <SCORE.INTRA.REPUL>
0

>  <SCORE.INTRA.REPUL.0>
0

>  <SCORE.INTRA.SOLV>
-0.178821

>  <SCORE.INTRA.SOLV.lig_0>
-58.7001

>  <SCORE.INTRA.VDW>
-0.364079

>  <SCORE.INTRA.VDW.0>
-0.401036

>  <SCORE.INTRA.norm>
-0.0856192

>  <SCORE.RESTR>
0

>  <SCORE.RESTR.CAVITY>
0

>  <SCORE.RESTR.norm>
0

>  <SCORE.SYSTEM>
0

>  <SCORE.SYSTEM.CONST>
0

>  <SCORE.SYSTEM.DIHEDRAL>
0

>  <SCORE.SYSTEM.SOLV>
0

>  <SCORE.SYSTEM.norm>
0

>  <SCORE.heavy>
16

>  <SCORE.norm>
-0.238501

>  <RMSD>
23.258

$$$$
ligand
 OpenBabel11021811463D
libRbt.so/2013.1/901 2013/11/27
 16 16  0  0  0  0  0  0  0  0999 V2000
   33.4399   25.6167   37.1376 P   0  0  2  0  0  0  0  0  0  0  0  0
   34.2553   25.3432   38.3471 O   0  0  0  0  0  0  0  0  0  0  0  0
   34.1357   24.9206   35.8600 O   0  5  0  0  0  0  0  0  0  0  0  0
   33.3542   27.2172   36.9177 O   0  0  0  0  0  0  0  0  0  0  0  0
   31.3918   26.8205   41.8216 C   0  0  2  0  0  0  0  0  0  0  0  0
   32.7747   27.2364   41.8926 O   0  0  0  0  0  0  0  0  0  0  0  0
   31.1955   25.4229   42.4775 C   0  0  2  0  0  0  0  0  0  0  0  0
   31.6395   25.4708   43.8828 N   0  0  0  0  0  0  0  0  0  0  0  0
   32.0302   24.3865   41.6935 C   0  0  1  0  0  0  0  0  0  0  0  0
   31.8629   23.0821   42.2740 O   0  0  0  0  0  0  0  0  0  0  0  0
   31.5203   24.3838   40.2374 C   0  0  2  0  0  0  0  0  0  0  0  0
   32.2819   23.4331   39.4736 O   0  0  0  0  0  0  0  0  0  0  0  0
   31.7168   25.8147   39.6487 C   0  0  2  0  0  0  0  0  0  0  0  0
   30.9634   26.7953   40.4226 O   0  0  0  0  0  0  0  0  0  0  0  0
   31.2090   25.8868   38.1994 C   0  0  0  0  0  0  0  0  0  0  0  0
   31.9582   24.9976   37.3524 O   0  0  0  0  0  0  0  0  0  0  0  0
  1  2  1  1  0  0  0
  1  3  1  0  0  0  0
  1  4  2  0  0  0  0
  1 16  1  0  0  0  0
  5  6  1  6  0  0  0
  5  7  1  0  0  0  0
  5 14  1  0  0  0  0
  7  8  1  1  0  0  0
  7  9  1  0  0  0  0
  9 10  1  1  0  0  0
  9 11  1  0  0  0  0
 11 12  1  6  0  0  0
 11 13  1  0  0  0  0
 13 14  1  0  0  0  0
 13 15  1  6  0  0  0
 15 16  1  0  0  0  0
M  CHG  1   3  -1
M  END
>  <CHROM.1>
-62.32123345,-72.15040159,78.23915013,32.35662008,25.43770983,39.59397947
0.16966110,1.25749710,-0.12351703

>  <Name>
ligand

>  <RI>
0

>  <Rbt.Current_Directory>
/home/itssahil/PROJECTS/Mol_Feturizer/New_Systems/rnas/3B4A

>  <Rbt.Executable>
rbdock ($Id: //depot/dev/client3/rdock/2013.1/src/exe/rbdock.cxx#4 $)

>  <Rbt.Library>
libRbt.so (2013.1, Build901 2013/11/27)

>  <Rbt.Parameter_File>
/export/apps/rDock/src/rDock_2013.1_src/data/scripts/dock_solv.prm

>  <Rbt.Receptor>
prm/blind_docking_60.prm

>  <SCORE>
0.165381

>  <SCORE.INTER>
-0.0847858

>  <SCORE.INTER.CONST>
1

>  <SCORE.INTER.POLAR>
0

>  <SCORE.INTER.ROT>
3

>  <SCORE.INTER.SOLV>
6.60403

>  <SCORE.INTER.VDW>
-7.85787

>  <SCORE.INTER.norm>
-0.00529911

>  <SCORE.INTRA>
0.0742198

>  <SCORE.INTRA.DIHEDRAL>
-0.827316

>  <SCORE.INTRA.DIHEDRAL.0>
2.05999

>  <SCORE.INTRA.POLAR>
0

>  <SCORE.INTRA.POLAR.0>
0

>  <SCORE.INTRA.REPUL>
0

>  <SCORE.INTRA.REPUL.0>
0

>  <SCORE.INTRA.SOLV>
1.12755

>  <SCORE.INTRA.SOLV.lig_0>
-58.7001

>  <SCORE.INTRA.VDW>
-0.0758957

>  <SCORE.INTRA.VDW.0>
-0.401036

>  <SCORE.INTRA.norm>
0.00463874

>  <SCORE.RESTR>
0.175947

>  <SCORE.RESTR.CAVITY>
0.175947

>  <SCORE.RESTR.norm>
0.0109967

>  <SCORE.SYSTEM>
0

>  <SCORE.SYSTEM.CONST>
0

>  <SCORE.SYSTEM.DIHEDRAL>
0

>  <SCORE.SYSTEM.SOLV>
0

>  <SCORE.SYSTEM.norm>
0

>  <SCORE.heavy>
16

>  <SCORE.norm>
0.0103363

>  <RMSD>
23.285

$$$$
ligand
 OpenBabel11021811463D
libRbt.so/2013.1/901 2013/11/27
 16 16  0  0  0  0  0  0  0  0999 V2000
   34.3371   26.4692   35.7599 P   0  0  2  0  0  0  0  0  0  0  0  0
   35.7316   26.4928   36.2670 O   0  0  0  0  0  0  0  0  0  0  0  0
   34.1067   25.1222   34.9033 O   0  5  0  0  0  0  0  0  0  0  0  0
   34.1005   27.7675   34.8242 O   0  0  0  0  0  0  0  0  0  0  0  0
   32.0011   23.8309   40.8686 C   0  0  2  0  0  0  0  0  0  0  0  0
   30.7169   23.5110   40.2867 O   0  0  0  0  0  0  0  0  0  0  0  0
   31.8946   25.0654   41.8103 C   0  0  2  0  0  0  0  0  0  0  0  0
   30.9099   24.7915   42.8732 N   0  0  0  0  0  0  0  0  0  0  0  0
   31.4480   26.2867   40.9769 C   0  0  1  0  0  0  0  0  0  0  0  0
   31.3472   27.4459   41.8211 O   0  0  0  0  0  0  0  0  0  0  0  0
   32.5142   26.5210   39.8865 C   0  0  2  0  0  0  0  0  0  0  0  0
   32.1267   27.6492   39.0839 O   0  0  0  0  0  0  0  0  0  0  0  0
   32.5931   25.2414   38.9981 C   0  0  2  0  0  0  0  0  0  0  0  0
   32.9692   24.0827   39.8004 O   0  0  0  0  0  0  0  0  0  0  0  0
   33.6552   25.4013   37.8981 C   0  0  0  0  0  0  0  0  0  0  0  0
   33.3197   26.4906   37.0206 O   0  0  0  0  0  0  0  0  0  0  0  0
  1  2  1  1  0  0  0
  1  3  1  0  0  0  0
  1  4  2  0  0  0  0
  1 16  1  0  0  0  0
  5  6  1  6  0  0  0
  5  7  1  0  0  0  0
  5 14  1  0  0  0  0
  7  8  1  1  0  0  0
  7  9  1  0  0  0  0
  9 10  1  1  0  0  0
  9 11  1  0  0  0  0
 11 12  1  6  0  0  0
 11 13  1  0  0  0  0
 13 14  1  0  0  0  0
 13 15  1  6  0  0  0
 15 16  1  0  0  0  0
M  CHG  1   3  -1
M  END
>  <CHROM.1>
-61.85161787,-171.35022292,-54.67543594,32.87624821,25.83510997,38.63793615
-0.19877172,-1.10120680,3.14019071

>  <Name>
ligand

>  <RI>
0

>  <Rbt.Current_Directory>
/home/itssahil/PROJECTS/Mol_Feturizer/New_Systems/rnas/3B4A

>  <Rbt.Executable>
rbdock ($Id: //depot/dev/client3/rdock/2013.1/src/exe/rbdock.cxx#4 $)

>  <Rbt.Library>
libRbt.so (2013.1, Build901 2013/11/27)

>  <Rbt.Parameter_File>
/export/apps/rDock/src/rDock_2013.1_src/data/scripts/dock_solv.prm

>  <Rbt.Receptor>
prm/blind_docking_60.prm

>  <SCORE>
-2.62404

>  <SCORE.INTER>
-1.55054

>  <SCORE.INTER.CONST>
1

>  <SCORE.INTER.POLAR>
0

>  <SCORE.INTER.ROT>
3

>  <SCORE.INTER.SOLV>
9.61381

>  <SCORE.INTER.VDW>
-9.8383

>  <SCORE.INTER.norm>
-0.096909

>  <SCORE.INTRA>
-1.07349

>  <SCORE.INTRA.DIHEDRAL>
-1.63628

>  <SCORE.INTRA.DIHEDRAL.0>
2.05999

>  <SCORE.INTRA.POLAR>
0

>  <SCORE.INTRA.POLAR.0>
0

>  <SCORE.INTRA.REPUL>
0

>  <SCORE.INTRA.REPUL.0>
0

>  <SCORE.INTRA.SOLV>
-0.729122

>  <SCORE.INTRA.SOLV.lig_0>
-58.7001

>  <SCORE.INTRA.VDW>
0.10921

>  <SCORE.INTRA.VDW.0>
-0.401036

>  <SCORE.INTRA.norm>
-0.0670932

>  <SCORE.RESTR>
0

>  <SCORE.RESTR.CAVITY>
0

>  <SCORE.RESTR.norm>
0

>  <SCORE.SYSTEM>
0

>  <SCORE.SYSTEM.CONST>
0

>  <SCORE.SYSTEM.DIHEDRAL>
0

>  <SCORE.SYSTEM.SOLV>
0

>  <SCORE.SYSTEM.norm>
0

>  <SCORE.heavy>
16

>  <SCORE.norm>
-0.164002

>  <RMSD>
23.286

$$$$
ligand
 OpenBabel11021811463D
libRbt.so/2013.1/901 2013/11/27
 16 16  0  0  0  0  0  0  0  0999 V2000
   31.4638   27.1734   38.4683 P   0  0  2  0  0  0  0  0  0  0  0  0
   30.0668   27.6723   38.4225 O   0  0  0  0  0  0  0  0  0  0  0  0
   32.3257   28.1001   39.4680 O   0  5  0  0  0  0  0  0  0  0  0  0
   32.0891   27.2366   36.9776 O   0  0  0  0  0  0  0  0  0  0  0  0
   33.0155   22.4073   41.0349 C   0  0  2  0  0  0  0  0  0  0  0  0
   32.0033   21.5025   40.5379 O   0  0  0  0  0  0  0  0  0  0  0  0
   33.0577   22.3964   42.5906 C   0  0  2  0  0  0  0  0  0  0  0  0
   33.3233   21.0266   43.0674 N   0  0  0  0  0  0  0  0  0  0  0  0
   31.6953   22.8886   43.1262 C   0  0  1  0  0  0  0  0  0  0  0  0
   31.7071   22.8955   44.5637 O   0  0  0  0  0  0  0  0  0  0  0  0
   31.4761   24.3205   42.5950 C   0  0  2  0  0  0  0  0  0  0  0  0
   30.2099   24.8097   43.0687 O   0  0  0  0  0  0  0  0  0  0  0  0
   31.4736   24.2677   41.0362 C   0  0  2  0  0  0  0  0  0  0  0  0
   32.7463   23.7573   40.5385 O   0  0  0  0  0  0  0  0  0  0  0  0
   31.2780   25.6710   40.4395 C   0  0  0  0  0  0  0  0  0  0  0  0
   31.4586   25.6474   39.0125 O   0  0  0  0  0  0  0  0  0  0  0  0
  1  2  1  6  0  0  0
  1  3  1  0  0  0  0
  1  4  2  0  0  0  0
  1 16  1  0  0  0  0
  5  6  1  1  0  0  0
  5  7  1  0  0  0  0
  5 14  1  0  0  0  0
  7  8  1  1  0  0  0
  7  9  1  0  0  0  0
  9 10  1  1  0  0  0
  9 11  1  0  0  0  0
 11 12  1  1  0  0  0
 11 13  1  0  0  0  0
 13 14  1  0  0  0  0
 13 15  1  6  0  0  0
 15 16  1  0  0  0  0
M  CHG  1   3  -1
M  END
>  <CHROM.1>
172.11683403,-171.57084033,-77.36791815,31.78920962,24.73620701,40.70721883
-1.81536274,-1.03529230,2.19220411

>  <Name>
ligand

>  <RI>
0

>  <Rbt.Current_Directory>
/home/itssahil/PROJECTS/Mol_Feturizer/New_Systems/rnas/3B4A

>  <Rbt.Executable>
rbdock ($Id: //depot/dev/client3/rdock/2013.1/src/exe/rbdock.cxx#4 $)

>  <Rbt.Library>
libRbt.so (2013.1, Build901 2013/11/27)

>  <Rbt.Parameter_File>
/export/apps/rDock/src/rDock_2013.1_src/data/scripts/dock_solv.prm

>  <Rbt.Receptor>
prm/blind_docking_60.prm

>  <SCORE>
-2.82386

>  <SCORE.INTER>
-1.99238

>  <SCORE.INTER.CONST>
1

>  <SCORE.INTER.POLAR>
0

>  <SCORE.INTER.ROT>
3

>  <SCORE.INTER.SOLV>
10.7115

>  <SCORE.INTER.VDW>
-10.4987

>  <SCORE.INTER.norm>
-0.124523

>  <SCORE.INTRA>
-0.83155

>  <SCORE.INTRA.DIHEDRAL>
-1.03102

>  <SCORE.INTRA.DIHEDRAL.0>
2.05999

>  <SCORE.INTRA.POLAR>
0

>  <SCORE.INTRA.POLAR.0>
0

>  <SCORE.INTRA.REPUL>
0

>  <SCORE.INTRA.REPUL.0>
0

>  <SCORE.INTRA.SOLV>
-0.782824

>  <SCORE.INTRA.SOLV.lig_0>
-58.7001

>  <SCORE.INTRA.VDW>
0.075372

>  <SCORE.INTRA.VDW.0>
-0.401036

>  <SCORE.INTRA.norm>
-0.0519719

>  <SCORE.RESTR>
6.44627e-05

>  <SCORE.RESTR.CAVITY>
6.44627e-05

>  <SCORE.RESTR.norm>
4.02892e-06

>  <SCORE.SYSTEM>
0

>  <SCORE.SYSTEM.CONST>
0

>  <SCORE.SYSTEM.DIHEDRAL>
0

>  <SCORE.SYSTEM.SOLV>
0

>  <SCORE.SYSTEM.norm>
0

>  <SCORE.heavy>
16

>  <SCORE.norm>
-0.176491

>  <RMSD>
23.415

$$$$
ligand
 OpenBabel11021811463D
libRbt.so/2013.1/901 2013/11/27
 16 16  0  0  0  0  0  0  0  0999 V2000
   32.9351   25.1241   35.8542 P   0  0  2  0  0  0  0  0  0  0  0  0
   33.0543   23.7636   36.4350 O   0  0  0  0  0  0  0  0  0  0  0  0
   31.5489   25.2327   35.0372 O   0  5  0  0  0  0  0  0  0  0  0  0
   34.1854   25.3777   34.8594 O   0  0  0  0  0  0  0  0  0  0  0  0
   35.4737   23.4857   40.1696 C   0  0  2  0  0  0  0  0  0  0  0  0
   35.0686   22.2883   39.4678 O   0  0  0  0  0  0  0  0  0  0  0  0
   34.5544   23.7506   41.3971 C   0  0  2  0  0  0  0  0  0  0  0  0
   34.5986   22.5903   42.3059 N   0  0  0  0  0  0  0  0  0  0  0  0
   33.1111   23.9753   40.8953 C   0  0  1  0  0  0  0  0  0  0  0  0
   32.2387   24.2295   42.0093 O   0  0  0  0  0  0  0  0  0  0  0  0
   33.1309   25.1969   39.9531 C   0  0  2  0  0  0  0  0  0  0  0  0
   31.8013   25.4322   39.4591 O   0  0  0  0  0  0  0  0  0  0  0  0
   34.0892   24.8807   38.7639 C   0  0  2  0  0  0  0  0  0  0  0  0
   35.4405   24.6228   39.2491 O   0  0  0  0  0  0  0  0  0  0  0  0
   34.1703   26.0697   37.7927 C   0  0  0  0  0  0  0  0  0  0  0  0
   32.9426   26.2104   37.0563 O   0  0  0  0  0  0  0  0  0  0  0  0
  1  2  1  1  0  0  0
  1  3  1  0  0  0  0
  1  4  2  0  0  0  0
  1 16  1  0  0  0  0
  5  6  1  6  0  0  0
  5  7  1  0  0  0  0
  5 14  1  0  0  0  0
  7  8  1  1  0  0  0
  7  9  1  0  0  0  0
  9 10  1  1  0  0  0
  9 11  1  0  0  0  0
 11 12  1  6  0  0  0
 11 13  1  0  0  0  0
 13 14  1  0  0  0  0
 13 15  1  6  0  0  0
 15 16  1  0  0  0  0
M  CHG  1   3  -1
M  END
>  <CHROM.1>
-71.27820637,-79.42359919,59.02721098,33.56745061,24.56883427,38.51426928
-1.79787465,-0.49426106,1.76190418

>  <Name>
ligand

>  <RI>
0

>  <Rbt.Current_Directory>
/home/itssahil/PROJECTS/Mol_Feturizer/New_Systems/rnas/3B4A

>  <Rbt.Executable>
rbdock ($Id: //depot/dev/client3/rdock/2013.1/src/exe/rbdock.cxx#4 $)

>  <Rbt.Library>
libRbt.so (2013.1, Build901 2013/11/27)

>  <Rbt.Parameter_File>
/export/apps/rDock/src/rDock_2013.1_src/data/scripts/dock_solv.prm

>  <Rbt.Receptor>
prm/blind_docking_60.prm

>  <SCORE>
-1.39249

>  <SCORE.INTER>
-1.49396

>  <SCORE.INTER.CONST>
1

>  <SCORE.INTER.POLAR>
0

>  <SCORE.INTER.ROT>
3

>  <SCORE.INTER.SOLV>
7.3203

>  <SCORE.INTER.VDW>
-9.03607

>  <SCORE.INTER.norm>
-0.0933722

>  <SCORE.INTRA>
0.101466

>  <SCORE.INTRA.DIHEDRAL>
0.0943113

>  <SCORE.INTRA.DIHEDRAL.0>
2.05999

>  <SCORE.INTRA.POLAR>
0

>  <SCORE.INTRA.POLAR.0>
0

>  <SCORE.INTRA.REPUL>
0

>  <SCORE.INTRA.REPUL.0>
0

>  <SCORE.INTRA.SOLV>
0.35977

>  <SCORE.INTRA.SOLV.lig_0>
-58.7001

>  <SCORE.INTRA.VDW>
-0.125574

>  <SCORE.INTRA.VDW.0>
-0.401036

>  <SCORE.INTRA.norm>
0.00634164

>  <SCORE.RESTR>
0

>  <SCORE.RESTR.CAVITY>
0

>  <SCORE.RESTR.norm>
0

>  <SCORE.SYSTEM>
0

>  <SCORE.SYSTEM.CONST>
0

>  <SCORE.SYSTEM.DIHEDRAL>
0

>  <SCORE.SYSTEM.SOLV>
0

>  <SCORE.SYSTEM.norm>
0

>  <SCORE.heavy>
16

>  <SCORE.norm>
-0.0870306

>  <RMSD>
23.444

$$$$
ligand
 OpenBabel11021811463D
libRbt.so/2013.1/901 2013/11/27
 16 16  0  0  0  0  0  0  0  0999 V2000
   33.6447   23.1529   40.9240 P   0  0  2  0  0  0  0  0  0  0  0  0
   34.7783   22.2390   40.6376 O   0  0  0  0  0  0  0  0  0  0  0  0
   33.5925   23.4536   42.5077 O   0  5  0  0  0  0  0  0  0  0  0  0
   32.2703   22.4434   40.4497 O   0  0  0  0  0  0  0  0  0  0  0  0
   34.2140   26.3165   35.6078 C   0  0  2  0  0  0  0  0  0  0  0  0
   35.5646   26.7764   35.8409 O   0  0  0  0  0  0  0  0  0  0  0  0
   33.1857   27.4582   35.8548 C   0  0  2  0  0  0  0  0  0  0  0  0
   33.4930   28.5984   34.9718 N   0  0  0  0  0  0  0  0  0  0  0  0
   33.2762   27.8945   37.3337 C   0  0  1  0  0  0  0  0  0  0  0  0
   32.3308   28.9459   37.5934 O   0  0  0  0  0  0  0  0  0  0  0  0
   32.9459   26.6634   38.2030 C   0  0  2  0  0  0  0  0  0  0  0  0
   33.0280   27.0311   39.5906 O   0  0  0  0  0  0  0  0  0  0  0  0
   33.9906   25.5489   37.8880 C   0  0  2  0  0  0  0  0  0  0  0  0
   33.9324   25.1751   36.4792 O   0  0  0  0  0  0  0  0  0  0  0  0
   33.7064   24.2814   38.7105 C   0  0  0  0  0  0  0  0  0  0  0  0
   33.8709   24.5390   40.1161 O   0  0  0  0  0  0  0  0  0  0  0  0
  1  2  1  6  0  0  0
  1  3  1  0  0  0  0
  1  4  2  0  0  0  0
  1 16  1  0  0  0  0
  5  6  1  1  0  0  0
  5  7  1  0  0  0  0
  5 14  1  0  0  0  0
  7  8  1  6  0  0  0
  7  9  1  0  0  0  0
  9 10  1  6  0  0  0
  9 11  1  0  0  0  0
 11 12  1  1  0  0  0
 11 13  1  0  0  0  0
 13 14  1  0  0  0  0
 13 15  1  1  0  0  0
 15 16  1  0  0  0  0
M  CHG  1   3  -1
M  END
>  <CHROM.1>
-64.56441013,-176.73584708,69.46903731,33.62149241,25.42996169,38.55136554
-1.57166349,1.02210645,-0.80994177

>  <Name>
ligand

>  <RI>
0

>  <Rbt.Current_Directory>
/home/itssahil/PROJECTS/Mol_Feturizer/New_Systems/rnas/3B4A

>  <Rbt.Executable>
rbdock ($Id: //depot/dev/client3/rdock/2013.1/src/exe/rbdock.cxx#4 $)

>  <Rbt.Library>
libRbt.so (2013.1, Build901 2013/11/27)

>  <Rbt.Parameter_File>
/export/apps/rDock/src/rDock_2013.1_src/data/scripts/dock_solv.prm

>  <Rbt.Receptor>
prm/blind_docking_60.prm

>  <SCORE>
-1.65054

>  <SCORE.INTER>
-0.400914

>  <SCORE.INTER.CONST>
1

>  <SCORE.INTER.POLAR>
0

>  <SCORE.INTER.ROT>
3

>  <SCORE.INTER.SOLV>
7.30442

>  <SCORE.INTER.VDW>
-8.30208

>  <SCORE.INTER.norm>
-0.0250571

>  <SCORE.INTRA>
-1.24963

>  <SCORE.INTRA.DIHEDRAL>
-1.78674

>  <SCORE.INTRA.DIHEDRAL.0>
2.05999

>  <SCORE.INTRA.POLAR>
0

>  <SCORE.INTRA.POLAR.0>
0

>  <SCORE.INTRA.REPUL>
0

>  <SCORE.INTRA.REPUL.0>
0

>  <SCORE.INTRA.SOLV>
-0.62768

>  <SCORE.INTRA.SOLV.lig_0>
-58.7001

>  <SCORE.INTRA.VDW>
-0.042421

>  <SCORE.INTRA.VDW.0>
-0.401036

>  <SCORE.INTRA.norm>
-0.0781019

>  <SCORE.RESTR>
0

>  <SCORE.RESTR.CAVITY>
0

>  <SCORE.RESTR.norm>
0

>  <SCORE.SYSTEM>
0

>  <SCORE.SYSTEM.CONST>
0

>  <SCORE.SYSTEM.DIHEDRAL>
0

>  <SCORE.SYSTEM.SOLV>
0

>  <SCORE.SYSTEM.norm>
0

>  <SCORE.heavy>
16

>  <SCORE.norm>
-0.103159

>  <RMSD>
23.490

$$$$
ligand
 OpenBabel11021811463D
libRbt.so/2013.1/901 2013/11/27
 16 16  0  0  0  0  0  0  0  0999 V2000
   29.9778   26.8409   38.7731 P   0  0  2  0  0  0  0  0  0  0  0  0
   28.7313   27.5087   39.2233 O   0  0  0  0  0  0  0  0  0  0  0  0
   31.0124   27.9554   38.2356 O   0  5  0  0  0  0  0  0  0  0  0  0
   29.6143   25.8045   37.5853 O   0  0  0  0  0  0  0  0  0  0  0  0
   31.8138   22.7113   42.2545 C   0  0  2  0  0  0  0  0  0  0  0  0
   32.1385   23.5483   43.3877 O   0  0  0  0  0  0  0  0  0  0  0  0
   33.0465   21.8715   41.8102 C   0  0  2  0  0  0  0  0  0  0  0  0
   33.5104   21.0419   42.9375 N   0  0  0  0  0  0  0  0  0  0  0  0
   34.1682   22.8358   41.3658 C   0  0  1  0  0  0  0  0  0  0  0  0
   35.3197   22.0864   40.9427 O   0  0  0  0  0  0  0  0  0  0  0  0
   33.6236   23.6724   40.1894 C   0  0  2  0  0  0  0  0  0  0  0  0
   34.6413   24.5895   39.7529 O   0  0  0  0  0  0  0  0  0  0  0  0
   32.3765   24.4644   40.6897 C   0  0  2  0  0  0  0  0  0  0  0  0
   31.3394   23.5488   41.1522 O   0  0  0  0  0  0  0  0  0  0  0  0
   31.7706   25.3080   39.5562 C   0  0  0  0  0  0  0  0  0  0  0  0
   30.6335   26.0525   40.0274 O   0  0  0  0  0  0  0  0  0  0  0  0
  1  2  1  1  0  0  0
  1  3  1  0  0  0  0
  1  4  2  0  0  0  0
  1 16  1  0  0  0  0
  5  6  1  1  0  0  0
  5  7  1  0  0  0  0
  5 14  1  0  0  0  0
  7  8  1  1  0  0  0
  7  9  1  0  0  0  0
  9 10  1  6  0  0  0
  9 11  1  0  0  0  0
 11 12  1  1  0  0  0
 11 13  1  0  0  0  0
 13 14  1  0  0  0  0
 13 15  1  6  0  0  0
 15 16  1  0  0  0  0
M  CHG  1   3  -1
M  END
>  <CHROM.1>
-179.10758941,-176.20672925,174.73622627,31.91931968,24.60511021,40.33311305
2.20429016,0.34827100,-0.85342623

>  <Name>
ligand

>  <RI>
0

>  <Rbt.Current_Directory>
/home/itssahil/PROJECTS/Mol_Feturizer/New_Systems/rnas/3B4A

>  <Rbt.Executable>
rbdock ($Id: //depot/dev/client3/rdock/2013.1/src/exe/rbdock.cxx#4 $)

>  <Rbt.Library>
libRbt.so (2013.1, Build901 2013/11/27)

>  <Rbt.Parameter_File>
/export/apps/rDock/src/rDock_2013.1_src/data/scripts/dock_solv.prm

>  <Rbt.Receptor>
prm/blind_docking_60.prm

>  <SCORE>
-5.81308

>  <SCORE.INTER>
-4.37979

>  <SCORE.INTER.CONST>
1

>  <SCORE.INTER.POLAR>
0

>  <SCORE.INTER.ROT>
3

>  <SCORE.INTER.SOLV>
14.9935

>  <SCORE.INTER.VDW>
-13.5177

>  <SCORE.INTER.norm>
-0.273737

>  <SCORE.INTRA>
-1.4333

>  <SCORE.INTRA.DIHEDRAL>
-1.93852

>  <SCORE.INTRA.DIHEDRAL.0>
2.05999

>  <SCORE.INTRA.POLAR>
0

>  <SCORE.INTRA.POLAR.0>
0

>  <SCORE.INTRA.REPUL>
0

>  <SCORE.INTRA.REPUL.0>
0

>  <SCORE.INTRA.SOLV>
-0.395922

>  <SCORE.INTRA.SOLV.lig_0>
-58.7001

>  <SCORE.INTRA.VDW>
-0.266077

>  <SCORE.INTRA.VDW.0>
-0.401036

>  <SCORE.INTRA.norm>
-0.089581

>  <SCORE.RESTR>
0

>  <SCORE.RESTR.CAVITY>
0

>  <SCORE.RESTR.norm>
0

>  <SCORE.SYSTEM>
0

>  <SCORE.SYSTEM.CONST>
0

>  <SCORE.SYSTEM.DIHEDRAL>
0

>  <SCORE.SYSTEM.SOLV>
0

>  <SCORE.SYSTEM.norm>
0

>  <SCORE.heavy>
16

>  <SCORE.norm>
-0.363318

>  <RMSD>
23.627

$$$$
ligand
 OpenBabel11021811463D
libRbt.so/2013.1/901 2013/11/27
 16 16  0  0  0  0  0  0  0  0999 V2000
   29.9821   26.8178   38.7505 P   0  0  2  0  0  0  0  0  0  0  0  0
   28.7440   27.5009   39.2011 O   0  0  0  0  0  0  0  0  0  0  0  0
   31.0454   27.9223   38.2500 O   0  5  0  0  0  0  0  0  0  0  0  0
   29.6118   25.8154   37.5358 O   0  0  0  0  0  0  0  0  0  0  0  0
   31.8435   22.6519   42.2286 C   0  0  2  0  0  0  0  0  0  0  0  0
   32.1331   23.5022   43.3615 O   0  0  0  0  0  0  0  0  0  0  0  0
   33.1053   21.8501   41.7963 C   0  0  2  0  0  0  0  0  0  0  0  0
   33.5865   21.0389   42.9296 N   0  0  0  0  0  0  0  0  0  0  0  0
   34.1994   22.8479   41.3571 C   0  0  1  0  0  0  0  0  0  0  0  0
   35.3771   22.1339   40.9451 O   0  0  0  0  0  0  0  0  0  0  0  0
   33.6376   23.6634   40.1740 C   0  0  2  0  0  0  0  0  0  0  0  0
   34.6292   24.6108   39.7422 O   0  0  0  0  0  0  0  0  0  0  0  0
   32.3625   24.4172   40.6624 C   0  0  2  0  0  0  0  0  0  0  0  0
   31.3513   23.4707   41.1201 O   0  0  0  0  0  0  0  0  0  0  0  0
   31.7390   25.2380   39.5217 C   0  0  0  0  0  0  0  0  0  0  0  0
   30.6065   25.9885   39.9944 O   0  0  0  0  0  0  0  0  0  0  0  0
  1  2  1  1  0  0  0
  1  3  1  0  0  0  0
  1  4  2  0  0  0  0
  1 16  1  0  0  0  0
  5  6  1  1  0  0  0
  5  7  1  0  0  0  0
  5 14  1  0  0  0  0
  7  8  1  1  0  0  0
  7  9  1  0  0  0  0
  9 10  1  6  0  0  0
  9 11  1  0  0  0  0
 11 12  1  1  0  0  0
 11 13  1  0  0  0  0
 13 14  1  0  0  0  0
 13 15  1  6  0  0  0
 15 16  1  0  0  0  0
M  CHG  1   3  -1
M  END
>  <CHROM.1>
-176.85968876,-179.36335575,175.09548696,31.93280729,24.58226436,40.31329836
2.20485314,0.33339683,-0.84817603

>  <Name>
ligand

>  <RI>
0

>  <Rbt.Current_Directory>
/home/itssahil/PROJECTS/Mol_Feturizer/New_Systems/rnas/3B4A

>  <Rbt.Executable>
rbdock ($Id: //depot/dev/client3/rdock/2013.1/src/exe/rbdock.cxx#4 $)

>  <Rbt.Library>
libRbt.so (2013.1, Build901 2013/11/27)

>  <Rbt.Parameter_File>
/export/apps/rDock/src/rDock_2013.1_src/data/scripts/dock_solv.prm

>  <Rbt.Receptor>
prm/blind_docking_60.prm

>  <SCORE>
-5.78752

>  <SCORE.INTER>
-4.33597

>  <SCORE.INTER.CONST>
1

>  <SCORE.INTER.POLAR>
0

>  <SCORE.INTER.ROT>
3

>  <SCORE.INTER.SOLV>
14.8782

>  <SCORE.INTER.VDW>
-13.45

>  <SCORE.INTER.norm>
-0.270998

>  <SCORE.INTRA>
-1.45155

>  <SCORE.INTRA.DIHEDRAL>
-1.97985

>  <SCORE.INTRA.DIHEDRAL.0>
2.05999

>  <SCORE.INTRA.POLAR>
0

>  <SCORE.INTRA.POLAR.0>
0

>  <SCORE.INTRA.REPUL>
0

>  <SCORE.INTRA.REPUL.0>
0

>  <SCORE.INTRA.SOLV>
-0.418887

>  <SCORE.INTRA.SOLV.lig_0>
-58.7001

>  <SCORE.INTRA.VDW>
-0.252182

>  <SCORE.INTRA.VDW.0>
-0.401036

>  <SCORE.INTRA.norm>
-0.090722

>  <SCORE.RESTR>
0

>  <SCORE.RESTR.CAVITY>
0

>  <SCORE.RESTR.norm>
0

>  <SCORE.SYSTEM>
0

>  <SCORE.SYSTEM.CONST>
0

>  <SCORE.SYSTEM.DIHEDRAL>
0

>  <SCORE.SYSTEM.SOLV>
0

>  <SCORE.SYSTEM.norm>
0

>  <SCORE.heavy>
16

>  <SCORE.norm>
-0.36172

>  <RMSD>
23.638

$$$$
ligand
 OpenBabel11021811463D
libRbt.so/2013.1/901 2013/11/27
 16 16  0  0  0  0  0  0  0  0999 V2000
   32.7056   25.3633   34.6558 P   0  0  2  0  0  0  0  0  0  0  0  0
   33.7045   24.2839   34.4569 O   0  0  0  0  0  0  0  0  0  0  0  0
   31.3122   24.9299   33.9690 O   0  5  0  0  0  0  0  0  0  0  0  0
   33.2612   26.7203   33.9722 O   0  0  0  0  0  0  0  0  0  0  0  0
   32.2945   27.4947   39.9534 C   0  0  2  0  0  0  0  0  0  0  0  0
   33.4888   28.0983   40.5007 O   0  0  0  0  0  0  0  0  0  0  0  0
   31.9188   26.1989   40.7293 C   0  0  2  0  0  0  0  0  0  0  0  0
   31.7185   26.5182   42.1549 N   0  0  0  0  0  0  0  0  0  0  0  0
   33.0664   25.1773   40.5717 C   0  0  1  0  0  0  0  0  0  0  0  0
   32.7437   23.9653   41.2741 O   0  0  0  0  0  0  0  0  0  0  0  0
   33.2262   24.8857   39.0651 C   0  0  2  0  0  0  0  0  0  0  0  0
   34.2942   23.9413   38.8791 O   0  0  0  0  0  0  0  0  0  0  0  0
   33.5715   26.2243   38.3428 C   0  0  2  0  0  0  0  0  0  0  0  0
   32.5049   27.2006   38.5354 O   0  0  0  0  0  0  0  0  0  0  0  0
   33.7260   26.0073   36.8286 C   0  0  0  0  0  0  0  0  0  0  0  0
   32.4811   25.5844   36.2450 O   0  0  0  0  0  0  0  0  0  0  0  0
  1  2  1  6  0  0  0
  1  3  1  0  0  0  0
  1  4  2  0  0  0  0
  1 16  1  0  0  0  0
  5  6  1  1  0  0  0
  5  7  1  0  0  0  0
  5 14  1  0  0  0  0
  7  8  1  1  0  0  0
  7  9  1  0  0  0  0
  9 10  1  1  0  0  0
  9 11  1  0  0  0  0
 11 12  1  1  0  0  0
 11 13  1  0  0  0  0
 13 14  1  0  0  0  0
 13 15  1  6  0  0  0
 15 16  1  0  0  0  0
M  CHG  1   3  -1
M  END
>  <CHROM.1>
64.03666141,-179.65953958,62.26354358,32.87208299,25.74207556,37.81070365
1.48876676,1.37450893,-1.60322034

>  <Name>
ligand

>  <RI>
0

>  <Rbt.Current_Directory>
/home/itssahil/PROJECTS/Mol_Feturizer/New_Systems/rnas/3B4A

>  <Rbt.Executable>
rbdock ($Id: //depot/dev/client3/rdock/2013.1/src/exe/rbdock.cxx#4 $)

>  <Rbt.Library>
libRbt.so (2013.1, Build901 2013/11/27)

>  <Rbt.Parameter_File>
/export/apps/rDock/src/rDock_2013.1_src/data/scripts/dock_solv.prm

>  <Rbt.Receptor>
prm/blind_docking_60.prm

>  <SCORE>
-2.38577

>  <SCORE.INTER>
-0.734776

>  <SCORE.INTER.CONST>
1

>  <SCORE.INTER.POLAR>
0

>  <SCORE.INTER.ROT>
3

>  <SCORE.INTER.SOLV>
6.49873

>  <SCORE.INTER.VDW>
-8.25609

>  <SCORE.INTER.norm>
-0.0459235

>  <SCORE.INTRA>
-1.65099

>  <SCORE.INTRA.DIHEDRAL>
-1.9886

>  <SCORE.INTRA.DIHEDRAL.0>
2.05999

>  <SCORE.INTRA.POLAR>
0

>  <SCORE.INTRA.POLAR.0>
0

>  <SCORE.INTRA.REPUL>
0

>  <SCORE.INTRA.REPUL.0>
0

>  <SCORE.INTRA.SOLV>
-0.839359

>  <SCORE.INTRA.SOLV.lig_0>
-58.7001

>  <SCORE.INTRA.VDW>
-0.237014

>  <SCORE.INTRA.VDW.0>
-0.401036

>  <SCORE.INTRA.norm>
-0.103187

>  <SCORE.RESTR>
0

>  <SCORE.RESTR.CAVITY>
0

>  <SCORE.RESTR.norm>
0

>  <SCORE.SYSTEM>
0

>  <SCORE.SYSTEM.CONST>
0

>  <SCORE.SYSTEM.DIHEDRAL>
0

>  <SCORE.SYSTEM.SOLV>
0

>  <SCORE.SYSTEM.norm>
0

>  <SCORE.heavy>
16

>  <SCORE.norm>
-0.14911

>  <RMSD>
23.915

$$$$
ligand
 OpenBabel11021811463D
libRbt.so/2013.1/901 2013/11/27
 16 16  0  0  0  0  0  0  0  0999 V2000
   32.5665   25.8613   34.6481 P   0  0  2  0  0  0  0  0  0  0  0  0
   33.8798   25.3471   34.1863 O   0  0  0  0  0  0  0  0  0  0  0  0
   31.8688   24.7589   35.5963 O   0  5  0  0  0  0  0  0  0  0  0  0
   31.6359   26.1492   33.3565 O   0  0  0  0  0  0  0  0  0  0  0  0
   34.0624   24.8187   39.4995 C   0  0  2  0  0  0  0  0  0  0  0  0
   33.3897   23.6398   39.0014 O   0  0  0  0  0  0  0  0  0  0  0  0
   33.1463   25.6128   40.4754 C   0  0  2  0  0  0  0  0  0  0  0  0
   32.7496   24.7426   41.5978 N   0  0  0  0  0  0  0  0  0  0  0  0
   31.8946   26.0864   39.7045 C   0  0  1  0  0  0  0  0  0  0  0  0
   31.0313   26.8301   40.5810 O   0  0  0  0  0  0  0  0  0  0  0  0
   32.3738   26.9884   38.5482 C   0  0  2  0  0  0  0  0  0  0  0  0
   31.2323   27.4431   37.8016 O   0  0  0  0  0  0  0  0  0  0  0  0
   33.3076   26.1453   37.6263 C   0  0  2  0  0  0  0  0  0  0  0  0
   34.4638   25.6614   38.3726 O   0  0  0  0  0  0  0  0  0  0  0  0
   33.8381   26.9934   36.4588 C   0  0  0  0  0  0  0  0  0  0  0  0
   32.8031   27.2267   35.4874 O   0  0  0  0  0  0  0  0  0  0  0  0
  1  2  1  6  0  0  0
  1  3  1  0  0  0  0
  1  4  2  0  0  0  0
  1 16  1  0  0  0  0
  5  6  1  6  0  0  0
  5  7  1  0  0  0  0
  5 14  1  0  0  0  0
  7  8  1  1  0  0  0
  7  9  1  0  0  0  0
  9 10  1  1  0  0  0
  9 11  1  0  0  0  0
 11 12  1  6  0  0  0
 11 13  1  0  0  0  0
 13 14  1  0  0  0  0
 13 15  1  6  0  0  0
 15 16  1  0  0  0  0
M  CHG  1   3  -1
M  END
>  <CHROM.1>
-73.65750280,-74.65928438,-49.21752972,32.73382574,25.89047352,37.39428319
-1.58701077,-0.79245453,1.63673355

>  <Name>
ligand

>  <RI>
0

>  <Rbt.Current_Directory>
/home/itssahil/PROJECTS/Mol_Feturizer/New_Systems/rnas/3B4A

>  <Rbt.Executable>
rbdock ($Id: //depot/dev/client3/rdock/2013.1/src/exe/rbdock.cxx#4 $)

>  <Rbt.Library>
libRbt.so (2013.1, Build901 2013/11/27)

>  <Rbt.Parameter_File>
/export/apps/rDock/src/rDock_2013.1_src/data/scripts/dock_solv.prm

>  <Rbt.Receptor>
prm/blind_docking_60.prm

>  <SCORE>
-0.743599

>  <SCORE.INTER>
-1.77107

>  <SCORE.INTER.CONST>
1

>  <SCORE.INTER.POLAR>
0

>  <SCORE.INTER.ROT>
3

>  <SCORE.INTER.SOLV>
8.01894

>  <SCORE.INTER.VDW>
-9.45369

>  <SCORE.INTER.norm>
-0.110692

>  <SCORE.INTRA>
1.02747

>  <SCORE.INTRA.DIHEDRAL>
-0.219146

>  <SCORE.INTRA.DIHEDRAL.0>
2.05999

>  <SCORE.INTRA.POLAR>
0

>  <SCORE.INTRA.POLAR.0>
0

>  <SCORE.INTRA.REPUL>
0

>  <SCORE.INTRA.REPUL.0>
0

>  <SCORE.INTRA.SOLV>
2.4794

>  <SCORE.INTRA.SOLV.lig_0>
-58.7001

>  <SCORE.INTRA.VDW>
-0.102657

>  <SCORE.INTRA.VDW.0>
-0.401036

>  <SCORE.INTRA.norm>
0.0642169

>  <SCORE.RESTR>
0

>  <SCORE.RESTR.CAVITY>
0

>  <SCORE.RESTR.norm>
0

>  <SCORE.SYSTEM>
0

>  <SCORE.SYSTEM.CONST>
0

>  <SCORE.SYSTEM.DIHEDRAL>
0

>  <SCORE.SYSTEM.SOLV>
0

>  <SCORE.SYSTEM.norm>
0

>  <SCORE.heavy>
16

>  <SCORE.norm>
-0.046475

>  <RMSD>
24.158

$$$$
ligand
 OpenBabel11021811463D
libRbt.so/2013.1/901 2013/11/27
 16 16  0  0  0  0  0  0  0  0999 V2000
   32.7976   25.9424   34.1747 P   0  0  2  0  0  0  0  0  0  0  0  0
   31.9372   26.9449   33.4985 O   0  0  0  0  0  0  0  0  0  0  0  0
   33.5651   25.0643   33.0607 O   0  5  0  0  0  0  0  0  0  0  0  0
   31.8651   24.9860   35.0874 O   0  0  0  0  0  0  0  0  0  0  0  0
   33.9702   25.0060   38.9103 C   0  0  2  0  0  0  0  0  0  0  0  0
   33.2372   23.8513   38.4418 O   0  0  0  0  0  0  0  0  0  0  0  0
   33.2297   25.6940   40.0937 C   0  0  2  0  0  0  0  0  0  0  0  0
   33.0501   24.7270   41.1923 N   0  0  0  0  0  0  0  0  0  0  0  0
   31.8548   26.1908   39.5956 C   0  0  1  0  0  0  0  0  0  0  0  0
   31.1494   26.8380   40.6681 O   0  0  0  0  0  0  0  0  0  0  0  0
   32.1091   27.1946   38.4519 C   0  0  2  0  0  0  0  0  0  0  0  0
   30.8472   27.6738   37.9568 O   0  0  0  0  0  0  0  0  0  0  0  0
   32.8773   26.4540   37.3143 C   0  0  2  0  0  0  0  0  0  0  0  0
   34.1540   25.9462   37.8042 O   0  0  0  0  0  0  0  0  0  0  0  0
   33.1808   27.4064   36.1462 C   0  0  0  0  0  0  0  0  0  0  0  0
   33.8818   26.7172   35.0960 O   0  0  0  0  0  0  0  0  0  0  0  0
  1  2  1  6  0  0  0
  1  3  1  0  0  0  0
  1  4  2  0  0  0  0
  1 16  1  0  0  0  0
  5  6  1  6  0  0  0
  5  7  1  0  0  0  0
  5 14  1  0  0  0  0
  7  8  1  1  0  0  0
  7  9  1  0  0  0  0
  9 10  1  1  0  0  0
  9 11  1  0  0  0  0
 11 12  1  6  0  0  0
 11 13  1  0  0  0  0
 13 14  1  0  0  0  0
 13 15  1  6  0  0  0
 15 16  1  0  0  0  0
M  CHG  1   3  -1
M  END
>  <CHROM.1>
-179.64026984,82.94082402,65.16912352,32.72500216,26.02968228,37.04356542
-1.47479017,-0.87171246,1.67827061

>  <Name>
ligand

>  <RI>
0

>  <Rbt.Current_Directory>
/home/itssahil/PROJECTS/Mol_Feturizer/New_Systems/rnas/3B4A

>  <Rbt.Executable>
rbdock ($Id: //depot/dev/client3/rdock/2013.1/src/exe/rbdock.cxx#4 $)

>  <Rbt.Library>
libRbt.so (2013.1, Build901 2013/11/27)

>  <Rbt.Parameter_File>
/export/apps/rDock/src/rDock_2013.1_src/data/scripts/dock_solv.prm

>  <Rbt.Receptor>
prm/blind_docking_60.prm

>  <SCORE>
-2.33432

>  <SCORE.INTER>
-3.01697

>  <SCORE.INTER.CONST>
1

>  <SCORE.INTER.POLAR>
0

>  <SCORE.INTER.ROT>
3

>  <SCORE.INTER.SOLV>
5.58417

>  <SCORE.INTER.VDW>
-9.47271

>  <SCORE.INTER.norm>
-0.188561

>  <SCORE.INTRA>
0.682655

>  <SCORE.INTRA.DIHEDRAL>
0.286322

>  <SCORE.INTRA.DIHEDRAL.0>
2.05999

>  <SCORE.INTRA.POLAR>
0

>  <SCORE.INTRA.POLAR.0>
0

>  <SCORE.INTRA.REPUL>
0

>  <SCORE.INTRA.REPUL.0>
0

>  <SCORE.INTRA.SOLV>
1.6905

>  <SCORE.INTRA.SOLV.lig_0>
-58.7001

>  <SCORE.INTRA.VDW>
-0.305758

>  <SCORE.INTRA.VDW.0>
-0.401036

>  <SCORE.INTRA.norm>
0.0426659

>  <SCORE.RESTR>
0

>  <SCORE.RESTR.CAVITY>
0

>  <SCORE.RESTR.norm>
0

>  <SCORE.SYSTEM>
0

>  <SCORE.SYSTEM.CONST>
0

>  <SCORE.SYSTEM.DIHEDRAL>
0

>  <SCORE.SYSTEM.SOLV>
0

>  <SCORE.SYSTEM.norm>
0

>  <SCORE.heavy>
16

>  <SCORE.norm>
-0.145895

>  <RMSD>
24.374

$$$$
ligand
 OpenBabel11021811463D
libRbt.so/2013.1/901 2013/11/27
 16 16  0  0  0  0  0  0  0  0999 V2000
   29.9015   26.8232   38.9792 P   0  0  2  0  0  0  0  0  0  0  0  0
   28.6363   27.5063   39.3468 O   0  0  0  0  0  0  0  0  0  0  0  0
   30.7270   26.4775   40.3209 O   0  5  0  0  0  0  0  0  0  0  0  0
   30.7697   27.8074   38.0332 O   0  0  0  0  0  0  0  0  0  0  0  0
   31.3221   22.5175   40.6308 C   0  0  2  0  0  0  0  0  0  0  0  0
   31.4733   23.4836   41.6957 O   0  0  0  0  0  0  0  0  0  0  0  0
   32.6968   21.9050   40.2343 C   0  0  2  0  0  0  0  0  0  0  0  0
   33.3117   21.2683   41.4136 N   0  0  0  0  0  0  0  0  0  0  0  0
   33.6084   23.0347   39.7069 C   0  0  1  0  0  0  0  0  0  0  0  0
   34.8858   22.4963   39.3260 O   0  0  0  0  0  0  0  0  0  0  0  0
   32.9132   23.6588   38.4791 C   0  0  2  0  0  0  0  0  0  0  0  0
   33.7321   24.7226   37.9645 O   0  0  0  0  0  0  0  0  0  0  0  0
   31.5336   24.2259   38.9352 C   0  0  2  0  0  0  0  0  0  0  0  0
   30.6953   23.1617   39.4760 O   0  0  0  0  0  0  0  0  0  0  0  0
   30.7768   24.8481   37.7504 C   0  0  0  0  0  0  0  0  0  0  0  0
   29.5481   25.4521   38.1916 O   0  0  0  0  0  0  0  0  0  0  0  0
  1  2  1  1  0  0  0
  1  3  1  0  0  0  0
  1  4  2  0  0  0  0
  1 16  1  0  0  0  0
  5  6  1  1  0  0  0
  5  7  1  0  0  0  0
  5 14  1  0  0  0  0
  7  8  1  1  0  0  0
  7  9  1  0  0  0  0
  9 10  1  6  0  0  0
  9 11  1  0  0  0  0
 11 12  1  1  0  0  0
 11 13  1  0  0  0  0
 13 14  1  0  0  0  0
 13 15  1  6  0  0  0
 15 16  1  0  0  0  0
M  CHG  1   3  -1
M  END
>  <CHROM.1>
-175.98573057,73.47296527,175.68433585,31.50297381,24.57974148,39.36567455
2.32596231,0.52992767,-0.72323025

>  <Name>
ligand

>  <RI>
0

>  <Rbt.Current_Directory>
/home/itssahil/PROJECTS/Mol_Feturizer/New_Systems/rnas/3B4A

>  <Rbt.Executable>
rbdock ($Id: //depot/dev/client3/rdock/2013.1/src/exe/rbdock.cxx#4 $)

>  <Rbt.Library>
libRbt.so (2013.1, Build901 2013/11/27)

>  <Rbt.Parameter_File>
/export/apps/rDock/src/rDock_2013.1_src/data/scripts/dock_solv.prm

>  <Rbt.Receptor>
prm/blind_docking_60.prm

>  <SCORE>
-5.03656

>  <SCORE.INTER>
-5.87712

>  <SCORE.INTER.CONST>
1

>  <SCORE.INTER.POLAR>
0

>  <SCORE.INTER.ROT>
3

>  <SCORE.INTER.SOLV>
11.2678

>  <SCORE.INTER.VDW>
-13.274

>  <SCORE.INTER.norm>
-0.36732

>  <SCORE.INTRA>
0.84056

>  <SCORE.INTRA.DIHEDRAL>
-1.10871

>  <SCORE.INTRA.DIHEDRAL.0>
2.05999

>  <SCORE.INTRA.POLAR>
0

>  <SCORE.INTRA.POLAR.0>
0

>  <SCORE.INTRA.REPUL>
0

>  <SCORE.INTRA.REPUL.0>
0

>  <SCORE.INTRA.SOLV>
3.27024

>  <SCORE.INTRA.SOLV.lig_0>
-58.7001

>  <SCORE.INTRA.VDW>
-0.240207

>  <SCORE.INTRA.VDW.0>
-0.401036

>  <SCORE.INTRA.norm>
0.052535

>  <SCORE.RESTR>
0

>  <SCORE.RESTR.CAVITY>
0

>  <SCORE.RESTR.norm>
0

>  <SCORE.SYSTEM>
0

>  <SCORE.SYSTEM.CONST>
0

>  <SCORE.SYSTEM.DIHEDRAL>
0

>  <SCORE.SYSTEM.SOLV>
0

>  <SCORE.SYSTEM.norm>
0

>  <SCORE.heavy>
16

>  <SCORE.norm>
-0.314785

>  <RMSD>
24.514

$$$$
ligand
 OpenBabel11021811463D
libRbt.so/2013.1/901 2013/11/27
 16 16  0  0  0  0  0  0  0  0999 V2000
   31.5294   25.8394   42.0386 P   0  0  2  0  0  0  0  0  0  0  0  0
   30.3438   26.6670   42.3729 O   0  0  0  0  0  0  0  0  0  0  0  0
   31.4529   24.4494   42.8530 O   0  5  0  0  0  0  0  0  0  0  0  0
   32.8658   26.6513   42.4537 O   0  0  0  0  0  0  0  0  0  0  0  0
   33.3162   26.2836   36.6071 C   0  0  2  0  0  0  0  0  0  0  0  0
   32.9269   27.4756   35.8874 O   0  0  0  0  0  0  0  0  0  0  0  0
   32.6073   25.0255   36.0270 C   0  0  2  0  0  0  0  0  0  0  0  0
   32.9406   24.8866   34.5974 N   0  0  0  0  0  0  0  0  0  0  0  0
   31.0818   25.1924   36.2012 C   0  0  1  0  0  0  0  0  0  0  0  0
   30.3997   24.0397   35.6792 O   0  0  0  0  0  0  0  0  0  0  0  0
   30.7984   25.3324   37.7113 C   0  0  2  0  0  0  0  0  0  0  0  0
   29.3842   25.4978   37.9116 O   0  0  0  0  0  0  0  0  0  0  0  0
   31.5579   26.5895   38.2361 C   0  0  2  0  0  0  0  0  0  0  0  0
   32.9942   26.4457   38.0254 O   0  0  0  0  0  0  0  0  0  0  0  0
   31.3328   26.7770   39.7453 C   0  0  0  0  0  0  0  0  0  0  0  0
   31.5261   25.5363   40.4471 O   0  0  0  0  0  0  0  0  0  0  0  0
  1  2  1  1  0  0  0
  1  3  1  0  0  0  0
  1  4  2  0  0  0  0
  1 16  1  0  0  0  0
  5  6  1  6  0  0  0
  5  7  1  0  0  0  0
  5 14  1  0  0  0  0
  7  8  1  6  0  0  0
  7  9  1  0  0  0  0
  9 10  1  1  0  0  0
  9 11  1  0  0  0  0
 11 12  1  6  0  0  0
 11 13  1  0  0  0  0
 13 14  1  0  0  0  0
 13 15  1  1  0  0  0
 15 16  1  0  0  0  0
M  CHG  1   3  -1
M  END
>  <CHROM.1>
47.32705671,170.39783558,49.57823739,31.66372438,25.80169113,38.87295946
-1.67208877,-0.56527951,-1.68950032

>  <Name>
ligand

>  <RI>
0

>  <Rbt.Current_Directory>
/home/itssahil/PROJECTS/Mol_Feturizer/New_Systems/rnas/3B4A

>  <Rbt.Executable>
rbdock ($Id: //depot/dev/client3/rdock/2013.1/src/exe/rbdock.cxx#4 $)

>  <Rbt.Library>
libRbt.so (2013.1, Build901 2013/11/27)

>  <Rbt.Parameter_File>
/export/apps/rDock/src/rDock_2013.1_src/data/scripts/dock_solv.prm

>  <Rbt.Receptor>
prm/blind_docking_60.prm

>  <SCORE>
-3.38245

>  <SCORE.INTER>
-2.56914

>  <SCORE.INTER.CONST>
1

>  <SCORE.INTER.POLAR>
0

>  <SCORE.INTER.ROT>
3

>  <SCORE.INTER.SOLV>
4.58103

>  <SCORE.INTER.VDW>
-8.83977

>  <SCORE.INTER.norm>
-0.160571

>  <SCORE.INTRA>
-0.813717

>  <SCORE.INTRA.DIHEDRAL>
-0.881885

>  <SCORE.INTRA.DIHEDRAL.0>
2.05999

>  <SCORE.INTRA.POLAR>
0

>  <SCORE.INTRA.POLAR.0>
0

>  <SCORE.INTRA.REPUL>
0

>  <SCORE.INTRA.REPUL.0>
0

>  <SCORE.INTRA.SOLV>
-0.88662

>  <SCORE.INTRA.SOLV.lig_0>
-58.7001

>  <SCORE.INTRA.VDW>
0.0705357

>  <SCORE.INTRA.VDW.0>
-0.401036

>  <SCORE.INTRA.norm>
-0.0508573

>  <SCORE.RESTR>
0.000409282

>  <SCORE.RESTR.CAVITY>
0.000409282

>  <SCORE.RESTR.norm>
2.55801e-05

>  <SCORE.SYSTEM>
0

>  <SCORE.SYSTEM.CONST>
0

>  <SCORE.SYSTEM.DIHEDRAL>
0

>  <SCORE.SYSTEM.SOLV>
0

>  <SCORE.SYSTEM.norm>
0

>  <SCORE.heavy>
16

>  <SCORE.norm>
-0.211403

>  <RMSD>
24.525

$$$$
ligand
 OpenBabel11021811463D
libRbt.so/2013.1/901 2013/11/27
 16 16  0  0  0  0  0  0  0  0999 V2000
   33.8776   21.1933   38.4751 P   0  0  2  0  0  0  0  0  0  0  0  0
   34.7625   21.5375   39.6158 O   0  0  0  0  0  0  0  0  0  0  0  0
   32.6774   20.2524   38.9998 O   0  5  0  0  0  0  0  0  0  0  0  0
   34.7475   20.4099   37.3584 O   0  0  0  0  0  0  0  0  0  0  0  0
   30.4819   26.3717   39.0102 C   0  0  2  0  0  0  0  0  0  0  0  0
   29.5247   26.0600   37.9725 O   0  0  0  0  0  0  0  0  0  0  0  0
   31.5229   27.4163   38.5130 C   0  0  2  0  0  0  0  0  0  0  0  0
   30.8250   28.6415   38.0816 N   0  0  0  0  0  0  0  0  0  0  0  0
   32.3069   26.8089   37.3289 C   0  0  1  0  0  0  0  0  0  0  0  0
   33.2824   27.7509   36.8521 O   0  0  0  0  0  0  0  0  0  0  0  0
   33.0116   25.5357   37.8417 C   0  0  2  0  0  0  0  0  0  0  0  0
   33.7474   24.9373   36.7611 O   0  0  0  0  0  0  0  0  0  0  0  0
   31.9199   24.5451   38.3513 C   0  0  2  0  0  0  0  0  0  0  0  0
   31.1520   25.1431   39.4378 O   0  0  0  0  0  0  0  0  0  0  0  0
   32.5584   23.2571   38.8962 C   0  0  0  0  0  0  0  0  0  0  0  0
   33.2647   22.5590   37.8555 O   0  0  0  0  0  0  0  0  0  0  0  0
  1  2  1  1  0  0  0
  1  3  1  0  0  0  0
  1  4  2  0  0  0  0
  1 16  1  0  0  0  0
  5  6  1  6  0  0  0
  5  7  1  0  0  0  0
  5 14  1  0  0  0  0
  7  8  1  6  0  0  0
  7  9  1  0  0  0  0
  9 10  1  1  0  0  0
  9 11  1  0  0  0  0
 11 12  1  6  0  0  0
 11 13  1  0  0  0  0
 13 14  1  0  0  0  0
 13 15  1  1  0  0  0
 15 16  1  0  0  0  0
M  CHG  1   3  -1
M  END
>  <CHROM.1>
-62.86977009,-178.36084198,-57.72884414,32.61171393,24.21051572,38.22088314
1.11835522,-0.49257056,2.83654893

>  <Name>
ligand

>  <RI>
0

>  <Rbt.Current_Directory>
/home/itssahil/PROJECTS/Mol_Feturizer/New_Systems/rnas/3B4A

>  <Rbt.Executable>
rbdock ($Id: //depot/dev/client3/rdock/2013.1/src/exe/rbdock.cxx#4 $)

>  <Rbt.Library>
libRbt.so (2013.1, Build901 2013/11/27)

>  <Rbt.Parameter_File>
/export/apps/rDock/src/rDock_2013.1_src/data/scripts/dock_solv.prm

>  <Rbt.Receptor>
prm/blind_docking_60.prm

>  <SCORE>
-2.05728

>  <SCORE.INTER>
-0.725009

>  <SCORE.INTER.CONST>
1

>  <SCORE.INTER.POLAR>
0

>  <SCORE.INTER.ROT>
3

>  <SCORE.INTER.SOLV>
15.3086

>  <SCORE.INTER.VDW>
-11.1862

>  <SCORE.INTER.norm>
-0.0453131

>  <SCORE.INTRA>
-1.3323

>  <SCORE.INTRA.DIHEDRAL>
-2.00688

>  <SCORE.INTRA.DIHEDRAL.0>
2.05999

>  <SCORE.INTRA.POLAR>
0

>  <SCORE.INTRA.POLAR.0>
0

>  <SCORE.INTRA.REPUL>
0

>  <SCORE.INTRA.REPUL.0>
0

>  <SCORE.INTRA.SOLV>
-0.68665

>  <SCORE.INTRA.SOLV.lig_0>
-58.7001

>  <SCORE.INTRA.VDW>
0.0144658

>  <SCORE.INTRA.VDW.0>
-0.401036

>  <SCORE.INTRA.norm>
-0.0832687

>  <SCORE.RESTR>
2.95691e-05

>  <SCORE.RESTR.CAVITY>
2.95691e-05

>  <SCORE.RESTR.norm>
1.84807e-06

>  <SCORE.SYSTEM>
0

>  <SCORE.SYSTEM.CONST>
0

>  <SCORE.SYSTEM.DIHEDRAL>
0

>  <SCORE.SYSTEM.SOLV>
0

>  <SCORE.SYSTEM.norm>
0

>  <SCORE.heavy>
16

>  <SCORE.norm>
-0.12858

>  <RMSD>
24.550

$$$$
ligand
 OpenBabel11021811463D
libRbt.so/2013.1/901 2013/11/27
 16 16  0  0  0  0  0  0  0  0999 V2000
   34.0199   20.8917   38.1533 P   0  0  2  0  0  0  0  0  0  0  0  0
   35.1780   21.1304   37.2565 O   0  0  0  0  0  0  0  0  0  0  0  0
   34.5160   20.9475   39.6869 O   0  5  0  0  0  0  0  0  0  0  0  0
   33.3982   19.4345   37.8253 O   0  0  0  0  0  0  0  0  0  0  0  0
   30.4181   25.4194   38.4146 C   0  0  2  0  0  0  0  0  0  0  0  0
   29.8924   25.2254   37.0819 O   0  0  0  0  0  0  0  0  0  0  0  0
   31.0520   26.8330   38.5636 C   0  0  2  0  0  0  0  0  0  0  0  0
   30.0395   27.8618   38.2628 N   0  0  0  0  0  0  0  0  0  0  0  0
   32.2357   26.9510   37.5785 C   0  0  1  0  0  0  0  0  0  0  0  0
   32.8462   28.2470   37.6988 O   0  0  0  0  0  0  0  0  0  0  0  0
   33.2561   25.8528   37.9434 C   0  0  2  0  0  0  0  0  0  0  0  0
   34.3717   25.9276   37.0395 O   0  0  0  0  0  0  0  0  0  0  0  0
   32.5532   24.4675   37.8033 C   0  0  2  0  0  0  0  0  0  0  0  0
   31.4078   24.3806   38.7023 O   0  0  0  0  0  0  0  0  0  0  0  0
   33.5132   23.3248   38.1725 C   0  0  0  0  0  0  0  0  0  0  0  0
   32.9124   22.0466   37.8993 O   0  0  0  0  0  0  0  0  0  0  0  0
  1  2  1  6  0  0  0
  1  3  1  0  0  0  0
  1  4  2  0  0  0  0
  1 16  1  0  0  0  0
  5  6  1  6  0  0  0
  5  7  1  0  0  0  0
  5 14  1  0  0  0  0
  7  8  1  6  0  0  0
  7  9  1  0  0  0  0
  9 10  1  1  0  0  0
  9 11  1  0  0  0  0
 11 12  1  6  0  0  0
 11 13  1  0  0  0  0
 13 14  1  0  0  0  0
 13 15  1  1  0  0  0
 15 16  1  0  0  0  0
M  CHG  1   3  -1
M  END
>  <CHROM.1>
-173.53534502,173.93639248,-59.35960329,32.73929560,23.99114229,38.00732327
1.16173267,-0.12875462,3.04370638

>  <Name>
ligand

>  <RI>
0

>  <Rbt.Current_Directory>
/home/itssahil/PROJECTS/Mol_Feturizer/New_Systems/rnas/3B4A

>  <Rbt.Executable>
rbdock ($Id: //depot/dev/client3/rdock/2013.1/src/exe/rbdock.cxx#4 $)

>  <Rbt.Library>
libRbt.so (2013.1, Build901 2013/11/27)

>  <Rbt.Parameter_File>
/export/apps/rDock/src/rDock_2013.1_src/data/scripts/dock_solv.prm

>  <Rbt.Receptor>
prm/blind_docking_60.prm

>  <SCORE>
-3.88369

>  <SCORE.INTER>
-2.39765

>  <SCORE.INTER.CONST>
1

>  <SCORE.INTER.POLAR>
0

>  <SCORE.INTER.ROT>
3

>  <SCORE.INTER.SOLV>
16.4373

>  <SCORE.INTER.VDW>
-12.6775

>  <SCORE.INTER.norm>
-0.149853

>  <SCORE.INTRA>
-1.48605

>  <SCORE.INTRA.DIHEDRAL>
-1.72536

>  <SCORE.INTRA.DIHEDRAL.0>
2.05999

>  <SCORE.INTRA.POLAR>
0

>  <SCORE.INTRA.POLAR.0>
0

>  <SCORE.INTRA.REPUL>
0

>  <SCORE.INTRA.REPUL.0>
0

>  <SCORE.INTRA.SOLV>
-1.1267

>  <SCORE.INTRA.SOLV.lig_0>
-58.7001

>  <SCORE.INTRA.VDW>
-0.0600145

>  <SCORE.INTRA.VDW.0>
-0.401036

>  <SCORE.INTRA.norm>
-0.092878

>  <SCORE.RESTR>
0

>  <SCORE.RESTR.CAVITY>
0

>  <SCORE.RESTR.norm>
0

>  <SCORE.SYSTEM>
0

>  <SCORE.SYSTEM.CONST>
0

>  <SCORE.SYSTEM.DIHEDRAL>
0

>  <SCORE.SYSTEM.SOLV>
0

>  <SCORE.SYSTEM.norm>
0

>  <SCORE.heavy>
16

>  <SCORE.norm>
-0.242731

>  <RMSD>
24.665

$$$$
ligand
 OpenBabel11021811463D
libRbt.so/2013.1/901 2013/11/27
 16 16  0  0  0  0  0  0  0  0999 V2000
   32.4795   25.6422   34.0970 P   0  0  2  0  0  0  0  0  0  0  0  0
   31.0485   25.4370   33.7614 O   0  0  0  0  0  0  0  0  0  0  0  0
   32.9960   27.0056   33.4073 O   0  5  0  0  0  0  0  0  0  0  0  0
   33.3309   24.3838   33.5415 O   0  0  0  0  0  0  0  0  0  0  0  0
   33.7097   24.9876   39.6977 C   0  0  2  0  0  0  0  0  0  0  0  0
   33.3857   23.7059   40.2830 O   0  0  0  0  0  0  0  0  0  0  0  0
   32.7794   26.1051   40.2524 C   0  0  2  0  0  0  0  0  0  0  0  0
   32.9077   26.1704   41.7199 N   0  0  0  0  0  0  0  0  0  0  0  0
   31.3219   25.7747   39.8626 C   0  0  1  0  0  0  0  0  0  0  0  0
   30.4387   26.7955   40.3571 O   0  0  0  0  0  0  0  0  0  0  0  0
   31.2531   25.7203   38.3222 C   0  0  2  0  0  0  0  0  0  0  0  0
   29.9084   25.4065   37.9218 O   0  0  0  0  0  0  0  0  0  0  0  0
   32.2261   24.6054   37.8292 C   0  0  2  0  0  0  0  0  0  0  0  0
   33.5940   24.8997   38.2416 O   0  0  0  0  0  0  0  0  0  0  0  0
   32.2205   24.5108   36.2947 C   0  0  0  0  0  0  0  0  0  0  0  0
   32.6300   25.7578   35.7060 O   0  0  0  0  0  0  0  0  0  0  0  0
  1  2  1  6  0  0  0
  1  3  1  0  0  0  0
  1  4  2  0  0  0  0
  1 16  1  0  0  0  0
  5  6  1  1  0  0  0
  5  7  1  0  0  0  0
  5 14  1  0  0  0  0
  7  8  1  1  0  0  0
  7  9  1  0  0  0  0
  9 10  1  6  0  0  0
  9 11  1  0  0  0  0
 11 12  1  1  0  0  0
 11 13  1  0  0  0  0
 13 14  1  0  0  0  0
 13 15  1  6  0  0  0
 15 16  1  0  0  0  0
M  CHG  1   3  -1
M  END
>  <CHROM.1>
59.81647307,-175.04417727,63.16240294,32.27277798,25.44522534,37.25607259
-1.53604611,-0.46365242,1.58946045

>  <Name>
ligand

>  <RI>
0

>  <Rbt.Current_Directory>
/home/itssahil/PROJECTS/Mol_Feturizer/New_Systems/rnas/3B4A

>  <Rbt.Executable>
rbdock ($Id: //depot/dev/client3/rdock/2013.1/src/exe/rbdock.cxx#4 $)

>  <Rbt.Library>
libRbt.so (2013.1, Build901 2013/11/27)

>  <Rbt.Parameter_File>
/export/apps/rDock/src/rDock_2013.1_src/data/scripts/dock_solv.prm

>  <Rbt.Receptor>
prm/blind_docking_60.prm

>  <SCORE>
-3.03181

>  <SCORE.INTER>
-1.40516

>  <SCORE.INTER.CONST>
1

>  <SCORE.INTER.POLAR>
0

>  <SCORE.INTER.ROT>
3

>  <SCORE.INTER.SOLV>
4.91737

>  <SCORE.INTER.VDW>
-8.17589

>  <SCORE.INTER.norm>
-0.0878223

>  <SCORE.INTRA>
-1.62665

>  <SCORE.INTRA.DIHEDRAL>
-1.92045

>  <SCORE.INTRA.DIHEDRAL.0>
2.05999

>  <SCORE.INTRA.POLAR>
0

>  <SCORE.INTRA.POLAR.0>
0

>  <SCORE.INTRA.REPUL>
0

>  <SCORE.INTRA.REPUL.0>
0

>  <SCORE.INTRA.SOLV>
-0.839022

>  <SCORE.INTRA.SOLV.lig_0>
-58.7001

>  <SCORE.INTRA.VDW>
-0.246911

>  <SCORE.INTRA.VDW.0>
-0.401036

>  <SCORE.INTRA.norm>
-0.101666

>  <SCORE.RESTR>
0

>  <SCORE.RESTR.CAVITY>
0

>  <SCORE.RESTR.norm>
0

>  <SCORE.SYSTEM>
0

>  <SCORE.SYSTEM.CONST>
0

>  <SCORE.SYSTEM.DIHEDRAL>
0

>  <SCORE.SYSTEM.SOLV>
0

>  <SCORE.SYSTEM.norm>
0

>  <SCORE.heavy>
16

>  <SCORE.norm>
-0.189488

>  <RMSD>
24.722

$$$$
ligand
 OpenBabel11021811463D
libRbt.so/2013.1/901 2013/11/27
 16 16  0  0  0  0  0  0  0  0999 V2000
   33.1389   21.2467   38.6075 P   0  0  2  0  0  0  0  0  0  0  0  0
   33.4784   22.5498   37.9837 O   0  0  0  0  0  0  0  0  0  0  0  0
   34.0392   21.0408   39.9297 O   0  5  0  0  0  0  0  0  0  0  0  0
   33.4393   20.0654   37.5438 O   0  0  0  0  0  0  0  0  0  0  0  0
   30.2002   25.0957   37.9257 C   0  0  2  0  0  0  0  0  0  0  0  0
   31.3701   25.2725   37.0949 O   0  0  0  0  0  0  0  0  0  0  0  0
   30.1059   26.2164   39.0016 C   0  0  2  0  0  0  0  0  0  0  0  0
   30.0640   27.5333   38.3397 N   0  0  0  0  0  0  0  0  0  0  0  0
   31.3435   26.1252   39.9211 C   0  0  1  0  0  0  0  0  0  0  0  0
   31.2801   27.1463   40.9310 O   0  0  0  0  0  0  0  0  0  0  0  0
   31.3309   24.7308   40.5813 C   0  0  2  0  0  0  0  0  0  0  0  0
   32.4764   24.6067   41.4414 O   0  0  0  0  0  0  0  0  0  0  0  0
   31.3972   23.6559   39.4531 C   0  0  2  0  0  0  0  0  0  0  0  0
   30.2499   23.7782   38.5605 O   0  0  0  0  0  0  0  0  0  0  0  0
   31.3688   22.2369   40.0440 C   0  0  0  0  0  0  0  0  0  0  0  0
   31.5708   21.2524   39.0148 O   0  0  0  0  0  0  0  0  0  0  0  0
  1  2  1  6  0  0  0
  1  3  1  0  0  0  0
  1  4  2  0  0  0  0
  1 16  1  0  0  0  0
  5  6  1  1  0  0  0
  5  7  1  0  0  0  0
  5 14  1  0  0  0  0
  7  8  1  6  0  0  0
  7  9  1  0  0  0  0
  9 10  1  1  0  0  0
  9 11  1  0  0  0  0
 11 12  1  1  0  0  0
 11 13  1  0  0  0  0
 13 14  1  0  0  0  0
 13 15  1  1  0  0  0
 15 16  1  0  0  0  0
M  CHG  1   3  -1
M  END
>  <CHROM.1>
-173.97311714,75.37523404,-65.56029211,31.82775620,23.66162364,39.10213543
0.65677587,1.02245737,-2.17245970

>  <Name>
ligand

>  <RI>
0

>  <Rbt.Current_Directory>
/home/itssahil/PROJECTS/Mol_Feturizer/New_Systems/rnas/3B4A

>  <Rbt.Executable>
rbdock ($Id: //depot/dev/client3/rdock/2013.1/src/exe/rbdock.cxx#4 $)

>  <Rbt.Library>
libRbt.so (2013.1, Build901 2013/11/27)

>  <Rbt.Parameter_File>
/export/apps/rDock/src/rDock_2013.1_src/data/scripts/dock_solv.prm

>  <Rbt.Receptor>
prm/blind_docking_60.prm

>  <SCORE>
-0.66752

>  <SCORE.INTER>
-0.303025

>  <SCORE.INTER.CONST>
1

>  <SCORE.INTER.POLAR>
0

>  <SCORE.INTER.ROT>
3

>  <SCORE.INTER.SOLV>
11.1924

>  <SCORE.INTER.VDW>
-9.53281

>  <SCORE.INTER.norm>
-0.0189391

>  <SCORE.INTRA>
-0.364495

>  <SCORE.INTRA.DIHEDRAL>
-0.770298

>  <SCORE.INTRA.DIHEDRAL.0>
2.05999

>  <SCORE.INTRA.POLAR>
0

>  <SCORE.INTRA.POLAR.0>
0

>  <SCORE.INTRA.REPUL>
0

>  <SCORE.INTRA.REPUL.0>
0

>  <SCORE.INTRA.SOLV>
0.261123

>  <SCORE.INTRA.SOLV.lig_0>
-58.7001

>  <SCORE.INTRA.VDW>
-0.109908

>  <SCORE.INTRA.VDW.0>
-0.401036

>  <SCORE.INTRA.norm>
-0.022781

>  <SCORE.RESTR>
0

>  <SCORE.RESTR.CAVITY>
0

>  <SCORE.RESTR.norm>
0

>  <SCORE.SYSTEM>
0

>  <SCORE.SYSTEM.CONST>
0

>  <SCORE.SYSTEM.DIHEDRAL>
0

>  <SCORE.SYSTEM.SOLV>
0

>  <SCORE.SYSTEM.norm>
0

>  <SCORE.heavy>
16

>  <SCORE.norm>
-0.04172

>  <RMSD>
24.734

$$$$
ligand
 OpenBabel11021811463D
libRbt.so/2013.1/901 2013/11/27
 16 16  0  0  0  0  0  0  0  0999 V2000
   31.9865   25.0174   34.4119 P   0  0  2  0  0  0  0  0  0  0  0  0
   30.5307   25.1583   34.1603 O   0  0  0  0  0  0  0  0  0  0  0  0
   32.7999   25.8798   33.3185 O   0  5  0  0  0  0  0  0  0  0  0  0
   32.3871   23.4544   34.2937 O   0  0  0  0  0  0  0  0  0  0  0  0
   31.8704   27.1128   39.7783 C   0  0  2  0  0  0  0  0  0  0  0  0
   33.3023   27.0746   39.9744 O   0  0  0  0  0  0  0  0  0  0  0  0
   31.1360   26.2781   40.8673 C   0  0  2  0  0  0  0  0  0  0  0  0
   31.4793   26.7993   42.2032 N   0  0  0  0  0  0  0  0  0  0  0  0
   31.5797   24.8039   40.7440 C   0  0  1  0  0  0  0  0  0  0  0  0
   30.9110   24.0061   41.7354 O   0  0  0  0  0  0  0  0  0  0  0  0
   31.1949   24.3187   39.3309 C   0  0  2  0  0  0  0  0  0  0  0  0
   31.6008   22.9481   39.1769 O   0  0  0  0  0  0  0  0  0  0  0  0
   31.9375   25.2110   38.2893 C   0  0  2  0  0  0  0  0  0  0  0  0
   31.5495   26.6088   38.4425 O   0  0  0  0  0  0  0  0  0  0  0  0
   31.5816   24.7914   36.8537 C   0  0  0  0  0  0  0  0  0  0  0  0
   32.3186   25.5731   35.8971 O   0  0  0  0  0  0  0  0  0  0  0  0
  1  2  1  6  0  0  0
  1  3  1  0  0  0  0
  1  4  2  0  0  0  0
  1 16  1  0  0  0  0
  5  6  1  1  0  0  0
  5  7  1  0  0  0  0
  5 14  1  0  0  0  0
  7  8  1  1  0  0  0
  7  9  1  0  0  0  0
  9 10  1  1  0  0  0
  9 11  1  0  0  0  0
 11 12  1  1  0  0  0
 11 13  1  0  0  0  0
 13 14  1  0  0  0  0
 13 15  1  6  0  0  0
 15 16  1  0  0  0  0
M  CHG  1   3  -1
M  END
>  <CHROM.1>
-177.17318607,175.93903818,60.52808859,31.79022965,25.27582083,37.74983402
-1.32563902,1.29861924,1.23565001

>  <Name>
ligand

>  <RI>
0

>  <Rbt.Current_Directory>
/home/itssahil/PROJECTS/Mol_Feturizer/New_Systems/rnas/3B4A

>  <Rbt.Executable>
rbdock ($Id: //depot/dev/client3/rdock/2013.1/src/exe/rbdock.cxx#4 $)

>  <Rbt.Library>
libRbt.so (2013.1, Build901 2013/11/27)

>  <Rbt.Parameter_File>
/export/apps/rDock/src/rDock_2013.1_src/data/scripts/dock_solv.prm

>  <Rbt.Receptor>
prm/blind_docking_60.prm

>  <SCORE>
-2.62907

>  <SCORE.INTER>
-1.03811

>  <SCORE.INTER.CONST>
1

>  <SCORE.INTER.POLAR>
0

>  <SCORE.INTER.ROT>
3

>  <SCORE.INTER.SOLV>
6.05396

>  <SCORE.INTER.VDW>
-8.31006

>  <SCORE.INTER.norm>
-0.0648818

>  <SCORE.INTRA>
-1.59097

>  <SCORE.INTRA.DIHEDRAL>
-1.94632

>  <SCORE.INTRA.DIHEDRAL.0>
2.05999

>  <SCORE.INTRA.POLAR>
0

>  <SCORE.INTRA.POLAR.0>
0

>  <SCORE.INTRA.REPUL>
0

>  <SCORE.INTRA.REPUL.0>
0

>  <SCORE.INTRA.SOLV>
-1.0688

>  <SCORE.INTRA.SOLV.lig_0>
-58.7001

>  <SCORE.INTRA.VDW>
-0.0834088

>  <SCORE.INTRA.VDW.0>
-0.401036

>  <SCORE.INTRA.norm>
-0.0994353

>  <SCORE.RESTR>
0

>  <SCORE.RESTR.CAVITY>
0

>  <SCORE.RESTR.norm>
0

>  <SCORE.SYSTEM>
0

>  <SCORE.SYSTEM.CONST>
0

>  <SCORE.SYSTEM.DIHEDRAL>
0

>  <SCORE.SYSTEM.SOLV>
0

>  <SCORE.SYSTEM.norm>
0

>  <SCORE.heavy>
16

>  <SCORE.norm>
-0.164317

>  <RMSD>
24.848

$$$$
ligand
 OpenBabel11021811463D
libRbt.so/2013.1/901 2013/11/27
 16 16  0  0  0  0  0  0  0  0999 V2000
   31.0142   24.7473   34.6707 P   0  0  2  0  0  0  0  0  0  0  0  0
   29.6097   25.1509   34.4119 O   0  0  0  0  0  0  0  0  0  0  0  0
   31.9931   25.9821   34.3271 O   0  5  0  0  0  0  0  0  0  0  0  0
   31.3733   23.4787   33.7331 O   0  0  0  0  0  0  0  0  0  0  0  0
   32.7681   24.4810   40.1028 C   0  0  2  0  0  0  0  0  0  0  0  0
   31.9677   23.3435   40.4975 O   0  0  0  0  0  0  0  0  0  0  0  0
   32.4899   25.7048   41.0231 C   0  0  2  0  0  0  0  0  0  0  0  0
   32.7767   25.3440   42.4238 N   0  0  0  0  0  0  0  0  0  0  0  0
   31.0069   26.1096   40.8737 C   0  0  1  0  0  0  0  0  0  0  0  0
   30.7219   27.2442   41.7091 O   0  0  0  0  0  0  0  0  0  0  0  0
   30.7709   26.4738   39.3931 C   0  0  2  0  0  0  0  0  0  0  0  0
   29.3947   26.8496   39.2144 O   0  0  0  0  0  0  0  0  0  0  0  0
   31.0943   25.2194   38.5244 C   0  0  2  0  0  0  0  0  0  0  0  0
   32.4836   24.8140   38.7065 O   0  0  0  0  0  0  0  0  0  0  0  0
   30.8972   25.5209   37.0297 C   0  0  0  0  0  0  0  0  0  0  0  0
   31.1673   24.3529   36.2347 O   0  0  0  0  0  0  0  0  0  0  0  0
  1  2  1  6  0  0  0
  1  3  1  0  0  0  0
  1  4  2  0  0  0  0
  1 16  1  0  0  0  0
  5  6  1  1  0  0  0
  5  7  1  0  0  0  0
  5 14  1  0  0  0  0
  7  8  1  1  0  0  0
  7  9  1  0  0  0  0
  9 10  1  1  0  0  0
  9 11  1  0  0  0  0
 11 12  1  1  0  0  0
 11 13  1  0  0  0  0
 13 14  1  0  0  0  0
 13 15  1  6  0  0  0
 15 16  1  0  0  0  0
M  CHG  1   3  -1
M  END
>  <CHROM.1>
-178.69919258,-177.29784702,-63.14229566,31.30152446,25.24855365,37.96703919
-1.72711140,-0.83498500,1.30764281

>  <Name>
ligand

>  <RI>
0

>  <Rbt.Current_Directory>
/home/itssahil/PROJECTS/Mol_Feturizer/New_Systems/rnas/3B4A

>  <Rbt.Executable>
rbdock ($Id: //depot/dev/client3/rdock/2013.1/src/exe/rbdock.cxx#4 $)

>  <Rbt.Library>
libRbt.so (2013.1, Build901 2013/11/27)

>  <Rbt.Parameter_File>
/export/apps/rDock/src/rDock_2013.1_src/data/scripts/dock_solv.prm

>  <Rbt.Receptor>
prm/blind_docking_60.prm

>  <SCORE>
-3.89577

>  <SCORE.INTER>
-2.30678

>  <SCORE.INTER.CONST>
1

>  <SCORE.INTER.POLAR>
0

>  <SCORE.INTER.ROT>
3

>  <SCORE.INTER.SOLV>
8.02091

>  <SCORE.INTER.VDW>
-9.81149

>  <SCORE.INTER.norm>
-0.144173

>  <SCORE.INTRA>
-1.589

>  <SCORE.INTRA.DIHEDRAL>
-1.99897

>  <SCORE.INTRA.DIHEDRAL.0>
2.05999

>  <SCORE.INTRA.POLAR>
0

>  <SCORE.INTRA.POLAR.0>
0

>  <SCORE.INTRA.REPUL>
0

>  <SCORE.INTRA.REPUL.0>
0

>  <SCORE.INTRA.SOLV>
-1.00394

>  <SCORE.INTRA.SOLV.lig_0>
-58.7001

>  <SCORE.INTRA.VDW>
-0.087541

>  <SCORE.INTRA.VDW.0>
-0.401036

>  <SCORE.INTRA.norm>
-0.0993122

>  <SCORE.RESTR>
0

>  <SCORE.RESTR.CAVITY>
0

>  <SCORE.RESTR.norm>
0

>  <SCORE.SYSTEM>
0

>  <SCORE.SYSTEM.CONST>
0

>  <SCORE.SYSTEM.DIHEDRAL>
0

>  <SCORE.SYSTEM.SOLV>
0

>  <SCORE.SYSTEM.norm>
0

>  <SCORE.heavy>
16

>  <SCORE.norm>
-0.243486

>  <RMSD>
24.991

$$$$
ligand
 OpenBabel11021811463D
libRbt.so/2013.1/901 2013/11/27
 16 16  0  0  0  0  0  0  0  0999 V2000
   33.9322   21.2526   38.0455 P   0  0  2  0  0  0  0  0  0  0  0  0
   34.6000   21.6924   39.2958 O   0  0  0  0  0  0  0  0  0  0  0  0
   32.4936   20.6194   38.4068 O   0  5  0  0  0  0  0  0  0  0  0  0
   34.8598   20.1421   37.3218 O   0  0  0  0  0  0  0  0  0  0  0  0
   34.0885   26.7345   36.5592 C   0  0  2  0  0  0  0  0  0  0  0  0
   33.0926   27.6012   37.1486 O   0  0  0  0  0  0  0  0  0  0  0  0
   33.8807   26.6113   35.0217 C   0  0  2  0  0  0  0  0  0  0  0  0
   33.9447   27.9498   34.4065 N   0  0  0  0  0  0  0  0  0  0  0  0
   32.4991   25.9731   34.7585 C   0  0  1  0  0  0  0  0  0  0  0  0
   32.2819   25.8405   33.3436 O   0  0  0  0  0  0  0  0  0  0  0  0
   32.4950   24.5813   35.4242 C   0  0  2  0  0  0  0  0  0  0  0  0
   31.2176   23.9586   35.2056 O   0  0  0  0  0  0  0  0  0  0  0  0
   32.7366   24.7709   36.9534 C   0  0  2  0  0  0  0  0  0  0  0  0
   34.0223   25.4172   37.1929 O   0  0  0  0  0  0  0  0  0  0  0  0
   32.7635   23.4150   37.6775 C   0  0  0  0  0  0  0  0  0  0  0  0
   33.7319   22.5364   37.0778 O   0  0  0  0  0  0  0  0  0  0  0  0
  1  2  1  1  0  0  0
  1  3  1  0  0  0  0
  1  4  2  0  0  0  0
  1 16  1  0  0  0  0
  5  6  1  1  0  0  0
  5  7  1  0  0  0  0
  5 14  1  0  0  0  0
  7  8  1  6  0  0  0
  7  9  1  0  0  0  0
  9 10  1  6  0  0  0
  9 11  1  0  0  0  0
 11 12  1  1  0  0  0
 11 13  1  0  0  0  0
 13 14  1  0  0  0  0
 13 15  1  1  0  0  0
 15 16  1  0  0  0  0
M  CHG  1   3  -1
M  END
>  <CHROM.1>
54.67200503,168.79698717,-68.25326568,33.33594609,24.03107691,36.63367635
-1.35775436,-0.97789752,-0.31582545

>  <Name>
ligand

>  <RI>
0

>  <Rbt.Current_Directory>
/home/itssahil/PROJECTS/Mol_Feturizer/New_Systems/rnas/3B4A

>  <Rbt.Executable>
rbdock ($Id: //depot/dev/client3/rdock/2013.1/src/exe/rbdock.cxx#4 $)

>  <Rbt.Library>
libRbt.so (2013.1, Build901 2013/11/27)

>  <Rbt.Parameter_File>
/export/apps/rDock/src/rDock_2013.1_src/data/scripts/dock_solv.prm

>  <Rbt.Receptor>
prm/blind_docking_60.prm

>  <SCORE>
-3.04681

>  <SCORE.INTER>
-1.88468

>  <SCORE.INTER.CONST>
1

>  <SCORE.INTER.POLAR>
0

>  <SCORE.INTER.ROT>
3

>  <SCORE.INTER.SOLV>
10.1136

>  <SCORE.INTER.VDW>
-10.2277

>  <SCORE.INTER.norm>
-0.117793

>  <SCORE.INTRA>
-1.16213

>  <SCORE.INTRA.DIHEDRAL>
-1.2453

>  <SCORE.INTRA.DIHEDRAL.0>
2.05999

>  <SCORE.INTRA.POLAR>
0

>  <SCORE.INTRA.POLAR.0>
0

>  <SCORE.INTRA.REPUL>
0

>  <SCORE.INTRA.REPUL.0>
0

>  <SCORE.INTRA.SOLV>
-0.767967

>  <SCORE.INTRA.SOLV.lig_0>
-58.7001

>  <SCORE.INTRA.VDW>
-0.155496

>  <SCORE.INTRA.VDW.0>
-0.401036

>  <SCORE.INTRA.norm>
-0.072633

>  <SCORE.RESTR>
0

>  <SCORE.RESTR.CAVITY>
0

>  <SCORE.RESTR.norm>
0

>  <SCORE.SYSTEM>
0

>  <SCORE.SYSTEM.CONST>
0

>  <SCORE.SYSTEM.DIHEDRAL>
0

>  <SCORE.SYSTEM.SOLV>
0

>  <SCORE.SYSTEM.norm>
0

>  <SCORE.heavy>
16

>  <SCORE.norm>
-0.190426

>  <RMSD>
25.353

$$$$
ligand
 OpenBabel11021811463D
libRbt.so/2013.1/901 2013/11/27
 16 16  0  0  0  0  0  0  0  0999 V2000
   26.8541   47.4201   66.6849 P   0  0  2  0  0  0  0  0  0  0  0  0
   25.7910   46.4026   66.8777 O   0  0  0  0  0  0  0  0  0  0  0  0
   27.9316   47.2945   67.8783 O   0  5  0  0  0  0  0  0  0  0  0  0
   26.1782   48.8899   66.7017 O   0  0  0  0  0  0  0  0  0  0  0  0
   31.0437   45.3834   66.8090 C   0  0  2  0  0  0  0  0  0  0  0  0
   32.2470   46.1742   66.9385 O   0  0  0  0  0  0  0  0  0  0  0  0
   31.1715   44.3604   65.6431 C   0  0  2  0  0  0  0  0  0  0  0  0
   32.3321   43.4829   65.8818 N   0  0  0  0  0  0  0  0  0  0  0  0
   31.3580   45.1372   64.3212 C   0  0  1  0  0  0  0  0  0  0  0  0
   31.4725   44.2162   63.2234 O   0  0  0  0  0  0  0  0  0  0  0  0
   30.1169   46.0334   64.1290 C   0  0  2  0  0  0  0  0  0  0  0  0
   30.2595   46.7795   62.9083 O   0  0  0  0  0  0  0  0  0  0  0  0
   30.0291   47.0119   65.3403 C   0  0  2  0  0  0  0  0  0  0  0  0
   29.9007   46.2705   66.5900 O   0  0  0  0  0  0  0  0  0  0  0  0
   28.7979   47.9249   65.2207 C   0  0  0  0  0  0  0  0  0  0  0  0
   27.5851   47.1527   65.2639 O   0  0  0  0  0  0  0  0  0  0  0  0
  1  2  1  1  0  0  0
  1  3  1  0  0  0  0
  1  4  2  0  0  0  0
  1 16  1  0  0  0  0
  5  6  1  6  0  0  0
  5  7  1  0  0  0  0
  5 14  1  0  0  0  0
  7  8  1  1  0  0  0
  7  9  1  0  0  0  0
  9 10  1  6  0  0  0
  9 11  1  0  0  0  0
 11 12  1  6  0  0  0
 11 13  1  0  0  0  0
 13 14  1  0  0  0  0
 13 15  1  6  0  0  0
 15 16  1  0  0  0  0
M  CHG  1   3  -1
M  END
>  <CHROM.1>
63.30214001,108.30265623,-166.69459965,29.32025795,46.36340150,65.73746520
-2.87742084,0.53956117,-1.48062492

>  <Name>
ligand

>  <RI>
0

>  <Rbt.Current_Directory>
/home/itssahil/PROJECTS/Mol_Feturizer/New_Systems/rnas/3B4A

>  <Rbt.Executable>
rbdock ($Id: //depot/dev/client3/rdock/2013.1/src/exe/rbdock.cxx#4 $)

>  <Rbt.Library>
libRbt.so (2013.1, Build901 2013/11/27)

>  <Rbt.Parameter_File>
/export/apps/rDock/src/rDock_2013.1_src/data/scripts/dock_solv.prm

>  <Rbt.Receptor>
prm/blind_docking_100.prm

>  <SCORE>
-9.09081

>  <SCORE.INTER>
-12.2229

>  <SCORE.INTER.CONST>
1

>  <SCORE.INTER.POLAR>
0

>  <SCORE.INTER.ROT>
3

>  <SCORE.INTER.SOLV>
20.3561

>  <SCORE.INTER.VDW>
-20.534

>  <SCORE.INTER.norm>
-0.76393

>  <SCORE.INTRA>
3.13083

>  <SCORE.INTRA.DIHEDRAL>
4.80828

>  <SCORE.INTRA.DIHEDRAL.0>
2.05999

>  <SCORE.INTRA.POLAR>
0

>  <SCORE.INTRA.POLAR.0>
0

>  <SCORE.INTRA.REPUL>
0

>  <SCORE.INTRA.REPUL.0>
0

>  <SCORE.INTRA.SOLV>
2.36271

>  <SCORE.INTRA.SOLV.lig_0>
-58.7001

>  <SCORE.INTRA.VDW>
-0.454665

>  <SCORE.INTRA.VDW.0>
-0.401036

>  <SCORE.INTRA.norm>
0.195677

>  <SCORE.RESTR>
0.00123096

>  <SCORE.RESTR.CAVITY>
0.00123096

>  <SCORE.RESTR.norm>
7.69349e-05

>  <SCORE.SYSTEM>
0

>  <SCORE.SYSTEM.CONST>
0

>  <SCORE.SYSTEM.DIHEDRAL>
0

>  <SCORE.SYSTEM.SOLV>
0

>  <SCORE.SYSTEM.norm>
0

>  <SCORE.heavy>
16

>  <SCORE.norm>
-0.568176

>  <RMSD>
25.786

$$$$
ligand
 OpenBabel11021811463D
libRbt.so/2013.1/901 2013/11/27
 16 16  0  0  0  0  0  0  0  0999 V2000
   29.1834   47.2235   70.9115 P   0  0  2  0  0  0  0  0  0  0  0  0
   29.9329   46.7522   72.1026 O   0  0  0  0  0  0  0  0  0  0  0  0
   29.0637   48.8311   70.9619 O   0  5  0  0  0  0  0  0  0  0  0  0
   27.7090   46.5578   70.9263 O   0  0  0  0  0  0  0  0  0  0  0  0
   31.3446   45.3646   65.9024 C   0  0  2  0  0  0  0  0  0  0  0  0
   32.4748   46.2660   65.9216 O   0  0  0  0  0  0  0  0  0  0  0  0
   30.4897   45.5695   64.6182 C   0  0  2  0  0  0  0  0  0  0  0  0
   31.3307   45.3542   63.4263 N   0  0  0  0  0  0  0  0  0  0  0  0
   29.9318   47.0097   64.6193 C   0  0  1  0  0  0  0  0  0  0  0  0
   29.1309   47.2261   63.4454 O   0  0  0  0  0  0  0  0  0  0  0  0
   29.0647   47.1718   65.8851 C   0  0  2  0  0  0  0  0  0  0  0  0
   28.5332   48.5071   65.9238 O   0  0  0  0  0  0  0  0  0  0  0  0
   29.9697   46.9259   67.1315 C   0  0  2  0  0  0  0  0  0  0  0  0
   30.5312   45.5800   67.0997 O   0  0  0  0  0  0  0  0  0  0  0  0
   29.1598   47.0539   68.4320 C   0  0  0  0  0  0  0  0  0  0  0  0
   29.9877   46.7813   69.5764 O   0  0  0  0  0  0  0  0  0  0  0  0
  1  2  1  1  0  0  0
  1  3  1  0  0  0  0
  1  4  2  0  0  0  0
  1 16  1  0  0  0  0
  5  6  1  6  0  0  0
  5  7  1  0  0  0  0
  5 14  1  0  0  0  0
  7  8  1  6  0  0  0
  7  9  1  0  0  0  0
  9 10  1  6  0  0  0
  9 11  1  0  0  0  0
 11 12  1  1  0  0  0
 11 13  1  0  0  0  0
 13 14  1  0  0  0  0
 13 15  1  1  0  0  0
 15 16  1  0  0  0  0
M  CHG  1   3  -1
M  END
>  <CHROM.1>
178.02478425,168.44532035,171.14412816,29.80086619,46.81807286,67.64026455
-1.82789979,0.66187892,-1.55319086

>  <Name>
ligand

>  <RI>
0

>  <Rbt.Current_Directory>
/home/itssahil/PROJECTS/Mol_Feturizer/New_Systems/rnas/3B4A

>  <Rbt.Executable>
rbdock ($Id: //depot/dev/client3/rdock/2013.1/src/exe/rbdock.cxx#4 $)

>  <Rbt.Library>
libRbt.so (2013.1, Build901 2013/11/27)

>  <Rbt.Parameter_File>
/export/apps/rDock/src/rDock_2013.1_src/data/scripts/dock_solv.prm

>  <Rbt.Receptor>
prm/blind_docking_100.prm

>  <SCORE>
-9.34015

>  <SCORE.INTER>
-8.28791

>  <SCORE.INTER.CONST>
1

>  <SCORE.INTER.POLAR>
0

>  <SCORE.INTER.ROT>
3

>  <SCORE.INTER.SOLV>
16.037

>  <SCORE.INTER.VDW>
-16.4709

>  <SCORE.INTER.norm>
-0.517994

>  <SCORE.INTRA>
-1.05225

>  <SCORE.INTRA.DIHEDRAL>
-1.27864

>  <SCORE.INTRA.DIHEDRAL.0>
2.05999

>  <SCORE.INTRA.POLAR>
0

>  <SCORE.INTRA.POLAR.0>
0

>  <SCORE.INTRA.REPUL>
0

>  <SCORE.INTRA.REPUL.0>
0

>  <SCORE.INTRA.SOLV>
-0.419465

>  <SCORE.INTRA.SOLV.lig_0>
-58.7001

>  <SCORE.INTRA.VDW>
-0.203194

>  <SCORE.INTRA.VDW.0>
-0.401036

>  <SCORE.INTRA.norm>
-0.0657654

>  <SCORE.RESTR>
0

>  <SCORE.RESTR.CAVITY>
0

>  <SCORE.RESTR.norm>
0

>  <SCORE.SYSTEM>
0

>  <SCORE.SYSTEM.CONST>
0

>  <SCORE.SYSTEM.DIHEDRAL>
0

>  <SCORE.SYSTEM.SOLV>
0

>  <SCORE.SYSTEM.norm>
0

>  <SCORE.heavy>
16

>  <SCORE.norm>
-0.58376

>  <RMSD>
26.556

$$$$
ligand
 OpenBabel11021811463D
libRbt.so/2013.1/901 2013/11/27
 16 16  0  0  0  0  0  0  0  0999 V2000
   30.6790   47.4115   69.9344 P   0  0  2  0  0  0  0  0  0  0  0  0
   32.1126   47.6124   70.2614 O   0  0  0  0  0  0  0  0  0  0  0  0
   29.8495   48.7299   70.3525 O   0  5  0  0  0  0  0  0  0  0  0  0
   30.1317   46.1295   70.7557 O   0  0  0  0  0  0  0  0  0  0  0  0
   28.4595   49.0125   64.9970 C   0  0  2  0  0  0  0  0  0  0  0  0
   27.1722   48.4713   64.6226 O   0  0  0  0  0  0  0  0  0  0  0  0
   29.5795   48.4939   64.0489 C   0  0  2  0  0  0  0  0  0  0  0  0
   29.2587   48.8636   62.6580 N   0  0  0  0  0  0  0  0  0  0  0  0
   29.6682   46.9577   64.1814 C   0  0  1  0  0  0  0  0  0  0  0  0
   30.7012   46.4502   63.3201 O   0  0  0  0  0  0  0  0  0  0  0  0
   30.0045   46.6361   65.6524 C   0  0  2  0  0  0  0  0  0  0  0  0
   30.0878   45.2100   65.8154 O   0  0  0  0  0  0  0  0  0  0  0  0
   28.8632   47.2058   66.5499 C   0  0  2  0  0  0  0  0  0  0  0  0
   28.7536   48.6509   66.3842 O   0  0  0  0  0  0  0  0  0  0  0  0
   29.1466   46.9352   68.0365 C   0  0  0  0  0  0  0  0  0  0  0  0
   30.5342   47.1626   68.3400 O   0  0  0  0  0  0  0  0  0  0  0  0
  1  2  1  1  0  0  0
  1  3  1  0  0  0  0
  1  4  2  0  0  0  0
  1 16  1  0  0  0  0
  5  6  1  6  0  0  0
  5  7  1  0  0  0  0
  5 14  1  0  0  0  0
  7  8  1  6  0  0  0
  7  9  1  0  0  0  0
  9 10  1  6  0  0  0
  9 11  1  0  0  0  0
 11 12  1  6  0  0  0
 11 13  1  0  0  0  0
 13 14  1  0  0  0  0
 13 15  1  1  0  0  0
 15 16  1  0  0  0  0
M  CHG  1   3  -1
M  END
>  <CHROM.1>
41.59902661,159.11912075,178.56201124,29.77618197,47.47461167,66.92718607
1.19499375,-0.88793322,1.35617266

>  <Name>
ligand

>  <RI>
0

>  <Rbt.Current_Directory>
/home/itssahil/PROJECTS/Mol_Feturizer/New_Systems/rnas/3B4A

>  <Rbt.Executable>
rbdock ($Id: //depot/dev/client3/rdock/2013.1/src/exe/rbdock.cxx#4 $)

>  <Rbt.Library>
libRbt.so (2013.1, Build901 2013/11/27)

>  <Rbt.Parameter_File>
/export/apps/rDock/src/rDock_2013.1_src/data/scripts/dock_solv.prm

>  <Rbt.Receptor>
prm/blind_docking_100.prm

>  <SCORE>
-9.95989

>  <SCORE.INTER>
-10.3229

>  <SCORE.INTER.CONST>
1

>  <SCORE.INTER.POLAR>
0

>  <SCORE.INTER.ROT>
3

>  <SCORE.INTER.SOLV>
20.1537

>  <SCORE.INTER.VDW>
-19.1998

>  <SCORE.INTER.norm>
-0.645182

>  <SCORE.INTRA>
0.362488

>  <SCORE.INTRA.DIHEDRAL>
1.01937

>  <SCORE.INTRA.DIHEDRAL.0>
2.05999

>  <SCORE.INTRA.POLAR>
0

>  <SCORE.INTRA.POLAR.0>
0

>  <SCORE.INTRA.REPUL>
0

>  <SCORE.INTRA.REPUL.0>
0

>  <SCORE.INTRA.SOLV>
0.091038

>  <SCORE.INTRA.SOLV.lig_0>
-58.7001

>  <SCORE.INTRA.VDW>
-0.192718

>  <SCORE.INTRA.VDW.0>
-0.401036

>  <SCORE.INTRA.norm>
0.0226555

>  <SCORE.RESTR>
0.000538292

>  <SCORE.RESTR.CAVITY>
0.000538292

>  <SCORE.RESTR.norm>
3.36432e-05

>  <SCORE.SYSTEM>
0

>  <SCORE.SYSTEM.CONST>
0

>  <SCORE.SYSTEM.DIHEDRAL>
0

>  <SCORE.SYSTEM.SOLV>
0

>  <SCORE.SYSTEM.norm>
0

>  <SCORE.heavy>
16

>  <SCORE.norm>
-0.622493

>  <RMSD>
26.630

$$$$
ligand
 OpenBabel11021811463D
libRbt.so/2013.1/901 2013/11/27
 16 16  0  0  0  0  0  0  0  0999 V2000
   15.1555   24.1093   34.1683 P   0  0  2  0  0  0  0  0  0  0  0  0
   16.5997   24.3676   33.9446 O   0  0  0  0  0  0  0  0  0  0  0  0
   14.6317   23.0440   33.0767 O   0  5  0  0  0  0  0  0  0  0  0  0
   14.3469   25.5021   34.0149 O   0  0  0  0  0  0  0  0  0  0  0  0
   11.5898   21.5796   38.5894 C   0  0  2  0  0  0  0  0  0  0  0  0
   11.8395   22.5555   39.6264 O   0  0  0  0  0  0  0  0  0  0  0  0
   12.4106   20.2807   38.8368 C   0  0  2  0  0  0  0  0  0  0  0  0
   12.0618   19.7205   40.1554 N   0  0  0  0  0  0  0  0  0  0  0  0
   13.9146   20.6291   38.7906 C   0  0  1  0  0  0  0  0  0  0  0  0
   14.6991   19.4446   39.0099 O   0  0  0  0  0  0  0  0  0  0  0  0
   14.2154   21.2082   37.3926 C   0  0  2  0  0  0  0  0  0  0  0  0
   15.6093   21.5521   37.3154 O   0  0  0  0  0  0  0  0  0  0  0  0
   13.3431   22.4861   37.1955 C   0  0  2  0  0  0  0  0  0  0  0  0
   11.9248   22.1578   37.2875 O   0  0  0  0  0  0  0  0  0  0  0  0
   13.5812   23.1049   35.8084 C   0  0  0  0  0  0  0  0  0  0  0  0
   14.9552   23.5029   35.6573 O   0  0  0  0  0  0  0  0  0  0  0  0
  1  2  1  6  0  0  0
  1  3  1  0  0  0  0
  1  4  2  0  0  0  0
  1 16  1  0  0  0  0
  5  6  1  1  0  0  0
  5  7  1  0  0  0  0
  5 14  1  0  0  0  0
  7  8  1  1  0  0  0
  7  9  1  0  0  0  0
  9 10  1  6  0  0  0
  9 11  1  0  0  0  0
 11 12  1  1  0  0  0
 11 13  1  0  0  0  0
 13 14  1  0  0  0  0
 13 15  1  6  0  0  0
 15 16  1  0  0  0  0
M  CHG  1   3  -1
M  END
>  <CHROM.1>
-61.20833921,178.50177355,-173.12351509,13.94263287,22.38573921,36.67581338
-1.15635774,-0.42172805,2.35313317

>  <Name>
ligand

>  <RI>
0

>  <Rbt.Current_Directory>
/home/itssahil/PROJECTS/Mol_Feturizer/New_Systems/rnas/3B4A

>  <Rbt.Executable>
rbdock ($Id: //depot/dev/client3/rdock/2013.1/src/exe/rbdock.cxx#4 $)

>  <Rbt.Library>
libRbt.so (2013.1, Build901 2013/11/27)

>  <Rbt.Parameter_File>
/export/apps/rDock/src/rDock_2013.1_src/data/scripts/dock_solv.prm

>  <Rbt.Receptor>
prm/blind_docking_60.prm

>  <SCORE>
-4.8795

>  <SCORE.INTER>
-3.82799

>  <SCORE.INTER.CONST>
1

>  <SCORE.INTER.POLAR>
0

>  <SCORE.INTER.ROT>
3

>  <SCORE.INTER.SOLV>
9.92539

>  <SCORE.INTER.VDW>
-11.4605

>  <SCORE.INTER.norm>
-0.239249

>  <SCORE.INTRA>
-1.10638

>  <SCORE.INTRA.DIHEDRAL>
-1.96443

>  <SCORE.INTRA.DIHEDRAL.0>
2.05999

>  <SCORE.INTRA.POLAR>
0

>  <SCORE.INTRA.POLAR.0>
0

>  <SCORE.INTRA.REPUL>
0

>  <SCORE.INTRA.REPUL.0>
0

>  <SCORE.INTRA.SOLV>
0.0145237

>  <SCORE.INTRA.SOLV.lig_0>
-58.7001

>  <SCORE.INTRA.VDW>
-0.131427

>  <SCORE.INTRA.VDW.0>
-0.401036

>  <SCORE.INTRA.norm>
-0.0691488

>  <SCORE.RESTR>
0.0548697

>  <SCORE.RESTR.CAVITY>
0.0548697

>  <SCORE.RESTR.norm>
0.00342936

>  <SCORE.SYSTEM>
0

>  <SCORE.SYSTEM.CONST>
0

>  <SCORE.SYSTEM.DIHEDRAL>
0

>  <SCORE.SYSTEM.SOLV>
0

>  <SCORE.SYSTEM.norm>
0

>  <SCORE.heavy>
16

>  <SCORE.norm>
-0.304969

>  <RMSD>
40.392

$$$$
ligand
 OpenBabel11021811463D
libRbt.so/2013.1/901 2013/11/27
 16 16  0  0  0  0  0  0  0  0999 V2000
   15.5090   23.0091   33.7723 P   0  0  2  0  0  0  0  0  0  0  0  0
   16.0886   24.3150   34.1738 O   0  0  0  0  0  0  0  0  0  0  0  0
   16.6183   21.8544   33.9649 O   0  5  0  0  0  0  0  0  0  0  0  0
   15.0608   23.0928   32.2201 O   0  0  0  0  0  0  0  0  0  0  0  0
   13.0561   20.9893   39.0991 C   0  0  2  0  0  0  0  0  0  0  0  0
   12.2815   19.9303   38.4917 O   0  0  0  0  0  0  0  0  0  0  0  0
   12.1461   22.1868   39.4989 C   0  0  2  0  0  0  0  0  0  0  0  0
   11.1019   21.7231   40.4310 N   0  0  0  0  0  0  0  0  0  0  0  0
   11.4972   22.7636   38.2215 C   0  0  1  0  0  0  0  0  0  0  0  0
   10.6543   23.8778   38.5600 O   0  0  0  0  0  0  0  0  0  0  0  0
   12.6361   23.2291   37.2906 C   0  0  2  0  0  0  0  0  0  0  0  0
   12.0681   23.7666   36.0841 O   0  0  0  0  0  0  0  0  0  0  0  0
   13.5257   21.9935   36.9521 C   0  0  2  0  0  0  0  0  0  0  0  0
   14.0974   21.4249   38.1678 O   0  0  0  0  0  0  0  0  0  0  0  0
   14.6962   22.3931   36.0389 C   0  0  0  0  0  0  0  0  0  0  0  0
   14.2278   22.6923   34.7121 O   0  0  0  0  0  0  0  0  0  0  0  0
  1  2  1  1  0  0  0
  1  3  1  0  0  0  0
  1  4  2  0  0  0  0
  1 16  1  0  0  0  0
  5  6  1  6  0  0  0
  5  7  1  0  0  0  0
  5 14  1  0  0  0  0
  7  8  1  1  0  0  0
  7  9  1  0  0  0  0
  9 10  1  1  0  0  0
  9 11  1  0  0  0  0
 11 12  1  6  0  0  0
 11 13  1  0  0  0  0
 13 14  1  0  0  0  0
 13 15  1  6  0  0  0
 15 16  1  0  0  0  0
M  CHG  1   3  -1
M  END
>  <CHROM.1>
-71.52363796,-176.26849986,-70.67782048,13.63712808,22.50491142,36.44276122
-0.76871669,-0.66230019,2.32651556

>  <Name>
ligand

>  <RI>
0

>  <Rbt.Current_Directory>
/home/itssahil/PROJECTS/Mol_Feturizer/New_Systems/rnas/3B4A

>  <Rbt.Executable>
rbdock ($Id: //depot/dev/client3/rdock/2013.1/src/exe/rbdock.cxx#4 $)

>  <Rbt.Library>
libRbt.so (2013.1, Build901 2013/11/27)

>  <Rbt.Parameter_File>
/export/apps/rDock/src/rDock_2013.1_src/data/scripts/dock_solv.prm

>  <Rbt.Receptor>
prm/blind_docking_60.prm

>  <SCORE>
-3.06208

>  <SCORE.INTER>
-1.94499

>  <SCORE.INTER.CONST>
1

>  <SCORE.INTER.POLAR>
0

>  <SCORE.INTER.ROT>
3

>  <SCORE.INTER.SOLV>
12.7024

>  <SCORE.INTER.VDW>
-11.1308

>  <SCORE.INTER.norm>
-0.121562

>  <SCORE.INTRA>
-1.11709

>  <SCORE.INTRA.DIHEDRAL>
-1.34413

>  <SCORE.INTRA.DIHEDRAL.0>
2.05999

>  <SCORE.INTRA.POLAR>
0

>  <SCORE.INTRA.POLAR.0>
0

>  <SCORE.INTRA.REPUL>
0

>  <SCORE.INTRA.REPUL.0>
0

>  <SCORE.INTRA.SOLV>
-0.649768

>  <SCORE.INTRA.SOLV.lig_0>
-58.7001

>  <SCORE.INTRA.VDW>
-0.12014

>  <SCORE.INTRA.VDW.0>
-0.401036

>  <SCORE.INTRA.norm>
-0.0698181

>  <SCORE.RESTR>
0

>  <SCORE.RESTR.CAVITY>
0

>  <SCORE.RESTR.norm>
0

>  <SCORE.SYSTEM>
0

>  <SCORE.SYSTEM.CONST>
0

>  <SCORE.SYSTEM.DIHEDRAL>
0

>  <SCORE.SYSTEM.SOLV>
0

>  <SCORE.SYSTEM.norm>
0

>  <SCORE.heavy>
16

>  <SCORE.norm>
-0.19138

>  <RMSD>
40.621

$$$$
ligand
 OpenBabel11021811463D
libRbt.so/2013.1/901 2013/11/27
 16 16  0  0  0  0  0  0  0  0999 V2000
   12.2988   21.1257   38.8993 P   0  0  2  0  0  0  0  0  0  0  0  0
   13.7480   21.0443   38.5900 O   0  0  0  0  0  0  0  0  0  0  0  0
   12.0439   22.3383   39.9316 O   0  5  0  0  0  0  0  0  0  0  0  0
   11.8277   19.7267   39.5614 O   0  0  0  0  0  0  0  0  0  0  0  0
   14.1214   21.3364   34.2854 C   0  0  2  0  0  0  0  0  0  0  0  0
   15.1542   20.7328   35.0972 O   0  0  0  0  0  0  0  0  0  0  0  0
   14.6170   22.6692   33.6527 C   0  0  2  0  0  0  0  0  0  0  0  0
   15.8179   22.4113   32.8369 N   0  0  0  0  0  0  0  0  0  0  0  0
   14.9513   23.6617   34.7878 C   0  0  1  0  0  0  0  0  0  0  0  0
   15.4065   24.9069   34.2320 O   0  0  0  0  0  0  0  0  0  0  0  0
   13.6607   23.8895   35.6019 C   0  0  2  0  0  0  0  0  0  0  0  0
   13.9365   24.8054   36.6754 O   0  0  0  0  0  0  0  0  0  0  0  0
   13.2009   22.5167   36.1823 C   0  0  2  0  0  0  0  0  0  0  0  0
   12.9325   21.5693   35.1061 O   0  0  0  0  0  0  0  0  0  0  0  0
   11.9033   22.6698   36.9924 C   0  0  0  0  0  0  0  0  0  0  0  0
   11.4838   21.4017   37.5266 O   0  0  0  0  0  0  0  0  0  0  0  0
  1  2  1  6  0  0  0
  1  3  1  0  0  0  0
  1  4  2  0  0  0  0
  1 16  1  0  0  0  0
  5  6  1  1  0  0  0
  5  7  1  0  0  0  0
  5 14  1  0  0  0  0
  7  8  1  1  0  0  0
  7  9  1  0  0  0  0
  9 10  1  6  0  0  0
  9 11  1  0  0  0  0
 11 12  1  1  0  0  0
 11 13  1  0  0  0  0
 13 14  1  0  0  0  0
 13 15  1  6  0  0  0
 15 16  1  0  0  0  0
M  CHG  1   3  -1
M  END
>  <CHROM.1>
-179.94803876,83.01930943,-62.30242875,13.45685332,22.19641280,36.50562565
-2.92548068,1.06904806,0.14831509

>  <Name>
ligand

>  <RI>
0

>  <Rbt.Current_Directory>
/home/itssahil/PROJECTS/Mol_Feturizer/New_Systems/rnas/3B4A

>  <Rbt.Executable>
rbdock ($Id: //depot/dev/client3/rdock/2013.1/src/exe/rbdock.cxx#4 $)

>  <Rbt.Library>
libRbt.so (2013.1, Build901 2013/11/27)

>  <Rbt.Parameter_File>
/export/apps/rDock/src/rDock_2013.1_src/data/scripts/dock_solv.prm

>  <Rbt.Receptor>
prm/blind_docking_60.prm

>  <SCORE>
-1.91068

>  <SCORE.INTER>
-1.63707

>  <SCORE.INTER.CONST>
1

>  <SCORE.INTER.POLAR>
0

>  <SCORE.INTER.ROT>
3

>  <SCORE.INTER.SOLV>
10.9553

>  <SCORE.INTER.VDW>
-10.3431

>  <SCORE.INTER.norm>
-0.102317

>  <SCORE.INTRA>
-0.273616

>  <SCORE.INTRA.DIHEDRAL>
0.264387

>  <SCORE.INTRA.DIHEDRAL.0>
2.05999

>  <SCORE.INTRA.POLAR>
0

>  <SCORE.INTRA.POLAR.0>
0

>  <SCORE.INTRA.REPUL>
0

>  <SCORE.INTRA.REPUL.0>
0

>  <SCORE.INTRA.SOLV>
-0.164864

>  <SCORE.INTRA.SOLV.lig_0>
-58.7001

>  <SCORE.INTRA.VDW>
-0.323377

>  <SCORE.INTRA.VDW.0>
-0.401036

>  <SCORE.INTRA.norm>
-0.017101

>  <SCORE.RESTR>
0

>  <SCORE.RESTR.CAVITY>
0

>  <SCORE.RESTR.norm>
0

>  <SCORE.SYSTEM>
0

>  <SCORE.SYSTEM.CONST>
0

>  <SCORE.SYSTEM.DIHEDRAL>
0

>  <SCORE.SYSTEM.SOLV>
0

>  <SCORE.SYSTEM.norm>
0

>  <SCORE.heavy>
16

>  <SCORE.norm>
-0.119418

>  <RMSD>
41.014

$$$$
ligand
 OpenBabel11021811463D
libRbt.so/2013.1/901 2013/11/27
 16 16  0  0  0  0  0  0  0  0999 V2000
   10.3259   25.8816   37.3768 P   0  0  2  0  0  0  0  0  0  0  0  0
    9.6667   25.5968   36.0780 O   0  0  0  0  0  0  0  0  0  0  0  0
    9.3107   25.5216   38.5772 O   0  5  0  0  0  0  0  0  0  0  0  0
   10.7136   27.4513   37.4317 O   0  0  0  0  0  0  0  0  0  0  0  0
   13.9161   21.7387   36.3854 C   0  0  2  0  0  0  0  0  0  0  0  0
   14.8775   21.8915   37.4544 O   0  0  0  0  0  0  0  0  0  0  0  0
   14.6228   21.7158   34.9990 C   0  0  2  0  0  0  0  0  0  0  0  0
   15.6017   20.6137   34.9625 N   0  0  0  0  0  0  0  0  0  0  0  0
   15.3392   23.0674   34.7861 C   0  0  1  0  0  0  0  0  0  0  0  0
   15.9968   23.0778   33.5078 O   0  0  0  0  0  0  0  0  0  0  0  0
   14.2665   24.1754   34.8350 C   0  0  2  0  0  0  0  0  0  0  0  0
   14.8999   25.4524   34.6475 O   0  0  0  0  0  0  0  0  0  0  0  0
   13.5776   24.1264   36.2334 C   0  0  2  0  0  0  0  0  0  0  0  0
   12.9434   22.8302   36.4473 O   0  0  0  0  0  0  0  0  0  0  0  0
   12.4798   25.1972   36.3426 C   0  0  0  0  0  0  0  0  0  0  0  0
   11.6580   24.9678   37.5008 O   0  0  0  0  0  0  0  0  0  0  0  0
  1  2  1  6  0  0  0
  1  3  1  0  0  0  0
  1  4  2  0  0  0  0
  1 16  1  0  0  0  0
  5  6  1  1  0  0  0
  5  7  1  0  0  0  0
  5 14  1  0  0  0  0
  7  8  1  1  0  0  0
  7  9  1  0  0  0  0
  9 10  1  6  0  0  0
  9 11  1  0  0  0  0
 11 12  1  1  0  0  0
 11 13  1  0  0  0  0
 13 14  1  0  0  0  0
 13 15  1  6  0  0  0
 15 16  1  0  0  0  0
M  CHG  1   3  -1
M  END
>  <CHROM.1>
167.48327391,-166.41955316,54.30043505,12.88456650,24.14629543,36.21931515
2.80938061,0.65542061,-0.47774444

>  <Name>
ligand

>  <RI>
0

>  <Rbt.Current_Directory>
/home/itssahil/PROJECTS/Mol_Feturizer/New_Systems/rnas/3B4A

>  <Rbt.Executable>
rbdock ($Id: //depot/dev/client3/rdock/2013.1/src/exe/rbdock.cxx#4 $)

>  <Rbt.Library>
libRbt.so (2013.1, Build901 2013/11/27)

>  <Rbt.Parameter_File>
/export/apps/rDock/src/rDock_2013.1_src/data/scripts/dock_solv.prm

>  <Rbt.Receptor>
prm/blind_docking_60.prm

>  <SCORE>
-6.45675

>  <SCORE.INTER>
-5.64071

>  <SCORE.INTER.CONST>
1

>  <SCORE.INTER.POLAR>
0

>  <SCORE.INTER.ROT>
3

>  <SCORE.INTER.SOLV>
13.1393

>  <SCORE.INTER.VDW>
-13.7402

>  <SCORE.INTER.norm>
-0.352545

>  <SCORE.INTRA>
-0.817743

>  <SCORE.INTRA.DIHEDRAL>
-0.589205

>  <SCORE.INTRA.DIHEDRAL.0>
2.05999

>  <SCORE.INTRA.POLAR>
0

>  <SCORE.INTRA.POLAR.0>
0

>  <SCORE.INTRA.REPUL>
0

>  <SCORE.INTRA.REPUL.0>
0

>  <SCORE.INTRA.SOLV>
-1.05644

>  <SCORE.INTRA.SOLV.lig_0>
-58.7001

>  <SCORE.INTRA.VDW>
0.00507898

>  <SCORE.INTRA.VDW.0>
-0.401036

>  <SCORE.INTRA.norm>
-0.0511089

>  <SCORE.RESTR>
0.00170683

>  <SCORE.RESTR.CAVITY>
0.00170683

>  <SCORE.RESTR.norm>
0.000106677

>  <SCORE.SYSTEM>
0

>  <SCORE.SYSTEM.CONST>
0

>  <SCORE.SYSTEM.DIHEDRAL>
0

>  <SCORE.SYSTEM.SOLV>
0

>  <SCORE.SYSTEM.norm>
0

>  <SCORE.heavy>
16

>  <SCORE.norm>
-0.403547

>  <RMSD>
41.022

$$$$
ligand
 OpenBabel11021811463D
libRbt.so/2013.1/901 2013/11/27
 16 16  0  0  0  0  0  0  0  0999 V2000
   10.3255   25.9100   37.3710 P   0  0  2  0  0  0  0  0  0  0  0  0
    9.4056   25.5507   38.4787 O   0  0  0  0  0  0  0  0  0  0  0  0
   10.7204   27.4689   37.4936 O   0  5  0  0  0  0  0  0  0  0  0  0
    9.5772   25.6376   35.9627 O   0  0  0  0  0  0  0  0  0  0  0  0
   13.9234   21.7581   36.3940 C   0  0  2  0  0  0  0  0  0  0  0  0
   14.8977   21.9432   37.4460 O   0  0  0  0  0  0  0  0  0  0  0  0
   14.6112   21.7123   34.9987 C   0  0  2  0  0  0  0  0  0  0  0  0
   15.6005   20.6193   34.9721 N   0  0  0  0  0  0  0  0  0  0  0  0
   15.3110   23.0660   34.7471 C   0  0  1  0  0  0  0  0  0  0  0  0
   15.9509   23.0553   33.4599 O   0  0  0  0  0  0  0  0  0  0  0  0
   14.2280   24.1642   34.7872 C   0  0  2  0  0  0  0  0  0  0  0  0
   14.8459   25.4431   34.5638 O   0  0  0  0  0  0  0  0  0  0  0  0
   13.5588   24.1385   36.1958 C   0  0  2  0  0  0  0  0  0  0  0  0
   12.9407   22.8411   36.4461 O   0  0  0  0  0  0  0  0  0  0  0  0
   12.4519   25.2006   36.2974 C   0  0  0  0  0  0  0  0  0  0  0  0
   11.6623   25.0016   37.4833 O   0  0  0  0  0  0  0  0  0  0  0  0
  1  2  1  1  0  0  0
  1  3  1  0  0  0  0
  1  4  2  0  0  0  0
  1 16  1  0  0  0  0
  5  6  1  1  0  0  0
  5  7  1  0  0  0  0
  5 14  1  0  0  0  0
  7  8  1  1  0  0  0
  7  9  1  0  0  0  0
  9 10  1  6  0  0  0
  9 11  1  0  0  0  0
 11 12  1  1  0  0  0
 11 13  1  0  0  0  0
 13 14  1  0  0  0  0
 13 15  1  6  0  0  0
 15 16  1  0  0  0  0
M  CHG  1   3  -1
M  END
>  <CHROM.1>
168.44568291,-167.08330468,171.05327669,12.87407282,24.16072828,36.19089966
2.82752158,0.66887406,-0.51902373

>  <Name>
ligand

>  <RI>
0

>  <Rbt.Current_Directory>
/home/itssahil/PROJECTS/Mol_Feturizer/New_Systems/rnas/3B4A

>  <Rbt.Executable>
rbdock ($Id: //depot/dev/client3/rdock/2013.1/src/exe/rbdock.cxx#4 $)

>  <Rbt.Library>
libRbt.so (2013.1, Build901 2013/11/27)

>  <Rbt.Parameter_File>
/export/apps/rDock/src/rDock_2013.1_src/data/scripts/dock_solv.prm

>  <Rbt.Receptor>
prm/blind_docking_60.prm

>  <SCORE>
-5.83138

>  <SCORE.INTER>
-5.1604

>  <SCORE.INTER.CONST>
1

>  <SCORE.INTER.POLAR>
0

>  <SCORE.INTER.ROT>
3

>  <SCORE.INTER.SOLV>
14

>  <SCORE.INTER.VDW>
-13.7069

>  <SCORE.INTER.norm>
-0.322525

>  <SCORE.INTRA>
-0.671523

>  <SCORE.INTRA.DIHEDRAL>
-0.671177

>  <SCORE.INTRA.DIHEDRAL.0>
2.05999

>  <SCORE.INTRA.POLAR>
0

>  <SCORE.INTRA.POLAR.0>
0

>  <SCORE.INTRA.REPUL>
0

>  <SCORE.INTRA.REPUL.0>
0

>  <SCORE.INTRA.SOLV>
-0.291416

>  <SCORE.INTRA.SOLV.lig_0>
-58.7001

>  <SCORE.INTRA.VDW>
-0.190227

>  <SCORE.INTRA.VDW.0>
-0.401036

>  <SCORE.INTRA.norm>
-0.0419702

>  <SCORE.RESTR>
0.000549834

>  <SCORE.RESTR.CAVITY>
0.000549834

>  <SCORE.RESTR.norm>
3.43646e-05

>  <SCORE.SYSTEM>
0

>  <SCORE.SYSTEM.CONST>
0

>  <SCORE.SYSTEM.DIHEDRAL>
0

>  <SCORE.SYSTEM.SOLV>
0

>  <SCORE.SYSTEM.norm>
0

>  <SCORE.heavy>
16

>  <SCORE.norm>
-0.364461

>  <RMSD>
41.031

$$$$
ligand
 OpenBabel11021811463D
libRbt.so/2013.1/901 2013/11/27
 16 16  0  0  0  0  0  0  0  0999 V2000
   12.2575   20.8297   38.6247 P   0  0  2  0  0  0  0  0  0  0  0  0
   11.6402   19.5727   39.1160 O   0  0  0  0  0  0  0  0  0  0  0  0
   13.7827   20.5371   38.1899 O   0  5  0  0  0  0  0  0  0  0  0  0
   12.2214   21.9273   39.8127 O   0  0  0  0  0  0  0  0  0  0  0  0
   14.0920   21.3157   34.1714 C   0  0  2  0  0  0  0  0  0  0  0  0
   15.1023   20.6360   34.9510 O   0  0  0  0  0  0  0  0  0  0  0  0
   14.6419   22.6496   33.5878 C   0  0  2  0  0  0  0  0  0  0  0  0
   15.8254   22.3721   32.7532 N   0  0  0  0  0  0  0  0  0  0  0  0
   15.0261   23.5810   34.7584 C   0  0  1  0  0  0  0  0  0  0  0  0
   15.5321   24.8261   34.2484 O   0  0  0  0  0  0  0  0  0  0  0  0
   13.7515   23.8324   35.5907 C   0  0  2  0  0  0  0  0  0  0  0  0
   14.0737   24.6922   36.6971 O   0  0  0  0  0  0  0  0  0  0  0  0
   13.2356   22.4591   36.1202 C   0  0  2  0  0  0  0  0  0  0  0  0
   12.9194   21.5675   35.0098 O   0  0  0  0  0  0  0  0  0  0  0  0
   11.9507   22.6363   36.9457 C   0  0  0  0  0  0  0  0  0  0  0  0
   11.4203   21.3595   37.3428 O   0  0  0  0  0  0  0  0  0  0  0  0
  1  2  1  1  0  0  0
  1  3  1  0  0  0  0
  1  4  2  0  0  0  0
  1 16  1  0  0  0  0
  5  6  1  1  0  0  0
  5  7  1  0  0  0  0
  5 14  1  0  0  0  0
  7  8  1  6  0  0  0
  7  9  1  0  0  0  0
  9 10  1  6  0  0  0
  9 11  1  0  0  0  0
 11 12  1  1  0  0  0
 11 13  1  0  0  0  0
 13 14  1  0  0  0  0
 13 15  1  6  0  0  0
 15 16  1  0  0  0  0
M  CHG  1   3  -1
M  END
>  <CHROM.1>
175.45134987,79.77508915,174.98540329,13.47501363,22.05453347,36.36424773
-2.95023183,1.04864629,0.23877513

>  <Name>
ligand

>  <RI>
0

>  <Rbt.Current_Directory>
/home/itssahil/PROJECTS/Mol_Feturizer/New_Systems/rnas/3B4A

>  <Rbt.Executable>
rbdock ($Id: //depot/dev/client3/rdock/2013.1/src/exe/rbdock.cxx#4 $)

>  <Rbt.Library>
libRbt.so (2013.1, Build901 2013/11/27)

>  <Rbt.Parameter_File>
/export/apps/rDock/src/rDock_2013.1_src/data/scripts/dock_solv.prm

>  <Rbt.Receptor>
prm/blind_docking_60.prm

>  <SCORE>
-1.41457

>  <SCORE.INTER>
-2.17732

>  <SCORE.INTER.CONST>
1

>  <SCORE.INTER.POLAR>
0

>  <SCORE.INTER.ROT>
3

>  <SCORE.INTER.SOLV>
10.0044

>  <SCORE.INTER.VDW>
-10.3863

>  <SCORE.INTER.norm>
-0.136083

>  <SCORE.INTRA>
0.762747

>  <SCORE.INTRA.DIHEDRAL>
-0.18005

>  <SCORE.INTRA.DIHEDRAL.0>
2.05999

>  <SCORE.INTRA.POLAR>
0

>  <SCORE.INTRA.POLAR.0>
0

>  <SCORE.INTRA.REPUL>
0

>  <SCORE.INTRA.REPUL.0>
0

>  <SCORE.INTRA.SOLV>
2.66634

>  <SCORE.INTRA.SOLV.lig_0>
-58.7001

>  <SCORE.INTRA.VDW>
-0.480396

>  <SCORE.INTRA.VDW.0>
-0.401036

>  <SCORE.INTRA.norm>
0.0476717

>  <SCORE.RESTR>
0

>  <SCORE.RESTR.CAVITY>
0

>  <SCORE.RESTR.norm>
0

>  <SCORE.SYSTEM>
0

>  <SCORE.SYSTEM.CONST>
0

>  <SCORE.SYSTEM.DIHEDRAL>
0

>  <SCORE.SYSTEM.SOLV>
0

>  <SCORE.SYSTEM.norm>
0

>  <SCORE.heavy>
16

>  <SCORE.norm>
-0.0884108

>  <RMSD>
41.095

$$$$
ligand
 OpenBabel11021811463D
libRbt.so/2013.1/901 2013/11/27
 16 16  0  0  0  0  0  0  0  0999 V2000
   11.9176   21.7659   40.2623 P   0  0  2  0  0  0  0  0  0  0  0  0
   13.3172   21.3311   40.4961 O   0  0  0  0  0  0  0  0  0  0  0  0
   11.4098   22.6241   41.5299 O   0  5  0  0  0  0  0  0  0  0  0  0
   10.9890   20.4547   40.0737 O   0  0  0  0  0  0  0  0  0  0  0  0
   14.0124   24.5777   35.8356 C   0  0  2  0  0  0  0  0  0  0  0  0
   12.8822   25.4407   35.5750 O   0  0  0  0  0  0  0  0  0  0  0  0
   14.4066   23.7751   34.5619 C   0  0  2  0  0  0  0  0  0  0  0  0
   14.7245   24.7111   33.4677 N   0  0  0  0  0  0  0  0  0  0  0  0
   13.2198   22.8726   34.1585 C   0  0  1  0  0  0  0  0  0  0  0  0
   13.5582   22.1127   32.9861 O   0  0  0  0  0  0  0  0  0  0  0  0
   12.9369   21.9205   35.3391 C   0  0  2  0  0  0  0  0  0  0  0  0
   11.8297   21.0678   35.0014 O   0  0  0  0  0  0  0  0  0  0  0  0
   12.5785   22.7841   36.5875 C   0  0  2  0  0  0  0  0  0  0  0  0
   13.6858   23.6681   36.9344 O   0  0  0  0  0  0  0  0  0  0  0  0
   12.3025   21.8939   37.8102 C   0  0  0  0  0  0  0  0  0  0  0  0
   11.8696   22.6865   38.9299 O   0  0  0  0  0  0  0  0  0  0  0  0
  1  2  1  1  0  0  0
  1  3  1  0  0  0  0
  1  4  2  0  0  0  0
  1 16  1  0  0  0  0
  5  6  1  6  0  0  0
  5  7  1  0  0  0  0
  5 14  1  0  0  0  0
  7  8  1  6  0  0  0
  7  9  1  0  0  0  0
  9 10  1  6  0  0  0
  9 11  1  0  0  0  0
 11 12  1  6  0  0  0
 11 13  1  0  0  0  0
 13 14  1  0  0  0  0
 13 15  1  1  0  0  0
 15 16  1  0  0  0  0
M  CHG  1   3  -1
M  END
>  <CHROM.1>
-175.43743554,-167.33558469,61.66833977,12.75230728,22.63707962,37.16053360
-2.30298426,-1.14239242,-1.96850954

>  <Name>
ligand

>  <RI>
0

>  <Rbt.Current_Directory>
/home/itssahil/PROJECTS/Mol_Feturizer/New_Systems/rnas/3B4A

>  <Rbt.Executable>
rbdock ($Id: //depot/dev/client3/rdock/2013.1/src/exe/rbdock.cxx#4 $)

>  <Rbt.Library>
libRbt.so (2013.1, Build901 2013/11/27)

>  <Rbt.Parameter_File>
/export/apps/rDock/src/rDock_2013.1_src/data/scripts/dock_solv.prm

>  <Rbt.Receptor>
prm/blind_docking_60.prm

>  <SCORE>
-3.65739

>  <SCORE.INTER>
-2.3949

>  <SCORE.INTER.CONST>
1

>  <SCORE.INTER.POLAR>
0

>  <SCORE.INTER.ROT>
3

>  <SCORE.INTER.SOLV>
9.86269

>  <SCORE.INTER.VDW>
-10.4842

>  <SCORE.INTER.norm>
-0.149681

>  <SCORE.INTRA>
-1.26265

>  <SCORE.INTRA.DIHEDRAL>
-1.21376

>  <SCORE.INTRA.DIHEDRAL.0>
2.05999

>  <SCORE.INTRA.POLAR>
0

>  <SCORE.INTRA.POLAR.0>
0

>  <SCORE.INTRA.REPUL>
0

>  <SCORE.INTRA.REPUL.0>
0

>  <SCORE.INTRA.SOLV>
-1.03192

>  <SCORE.INTRA.SOLV.lig_0>
-58.7001

>  <SCORE.INTRA.VDW>
-0.139814

>  <SCORE.INTRA.VDW.0>
-0.401036

>  <SCORE.INTRA.norm>
-0.0789158

>  <SCORE.RESTR>
0.000161047

>  <SCORE.RESTR.CAVITY>
0.000161047

>  <SCORE.RESTR.norm>
1.00654e-05

>  <SCORE.SYSTEM>
0

>  <SCORE.SYSTEM.CONST>
0

>  <SCORE.SYSTEM.DIHEDRAL>
0

>  <SCORE.SYSTEM.SOLV>
0

>  <SCORE.SYSTEM.norm>
0

>  <SCORE.heavy>
16

>  <SCORE.norm>
-0.228587

>  <RMSD>
41.265

$$$$
ligand
 OpenBabel11021811463D
libRbt.so/2013.1/901 2013/11/27
 16 16  0  0  0  0  0  0  0  0999 V2000
   10.6641   26.7314   36.9203 P   0  0  2  0  0  0  0  0  0  0  0  0
    9.5640   26.6216   37.9104 O   0  0  0  0  0  0  0  0  0  0  0  0
   11.3028   28.2103   36.9986 O   0  5  0  0  0  0  0  0  0  0  0  0
   10.0634   26.4654   35.4419 O   0  0  0  0  0  0  0  0  0  0  0  0
   12.4238   20.8965   38.1354 C   0  0  2  0  0  0  0  0  0  0  0  0
   13.3905   21.1920   39.1691 O   0  0  0  0  0  0  0  0  0  0  0  0
   13.1300   20.5912   36.7825 C   0  0  2  0  0  0  0  0  0  0  0  0
   14.0535   19.4545   36.9536 N   0  0  0  0  0  0  0  0  0  0  0  0
   13.9122   21.8466   36.3380 C   0  0  1  0  0  0  0  0  0  0  0  0
   14.5708   21.5958   35.0851 O   0  0  0  0  0  0  0  0  0  0  0  0
   12.8953   22.9957   36.1772 C   0  0  2  0  0  0  0  0  0  0  0  0
   13.5909   24.1864   35.7702 O   0  0  0  0  0  0  0  0  0  0  0  0
   12.2033   23.2317   37.5549 C   0  0  2  0  0  0  0  0  0  0  0  0
   11.5059   22.0270   37.9912 O   0  0  0  0  0  0  0  0  0  0  0  0
   11.1595   24.3563   37.4598 C   0  0  0  0  0  0  0  0  0  0  0  0
   11.7997   25.6310   37.2732 O   0  0  0  0  0  0  0  0  0  0  0  0
  1  2  1  1  0  0  0
  1  3  1  0  0  0  0
  1  4  2  0  0  0  0
  1 16  1  0  0  0  0
  5  6  1  1  0  0  0
  5  7  1  0  0  0  0
  5 14  1  0  0  0  0
  7  8  1  1  0  0  0
  7  9  1  0  0  0  0
  9 10  1  6  0  0  0
  9 11  1  0  0  0  0
 11 12  1  1  0  0  0
 11 13  1  0  0  0  0
 13 14  1  0  0  0  0
 13 15  1  6  0  0  0
 15 16  1  0  0  0  0
M  CHG  1   3  -1
M  END
>  <CHROM.1>
-69.60115896,170.16233631,49.28507002,12.12546935,23.81319917,36.98972659
2.28569086,0.83142323,-0.59757432

>  <Name>
ligand

>  <RI>
0

>  <Rbt.Current_Directory>
/home/itssahil/PROJECTS/Mol_Feturizer/New_Systems/rnas/3B4A

>  <Rbt.Executable>
rbdock ($Id: //depot/dev/client3/rdock/2013.1/src/exe/rbdock.cxx#4 $)

>  <Rbt.Library>
libRbt.so (2013.1, Build901 2013/11/27)

>  <Rbt.Parameter_File>
/export/apps/rDock/src/rDock_2013.1_src/data/scripts/dock_solv.prm

>  <Rbt.Receptor>
prm/blind_docking_60.prm

>  <SCORE>
-1.87616

>  <SCORE.INTER>
-1.07822

>  <SCORE.INTER.CONST>
1

>  <SCORE.INTER.POLAR>
0

>  <SCORE.INTER.ROT>
3

>  <SCORE.INTER.SOLV>
14.306

>  <SCORE.INTER.VDW>
-11.0875

>  <SCORE.INTER.norm>
-0.0673889

>  <SCORE.INTRA>
-0.797932

>  <SCORE.INTRA.DIHEDRAL>
-1.08321

>  <SCORE.INTRA.DIHEDRAL.0>
2.05999

>  <SCORE.INTRA.POLAR>
0

>  <SCORE.INTRA.POLAR.0>
0

>  <SCORE.INTRA.REPUL>
0

>  <SCORE.INTRA.REPUL.0>
0

>  <SCORE.INTRA.SOLV>
-0.48758

>  <SCORE.INTRA.SOLV.lig_0>
-58.7001

>  <SCORE.INTRA.VDW>
-0.0125391

>  <SCORE.INTRA.VDW.0>
-0.401036

>  <SCORE.INTRA.norm>
-0.0498708

>  <SCORE.RESTR>
0

>  <SCORE.RESTR.CAVITY>
0

>  <SCORE.RESTR.norm>
0

>  <SCORE.SYSTEM>
0

>  <SCORE.SYSTEM.CONST>
0

>  <SCORE.SYSTEM.DIHEDRAL>
0

>  <SCORE.SYSTEM.SOLV>
0

>  <SCORE.SYSTEM.norm>
0

>  <SCORE.heavy>
16

>  <SCORE.norm>
-0.11726

>  <RMSD>
41.438

$$$$
ligand
 OpenBabel11021811463D
libRbt.so/2013.1/901 2013/11/27
 16 16  0  0  0  0  0  0  0  0999 V2000
   10.5171   26.1300   37.1705 P   0  0  2  0  0  0  0  0  0  0  0  0
    9.1415   25.6031   36.9903 O   0  0  0  0  0  0  0  0  0  0  0  0
   10.4579   27.4757   38.0575 O   0  5  0  0  0  0  0  0  0  0  0  0
   11.1462   26.4534   35.7155 O   0  0  0  0  0  0  0  0  0  0  0  0
   11.9122   21.2456   39.6981 C   0  0  2  0  0  0  0  0  0  0  0  0
   13.1508   21.6732   40.3092 O   0  0  0  0  0  0  0  0  0  0  0  0
   12.1349   19.9902   38.8058 C   0  0  2  0  0  0  0  0  0  0  0  0
   12.7015   18.8999   39.6208 N   0  0  0  0  0  0  0  0  0  0  0  0
   13.1089   20.3599   37.6655 C   0  0  1  0  0  0  0  0  0  0  0  0
   13.3287   19.2187   36.8193 O   0  0  0  0  0  0  0  0  0  0  0  0
   12.4623   21.5008   36.8528 C   0  0  2  0  0  0  0  0  0  0  0  0
   13.3469   21.8774   35.7838 O   0  0  0  0  0  0  0  0  0  0  0  0
   12.2388   22.7140   37.8072 C   0  0  2  0  0  0  0  0  0  0  0  0
   11.3558   22.3445   38.9079 O   0  0  0  0  0  0  0  0  0  0  0  0
   11.5767   23.8844   37.0619 C   0  0  0  0  0  0  0  0  0  0  0  0
   11.4102   25.0153   37.9351 O   0  0  0  0  0  0  0  0  0  0  0  0
  1  2  1  6  0  0  0
  1  3  1  0  0  0  0
  1  4  2  0  0  0  0
  1 16  1  0  0  0  0
  5  6  1  6  0  0  0
  5  7  1  0  0  0  0
  5 14  1  0  0  0  0
  7  8  1  1  0  0  0
  7  9  1  0  0  0  0
  9 10  1  6  0  0  0
  9 11  1  0  0  0  0
 11 12  1  6  0  0  0
 11 13  1  0  0  0  0
 13 14  1  0  0  0  0
 13 15  1  6  0  0  0
 15 16  1  0  0  0  0
M  CHG  1   3  -1
M  END
>  <CHROM.1>
-178.21950542,-171.68726921,67.12288626,11.76019194,23.09069956,37.75781708
2.51497548,1.12637302,-1.10174960

>  <Name>
ligand

>  <RI>
0

>  <Rbt.Current_Directory>
/home/itssahil/PROJECTS/Mol_Feturizer/New_Systems/rnas/3B4A

>  <Rbt.Executable>
rbdock ($Id: //depot/dev/client3/rdock/2013.1/src/exe/rbdock.cxx#4 $)

>  <Rbt.Library>
libRbt.so (2013.1, Build901 2013/11/27)

>  <Rbt.Parameter_File>
/export/apps/rDock/src/rDock_2013.1_src/data/scripts/dock_solv.prm

>  <Rbt.Receptor>
prm/blind_docking_60.prm

>  <SCORE>
-4.86006

>  <SCORE.INTER>
-3.42934

>  <SCORE.INTER.CONST>
1

>  <SCORE.INTER.POLAR>
0

>  <SCORE.INTER.ROT>
3

>  <SCORE.INTER.SOLV>
13.9254

>  <SCORE.INTER.VDW>
-12.528

>  <SCORE.INTER.norm>
-0.214334

>  <SCORE.INTRA>
-1.4327

>  <SCORE.INTRA.DIHEDRAL>
-1.62723

>  <SCORE.INTRA.DIHEDRAL.0>
2.05999

>  <SCORE.INTRA.POLAR>
0

>  <SCORE.INTRA.POLAR.0>
0

>  <SCORE.INTRA.REPUL>
0

>  <SCORE.INTRA.REPUL.0>
0

>  <SCORE.INTRA.SOLV>
-0.983748

>  <SCORE.INTRA.SOLV.lig_0>
-58.7001

>  <SCORE.INTRA.VDW>
-0.127205

>  <SCORE.INTRA.VDW.0>
-0.401036

>  <SCORE.INTRA.norm>
-0.0895435

>  <SCORE.RESTR>
0.00198173

>  <SCORE.RESTR.CAVITY>
0.00198173

>  <SCORE.RESTR.norm>
0.000123858

>  <SCORE.SYSTEM>
0

>  <SCORE.SYSTEM.CONST>
0

>  <SCORE.SYSTEM.DIHEDRAL>
0

>  <SCORE.SYSTEM.SOLV>
0

>  <SCORE.SYSTEM.norm>
0

>  <SCORE.heavy>
16

>  <SCORE.norm>
-0.303754

>  <RMSD>
41.628

$$$$
ligand
 OpenBabel11021811463D
libRbt.so/2013.1/901 2013/11/27
 16 16  0  0  0  0  0  0  0  0999 V2000
   10.4286   25.6113   37.3812 P   0  0  2  0  0  0  0  0  0  0  0  0
    9.6903   24.7198   38.3100 O   0  0  0  0  0  0  0  0  0  0  0  0
   10.3711   27.1234   37.9390 O   0  5  0  0  0  0  0  0  0  0  0  0
    9.7351   25.5329   35.9217 O   0  0  0  0  0  0  0  0  0  0  0  0
   11.5640   21.7430   39.8177 C   0  0  2  0  0  0  0  0  0  0  0  0
   12.7303   22.1702   40.5577 O   0  0  0  0  0  0  0  0  0  0  0  0
   11.7679   20.3161   39.2307 C   0  0  2  0  0  0  0  0  0  0  0  0
   12.0500   19.3684   40.3245 N   0  0  0  0  0  0  0  0  0  0  0  0
   12.9542   20.3523   38.2423 C   0  0  1  0  0  0  0  0  0  0  0  0
   13.1623   19.0465   37.6782 O   0  0  0  0  0  0  0  0  0  0  0  0
   12.5999   21.3572   37.1266 C   0  0  2  0  0  0  0  0  0  0  0  0
   13.6881   21.4230   36.1892 O   0  0  0  0  0  0  0  0  0  0  0  0
   12.3797   22.7557   37.7811 C   0  0  2  0  0  0  0  0  0  0  0  0
   11.2889   22.7031   38.7481 O   0  0  0  0  0  0  0  0  0  0  0  0
   12.0030   23.8046   36.7220 C   0  0  0  0  0  0  0  0  0  0  0  0
   11.9709   25.1220   37.2988 O   0  0  0  0  0  0  0  0  0  0  0  0
  1  2  1  1  0  0  0
  1  3  1  0  0  0  0
  1  4  2  0  0  0  0
  1 16  1  0  0  0  0
  5  6  1  6  0  0  0
  5  7  1  0  0  0  0
  5 14  1  0  0  0  0
  7  8  1  1  0  0  0
  7  9  1  0  0  0  0
  9 10  1  6  0  0  0
  9 11  1  0  0  0  0
 11 12  1  6  0  0  0
 11 13  1  0  0  0  0
 13 14  1  0  0  0  0
 13 15  1  6  0  0  0
 15 16  1  0  0  0  0
M  CHG  1   3  -1
M  END
>  <CHROM.1>
-172.52688256,-109.20363409,64.14199734,11.66180432,22.96988338,38.00940058
2.35720826,1.02775310,-0.96023273

>  <Name>
ligand

>  <RI>
0

>  <Rbt.Current_Directory>
/home/itssahil/PROJECTS/Mol_Feturizer/New_Systems/rnas/3B4A

>  <Rbt.Executable>
rbdock ($Id: //depot/dev/client3/rdock/2013.1/src/exe/rbdock.cxx#4 $)

>  <Rbt.Library>
libRbt.so (2013.1, Build901 2013/11/27)

>  <Rbt.Parameter_File>
/export/apps/rDock/src/rDock_2013.1_src/data/scripts/dock_solv.prm

>  <Rbt.Receptor>
prm/blind_docking_60.prm

>  <SCORE>
-2.25379

>  <SCORE.INTER>
-4.06815

>  <SCORE.INTER.CONST>
1

>  <SCORE.INTER.POLAR>
0

>  <SCORE.INTER.ROT>
3

>  <SCORE.INTER.SOLV>
14.1898

>  <SCORE.INTER.VDW>
-13.042

>  <SCORE.INTER.norm>
-0.254259

>  <SCORE.INTRA>
1.81436

>  <SCORE.INTRA.DIHEDRAL>
4.81218

>  <SCORE.INTRA.DIHEDRAL.0>
2.05999

>  <SCORE.INTRA.POLAR>
0

>  <SCORE.INTRA.POLAR.0>
0

>  <SCORE.INTRA.REPUL>
0

>  <SCORE.INTRA.REPUL.0>
0

>  <SCORE.INTRA.SOLV>
-0.268964

>  <SCORE.INTRA.SOLV.lig_0>
-58.7001

>  <SCORE.INTRA.VDW>
-0.457245

>  <SCORE.INTRA.VDW.0>
-0.401036

>  <SCORE.INTRA.norm>
0.113398

>  <SCORE.RESTR>
0

>  <SCORE.RESTR.CAVITY>
0

>  <SCORE.RESTR.norm>
0

>  <SCORE.SYSTEM>
0

>  <SCORE.SYSTEM.CONST>
0

>  <SCORE.SYSTEM.DIHEDRAL>
0

>  <SCORE.SYSTEM.SOLV>
0

>  <SCORE.SYSTEM.norm>
0

>  <SCORE.heavy>
16

>  <SCORE.norm>
-0.140862

>  <RMSD>
41.628

$$$$
ligand
 OpenBabel11021811463D
libRbt.so/2013.1/901 2013/11/27
 16 16  0  0  0  0  0  0  0  0999 V2000
   11.9420   22.1783   40.4075 P   0  0  2  0  0  0  0  0  0  0  0  0
   12.9982   22.6092   41.3569 O   0  0  0  0  0  0  0  0  0  0  0  0
   10.9058   23.3930   40.1795 O   0  5  0  0  0  0  0  0  0  0  0  0
   11.1693   20.9013   41.0318 O   0  0  0  0  0  0  0  0  0  0  0  0
   11.5765   20.2789   34.4988 C   0  0  2  0  0  0  0  0  0  0  0  0
   12.4728   19.1496   34.6067 O   0  0  0  0  0  0  0  0  0  0  0  0
   12.2803   21.4859   33.8134 C   0  0  2  0  0  0  0  0  0  0  0  0
   12.7554   21.0855   32.4761 N   0  0  0  0  0  0  0  0  0  0  0  0
   13.4739   21.9257   34.6895 C   0  0  1  0  0  0  0  0  0  0  0  0
   14.1406   23.0457   34.0832 O   0  0  0  0  0  0  0  0  0  0  0  0
   12.9142   22.3303   36.0691 C   0  0  2  0  0  0  0  0  0  0  0  0
   14.0012   22.7396   36.9165 O   0  0  0  0  0  0  0  0  0  0  0  0
   12.1982   21.0906   36.6881 C   0  0  2  0  0  0  0  0  0  0  0  0
   11.1019   20.6513   35.8320 O   0  0  0  0  0  0  0  0  0  0  0  0
   11.5983   21.4320   38.0619 C   0  0  0  0  0  0  0  0  0  0  0  0
   12.6336   21.7835   38.9966 O   0  0  0  0  0  0  0  0  0  0  0  0
  1  2  1  1  0  0  0
  1  3  1  0  0  0  0
  1  4  2  0  0  0  0
  1 16  1  0  0  0  0
  5  6  1  1  0  0  0
  5  7  1  0  0  0  0
  5 14  1  0  0  0  0
  7  8  1  6  0  0  0
  7  9  1  0  0  0  0
  9 10  1  6  0  0  0
  9 11  1  0  0  0  0
 11 12  1  1  0  0  0
 11 13  1  0  0  0  0
 13 14  1  0  0  0  0
 13 15  1  1  0  0  0
 15 16  1  0  0  0  0
M  CHG  1   3  -1
M  END
>  <CHROM.1>
-63.24750271,178.19945546,-177.13129935,12.35591572,21.68071811,37.19362761
-1.77147221,-0.86670637,-1.87665319

>  <Name>
ligand

>  <RI>
0

>  <Rbt.Current_Directory>
/home/itssahil/PROJECTS/Mol_Feturizer/New_Systems/rnas/3B4A

>  <Rbt.Executable>
rbdock ($Id: //depot/dev/client3/rdock/2013.1/src/exe/rbdock.cxx#4 $)

>  <Rbt.Library>
libRbt.so (2013.1, Build901 2013/11/27)

>  <Rbt.Parameter_File>
/export/apps/rDock/src/rDock_2013.1_src/data/scripts/dock_solv.prm

>  <Rbt.Receptor>
prm/blind_docking_60.prm

>  <SCORE>
-3.58612

>  <SCORE.INTER>
-2.36244

>  <SCORE.INTER.CONST>
1

>  <SCORE.INTER.POLAR>
0

>  <SCORE.INTER.ROT>
3

>  <SCORE.INTER.SOLV>
10.2289

>  <SCORE.INTER.VDW>
-10.5846

>  <SCORE.INTER.norm>
-0.147652

>  <SCORE.INTRA>
-1.22368

>  <SCORE.INTRA.DIHEDRAL>
-1.99088

>  <SCORE.INTRA.DIHEDRAL.0>
2.05999

>  <SCORE.INTRA.POLAR>
0

>  <SCORE.INTRA.POLAR.0>
0

>  <SCORE.INTRA.REPUL>
0

>  <SCORE.INTRA.REPUL.0>
0

>  <SCORE.INTRA.SOLV>
0.00562971

>  <SCORE.INTRA.SOLV.lig_0>
-58.7001

>  <SCORE.INTRA.VDW>
-0.231056

>  <SCORE.INTRA.VDW.0>
-0.401036

>  <SCORE.INTRA.norm>
-0.0764801

>  <SCORE.RESTR>
0

>  <SCORE.RESTR.CAVITY>
0

>  <SCORE.RESTR.norm>
0

>  <SCORE.SYSTEM>
0

>  <SCORE.SYSTEM.CONST>
0

>  <SCORE.SYSTEM.DIHEDRAL>
0

>  <SCORE.SYSTEM.SOLV>
0

>  <SCORE.SYSTEM.norm>
0

>  <SCORE.heavy>
16

>  <SCORE.norm>
-0.224133

>  <RMSD>
41.928

$$$$
ligand
 OpenBabel11021811463D
libRbt.so/2013.1/901 2013/11/27
 16 16  0  0  0  0  0  0  0  0999 V2000
   11.3773   19.4391   39.4600 P   0  0  2  0  0  0  0  0  0  0  0  0
    9.9645   19.2065   39.0697 O   0  0  0  0  0  0  0  0  0  0  0  0
   12.0548   18.0322   39.8634 O   0  5  0  0  0  0  0  0  0  0  0  0
   11.4098   20.4511   40.7218 O   0  0  0  0  0  0  0  0  0  0  0  0
   14.3449   22.9031   35.9105 C   0  0  2  0  0  0  0  0  0  0  0  0
   13.7297   24.1711   35.5883 O   0  0  0  0  0  0  0  0  0  0  0  0
   14.3677   21.9632   34.6702 C   0  0  2  0  0  0  0  0  0  0  0  0
   15.0991   22.6169   33.5693 N   0  0  0  0  0  0  0  0  0  0  0  0
   12.9124   21.6746   34.2410 C   0  0  1  0  0  0  0  0  0  0  0  0
   12.9020   20.8017   33.0989 O   0  0  0  0  0  0  0  0  0  0  0  0
   12.2028   20.9940   35.4300 C   0  0  2  0  0  0  0  0  0  0  0  0
   10.8392   20.7166   35.0684 O   0  0  0  0  0  0  0  0  0  0  0  0
   12.2399   21.9713   36.6450 C   0  0  2  0  0  0  0  0  0  0  0  0
   13.6174   22.2770   37.0151 O   0  0  0  0  0  0  0  0  0  0  0  0
   11.5634   21.3444   37.8750 C   0  0  0  0  0  0  0  0  0  0  0  0
   12.1704   20.0819   38.2020 O   0  0  0  0  0  0  0  0  0  0  0  0
  1  2  1  6  0  0  0
  1  3  1  0  0  0  0
  1  4  2  0  0  0  0
  1 16  1  0  0  0  0
  5  6  1  6  0  0  0
  5  7  1  0  0  0  0
  5 14  1  0  0  0  0
  7  8  1  6  0  0  0
  7  9  1  0  0  0  0
  9 10  1  6  0  0  0
  9 11  1  0  0  0  0
 11 12  1  6  0  0  0
 11 13  1  0  0  0  0
 13 14  1  0  0  0  0
 13 15  1  1  0  0  0
 15 16  1  0  0  0  0
M  CHG  1   3  -1
M  END
>  <CHROM.1>
55.93679874,-177.51384134,61.56498019,12.42838940,21.00638623,36.90860037
-2.23178900,-0.89016431,-1.59822079

>  <Name>
ligand

>  <RI>
0

>  <Rbt.Current_Directory>
/home/itssahil/PROJECTS/Mol_Feturizer/New_Systems/rnas/3B4A

>  <Rbt.Executable>
rbdock ($Id: //depot/dev/client3/rdock/2013.1/src/exe/rbdock.cxx#4 $)

>  <Rbt.Library>
libRbt.so (2013.1, Build901 2013/11/27)

>  <Rbt.Parameter_File>
/export/apps/rDock/src/rDock_2013.1_src/data/scripts/dock_solv.prm

>  <Rbt.Receptor>
prm/blind_docking_60.prm

>  <SCORE>
-4.32868

>  <SCORE.INTER>
-2.70802

>  <SCORE.INTER.CONST>
1

>  <SCORE.INTER.POLAR>
0

>  <SCORE.INTER.ROT>
3

>  <SCORE.INTER.SOLV>
8.68785

>  <SCORE.INTER.VDW>
-10.3013

>  <SCORE.INTER.norm>
-0.169251

>  <SCORE.INTRA>
-1.62067

>  <SCORE.INTRA.DIHEDRAL>
-1.96474

>  <SCORE.INTRA.DIHEDRAL.0>
2.05999

>  <SCORE.INTRA.POLAR>
0

>  <SCORE.INTRA.POLAR.0>
0

>  <SCORE.INTRA.REPUL>
0

>  <SCORE.INTRA.REPUL.0>
0

>  <SCORE.INTRA.SOLV>
-0.848338

>  <SCORE.INTRA.SOLV.lig_0>
-58.7001

>  <SCORE.INTRA.VDW>
-0.214131

>  <SCORE.INTRA.VDW.0>
-0.401036

>  <SCORE.INTRA.norm>
-0.101292

>  <SCORE.RESTR>
0

>  <SCORE.RESTR.CAVITY>
0

>  <SCORE.RESTR.norm>
0

>  <SCORE.SYSTEM>
0

>  <SCORE.SYSTEM.CONST>
0

>  <SCORE.SYSTEM.DIHEDRAL>
0

>  <SCORE.SYSTEM.SOLV>
0

>  <SCORE.SYSTEM.norm>
0

>  <SCORE.heavy>
16

>  <SCORE.norm>
-0.270543

>  <RMSD>
42.082

$$$$
ligand
 OpenBabel11021811463D
libRbt.so/2013.1/901 2013/11/27
 16 16  0  0  0  0  0  0  0  0999 V2000
   11.3034   24.1747   21.7506 P   0  0  2  0  0  0  0  0  0  0  0  0
   10.6017   23.5270   20.6146 O   0  0  0  0  0  0  0  0  0  0  0  0
   10.2379   24.4989   22.9171 O   0  5  0  0  0  0  0  0  0  0  0  0
   11.9865   25.5451   21.2283 O   0  0  0  0  0  0  0  0  0  0  0  0
   10.5588   21.5309   25.6166 C   0  0  2  0  0  0  0  0  0  0  0  0
    9.3149   22.2158   25.3446 O   0  0  0  0  0  0  0  0  0  0  0  0
   11.0700   21.8521   27.0510 C   0  0  2  0  0  0  0  0  0  0  0  0
   10.0480   21.4591   28.0385 N   0  0  0  0  0  0  0  0  0  0  0  0
   11.3465   23.3684   27.1501 C   0  0  1  0  0  0  0  0  0  0  0  0
   11.8274   23.6942   28.4651 O   0  0  0  0  0  0  0  0  0  0  0  0
   12.4189   23.7157   26.0966 C   0  0  2  0  0  0  0  0  0  0  0  0
   12.6970   25.1251   26.1548 O   0  0  0  0  0  0  0  0  0  0  0  0
   11.8589   23.3442   24.6891 C   0  0  2  0  0  0  0  0  0  0  0  0
   11.5554   21.9192   24.6179 O   0  0  0  0  0  0  0  0  0  0  0  0
   12.8899   23.6486   23.5900 C   0  0  0  0  0  0  0  0  0  0  0  0
   12.4344   23.1614   22.3155 O   0  0  0  0  0  0  0  0  0  0  0  0
  1  2  1  6  0  0  0
  1  3  1  0  0  0  0
  1  4  2  0  0  0  0
  1 16  1  0  0  0  0
  5  6  1  6  0  0  0
  5  7  1  0  0  0  0
  5 14  1  0  0  0  0
  7  8  1  1  0  0  0
  7  9  1  0  0  0  0
  9 10  1  1  0  0  0
  9 11  1  0  0  0  0
 11 12  1  6  0  0  0
 11 13  1  0  0  0  0
 13 14  1  0  0  0  0
 13 15  1  6  0  0  0
 15 16  1  0  0  0  0
M  CHG  1   3  -1
M  END
>  <CHROM.1>
173.23802221,76.45421655,-166.65322651,11.37440933,23.39433455,24.45106431
1.49194661,-0.83614433,-1.35860049

>  <Name>
ligand

>  <RI>
0

>  <Rbt.Current_Directory>
/home/itssahil/PROJECTS/Mol_Feturizer/New_Systems/rnas/3B4A

>  <Rbt.Executable>
rbdock ($Id: //depot/dev/client3/rdock/2013.1/src/exe/rbdock.cxx#4 $)

>  <Rbt.Library>
libRbt.so (2013.1, Build901 2013/11/27)

>  <Rbt.Parameter_File>
/export/apps/rDock/src/rDock_2013.1_src/data/scripts/dock_solv.prm

>  <Rbt.Receptor>
prm/blind_docking_40.prm

>  <SCORE>
2.41034

>  <SCORE.INTER>
-0.955243

>  <SCORE.INTER.CONST>
1

>  <SCORE.INTER.POLAR>
0

>  <SCORE.INTER.ROT>
3

>  <SCORE.INTER.SOLV>
13.1494

>  <SCORE.INTER.VDW>
-10.62

>  <SCORE.INTER.norm>
-0.0597027

>  <SCORE.INTRA>
1.68056

>  <SCORE.INTRA.DIHEDRAL>
-0.358891

>  <SCORE.INTRA.DIHEDRAL.0>
2.05999

>  <SCORE.INTRA.POLAR>
0

>  <SCORE.INTRA.POLAR.0>
0

>  <SCORE.INTRA.REPUL>
0

>  <SCORE.INTRA.REPUL.0>
0

>  <SCORE.INTRA.SOLV>
3.11237

>  <SCORE.INTRA.SOLV.lig_0>
-58.7001

>  <SCORE.INTRA.VDW>
0.303821

>  <SCORE.INTRA.VDW.0>
-0.401036

>  <SCORE.INTRA.norm>
0.105035

>  <SCORE.RESTR>
1.68502

>  <SCORE.RESTR.CAVITY>
1.68502

>  <SCORE.RESTR.norm>
0.105314

>  <SCORE.SYSTEM>
0

>  <SCORE.SYSTEM.CONST>
0

>  <SCORE.SYSTEM.DIHEDRAL>
0

>  <SCORE.SYSTEM.SOLV>
0

>  <SCORE.SYSTEM.norm>
0

>  <SCORE.heavy>
16

>  <SCORE.norm>
0.150646

>  <RMSD>
48.394

$$$$
ligand
 OpenBabel11021811463D
libRbt.so/2013.1/901 2013/11/27
 16 16  0  0  0  0  0  0  0  0999 V2000
   10.6631   21.5980   22.2376 P   0  0  2  0  0  0  0  0  0  0  0  0
   10.4002   22.9278   21.6335 O   0  0  0  0  0  0  0  0  0  0  0  0
   10.2632   20.4469   21.1811 O   0  5  0  0  0  0  0  0  0  0  0  0
    9.7733   21.4502   23.5806 O   0  0  0  0  0  0  0  0  0  0  0  0
   11.7299   21.7524   26.7860 C   0  0  2  0  0  0  0  0  0  0  0  0
   10.3111   21.5335   26.6148 O   0  0  0  0  0  0  0  0  0  0  0  0
   12.0024   23.1026   27.5103 C   0  0  2  0  0  0  0  0  0  0  0  0
   11.3269   23.1045   28.8209 N   0  0  0  0  0  0  0  0  0  0  0  0
   11.4603   24.2528   26.6336 C   0  0  1  0  0  0  0  0  0  0  0  0
   11.7044   25.5156   27.2757 O   0  0  0  0  0  0  0  0  0  0  0  0
   12.2025   24.1976   25.2822 C   0  0  2  0  0  0  0  0  0  0  0  0
   11.7167   25.2525   24.4347 O   0  0  0  0  0  0  0  0  0  0  0  0
   11.9140   22.8137   24.6231 C   0  0  2  0  0  0  0  0  0  0  0  0
   12.3861   21.7303   25.4781 O   0  0  0  0  0  0  0  0  0  0  0  0
   12.6428   22.6846   23.2755 C   0  0  0  0  0  0  0  0  0  0  0  0
   12.2401   21.4849   22.5916 O   0  0  0  0  0  0  0  0  0  0  0  0
  1  2  1  6  0  0  0
  1  3  1  0  0  0  0
  1  4  2  0  0  0  0
  1 16  1  0  0  0  0
  5  6  1  6  0  0  0
  5  7  1  0  0  0  0
  5 14  1  0  0  0  0
  7  8  1  1  0  0  0
  7  9  1  0  0  0  0
  9 10  1  1  0  0  0
  9 11  1  0  0  0  0
 11 12  1  6  0  0  0
 11 13  1  0  0  0  0
 13 14  1  0  0  0  0
 13 15  1  6  0  0  0
 15 16  1  0  0  0  0
M  CHG  1   3  -1
M  END
>  <CHROM.1>
-172.57726159,64.02158861,47.38304692,11.34117004,22.64160561,24.62070031
2.17159278,-1.29073573,-1.38722724

>  <Name>
ligand

>  <RI>
0

>  <Rbt.Current_Directory>
/home/itssahil/PROJECTS/Mol_Feturizer/New_Systems/rnas/3B4A

>  <Rbt.Executable>
rbdock ($Id: //depot/dev/client3/rdock/2013.1/src/exe/rbdock.cxx#4 $)

>  <Rbt.Library>
libRbt.so (2013.1, Build901 2013/11/27)

>  <Rbt.Parameter_File>
/export/apps/rDock/src/rDock_2013.1_src/data/scripts/dock_solv.prm

>  <Rbt.Receptor>
prm/blind_docking_40.prm

>  <SCORE>
-0.746217

>  <SCORE.INTER>
-4.43226

>  <SCORE.INTER.CONST>
1

>  <SCORE.INTER.POLAR>
0

>  <SCORE.INTER.ROT>
3

>  <SCORE.INTER.SOLV>
13.3433

>  <SCORE.INTER.VDW>
-13.0026

>  <SCORE.INTER.norm>
-0.277016

>  <SCORE.INTRA>
1.09941

>  <SCORE.INTRA.DIHEDRAL>
-1.52713

>  <SCORE.INTRA.DIHEDRAL.0>
2.05999

>  <SCORE.INTRA.POLAR>
0

>  <SCORE.INTRA.POLAR.0>
0

>  <SCORE.INTRA.REPUL>
0

>  <SCORE.INTRA.REPUL.0>
0

>  <SCORE.INTRA.SOLV>
2.81136

>  <SCORE.INTRA.SOLV.lig_0>
-58.7001

>  <SCORE.INTRA.VDW>
0.457294

>  <SCORE.INTRA.VDW.0>
-0.401036

>  <SCORE.INTRA.norm>
0.0687133

>  <SCORE.RESTR>
2.58663

>  <SCORE.RESTR.CAVITY>
2.58663

>  <SCORE.RESTR.norm>
0.161665

>  <SCORE.SYSTEM>
0

>  <SCORE.SYSTEM.CONST>
0

>  <SCORE.SYSTEM.DIHEDRAL>
0

>  <SCORE.SYSTEM.SOLV>
0

>  <SCORE.SYSTEM.norm>
0

>  <SCORE.heavy>
16

>  <SCORE.norm>
-0.0466386

>  <RMSD>
48.433

$$$$
ligand
 OpenBabel11021811463D
libRbt.so/2013.1/901 2013/11/27
 16 16  0  0  0  0  0  0  0  0999 V2000
   11.6771   24.2534   21.8638 P   0  0  2  0  0  0  0  0  0  0  0  0
   10.6992   23.2547   21.3648 O   0  0  0  0  0  0  0  0  0  0  0  0
   11.0003   25.1121   23.0494 O   0  5  0  0  0  0  0  0  0  0  0  0
   12.0952   25.2289   20.6429 O   0  0  0  0  0  0  0  0  0  0  0  0
    9.9941   21.7179   25.8289 C   0  0  2  0  0  0  0  0  0  0  0  0
    8.9182   22.5414   25.3242 O   0  0  0  0  0  0  0  0  0  0  0  0
   10.7022   22.4026   27.0338 C   0  0  2  0  0  0  0  0  0  0  0  0
    9.7188   22.6627   28.1012 N   0  0  0  0  0  0  0  0  0  0  0  0
   11.3248   23.7315   26.5521 C   0  0  1  0  0  0  0  0  0  0  0  0
   11.9929   24.3843   27.6449 O   0  0  0  0  0  0  0  0  0  0  0  0
   12.3402   23.3938   25.4407 C   0  0  2  0  0  0  0  0  0  0  0  0
   12.9360   24.6115   24.9616 O   0  0  0  0  0  0  0  0  0  0  0  0
   11.5760   22.6859   24.2799 C   0  0  2  0  0  0  0  0  0  0  0  0
   10.9507   21.4558   24.7530 O   0  0  0  0  0  0  0  0  0  0  0  0
   12.5371   22.3033   23.1426 C   0  0  0  0  0  0  0  0  0  0  0  0
   12.9785   23.4744   22.4333 O   0  0  0  0  0  0  0  0  0  0  0  0
  1  2  1  6  0  0  0
  1  3  1  0  0  0  0
  1  4  2  0  0  0  0
  1 16  1  0  0  0  0
  5  6  1  6  0  0  0
  5  7  1  0  0  0  0
  5 14  1  0  0  0  0
  7  8  1  1  0  0  0
  7  9  1  0  0  0  0
  9 10  1  1  0  0  0
  9 11  1  0  0  0  0
 11 12  1  6  0  0  0
 11 13  1  0  0  0  0
 13 14  1  0  0  0  0
 13 15  1  6  0  0  0
 15 16  1  0  0  0  0
M  CHG  1   3  -1
M  END
>  <CHROM.1>
-71.34395162,-57.65226584,-39.97822031,11.37256735,23.42611740,24.27358499
1.25273217,-0.77643003,-1.53879376

>  <Name>
ligand

>  <RI>
0

>  <Rbt.Current_Directory>
/home/itssahil/PROJECTS/Mol_Feturizer/New_Systems/rnas/3B4A

>  <Rbt.Executable>
rbdock ($Id: //depot/dev/client3/rdock/2013.1/src/exe/rbdock.cxx#4 $)

>  <Rbt.Library>
libRbt.so (2013.1, Build901 2013/11/27)

>  <Rbt.Parameter_File>
/export/apps/rDock/src/rDock_2013.1_src/data/scripts/dock_solv.prm

>  <Rbt.Receptor>
prm/blind_docking_40.prm

>  <SCORE>
-1.87706

>  <SCORE.INTER>
-4.84491

>  <SCORE.INTER.CONST>
1

>  <SCORE.INTER.POLAR>
0

>  <SCORE.INTER.ROT>
3

>  <SCORE.INTER.SOLV>
11.9196

>  <SCORE.INTER.VDW>
-12.8031

>  <SCORE.INTER.norm>
-0.302807

>  <SCORE.INTRA>
2.39999

>  <SCORE.INTRA.DIHEDRAL>
-0.980259

>  <SCORE.INTRA.DIHEDRAL.0>
2.05999

>  <SCORE.INTRA.POLAR>
0

>  <SCORE.INTRA.POLAR.0>
0

>  <SCORE.INTRA.REPUL>
0

>  <SCORE.INTRA.REPUL.0>
0

>  <SCORE.INTRA.SOLV>
3.64554

>  <SCORE.INTRA.SOLV.lig_0>
-58.7001

>  <SCORE.INTRA.VDW>
1.06734

>  <SCORE.INTRA.VDW.0>
-0.401036

>  <SCORE.INTRA.norm>
0.149999

>  <SCORE.RESTR>
0.567863

>  <SCORE.RESTR.CAVITY>
0.567863

>  <SCORE.RESTR.norm>
0.0354914

>  <SCORE.SYSTEM>
0

>  <SCORE.SYSTEM.CONST>
0

>  <SCORE.SYSTEM.DIHEDRAL>
0

>  <SCORE.SYSTEM.SOLV>
0

>  <SCORE.SYSTEM.norm>
0

>  <SCORE.heavy>
16

>  <SCORE.norm>
-0.117316

>  <RMSD>
48.514

$$$$
ligand
 OpenBabel11021811463D
libRbt.so/2013.1/901 2013/11/27
 16 16  0  0  0  0  0  0  0  0999 V2000
   11.6792   24.3058   21.9023 P   0  0  2  0  0  0  0  0  0  0  0  0
   11.0923   25.1082   23.0042 O   0  0  0  0  0  0  0  0  0  0  0  0
   12.1157   25.2913   20.7025 O   0  5  0  0  0  0  0  0  0  0  0  0
   10.5702   23.2516   21.3771 O   0  0  0  0  0  0  0  0  0  0  0  0
   10.0239   21.6484   25.8207 C   0  0  2  0  0  0  0  0  0  0  0  0
    8.9241   22.4452   25.3250 O   0  0  0  0  0  0  0  0  0  0  0  0
   10.7147   22.3427   27.0302 C   0  0  2  0  0  0  0  0  0  0  0  0
    9.7263   22.5658   28.1014 N   0  0  0  0  0  0  0  0  0  0  0  0
   11.2983   23.6928   26.5588 C   0  0  1  0  0  0  0  0  0  0  0  0
   11.9497   24.3551   27.6559 O   0  0  0  0  0  0  0  0  0  0  0  0
   12.3207   23.3936   25.4429 C   0  0  2  0  0  0  0  0  0  0  0  0
   12.8807   24.6317   24.9731 O   0  0  0  0  0  0  0  0  0  0  0  0
   11.5747   22.6740   24.2774 C   0  0  2  0  0  0  0  0  0  0  0  0
   10.9855   21.4227   24.7410 O   0  0  0  0  0  0  0  0  0  0  0  0
   12.5440   22.3286   23.1352 C   0  0  0  0  0  0  0  0  0  0  0  0
   12.9821   23.5213   22.4608 O   0  0  0  0  0  0  0  0  0  0  0  0
  1  2  1  1  0  0  0
  1  3  1  0  0  0  0
  1  4  2  0  0  0  0
  1 16  1  0  0  0  0
  5  6  1  6  0  0  0
  5  7  1  0  0  0  0
  5 14  1  0  0  0  0
  7  8  1  1  0  0  0
  7  9  1  0  0  0  0
  9 10  1  1  0  0  0
  9 11  1  0  0  0  0
 11 12  1  6  0  0  0
 11 13  1  0  0  0  0
 13 14  1  0  0  0  0
 13 15  1  6  0  0  0
 15 16  1  0  0  0  0
M  CHG  1   3  -1
M  END
>  <CHROM.1>
-69.60895401,-57.80578255,82.09641901,11.36888943,23.41699616,24.28179581
1.24208122,-0.80206677,-1.52823804

>  <Name>
ligand

>  <RI>
0

>  <Rbt.Current_Directory>
/home/itssahil/PROJECTS/Mol_Feturizer/New_Systems/rnas/3B4A

>  <Rbt.Executable>
rbdock ($Id: //depot/dev/client3/rdock/2013.1/src/exe/rbdock.cxx#4 $)

>  <Rbt.Library>
libRbt.so (2013.1, Build901 2013/11/27)

>  <Rbt.Parameter_File>
/export/apps/rDock/src/rDock_2013.1_src/data/scripts/dock_solv.prm

>  <Rbt.Receptor>
prm/blind_docking_40.prm

>  <SCORE>
-3.0273

>  <SCORE.INTER>
-4.91489

>  <SCORE.INTER.CONST>
1

>  <SCORE.INTER.POLAR>
0

>  <SCORE.INTER.ROT>
3

>  <SCORE.INTER.SOLV>
12.2737

>  <SCORE.INTER.VDW>
-12.9678

>  <SCORE.INTER.norm>
-0.307181

>  <SCORE.INTRA>
1.29493

>  <SCORE.INTRA.DIHEDRAL>
-0.991914

>  <SCORE.INTRA.DIHEDRAL.0>
2.05999

>  <SCORE.INTRA.POLAR>
0

>  <SCORE.INTRA.POLAR.0>
0

>  <SCORE.INTRA.REPUL>
0

>  <SCORE.INTRA.REPUL.0>
0

>  <SCORE.INTRA.SOLV>
1.93969

>  <SCORE.INTRA.SOLV.lig_0>
-58.7001

>  <SCORE.INTRA.VDW>
0.821042

>  <SCORE.INTRA.VDW.0>
-0.401036

>  <SCORE.INTRA.norm>
0.0809333

>  <SCORE.RESTR>
0.59266

>  <SCORE.RESTR.CAVITY>
0.59266

>  <SCORE.RESTR.norm>
0.0370412

>  <SCORE.SYSTEM>
0

>  <SCORE.SYSTEM.CONST>
0

>  <SCORE.SYSTEM.DIHEDRAL>
0

>  <SCORE.SYSTEM.SOLV>
0

>  <SCORE.SYSTEM.norm>
0

>  <SCORE.heavy>
16

>  <SCORE.norm>
-0.189206

>  <RMSD>
48.516

$$$$
ligand
 OpenBabel11021811463D
libRbt.so/2013.1/901 2013/11/27
 16 16  0  0  0  0  0  0  0  0999 V2000
   11.8532   24.8565   21.0464 P   0  0  2  0  0  0  0  0  0  0  0  0
   13.2347   24.3280   20.9252 O   0  0  0  0  0  0  0  0  0  0  0  0
   10.8729   24.0030   20.0916 O   0  5  0  0  0  0  0  0  0  0  0  0
   11.8483   26.4107   20.5972 O   0  0  0  0  0  0  0  0  0  0  0  0
   10.2202   21.4364   25.9723 C   0  0  2  0  0  0  0  0  0  0  0  0
    9.0867   22.2360   26.3798 O   0  0  0  0  0  0  0  0  0  0  0  0
   11.4526   21.7117   26.8820 C   0  0  2  0  0  0  0  0  0  0  0  0
   11.1048   21.4211   28.2851 N   0  0  0  0  0  0  0  0  0  0  0  0
   11.8564   23.1950   26.7329 C   0  0  1  0  0  0  0  0  0  0  0  0
   12.9988   23.4774   27.5586 O   0  0  0  0  0  0  0  0  0  0  0  0
   12.2069   23.4351   25.2497 C   0  0  2  0  0  0  0  0  0  0  0  0
   12.5815   24.8117   25.0713 O   0  0  0  0  0  0  0  0  0  0  0  0
   10.9445   23.1144   24.3917 C   0  0  2  0  0  0  0  0  0  0  0  0
   10.5404   21.7247   24.5738 O   0  0  0  0  0  0  0  0  0  0  0  0
   11.2322   23.3156   22.8949 C   0  0  0  0  0  0  0  0  0  0  0  0
   11.3699   24.7138   22.5862 O   0  0  0  0  0  0  0  0  0  0  0  0
  1  2  1  6  0  0  0
  1  3  1  0  0  0  0
  1  4  2  0  0  0  0
  1 16  1  0  0  0  0
  5  6  1  1  0  0  0
  5  7  1  0  0  0  0
  5 14  1  0  0  0  0
  7  8  1  1  0  0  0
  7  9  1  0  0  0  0
  9 10  1  1  0  0  0
  9 11  1  0  0  0  0
 11 12  1  1  0  0  0
 11 13  1  0  0  0  0
 13 14  1  0  0  0  0
 13 15  1  6  0  0  0
 15 16  1  0  0  0  0
M  CHG  1   3  -1
M  END
>  <CHROM.1>
-70.90781046,172.98186599,-67.54590040,11.49806691,23.53813317,24.02271670
-1.43273846,0.69770747,1.90190613

>  <Name>
ligand

>  <RI>
0

>  <Rbt.Current_Directory>
/home/itssahil/PROJECTS/Mol_Feturizer/New_Systems/rnas/3B4A

>  <Rbt.Executable>
rbdock ($Id: //depot/dev/client3/rdock/2013.1/src/exe/rbdock.cxx#4 $)

>  <Rbt.Library>
libRbt.so (2013.1, Build901 2013/11/27)

>  <Rbt.Parameter_File>
/export/apps/rDock/src/rDock_2013.1_src/data/scripts/dock_solv.prm

>  <Rbt.Receptor>
prm/blind_docking_40.prm

>  <SCORE>
-1.31007

>  <SCORE.INTER>
-1.37733

>  <SCORE.INTER.CONST>
1

>  <SCORE.INTER.POLAR>
0

>  <SCORE.INTER.ROT>
3

>  <SCORE.INTER.SOLV>
16.288

>  <SCORE.INTER.VDW>
-11.9475

>  <SCORE.INTER.norm>
-0.0860832

>  <SCORE.INTRA>
-1.12765

>  <SCORE.INTRA.DIHEDRAL>
-1.30941

>  <SCORE.INTRA.DIHEDRAL.0>
2.05999

>  <SCORE.INTRA.POLAR>
0

>  <SCORE.INTRA.POLAR.0>
0

>  <SCORE.INTRA.REPUL>
0

>  <SCORE.INTRA.REPUL.0>
0

>  <SCORE.INTRA.SOLV>
-0.58847

>  <SCORE.INTRA.SOLV.lig_0>
-58.7001

>  <SCORE.INTRA.VDW>
-0.178709

>  <SCORE.INTRA.VDW.0>
-0.401036

>  <SCORE.INTRA.norm>
-0.070478

>  <SCORE.RESTR>
1.19491

>  <SCORE.RESTR.CAVITY>
1.19491

>  <SCORE.RESTR.norm>
0.0746817

>  <SCORE.SYSTEM>
0

>  <SCORE.SYSTEM.CONST>
0

>  <SCORE.SYSTEM.DIHEDRAL>
0

>  <SCORE.SYSTEM.SOLV>
0

>  <SCORE.SYSTEM.norm>
0

>  <SCORE.heavy>
16

>  <SCORE.norm>
-0.0818795

>  <RMSD>
48.557

$$$$
ligand
 OpenBabel11021811463D
libRbt.so/2013.1/901 2013/11/27
 16 16  0  0  0  0  0  0  0  0999 V2000
   11.6286   24.2236   22.0927 P   0  0  2  0  0  0  0  0  0  0  0  0
   12.1867   25.1543   21.0803 O   0  0  0  0  0  0  0  0  0  0  0  0
   10.5026   23.2995   21.4004 O   0  5  0  0  0  0  0  0  0  0  0  0
   10.9734   25.0897   23.2919 O   0  0  0  0  0  0  0  0  0  0  0  0
    9.7715   21.3474   25.8995 C   0  0  2  0  0  0  0  0  0  0  0  0
    8.7527   22.3161   25.5622 O   0  0  0  0  0  0  0  0  0  0  0  0
   10.5841   21.8038   27.1459 C   0  0  2  0  0  0  0  0  0  0  0  0
    9.6702   21.9973   28.2868 N   0  0  0  0  0  0  0  0  0  0  0  0
   11.3009   23.1302   26.8109 C   0  0  1  0  0  0  0  0  0  0  0  0
   12.0663   23.5736   27.9441 O   0  0  0  0  0  0  0  0  0  0  0  0
   12.2381   22.8635   25.6147 C   0  0  2  0  0  0  0  0  0  0  0  0
   12.9187   24.0819   25.2690 O   0  0  0  0  0  0  0  0  0  0  0  0
   11.3695   22.3827   24.4118 C   0  0  2  0  0  0  0  0  0  0  0  0
   10.6582   21.1552   24.7513 O   0  0  0  0  0  0  0  0  0  0  0  0
   12.2476   22.0795   23.1868 C   0  0  0  0  0  0  0  0  0  0  0  0
   12.8233   23.2885   22.6611 O   0  0  0  0  0  0  0  0  0  0  0  0
  1  2  1  6  0  0  0
  1  3  1  0  0  0  0
  1  4  2  0  0  0  0
  1 16  1  0  0  0  0
  5  6  1  6  0  0  0
  5  7  1  0  0  0  0
  5 14  1  0  0  0  0
  7  8  1  1  0  0  0
  7  9  1  0  0  0  0
  9 10  1  1  0  0  0
  9 11  1  0  0  0  0
 11 12  1  6  0  0  0
 11 13  1  0  0  0  0
 13 14  1  0  0  0  0
 13 15  1  6  0  0  0
 15 16  1  0  0  0  0
M  CHG  1   3  -1
M  END
>  <CHROM.1>
-68.04326554,-65.47088993,-156.69187108,11.26929391,23.11533943,24.46644151
1.28474474,-0.68379003,-1.40032619

>  <Name>
ligand

>  <RI>
0

>  <Rbt.Current_Directory>
/home/itssahil/PROJECTS/Mol_Feturizer/New_Systems/rnas/3B4A

>  <Rbt.Executable>
rbdock ($Id: //depot/dev/client3/rdock/2013.1/src/exe/rbdock.cxx#4 $)

>  <Rbt.Library>
libRbt.so (2013.1, Build901 2013/11/27)

>  <Rbt.Parameter_File>
/export/apps/rDock/src/rDock_2013.1_src/data/scripts/dock_solv.prm

>  <Rbt.Receptor>
prm/blind_docking_40.prm

>  <SCORE>
-2.62647

>  <SCORE.INTER>
-5.18775

>  <SCORE.INTER.CONST>
1

>  <SCORE.INTER.POLAR>
0

>  <SCORE.INTER.ROT>
3

>  <SCORE.INTER.SOLV>
12.0349

>  <SCORE.INTER.VDW>
-13.0701

>  <SCORE.INTER.norm>
-0.324235

>  <SCORE.INTRA>
1.80652

>  <SCORE.INTRA.DIHEDRAL>
-0.894312

>  <SCORE.INTRA.DIHEDRAL.0>
2.05999

>  <SCORE.INTRA.POLAR>
0

>  <SCORE.INTRA.POLAR.0>
0

>  <SCORE.INTRA.REPUL>
0

>  <SCORE.INTRA.REPUL.0>
0

>  <SCORE.INTRA.SOLV>
4.38862

>  <SCORE.INTRA.SOLV.lig_0>
-58.7001

>  <SCORE.INTRA.VDW>
0.0593624

>  <SCORE.INTRA.VDW.0>
-0.401036

>  <SCORE.INTRA.norm>
0.112907

>  <SCORE.RESTR>
0.75477

>  <SCORE.RESTR.CAVITY>
0.75477

>  <SCORE.RESTR.norm>
0.0471731

>  <SCORE.SYSTEM>
0

>  <SCORE.SYSTEM.CONST>
0

>  <SCORE.SYSTEM.DIHEDRAL>
0

>  <SCORE.SYSTEM.SOLV>
0

>  <SCORE.SYSTEM.norm>
0

>  <SCORE.heavy>
16

>  <SCORE.norm>
-0.164154

>  <RMSD>
48.570

$$$$
ligand
 OpenBabel11021811463D
libRbt.so/2013.1/901 2013/11/27
 16 16  0  0  0  0  0  0  0  0999 V2000
   11.7012   24.1915   22.0565 P   0  0  2  0  0  0  0  0  0  0  0  0
   12.3855   25.0721   21.0773 O   0  0  0  0  0  0  0  0  0  0  0  0
   10.4801   23.4329   21.3253 O   0  5  0  0  0  0  0  0  0  0  0  0
   11.1401   25.1002   23.2717 O   0  0  0  0  0  0  0  0  0  0  0  0
    9.7138   21.2924   25.9389 C   0  0  2  0  0  0  0  0  0  0  0  0
    8.6697   22.2415   25.6240 O   0  0  0  0  0  0  0  0  0  0  0  0
   10.5876   21.7973   27.1236 C   0  0  2  0  0  0  0  0  0  0  0  0
    9.7342   22.0234   28.3047 N   0  0  0  0  0  0  0  0  0  0  0  0
   11.2734   23.1166   26.7058 C   0  0  1  0  0  0  0  0  0  0  0  0
   12.0943   23.6042   27.7805 O   0  0  0  0  0  0  0  0  0  0  0  0
   12.1478   22.8156   25.4707 C   0  0  2  0  0  0  0  0  0  0  0  0
   12.7979   24.0262   25.0478 O   0  0  0  0  0  0  0  0  0  0  0  0
   11.2206   22.2874   24.3332 C   0  0  2  0  0  0  0  0  0  0  0  0
   10.5396   21.0672   24.7520 O   0  0  0  0  0  0  0  0  0  0  0  0
   12.0348   21.9485   23.0739 C   0  0  0  0  0  0  0  0  0  0  0  0
   12.7622   23.1006   22.6124 O   0  0  0  0  0  0  0  0  0  0  0  0
  1  2  1  6  0  0  0
  1  3  1  0  0  0  0
  1  4  2  0  0  0  0
  1 16  1  0  0  0  0
  5  6  1  6  0  0  0
  5  7  1  0  0  0  0
  5 14  1  0  0  0  0
  7  8  1  1  0  0  0
  7  9  1  0  0  0  0
  9 10  1  1  0  0  0
  9 11  1  0  0  0  0
 11 12  1  6  0  0  0
 11 13  1  0  0  0  0
 13 14  1  0  0  0  0
 13 15  1  6  0  0  0
 15 16  1  0  0  0  0
M  CHG  1   3  -1
M  END
>  <CHROM.1>
-57.88356257,-68.37337282,-155.61842651,11.25257262,23.07435753,24.41088213
-1.23443091,0.73374642,1.70253451

>  <Name>
ligand

>  <RI>
0

>  <Rbt.Current_Directory>
/home/itssahil/PROJECTS/Mol_Feturizer/New_Systems/rnas/3B4A

>  <Rbt.Executable>
rbdock ($Id: //depot/dev/client3/rdock/2013.1/src/exe/rbdock.cxx#4 $)

>  <Rbt.Library>
libRbt.so (2013.1, Build901 2013/11/27)

>  <Rbt.Parameter_File>
/export/apps/rDock/src/rDock_2013.1_src/data/scripts/dock_solv.prm

>  <Rbt.Receptor>
prm/blind_docking_40.prm

>  <SCORE>
-1.74274

>  <SCORE.INTER>
-4.75472

>  <SCORE.INTER.CONST>
1

>  <SCORE.INTER.POLAR>
0

>  <SCORE.INTER.ROT>
3

>  <SCORE.INTER.SOLV>
12.3169

>  <SCORE.INTER.VDW>
-12.8755

>  <SCORE.INTER.norm>
-0.29717

>  <SCORE.INTRA>
2.15885

>  <SCORE.INTRA.DIHEDRAL>
-0.847942

>  <SCORE.INTRA.DIHEDRAL.0>
2.05999

>  <SCORE.INTRA.POLAR>
0

>  <SCORE.INTRA.POLAR.0>
0

>  <SCORE.INTRA.REPUL>
0

>  <SCORE.INTRA.REPUL.0>
0

>  <SCORE.INTRA.SOLV>
4.48773

>  <SCORE.INTRA.SOLV.lig_0>
-58.7001

>  <SCORE.INTRA.VDW>
0.338953

>  <SCORE.INTRA.VDW.0>
-0.401036

>  <SCORE.INTRA.norm>
0.134928

>  <SCORE.RESTR>
0.85313

>  <SCORE.RESTR.CAVITY>
0.85313

>  <SCORE.RESTR.norm>
0.0533206

>  <SCORE.SYSTEM>
0

>  <SCORE.SYSTEM.CONST>
0

>  <SCORE.SYSTEM.DIHEDRAL>
0

>  <SCORE.SYSTEM.SOLV>
0

>  <SCORE.SYSTEM.norm>
0

>  <SCORE.heavy>
16

>  <SCORE.norm>
-0.108922

>  <RMSD>
48.630

$$$$
ligand
 OpenBabel11021811463D
libRbt.so/2013.1/901 2013/11/27
 16 16  0  0  0  0  0  0  0  0999 V2000
   11.5722   24.7172   20.7792 P   0  0  2  0  0  0  0  0  0  0  0  0
   11.3879   25.9875   21.5241 O   0  0  0  0  0  0  0  0  0  0  0  0
   13.0936   24.6276   20.2514 O   0  5  0  0  0  0  0  0  0  0  0  0
   10.5492   24.6945   19.5261 O   0  0  0  0  0  0  0  0  0  0  0  0
   10.2299   21.4860   25.3513 C   0  0  2  0  0  0  0  0  0  0  0  0
    9.0145   22.2653   25.4269 O   0  0  0  0  0  0  0  0  0  0  0  0
   11.0991   21.6834   26.6270 C   0  0  2  0  0  0  0  0  0  0  0  0
   10.3215   21.2964   27.8185 N   0  0  0  0  0  0  0  0  0  0  0  0
   11.5086   23.1696   26.7219 C   0  0  1  0  0  0  0  0  0  0  0  0
   12.3197   23.3810   27.8899 O   0  0  0  0  0  0  0  0  0  0  0  0
   12.3153   23.5120   25.4521 C   0  0  2  0  0  0  0  0  0  0  0  0
   12.7081   24.8942   25.5023 O   0  0  0  0  0  0  0  0  0  0  0  0
   11.4016   23.2660   24.2122 C   0  0  2  0  0  0  0  0  0  0  0  0
   10.9798   21.8707   24.1551 O   0  0  0  0  0  0  0  0  0  0  0  0
   12.1537   23.5711   22.9066 C   0  0  0  0  0  0  0  0  0  0  0  0
   11.2700   23.4759   21.7755 O   0  0  0  0  0  0  0  0  0  0  0  0
  1  2  1  1  0  0  0
  1  3  1  0  0  0  0
  1  4  2  0  0  0  0
  1 16  1  0  0  0  0
  5  6  1  1  0  0  0
  5  7  1  0  0  0  0
  5 14  1  0  0  0  0
  7  8  1  1  0  0  0
  7  9  1  0  0  0  0
  9 10  1  1  0  0  0
  9 11  1  0  0  0  0
 11 12  1  1  0  0  0
 11 13  1  0  0  0  0
 13 14  1  0  0  0  0
 13 15  1  6  0  0  0
 15 16  1  0  0  0  0
M  CHG  1   3  -1
M  END
>  <CHROM.1>
-174.09937018,137.43231927,-57.79042666,11.38796598,23.50760790,23.81002308
1.45156560,-0.75487035,-1.28092900

>  <Name>
ligand

>  <RI>
0

>  <Rbt.Current_Directory>
/home/itssahil/PROJECTS/Mol_Feturizer/New_Systems/rnas/3B4A

>  <Rbt.Executable>
rbdock ($Id: //depot/dev/client3/rdock/2013.1/src/exe/rbdock.cxx#4 $)

>  <Rbt.Library>
libRbt.so (2013.1, Build901 2013/11/27)

>  <Rbt.Parameter_File>
/export/apps/rDock/src/rDock_2013.1_src/data/scripts/dock_solv.prm

>  <Rbt.Receptor>
prm/blind_docking_40.prm

>  <SCORE>
0.687572

>  <SCORE.INTER>
-2.03719

>  <SCORE.INTER.CONST>
1

>  <SCORE.INTER.POLAR>
0

>  <SCORE.INTER.ROT>
3

>  <SCORE.INTER.SOLV>
17.8226

>  <SCORE.INTER.VDW>
-12.899

>  <SCORE.INTER.norm>
-0.127324

>  <SCORE.INTRA>
1.16199

>  <SCORE.INTRA.DIHEDRAL>
3.87882

>  <SCORE.INTRA.DIHEDRAL.0>
2.05999

>  <SCORE.INTRA.POLAR>
0

>  <SCORE.INTRA.POLAR.0>
0

>  <SCORE.INTRA.REPUL>
0

>  <SCORE.INTRA.REPUL.0>
0

>  <SCORE.INTRA.SOLV>
-1.15365

>  <SCORE.INTRA.SOLV.lig_0>
-58.7001

>  <SCORE.INTRA.VDW>
-0.200597

>  <SCORE.INTRA.VDW.0>
-0.401036

>  <SCORE.INTRA.norm>
0.0726242

>  <SCORE.RESTR>
1.56278

>  <SCORE.RESTR.CAVITY>
1.56278

>  <SCORE.RESTR.norm>
0.0976735

>  <SCORE.SYSTEM>
0

>  <SCORE.SYSTEM.CONST>
0

>  <SCORE.SYSTEM.DIHEDRAL>
0

>  <SCORE.SYSTEM.SOLV>
0

>  <SCORE.SYSTEM.norm>
0

>  <SCORE.heavy>
16

>  <SCORE.norm>
0.0429733

>  <RMSD>
48.753

$$$$
ligand
 OpenBabel11021811463D
libRbt.so/2013.1/901 2013/11/27
 16 16  0  0  0  0  0  0  0  0999 V2000
   11.3212   24.6462   21.3851 P   0  0  2  0  0  0  0  0  0  0  0  0
   11.9998   25.9379   21.1142 O   0  0  0  0  0  0  0  0  0  0  0  0
   10.8816   23.9742   19.9864 O   0  5  0  0  0  0  0  0  0  0  0  0
   10.0162   24.9246   22.2998 O   0  0  0  0  0  0  0  0  0  0  0  0
   10.0093   21.3424   25.7265 C   0  0  2  0  0  0  0  0  0  0  0  0
    8.9158   22.2865   25.7838 O   0  0  0  0  0  0  0  0  0  0  0  0
   11.1180   21.7103   26.7548 C   0  0  2  0  0  0  0  0  0  0  0  0
   10.5424   21.7383   28.1120 N   0  0  0  0  0  0  0  0  0  0  0  0
   11.6878   23.0994   26.3927 C   0  0  1  0  0  0  0  0  0  0  0  0
   12.7209   23.4634   27.3237 O   0  0  0  0  0  0  0  0  0  0  0  0
   12.2726   23.0056   24.9680 C   0  0  2  0  0  0  0  0  0  0  0  0
   12.8070   24.2866   24.5931 O   0  0  0  0  0  0  0  0  0  0  0  0
   11.1222   22.6061   23.9935 C   0  0  2  0  0  0  0  0  0  0  0  0
   10.5568   21.3151   24.3697 O   0  0  0  0  0  0  0  0  0  0  0  0
   11.6431   22.4759   22.5529 C   0  0  0  0  0  0  0  0  0  0  0  0
   12.3518   23.6639   22.1584 O   0  0  0  0  0  0  0  0  0  0  0  0
  1  2  1  6  0  0  0
  1  3  1  0  0  0  0
  1  4  2  0  0  0  0
  1 16  1  0  0  0  0
  5  6  1  6  0  0  0
  5  7  1  0  0  0  0
  5 14  1  0  0  0  0
  7  8  1  1  0  0  0
  7  9  1  0  0  0  0
  9 10  1  1  0  0  0
  9 11  1  0  0  0  0
 11 12  1  6  0  0  0
 11 13  1  0  0  0  0
 13 14  1  0  0  0  0
 13 15  1  6  0  0  0
 15 16  1  0  0  0  0
M  CHG  1   3  -1
M  END
>  <CHROM.1>
-52.64243704,-94.38057507,173.47293838,11.25510224,23.30728492,23.95392006
-1.48121014,0.66682794,1.93532198

>  <Name>
ligand

>  <RI>
0

>  <Rbt.Current_Directory>
/home/itssahil/PROJECTS/Mol_Feturizer/New_Systems/rnas/3B4A

>  <Rbt.Executable>
rbdock ($Id: //depot/dev/client3/rdock/2013.1/src/exe/rbdock.cxx#4 $)

>  <Rbt.Library>
libRbt.so (2013.1, Build901 2013/11/27)

>  <Rbt.Parameter_File>
/export/apps/rDock/src/rDock_2013.1_src/data/scripts/dock_solv.prm

>  <Rbt.Receptor>
prm/blind_docking_40.prm

>  <SCORE>
0.200671

>  <SCORE.INTER>
-3.00405

>  <SCORE.INTER.CONST>
1

>  <SCORE.INTER.POLAR>
0

>  <SCORE.INTER.ROT>
3

>  <SCORE.INTER.SOLV>
12.4011

>  <SCORE.INTER.VDW>
-11.7364

>  <SCORE.INTER.norm>
-0.187753

>  <SCORE.INTRA>
2.14342

>  <SCORE.INTRA.DIHEDRAL>
2.6256

>  <SCORE.INTRA.DIHEDRAL.0>
2.05999

>  <SCORE.INTRA.POLAR>
0

>  <SCORE.INTRA.POLAR.0>
0

>  <SCORE.INTRA.REPUL>
0

>  <SCORE.INTRA.REPUL.0>
0

>  <SCORE.INTRA.SOLV>
2.25971

>  <SCORE.INTRA.SOLV.lig_0>
-58.7001

>  <SCORE.INTRA.VDW>
-0.299233

>  <SCORE.INTRA.VDW.0>
-0.401036

>  <SCORE.INTRA.norm>
0.133964

>  <SCORE.RESTR>
1.0613

>  <SCORE.RESTR.CAVITY>
1.0613

>  <SCORE.RESTR.norm>
0.0663311

>  <SCORE.SYSTEM>
0

>  <SCORE.SYSTEM.CONST>
0

>  <SCORE.SYSTEM.DIHEDRAL>
0

>  <SCORE.SYSTEM.SOLV>
0

>  <SCORE.SYSTEM.norm>
0

>  <SCORE.heavy>
16

>  <SCORE.norm>
0.012542

>  <RMSD>
48.834

$$$$
ligand
 OpenBabel11021811463D
libRbt.so/2013.1/901 2013/11/27
 16 16  0  0  0  0  0  0  0  0999 V2000
   11.4671   24.1383   21.9311 P   0  0  2  0  0  0  0  0  0  0  0  0
   12.6036   24.7129   21.1690 O   0  0  0  0  0  0  0  0  0  0  0  0
   10.1497   24.1397   21.0008 O   0  5  0  0  0  0  0  0  0  0  0  0
   11.2145   25.0406   23.2499 O   0  0  0  0  0  0  0  0  0  0  0  0
   11.4670   23.1800   26.9747 C   0  0  2  0  0  0  0  0  0  0  0  0
   12.0755   22.0393   27.6217 O   0  0  0  0  0  0  0  0  0  0  0  0
    9.9427   22.9513   26.7592 C   0  0  2  0  0  0  0  0  0  0  0  0
    9.2933   22.6987   28.0586 N   0  0  0  0  0  0  0  0  0  0  0  0
    9.7517   21.7351   25.8265 C   0  0  1  0  0  0  0  0  0  0  0  0
    8.3505   21.5035   25.6038 O   0  0  0  0  0  0  0  0  0  0  0  0
   10.4505   22.0594   24.4898 C   0  0  2  0  0  0  0  0  0  0  0  0
   10.2993   20.9430   23.5965 O   0  0  0  0  0  0  0  0  0  0  0  0
   11.9634   22.3064   24.7772 C   0  0  2  0  0  0  0  0  0  0  0  0
   12.1345   23.4264   25.6960 O   0  0  0  0  0  0  0  0  0  0  0  0
   12.7183   22.6551   23.4841 C   0  0  0  0  0  0  0  0  0  0  0  0
   11.8327   22.6168   22.3512 O   0  0  0  0  0  0  0  0  0  0  0  0
  1  2  1  6  0  0  0
  1  3  1  0  0  0  0
  1  4  2  0  0  0  0
  1 16  1  0  0  0  0
  5  6  1  6  0  0  0
  5  7  1  0  0  0  0
  5 14  1  0  0  0  0
  7  8  1  1  0  0  0
  7  9  1  0  0  0  0
  9 10  1  6  0  0  0
  9 11  1  0  0  0  0
 11 12  1  6  0  0  0
 11 13  1  0  0  0  0
 13 14  1  0  0  0  0
 13 15  1  6  0  0  0
 15 16  1  0  0  0  0
M  CHG  1   3  -1
M  END
>  <CHROM.1>
-1.86335815,103.54620362,78.39490583,11.02651142,22.98777735,24.28986775
1.30592344,-0.49715209,-1.36155591

>  <Name>
ligand

>  <RI>
0

>  <Rbt.Current_Directory>
/home/itssahil/PROJECTS/Mol_Feturizer/New_Systems/rnas/3B4A

>  <Rbt.Executable>
rbdock ($Id: //depot/dev/client3/rdock/2013.1/src/exe/rbdock.cxx#4 $)

>  <Rbt.Library>
libRbt.so (2013.1, Build901 2013/11/27)

>  <Rbt.Parameter_File>
/export/apps/rDock/src/rDock_2013.1_src/data/scripts/dock_solv.prm

>  <Rbt.Receptor>
prm/blind_docking_40.prm

>  <SCORE>
3.83323

>  <SCORE.INTER>
-3.59898

>  <SCORE.INTER.CONST>
1

>  <SCORE.INTER.POLAR>
0

>  <SCORE.INTER.ROT>
3

>  <SCORE.INTER.SOLV>
10.8023

>  <SCORE.INTER.VDW>
-11.6001

>  <SCORE.INTER.norm>
-0.224936

>  <SCORE.INTRA>
6.91755

>  <SCORE.INTRA.DIHEDRAL>
9.66625

>  <SCORE.INTRA.DIHEDRAL.0>
2.05999

>  <SCORE.INTRA.POLAR>
0

>  <SCORE.INTRA.POLAR.0>
0

>  <SCORE.INTRA.REPUL>
0

>  <SCORE.INTRA.REPUL.0>
0

>  <SCORE.INTRA.SOLV>
3.44074

>  <SCORE.INTRA.SOLV.lig_0>
-58.7001

>  <SCORE.INTRA.VDW>
0.364055

>  <SCORE.INTRA.VDW.0>
-0.401036

>  <SCORE.INTRA.norm>
0.432347

>  <SCORE.RESTR>
0.514663

>  <SCORE.RESTR.CAVITY>
0.514663

>  <SCORE.RESTR.norm>
0.0321665

>  <SCORE.SYSTEM>
0

>  <SCORE.SYSTEM.CONST>
0

>  <SCORE.SYSTEM.DIHEDRAL>
0

>  <SCORE.SYSTEM.SOLV>
0

>  <SCORE.SYSTEM.norm>
0

>  <SCORE.heavy>
16

>  <SCORE.norm>
0.239577

>  <RMSD>
48.871

$$$$
ligand
 OpenBabel11021811463D
libRbt.so/2013.1/901 2013/11/27
 16 16  0  0  0  0  0  0  0  0999 V2000
   11.5228   24.1960   21.9358 P   0  0  2  0  0  0  0  0  0  0  0  0
   12.7597   24.5980   21.2210 O   0  0  0  0  0  0  0  0  0  0  0  0
   10.2459   24.4995   20.9985 O   0  5  0  0  0  0  0  0  0  0  0  0
   11.4154   25.0441   23.3093 O   0  0  0  0  0  0  0  0  0  0  0  0
   11.4605   23.4251   26.7235 C   0  0  2  0  0  0  0  0  0  0  0  0
   12.1225   22.4050   27.5053 O   0  0  0  0  0  0  0  0  0  0  0  0
    9.9336   23.1432   26.6173 C   0  0  2  0  0  0  0  0  0  0  0  0
    9.3484   23.0804   27.9693 N   0  0  0  0  0  0  0  0  0  0  0  0
    9.7283   21.7970   25.8885 C   0  0  1  0  0  0  0  0  0  0  0  0
    8.3241   21.5130   25.7698 O   0  0  0  0  0  0  0  0  0  0  0  0
   10.3594   21.9258   24.4866 C   0  0  2  0  0  0  0  0  0  0  0  0
   10.1935   20.6849   23.7797 O   0  0  0  0  0  0  0  0  0  0  0  0
   11.8778   22.2365   24.6615 C   0  0  2  0  0  0  0  0  0  0  0  0
   12.0648   23.4852   25.3921 O   0  0  0  0  0  0  0  0  0  0  0  0
   12.5665   22.3969   23.2963 C   0  0  0  0  0  0  0  0  0  0  0  0
   11.5945   22.6097   22.2575 O   0  0  0  0  0  0  0  0  0  0  0  0
  1  2  1  6  0  0  0
  1  3  1  0  0  0  0
  1  4  2  0  0  0  0
  1 16  1  0  0  0  0
  5  6  1  1  0  0  0
  5  7  1  0  0  0  0
  5 14  1  0  0  0  0
  7  8  1  1  0  0  0
  7  9  1  0  0  0  0
  9 10  1  6  0  0  0
  9 11  1  0  0  0  0
 11 12  1  1  0  0  0
 11 13  1  0  0  0  0
 13 14  1  0  0  0  0
 13 15  1  6  0  0  0
 15 16  1  0  0  0  0
M  CHG  1   3  -1
M  END
>  <CHROM.1>
16.89589017,99.47689401,71.92054608,11.02063980,23.04344623,24.24826902,-1.21928320
0.68488974,1.67945989

>  <Name>
ligand

>  <RI>
0

>  <Rbt.Current_Directory>
/home/itssahil/PROJECTS/Mol_Feturizer/New_Systems/rnas/3B4A

>  <Rbt.Executable>
rbdock ($Id: //depot/dev/client3/rdock/2013.1/src/exe/rbdock.cxx#4 $)

>  <Rbt.Library>
libRbt.so (2013.1, Build901 2013/11/27)

>  <Rbt.Parameter_File>
/export/apps/rDock/src/rDock_2013.1_src/data/scripts/dock_solv.prm

>  <Rbt.Receptor>
prm/blind_docking_40.prm

>  <SCORE>
2.31542

>  <SCORE.INTER>
-3.35148

>  <SCORE.INTER.CONST>
1

>  <SCORE.INTER.POLAR>
0

>  <SCORE.INTER.ROT>
3

>  <SCORE.INTER.SOLV>
10.4334

>  <SCORE.INTER.VDW>
-11.3121

>  <SCORE.INTER.norm>
-0.209467

>  <SCORE.INTRA>
5.40459

>  <SCORE.INTRA.DIHEDRAL>
7.78781

>  <SCORE.INTRA.DIHEDRAL.0>
2.05999

>  <SCORE.INTRA.POLAR>
0

>  <SCORE.INTRA.POLAR.0>
0

>  <SCORE.INTRA.REPUL>
0

>  <SCORE.INTRA.REPUL.0>
0

>  <SCORE.INTRA.SOLV>
3.19933

>  <SCORE.INTRA.SOLV.lig_0>
-58.7001

>  <SCORE.INTRA.VDW>
-0.0889766

>  <SCORE.INTRA.VDW.0>
-0.401036

>  <SCORE.INTRA.norm>
0.337787

>  <SCORE.RESTR>
0.262301

>  <SCORE.RESTR.CAVITY>
0.262301

>  <SCORE.RESTR.norm>
0.0163938

>  <SCORE.SYSTEM>
0

>  <SCORE.SYSTEM.CONST>
0

>  <SCORE.SYSTEM.DIHEDRAL>
0

>  <SCORE.SYSTEM.SOLV>
0

>  <SCORE.SYSTEM.norm>
0

>  <SCORE.heavy>
16

>  <SCORE.norm>
0.144714

>  <RMSD>
48.897

$$$$
ligand
 OpenBabel11021811463D
libRbt.so/2013.1/901 2013/11/27
 16 16  0  0  0  0  0  0  0  0999 V2000
   11.8731   24.8402   20.9396 P   0  0  2  0  0  0  0  0  0  0  0  0
   13.2709   24.4642   20.6123 O   0  0  0  0  0  0  0  0  0  0  0  0
   10.8645   24.0023   20.0006 O   0  5  0  0  0  0  0  0  0  0  0  0
   11.6847   26.4256   20.6781 O   0  0  0  0  0  0  0  0  0  0  0  0
   11.6753   23.5256   26.5358 C   0  0  2  0  0  0  0  0  0  0  0  0
   12.6420   22.5624   27.0135 O   0  0  0  0  0  0  0  0  0  0  0  0
   10.2365   22.9333   26.5655 C   0  0  2  0  0  0  0  0  0  0  0  0
    9.9022   22.5179   27.9402 N   0  0  0  0  0  0  0  0  0  0  0  0
   10.1828   21.7157   25.6167 C   0  0  1  0  0  0  0  0  0  0  0  0
    8.8609   21.1507   25.6186 O   0  0  0  0  0  0  0  0  0  0  0  0
   10.5404   22.2130   24.2007 C   0  0  2  0  0  0  0  0  0  0  0  0
   10.5078   21.1016   23.2891 O   0  0  0  0  0  0  0  0  0  0  0  0
   11.9767   22.8196   24.2447 C   0  0  2  0  0  0  0  0  0  0  0  0
   12.0319   23.9392   25.1782 O   0  0  0  0  0  0  0  0  0  0  0  0
   12.3897   23.3539   22.8635 C   0  0  0  0  0  0  0  0  0  0  0  0
   11.5851   24.4879   22.4946 O   0  0  0  0  0  0  0  0  0  0  0  0
  1  2  1  6  0  0  0
  1  3  1  0  0  0  0
  1  4  2  0  0  0  0
  1 16  1  0  0  0  0
  5  6  1  6  0  0  0
  5  7  1  0  0  0  0
  5 14  1  0  0  0  0
  7  8  1  1  0  0  0
  7  9  1  0  0  0  0
  9 10  1  6  0  0  0
  9 11  1  0  0  0  0
 11 12  1  6  0  0  0
 11 13  1  0  0  0  0
 13 14  1  0  0  0  0
 13 15  1  6  0  0  0
 15 16  1  0  0  0  0
M  CHG  1   3  -1
M  END
>  <CHROM.1>
66.93989944,-169.89570575,-30.46950786,11.32236571,23.38877020,23.69804350
-1.25829370,0.80173221,1.77119111

>  <Name>
ligand

>  <RI>
0

>  <Rbt.Current_Directory>
/home/itssahil/PROJECTS/Mol_Feturizer/New_Systems/rnas/3B4A

>  <Rbt.Executable>
rbdock ($Id: //depot/dev/client3/rdock/2013.1/src/exe/rbdock.cxx#4 $)

>  <Rbt.Library>
libRbt.so (2013.1, Build901 2013/11/27)

>  <Rbt.Parameter_File>
/export/apps/rDock/src/rDock_2013.1_src/data/scripts/dock_solv.prm

>  <Rbt.Receptor>
prm/blind_docking_40.prm

>  <SCORE>
-1.57718

>  <SCORE.INTER>
-2.4016

>  <SCORE.INTER.CONST>
1

>  <SCORE.INTER.POLAR>
0

>  <SCORE.INTER.ROT>
3

>  <SCORE.INTER.SOLV>
13.8922

>  <SCORE.INTER.VDW>
-11.8318

>  <SCORE.INTER.norm>
-0.1501

>  <SCORE.INTRA>
0.0762712

>  <SCORE.INTRA.DIHEDRAL>
-0.220429

>  <SCORE.INTRA.DIHEDRAL.0>
2.05999

>  <SCORE.INTRA.POLAR>
0

>  <SCORE.INTRA.POLAR.0>
0

>  <SCORE.INTRA.REPUL>
0

>  <SCORE.INTRA.REPUL.0>
0

>  <SCORE.INTRA.SOLV>
-0.98813

>  <SCORE.INTRA.SOLV.lig_0>
-58.7001

>  <SCORE.INTRA.VDW>
0.68055

>  <SCORE.INTRA.VDW.0>
-0.401036

>  <SCORE.INTRA.norm>
0.00476695

>  <SCORE.RESTR>
0.748158

>  <SCORE.RESTR.CAVITY>
0.748158

>  <SCORE.RESTR.norm>
0.0467599

>  <SCORE.SYSTEM>
0

>  <SCORE.SYSTEM.CONST>
0

>  <SCORE.SYSTEM.DIHEDRAL>
0

>  <SCORE.SYSTEM.SOLV>
0

>  <SCORE.SYSTEM.norm>
0

>  <SCORE.heavy>
16

>  <SCORE.norm>
-0.0985735

>  <RMSD>
48.918

$$$$
ligand
 OpenBabel11021811463D
libRbt.so/2013.1/901 2013/11/27
 16 16  0  0  0  0  0  0  0  0999 V2000
   11.8858   24.8593   20.9420 P   0  0  2  0  0  0  0  0  0  0  0  0
   13.2819   24.4986   20.5912 O   0  0  0  0  0  0  0  0  0  0  0  0
   10.8705   24.0000   20.0299 O   0  5  0  0  0  0  0  0  0  0  0  0
   11.6715   26.4397   20.6705 O   0  0  0  0  0  0  0  0  0  0  0  0
   11.6834   23.5279   26.5155 C   0  0  2  0  0  0  0  0  0  0  0  0
   12.6457   22.5600   26.9924 O   0  0  0  0  0  0  0  0  0  0  0  0
   10.2403   22.9468   26.5579 C   0  0  2  0  0  0  0  0  0  0  0  0
    9.9119   22.5419   27.9372 N   0  0  0  0  0  0  0  0  0  0  0  0
   10.1710   21.7243   25.6166 C   0  0  1  0  0  0  0  0  0  0  0  0
    8.8449   21.1695   25.6303 O   0  0  0  0  0  0  0  0  0  0  0  0
   10.5232   22.2107   24.1954 C   0  0  2  0  0  0  0  0  0  0  0  0
   10.4760   21.0944   23.2905 O   0  0  0  0  0  0  0  0  0  0  0  0
   11.9642   22.8065   24.2265 C   0  0  2  0  0  0  0  0  0  0  0  0
   12.0342   23.9309   25.1532 O   0  0  0  0  0  0  0  0  0  0  0  0
   12.3723   23.3297   22.8396 C   0  0  0  0  0  0  0  0  0  0  0  0
   11.6323   24.5171   22.5052 O   0  0  0  0  0  0  0  0  0  0  0  0
  1  2  1  6  0  0  0
  1  3  1  0  0  0  0
  1  4  2  0  0  0  0
  1 16  1  0  0  0  0
  5  6  1  6  0  0  0
  5  7  1  0  0  0  0
  5 14  1  0  0  0  0
  7  8  1  1  0  0  0
  7  9  1  0  0  0  0
  9 10  1  6  0  0  0
  9 11  1  0  0  0  0
 11 12  1  6  0  0  0
 11 13  1  0  0  0  0
 13 14  1  0  0  0  0
 13 15  1  6  0  0  0
 15 16  1  0  0  0  0
M  CHG  1   3  -1
M  END
>  <CHROM.1>
70.53260993,-169.26703630,-35.22810295,11.32255643,23.39640921,23.69280772
-1.25340665,0.80044636,1.77120001

>  <Name>
ligand

>  <RI>
0

>  <Rbt.Current_Directory>
/home/itssahil/PROJECTS/Mol_Feturizer/New_Systems/rnas/3B4A

>  <Rbt.Executable>
rbdock ($Id: //depot/dev/client3/rdock/2013.1/src/exe/rbdock.cxx#4 $)

>  <Rbt.Library>
libRbt.so (2013.1, Build901 2013/11/27)

>  <Rbt.Parameter_File>
/export/apps/rDock/src/rDock_2013.1_src/data/scripts/dock_solv.prm

>  <Rbt.Receptor>
prm/blind_docking_40.prm

>  <SCORE>
-1.72284

>  <SCORE.INTER>
-2.38512

>  <SCORE.INTER.CONST>
1

>  <SCORE.INTER.POLAR>
0

>  <SCORE.INTER.ROT>
3

>  <SCORE.INTER.SOLV>
13.8348

>  <SCORE.INTER.VDW>
-11.8017

>  <SCORE.INTER.norm>
-0.14907

>  <SCORE.INTRA>
-0.114681

>  <SCORE.INTRA.DIHEDRAL>
-0.233973

>  <SCORE.INTRA.DIHEDRAL.0>
2.05999

>  <SCORE.INTRA.POLAR>
0

>  <SCORE.INTRA.POLAR.0>
0

>  <SCORE.INTRA.REPUL>
0

>  <SCORE.INTRA.REPUL.0>
0

>  <SCORE.INTRA.SOLV>
-0.92479

>  <SCORE.INTRA.SOLV.lig_0>
-58.7001

>  <SCORE.INTRA.VDW>
0.4647

>  <SCORE.INTRA.VDW.0>
-0.401036

>  <SCORE.INTRA.norm>
-0.00716758

>  <SCORE.RESTR>
0.776963

>  <SCORE.RESTR.CAVITY>
0.776963

>  <SCORE.RESTR.norm>
0.0485602

>  <SCORE.SYSTEM>
0

>  <SCORE.SYSTEM.CONST>
0

>  <SCORE.SYSTEM.DIHEDRAL>
0

>  <SCORE.SYSTEM.SOLV>
0

>  <SCORE.SYSTEM.norm>
0

>  <SCORE.heavy>
16

>  <SCORE.norm>
-0.107677

>  <RMSD>
48.920

$$$$
ligand
 OpenBabel11021811463D
libRbt.so/2013.1/901 2013/11/27
 16 16  0  0  0  0  0  0  0  0999 V2000
   11.7124   25.0755   20.6304 P   0  0  2  0  0  0  0  0  0  0  0  0
   11.8891   26.4903   21.0422 O   0  0  0  0  0  0  0  0  0  0  0  0
   13.1083   24.5134   20.0503 O   0  5  0  0  0  0  0  0  0  0  0  0
   10.5692   25.0039   19.4880 O   0  0  0  0  0  0  0  0  0  0  0  0
   11.5532   24.2091   26.2378 C   0  0  2  0  0  0  0  0  0  0  0  0
   12.6920   23.5588   26.8464 O   0  0  0  0  0  0  0  0  0  0  0  0
   10.2894   23.3038   26.3105 C   0  0  2  0  0  0  0  0  0  0  0  0
    9.9956   22.9789   27.7185 N   0  0  0  0  0  0  0  0  0  0  0  0
   10.5617   22.0088   25.5141 C   0  0  1  0  0  0  0  0  0  0  0  0
    9.4066   21.1541   25.5582 O   0  0  0  0  0  0  0  0  0  0  0  0
   10.8613   22.4136   24.0557 C   0  0  2  0  0  0  0  0  0  0  0  0
   11.1280   21.2302   23.2839 O   0  0  0  0  0  0  0  0  0  0  0  0
   12.1158   23.3404   24.0543 C   0  0  2  0  0  0  0  0  0  0  0  0
   11.8682   24.5394   24.8474 O   0  0  0  0  0  0  0  0  0  0  0  0
   12.4591   23.7978   22.6273 C   0  0  0  0  0  0  0  0  0  0  0  0
   11.2722   24.2037   21.9231 O   0  0  0  0  0  0  0  0  0  0  0  0
  1  2  1  1  0  0  0
  1  3  1  0  0  0  0
  1  4  2  0  0  0  0
  1 16  1  0  0  0  0
  5  6  1  6  0  0  0
  5  7  1  0  0  0  0
  5 14  1  0  0  0  0
  7  8  1  1  0  0  0
  7  9  1  0  0  0  0
  9 10  1  6  0  0  0
  9 11  1  0  0  0  0
 11 12  1  6  0  0  0
 11 13  1  0  0  0  0
 13 14  1  0  0  0  0
 13 15  1  6  0  0  0
 15 16  1  0  0  0  0
M  CHG  1   3  -1
M  END
>  <CHROM.1>
44.59429833,163.18995403,-85.64104984,11.38224724,23.73728072,23.46629731
-1.24338714,1.03817037,1.67454917

>  <Name>
ligand

>  <RI>
0

>  <Rbt.Current_Directory>
/home/itssahil/PROJECTS/Mol_Feturizer/New_Systems/rnas/3B4A

>  <Rbt.Executable>
rbdock ($Id: //depot/dev/client3/rdock/2013.1/src/exe/rbdock.cxx#4 $)

>  <Rbt.Library>
libRbt.so (2013.1, Build901 2013/11/27)

>  <Rbt.Parameter_File>
/export/apps/rDock/src/rDock_2013.1_src/data/scripts/dock_solv.prm

>  <Rbt.Receptor>
prm/blind_docking_40.prm

>  <SCORE>
0.734259

>  <SCORE.INTER>
-0.861031

>  <SCORE.INTER.CONST>
1

>  <SCORE.INTER.POLAR>
0

>  <SCORE.INTER.ROT>
3

>  <SCORE.INTER.SOLV>
14.1693

>  <SCORE.INTER.VDW>
-10.8971

>  <SCORE.INTER.norm>
-0.0538145

>  <SCORE.INTRA>
0.542689

>  <SCORE.INTRA.DIHEDRAL>
0.985364

>  <SCORE.INTRA.DIHEDRAL.0>
2.05999

>  <SCORE.INTRA.POLAR>
0

>  <SCORE.INTRA.POLAR.0>
0

>  <SCORE.INTRA.REPUL>
0

>  <SCORE.INTRA.REPUL.0>
0

>  <SCORE.INTRA.SOLV>
-0.552517

>  <SCORE.INTRA.SOLV.lig_0>
-58.7001

>  <SCORE.INTRA.VDW>
0.326265

>  <SCORE.INTRA.VDW.0>
-0.401036

>  <SCORE.INTRA.norm>
0.033918

>  <SCORE.RESTR>
1.0526

>  <SCORE.RESTR.CAVITY>
1.0526

>  <SCORE.RESTR.norm>
0.0657876

>  <SCORE.SYSTEM>
0

>  <SCORE.SYSTEM.CONST>
0

>  <SCORE.SYSTEM.DIHEDRAL>
0

>  <SCORE.SYSTEM.SOLV>
0

>  <SCORE.SYSTEM.norm>
0

>  <SCORE.heavy>
16

>  <SCORE.norm>
0.0458912

>  <RMSD>
48.923

$$$$
ligand
 OpenBabel11021811463D
libRbt.so/2013.1/901 2013/11/27
 16 16  0  0  0  0  0  0  0  0999 V2000
   11.3977   24.1537   22.1654 P   0  0  2  0  0  0  0  0  0  0  0  0
   10.5937   24.6039   23.3288 O   0  0  0  0  0  0  0  0  0  0  0  0
   11.5811   25.3842   21.1391 O   0  5  0  0  0  0  0  0  0  0  0  0
   10.6225   22.9353   21.4361 O   0  0  0  0  0  0  0  0  0  0  0  0
   11.5776   23.3805   26.4676 C   0  0  2  0  0  0  0  0  0  0  0  0
   12.2044   22.3626   27.2808 O   0  0  0  0  0  0  0  0  0  0  0  0
   10.0498   23.1197   26.3274 C   0  0  2  0  0  0  0  0  0  0  0  0
    9.4303   23.0862   27.6651 N   0  0  0  0  0  0  0  0  0  0  0  0
    9.8422   21.7657   25.6138 C   0  0  1  0  0  0  0  0  0  0  0  0
    8.4372   21.5008   25.4641 O   0  0  0  0  0  0  0  0  0  0  0  0
   10.5098   21.8638   24.2263 C   0  0  2  0  0  0  0  0  0  0  0  0
   10.3426   20.6148   23.5341 O   0  0  0  0  0  0  0  0  0  0  0  0
   12.0279   22.1546   24.4346 C   0  0  2  0  0  0  0  0  0  0  0  0
   12.2156   23.4113   25.1510 O   0  0  0  0  0  0  0  0  0  0  0  0
   12.7526   22.2839   23.0849 C   0  0  0  0  0  0  0  0  0  0  0  0
   12.8503   23.6635   22.6894 O   0  0  0  0  0  0  0  0  0  0  0  0
  1  2  1  1  0  0  0
  1  3  1  0  0  0  0
  1  4  2  0  0  0  0
  1 16  1  0  0  0  0
  5  6  1  1  0  0  0
  5  7  1  0  0  0  0
  5 14  1  0  0  0  0
  7  8  1  1  0  0  0
  7  9  1  0  0  0  0
  9 10  1  6  0  0  0
  9 11  1  0  0  0  0
 11 12  1  1  0  0  0
 11 13  1  0  0  0  0
 13 14  1  0  0  0  0
 13 15  1  6  0  0  0
 15 16  1  0  0  0  0
M  CHG  1   3  -1
M  END
>  <CHROM.1>
95.36863938,-75.24110051,85.88015134,11.06169058,22.99667648,24.16695394
-1.23353248,0.67845928,1.71533973

>  <Name>
ligand

>  <RI>
0

>  <Rbt.Current_Directory>
/home/itssahil/PROJECTS/Mol_Feturizer/New_Systems/rnas/3B4A

>  <Rbt.Executable>
rbdock ($Id: //depot/dev/client3/rdock/2013.1/src/exe/rbdock.cxx#4 $)

>  <Rbt.Library>
libRbt.so (2013.1, Build901 2013/11/27)

>  <Rbt.Parameter_File>
/export/apps/rDock/src/rDock_2013.1_src/data/scripts/dock_solv.prm

>  <Rbt.Receptor>
prm/blind_docking_40.prm

>  <SCORE>
-2.20052

>  <SCORE.INTER>
-5.31705

>  <SCORE.INTER.CONST>
1

>  <SCORE.INTER.POLAR>
0

>  <SCORE.INTER.ROT>
3

>  <SCORE.INTER.SOLV>
11.6409

>  <SCORE.INTER.VDW>
-13.025

>  <SCORE.INTER.norm>
-0.332316

>  <SCORE.INTRA>
3.10173

>  <SCORE.INTRA.DIHEDRAL>
3.34784

>  <SCORE.INTRA.DIHEDRAL.0>
2.05999

>  <SCORE.INTRA.POLAR>
0

>  <SCORE.INTRA.POLAR.0>
0

>  <SCORE.INTRA.REPUL>
0

>  <SCORE.INTRA.REPUL.0>
0

>  <SCORE.INTRA.SOLV>
3.31301

>  <SCORE.INTRA.SOLV.lig_0>
-58.7001

>  <SCORE.INTRA.VDW>
-0.228696

>  <SCORE.INTRA.VDW.0>
-0.401036

>  <SCORE.INTRA.norm>
0.193858

>  <SCORE.RESTR>
0.0147993

>  <SCORE.RESTR.CAVITY>
0.0147993

>  <SCORE.RESTR.norm>
0.000924956

>  <SCORE.SYSTEM>
0

>  <SCORE.SYSTEM.CONST>
0

>  <SCORE.SYSTEM.DIHEDRAL>
0

>  <SCORE.SYSTEM.SOLV>
0

>  <SCORE.SYSTEM.norm>
0

>  <SCORE.heavy>
16

>  <SCORE.norm>
-0.137533

>  <RMSD>
48.926

$$$$
ligand
 OpenBabel11021811463D
libRbt.so/2013.1/901 2013/11/27
 16 16  0  0  0  0  0  0  0  0999 V2000
   11.4252   24.1588   22.1630 P   0  0  2  0  0  0  0  0  0  0  0  0
   10.6286   24.6117   23.3304 O   0  0  0  0  0  0  0  0  0  0  0  0
   11.6386   25.3981   21.1532 O   0  5  0  0  0  0  0  0  0  0  0  0
   10.6248   22.9676   21.4162 O   0  0  0  0  0  0  0  0  0  0  0  0
   11.5847   23.3678   26.4553 C   0  0  2  0  0  0  0  0  0  0  0  0
   12.2098   22.3493   27.2691 O   0  0  0  0  0  0  0  0  0  0  0  0
   10.0545   23.1161   26.3249 C   0  0  2  0  0  0  0  0  0  0  0  0
    9.4425   23.0918   27.6662 N   0  0  0  0  0  0  0  0  0  0  0  0
    9.8343   21.7606   25.6180 C   0  0  1  0  0  0  0  0  0  0  0  0
    8.4268   21.5040   25.4775 O   0  0  0  0  0  0  0  0  0  0  0  0
   10.4946   21.8489   24.2264 C   0  0  2  0  0  0  0  0  0  0  0  0
   10.3156   20.5982   23.5401 O   0  0  0  0  0  0  0  0  0  0  0  0
   12.0157   22.1309   24.4248 C   0  0  2  0  0  0  0  0  0  0  0  0
   12.2154   23.3893   25.1350 O   0  0  0  0  0  0  0  0  0  0  0  0
   12.7334   22.2502   23.0705 C   0  0  0  0  0  0  0  0  0  0  0  0
   12.8653   23.6295   22.6837 O   0  0  0  0  0  0  0  0  0  0  0  0
  1  2  1  1  0  0  0
  1  3  1  0  0  0  0
  1  4  2  0  0  0  0
  1 16  1  0  0  0  0
  5  6  1  1  0  0  0
  5  7  1  0  0  0  0
  5 14  1  0  0  0  0
  7  8  1  1  0  0  0
  7  9  1  0  0  0  0
  9 10  1  6  0  0  0
  9 11  1  0  0  0  0
 11 12  1  1  0  0  0
 11 13  1  0  0  0  0
 13 14  1  0  0  0  0
 13 15  1  6  0  0  0
 15 16  1  0  0  0  0
M  CHG  1   3  -1
M  END
>  <CHROM.1>
96.71081431,-75.69415286,85.45135082,11.06836750,22.99082874,24.16372167
-1.22042554,0.68990362,1.70810725

>  <Name>
ligand

>  <RI>
0

>  <Rbt.Current_Directory>
/home/itssahil/PROJECTS/Mol_Feturizer/New_Systems/rnas/3B4A

>  <Rbt.Executable>
rbdock ($Id: //depot/dev/client3/rdock/2013.1/src/exe/rbdock.cxx#4 $)

>  <Rbt.Library>
libRbt.so (2013.1, Build901 2013/11/27)

>  <Rbt.Parameter_File>
/export/apps/rDock/src/rDock_2013.1_src/data/scripts/dock_solv.prm

>  <Rbt.Receptor>
prm/blind_docking_40.prm

>  <SCORE>
-2.15922

>  <SCORE.INTER>
-5.27794

>  <SCORE.INTER.CONST>
1

>  <SCORE.INTER.POLAR>
0

>  <SCORE.INTER.ROT>
3

>  <SCORE.INTER.SOLV>
11.8348

>  <SCORE.INTER.VDW>
-13.0635

>  <SCORE.INTER.norm>
-0.329871

>  <SCORE.INTRA>
3.10583

>  <SCORE.INTRA.DIHEDRAL>
3.55947

>  <SCORE.INTRA.DIHEDRAL.0>
2.05999

>  <SCORE.INTRA.POLAR>
0

>  <SCORE.INTRA.POLAR.0>
0

>  <SCORE.INTRA.REPUL>
0

>  <SCORE.INTRA.REPUL.0>
0

>  <SCORE.INTRA.SOLV>
3.21189

>  <SCORE.INTRA.SOLV.lig_0>
-58.7001

>  <SCORE.INTRA.VDW>
-0.27985

>  <SCORE.INTRA.VDW.0>
-0.401036

>  <SCORE.INTRA.norm>
0.194114

>  <SCORE.RESTR>
0.012884

>  <SCORE.RESTR.CAVITY>
0.012884

>  <SCORE.RESTR.norm>
0.000805251

>  <SCORE.SYSTEM>
0

>  <SCORE.SYSTEM.CONST>
0

>  <SCORE.SYSTEM.DIHEDRAL>
0

>  <SCORE.SYSTEM.SOLV>
0

>  <SCORE.SYSTEM.norm>
0

>  <SCORE.heavy>
16

>  <SCORE.norm>
-0.134951

>  <RMSD>
48.926

$$$$
ligand
 OpenBabel11021811463D
libRbt.so/2013.1/901 2013/11/27
 16 16  0  0  0  0  0  0  0  0999 V2000
   11.2826   24.3733   21.7859 P   0  0  2  0  0  0  0  0  0  0  0  0
   10.9029   25.3034   20.6936 O   0  0  0  0  0  0  0  0  0  0  0  0
   10.8924   25.0336   23.2046 O   0  5  0  0  0  0  0  0  0  0  0  0
   12.8776   24.1116   21.7171 O   0  0  0  0  0  0  0  0  0  0  0  0
    9.4556   21.3139   25.7680 C   0  0  2  0  0  0  0  0  0  0  0  0
    8.6237   22.4915   25.8754 O   0  0  0  0  0  0  0  0  0  0  0  0
   10.6950   21.4197   26.7032 C   0  0  2  0  0  0  0  0  0  0  0  0
   10.2477   21.5996   28.0967 N   0  0  0  0  0  0  0  0  0  0  0  0
   11.5474   22.6292   26.2605 C   0  0  1  0  0  0  0  0  0  0  0  0
   12.7053   22.7481   27.1042 O   0  0  0  0  0  0  0  0  0  0  0  0
   11.9829   22.3824   24.8011 C   0  0  2  0  0  0  0  0  0  0  0  0
   12.7745   23.4952   24.3513 O   0  0  0  0  0  0  0  0  0  0  0  0
   10.6997   22.2565   23.9235 C   0  0  2  0  0  0  0  0  0  0  0  0
    9.8758   21.1414   24.3770 O   0  0  0  0  0  0  0  0  0  0  0  0
   11.0635   21.9894   22.4538 C   0  0  0  0  0  0  0  0  0  0  0  0
   10.4748   22.9819   21.5949 O   0  0  0  0  0  0  0  0  0  0  0  0
  1  2  1  6  0  0  0
  1  3  1  0  0  0  0
  1  4  2  0  0  0  0
  1 16  1  0  0  0  0
  5  6  1  6  0  0  0
  5  7  1  0  0  0  0
  5 14  1  0  0  0  0
  7  8  1  1  0  0  0
  7  9  1  0  0  0  0
  9 10  1  1  0  0  0
  9 11  1  0  0  0  0
 11 12  1  6  0  0  0
 11 13  1  0  0  0  0
 13 14  1  0  0  0  0
 13 15  1  6  0  0  0
 15 16  1  0  0  0  0
M  CHG  1   3  -1
M  END
>  <CHROM.1>
-124.15824784,73.17947037,166.88301215,11.03598106,22.98642802,24.05900972
1.41157657,-0.46840191,-1.18812146

>  <Name>
ligand

>  <RI>
0

>  <Rbt.Current_Directory>
/home/itssahil/PROJECTS/Mol_Feturizer/New_Systems/rnas/3B4A

>  <Rbt.Executable>
rbdock ($Id: //depot/dev/client3/rdock/2013.1/src/exe/rbdock.cxx#4 $)

>  <Rbt.Library>
libRbt.so (2013.1, Build901 2013/11/27)

>  <Rbt.Parameter_File>
/export/apps/rDock/src/rDock_2013.1_src/data/scripts/dock_solv.prm

>  <Rbt.Receptor>
prm/blind_docking_40.prm

>  <SCORE>
3.38447

>  <SCORE.INTER>
-1.12494

>  <SCORE.INTER.CONST>
1

>  <SCORE.INTER.POLAR>
0

>  <SCORE.INTER.ROT>
3

>  <SCORE.INTER.SOLV>
16.5878

>  <SCORE.INTER.VDW>
-11.8792

>  <SCORE.INTER.norm>
-0.0703087

>  <SCORE.INTRA>
4.50522

>  <SCORE.INTRA.DIHEDRAL>
4.25266

>  <SCORE.INTRA.DIHEDRAL.0>
2.05999

>  <SCORE.INTRA.POLAR>
0

>  <SCORE.INTRA.POLAR.0>
0

>  <SCORE.INTRA.REPUL>
0

>  <SCORE.INTRA.REPUL.0>
0

>  <SCORE.INTRA.SOLV>
5.5391

>  <SCORE.INTRA.SOLV.lig_0>
-58.7001

>  <SCORE.INTRA.VDW>
-0.390661

>  <SCORE.INTRA.VDW.0>
-0.401036

>  <SCORE.INTRA.norm>
0.281576

>  <SCORE.RESTR>
0.00418359

>  <SCORE.RESTR.CAVITY>
0.00418359

>  <SCORE.RESTR.norm>
0.000261475

>  <SCORE.SYSTEM>
0

>  <SCORE.SYSTEM.CONST>
0

>  <SCORE.SYSTEM.DIHEDRAL>
0

>  <SCORE.SYSTEM.SOLV>
0

>  <SCORE.SYSTEM.norm>
0

>  <SCORE.heavy>
16

>  <SCORE.norm>
0.211529

>  <RMSD>
49.031

$$$$
ligand
 OpenBabel11021811463D
libRbt.so/2013.1/901 2013/11/27
 16 16  0  0  0  0  0  0  0  0999 V2000
   11.6637   24.6734   21.0578 P   0  0  2  0  0  0  0  0  0  0  0  0
   11.0005   25.9701   20.7733 O   0  0  0  0  0  0  0  0  0  0  0  0
   13.0993   24.6392   20.3237 O   0  5  0  0  0  0  0  0  0  0  0  0
   10.7287   23.4763   20.5011 O   0  0  0  0  0  0  0  0  0  0  0  0
   11.7142   23.1550   26.5965 C   0  0  2  0  0  0  0  0  0  0  0  0
   12.4568   21.9701   26.9636 O   0  0  0  0  0  0  0  0  0  0  0  0
   10.1857   22.8650   26.5567 C   0  0  2  0  0  0  0  0  0  0  0  0
    9.7419   22.3762   27.8752 N   0  0  0  0  0  0  0  0  0  0  0  0
    9.9126   21.7957   25.4762 C   0  0  1  0  0  0  0  0  0  0  0  0
    8.5048   21.5119   25.4122 O   0  0  0  0  0  0  0  0  0  0  0  0
   10.3968   22.3642   24.1261 C   0  0  2  0  0  0  0  0  0  0  0  0
   10.1647   21.3898   23.0946 O   0  0  0  0  0  0  0  0  0  0  0  0
   11.9238   22.6604   24.2406 C   0  0  2  0  0  0  0  0  0  0  0  0
   12.1791   23.6357   25.2949 O   0  0  0  0  0  0  0  0  0  0  0  0
   12.4687   23.2498   22.9294 C   0  0  0  0  0  0  0  0  0  0  0  0
   11.8697   24.5292   22.6584 O   0  0  0  0  0  0  0  0  0  0  0  0
  1  2  1  6  0  0  0
  1  3  1  0  0  0  0
  1  4  2  0  0  0  0
  1 16  1  0  0  0  0
  5  6  1  6  0  0  0
  5  7  1  0  0  0  0
  5 14  1  0  0  0  0
  7  8  1  1  0  0  0
  7  9  1  0  0  0  0
  9 10  1  6  0  0  0
  9 11  1  0  0  0  0
 11 12  1  6  0  0  0
 11 13  1  0  0  0  0
 13 14  1  0  0  0  0
 13 15  1  6  0  0  0
 15 16  1  0  0  0  0
M  CHG  1   3  -1
M  END
>  <CHROM.1>
64.28058143,-144.18180334,177.95086812,11.17575471,23.27146658,23.71266605
1.33259914,-0.52617624,-1.28008924

>  <Name>
ligand

>  <RI>
0

>  <Rbt.Current_Directory>
/home/itssahil/PROJECTS/Mol_Feturizer/New_Systems/rnas/3B4A

>  <Rbt.Executable>
rbdock ($Id: //depot/dev/client3/rdock/2013.1/src/exe/rbdock.cxx#4 $)

>  <Rbt.Library>
libRbt.so (2013.1, Build901 2013/11/27)

>  <Rbt.Parameter_File>
/export/apps/rDock/src/rDock_2013.1_src/data/scripts/dock_solv.prm

>  <Rbt.Receptor>
prm/blind_docking_40.prm

>  <SCORE>
1.06339

>  <SCORE.INTER>
-0.824608

>  <SCORE.INTER.CONST>
1

>  <SCORE.INTER.POLAR>
0

>  <SCORE.INTER.ROT>
3

>  <SCORE.INTER.SOLV>
17.0652

>  <SCORE.INTER.VDW>
-11.8381

>  <SCORE.INTER.norm>
-0.051538

>  <SCORE.INTRA>
1.33036

>  <SCORE.INTRA.DIHEDRAL>
2.69635

>  <SCORE.INTRA.DIHEDRAL.0>
2.05999

>  <SCORE.INTRA.POLAR>
0

>  <SCORE.INTRA.POLAR.0>
0

>  <SCORE.INTRA.REPUL>
0

>  <SCORE.INTRA.REPUL.0>
0

>  <SCORE.INTRA.SOLV>
1.2862

>  <SCORE.INTRA.SOLV.lig_0>
-58.7001

>  <SCORE.INTRA.VDW>
-0.660913

>  <SCORE.INTRA.VDW.0>
-0.401036

>  <SCORE.INTRA.norm>
0.0831475

>  <SCORE.RESTR>
0.557635

>  <SCORE.RESTR.CAVITY>
0.557635

>  <SCORE.RESTR.norm>
0.0348522

>  <SCORE.SYSTEM>
0

>  <SCORE.SYSTEM.CONST>
0

>  <SCORE.SYSTEM.DIHEDRAL>
0

>  <SCORE.SYSTEM.SOLV>
0

>  <SCORE.SYSTEM.norm>
0

>  <SCORE.heavy>
16

>  <SCORE.norm>
0.0664616

>  <RMSD>
49.032

$$$$
ligand
 OpenBabel11021811463D
libRbt.so/2013.1/901 2013/11/27
 16 16  0  0  0  0  0  0  0  0999 V2000
   11.7672   25.0398   20.4664 P   0  0  2  0  0  0  0  0  0  0  0  0
   13.1117   24.6193   19.9992 O   0  0  0  0  0  0  0  0  0  0  0  0
   10.6537   24.0655   19.8245 O   0  5  0  0  0  0  0  0  0  0  0  0
   11.5054   26.5654   19.9959 O   0  0  0  0  0  0  0  0  0  0  0  0
   11.3871   24.1164   26.1438 C   0  0  2  0  0  0  0  0  0  0  0  0
   12.8054   23.8624   26.2621 O   0  0  0  0  0  0  0  0  0  0  0  0
   10.5588   22.8939   26.6352 C   0  0  2  0  0  0  0  0  0  0  0  0
   10.9055   22.5944   28.0368 N   0  0  0  0  0  0  0  0  0  0  0  0
   10.8871   21.6805   25.7378 C   0  0  1  0  0  0  0  0  0  0  0  0
   10.1299   20.5356   26.1650 O   0  0  0  0  0  0  0  0  0  0  0  0
   10.5040   22.0547   24.2909 C   0  0  2  0  0  0  0  0  0  0  0  0
   10.8037   20.9480   23.4233 O   0  0  0  0  0  0  0  0  0  0  0  0
   11.3437   23.2998   23.8700 C   0  0  2  0  0  0  0  0  0  0  0  0
   11.0640   24.4283   24.7510 O   0  0  0  0  0  0  0  0  0  0  0  0
   10.9953   23.7388   22.4384 C   0  0  0  0  0  0  0  0  0  0  0  0
   11.7155   24.9320   22.0821 O   0  0  0  0  0  0  0  0  0  0  0  0
  1  2  1  6  0  0  0
  1  3  1  0  0  0  0
  1  4  2  0  0  0  0
  1 16  1  0  0  0  0
  5  6  1  6  0  0  0
  5  7  1  0  0  0  0
  5 14  1  0  0  0  0
  7  8  1  1  0  0  0
  7  9  1  0  0  0  0
  9 10  1  1  0  0  0
  9 11  1  0  0  0  0
 11 12  1  6  0  0  0
 11 13  1  0  0  0  0
 13 14  1  0  0  0  0
 13 15  1  6  0  0  0
 15 16  1  0  0  0  0
M  CHG  1   3  -1
M  END
>  <CHROM.1>
176.71500479,159.00477225,-102.45265506,11.31275885,23.59792143,23.44537082
-1.23306509,1.18973702,1.69093193

>  <Name>
ligand

>  <RI>
0

>  <Rbt.Current_Directory>
/home/itssahil/PROJECTS/Mol_Feturizer/New_Systems/rnas/3B4A

>  <Rbt.Executable>
rbdock ($Id: //depot/dev/client3/rdock/2013.1/src/exe/rbdock.cxx#4 $)

>  <Rbt.Library>
libRbt.so (2013.1, Build901 2013/11/27)

>  <Rbt.Parameter_File>
/export/apps/rDock/src/rDock_2013.1_src/data/scripts/dock_solv.prm

>  <Rbt.Receptor>
prm/blind_docking_40.prm

>  <SCORE>
1.53308

>  <SCORE.INTER>
-1.27387

>  <SCORE.INTER.CONST>
1

>  <SCORE.INTER.POLAR>
0

>  <SCORE.INTER.ROT>
3

>  <SCORE.INTER.SOLV>
11.4101

>  <SCORE.INTER.VDW>
-10.2526

>  <SCORE.INTER.norm>
-0.0796167

>  <SCORE.INTRA>
1.45073

>  <SCORE.INTRA.DIHEDRAL>
1.87222

>  <SCORE.INTRA.DIHEDRAL.0>
2.05999

>  <SCORE.INTRA.POLAR>
0

>  <SCORE.INTRA.POLAR.0>
0

>  <SCORE.INTRA.REPUL>
0

>  <SCORE.INTRA.REPUL.0>
0

>  <SCORE.INTRA.SOLV>
-0.690059

>  <SCORE.INTRA.SOLV.lig_0>
-58.7001

>  <SCORE.INTRA.VDW>
0.859645

>  <SCORE.INTRA.VDW.0>
-0.401036

>  <SCORE.INTRA.norm>
0.0906705

>  <SCORE.RESTR>
1.35622

>  <SCORE.RESTR.CAVITY>
1.35622

>  <SCORE.RESTR.norm>
0.0847637

>  <SCORE.SYSTEM>
0

>  <SCORE.SYSTEM.CONST>
0

>  <SCORE.SYSTEM.DIHEDRAL>
0

>  <SCORE.SYSTEM.SOLV>
0

>  <SCORE.SYSTEM.norm>
0

>  <SCORE.heavy>
16

>  <SCORE.norm>
0.0958175

>  <RMSD>
49.050

$$$$
ligand
 OpenBabel11021811463D
libRbt.so/2013.1/901 2013/11/27
 16 16  0  0  0  0  0  0  0  0999 V2000
   11.8400   24.8252   21.0017 P   0  0  2  0  0  0  0  0  0  0  0  0
   13.2450   24.4806   20.6704 O   0  0  0  0  0  0  0  0  0  0  0  0
   10.8489   24.0041   20.0299 O   0  5  0  0  0  0  0  0  0  0  0  0
   11.6297   26.4154   20.7913 O   0  0  0  0  0  0  0  0  0  0  0  0
   11.6988   23.1646   26.5184 C   0  0  2  0  0  0  0  0  0  0  0  0
   12.4680   21.9899   26.8629 O   0  0  0  0  0  0  0  0  0  0  0  0
   10.1719   22.8775   26.6087 C   0  0  2  0  0  0  0  0  0  0  0  0
    9.8337   22.4315   27.9729 N   0  0  0  0  0  0  0  0  0  0  0  0
    9.8142   21.7754   25.5875 C   0  0  1  0  0  0  0  0  0  0  0  0
    8.4057   21.4933   25.6438 O   0  0  0  0  0  0  0  0  0  0  0  0
   10.1901   22.2998   24.1861 C   0  0  2  0  0  0  0  0  0  0  0  0
    9.8772   21.2941   23.2074 O   0  0  0  0  0  0  0  0  0  0  0  0
   11.7215   22.5956   24.1701 C   0  0  2  0  0  0  0  0  0  0  0  0
   12.0594   23.6029   25.1696 O   0  0  0  0  0  0  0  0  0  0  0  0
   12.1611   23.1420   22.8020 C   0  0  0  0  0  0  0  0  0  0  0  0
   11.5491   24.4177   22.5426 O   0  0  0  0  0  0  0  0  0  0  0  0
  1  2  1  6  0  0  0
  1  3  1  0  0  0  0
  1  4  2  0  0  0  0
  1 16  1  0  0  0  0
  5  6  1  6  0  0  0
  5  7  1  0  0  0  0
  5 14  1  0  0  0  0
  7  8  1  1  0  0  0
  7  9  1  0  0  0  0
  9 10  1  6  0  0  0
  9 11  1  0  0  0  0
 11 12  1  6  0  0  0
 11 13  1  0  0  0  0
 13 14  1  0  0  0  0
 13 15  1  6  0  0  0
 15 16  1  0  0  0  0
M  CHG  1   3  -1
M  END
>  <CHROM.1>
64.63709476,-170.48328739,-41.52236568,11.16273508,23.31715569,23.70137792
-1.27887874,0.58373664,1.85132382

>  <Name>
ligand

>  <RI>
0

>  <Rbt.Current_Directory>
/home/itssahil/PROJECTS/Mol_Feturizer/New_Systems/rnas/3B4A

>  <Rbt.Executable>
rbdock ($Id: //depot/dev/client3/rdock/2013.1/src/exe/rbdock.cxx#4 $)

>  <Rbt.Library>
libRbt.so (2013.1, Build901 2013/11/27)

>  <Rbt.Parameter_File>
/export/apps/rDock/src/rDock_2013.1_src/data/scripts/dock_solv.prm

>  <Rbt.Receptor>
prm/blind_docking_40.prm

>  <SCORE>
-1.76308

>  <SCORE.INTER>
-1.71586

>  <SCORE.INTER.CONST>
1

>  <SCORE.INTER.POLAR>
0

>  <SCORE.INTER.ROT>
3

>  <SCORE.INTER.SOLV>
13.8546

>  <SCORE.INTER.VDW>
-11.3621

>  <SCORE.INTER.norm>
-0.107241

>  <SCORE.INTRA>
-0.737454

>  <SCORE.INTRA.DIHEDRAL>
-1.0216

>  <SCORE.INTRA.DIHEDRAL.0>
2.05999

>  <SCORE.INTRA.POLAR>
0

>  <SCORE.INTRA.POLAR.0>
0

>  <SCORE.INTRA.REPUL>
0

>  <SCORE.INTRA.REPUL.0>
0

>  <SCORE.INTRA.SOLV>
-0.826317

>  <SCORE.INTRA.SOLV.lig_0>
-58.7001

>  <SCORE.INTRA.VDW>
0.186502

>  <SCORE.INTRA.VDW.0>
-0.401036

>  <SCORE.INTRA.norm>
-0.0460909

>  <SCORE.RESTR>
0.690232

>  <SCORE.RESTR.CAVITY>
0.690232

>  <SCORE.RESTR.norm>
0.0431395

>  <SCORE.SYSTEM>
0

>  <SCORE.SYSTEM.CONST>
0

>  <SCORE.SYSTEM.DIHEDRAL>
0

>  <SCORE.SYSTEM.SOLV>
0

>  <SCORE.SYSTEM.norm>
0

>  <SCORE.heavy>
16

>  <SCORE.norm>
-0.110193

>  <RMSD>
49.057

$$$$
ligand
 OpenBabel11021811463D
libRbt.so/2013.1/901 2013/11/27
 16 16  0  0  0  0  0  0  0  0999 V2000
   11.8289   24.0106   22.4003 P   0  0  2  0  0  0  0  0  0  0  0  0
   13.1699   23.4019   22.5835 O   0  0  0  0  0  0  0  0  0  0  0  0
   11.8713   25.0194   21.1427 O   0  5  0  0  0  0  0  0  0  0  0  0
   11.4351   24.8189   23.7453 O   0  0  0  0  0  0  0  0  0  0  0  0
   11.6330   22.5873   26.3079 C   0  0  2  0  0  0  0  0  0  0  0  0
   11.9672   21.2974   26.8688 O   0  0  0  0  0  0  0  0  0  0  0  0
   10.1672   22.9818   26.6513 C   0  0  2  0  0  0  0  0  0  0  0  0
    9.9925   23.0044   28.1152 N   0  0  0  0  0  0  0  0  0  0  0  0
    9.2142   21.9429   26.0204 C   0  0  1  0  0  0  0  0  0  0  0  0
    7.8499   22.2860   26.3161 O   0  0  0  0  0  0  0  0  0  0  0  0
    9.4439   21.9668   24.4949 C   0  0  2  0  0  0  0  0  0  0  0  0
    8.5763   21.0036   23.8730 O   0  0  0  0  0  0  0  0  0  0  0  0
   10.9331   21.5934   24.2196 C   0  0  2  0  0  0  0  0  0  0  0  0
   11.8284   22.5519   24.8581 O   0  0  0  0  0  0  0  0  0  0  0  0
   11.2357   21.6173   22.7125 C   0  0  0  0  0  0  0  0  0  0  0  0
   10.7527   22.8335   22.1152 O   0  0  0  0  0  0  0  0  0  0  0  0
  1  2  1  1  0  0  0
  1  3  1  0  0  0  0
  1  4  2  0  0  0  0
  1 16  1  0  0  0  0
  5  6  1  6  0  0  0
  5  7  1  0  0  0  0
  5 14  1  0  0  0  0
  7  8  1  1  0  0  0
  7  9  1  0  0  0  0
  9 10  1  6  0  0  0
  9 11  1  0  0  0  0
 11 12  1  6  0  0  0
 11 13  1  0  0  0  0
 13 14  1  0  0  0  0
 13 15  1  6  0  0  0
 15 16  1  0  0  0  0
M  CHG  1   3  -1
M  END
>  <CHROM.1>
48.72706983,80.71255943,26.23335735,10.83774749,22.79466670,24.32623825,-1.07716671
0.48482069,1.71453344

>  <Name>
ligand

>  <RI>
0

>  <Rbt.Current_Directory>
/home/itssahil/PROJECTS/Mol_Feturizer/New_Systems/rnas/3B4A

>  <Rbt.Executable>
rbdock ($Id: //depot/dev/client3/rdock/2013.1/src/exe/rbdock.cxx#4 $)

>  <Rbt.Library>
libRbt.so (2013.1, Build901 2013/11/27)

>  <Rbt.Parameter_File>
/export/apps/rDock/src/rDock_2013.1_src/data/scripts/dock_solv.prm

>  <Rbt.Receptor>
prm/blind_docking_40.prm

>  <SCORE>
0.0498651

>  <SCORE.INTER>
-3.96053

>  <SCORE.INTER.CONST>
1

>  <SCORE.INTER.POLAR>
0

>  <SCORE.INTER.ROT>
3

>  <SCORE.INTER.SOLV>
12.2661

>  <SCORE.INTER.VDW>
-12.3291

>  <SCORE.INTER.norm>
-0.247533

>  <SCORE.INTRA>
3.46965

>  <SCORE.INTRA.DIHEDRAL>
1.73722

>  <SCORE.INTRA.DIHEDRAL.0>
2.05999

>  <SCORE.INTRA.POLAR>
0

>  <SCORE.INTRA.POLAR.0>
0

>  <SCORE.INTRA.REPUL>
0

>  <SCORE.INTRA.REPUL.0>
0

>  <SCORE.INTRA.SOLV>
3.48469

>  <SCORE.INTRA.SOLV.lig_0>
-58.7001

>  <SCORE.INTRA.VDW>
0.858691

>  <SCORE.INTRA.VDW.0>
-0.401036

>  <SCORE.INTRA.norm>
0.216853

>  <SCORE.RESTR>
0.540753

>  <SCORE.RESTR.CAVITY>
0.540753

>  <SCORE.RESTR.norm>
0.0337971

>  <SCORE.SYSTEM>
0

>  <SCORE.SYSTEM.CONST>
0

>  <SCORE.SYSTEM.DIHEDRAL>
0

>  <SCORE.SYSTEM.SOLV>
0

>  <SCORE.SYSTEM.norm>
0

>  <SCORE.heavy>
16

>  <SCORE.norm>
0.00311657

>  <RMSD>
49.087

$$$$
ligand
 OpenBabel11021811463D
libRbt.so/2013.1/901 2013/11/27
 16 16  0  0  0  0  0  0  0  0999 V2000
   12.0889   24.8595   20.6629 P   0  0  2  0  0  0  0  0  0  0  0  0
   13.3499   24.6588   19.9066 O   0  0  0  0  0  0  0  0  0  0  0  0
   10.8564   24.2709   19.8052 O   0  5  0  0  0  0  0  0  0  0  0  0
   11.8799   26.4435   20.9171 O   0  0  0  0  0  0  0  0  0  0  0  0
   11.6121   23.5245   26.2610 C   0  0  2  0  0  0  0  0  0  0  0  0
   12.5001   22.3851   26.2025 O   0  0  0  0  0  0  0  0  0  0  0  0
   10.2072   23.1101   26.7868 C   0  0  2  0  0  0  0  0  0  0  0  0
   10.3405   22.5015   28.1232 N   0  0  0  0  0  0  0  0  0  0  0  0
    9.5899   22.0936   25.8013 C   0  0  1  0  0  0  0  0  0  0  0  0
    8.2861   21.6970   26.2589 O   0  0  0  0  0  0  0  0  0  0  0  0
    9.4771   22.7869   24.4276 C   0  0  2  0  0  0  0  0  0  0  0  0
    8.9116   21.8651   23.4801 O   0  0  0  0  0  0  0  0  0  0  0  0
   10.9095   23.2026   23.9716 C   0  0  2  0  0  0  0  0  0  0  0  0
   11.5052   24.1258   24.9312 O   0  0  0  0  0  0  0  0  0  0  0  0
   10.8667   23.9193   22.6121 C   0  0  0  0  0  0  0  0  0  0  0  0
   12.1924   24.0714   22.0746 O   0  0  0  0  0  0  0  0  0  0  0  0
  1  2  1  6  0  0  0
  1  3  1  0  0  0  0
  1  4  2  0  0  0  0
  1 16  1  0  0  0  0
  5  6  1  6  0  0  0
  5  7  1  0  0  0  0
  5 14  1  0  0  0  0
  7  8  1  1  0  0  0
  7  9  1  0  0  0  0
  9 10  1  1  0  0  0
  9 11  1  0  0  0  0
 11 12  1  6  0  0  0
 11 13  1  0  0  0  0
 13 14  1  0  0  0  0
 13 15  1  6  0  0  0
 15 16  1  0  0  0  0
M  CHG  1   3  -1
M  END
>  <CHROM.1>
-168.93416914,-178.74514586,-162.64740636,11.01829138,23.58751529,23.58154479
-1.22322435,0.48477997,1.80060237

>  <Name>
ligand

>  <RI>
0

>  <Rbt.Current_Directory>
/home/itssahil/PROJECTS/Mol_Feturizer/New_Systems/rnas/3B4A

>  <Rbt.Executable>
rbdock ($Id: //depot/dev/client3/rdock/2013.1/src/exe/rbdock.cxx#4 $)

>  <Rbt.Library>
libRbt.so (2013.1, Build901 2013/11/27)

>  <Rbt.Parameter_File>
/export/apps/rDock/src/rDock_2013.1_src/data/scripts/dock_solv.prm

>  <Rbt.Receptor>
prm/blind_docking_40.prm

>  <SCORE>
1.39412

>  <SCORE.INTER>
1.16421

>  <SCORE.INTER.CONST>
1

>  <SCORE.INTER.POLAR>
0

>  <SCORE.INTER.ROT>
3

>  <SCORE.INTER.SOLV>
12.485

>  <SCORE.INTER.VDW>
-8.98551

>  <SCORE.INTER.norm>
0.072763

>  <SCORE.INTRA>
-0.857281

>  <SCORE.INTRA.DIHEDRAL>
-1.15367

>  <SCORE.INTRA.DIHEDRAL.0>
2.05999

>  <SCORE.INTRA.POLAR>
0

>  <SCORE.INTRA.POLAR.0>
0

>  <SCORE.INTRA.REPUL>
0

>  <SCORE.INTRA.REPUL.0>
0

>  <SCORE.INTRA.SOLV>
-0.45717

>  <SCORE.INTRA.SOLV.lig_0>
-58.7001

>  <SCORE.INTRA.VDW>
-0.0518622

>  <SCORE.INTRA.VDW.0>
-0.401036

>  <SCORE.INTRA.norm>
-0.05358

>  <SCORE.RESTR>
1.0872

>  <SCORE.RESTR.CAVITY>
1.0872

>  <SCORE.RESTR.norm>
0.0679498

>  <SCORE.SYSTEM>
0

>  <SCORE.SYSTEM.CONST>
0

>  <SCORE.SYSTEM.DIHEDRAL>
0

>  <SCORE.SYSTEM.SOLV>
0

>  <SCORE.SYSTEM.norm>
0

>  <SCORE.heavy>
16

>  <SCORE.norm>
0.0871328

>  <RMSD>
49.201

$$$$
ligand
 OpenBabel11021811463D
libRbt.so/2013.1/901 2013/11/27
 16 16  0  0  0  0  0  0  0  0999 V2000
    0.8004   18.2690   26.4578 P   0  0  2  0  0  0  0  0  0  0  0  0
    0.4991   19.6984   26.1956 O   0  0  0  0  0  0  0  0  0  0  0  0
    1.4869   17.6228   25.1493 O   0  5  0  0  0  0  0  0  0  0  0  0
   -0.5814   17.4984   26.7957 O   0  0  0  0  0  0  0  0  0  0  0  0
    2.0550   22.3787   27.9035 C   0  0  2  0  0  0  0  0  0  0  0  0
    3.4984   22.2967   27.9010 O   0  0  0  0  0  0  0  0  0  0  0  0
    1.5411   23.1252   29.1687 C   0  0  2  0  0  0  0  0  0  0  0  0
    2.1263   24.4778   29.2151 N   0  0  0  0  0  0  0  0  0  0  0  0
    1.9602   22.3238   30.4207 C   0  0  1  0  0  0  0  0  0  0  0  0
    1.4924   22.9875   31.6069 O   0  0  0  0  0  0  0  0  0  0  0  0
    1.3195   20.9244   30.3134 C   0  0  2  0  0  0  0  0  0  0  0  0
    1.6953   20.1452   31.4619 O   0  0  0  0  0  0  0  0  0  0  0  0
    1.8501   20.2429   29.0147 C   0  0  2  0  0  0  0  0  0  0  0  0
    1.4917   21.0296   27.8398 O   0  0  0  0  0  0  0  0  0  0  0  0
    1.2334   18.8459   28.8362 C   0  0  0  0  0  0  0  0  0  0  0  0
    1.8219   18.1693   27.7114 O   0  0  0  0  0  0  0  0  0  0  0  0
  1  2  1  6  0  0  0
  1  3  1  0  0  0  0
  1  4  2  0  0  0  0
  1 16  1  0  0  0  0
  5  6  1  1  0  0  0
  5  7  1  0  0  0  0
  5 14  1  0  0  0  0
  7  8  1  1  0  0  0
  7  9  1  0  0  0  0
  9 10  1  1  0  0  0
  9 11  1  0  0  0  0
 11 12  1  1  0  0  0
 11 13  1  0  0  0  0
 13 14  1  0  0  0  0
 13 15  1  6  0  0  0
 15 16  1  0  0  0  0
M  CHG  1   3  -1
M  END
>  <CHROM.1>
-174.37198449,-101.32854765,56.04703606,1.45950346,20.40138649,28.31881087
-2.26268019,1.26333638,1.33812222

>  <Name>
ligand

>  <RI>
0

>  <Rbt.Current_Directory>
/home/itssahil/PROJECTS/Mol_Feturizer/New_Systems/rnas/3B4A

>  <Rbt.Executable>
rbdock ($Id: //depot/dev/client3/rdock/2013.1/src/exe/rbdock.cxx#4 $)

>  <Rbt.Library>
libRbt.so (2013.1, Build901 2013/11/27)

>  <Rbt.Parameter_File>
/export/apps/rDock/src/rDock_2013.1_src/data/scripts/dock_solv.prm

>  <Rbt.Receptor>
prm/blind_docking_40.prm

>  <SCORE>
-1.71365

>  <SCORE.INTER>
-6.06679

>  <SCORE.INTER.CONST>
1

>  <SCORE.INTER.POLAR>
0

>  <SCORE.INTER.ROT>
3

>  <SCORE.INTER.SOLV>
25.6824

>  <SCORE.INTER.VDW>
-18.2053

>  <SCORE.INTER.norm>
-0.379174

>  <SCORE.INTRA>
2.84428

>  <SCORE.INTRA.DIHEDRAL>
3.69564

>  <SCORE.INTRA.DIHEDRAL.0>
2.05999

>  <SCORE.INTRA.POLAR>
0

>  <SCORE.INTRA.POLAR.0>
0

>  <SCORE.INTRA.REPUL>
0

>  <SCORE.INTRA.REPUL.0>
0

>  <SCORE.INTRA.SOLV>
-0.0509019

>  <SCORE.INTRA.SOLV.lig_0>
-58.7001

>  <SCORE.INTRA.VDW>
1.02191

>  <SCORE.INTRA.VDW.0>
-0.401036

>  <SCORE.INTRA.norm>
0.177768

>  <SCORE.RESTR>
1.50886

>  <SCORE.RESTR.CAVITY>
1.50886

>  <SCORE.RESTR.norm>
0.0943037

>  <SCORE.SYSTEM>
0

>  <SCORE.SYSTEM.CONST>
0

>  <SCORE.SYSTEM.DIHEDRAL>
0

>  <SCORE.SYSTEM.SOLV>
0

>  <SCORE.SYSTEM.norm>
0

>  <SCORE.heavy>
16

>  <SCORE.norm>
-0.107103

>  <RMSD>
55.121

$$$$
ligand
 OpenBabel11021811463D
libRbt.so/2013.1/901 2013/11/27
 16 16  0  0  0  0  0  0  0  0999 V2000
    1.3105   17.8836   26.4307 P   0  0  2  0  0  0  0  0  0  0  0  0
    2.0491   16.9958   25.4986 O   0  0  0  0  0  0  0  0  0  0  0  0
   -0.2743   17.6985   26.1960 O   0  5  0  0  0  0  0  0  0  0  0  0
    1.7379   19.4165   26.1394 O   0  0  0  0  0  0  0  0  0  0  0  0
    1.8014   21.8545   28.3173 C   0  0  2  0  0  0  0  0  0  0  0  0
    3.2368   21.7209   28.2065 O   0  0  0  0  0  0  0  0  0  0  0  0
    1.4018   22.4496   29.6986 C   0  0  2  0  0  0  0  0  0  0  0  0
    2.0487   23.7627   29.8759 N   0  0  0  0  0  0  0  0  0  0  0  0
    1.8621   21.4785   30.8079 C   0  0  1  0  0  0  0  0  0  0  0  0
    1.4997   22.0002   32.0975 O   0  0  0  0  0  0  0  0  0  0  0  0
    1.1540   20.1289   30.5683 C   0  0  2  0  0  0  0  0  0  0  0  0
    1.5657   19.1949   31.5808 O   0  0  0  0  0  0  0  0  0  0  0  0
    1.5711   19.6019   29.1608 C   0  0  2  0  0  0  0  0  0  0  0  0
    1.1754   20.5463   28.1219 O   0  0  0  0  0  0  0  0  0  0  0  0
    0.8826   18.2631   28.8494 C   0  0  0  0  0  0  0  0  0  0  0  0
    1.6847   17.4742   27.9530 O   0  0  0  0  0  0  0  0  0  0  0  0
  1  2  1  6  0  0  0
  1  3  1  0  0  0  0
  1  4  2  0  0  0  0
  1 16  1  0  0  0  0
  5  6  1  1  0  0  0
  5  7  1  0  0  0  0
  5 14  1  0  0  0  0
  7  8  1  1  0  0  0
  7  9  1  0  0  0  0
  9 10  1  1  0  0  0
  9 11  1  0  0  0  0
 11 12  1  1  0  0  0
 11 13  1  0  0  0  0
 13 14  1  0  0  0  0
 13 15  1  6  0  0  0
 15 16  1  0  0  0  0
M  CHG  1   3  -1
M  END
>  <CHROM.1>
-151.86364822,-87.48287044,-175.28918429,1.53069375,19.82278221,28.51421088
-1.92998001,1.31872809,1.13253352

>  <Name>
ligand

>  <RI>
0

>  <Rbt.Current_Directory>
/home/itssahil/PROJECTS/Mol_Feturizer/New_Systems/rnas/3B4A

>  <Rbt.Executable>
rbdock ($Id: //depot/dev/client3/rdock/2013.1/src/exe/rbdock.cxx#4 $)

>  <Rbt.Library>
libRbt.so (2013.1, Build901 2013/11/27)

>  <Rbt.Parameter_File>
/export/apps/rDock/src/rDock_2013.1_src/data/scripts/dock_solv.prm

>  <Rbt.Receptor>
prm/blind_docking_40.prm

>  <SCORE>
-2.90671

>  <SCORE.INTER>
-8.34733

>  <SCORE.INTER.CONST>
1

>  <SCORE.INTER.POLAR>
0

>  <SCORE.INTER.ROT>
3

>  <SCORE.INTER.SOLV>
24.2822

>  <SCORE.INTER.VDW>
-19.259

>  <SCORE.INTER.norm>
-0.521708

>  <SCORE.INTRA>
4.36836

>  <SCORE.INTRA.DIHEDRAL>
3.49243

>  <SCORE.INTRA.DIHEDRAL.0>
2.05999

>  <SCORE.INTRA.POLAR>
0

>  <SCORE.INTRA.POLAR.0>
0

>  <SCORE.INTRA.REPUL>
0

>  <SCORE.INTRA.REPUL.0>
0

>  <SCORE.INTRA.SOLV>
3.89973

>  <SCORE.INTRA.SOLV.lig_0>
-58.7001

>  <SCORE.INTRA.VDW>
0.672277

>  <SCORE.INTRA.VDW.0>
-0.401036

>  <SCORE.INTRA.norm>
0.273022

>  <SCORE.RESTR>
1.07227

>  <SCORE.RESTR.CAVITY>
1.07227

>  <SCORE.RESTR.norm>
0.0670167

>  <SCORE.SYSTEM>
0

>  <SCORE.SYSTEM.CONST>
0

>  <SCORE.SYSTEM.DIHEDRAL>
0

>  <SCORE.SYSTEM.SOLV>
0

>  <SCORE.SYSTEM.norm>
0

>  <SCORE.heavy>
16

>  <SCORE.norm>
-0.181669

>  <RMSD>
55.134

$$$$
ligand
 OpenBabel11021811463D
libRbt.so/2013.1/901 2013/11/27
 16 16  0  0  0  0  0  0  0  0999 V2000
    0.8495   17.9745   26.0547 P   0  0  2  0  0  0  0  0  0  0  0  0
    1.8067   16.8544   26.2321 O   0  0  0  0  0  0  0  0  0  0  0  0
   -0.5295   17.6190   26.8118 O   0  5  0  0  0  0  0  0  0  0  0  0
    0.5756   18.1809   24.4737 O   0  0  0  0  0  0  0  0  0  0  0  0
    1.6308   22.9038   28.5770 C   0  0  2  0  0  0  0  0  0  0  0  0
    3.0588   23.1025   28.4691 O   0  0  0  0  0  0  0  0  0  0  0  0
    1.1615   23.0222   30.0561 C   0  0  2  0  0  0  0  0  0  0  0  0
    1.5309   24.3476   30.5862 N   0  0  0  0  0  0  0  0  0  0  0  0
    1.8460   21.9117   30.8830 C   0  0  1  0  0  0  0  0  0  0  0  0
    1.4253   21.9924   32.2552 O   0  0  0  0  0  0  0  0  0  0  0  0
    1.4224   20.5555   30.2816 C   0  0  2  0  0  0  0  0  0  0  0  0
    2.0486   19.4952   31.0237 O   0  0  0  0  0  0  0  0  0  0  0  0
    1.8940   20.5118   28.7956 C   0  0  2  0  0  0  0  0  0  0  0  0
    1.2804   21.5921   28.0311 O   0  0  0  0  0  0  0  0  0  0  0  0
    1.4850   19.1886   28.1283 C   0  0  0  0  0  0  0  0  0  0  0  0
    1.4891   19.3180   26.6956 O   0  0  0  0  0  0  0  0  0  0  0  0
  1  2  1  1  0  0  0
  1  3  1  0  0  0  0
  1  4  2  0  0  0  0
  1 16  1  0  0  0  0
  5  6  1  1  0  0  0
  5  7  1  0  0  0  0
  5 14  1  0  0  0  0
  7  8  1  1  0  0  0
  7  9  1  0  0  0  0
  9 10  1  1  0  0  0
  9 11  1  0  0  0  0
 11 12  1  1  0  0  0
 11 13  1  0  0  0  0
 13 14  1  0  0  0  0
 13 15  1  6  0  0  0
 15 16  1  0  0  0  0
M  CHG  1   3  -1
M  END
>  <CHROM.1>
159.98953016,-171.91989384,-71.25857953,1.39081818,20.29030445,28.35511321
-2.66908659,1.41537304,1.85512576

>  <Name>
ligand

>  <RI>
0

>  <Rbt.Current_Directory>
/home/itssahil/PROJECTS/Mol_Feturizer/New_Systems/rnas/3B4A

>  <Rbt.Executable>
rbdock ($Id: //depot/dev/client3/rdock/2013.1/src/exe/rbdock.cxx#4 $)

>  <Rbt.Library>
libRbt.so (2013.1, Build901 2013/11/27)

>  <Rbt.Parameter_File>
/export/apps/rDock/src/rDock_2013.1_src/data/scripts/dock_solv.prm

>  <Rbt.Receptor>
prm/blind_docking_40.prm

>  <SCORE>
-7.1649

>  <SCORE.INTER>
-7.79519

>  <SCORE.INTER.CONST>
1

>  <SCORE.INTER.POLAR>
0

>  <SCORE.INTER.ROT>
3

>  <SCORE.INTER.SOLV>
23.27

>  <SCORE.INTER.VDW>
-18.5534

>  <SCORE.INTER.norm>
-0.487199

>  <SCORE.INTRA>
-0.441846

>  <SCORE.INTRA.DIHEDRAL>
-0.222669

>  <SCORE.INTRA.DIHEDRAL.0>
2.05999

>  <SCORE.INTRA.POLAR>
0

>  <SCORE.INTRA.POLAR.0>
0

>  <SCORE.INTRA.REPUL>
0

>  <SCORE.INTRA.REPUL.0>
0

>  <SCORE.INTRA.SOLV>
-0.816617

>  <SCORE.INTRA.SOLV.lig_0>
-58.7001

>  <SCORE.INTRA.VDW>
0.0777969

>  <SCORE.INTRA.VDW.0>
-0.401036

>  <SCORE.INTRA.norm>
-0.0276154

>  <SCORE.RESTR>
1.07214

>  <SCORE.RESTR.CAVITY>
1.07214

>  <SCORE.RESTR.norm>
0.0670088

>  <SCORE.SYSTEM>
0

>  <SCORE.SYSTEM.CONST>
0

>  <SCORE.SYSTEM.DIHEDRAL>
0

>  <SCORE.SYSTEM.SOLV>
0

>  <SCORE.SYSTEM.norm>
0

>  <SCORE.heavy>
16

>  <SCORE.norm>
-0.447806

>  <RMSD>
55.179

$$$$
ligand
 OpenBabel11021811463D
libRbt.so/2013.1/901 2013/11/27
 16 16  0  0  0  0  0  0  0  0999 V2000
    0.8342   18.0192   26.0324 P   0  0  2  0  0  0  0  0  0  0  0  0
    1.7912   16.8966   26.1950 O   0  0  0  0  0  0  0  0  0  0  0  0
   -0.5421   17.6573   26.7913 O   0  5  0  0  0  0  0  0  0  0  0  0
    0.5545   18.2415   24.4545 O   0  0  0  0  0  0  0  0  0  0  0  0
    1.6338   22.9205   28.5937 C   0  0  2  0  0  0  0  0  0  0  0  0
    3.0626   23.1180   28.4956 O   0  0  0  0  0  0  0  0  0  0  0  0
    1.1561   23.0279   30.0709 C   0  0  2  0  0  0  0  0  0  0  0  0
    1.5242   24.3486   30.6135 N   0  0  0  0  0  0  0  0  0  0  0  0
    1.8343   21.9101   30.8930 C   0  0  1  0  0  0  0  0  0  0  0  0
    1.4058   21.9806   32.2634 O   0  0  0  0  0  0  0  0  0  0  0  0
    1.4123   20.5592   30.2787 C   0  0  2  0  0  0  0  0  0  0  0  0
    2.0328   19.4922   31.0160 O   0  0  0  0  0  0  0  0  0  0  0  0
    1.8924   20.5265   28.7951 C   0  0  2  0  0  0  0  0  0  0  0  0
    1.2848   21.6135   28.0355 O   0  0  0  0  0  0  0  0  0  0  0  0
    1.4855   19.2090   28.1150 C   0  0  0  0  0  0  0  0  0  0  0  0
    1.4775   19.3558   26.6841 O   0  0  0  0  0  0  0  0  0  0  0  0
  1  2  1  1  0  0  0
  1  3  1  0  0  0  0
  1  4  2  0  0  0  0
  1 16  1  0  0  0  0
  5  6  1  1  0  0  0
  5  7  1  0  0  0  0
  5 14  1  0  0  0  0
  7  8  1  1  0  0  0
  7  9  1  0  0  0  0
  9 10  1  1  0  0  0
  9 11  1  0  0  0  0
 11 12  1  1  0  0  0
 11 13  1  0  0  0  0
 13 14  1  0  0  0  0
 13 15  1  6  0  0  0
 15 16  1  0  0  0  0
M  CHG  1   3  -1
M  END
>  <CHROM.1>
159.07581919,-171.67284999,-70.94844673,1.38168396,20.31175645,28.35150423
-2.64807384,1.41217904,1.84259058

>  <Name>
ligand

>  <RI>
0

>  <Rbt.Current_Directory>
/home/itssahil/PROJECTS/Mol_Feturizer/New_Systems/rnas/3B4A

>  <Rbt.Executable>
rbdock ($Id: //depot/dev/client3/rdock/2013.1/src/exe/rbdock.cxx#4 $)

>  <Rbt.Library>
libRbt.so (2013.1, Build901 2013/11/27)

>  <Rbt.Parameter_File>
/export/apps/rDock/src/rDock_2013.1_src/data/scripts/dock_solv.prm

>  <Rbt.Receptor>
prm/blind_docking_40.prm

>  <SCORE>
-7.31955

>  <SCORE.INTER>
-8.04771

>  <SCORE.INTER.CONST>
1

>  <SCORE.INTER.POLAR>
0

>  <SCORE.INTER.ROT>
3

>  <SCORE.INTER.SOLV>
23.1328

>  <SCORE.INTER.VDW>
-18.6761

>  <SCORE.INTER.norm>
-0.502982

>  <SCORE.INTRA>
-0.375554

>  <SCORE.INTRA.DIHEDRAL>
-0.103297

>  <SCORE.INTRA.DIHEDRAL.0>
2.05999

>  <SCORE.INTRA.POLAR>
0

>  <SCORE.INTRA.POLAR.0>
0

>  <SCORE.INTRA.REPUL>
0

>  <SCORE.INTRA.REPUL.0>
0

>  <SCORE.INTRA.SOLV>
-0.815583

>  <SCORE.INTRA.SOLV.lig_0>
-58.7001

>  <SCORE.INTRA.VDW>
0.0838868

>  <SCORE.INTRA.VDW.0>
-0.401036

>  <SCORE.INTRA.norm>
-0.0234721

>  <SCORE.RESTR>
1.10372

>  <SCORE.RESTR.CAVITY>
1.10372

>  <SCORE.RESTR.norm>
0.0689824

>  <SCORE.SYSTEM>
0

>  <SCORE.SYSTEM.CONST>
0

>  <SCORE.SYSTEM.DIHEDRAL>
0

>  <SCORE.SYSTEM.SOLV>
0

>  <SCORE.SYSTEM.norm>
0

>  <SCORE.heavy>
16

>  <SCORE.norm>
-0.457472

>  <RMSD>
55.182

$$$$
ligand
 OpenBabel11021811463D
libRbt.so/2013.1/901 2013/11/27
 16 16  0  0  0  0  0  0  0  0999 V2000
    0.8256   18.0139   26.0397 P   0  0  2  0  0  0  0  0  0  0  0  0
    1.7873   16.8975   26.2164 O   0  0  0  0  0  0  0  0  0  0  0  0
   -0.5548   17.6489   26.7897 O   0  5  0  0  0  0  0  0  0  0  0  0
    0.5572   18.2255   24.4583 O   0  0  0  0  0  0  0  0  0  0  0  0
    1.5964   22.9209   28.6079 C   0  0  2  0  0  0  0  0  0  0  0  0
    3.0218   23.1319   28.4898 O   0  0  0  0  0  0  0  0  0  0  0  0
    1.1394   23.0192   30.0924 C   0  0  2  0  0  0  0  0  0  0  0  0
    1.5032   24.3416   30.6339 N   0  0  0  0  0  0  0  0  0  0  0  0
    1.8398   21.9051   30.9008 C   0  0  1  0  0  0  0  0  0  0  0  0
    1.4307   21.9673   32.2776 O   0  0  0  0  0  0  0  0  0  0  0  0
    1.4213   20.5524   30.2882 C   0  0  2  0  0  0  0  0  0  0  0  0
    2.0623   19.4889   31.0129 O   0  0  0  0  0  0  0  0  0  0  0  0
    1.8800   20.5288   28.7977 C   0  0  2  0  0  0  0  0  0  0  0  0
    1.2513   21.6125   28.0506 O   0  0  0  0  0  0  0  0  0  0  0  0
    1.4753   19.2098   28.1193 C   0  0  0  0  0  0  0  0  0  0  0  0
    1.4564   19.3578   26.6886 O   0  0  0  0  0  0  0  0  0  0  0  0
  1  2  1  1  0  0  0
  1  3  1  0  0  0  0
  1  4  2  0  0  0  0
  1 16  1  0  0  0  0
  5  6  1  1  0  0  0
  5  7  1  0  0  0  0
  5 14  1  0  0  0  0
  7  8  1  1  0  0  0
  7  9  1  0  0  0  0
  9 10  1  1  0  0  0
  9 11  1  0  0  0  0
 11 12  1  1  0  0  0
 11 13  1  0  0  0  0
 13 14  1  0  0  0  0
 13 15  1  6  0  0  0
 15 16  1  0  0  0  0
M  CHG  1   3  -1
M  END
>  <CHROM.1>
159.57490032,-172.07753837,-69.95396847,1.37271533,20.30824536,28.35971488
-2.74226938,1.41916415,1.93835418

>  <Name>
ligand

>  <RI>
0

>  <Rbt.Current_Directory>
/home/itssahil/PROJECTS/Mol_Feturizer/New_Systems/rnas/3B4A

>  <Rbt.Executable>
rbdock ($Id: //depot/dev/client3/rdock/2013.1/src/exe/rbdock.cxx#4 $)

>  <Rbt.Library>
libRbt.so (2013.1, Build901 2013/11/27)

>  <Rbt.Parameter_File>
/export/apps/rDock/src/rDock_2013.1_src/data/scripts/dock_solv.prm

>  <Rbt.Receptor>
prm/blind_docking_40.prm

>  <SCORE>
-7.20994

>  <SCORE.INTER>
-7.83369

>  <SCORE.INTER.CONST>
1

>  <SCORE.INTER.POLAR>
0

>  <SCORE.INTER.ROT>
3

>  <SCORE.INTER.SOLV>
23.1725

>  <SCORE.INTER.VDW>
-18.5466

>  <SCORE.INTER.norm>
-0.489605

>  <SCORE.INTRA>
-0.460678

>  <SCORE.INTRA.DIHEDRAL>
-0.228057

>  <SCORE.INTRA.DIHEDRAL.0>
2.05999

>  <SCORE.INTRA.POLAR>
0

>  <SCORE.INTRA.POLAR.0>
0

>  <SCORE.INTRA.REPUL>
0

>  <SCORE.INTRA.REPUL.0>
0

>  <SCORE.INTRA.SOLV>
-0.829992

>  <SCORE.INTRA.SOLV.lig_0>
-58.7001

>  <SCORE.INTRA.VDW>
0.0683462

>  <SCORE.INTRA.VDW.0>
-0.401036

>  <SCORE.INTRA.norm>
-0.0287924

>  <SCORE.RESTR>
1.08443

>  <SCORE.RESTR.CAVITY>
1.08443

>  <SCORE.RESTR.norm>
0.0677767

>  <SCORE.SYSTEM>
0

>  <SCORE.SYSTEM.CONST>
0

>  <SCORE.SYSTEM.DIHEDRAL>
0

>  <SCORE.SYSTEM.SOLV>
0

>  <SCORE.SYSTEM.norm>
0

>  <SCORE.heavy>
16

>  <SCORE.norm>
-0.450621

>  <RMSD>
55.187

$$$$
ligand
 OpenBabel11021811463D
libRbt.so/2013.1/901 2013/11/27
 16 16  0  0  0  0  0  0  0  0999 V2000
    0.8371   17.9881   26.0431 P   0  0  2  0  0  0  0  0  0  0  0  0
    1.7801   16.8558   26.2197 O   0  0  0  0  0  0  0  0  0  0  0  0
   -0.5455   17.6504   26.8017 O   0  5  0  0  0  0  0  0  0  0  0  0
    0.5642   18.1976   24.4623 O   0  0  0  0  0  0  0  0  0  0  0  0
    1.6189   22.9093   28.5645 C   0  0  2  0  0  0  0  0  0  0  0  0
    3.0459   23.1154   28.4572 O   0  0  0  0  0  0  0  0  0  0  0  0
    1.1484   23.0252   30.0434 C   0  0  2  0  0  0  0  0  0  0  0  0
    1.5107   24.3525   30.5737 N   0  0  0  0  0  0  0  0  0  0  0  0
    1.8383   21.9182   30.8705 C   0  0  1  0  0  0  0  0  0  0  0  0
    1.4166   21.9967   32.2426 O   0  0  0  0  0  0  0  0  0  0  0  0
    1.4218   20.5599   30.2690 C   0  0  2  0  0  0  0  0  0  0  0  0
    2.0532   19.5028   31.0113 O   0  0  0  0  0  0  0  0  0  0  0  0
    1.8942   20.5187   28.7831 C   0  0  2  0  0  0  0  0  0  0  0  0
    1.2755   21.5958   28.0184 O   0  0  0  0  0  0  0  0  0  0  0  0
    1.4923   19.1933   28.1156 C   0  0  0  0  0  0  0  0  0  0  0  0
    1.4946   19.3234   26.6830 O   0  0  0  0  0  0  0  0  0  0  0  0
  1  2  1  1  0  0  0
  1  3  1  0  0  0  0
  1  4  2  0  0  0  0
  1 16  1  0  0  0  0
  5  6  1  1  0  0  0
  5  7  1  0  0  0  0
  5 14  1  0  0  0  0
  7  8  1  1  0  0  0
  7  9  1  0  0  0  0
  9 10  1  1  0  0  0
  9 11  1  0  0  0  0
 11 12  1  1  0  0  0
 11 13  1  0  0  0  0
 13 14  1  0  0  0  0
 13 15  1  6  0  0  0
 15 16  1  0  0  0  0
M  CHG  1   3  -1
M  END
>  <CHROM.1>
159.90712984,-170.88957426,-71.16278927,1.38239551,20.29914922,28.34293451
-2.69346151,1.41683328,1.88069797

>  <Name>
ligand

>  <RI>
0

>  <Rbt.Current_Directory>
/home/itssahil/PROJECTS/Mol_Feturizer/New_Systems/rnas/3B4A

>  <Rbt.Executable>
rbdock ($Id: //depot/dev/client3/rdock/2013.1/src/exe/rbdock.cxx#4 $)

>  <Rbt.Library>
libRbt.so (2013.1, Build901 2013/11/27)

>  <Rbt.Parameter_File>
/export/apps/rDock/src/rDock_2013.1_src/data/scripts/dock_solv.prm

>  <Rbt.Receptor>
prm/blind_docking_40.prm

>  <SCORE>
-7.14681

>  <SCORE.INTER>
-7.82246

>  <SCORE.INTER.CONST>
1

>  <SCORE.INTER.POLAR>
0

>  <SCORE.INTER.ROT>
3

>  <SCORE.INTER.SOLV>
23.1707

>  <SCORE.INTER.VDW>
-18.5385

>  <SCORE.INTER.norm>
-0.488904

>  <SCORE.INTRA>
-0.394426

>  <SCORE.INTRA.DIHEDRAL>
-0.131666

>  <SCORE.INTRA.DIHEDRAL.0>
2.05999

>  <SCORE.INTRA.POLAR>
0

>  <SCORE.INTRA.POLAR.0>
0

>  <SCORE.INTRA.REPUL>
0

>  <SCORE.INTRA.REPUL.0>
0

>  <SCORE.INTRA.SOLV>
-0.807658

>  <SCORE.INTRA.SOLV.lig_0>
-58.7001

>  <SCORE.INTRA.VDW>
0.0752366

>  <SCORE.INTRA.VDW.0>
-0.401036

>  <SCORE.INTRA.norm>
-0.0246516

>  <SCORE.RESTR>
1.07007

>  <SCORE.RESTR.CAVITY>
1.07007

>  <SCORE.RESTR.norm>
0.0668795

>  <SCORE.SYSTEM>
0

>  <SCORE.SYSTEM.CONST>
0

>  <SCORE.SYSTEM.DIHEDRAL>
0

>  <SCORE.SYSTEM.SOLV>
0

>  <SCORE.SYSTEM.norm>
0

>  <SCORE.heavy>
16

>  <SCORE.norm>
-0.446676

>  <RMSD>
55.189

$$$$
ligand
 OpenBabel11021811463D
libRbt.so/2013.1/901 2013/11/27
 16 16  0  0  0  0  0  0  0  0999 V2000
    0.7796   18.0676   26.0097 P   0  0  2  0  0  0  0  0  0  0  0  0
   -0.5151   17.7569   26.6653 O   0  0  0  0  0  0  0  0  0  0  0  0
    0.5353   18.2884   24.4309 O   0  5  0  0  0  0  0  0  0  0  0  0
    1.7937   16.8293   26.2452 O   0  0  0  0  0  0  0  0  0  0  0  0
    1.6465   22.9512   28.5840 C   0  0  2  0  0  0  0  0  0  0  0  0
    3.0756   23.1444   28.4822 O   0  0  0  0  0  0  0  0  0  0  0  0
    1.1742   23.0513   30.0635 C   0  0  2  0  0  0  0  0  0  0  0  0
    1.5488   24.3674   30.6129 N   0  0  0  0  0  0  0  0  0  0  0  0
    1.8513   21.9261   30.8764 C   0  0  1  0  0  0  0  0  0  0  0  0
    1.4278   21.9897   32.2487 O   0  0  0  0  0  0  0  0  0  0  0  0
    1.4225   20.5805   30.2553 C   0  0  2  0  0  0  0  0  0  0  0  0
    2.0418   19.5069   30.9840 O   0  0  0  0  0  0  0  0  0  0  0  0
    1.8973   20.5551   28.7699 C   0  0  2  0  0  0  0  0  0  0  0  0
    1.2909   21.6489   28.0191 O   0  0  0  0  0  0  0  0  0  0  0  0
    1.4835   19.2433   28.0833 C   0  0  0  0  0  0  0  0  0  0  0  0
    1.3850   19.4228   26.6594 O   0  0  0  0  0  0  0  0  0  0  0  0
  1  2  1  1  0  0  0
  1  3  1  0  0  0  0
  1  4  2  0  0  0  0
  1 16  1  0  0  0  0
  5  6  1  1  0  0  0
  5  7  1  0  0  0  0
  5 14  1  0  0  0  0
  7  8  1  1  0  0  0
  7  9  1  0  0  0  0
  9 10  1  1  0  0  0
  9 11  1  0  0  0  0
 11 12  1  1  0  0  0
 11 13  1  0  0  0  0
 13 14  1  0  0  0  0
 13 15  1  6  0  0  0
 15 16  1  0  0  0  0
M  CHG  1   3  -1
M  END
>  <CHROM.1>
155.25980126,-173.37952145,55.59925654,1.37743106,20.34156798,28.32992655
-2.80883568,1.41576231,2.00730271

>  <Name>
ligand

>  <RI>
0

>  <Rbt.Current_Directory>
/home/itssahil/PROJECTS/Mol_Feturizer/New_Systems/rnas/3B4A

>  <Rbt.Executable>
rbdock ($Id: //depot/dev/client3/rdock/2013.1/src/exe/rbdock.cxx#4 $)

>  <Rbt.Library>
libRbt.so (2013.1, Build901 2013/11/27)

>  <Rbt.Parameter_File>
/export/apps/rDock/src/rDock_2013.1_src/data/scripts/dock_solv.prm

>  <Rbt.Receptor>
prm/blind_docking_40.prm

>  <SCORE>
-7.1132

>  <SCORE.INTER>
-7.89789

>  <SCORE.INTER.CONST>
1

>  <SCORE.INTER.POLAR>
0

>  <SCORE.INTER.ROT>
3

>  <SCORE.INTER.SOLV>
23.4003

>  <SCORE.INTER.VDW>
-18.6654

>  <SCORE.INTER.norm>
-0.493618

>  <SCORE.INTRA>
-0.355979

>  <SCORE.INTRA.DIHEDRAL>
0.103336

>  <SCORE.INTRA.DIHEDRAL.0>
2.05999

>  <SCORE.INTRA.POLAR>
0

>  <SCORE.INTRA.POLAR.0>
0

>  <SCORE.INTRA.REPUL>
0

>  <SCORE.INTRA.REPUL.0>
0

>  <SCORE.INTRA.SOLV>
-1.03767

>  <SCORE.INTRA.SOLV.lig_0>
-58.7001

>  <SCORE.INTRA.VDW>
0.11119

>  <SCORE.INTRA.VDW.0>
-0.401036

>  <SCORE.INTRA.norm>
-0.0222487

>  <SCORE.RESTR>
1.14067

>  <SCORE.RESTR.CAVITY>
1.14067

>  <SCORE.RESTR.norm>
0.0712917

>  <SCORE.SYSTEM>
0

>  <SCORE.SYSTEM.CONST>
0

>  <SCORE.SYSTEM.DIHEDRAL>
0

>  <SCORE.SYSTEM.SOLV>
0

>  <SCORE.SYSTEM.norm>
0

>  <SCORE.heavy>
16

>  <SCORE.norm>
-0.444575

>  <RMSD>
55.190

$$$$
ligand
 OpenBabel11021811463D
libRbt.so/2013.1/901 2013/11/27
 16 16  0  0  0  0  0  0  0  0999 V2000
    0.7894   18.0554   26.0178 P   0  0  2  0  0  0  0  0  0  0  0  0
   -0.5020   17.7302   26.6729 O   0  0  0  0  0  0  0  0  0  0  0  0
    0.5428   18.2766   24.4394 O   0  5  0  0  0  0  0  0  0  0  0  0
    1.8160   16.8270   26.2509 O   0  0  0  0  0  0  0  0  0  0  0  0
    1.6502   22.9468   28.5871 C   0  0  2  0  0  0  0  0  0  0  0  0
    3.0812   23.1316   28.4953 O   0  0  0  0  0  0  0  0  0  0  0  0
    1.1678   23.0534   30.0629 C   0  0  2  0  0  0  0  0  0  0  0  0
    1.5459   24.3688   30.6116 N   0  0  0  0  0  0  0  0  0  0  0  0
    1.8326   21.9266   30.8837 C   0  0  1  0  0  0  0  0  0  0  0  0
    1.3995   21.9962   32.2527 O   0  0  0  0  0  0  0  0  0  0  0  0
    1.4007   20.5818   30.2629 C   0  0  2  0  0  0  0  0  0  0  0  0
    2.0086   19.5066   30.9989 O   0  0  0  0  0  0  0  0  0  0  0  0
    1.8862   20.5499   28.7811 C   0  0  2  0  0  0  0  0  0  0  0  0
    1.2915   21.6451   28.0230 O   0  0  0  0  0  0  0  0  0  0  0  0
    1.4699   19.2386   28.0948 C   0  0  0  0  0  0  0  0  0  0  0  0
    1.3810   19.4153   26.6700 O   0  0  0  0  0  0  0  0  0  0  0  0
  1  2  1  1  0  0  0
  1  3  1  0  0  0  0
  1  4  2  0  0  0  0
  1 16  1  0  0  0  0
  5  6  1  1  0  0  0
  5  7  1  0  0  0  0
  5 14  1  0  0  0  0
  7  8  1  1  0  0  0
  7  9  1  0  0  0  0
  9 10  1  1  0  0  0
  9 11  1  0  0  0  0
 11 12  1  1  0  0  0
 11 13  1  0  0  0  0
 13 14  1  0  0  0  0
 13 15  1  6  0  0  0
 15 16  1  0  0  0  0
M  CHG  1   3  -1
M  END
>  <CHROM.1>
155.18203437,-174.04656058,55.07640599,1.37386629,20.33585760,28.33731090
-2.74437739,1.41565453,1.94049722

>  <Name>
ligand

>  <RI>
0

>  <Rbt.Current_Directory>
/home/itssahil/PROJECTS/Mol_Feturizer/New_Systems/rnas/3B4A

>  <Rbt.Executable>
rbdock ($Id: //depot/dev/client3/rdock/2013.1/src/exe/rbdock.cxx#4 $)

>  <Rbt.Library>
libRbt.so (2013.1, Build901 2013/11/27)

>  <Rbt.Parameter_File>
/export/apps/rDock/src/rDock_2013.1_src/data/scripts/dock_solv.prm

>  <Rbt.Receptor>
prm/blind_docking_40.prm

>  <SCORE>
-7.10671

>  <SCORE.INTER>
-7.88981

>  <SCORE.INTER.CONST>
1

>  <SCORE.INTER.POLAR>
0

>  <SCORE.INTER.ROT>
3

>  <SCORE.INTER.SOLV>
23.4299

>  <SCORE.INTER.VDW>
-18.6698

>  <SCORE.INTER.norm>
-0.493113

>  <SCORE.INTRA>
-0.359553

>  <SCORE.INTRA.DIHEDRAL>
0.0809492

>  <SCORE.INTRA.DIHEDRAL.0>
2.05999

>  <SCORE.INTRA.POLAR>
0

>  <SCORE.INTRA.POLAR.0>
0

>  <SCORE.INTRA.REPUL>
0

>  <SCORE.INTRA.REPUL.0>
0

>  <SCORE.INTRA.SOLV>
-1.04333

>  <SCORE.INTRA.SOLV.lig_0>
-58.7001

>  <SCORE.INTRA.VDW>
0.121638

>  <SCORE.INTRA.VDW.0>
-0.401036

>  <SCORE.INTRA.norm>
-0.0224721

>  <SCORE.RESTR>
1.14265

>  <SCORE.RESTR.CAVITY>
1.14265

>  <SCORE.RESTR.norm>
0.0714155

>  <SCORE.SYSTEM>
0

>  <SCORE.SYSTEM.CONST>
0

>  <SCORE.SYSTEM.DIHEDRAL>
0

>  <SCORE.SYSTEM.SOLV>
0

>  <SCORE.SYSTEM.norm>
0

>  <SCORE.heavy>
16

>  <SCORE.norm>
-0.44417

>  <RMSD>
55.192

$$$$
ligand
 OpenBabel11021811463D
libRbt.so/2013.1/901 2013/11/27
 16 16  0  0  0  0  0  0  0  0999 V2000
    0.7879   18.0532   26.0213 P   0  0  2  0  0  0  0  0  0  0  0  0
   -0.5047   17.7309   26.6755 O   0  0  0  0  0  0  0  0  0  0  0  0
    0.5433   18.2726   24.4424 O   0  5  0  0  0  0  0  0  0  0  0  0
    1.8125   16.8237   26.2572 O   0  0  0  0  0  0  0  0  0  0  0  0
    1.6242   22.9484   28.5966 C   0  0  2  0  0  0  0  0  0  0  0  0
    3.0527   23.1431   28.4895 O   0  0  0  0  0  0  0  0  0  0  0  0
    1.1573   23.0485   30.0779 C   0  0  2  0  0  0  0  0  0  0  0  0
    1.5325   24.3652   30.6254 N   0  0  0  0  0  0  0  0  0  0  0  0
    1.8387   21.9244   30.8887 C   0  0  1  0  0  0  0  0  0  0  0  0
    1.4201   21.9881   32.2625 O   0  0  0  0  0  0  0  0  0  0  0  0
    1.4090   20.5780   30.2697 C   0  0  2  0  0  0  0  0  0  0  0  0
    2.0322   19.5054   30.9965 O   0  0  0  0  0  0  0  0  0  0  0  0
    1.8784   20.5527   28.7825 C   0  0  2  0  0  0  0  0  0  0  0  0
    1.2680   21.6455   28.0335 O   0  0  0  0  0  0  0  0  0  0  0  0
    1.4634   19.2401   28.0979 C   0  0  0  0  0  0  0  0  0  0  0  0
    1.3808   19.4132   26.6723 O   0  0  0  0  0  0  0  0  0  0  0  0
  1  2  1  1  0  0  0
  1  3  1  0  0  0  0
  1  4  2  0  0  0  0
  1 16  1  0  0  0  0
  5  6  1  1  0  0  0
  5  7  1  0  0  0  0
  5 14  1  0  0  0  0
  7  8  1  1  0  0  0
  7  9  1  0  0  0  0
  9 10  1  1  0  0  0
  9 11  1  0  0  0  0
 11 12  1  1  0  0  0
 11 13  1  0  0  0  0
 13 14  1  0  0  0  0
 13 15  1  6  0  0  0
 15 16  1  0  0  0  0
M  CHG  1   3  -1
M  END
>  <CHROM.1>
156.20438151,-173.94959688,54.87338214,1.37016834,20.33475527,28.34228927
-2.81615693,1.42029748,2.01367261

>  <Name>
ligand

>  <RI>
0

>  <Rbt.Current_Directory>
/home/itssahil/PROJECTS/Mol_Feturizer/New_Systems/rnas/3B4A

>  <Rbt.Executable>
rbdock ($Id: //depot/dev/client3/rdock/2013.1/src/exe/rbdock.cxx#4 $)

>  <Rbt.Library>
libRbt.so (2013.1, Build901 2013/11/27)

>  <Rbt.Parameter_File>
/export/apps/rDock/src/rDock_2013.1_src/data/scripts/dock_solv.prm

>  <Rbt.Receptor>
prm/blind_docking_40.prm

>  <SCORE>
-7.03201

>  <SCORE.INTER>
-7.74613

>  <SCORE.INTER.CONST>
1

>  <SCORE.INTER.POLAR>
0

>  <SCORE.INTER.ROT>
3

>  <SCORE.INTER.SOLV>
23.4392

>  <SCORE.INTER.VDW>
-18.5772

>  <SCORE.INTER.norm>
-0.484133

>  <SCORE.INTRA>
-0.415562

>  <SCORE.INTRA.DIHEDRAL>
-0.0449691

>  <SCORE.INTRA.DIHEDRAL.0>
2.05999

>  <SCORE.INTRA.POLAR>
0

>  <SCORE.INTRA.POLAR.0>
0

>  <SCORE.INTRA.REPUL>
0

>  <SCORE.INTRA.REPUL.0>
0

>  <SCORE.INTRA.SOLV>
-1.04709

>  <SCORE.INTRA.SOLV.lig_0>
-58.7001

>  <SCORE.INTRA.VDW>
0.130468

>  <SCORE.INTRA.VDW.0>
-0.401036

>  <SCORE.INTRA.norm>
-0.0259726

>  <SCORE.RESTR>
1.12968

>  <SCORE.RESTR.CAVITY>
1.12968

>  <SCORE.RESTR.norm>
0.0706051

>  <SCORE.SYSTEM>
0

>  <SCORE.SYSTEM.CONST>
0

>  <SCORE.SYSTEM.DIHEDRAL>
0

>  <SCORE.SYSTEM.SOLV>
0

>  <SCORE.SYSTEM.norm>
0

>  <SCORE.heavy>
16

>  <SCORE.norm>
-0.439501

>  <RMSD>
55.193

$$$$
ligand
 OpenBabel11021811463D
libRbt.so/2013.1/901 2013/11/27
 16 16  0  0  0  0  0  0  0  0999 V2000
    0.7594   18.0555   26.0121 P   0  0  2  0  0  0  0  0  0  0  0  0
   -0.5418   17.7480   26.6561 O   0  0  0  0  0  0  0  0  0  0  0  0
    0.5319   18.2638   24.4291 O   0  5  0  0  0  0  0  0  0  0  0  0
    1.7726   16.8205   26.2680 O   0  0  0  0  0  0  0  0  0  0  0  0
    1.6541   22.9458   28.5691 C   0  0  2  0  0  0  0  0  0  0  0  0
    3.0845   23.1294   28.4669 O   0  0  0  0  0  0  0  0  0  0  0  0
    1.1824   23.0539   30.0483 C   0  0  2  0  0  0  0  0  0  0  0  0
    1.5655   24.3693   30.5933 N   0  0  0  0  0  0  0  0  0  0  0  0
    1.8522   21.9270   30.8650 C   0  0  1  0  0  0  0  0  0  0  0  0
    1.4290   21.9980   32.2371 O   0  0  0  0  0  0  0  0  0  0  0  0
    1.4147   20.5822   30.2484 C   0  0  2  0  0  0  0  0  0  0  0  0
    2.0270   19.5070   30.9807 O   0  0  0  0  0  0  0  0  0  0  0  0
    1.8895   20.5488   28.7631 C   0  0  2  0  0  0  0  0  0  0  0  0
    1.2902   21.6439   28.0085 O   0  0  0  0  0  0  0  0  0  0  0  0
    1.4673   19.2374   28.0808 C   0  0  0  0  0  0  0  0  0  0  0  0
    1.3560   19.4164   26.6578 O   0  0  0  0  0  0  0  0  0  0  0  0
  1  2  1  1  0  0  0
  1  3  1  0  0  0  0
  1  4  2  0  0  0  0
  1 16  1  0  0  0  0
  5  6  1  1  0  0  0
  5  7  1  0  0  0  0
  5 14  1  0  0  0  0
  7  8  1  1  0  0  0
  7  9  1  0  0  0  0
  9 10  1  1  0  0  0
  9 11  1  0  0  0  0
 11 12  1  1  0  0  0
 11 13  1  0  0  0  0
 13 14  1  0  0  0  0
 13 15  1  6  0  0  0
 15 16  1  0  0  0  0
M  CHG  1   3  -1
M  END
>  <CHROM.1>
154.63684263,-174.06156475,56.85989586,1.36961019,20.33568812,28.32421427
-2.78906473,1.41044791,1.98380975

>  <Name>
ligand

>  <RI>
0

>  <Rbt.Current_Directory>
/home/itssahil/PROJECTS/Mol_Feturizer/New_Systems/rnas/3B4A

>  <Rbt.Executable>
rbdock ($Id: //depot/dev/client3/rdock/2013.1/src/exe/rbdock.cxx#4 $)

>  <Rbt.Library>
libRbt.so (2013.1, Build901 2013/11/27)

>  <Rbt.Parameter_File>
/export/apps/rDock/src/rDock_2013.1_src/data/scripts/dock_solv.prm

>  <Rbt.Receptor>
prm/blind_docking_40.prm

>  <SCORE>
-6.99294

>  <SCORE.INTER>
-7.77708

>  <SCORE.INTER.CONST>
1

>  <SCORE.INTER.POLAR>
0

>  <SCORE.INTER.ROT>
3

>  <SCORE.INTER.SOLV>
23.4806

>  <SCORE.INTER.VDW>
-18.6116

>  <SCORE.INTER.norm>
-0.486068

>  <SCORE.INTRA>
-0.344217

>  <SCORE.INTRA.DIHEDRAL>
0.129459

>  <SCORE.INTRA.DIHEDRAL.0>
2.05999

>  <SCORE.INTRA.POLAR>
0

>  <SCORE.INTRA.POLAR.0>
0

>  <SCORE.INTRA.REPUL>
0.00010857

>  <SCORE.INTRA.REPUL.0>
0

>  <SCORE.INTRA.SOLV>
-1.02474

>  <SCORE.INTRA.SOLV.lig_0>
-58.7001

>  <SCORE.INTRA.VDW>
0.10288

>  <SCORE.INTRA.VDW.0>
-0.401036

>  <SCORE.INTRA.norm>
-0.0215135

>  <SCORE.RESTR>
1.12836

>  <SCORE.RESTR.CAVITY>
1.12836

>  <SCORE.RESTR.norm>
0.0705223

>  <SCORE.SYSTEM>
0

>  <SCORE.SYSTEM.CONST>
0

>  <SCORE.SYSTEM.DIHEDRAL>
0

>  <SCORE.SYSTEM.SOLV>
0

>  <SCORE.SYSTEM.norm>
0

>  <SCORE.heavy>
16

>  <SCORE.norm>
-0.437059

>  <RMSD>
55.200

$$$$
ligand
 OpenBabel11021811463D
libRbt.so/2013.1/901 2013/11/27
 16 16  0  0  0  0  0  0  0  0999 V2000
    0.7889   18.0629   25.9825 P   0  0  2  0  0  0  0  0  0  0  0  0
   -0.4840   17.7070   26.6574 O   0  0  0  0  0  0  0  0  0  0  0  0
    0.5079   18.3038   24.4127 O   0  5  0  0  0  0  0  0  0  0  0  0
    1.8395   16.8480   26.1767 O   0  0  0  0  0  0  0  0  0  0  0  0
    1.6510   22.9441   28.5820 C   0  0  2  0  0  0  0  0  0  0  0  0
    3.0825   23.1233   28.4872 O   0  0  0  0  0  0  0  0  0  0  0  0
    1.1732   23.0441   30.0598 C   0  0  2  0  0  0  0  0  0  0  0  0
    1.5584   24.3546   30.6151 N   0  0  0  0  0  0  0  0  0  0  0  0
    1.8355   21.9096   30.8720 C   0  0  1  0  0  0  0  0  0  0  0  0
    1.4065   21.9730   32.2426 O   0  0  0  0  0  0  0  0  0  0  0  0
    1.3960   20.5703   30.2445 C   0  0  2  0  0  0  0  0  0  0  0  0
    2.0013   19.4882   30.9725 O   0  0  0  0  0  0  0  0  0  0  0  0
    1.8772   20.5451   28.7612 C   0  0  2  0  0  0  0  0  0  0  0  0
    1.2850   21.6473   28.0113 O   0  0  0  0  0  0  0  0  0  0  0  0
    1.4533   19.2397   28.0684 C   0  0  0  0  0  0  0  0  0  0  0  0
    1.3715   19.4224   26.6439 O   0  0  0  0  0  0  0  0  0  0  0  0
  1  2  1  1  0  0  0
  1  3  1  0  0  0  0
  1  4  2  0  0  0  0
  1 16  1  0  0  0  0
  5  6  1  1  0  0  0
  5  7  1  0  0  0  0
  5 14  1  0  0  0  0
  7  8  1  1  0  0  0
  7  9  1  0  0  0  0
  9 10  1  1  0  0  0
  9 11  1  0  0  0  0
 11 12  1  1  0  0  0
 11 13  1  0  0  0  0
 13 14  1  0  0  0  0
 13 15  1  6  0  0  0
 15 16  1  0  0  0  0
M  CHG  1   3  -1
M  END
>  <CHROM.1>
155.63907703,-174.73750608,53.37045111,1.37281209,20.33272862,28.31607031
-2.73808461,1.41456534,1.93965189

>  <Name>
ligand

>  <RI>
0

>  <Rbt.Current_Directory>
/home/itssahil/PROJECTS/Mol_Feturizer/New_Systems/rnas/3B4A

>  <Rbt.Executable>
rbdock ($Id: //depot/dev/client3/rdock/2013.1/src/exe/rbdock.cxx#4 $)

>  <Rbt.Library>
libRbt.so (2013.1, Build901 2013/11/27)

>  <Rbt.Parameter_File>
/export/apps/rDock/src/rDock_2013.1_src/data/scripts/dock_solv.prm

>  <Rbt.Receptor>
prm/blind_docking_40.prm

>  <SCORE>
-7.02115

>  <SCORE.INTER>
-7.79643

>  <SCORE.INTER.CONST>
1

>  <SCORE.INTER.POLAR>
0

>  <SCORE.INTER.ROT>
3

>  <SCORE.INTER.SOLV>
23.435

>  <SCORE.INTER.VDW>
-18.6093

>  <SCORE.INTER.norm>
-0.487277

>  <SCORE.INTRA>
-0.357906

>  <SCORE.INTRA.DIHEDRAL>
0.0145382

>  <SCORE.INTRA.DIHEDRAL.0>
2.05999

>  <SCORE.INTRA.POLAR>
0

>  <SCORE.INTRA.POLAR.0>
0

>  <SCORE.INTRA.REPUL>
7.17993e-06

>  <SCORE.INTRA.REPUL.0>
0

>  <SCORE.INTRA.SOLV>
-1.06138

>  <SCORE.INTRA.SOLV.lig_0>
-58.7001

>  <SCORE.INTRA.VDW>
0.165477

>  <SCORE.INTRA.VDW.0>
-0.401036

>  <SCORE.INTRA.norm>
-0.0223691

>  <SCORE.RESTR>
1.13318

>  <SCORE.RESTR.CAVITY>
1.13318

>  <SCORE.RESTR.norm>
0.070824

>  <SCORE.SYSTEM>
0

>  <SCORE.SYSTEM.CONST>
0

>  <SCORE.SYSTEM.DIHEDRAL>
0

>  <SCORE.SYSTEM.SOLV>
0

>  <SCORE.SYSTEM.norm>
0

>  <SCORE.heavy>
16

>  <SCORE.norm>
-0.438822

>  <RMSD>
55.203

$$$$
ligand
 OpenBabel11021811463D
libRbt.so/2013.1/901 2013/11/27
 16 16  0  0  0  0  0  0  0  0999 V2000
    0.7666   18.0515   26.0129 P   0  0  2  0  0  0  0  0  0  0  0  0
   -0.5314   17.7432   26.6629 O   0  0  0  0  0  0  0  0  0  0  0  0
    0.5320   18.2581   24.4307 O   0  5  0  0  0  0  0  0  0  0  0  0
    1.7822   16.8178   26.2654 O   0  0  0  0  0  0  0  0  0  0  0  0
    1.6144   22.9472   28.5687 C   0  0  2  0  0  0  0  0  0  0  0  0
    3.0412   23.1523   28.4574 O   0  0  0  0  0  0  0  0  0  0  0  0
    1.1508   23.0468   30.0510 C   0  0  2  0  0  0  0  0  0  0  0  0
    1.5176   24.3674   30.5949 N   0  0  0  0  0  0  0  0  0  0  0  0
    1.8426   21.9294   30.8623 C   0  0  1  0  0  0  0  0  0  0  0  0
    1.4273   21.9927   32.2371 O   0  0  0  0  0  0  0  0  0  0  0  0
    1.4213   20.5787   30.2470 C   0  0  2  0  0  0  0  0  0  0  0  0
    2.0543   19.5121   30.9742 O   0  0  0  0  0  0  0  0  0  0  0  0
    1.8869   20.5538   28.7586 C   0  0  2  0  0  0  0  0  0  0  0  0
    1.2664   21.6406   28.0092 O   0  0  0  0  0  0  0  0  0  0  0  0
    1.4798   19.2369   28.0777 C   0  0  0  0  0  0  0  0  0  0  0  0
    1.3646   19.4136   26.6548 O   0  0  0  0  0  0  0  0  0  0  0  0
  1  2  1  1  0  0  0
  1  3  1  0  0  0  0
  1  4  2  0  0  0  0
  1 16  1  0  0  0  0
  5  6  1  1  0  0  0
  5  7  1  0  0  0  0
  5 14  1  0  0  0  0
  7  8  1  1  0  0  0
  7  9  1  0  0  0  0
  9 10  1  1  0  0  0
  9 11  1  0  0  0  0
 11 12  1  1  0  0  0
 11 13  1  0  0  0  0
 13 14  1  0  0  0  0
 13 15  1  6  0  0  0
 15 16  1  0  0  0  0
M  CHG  1   3  -1
M  END
>  <CHROM.1>
154.99052124,-173.36836225,56.74620337,1.36373957,20.33520099,28.32311289
-2.87286204,1.41954174,2.06813906

>  <Name>
ligand

>  <RI>
0

>  <Rbt.Current_Directory>
/home/itssahil/PROJECTS/Mol_Feturizer/New_Systems/rnas/3B4A

>  <Rbt.Executable>
rbdock ($Id: //depot/dev/client3/rdock/2013.1/src/exe/rbdock.cxx#4 $)

>  <Rbt.Library>
libRbt.so (2013.1, Build901 2013/11/27)

>  <Rbt.Parameter_File>
/export/apps/rDock/src/rDock_2013.1_src/data/scripts/dock_solv.prm

>  <Rbt.Receptor>
prm/blind_docking_40.prm

>  <SCORE>
-6.90074

>  <SCORE.INTER>
-7.66098

>  <SCORE.INTER.CONST>
1

>  <SCORE.INTER.POLAR>
0

>  <SCORE.INTER.ROT>
3

>  <SCORE.INTER.SOLV>
23.3653

>  <SCORE.INTER.VDW>
-18.4957

>  <SCORE.INTER.norm>
-0.478812

>  <SCORE.INTRA>
-0.351697

>  <SCORE.INTRA.DIHEDRAL>
0.125589

>  <SCORE.INTRA.DIHEDRAL.0>
2.05999

>  <SCORE.INTRA.POLAR>
0

>  <SCORE.INTRA.POLAR.0>
0

>  <SCORE.INTRA.REPUL>
0

>  <SCORE.INTRA.REPUL.0>
0

>  <SCORE.INTRA.SOLV>
-1.02582

>  <SCORE.INTRA.SOLV.lig_0>
-58.7001

>  <SCORE.INTRA.VDW>
0.0984171

>  <SCORE.INTRA.VDW.0>
-0.401036

>  <SCORE.INTRA.norm>
-0.021981

>  <SCORE.RESTR>
1.11194

>  <SCORE.RESTR.CAVITY>
1.11194

>  <SCORE.RESTR.norm>
0.0694965

>  <SCORE.SYSTEM>
0

>  <SCORE.SYSTEM.CONST>
0

>  <SCORE.SYSTEM.DIHEDRAL>
0

>  <SCORE.SYSTEM.SOLV>
0

>  <SCORE.SYSTEM.norm>
0

>  <SCORE.heavy>
16

>  <SCORE.norm>
-0.431296

>  <RMSD>
55.207

$$$$
ligand
 OpenBabel11021811463D
libRbt.so/2013.1/901 2013/11/27
 16 16  0  0  0  0  0  0  0  0999 V2000
    0.7549   18.0509   26.0118 P   0  0  2  0  0  0  0  0  0  0  0  0
   -0.5458   17.7415   26.6558 O   0  0  0  0  0  0  0  0  0  0  0  0
    0.5261   18.2644   24.4296 O   0  5  0  0  0  0  0  0  0  0  0  0
    1.7680   16.8148   26.2627 O   0  0  0  0  0  0  0  0  0  0  0  0
    1.6491   22.9362   28.5786 C   0  0  2  0  0  0  0  0  0  0  0  0
    3.0802   23.1171   28.4817 O   0  0  0  0  0  0  0  0  0  0  0  0
    1.1724   23.0433   30.0562 C   0  0  2  0  0  0  0  0  0  0  0  0
    1.5561   24.3573   30.6043 N   0  0  0  0  0  0  0  0  0  0  0  0
    1.8371   21.9140   30.8739 C   0  0  1  0  0  0  0  0  0  0  0  0
    1.4091   21.9841   32.2445 O   0  0  0  0  0  0  0  0  0  0  0  0
    1.3991   20.5708   30.2539 C   0  0  2  0  0  0  0  0  0  0  0  0
    2.0067   19.4935   30.9870 O   0  0  0  0  0  0  0  0  0  0  0  0
    1.8791   20.5385   28.7702 C   0  0  2  0  0  0  0  0  0  0  0  0
    1.2847   21.6358   28.0150 O   0  0  0  0  0  0  0  0  0  0  0  0
    1.4567   19.2288   28.0848 C   0  0  0  0  0  0  0  0  0  0  0  0
    1.3523   19.4095   26.6615 O   0  0  0  0  0  0  0  0  0  0  0  0
  1  2  1  1  0  0  0
  1  3  1  0  0  0  0
  1  4  2  0  0  0  0
  1 16  1  0  0  0  0
  5  6  1  1  0  0  0
  5  7  1  0  0  0  0
  5 14  1  0  0  0  0
  7  8  1  1  0  0  0
  7  9  1  0  0  0  0
  9 10  1  1  0  0  0
  9 11  1  0  0  0  0
 11 12  1  1  0  0  0
 11 13  1  0  0  0  0
 13 14  1  0  0  0  0
 13 15  1  6  0  0  0
 15 16  1  0  0  0  0
M  CHG  1   3  -1
M  END
>  <CHROM.1>
154.70494601,-174.04600001,56.49476060,1.36072694,20.32693614,28.32914108
-2.76373914,1.41019004,1.96015597

>  <Name>
ligand

>  <RI>
0

>  <Rbt.Current_Directory>
/home/itssahil/PROJECTS/Mol_Feturizer/New_Systems/rnas/3B4A

>  <Rbt.Executable>
rbdock ($Id: //depot/dev/client3/rdock/2013.1/src/exe/rbdock.cxx#4 $)

>  <Rbt.Library>
libRbt.so (2013.1, Build901 2013/11/27)

>  <Rbt.Parameter_File>
/export/apps/rDock/src/rDock_2013.1_src/data/scripts/dock_solv.prm

>  <Rbt.Receptor>
prm/blind_docking_40.prm

>  <SCORE>
-6.96723

>  <SCORE.INTER>
-7.74452

>  <SCORE.INTER.CONST>
1

>  <SCORE.INTER.POLAR>
0

>  <SCORE.INTER.ROT>
3

>  <SCORE.INTER.SOLV>
23.4802

>  <SCORE.INTER.VDW>
-18.5897

>  <SCORE.INTER.norm>
-0.484032

>  <SCORE.INTRA>
-0.344395

>  <SCORE.INTRA.DIHEDRAL>
0.125194

>  <SCORE.INTRA.DIHEDRAL.0>
2.05999

>  <SCORE.INTRA.POLAR>
0

>  <SCORE.INTRA.POLAR.0>
0

>  <SCORE.INTRA.REPUL>
8.55542e-05

>  <SCORE.INTRA.REPUL.0>
0

>  <SCORE.INTRA.SOLV>
-1.02847

>  <SCORE.INTRA.SOLV.lig_0>
-58.7001

>  <SCORE.INTRA.VDW>
0.106815

>  <SCORE.INTRA.VDW.0>
-0.401036

>  <SCORE.INTRA.norm>
-0.0215247

>  <SCORE.RESTR>
1.12168

>  <SCORE.RESTR.CAVITY>
1.12168

>  <SCORE.RESTR.norm>
0.0701051

>  <SCORE.SYSTEM>
0

>  <SCORE.SYSTEM.CONST>
0

>  <SCORE.SYSTEM.DIHEDRAL>
0

>  <SCORE.SYSTEM.SOLV>
0

>  <SCORE.SYSTEM.norm>
0

>  <SCORE.heavy>
16

>  <SCORE.norm>
-0.435452

>  <RMSD>
55.208

$$$$
ligand
 OpenBabel11021811463D
libRbt.so/2013.1/901 2013/11/27
 16 16  0  0  0  0  0  0  0  0999 V2000
    0.7471   18.0511   26.0130 P   0  0  2  0  0  0  0  0  0  0  0  0
   -0.5603   17.7519   26.6484 O   0  0  0  0  0  0  0  0  0  0  0  0
    0.5308   18.2641   24.4290 O   0  5  0  0  0  0  0  0  0  0  0  0
    1.7495   16.8081   26.2726 O   0  0  0  0  0  0  0  0  0  0  0  0
    1.6432   22.9270   28.5929 C   0  0  2  0  0  0  0  0  0  0  0  0
    3.0737   23.1114   28.4942 O   0  0  0  0  0  0  0  0  0  0  0  0
    1.1686   23.0283   30.0716 C   0  0  2  0  0  0  0  0  0  0  0  0
    1.5502   24.3413   30.6233 N   0  0  0  0  0  0  0  0  0  0  0  0
    1.8371   21.8979   30.8845 C   0  0  1  0  0  0  0  0  0  0  0  0
    1.4112   21.9625   32.2560 O   0  0  0  0  0  0  0  0  0  0  0  0
    1.4012   20.5557   30.2609 C   0  0  2  0  0  0  0  0  0  0  0  0
    2.0123   19.4774   30.9896 O   0  0  0  0  0  0  0  0  0  0  0  0
    1.8789   20.5292   28.7764 C   0  0  2  0  0  0  0  0  0  0  0  0
    1.2807   21.6276   28.0257 O   0  0  0  0  0  0  0  0  0  0  0  0
    1.4583   19.2208   28.0874 C   0  0  0  0  0  0  0  0  0  0  0  0
    1.3497   19.4063   26.6650 O   0  0  0  0  0  0  0  0  0  0  0  0
  1  2  1  1  0  0  0
  1  3  1  0  0  0  0
  1  4  2  0  0  0  0
  1 16  1  0  0  0  0
  5  6  1  1  0  0  0
  5  7  1  0  0  0  0
  5 14  1  0  0  0  0
  7  8  1  1  0  0  0
  7  9  1  0  0  0  0
  9 10  1  1  0  0  0
  9 11  1  0  0  0  0
 11 12  1  1  0  0  0
 11 13  1  0  0  0  0
 13 14  1  0  0  0  0
 13 15  1  6  0  0  0
 15 16  1  0  0  0  0
M  CHG  1   3  -1
M  END
>  <CHROM.1>
154.63661168,-173.75376589,57.19421731,1.35697547,20.31903112,28.33595972
-2.78189087,1.41030866,1.98148181

>  <Name>
ligand

>  <RI>
0

>  <Rbt.Current_Directory>
/home/itssahil/PROJECTS/Mol_Feturizer/New_Systems/rnas/3B4A

>  <Rbt.Executable>
rbdock ($Id: //depot/dev/client3/rdock/2013.1/src/exe/rbdock.cxx#4 $)

>  <Rbt.Library>
libRbt.so (2013.1, Build901 2013/11/27)

>  <Rbt.Parameter_File>
/export/apps/rDock/src/rDock_2013.1_src/data/scripts/dock_solv.prm

>  <Rbt.Receptor>
prm/blind_docking_40.prm

>  <SCORE>
-6.92308

>  <SCORE.INTER>
-7.69524

>  <SCORE.INTER.CONST>
1

>  <SCORE.INTER.POLAR>
0

>  <SCORE.INTER.ROT>
3

>  <SCORE.INTER.SOLV>
23.4899

>  <SCORE.INTER.VDW>
-18.5601

>  <SCORE.INTER.norm>
-0.480952

>  <SCORE.INTRA>
-0.340112

>  <SCORE.INTRA.DIHEDRAL>
0.14444

>  <SCORE.INTRA.DIHEDRAL.0>
2.05999

>  <SCORE.INTRA.POLAR>
0

>  <SCORE.INTRA.POLAR.0>
0

>  <SCORE.INTRA.REPUL>
4.28238e-05

>  <SCORE.INTRA.REPUL.0>
0

>  <SCORE.INTRA.SOLV>
-1.02114

>  <SCORE.INTRA.SOLV.lig_0>
-58.7001

>  <SCORE.INTRA.VDW>
0.098023

>  <SCORE.INTRA.VDW.0>
-0.401036

>  <SCORE.INTRA.norm>
-0.021257

>  <SCORE.RESTR>
1.11227

>  <SCORE.RESTR.CAVITY>
1.11227

>  <SCORE.RESTR.norm>
0.0695166

>  <SCORE.SYSTEM>
0

>  <SCORE.SYSTEM.CONST>
0

>  <SCORE.SYSTEM.DIHEDRAL>
0

>  <SCORE.SYSTEM.SOLV>
0

>  <SCORE.SYSTEM.norm>
0

>  <SCORE.heavy>
16

>  <SCORE.norm>
-0.432693

>  <RMSD>
55.210

$$$$
ligand
 OpenBabel11021811463D
libRbt.so/2013.1/901 2013/11/27
 16 16  0  0  0  0  0  0  0  0999 V2000
    0.7980   17.9816   26.4160 P   0  0  2  0  0  0  0  0  0  0  0  0
    1.9909   18.7047   25.9093 O   0  0  0  0  0  0  0  0  0  0  0  0
    1.2200   16.4776   26.8173 O   0  5  0  0  0  0  0  0  0  0  0  0
   -0.3254   17.9495   25.2523 O   0  0  0  0  0  0  0  0  0  0  0  0
    1.9178   22.3301   27.5478 C   0  0  2  0  0  0  0  0  0  0  0  0
    3.3558   22.2799   27.4074 O   0  0  0  0  0  0  0  0  0  0  0  0
    1.5094   23.1201   28.8250 C   0  0  2  0  0  0  0  0  0  0  0  0
    2.0607   24.4861   28.7574 N   0  0  0  0  0  0  0  0  0  0  0  0
    2.0688   22.3841   30.0623 C   0  0  1  0  0  0  0  0  0  0  0  0
    1.7008   23.0890   31.2599 O   0  0  0  0  0  0  0  0  0  0  0  0
    1.4577   20.9675   30.0768 C   0  0  2  0  0  0  0  0  0  0  0  0
    1.9634   20.2483   31.2144 O   0  0  0  0  0  0  0  0  0  0  0  0
    1.8777   20.2413   28.7619 C   0  0  2  0  0  0  0  0  0  0  0  0
    1.3866   20.9674   27.5959 O   0  0  0  0  0  0  0  0  0  0  0  0
    1.2836   18.8246   28.7031 C   0  0  0  0  0  0  0  0  0  0  0  0
    0.2325   18.7533   27.7236 O   0  0  0  0  0  0  0  0  0  0  0  0
  1  2  1  6  0  0  0
  1  3  1  0  0  0  0
  1  4  2  0  0  0  0
  1 16  1  0  0  0  0
  5  6  1  1  0  0  0
  5  7  1  0  0  0  0
  5 14  1  0  0  0  0
  7  8  1  6  0  0  0
  7  9  1  0  0  0  0
  9 10  1  1  0  0  0
  9 11  1  0  0  0  0
 11 12  1  1  0  0  0
 11 13  1  0  0  0  0
 13 14  1  0  0  0  0
 13 15  1  1  0  0  0
 15 16  1  0  0  0  0
M  CHG  1   3  -1
M  END
>  <CHROM.1>
108.27522346,104.51697783,-57.49265366,1.47144094,20.30574259,28.10689670
-2.58045696,1.33070932,1.58347793

>  <Name>
ligand

>  <RI>
0

>  <Rbt.Current_Directory>
/home/itssahil/PROJECTS/Mol_Feturizer/New_Systems/rnas/3B4A

>  <Rbt.Executable>
rbdock ($Id: //depot/dev/client3/rdock/2013.1/src/exe/rbdock.cxx#4 $)

>  <Rbt.Library>
libRbt.so (2013.1, Build901 2013/11/27)

>  <Rbt.Parameter_File>
/export/apps/rDock/src/rDock_2013.1_src/data/scripts/dock_solv.prm

>  <Rbt.Receptor>
prm/blind_docking_40.prm

>  <SCORE>
-1.04496

>  <SCORE.INTER>
-6.4527

>  <SCORE.INTER.CONST>
1

>  <SCORE.INTER.POLAR>
0

>  <SCORE.INTER.ROT>
3

>  <SCORE.INTER.SOLV>
26.4344

>  <SCORE.INTER.VDW>
-18.7133

>  <SCORE.INTER.norm>
-0.403294

>  <SCORE.INTRA>
4.20638

>  <SCORE.INTRA.DIHEDRAL>
8.83081

>  <SCORE.INTRA.DIHEDRAL.0>
2.05999

>  <SCORE.INTRA.POLAR>
0

>  <SCORE.INTRA.POLAR.0>
0

>  <SCORE.INTRA.REPUL>
0

>  <SCORE.INTRA.REPUL.0>
0

>  <SCORE.INTRA.SOLV>
-0.161468

>  <SCORE.INTRA.SOLV.lig_0>
-58.7001

>  <SCORE.INTRA.VDW>
-0.128291

>  <SCORE.INTRA.VDW.0>
-0.401036

>  <SCORE.INTRA.norm>
0.262899

>  <SCORE.RESTR>
1.20136

>  <SCORE.RESTR.CAVITY>
1.20136

>  <SCORE.RESTR.norm>
0.075085

>  <SCORE.SYSTEM>
0

>  <SCORE.SYSTEM.CONST>
0

>  <SCORE.SYSTEM.DIHEDRAL>
0

>  <SCORE.SYSTEM.SOLV>
0

>  <SCORE.SYSTEM.norm>
0

>  <SCORE.heavy>
16

>  <SCORE.norm>
-0.0653101

>  <RMSD>
55.234

$$$$
ligand
 OpenBabel11021811463D
libRbt.so/2013.1/901 2013/11/27
 16 16  0  0  0  0  0  0  0  0999 V2000
    0.5698   17.8233   26.4629 P   0  0  2  0  0  0  0  0  0  0  0  0
    1.7330   16.9500   26.1682 O   0  0  0  0  0  0  0  0  0  0  0  0
   -0.2363   17.2253   27.7253 O   0  5  0  0  0  0  0  0  0  0  0  0
   -0.3917   17.8675   25.1626 O   0  0  0  0  0  0  0  0  0  0  0  0
    1.6250   21.4458   31.1484 C   0  0  2  0  0  0  0  0  0  0  0  0
    0.1921   21.5458   31.3126 O   0  0  0  0  0  0  0  0  0  0  0  0
    2.2133   22.7654   30.5699 C   0  0  2  0  0  0  0  0  0  0  0  0
    1.8825   23.8880   31.4669 N   0  0  0  0  0  0  0  0  0  0  0  0
    1.6040   23.0078   29.1715 C   0  0  1  0  0  0  0  0  0  0  0  0
    2.1353   24.2192   28.6086 O   0  0  0  0  0  0  0  0  0  0  0  0
    1.9834   21.8044   28.2836 C   0  0  2  0  0  0  0  0  0  0  0  0
    1.4249   21.9924   26.9721 O   0  0  0  0  0  0  0  0  0  0  0  0
    1.3918   20.5146   28.9309 C   0  0  2  0  0  0  0  0  0  0  0  0
    1.9357   20.3173   30.2701 O   0  0  0  0  0  0  0  0  0  0  0  0
    1.7510   19.2701   28.1027 C   0  0  0  0  0  0  0  0  0  0  0  0
    1.1064   19.3104   26.8173 O   0  0  0  0  0  0  0  0  0  0  0  0
  1  2  1  6  0  0  0
  1  3  1  0  0  0  0
  1  4  2  0  0  0  0
  1 16  1  0  0  0  0
  5  6  1  6  0  0  0
  5  7  1  0  0  0  0
  5 14  1  0  0  0  0
  7  8  1  1  0  0  0
  7  9  1  0  0  0  0
  9 10  1  6  0  0  0
  9 11  1  0  0  0  0
 11 12  1  6  0  0  0
 11 13  1  0  0  0  0
 13 14  1  0  0  0  0
 13 15  1  6  0  0  0
 15 16  1  0  0  0  0
M  CHG  1   3  -1
M  END
>  <CHROM.1>
-66.34085489,-139.16269884,-70.91137327,1.22872982,20.36423178,28.36687799
2.35897747,-1.31733582,-1.72146182

>  <Name>
ligand

>  <RI>
0

>  <Rbt.Current_Directory>
/home/itssahil/PROJECTS/Mol_Feturizer/New_Systems/rnas/3B4A

>  <Rbt.Executable>
rbdock ($Id: //depot/dev/client3/rdock/2013.1/src/exe/rbdock.cxx#4 $)

>  <Rbt.Library>
libRbt.so (2013.1, Build901 2013/11/27)

>  <Rbt.Parameter_File>
/export/apps/rDock/src/rDock_2013.1_src/data/scripts/dock_solv.prm

>  <Rbt.Receptor>
prm/blind_docking_40.prm

>  <SCORE>
-0.436084

>  <SCORE.INTER>
-3.93275

>  <SCORE.INTER.CONST>
1

>  <SCORE.INTER.POLAR>
0

>  <SCORE.INTER.ROT>
3

>  <SCORE.INTER.SOLV>
27.8363

>  <SCORE.INTER.VDW>
-17.5006

>  <SCORE.INTER.norm>
-0.245797

>  <SCORE.INTRA>
1.61894

>  <SCORE.INTRA.DIHEDRAL>
3.80976

>  <SCORE.INTRA.DIHEDRAL.0>
2.05999

>  <SCORE.INTRA.POLAR>
0

>  <SCORE.INTRA.POLAR.0>
0

>  <SCORE.INTRA.REPUL>
0

>  <SCORE.INTRA.REPUL.0>
0

>  <SCORE.INTRA.SOLV>
-0.441394

>  <SCORE.INTRA.SOLV.lig_0>
-58.7001

>  <SCORE.INTRA.VDW>
-0.0652456

>  <SCORE.INTRA.VDW.0>
-0.401036

>  <SCORE.INTRA.norm>
0.101184

>  <SCORE.RESTR>
1.87773

>  <SCORE.RESTR.CAVITY>
1.87773

>  <SCORE.RESTR.norm>
0.117358

>  <SCORE.SYSTEM>
0

>  <SCORE.SYSTEM.CONST>
0

>  <SCORE.SYSTEM.DIHEDRAL>
0

>  <SCORE.SYSTEM.SOLV>
0

>  <SCORE.SYSTEM.norm>
0

>  <SCORE.heavy>
16

>  <SCORE.norm>
-0.0272553

>  <RMSD>
55.236

$$$$
ligand
 OpenBabel11021811463D
libRbt.so/2013.1/901 2013/11/27
 16 16  0  0  0  0  0  0  0  0999 V2000
    0.2192   17.7596   26.9078 P   0  0  2  0  0  0  0  0  0  0  0  0
   -0.9633   17.7773   26.0112 O   0  0  0  0  0  0  0  0  0  0  0  0
    1.5010   17.2290   26.0851 O   0  5  0  0  0  0  0  0  0  0  0  0
   -0.0858   16.7736   28.1536 O   0  0  0  0  0  0  0  0  0  0  0  0
    1.6320   23.0316   28.4780 C   0  0  2  0  0  0  0  0  0  0  0  0
    3.0398   23.3600   28.4595 O   0  0  0  0  0  0  0  0  0  0  0  0
    1.0712   23.0630   29.9294 C   0  0  2  0  0  0  0  0  0  0  0  0
    1.2882   24.3995   30.5133 N   0  0  0  0  0  0  0  0  0  0  0  0
    1.8059   21.9936   30.7672 C   0  0  1  0  0  0  0  0  0  0  0  0
    1.3029   21.9950   32.1139 O   0  0  0  0  0  0  0  0  0  0  0  0
    1.5417   20.6238   30.1083 C   0  0  2  0  0  0  0  0  0  0  0  0
    2.2187   19.6016   30.8593 O   0  0  0  0  0  0  0  0  0  0  0  0
    2.0984   20.6671   28.6520 C   0  0  2  0  0  0  0  0  0  0  0  0
    1.4334   21.7109   27.8798 O   0  0  0  0  0  0  0  0  0  0  0  0
    1.8495   19.3334   27.9289 C   0  0  0  0  0  0  0  0  0  0  0  0
    0.4995   19.2651   27.4366 O   0  0  0  0  0  0  0  0  0  0  0  0
  1  2  1  6  0  0  0
  1  3  1  0  0  0  0
  1  4  2  0  0  0  0
  1 16  1  0  0  0  0
  5  6  1  1  0  0  0
  5  7  1  0  0  0  0
  5 14  1  0  0  0  0
  7  8  1  1  0  0  0
  7  9  1  0  0  0  0
  9 10  1  1  0  0  0
  9 11  1  0  0  0  0
 11 12  1  1  0  0  0
 11 13  1  0  0  0  0
 13 14  1  0  0  0  0
 13 15  1  6  0  0  0
 15 16  1  0  0  0  0
M  CHG  1   3  -1
M  END
>  <CHROM.1>
80.56361359,-170.72316073,-161.55436401,1.19002918,20.27126796,28.60160412
-2.85064252,1.32516828,1.84121470

>  <Name>
ligand

>  <RI>
0

>  <Rbt.Current_Directory>
/home/itssahil/PROJECTS/Mol_Feturizer/New_Systems/rnas/3B4A

>  <Rbt.Executable>
rbdock ($Id: //depot/dev/client3/rdock/2013.1/src/exe/rbdock.cxx#4 $)

>  <Rbt.Library>
libRbt.so (2013.1, Build901 2013/11/27)

>  <Rbt.Parameter_File>
/export/apps/rDock/src/rDock_2013.1_src/data/scripts/dock_solv.prm

>  <Rbt.Receptor>
prm/blind_docking_40.prm

>  <SCORE>
-6.09316

>  <SCORE.INTER>
-7.4338

>  <SCORE.INTER.CONST>
1

>  <SCORE.INTER.POLAR>
0

>  <SCORE.INTER.ROT>
3

>  <SCORE.INTER.SOLV>
26.4936

>  <SCORE.INTER.VDW>
-19.3871

>  <SCORE.INTER.norm>
-0.464613

>  <SCORE.INTRA>
-0.0126964

>  <SCORE.INTRA.DIHEDRAL>
0.268623

>  <SCORE.INTRA.DIHEDRAL.0>
2.05999

>  <SCORE.INTRA.POLAR>
0

>  <SCORE.INTRA.POLAR.0>
0

>  <SCORE.INTRA.REPUL>
0

>  <SCORE.INTRA.REPUL.0>
0

>  <SCORE.INTRA.SOLV>
-0.162974

>  <SCORE.INTRA.SOLV.lig_0>
-58.7001

>  <SCORE.INTRA.VDW>
-0.0655208

>  <SCORE.INTRA.VDW.0>
-0.401036

>  <SCORE.INTRA.norm>
-0.000793526

>  <SCORE.RESTR>
1.35334

>  <SCORE.RESTR.CAVITY>
1.35334

>  <SCORE.RESTR.norm>
0.0845835

>  <SCORE.SYSTEM>
0

>  <SCORE.SYSTEM.CONST>
0

>  <SCORE.SYSTEM.DIHEDRAL>
0

>  <SCORE.SYSTEM.SOLV>
0

>  <SCORE.SYSTEM.norm>
0

>  <SCORE.heavy>
16

>  <SCORE.norm>
-0.380823

>  <RMSD>
55.243

$$$$
ligand
 OpenBabel11021811463D
libRbt.so/2013.1/901 2013/11/27
 16 16  0  0  0  0  0  0  0  0999 V2000
    0.1429   17.7378   27.0082 P   0  0  2  0  0  0  0  0  0  0  0  0
   -0.9690   17.7599   26.0255 O   0  0  0  0  0  0  0  0  0  0  0  0
    1.4621   17.1345   26.3033 O   0  5  0  0  0  0  0  0  0  0  0  0
   -0.2879   16.8108   28.2622 O   0  0  0  0  0  0  0  0  0  0  0  0
    1.6541   23.0456   28.4561 C   0  0  2  0  0  0  0  0  0  0  0  0
    3.0662   23.3549   28.4308 O   0  0  0  0  0  0  0  0  0  0  0  0
    1.1021   23.0792   29.9108 C   0  0  2  0  0  0  0  0  0  0  0  0
    1.3405   24.4104   30.4984 N   0  0  0  0  0  0  0  0  0  0  0  0
    1.8269   21.9968   30.7405 C   0  0  1  0  0  0  0  0  0  0  0  0
    1.3316   22.0000   32.0901 O   0  0  0  0  0  0  0  0  0  0  0  0
    1.5403   20.6331   30.0781 C   0  0  2  0  0  0  0  0  0  0  0  0
    2.2077   19.5991   30.8215 O   0  0  0  0  0  0  0  0  0  0  0  0
    2.0893   20.6744   28.6188 C   0  0  2  0  0  0  0  0  0  0  0  0
    1.4343   21.7300   27.8543 O   0  0  0  0  0  0  0  0  0  0  0  0
    1.8182   19.3468   27.8923 C   0  0  0  0  0  0  0  0  0  0  0  0
    0.4368   19.2525   27.5024 O   0  0  0  0  0  0  0  0  0  0  0  0
  1  2  1  6  0  0  0
  1  3  1  0  0  0  0
  1  4  2  0  0  0  0
  1 16  1  0  0  0  0
  5  6  1  1  0  0  0
  5  7  1  0  0  0  0
  5 14  1  0  0  0  0
  7  8  1  1  0  0  0
  7  9  1  0  0  0  0
  9 10  1  1  0  0  0
  9 11  1  0  0  0  0
 11 12  1  1  0  0  0
 11 13  1  0  0  0  0
 13 14  1  0  0  0  0
 13 15  1  6  0  0  0
 15 16  1  0  0  0  0
M  CHG  1   3  -1
M  END
>  <CHROM.1>
75.91347762,-169.14192206,-152.41377274,1.16830974,20.26802528,28.62280437
-2.83258873,1.30420704,1.79613603

>  <Name>
ligand

>  <RI>
0

>  <Rbt.Current_Directory>
/home/itssahil/PROJECTS/Mol_Feturizer/New_Systems/rnas/3B4A

>  <Rbt.Executable>
rbdock ($Id: //depot/dev/client3/rdock/2013.1/src/exe/rbdock.cxx#4 $)

>  <Rbt.Library>
libRbt.so (2013.1, Build901 2013/11/27)

>  <Rbt.Parameter_File>
/export/apps/rDock/src/rDock_2013.1_src/data/scripts/dock_solv.prm

>  <Rbt.Receptor>
prm/blind_docking_40.prm

>  <SCORE>
-6.12668

>  <SCORE.INTER>
-7.73935

>  <SCORE.INTER.CONST>
1

>  <SCORE.INTER.POLAR>
0

>  <SCORE.INTER.ROT>
3

>  <SCORE.INTER.SOLV>
27.0598

>  <SCORE.INTER.VDW>
-19.7795

>  <SCORE.INTER.norm>
-0.483709

>  <SCORE.INTRA>
0.287623

>  <SCORE.INTRA.DIHEDRAL>
0.425861

>  <SCORE.INTRA.DIHEDRAL.0>
2.05999

>  <SCORE.INTRA.POLAR>
0

>  <SCORE.INTRA.POLAR.0>
0

>  <SCORE.INTRA.REPUL>
0

>  <SCORE.INTRA.REPUL.0>
0

>  <SCORE.INTRA.SOLV>
-0.166358

>  <SCORE.INTRA.SOLV.lig_0>
-58.7001

>  <SCORE.INTRA.VDW>
0.157872

>  <SCORE.INTRA.VDW.0>
-0.401036

>  <SCORE.INTRA.norm>
0.0179764

>  <SCORE.RESTR>
1.32504

>  <SCORE.RESTR.CAVITY>
1.32504

>  <SCORE.RESTR.norm>
0.0828153

>  <SCORE.SYSTEM>
0

>  <SCORE.SYSTEM.CONST>
0

>  <SCORE.SYSTEM.DIHEDRAL>
0

>  <SCORE.SYSTEM.SOLV>
0

>  <SCORE.SYSTEM.norm>
0

>  <SCORE.heavy>
16

>  <SCORE.norm>
-0.382918

>  <RMSD>
55.253

$$$$
ligand
 OpenBabel11021811463D
libRbt.so/2013.1/901 2013/11/27
 16 16  0  0  0  0  0  0  0  0999 V2000
    0.7043   18.1081   26.3708 P   0  0  2  0  0  0  0  0  0  0  0  0
    1.4989   16.8551   26.4023 O   0  0  0  0  0  0  0  0  0  0  0  0
   -0.4753   17.9611   25.2808 O   0  5  0  0  0  0  0  0  0  0  0  0
    1.6800   19.3343   25.9686 O   0  0  0  0  0  0  0  0  0  0  0  0
    1.7904   21.8890   28.3057 C   0  0  2  0  0  0  0  0  0  0  0  0
    3.2309   21.8475   28.1899 O   0  0  0  0  0  0  0  0  0  0  0  0
    1.3584   22.4499   29.6916 C   0  0  2  0  0  0  0  0  0  0  0  0
    1.9212   23.8005   29.8744 N   0  0  0  0  0  0  0  0  0  0  0  0
    1.8832   21.5040   30.7940 C   0  0  1  0  0  0  0  0  0  0  0  0
    1.4927   21.9945   32.0877 O   0  0  0  0  0  0  0  0  0  0  0  0
    1.2614   20.1135   30.5488 C   0  0  2  0  0  0  0  0  0  0  0  0
    1.7351   19.2019   31.5548 O   0  0  0  0  0  0  0  0  0  0  0  0
    1.7065   19.6218   29.1371 C   0  0  2  0  0  0  0  0  0  0  0  0
    1.2481   20.5448   28.1048 O   0  0  0  0  0  0  0  0  0  0  0  0
    1.1033   18.2436   28.8202 C   0  0  0  0  0  0  0  0  0  0  0  0
    0.0602   18.3583   27.8362 O   0  0  0  0  0  0  0  0  0  0  0  0
  1  2  1  1  0  0  0
  1  3  1  0  0  0  0
  1  4  2  0  0  0  0
  1 16  1  0  0  0  0
  5  6  1  1  0  0  0
  5  7  1  0  0  0  0
  5 14  1  0  0  0  0
  7  8  1  1  0  0  0
  7  9  1  0  0  0  0
  9 10  1  1  0  0  0
  9 11  1  0  0  0  0
 11 12  1  1  0  0  0
 11 13  1  0  0  0  0
 13 14  1  0  0  0  0
 13 15  1  6  0  0  0
 15 16  1  0  0  0  0
M  CHG  1   3  -1
M  END
>  <CHROM.1>
107.35643773,93.63824318,50.27931675,1.33232310,19.92138218,28.47783587,-2.41636509
1.30896973,1.64878738

>  <Name>
ligand

>  <RI>
0

>  <Rbt.Current_Directory>
/home/itssahil/PROJECTS/Mol_Feturizer/New_Systems/rnas/3B4A

>  <Rbt.Executable>
rbdock ($Id: //depot/dev/client3/rdock/2013.1/src/exe/rbdock.cxx#4 $)

>  <Rbt.Library>
libRbt.so (2013.1, Build901 2013/11/27)

>  <Rbt.Parameter_File>
/export/apps/rDock/src/rDock_2013.1_src/data/scripts/dock_solv.prm

>  <Rbt.Receptor>
prm/blind_docking_40.prm

>  <SCORE>
-2.8879

>  <SCORE.INTER>
-9.259

>  <SCORE.INTER.CONST>
1

>  <SCORE.INTER.POLAR>
0

>  <SCORE.INTER.ROT>
3

>  <SCORE.INTER.SOLV>
22.8579

>  <SCORE.INTER.VDW>
-19.392

>  <SCORE.INTER.norm>
-0.578688

>  <SCORE.INTRA>
5.27445

>  <SCORE.INTRA.DIHEDRAL>
7.09807

>  <SCORE.INTRA.DIHEDRAL.0>
2.05999

>  <SCORE.INTRA.POLAR>
0

>  <SCORE.INTRA.POLAR.0>
0

>  <SCORE.INTRA.REPUL>
0

>  <SCORE.INTRA.REPUL.0>
0

>  <SCORE.INTRA.SOLV>
2.42207

>  <SCORE.INTRA.SOLV.lig_0>
-58.7001

>  <SCORE.INTRA.VDW>
0.514385

>  <SCORE.INTRA.VDW.0>
-0.401036

>  <SCORE.INTRA.norm>
0.329653

>  <SCORE.RESTR>
1.09665

>  <SCORE.RESTR.CAVITY>
1.09665

>  <SCORE.RESTR.norm>
0.0685406

>  <SCORE.SYSTEM>
0

>  <SCORE.SYSTEM.CONST>
0

>  <SCORE.SYSTEM.DIHEDRAL>
0

>  <SCORE.SYSTEM.SOLV>
0

>  <SCORE.SYSTEM.norm>
0

>  <SCORE.heavy>
16

>  <SCORE.norm>
-0.180494

>  <RMSD>
55.267

$$$$
ligand
 OpenBabel11021811463D
libRbt.so/2013.1/901 2013/11/27
 16 16  0  0  0  0  0  0  0  0999 V2000
    0.2007   17.7912   26.7762 P   0  0  2  0  0  0  0  0  0  0  0  0
   -0.3177   17.0512   27.9536 O   0  0  0  0  0  0  0  0  0  0  0  0
   -0.8899   17.7312   25.5896 O   0  5  0  0  0  0  0  0  0  0  0  0
    1.5822   17.1013   26.2937 O   0  0  0  0  0  0  0  0  0  0  0  0
    1.7894   23.1437   28.3543 C   0  0  2  0  0  0  0  0  0  0  0  0
    3.2091   23.3943   28.4646 O   0  0  0  0  0  0  0  0  0  0  0  0
    1.1293   23.0478   29.7604 C   0  0  2  0  0  0  0  0  0  0  0  0
    1.3676   24.2988   30.5036 N   0  0  0  0  0  0  0  0  0  0  0  0
    1.7513   21.8548   30.5189 C   0  0  1  0  0  0  0  0  0  0  0  0
    1.1547   21.7373   31.8215 O   0  0  0  0  0  0  0  0  0  0  0  0
    1.4697   20.5814   29.6944 C   0  0  2  0  0  0  0  0  0  0  0  0
    2.0426   19.4479   30.3684 O   0  0  0  0  0  0  0  0  0  0  0  0
    2.1296   20.7523   28.2916 C   0  0  2  0  0  0  0  0  0  0  0  0
    1.5713   21.9089   27.5999 O   0  0  0  0  0  0  0  0  0  0  0  0
    1.8696   19.5209   27.4086 C   0  0  0  0  0  0  0  0  0  0  0  0
    0.4589   19.3340   27.1979 O   0  0  0  0  0  0  0  0  0  0  0  0
  1  2  1  1  0  0  0
  1  3  1  0  0  0  0
  1  4  2  0  0  0  0
  1 16  1  0  0  0  0
  5  6  1  1  0  0  0
  5  7  1  0  0  0  0
  5 14  1  0  0  0  0
  7  8  1  1  0  0  0
  7  9  1  0  0  0  0
  9 10  1  1  0  0  0
  9 11  1  0  0  0  0
 11 12  1  1  0  0  0
 11 13  1  0  0  0  0
 13 14  1  0  0  0  0
 13 15  1  6  0  0  0
 15 16  1  0  0  0  0
M  CHG  1   3  -1
M  END
>  <CHROM.1>
60.96915526,-158.78686656,102.10223363,1.19093238,20.27962244,28.37951687
2.52397888,-1.26201523,-1.65315154

>  <Name>
ligand

>  <RI>
0

>  <Rbt.Current_Directory>
/home/itssahil/PROJECTS/Mol_Feturizer/New_Systems/rnas/3B4A

>  <Rbt.Executable>
rbdock ($Id: //depot/dev/client3/rdock/2013.1/src/exe/rbdock.cxx#4 $)

>  <Rbt.Library>
libRbt.so (2013.1, Build901 2013/11/27)

>  <Rbt.Parameter_File>
/export/apps/rDock/src/rDock_2013.1_src/data/scripts/dock_solv.prm

>  <Rbt.Receptor>
prm/blind_docking_40.prm

>  <SCORE>
-4.88857

>  <SCORE.INTER>
-7.44881

>  <SCORE.INTER.CONST>
1

>  <SCORE.INTER.POLAR>
0

>  <SCORE.INTER.ROT>
3

>  <SCORE.INTER.SOLV>
28.7184

>  <SCORE.INTER.VDW>
-20.1387

>  <SCORE.INTER.norm>
-0.465551

>  <SCORE.INTRA>
1.22285

>  <SCORE.INTRA.DIHEDRAL>
1.85798

>  <SCORE.INTRA.DIHEDRAL.0>
2.05999

>  <SCORE.INTRA.POLAR>
0

>  <SCORE.INTRA.POLAR.0>
0

>  <SCORE.INTRA.REPUL>
0

>  <SCORE.INTRA.REPUL.0>
0

>  <SCORE.INTRA.SOLV>
-0.313958

>  <SCORE.INTRA.SOLV.lig_0>
-58.7001

>  <SCORE.INTRA.VDW>
0.450836

>  <SCORE.INTRA.VDW.0>
-0.401036

>  <SCORE.INTRA.norm>
0.0764279

>  <SCORE.RESTR>
1.3374

>  <SCORE.RESTR.CAVITY>
1.3374

>  <SCORE.RESTR.norm>
0.0835874

>  <SCORE.SYSTEM>
0

>  <SCORE.SYSTEM.CONST>
0

>  <SCORE.SYSTEM.DIHEDRAL>
0

>  <SCORE.SYSTEM.SOLV>
0

>  <SCORE.SYSTEM.norm>
0

>  <SCORE.heavy>
16

>  <SCORE.norm>
-0.305536

>  <RMSD>
55.338

$$$$
ligand
 OpenBabel11021811463D
libRbt.so/2013.1/901 2013/11/27
 16 16  0  0  0  0  0  0  0  0999 V2000
    0.4494   17.8425   26.4330 P   0  0  2  0  0  0  0  0  0  0  0  0
    0.5894   16.8118   27.4916 O   0  0  0  0  0  0  0  0  0  0  0  0
   -1.0009   17.6999   25.7421 O   0  5  0  0  0  0  0  0  0  0  0  0
    1.6122   17.6188   25.3306 O   0  0  0  0  0  0  0  0  0  0  0  0
    1.7639   23.1933   28.3226 C   0  0  2  0  0  0  0  0  0  0  0  0
    3.1700   23.4784   28.5005 O   0  0  0  0  0  0  0  0  0  0  0  0
    1.0476   23.0414   29.6959 C   0  0  2  0  0  0  0  0  0  0  0  0
    1.2194   24.2774   30.4813 N   0  0  0  0  0  0  0  0  0  0  0  0
    1.6696   21.8449   30.4489 C   0  0  1  0  0  0  0  0  0  0  0  0
    1.0219   21.6759   31.7211 O   0  0  0  0  0  0  0  0  0  0  0  0
    1.4586   20.5876   29.5799 C   0  0  2  0  0  0  0  0  0  0  0  0
    2.0336   19.4516   30.2479 O   0  0  0  0  0  0  0  0  0  0  0  0
    2.1725   20.8144   28.2118 C   0  0  2  0  0  0  0  0  0  0  0  0
    1.6122   21.9744   27.5273 O   0  0  0  0  0  0  0  0  0  0  0  0
    1.9843   19.6012   27.2863 C   0  0  0  0  0  0  0  0  0  0  0  0
    0.5872   19.3093   27.1071 O   0  0  0  0  0  0  0  0  0  0  0  0
  1  2  1  1  0  0  0
  1  3  1  0  0  0  0
  1  4  2  0  0  0  0
  1 16  1  0  0  0  0
  5  6  1  1  0  0  0
  5  7  1  0  0  0  0
  5 14  1  0  0  0  0
  7  8  1  1  0  0  0
  7  9  1  0  0  0  0
  9 10  1  1  0  0  0
  9 11  1  0  0  0  0
 11 12  1  1  0  0  0
 11 13  1  0  0  0  0
 13 14  1  0  0  0  0
 13 15  1  6  0  0  0
 15 16  1  0  0  0  0
M  CHG  1   3  -1
M  END
>  <CHROM.1>
55.78575138,-166.63575300,80.84999534,1.26319775,20.31436866,28.20780123
2.31386452,-1.28134872,-1.81211985

>  <Name>
ligand

>  <RI>
0

>  <Rbt.Current_Directory>
/home/itssahil/PROJECTS/Mol_Feturizer/New_Systems/rnas/3B4A

>  <Rbt.Executable>
rbdock ($Id: //depot/dev/client3/rdock/2013.1/src/exe/rbdock.cxx#4 $)

>  <Rbt.Library>
libRbt.so (2013.1, Build901 2013/11/27)

>  <Rbt.Parameter_File>
/export/apps/rDock/src/rDock_2013.1_src/data/scripts/dock_solv.prm

>  <Rbt.Receptor>
prm/blind_docking_40.prm

>  <SCORE>
-4.77818

>  <SCORE.INTER>
-5.52238

>  <SCORE.INTER.CONST>
1

>  <SCORE.INTER.POLAR>
0

>  <SCORE.INTER.ROT>
3

>  <SCORE.INTER.SOLV>
26.3859

>  <SCORE.INTER.VDW>
-18.0769

>  <SCORE.INTER.norm>
-0.345149

>  <SCORE.INTRA>
-0.632384

>  <SCORE.INTRA.DIHEDRAL>
-0.501719

>  <SCORE.INTRA.DIHEDRAL.0>
2.05999

>  <SCORE.INTRA.POLAR>
0

>  <SCORE.INTRA.POLAR.0>
0

>  <SCORE.INTRA.REPUL>
0

>  <SCORE.INTRA.REPUL.0>
0

>  <SCORE.INTRA.SOLV>
-0.604556

>  <SCORE.INTRA.SOLV.lig_0>
-58.7001

>  <SCORE.INTRA.VDW>
-0.0792466

>  <SCORE.INTRA.VDW.0>
-0.401036

>  <SCORE.INTRA.norm>
-0.039524

>  <SCORE.RESTR>
1.37659

>  <SCORE.RESTR.CAVITY>
1.37659

>  <SCORE.RESTR.norm>
0.0860366

>  <SCORE.SYSTEM>
0

>  <SCORE.SYSTEM.CONST>
0

>  <SCORE.SYSTEM.DIHEDRAL>
0

>  <SCORE.SYSTEM.SOLV>
0

>  <SCORE.SYSTEM.norm>
0

>  <SCORE.heavy>
16

>  <SCORE.norm>
-0.298636

>  <RMSD>
55.346

$$$$
ligand
 OpenBabel11021811463D
libRbt.so/2013.1/901 2013/11/27
 16 16  0  0  0  0  0  0  0  0999 V2000
    0.2771   18.1021   26.1607 P   0  0  2  0  0  0  0  0  0  0  0  0
   -1.1034   17.5716   26.2849 O   0  0  0  0  0  0  0  0  0  0  0  0
    0.5049   18.6417   24.6580 O   0  5  0  0  0  0  0  0  0  0  0  0
    1.3240   16.9125   26.4864 O   0  0  0  0  0  0  0  0  0  0  0  0
    1.7240   23.1218   28.3640 C   0  0  2  0  0  0  0  0  0  0  0  0
    3.1391   23.4094   28.4340 O   0  0  0  0  0  0  0  0  0  0  0  0
    1.1023   23.0307   29.7878 C   0  0  2  0  0  0  0  0  0  0  0  0
    1.3275   24.2985   30.5064 N   0  0  0  0  0  0  0  0  0  0  0  0
    1.7733   21.8652   30.5473 C   0  0  1  0  0  0  0  0  0  0  0  0
    1.2131   21.7527   31.8664 O   0  0  0  0  0  0  0  0  0  0  0  0
    1.5033   20.5729   29.7490 C   0  0  2  0  0  0  0  0  0  0  0  0
    2.1217   19.4644   30.4244 O   0  0  0  0  0  0  0  0  0  0  0  0
    2.1230   20.7389   28.3273 C   0  0  2  0  0  0  0  0  0  0  0  0
    1.5182   21.8706   27.6335 O   0  0  0  0  0  0  0  0  0  0  0  0
    1.8720   19.4881   27.4693 C   0  0  0  0  0  0  0  0  0  0  0  0
    0.4669   19.3223   27.2096 O   0  0  0  0  0  0  0  0  0  0  0  0
  1  2  1  1  0  0  0
  1  3  1  0  0  0  0
  1  4  2  0  0  0  0
  1 16  1  0  0  0  0
  5  6  1  1  0  0  0
  5  7  1  0  0  0  0
  5 14  1  0  0  0  0
  7  8  1  1  0  0  0
  7  9  1  0  0  0  0
  9 10  1  1  0  0  0
  9 11  1  0  0  0  0
 11 12  1  1  0  0  0
 11 13  1  0  0  0  0
 13 14  1  0  0  0  0
 13 15  1  6  0  0  0
 15 16  1  0  0  0  0
M  CHG  1   3  -1
M  END
>  <CHROM.1>
65.50092649,173.24535226,157.99993691,1.21966168,20.39201733,28.16999677
-2.75207242,1.32577943,1.86880245

>  <Name>
ligand

>  <RI>
0

>  <Rbt.Current_Directory>
/home/itssahil/PROJECTS/Mol_Feturizer/New_Systems/rnas/3B4A

>  <Rbt.Executable>
rbdock ($Id: //depot/dev/client3/rdock/2013.1/src/exe/rbdock.cxx#4 $)

>  <Rbt.Library>
libRbt.so (2013.1, Build901 2013/11/27)

>  <Rbt.Parameter_File>
/export/apps/rDock/src/rDock_2013.1_src/data/scripts/dock_solv.prm

>  <Rbt.Receptor>
prm/blind_docking_40.prm

>  <SCORE>
-5.99414

>  <SCORE.INTER>
-6.6136

>  <SCORE.INTER.CONST>
1

>  <SCORE.INTER.POLAR>
0

>  <SCORE.INTER.ROT>
3

>  <SCORE.INTER.SOLV>
22.6555

>  <SCORE.INTER.VDW>
-17.5609

>  <SCORE.INTER.norm>
-0.41335

>  <SCORE.INTRA>
-0.734029

>  <SCORE.INTRA.DIHEDRAL>
-1.01333

>  <SCORE.INTRA.DIHEDRAL.0>
2.05999

>  <SCORE.INTRA.POLAR>
0

>  <SCORE.INTRA.POLAR.0>
0

>  <SCORE.INTRA.REPUL>
0

>  <SCORE.INTRA.REPUL.0>
0

>  <SCORE.INTRA.SOLV>
-0.220157

>  <SCORE.INTRA.SOLV.lig_0>
-58.7001

>  <SCORE.INTRA.VDW>
-0.117286

>  <SCORE.INTRA.VDW.0>
-0.401036

>  <SCORE.INTRA.norm>
-0.0458768

>  <SCORE.RESTR>
1.35349

>  <SCORE.RESTR.CAVITY>
1.35349

>  <SCORE.RESTR.norm>
0.0845929

>  <SCORE.SYSTEM>
0

>  <SCORE.SYSTEM.CONST>
0

>  <SCORE.SYSTEM.DIHEDRAL>
0

>  <SCORE.SYSTEM.SOLV>
0

>  <SCORE.SYSTEM.norm>
0

>  <SCORE.heavy>
16

>  <SCORE.norm>
-0.374634

>  <RMSD>
55.372

$$$$
ligand
 OpenBabel11021811463D
libRbt.so/2013.1/901 2013/11/27
 16 16  0  0  0  0  0  0  0  0999 V2000
    1.9389   17.5077   32.5863 P   0  0  2  0  0  0  0  0  0  0  0  0
    2.9051   18.0763   33.5587 O   0  0  0  0  0  0  0  0  0  0  0  0
    0.5019   17.3440   33.3001 O   0  5  0  0  0  0  0  0  0  0  0  0
    2.4810   16.0645   32.0958 O   0  0  0  0  0  0  0  0  0  0  0  0
    0.6245   17.8042   26.6667 C   0  0  2  0  0  0  0  0  0  0  0  0
    1.8949   17.1772   26.3780 O   0  0  0  0  0  0  0  0  0  0  0  0
    0.6595   19.3208   26.3192 C   0  0  2  0  0  0  0  0  0  0  0  0
    0.9980   19.4927   24.8945 N   0  0  0  0  0  0  0  0  0  0  0  0
    1.7244   20.0067   27.2029 C   0  0  1  0  0  0  0  0  0  0  0  0
    1.7745   21.4128   26.9079 O   0  0  0  0  0  0  0  0  0  0  0  0
    1.3158   19.7922   28.6752 C   0  0  2  0  0  0  0  0  0  0  0  0
    2.2914   20.4127   29.5298 O   0  0  0  0  0  0  0  0  0  0  0  0
    1.2705   18.2577   28.9505 C   0  0  2  0  0  0  0  0  0  0  0  0
    0.2966   17.6091   28.0795 O   0  0  0  0  0  0  0  0  0  0  0  0
    0.8492   17.9722   30.4013 C   0  0  0  0  0  0  0  0  0  0  0  0
    1.8065   18.5175   31.3263 O   0  0  0  0  0  0  0  0  0  0  0  0
  1  2  1  1  0  0  0
  1  3  1  0  0  0  0
  1  4  2  0  0  0  0
  1 16  1  0  0  0  0
  5  6  1  1  0  0  0
  5  7  1  0  0  0  0
  5 14  1  0  0  0  0
  7  8  1  6  0  0  0
  7  9  1  0  0  0  0
  9 10  1  6  0  0  0
  9 11  1  0  0  0  0
 11 12  1  1  0  0  0
 11 13  1  0  0  0  0
 13 14  1  0  0  0  0
 13 15  1  1  0  0  0
 15 16  1  0  0  0  0
M  CHG  1   3  -1
M  END
>  <CHROM.1>
-62.35881894,-143.70268365,-178.89167535,1.51529786,18.45440135,29.50178228
1.18550942,1.29076298,2.23026595

>  <Name>
ligand

>  <RI>
0

>  <Rbt.Current_Directory>
/home/itssahil/PROJECTS/Mol_Feturizer/New_Systems/rnas/3B4A

>  <Rbt.Executable>
rbdock ($Id: //depot/dev/client3/rdock/2013.1/src/exe/rbdock.cxx#4 $)

>  <Rbt.Library>
libRbt.so (2013.1, Build901 2013/11/27)

>  <Rbt.Parameter_File>
/export/apps/rDock/src/rDock_2013.1_src/data/scripts/dock_solv.prm

>  <Rbt.Receptor>
prm/blind_docking_60.prm

>  <SCORE>
-6.81337

>  <SCORE.INTER>
-8.04848

>  <SCORE.INTER.CONST>
1

>  <SCORE.INTER.POLAR>
0

>  <SCORE.INTER.ROT>
3

>  <SCORE.INTER.SOLV>
13.1305

>  <SCORE.INTER.VDW>
-15.3425

>  <SCORE.INTER.norm>
-0.50303

>  <SCORE.INTRA>
1.22779

>  <SCORE.INTRA.DIHEDRAL>
2.72953

>  <SCORE.INTRA.DIHEDRAL.0>
2.05999

>  <SCORE.INTRA.POLAR>
0

>  <SCORE.INTRA.POLAR.0>
0

>  <SCORE.INTRA.REPUL>
0

>  <SCORE.INTRA.REPUL.0>
0

>  <SCORE.INTRA.SOLV>
0.0536289

>  <SCORE.INTRA.SOLV.lig_0>
-58.7001

>  <SCORE.INTRA.VDW>
-0.163785

>  <SCORE.INTRA.VDW.0>
-0.401036

>  <SCORE.INTRA.norm>
0.076737

>  <SCORE.RESTR>
0.00731277

>  <SCORE.RESTR.CAVITY>
0.00731277

>  <SCORE.RESTR.norm>
0.000457048

>  <SCORE.SYSTEM>
0

>  <SCORE.SYSTEM.CONST>
0

>  <SCORE.SYSTEM.DIHEDRAL>
0

>  <SCORE.SYSTEM.SOLV>
0

>  <SCORE.SYSTEM.norm>
0

>  <SCORE.heavy>
16

>  <SCORE.norm>
-0.425836

>  <RMSD>
55.379

$$$$
ligand
 OpenBabel11021811463D
libRbt.so/2013.1/901 2013/11/27
 16 16  0  0  0  0  0  0  0  0999 V2000
    0.2729   18.0844   26.1692 P   0  0  2  0  0  0  0  0  0  0  0  0
   -1.1169   17.5750   26.2758 O   0  0  0  0  0  0  0  0  0  0  0  0
    0.5357   18.5981   24.6631 O   0  5  0  0  0  0  0  0  0  0  0  0
    1.2968   16.8854   26.5317 O   0  0  0  0  0  0  0  0  0  0  0  0
    1.7046   23.1196   28.3710 C   0  0  2  0  0  0  0  0  0  0  0  0
    3.1187   23.4120   28.4424 O   0  0  0  0  0  0  0  0  0  0  0  0
    1.0834   23.0190   29.7944 C   0  0  2  0  0  0  0  0  0  0  0  0
    1.3040   24.2839   30.5193 N   0  0  0  0  0  0  0  0  0  0  0  0
    1.7588   21.8522   30.5479 C   0  0  1  0  0  0  0  0  0  0  0  0
    1.1991   21.7309   31.8665 O   0  0  0  0  0  0  0  0  0  0  0  0
    1.4935   20.5629   29.7431 C   0  0  2  0  0  0  0  0  0  0  0  0
    2.1159   19.4533   30.4128 O   0  0  0  0  0  0  0  0  0  0  0  0
    2.1124   20.7384   28.3222 C   0  0  2  0  0  0  0  0  0  0  0  0
    1.5034   21.8714   27.6341 O   0  0  0  0  0  0  0  0  0  0  0  0
    1.8660   19.4911   27.4579 C   0  0  0  0  0  0  0  0  0  0  0  0
    0.4609   19.3174   27.2032 O   0  0  0  0  0  0  0  0  0  0  0  0
  1  2  1  1  0  0  0
  1  3  1  0  0  0  0
  1  4  2  0  0  0  0
  1 16  1  0  0  0  0
  5  6  1  1  0  0  0
  5  7  1  0  0  0  0
  5 14  1  0  0  0  0
  7  8  1  1  0  0  0
  7  9  1  0  0  0  0
  9 10  1  1  0  0  0
  9 11  1  0  0  0  0
 11 12  1  1  0  0  0
 11 13  1  0  0  0  0
 13 14  1  0  0  0  0
 13 15  1  6  0  0  0
 15 16  1  0  0  0  0
M  CHG  1   3  -1
M  END
>  <CHROM.1>
65.19917534,174.28264922,159.55180470,1.20921946,20.38080020,28.17334899
-2.74893134,1.32781024,1.86344391

>  <Name>
ligand

>  <RI>
0

>  <Rbt.Current_Directory>
/home/itssahil/PROJECTS/Mol_Feturizer/New_Systems/rnas/3B4A

>  <Rbt.Executable>
rbdock ($Id: //depot/dev/client3/rdock/2013.1/src/exe/rbdock.cxx#4 $)

>  <Rbt.Library>
libRbt.so (2013.1, Build901 2013/11/27)

>  <Rbt.Parameter_File>
/export/apps/rDock/src/rDock_2013.1_src/data/scripts/dock_solv.prm

>  <Rbt.Receptor>
prm/blind_docking_40.prm

>  <SCORE>
-5.98093

>  <SCORE.INTER>
-6.47772

>  <SCORE.INTER.CONST>
1

>  <SCORE.INTER.POLAR>
0

>  <SCORE.INTER.ROT>
3

>  <SCORE.INTER.SOLV>
22.6863

>  <SCORE.INTER.VDW>
-17.4806

>  <SCORE.INTER.norm>
-0.404857

>  <SCORE.INTRA>
-0.852903

>  <SCORE.INTRA.DIHEDRAL>
-1.17496

>  <SCORE.INTRA.DIHEDRAL.0>
2.05999

>  <SCORE.INTRA.POLAR>
0

>  <SCORE.INTRA.POLAR.0>
0

>  <SCORE.INTRA.REPUL>
0

>  <SCORE.INTRA.REPUL.0>
0

>  <SCORE.INTRA.SOLV>
-0.220362

>  <SCORE.INTRA.SOLV.lig_0>
-58.7001

>  <SCORE.INTRA.VDW>
-0.155242

>  <SCORE.INTRA.VDW.0>
-0.401036

>  <SCORE.INTRA.norm>
-0.0533065

>  <SCORE.RESTR>
1.34969

>  <SCORE.RESTR.CAVITY>
1.34969

>  <SCORE.RESTR.norm>
0.0843558

>  <SCORE.SYSTEM>
0

>  <SCORE.SYSTEM.CONST>
0

>  <SCORE.SYSTEM.DIHEDRAL>
0

>  <SCORE.SYSTEM.SOLV>
0

>  <SCORE.SYSTEM.norm>
0

>  <SCORE.heavy>
16

>  <SCORE.norm>
-0.373808

>  <RMSD>
55.383

$$$$
ligand
 OpenBabel11021811463D
libRbt.so/2013.1/901 2013/11/27
 16 16  0  0  0  0  0  0  0  0999 V2000
    1.6783   18.0100   32.6376 P   0  0  2  0  0  0  0  0  0  0  0  0
    2.8684   18.2980   33.4761 O   0  0  0  0  0  0  0  0  0  0  0  0
    0.3712   18.6480   33.3345 O   0  5  0  0  0  0  0  0  0  0  0  0
    1.5087   16.4065   32.5063 O   0  0  0  0  0  0  0  0  0  0  0  0
    0.6408   17.8469   26.5549 C   0  0  2  0  0  0  0  0  0  0  0  0
    1.9064   17.2068   26.2745 O   0  0  0  0  0  0  0  0  0  0  0  0
    0.6764   19.3510   26.1568 C   0  0  2  0  0  0  0  0  0  0  0  0
    1.0009   19.4744   24.7237 N   0  0  0  0  0  0  0  0  0  0  0  0
    1.7521   20.0627   27.0064 C   0  0  1  0  0  0  0  0  0  0  0  0
    1.8030   21.4580   26.6642 O   0  0  0  0  0  0  0  0  0  0  0  0
    1.3579   19.8985   28.4889 C   0  0  2  0  0  0  0  0  0  0  0  0
    2.3438   20.5442   29.3125 O   0  0  0  0  0  0  0  0  0  0  0  0
    1.3111   18.3742   28.8157 C   0  0  2  0  0  0  0  0  0  0  0  0
    0.3267   17.6999   27.9766 O   0  0  0  0  0  0  0  0  0  0  0  0
    0.9039   18.1385   30.2794 C   0  0  0  0  0  0  0  0  0  0  0  0
    1.8926   18.6751   31.1759 O   0  0  0  0  0  0  0  0  0  0  0  0
  1  2  1  1  0  0  0
  1  3  1  0  0  0  0
  1  4  2  0  0  0  0
  1 16  1  0  0  0  0
  5  6  1  1  0  0  0
  5  7  1  0  0  0  0
  5 14  1  0  0  0  0
  7  8  1  6  0  0  0
  7  9  1  0  0  0  0
  9 10  1  6  0  0  0
  9 11  1  0  0  0  0
 11 12  1  1  0  0  0
 11 13  1  0  0  0  0
 13 14  1  0  0  0  0
 13 15  1  1  0  0  0
 15 16  1  0  0  0  0
M  CHG  1   3  -1
M  END
>  <CHROM.1>
-64.13318271,-162.21209156,166.64218325,1.43482311,18.68988899,29.42200378
1.35043733,1.29591412,1.98558684

>  <Name>
ligand

>  <RI>
0

>  <Rbt.Current_Directory>
/home/itssahil/PROJECTS/Mol_Feturizer/New_Systems/rnas/3B4A

>  <Rbt.Executable>
rbdock ($Id: //depot/dev/client3/rdock/2013.1/src/exe/rbdock.cxx#4 $)

>  <Rbt.Library>
libRbt.so (2013.1, Build901 2013/11/27)

>  <Rbt.Parameter_File>
/export/apps/rDock/src/rDock_2013.1_src/data/scripts/dock_solv.prm

>  <Rbt.Receptor>
prm/blind_docking_60.prm

>  <SCORE>
-8.05731

>  <SCORE.INTER>
-7.95533

>  <SCORE.INTER.CONST>
1

>  <SCORE.INTER.POLAR>
0

>  <SCORE.INTER.ROT>
3

>  <SCORE.INTER.SOLV>
12.2947

>  <SCORE.INTER.VDW>
-15.0018

>  <SCORE.INTER.norm>
-0.497208

>  <SCORE.INTRA>
-0.27828

>  <SCORE.INTRA.DIHEDRAL>
-0.264215

>  <SCORE.INTRA.DIHEDRAL.0>
2.05999

>  <SCORE.INTRA.POLAR>
0

>  <SCORE.INTRA.POLAR.0>
0

>  <SCORE.INTRA.REPUL>
0

>  <SCORE.INTRA.REPUL.0>
0

>  <SCORE.INTRA.SOLV>
-0.125094

>  <SCORE.INTRA.SOLV.lig_0>
-58.7001

>  <SCORE.INTRA.VDW>
-0.0836255

>  <SCORE.INTRA.VDW.0>
-0.401036

>  <SCORE.INTRA.norm>
-0.0173925

>  <SCORE.RESTR>
0.176303

>  <SCORE.RESTR.CAVITY>
0.176303

>  <SCORE.RESTR.norm>
0.0110189

>  <SCORE.SYSTEM>
0

>  <SCORE.SYSTEM.CONST>
0

>  <SCORE.SYSTEM.DIHEDRAL>
0

>  <SCORE.SYSTEM.SOLV>
0

>  <SCORE.SYSTEM.norm>
0

>  <SCORE.heavy>
16

>  <SCORE.norm>
-0.503582

>  <RMSD>
55.418

$$$$
ligand
 OpenBabel11021811463D
libRbt.so/2013.1/901 2013/11/27
 16 16  0  0  0  0  0  0  0  0999 V2000
    1.3875   18.2036   32.9218 P   0  0  2  0  0  0  0  0  0  0  0  0
    0.6414   16.9249   33.0265 O   0  0  0  0  0  0  0  0  0  0  0  0
    2.6597   18.1582   33.9121 O   0  5  0  0  0  0  0  0  0  0  0  0
    0.4032   19.4173   33.3404 O   0  0  0  0  0  0  0  0  0  0  0  0
    0.5574   17.6805   26.7921 C   0  0  2  0  0  0  0  0  0  0  0  0
    1.8022   16.9904   26.5383 O   0  0  0  0  0  0  0  0  0  0  0  0
    0.6460   19.1705   26.3515 C   0  0  2  0  0  0  0  0  0  0  0  0
    0.9825   19.2418   24.9177 N   0  0  0  0  0  0  0  0  0  0  0  0
    1.7403   19.8697   27.1876 C   0  0  1  0  0  0  0  0  0  0  0  0
    1.8403   21.2521   26.8062 O   0  0  0  0  0  0  0  0  0  0  0  0
    1.3324   19.7615   28.6716 C   0  0  2  0  0  0  0  0  0  0  0  0
    2.3350   20.3970   29.4829 O   0  0  0  0  0  0  0  0  0  0  0  0
    1.2324   18.2495   29.0413 C   0  0  2  0  0  0  0  0  0  0  0  0
    0.2305   17.5850   28.2152 O   0  0  0  0  0  0  0  0  0  0  0  0
    0.8092   18.0697   30.5083 C   0  0  0  0  0  0  0  0  0  0  0  0
    1.8954   18.3915   31.3949 O   0  0  0  0  0  0  0  0  0  0  0  0
  1  2  1  1  0  0  0
  1  3  1  0  0  0  0
  1  4  2  0  0  0  0
  1 16  1  0  0  0  0
  5  6  1  1  0  0  0
  5  7  1  0  0  0  0
  5 14  1  0  0  0  0
  7  8  1  6  0  0  0
  7  9  1  0  0  0  0
  9 10  1  6  0  0  0
  9 11  1  0  0  0  0
 11 12  1  1  0  0  0
 11 13  1  0  0  0  0
 13 14  1  0  0  0  0
 13 15  1  1  0  0  0
 15 16  1  0  0  0  0
M  CHG  1   3  -1
M  END
>  <CHROM.1>
-73.66756410,179.25771418,45.20400579,1.30394339,18.66694593,29.65986919
1.48680745,1.26418804,1.78287348

>  <Name>
ligand

>  <RI>
0

>  <Rbt.Current_Directory>
/home/itssahil/PROJECTS/Mol_Feturizer/New_Systems/rnas/3B4A

>  <Rbt.Executable>
rbdock ($Id: //depot/dev/client3/rdock/2013.1/src/exe/rbdock.cxx#4 $)

>  <Rbt.Library>
libRbt.so (2013.1, Build901 2013/11/27)

>  <Rbt.Parameter_File>
/export/apps/rDock/src/rDock_2013.1_src/data/scripts/dock_solv.prm

>  <Rbt.Receptor>
prm/blind_docking_60.prm

>  <SCORE>
-7.3461

>  <SCORE.INTER>
-6.4612

>  <SCORE.INTER.CONST>
1

>  <SCORE.INTER.POLAR>
0

>  <SCORE.INTER.ROT>
3

>  <SCORE.INTER.SOLV>
14.7367

>  <SCORE.INTER.VDW>
-14.8197

>  <SCORE.INTER.norm>
-0.403825

>  <SCORE.INTRA>
-0.8849

>  <SCORE.INTRA.DIHEDRAL>
-1.06947

>  <SCORE.INTRA.DIHEDRAL.0>
2.05999

>  <SCORE.INTRA.POLAR>
0

>  <SCORE.INTRA.POLAR.0>
0

>  <SCORE.INTRA.REPUL>
0

>  <SCORE.INTRA.REPUL.0>
0

>  <SCORE.INTRA.SOLV>
-0.894965

>  <SCORE.INTRA.SOLV.lig_0>
-58.7001

>  <SCORE.INTRA.VDW>
0.0973188

>  <SCORE.INTRA.VDW.0>
-0.401036

>  <SCORE.INTRA.norm>
-0.0553063

>  <SCORE.RESTR>
0

>  <SCORE.RESTR.CAVITY>
0

>  <SCORE.RESTR.norm>
0

>  <SCORE.SYSTEM>
0

>  <SCORE.SYSTEM.CONST>
0

>  <SCORE.SYSTEM.DIHEDRAL>
0

>  <SCORE.SYSTEM.SOLV>
0

>  <SCORE.SYSTEM.norm>
0

>  <SCORE.heavy>
16

>  <SCORE.norm>
-0.459131

>  <RMSD>
55.433

$$$$
ligand
 OpenBabel11021811463D
libRbt.so/2013.1/901 2013/11/27
 16 16  0  0  0  0  0  0  0  0999 V2000
    0.3993   18.4282   25.8544 P   0  0  2  0  0  0  0  0  0  0  0  0
    0.7973   17.9763   24.4980 O   0  0  0  0  0  0  0  0  0  0  0  0
   -0.8875   17.5849   26.3383 O   0  5  0  0  0  0  0  0  0  0  0  0
    0.0377   20.0039   25.7937 O   0  0  0  0  0  0  0  0  0  0  0  0
    1.8985   22.1559   28.1035 C   0  0  2  0  0  0  0  0  0  0  0  0
    3.3413   22.1199   28.0188 O   0  0  0  0  0  0  0  0  0  0  0  0
    1.4338   22.5682   29.5304 C   0  0  2  0  0  0  0  0  0  0  0  0
    1.9951   23.8889   29.8696 N   0  0  0  0  0  0  0  0  0  0  0  0
    1.9292   21.5078   30.5381 C   0  0  1  0  0  0  0  0  0  0  0  0
    1.5081   21.8597   31.8668 O   0  0  0  0  0  0  0  0  0  0  0  0
    1.3104   20.1543   30.1312 C   0  0  2  0  0  0  0  0  0  0  0  0
    1.7571   19.1385   31.0455 O   0  0  0  0  0  0  0  0  0  0  0  0
    1.7889   19.8135   28.6864 C   0  0  2  0  0  0  0  0  0  0  0  0
    1.3582   20.8434   27.7474 O   0  0  0  0  0  0  0  0  0  0  0  0
    1.1905   18.4798   28.2099 C   0  0  0  0  0  0  0  0  0  0  0  0
    1.6308   18.1719   26.8755 O   0  0  0  0  0  0  0  0  0  0  0  0
  1  2  1  6  0  0  0
  1  3  1  0  0  0  0
  1  4  2  0  0  0  0
  1 16  1  0  0  0  0
  5  6  1  1  0  0  0
  5  7  1  0  0  0  0
  5 14  1  0  0  0  0
  7  8  1  1  0  0  0
  7  9  1  0  0  0  0
  9 10  1  1  0  0  0
  9 11  1  0  0  0  0
 11 12  1  1  0  0  0
 11 13  1  0  0  0  0
 13 14  1  0  0  0  0
 13 15  1  6  0  0  0
 15 16  1  0  0  0  0
M  CHG  1   3  -1
M  END
>  <CHROM.1>
179.80067804,-105.79393948,-174.01805129,1.26356309,20.11246013,28.09763515
-2.58437833,1.26492647,1.86879808

>  <Name>
ligand

>  <RI>
0

>  <Rbt.Current_Directory>
/home/itssahil/PROJECTS/Mol_Feturizer/New_Systems/rnas/3B4A

>  <Rbt.Executable>
rbdock ($Id: //depot/dev/client3/rdock/2013.1/src/exe/rbdock.cxx#4 $)

>  <Rbt.Library>
libRbt.so (2013.1, Build901 2013/11/27)

>  <Rbt.Parameter_File>
/export/apps/rDock/src/rDock_2013.1_src/data/scripts/dock_solv.prm

>  <Rbt.Receptor>
prm/blind_docking_40.prm

>  <SCORE>
-0.75405

>  <SCORE.INTER>
-5.26749

>  <SCORE.INTER.CONST>
1

>  <SCORE.INTER.POLAR>
0

>  <SCORE.INTER.ROT>
3

>  <SCORE.INTER.SOLV>
26.9841

>  <SCORE.INTER.VDW>
-18.1064

>  <SCORE.INTER.norm>
-0.329218

>  <SCORE.INTRA>
3.09982

>  <SCORE.INTRA.DIHEDRAL>
4.25026

>  <SCORE.INTRA.DIHEDRAL.0>
2.05999

>  <SCORE.INTRA.POLAR>
0

>  <SCORE.INTRA.POLAR.0>
0

>  <SCORE.INTRA.REPUL>
0

>  <SCORE.INTRA.REPUL.0>
0

>  <SCORE.INTRA.SOLV>
2.54251

>  <SCORE.INTRA.SOLV.lig_0>
-58.7001

>  <SCORE.INTRA.VDW>
-0.296568

>  <SCORE.INTRA.VDW.0>
-0.401036

>  <SCORE.INTRA.norm>
0.193738

>  <SCORE.RESTR>
1.41362

>  <SCORE.RESTR.CAVITY>
1.41362

>  <SCORE.RESTR.norm>
0.0883514

>  <SCORE.SYSTEM>
0

>  <SCORE.SYSTEM.CONST>
0

>  <SCORE.SYSTEM.DIHEDRAL>
0

>  <SCORE.SYSTEM.SOLV>
0

>  <SCORE.SYSTEM.norm>
0

>  <SCORE.heavy>
16

>  <SCORE.norm>
-0.0471281

>  <RMSD>
55.441

$$$$
ligand
 OpenBabel11021811463D
libRbt.so/2013.1/901 2013/11/27
 16 16  0  0  0  0  0  0  0  0999 V2000
    0.1668   17.8213   26.6140 P   0  0  2  0  0  0  0  0  0  0  0  0
    1.4165   17.1539   26.1722 O   0  0  0  0  0  0  0  0  0  0  0  0
   -0.3133   17.1767   28.0122 O   0  5  0  0  0  0  0  0  0  0  0  0
   -0.9695   17.6011   25.4837 O   0  0  0  0  0  0  0  0  0  0  0  0
    1.8644   23.1061   28.2955 C   0  0  2  0  0  0  0  0  0  0  0  0
    3.2852   23.2959   28.4841 O   0  0  0  0  0  0  0  0  0  0  0  0
    1.1425   22.9073   29.6598 C   0  0  2  0  0  0  0  0  0  0  0  0
    1.3880   24.0773   30.5230 N   0  0  0  0  0  0  0  0  0  0  0  0
    1.6941   21.6298   30.3301 C   0  0  1  0  0  0  0  0  0  0  0  0
    1.0394   21.4166   31.5921 O   0  0  0  0  0  0  0  0  0  0  0  0
    1.4081   20.4464   29.3825 C   0  0  2  0  0  0  0  0  0  0  0  0
    1.9161   19.2376   29.9722 O   0  0  0  0  0  0  0  0  0  0  0  0
    2.1320   20.7196   28.0282 C   0  0  2  0  0  0  0  0  0  0  0  0
    1.6400   21.9526   27.4235 O   0  0  0  0  0  0  0  0  0  0  0  0
    1.8713   19.5825   27.0269 C   0  0  0  0  0  0  0  0  0  0  0  0
    0.4596   19.4018   26.8177 O   0  0  0  0  0  0  0  0  0  0  0  0
  1  2  1  6  0  0  0
  1  3  1  0  0  0  0
  1  4  2  0  0  0  0
  1 16  1  0  0  0  0
  5  6  1  1  0  0  0
  5  7  1  0  0  0  0
  5 14  1  0  0  0  0
  7  8  1  1  0  0  0
  7  9  1  0  0  0  0
  9 10  1  1  0  0  0
  9 11  1  0  0  0  0
 11 12  1  1  0  0  0
 11 13  1  0  0  0  0
 13 14  1  0  0  0  0
 13 15  1  6  0  0  0
 15 16  1  0  0  0  0
M  CHG  1   3  -1
M  END
>  <CHROM.1>
56.85034806,-144.45319651,-22.32705421,1.16513826,20.21514661,28.20721330
2.38861407,-1.19958097,-1.79034340

>  <Name>
ligand

>  <RI>
0

>  <Rbt.Current_Directory>
/home/itssahil/PROJECTS/Mol_Feturizer/New_Systems/rnas/3B4A

>  <Rbt.Executable>
rbdock ($Id: //depot/dev/client3/rdock/2013.1/src/exe/rbdock.cxx#4 $)

>  <Rbt.Library>
libRbt.so (2013.1, Build901 2013/11/27)

>  <Rbt.Parameter_File>
/export/apps/rDock/src/rDock_2013.1_src/data/scripts/dock_solv.prm

>  <Rbt.Receptor>
prm/blind_docking_40.prm

>  <SCORE>
-1.94149

>  <SCORE.INTER>
-5.98202

>  <SCORE.INTER.CONST>
1

>  <SCORE.INTER.POLAR>
0

>  <SCORE.INTER.ROT>
3

>  <SCORE.INTER.SOLV>
28.5314

>  <SCORE.INTER.VDW>
-19.0985

>  <SCORE.INTER.norm>
-0.373877

>  <SCORE.INTRA>
3.12306

>  <SCORE.INTRA.DIHEDRAL>
4.2774

>  <SCORE.INTRA.DIHEDRAL.0>
2.05999

>  <SCORE.INTRA.POLAR>
0

>  <SCORE.INTRA.POLAR.0>
0

>  <SCORE.INTRA.REPUL>
0

>  <SCORE.INTRA.REPUL.0>
0

>  <SCORE.INTRA.SOLV>
0.245118

>  <SCORE.INTRA.SOLV.lig_0>
-58.7001

>  <SCORE.INTRA.VDW>
0.861796

>  <SCORE.INTRA.VDW.0>
-0.401036

>  <SCORE.INTRA.norm>
0.195191

>  <SCORE.RESTR>
0.917481

>  <SCORE.RESTR.CAVITY>
0.917481

>  <SCORE.RESTR.norm>
0.0573425

>  <SCORE.SYSTEM>
0

>  <SCORE.SYSTEM.CONST>
0

>  <SCORE.SYSTEM.DIHEDRAL>
0

>  <SCORE.SYSTEM.SOLV>
0

>  <SCORE.SYSTEM.norm>
0

>  <SCORE.heavy>
16

>  <SCORE.norm>
-0.121343

>  <RMSD>
55.452

$$$$
ligand
 OpenBabel11021811463D
libRbt.so/2013.1/901 2013/11/27
 16 16  0  0  0  0  0  0  0  0999 V2000
    0.2544   17.9752   26.0655 P   0  0  2  0  0  0  0  0  0  0  0  0
   -1.1519   17.5166   26.1855 O   0  0  0  0  0  0  0  0  0  0  0  0
    0.5993   18.2279   24.5104 O   0  5  0  0  0  0  0  0  0  0  0  0
    1.2285   16.8338   26.6702 O   0  0  0  0  0  0  0  0  0  0  0  0
    1.8730   23.1792   28.3310 C   0  0  2  0  0  0  0  0  0  0  0  0
    3.2979   23.3386   28.5166 O   0  0  0  0  0  0  0  0  0  0  0  0
    1.1593   22.9194   29.6894 C   0  0  2  0  0  0  0  0  0  0  0  0
    1.4289   24.0390   30.6103 N   0  0  0  0  0  0  0  0  0  0  0  0
    1.6976   21.6009   30.2872 C   0  0  1  0  0  0  0  0  0  0  0  0
    1.0501   21.3312   31.5420 O   0  0  0  0  0  0  0  0  0  0  0  0
    1.3866   20.4729   29.2815 C   0  0  2  0  0  0  0  0  0  0  0  0
    1.8817   19.2277   29.8028 O   0  0  0  0  0  0  0  0  0  0  0  0
    2.1035   20.8063   27.9370 C   0  0  2  0  0  0  0  0  0  0  0  0
    1.6247   22.0761   27.4020 O   0  0  0  0  0  0  0  0  0  0  0  0
    1.8181   19.7270   26.8801 C   0  0  0  0  0  0  0  0  0  0  0  0
    0.4276   19.3585   26.8910 O   0  0  0  0  0  0  0  0  0  0  0  0
  1  2  1  1  0  0  0
  1  3  1  0  0  0  0
  1  4  2  0  0  0  0
  1 16  1  0  0  0  0
  5  6  1  1  0  0  0
  5  7  1  0  0  0  0
  5 14  1  0  0  0  0
  7  8  1  1  0  0  0
  7  9  1  0  0  0  0
  9 10  1  1  0  0  0
  9 11  1  0  0  0  0
 11 12  1  1  0  0  0
 11 13  1  0  0  0  0
 13 14  1  0  0  0  0
 13 15  1  6  0  0  0
 15 16  1  0  0  0  0
M  CHG  1   3  -1
M  END
>  <CHROM.1>
43.65093618,-165.12226950,174.42474108,1.20481446,20.29150175,27.97306589
2.36758019,-1.23314582,-1.70231341

>  <Name>
ligand

>  <RI>
0

>  <Rbt.Current_Directory>
/home/itssahil/PROJECTS/Mol_Feturizer/New_Systems/rnas/3B4A

>  <Rbt.Executable>
rbdock ($Id: //depot/dev/client3/rdock/2013.1/src/exe/rbdock.cxx#4 $)

>  <Rbt.Library>
libRbt.so (2013.1, Build901 2013/11/27)

>  <Rbt.Parameter_File>
/export/apps/rDock/src/rDock_2013.1_src/data/scripts/dock_solv.prm

>  <Rbt.Receptor>
prm/blind_docking_40.prm

>  <SCORE>
-3.8297

>  <SCORE.INTER>
-4.63884

>  <SCORE.INTER.CONST>
1

>  <SCORE.INTER.POLAR>
0

>  <SCORE.INTER.ROT>
3

>  <SCORE.INTER.SOLV>
23.2926

>  <SCORE.INTER.VDW>
-16.4568

>  <SCORE.INTER.norm>
-0.289928

>  <SCORE.INTRA>
-0.174607

>  <SCORE.INTRA.DIHEDRAL>
-0.0641246

>  <SCORE.INTRA.DIHEDRAL.0>
2.05999

>  <SCORE.INTRA.POLAR>
0

>  <SCORE.INTRA.POLAR.0>
0

>  <SCORE.INTRA.REPUL>
0

>  <SCORE.INTRA.REPUL.0>
0

>  <SCORE.INTRA.SOLV>
0.309261

>  <SCORE.INTRA.SOLV.lig_0>
-58.7001

>  <SCORE.INTRA.VDW>
-0.297175

>  <SCORE.INTRA.VDW.0>
-0.401036

>  <SCORE.INTRA.norm>
-0.010913

>  <SCORE.RESTR>
0.983749

>  <SCORE.RESTR.CAVITY>
0.983749

>  <SCORE.RESTR.norm>
0.0614843

>  <SCORE.SYSTEM>
0

>  <SCORE.SYSTEM.CONST>
0

>  <SCORE.SYSTEM.DIHEDRAL>
0

>  <SCORE.SYSTEM.SOLV>
0

>  <SCORE.SYSTEM.norm>
0

>  <SCORE.heavy>
16

>  <SCORE.norm>
-0.239356

>  <RMSD>
55.501

$$$$
ligand
 OpenBabel11021811463D
libRbt.so/2013.1/901 2013/11/27
 16 16  0  0  0  0  0  0  0  0999 V2000
    1.3756   17.8752   32.8052 P   0  0  2  0  0  0  0  0  0  0  0  0
   -0.0958   17.7933   32.9803 O   0  0  0  0  0  0  0  0  0  0  0  0
    2.0133   16.4041   32.9793 O   0  5  0  0  0  0  0  0  0  0  0  0
    1.9789   18.8760   33.9240 O   0  0  0  0  0  0  0  0  0  0  0  0
    0.6930   17.5669   26.6420 C   0  0  2  0  0  0  0  0  0  0  0  0
    1.9993   17.0085   26.3741 O   0  0  0  0  0  0  0  0  0  0  0  0
    0.6525   19.0831   26.2933 C   0  0  2  0  0  0  0  0  0  0  0  0
    1.0038   19.2723   24.8738 N   0  0  0  0  0  0  0  0  0  0  0  0
    1.6653   19.8252   27.1928 C   0  0  1  0  0  0  0  0  0  0  0  0
    1.6450   21.2318   26.8969 O   0  0  0  0  0  0  0  0  0  0  0  0
    1.2455   19.5897   28.6587 C   0  0  2  0  0  0  0  0  0  0  0  0
    2.1730   20.2617   29.5277 O   0  0  0  0  0  0  0  0  0  0  0  0
    1.2777   18.0551   28.9352 C   0  0  2  0  0  0  0  0  0  0  0  0
    0.3537   17.3551   28.0497 O   0  0  0  0  0  0  0  0  0  0  0  0
    0.8494   17.7481   30.3795 C   0  0  0  0  0  0  0  0  0  0  0  0
    1.6970   18.4330   31.3185 O   0  0  0  0  0  0  0  0  0  0  0  0
  1  2  1  1  0  0  0
  1  3  1  0  0  0  0
  1  4  2  0  0  0  0
  1 16  1  0  0  0  0
  5  6  1  1  0  0  0
  5  7  1  0  0  0  0
  5 14  1  0  0  0  0
  7  8  1  6  0  0  0
  7  9  1  0  0  0  0
  9 10  1  6  0  0  0
  9 11  1  0  0  0  0
 11 12  1  1  0  0  0
 11 13  1  0  0  0  0
 13 14  1  0  0  0  0
 13 15  1  1  0  0  0
 15 16  1  0  0  0  0
M  CHG  1   3  -1
M  END
>  <CHROM.1>
-57.67568863,-170.10490944,-44.78974653,1.30447223,18.46756645,29.57703389
1.45918455,1.35745291,1.85752689

>  <Name>
ligand

>  <RI>
0

>  <Rbt.Current_Directory>
/home/itssahil/PROJECTS/Mol_Feturizer/New_Systems/rnas/3B4A

>  <Rbt.Executable>
rbdock ($Id: //depot/dev/client3/rdock/2013.1/src/exe/rbdock.cxx#4 $)

>  <Rbt.Library>
libRbt.so (2013.1, Build901 2013/11/27)

>  <Rbt.Parameter_File>
/export/apps/rDock/src/rDock_2013.1_src/data/scripts/dock_solv.prm

>  <Rbt.Receptor>
prm/blind_docking_60.prm

>  <SCORE>
-7.49956

>  <SCORE.INTER>
-6.99501

>  <SCORE.INTER.CONST>
1

>  <SCORE.INTER.POLAR>
0

>  <SCORE.INTER.ROT>
3

>  <SCORE.INTER.SOLV>
13.4873

>  <SCORE.INTER.VDW>
-14.7591

>  <SCORE.INTER.norm>
-0.437188

>  <SCORE.INTRA>
-0.530762

>  <SCORE.INTRA.DIHEDRAL>
-1.20372

>  <SCORE.INTRA.DIHEDRAL.0>
2.05999

>  <SCORE.INTRA.POLAR>
0

>  <SCORE.INTRA.POLAR.0>
0

>  <SCORE.INTRA.REPUL>
0

>  <SCORE.INTRA.REPUL.0>
0

>  <SCORE.INTRA.SOLV>
-0.783334

>  <SCORE.INTRA.SOLV.lig_0>
-58.7001

>  <SCORE.INTRA.VDW>
0.462768

>  <SCORE.INTRA.VDW.0>
-0.401036

>  <SCORE.INTRA.norm>
-0.0331726

>  <SCORE.RESTR>
0.026208

>  <SCORE.RESTR.CAVITY>
0.026208

>  <SCORE.RESTR.norm>
0.001638

>  <SCORE.SYSTEM>
0

>  <SCORE.SYSTEM.CONST>
0

>  <SCORE.SYSTEM.DIHEDRAL>
0

>  <SCORE.SYSTEM.SOLV>
0

>  <SCORE.SYSTEM.norm>
0

>  <SCORE.heavy>
16

>  <SCORE.norm>
-0.468723

>  <RMSD>
55.519

$$$$
ligand
 OpenBabel11021811463D
libRbt.so/2013.1/901 2013/11/27
 16 16  0  0  0  0  0  0  0  0999 V2000
    1.3741   17.8669   32.8023 P   0  0  2  0  0  0  0  0  0  0  0  0
   -0.0979   17.7802   32.9702 O   0  0  0  0  0  0  0  0  0  0  0  0
    2.0164   16.3990   32.9854 O   0  5  0  0  0  0  0  0  0  0  0  0
    1.9678   18.8744   33.9203 O   0  0  0  0  0  0  0  0  0  0  0  0
    0.6934   17.5659   26.6373 C   0  0  2  0  0  0  0  0  0  0  0  0
    1.9994   17.0088   26.3648 O   0  0  0  0  0  0  0  0  0  0  0  0
    0.6520   19.0834   26.2944 C   0  0  2  0  0  0  0  0  0  0  0  0
    1.0007   19.2782   24.8750 N   0  0  0  0  0  0  0  0  0  0  0  0
    1.6662   19.8223   27.1949 C   0  0  1  0  0  0  0  0  0  0  0  0
    1.6451   21.2300   26.9045 O   0  0  0  0  0  0  0  0  0  0  0  0
    1.2491   19.5811   28.6606 C   0  0  2  0  0  0  0  0  0  0  0  0
    2.1781   20.2500   29.5306 O   0  0  0  0  0  0  0  0  0  0  0  0
    1.2822   18.0454   28.9312 C   0  0  2  0  0  0  0  0  0  0  0  0
    0.3567   17.3487   28.0447 O   0  0  0  0  0  0  0  0  0  0  0  0
    0.8566   17.7329   30.3751 C   0  0  0  0  0  0  0  0  0  0  0  0
    1.7011   18.4202   31.3151 O   0  0  0  0  0  0  0  0  0  0  0  0
  1  2  1  1  0  0  0
  1  3  1  0  0  0  0
  1  4  2  0  0  0  0
  1 16  1  0  0  0  0
  5  6  1  1  0  0  0
  5  7  1  0  0  0  0
  5 14  1  0  0  0  0
  7  8  1  6  0  0  0
  7  9  1  0  0  0  0
  9 10  1  6  0  0  0
  9 11  1  0  0  0  0
 11 12  1  1  0  0  0
 11 13  1  0  0  0  0
 13 14  1  0  0  0  0
 13 15  1  1  0  0  0
 15 16  1  0  0  0  0
M  CHG  1   3  -1
M  END
>  <CHROM.1>
-57.35756341,-170.61883861,-44.52771492,1.30511394,18.46160385,29.57537211
1.46000596,1.35744038,1.85768741

>  <Name>
ligand

>  <RI>
0

>  <Rbt.Current_Directory>
/home/itssahil/PROJECTS/Mol_Feturizer/New_Systems/rnas/3B4A

>  <Rbt.Executable>
rbdock ($Id: //depot/dev/client3/rdock/2013.1/src/exe/rbdock.cxx#4 $)

>  <Rbt.Library>
libRbt.so (2013.1, Build901 2013/11/27)

>  <Rbt.Parameter_File>
/export/apps/rDock/src/rDock_2013.1_src/data/scripts/dock_solv.prm

>  <Rbt.Receptor>
prm/blind_docking_60.prm

>  <SCORE>
-7.49406

>  <SCORE.INTER>
-6.99279

>  <SCORE.INTER.CONST>
1

>  <SCORE.INTER.POLAR>
0

>  <SCORE.INTER.ROT>
3

>  <SCORE.INTER.SOLV>
13.481

>  <SCORE.INTER.VDW>
-14.7555

>  <SCORE.INTER.norm>
-0.43705

>  <SCORE.INTRA>
-0.527271

>  <SCORE.INTRA.DIHEDRAL>
-1.23292

>  <SCORE.INTRA.DIHEDRAL.0>
2.05999

>  <SCORE.INTRA.POLAR>
0

>  <SCORE.INTRA.POLAR.0>
0

>  <SCORE.INTRA.REPUL>
0

>  <SCORE.INTRA.REPUL.0>
0

>  <SCORE.INTRA.SOLV>
-0.782784

>  <SCORE.INTRA.SOLV.lig_0>
-58.7001

>  <SCORE.INTRA.VDW>
0.480581

>  <SCORE.INTRA.VDW.0>
-0.401036

>  <SCORE.INTRA.norm>
-0.0329545

>  <SCORE.RESTR>
0.0260097

>  <SCORE.RESTR.CAVITY>
0.0260097

>  <SCORE.RESTR.norm>
0.00162561

>  <SCORE.SYSTEM>
0

>  <SCORE.SYSTEM.CONST>
0

>  <SCORE.SYSTEM.DIHEDRAL>
0

>  <SCORE.SYSTEM.SOLV>
0

>  <SCORE.SYSTEM.norm>
0

>  <SCORE.heavy>
16

>  <SCORE.norm>
-0.468378

>  <RMSD>
55.521

$$$$
ligand
 OpenBabel11021811463D
libRbt.so/2013.1/901 2013/11/27
 16 16  0  0  0  0  0  0  0  0999 V2000
    1.4192   17.8937   32.5931 P   0  0  2  0  0  0  0  0  0  0  0  0
    1.5106   16.4144   32.5174 O   0  0  0  0  0  0  0  0  0  0  0  0
    2.5096   18.4393   33.6489 O   0  5  0  0  0  0  0  0  0  0  0  0
   -0.0704   18.3000   33.0760 O   0  0  0  0  0  0  0  0  0  0  0  0
    0.6409   17.7933   26.4452 C   0  0  2  0  0  0  0  0  0  0  0  0
    1.9190   17.1762   26.1701 O   0  0  0  0  0  0  0  0  0  0  0  0
    0.6719   19.3130   26.1108 C   0  0  2  0  0  0  0  0  0  0  0  0
    1.0304   19.4988   24.6927 N   0  0  0  0  0  0  0  0  0  0  0  0
    1.7196   19.9977   27.0158 C   0  0  1  0  0  0  0  0  0  0  0  0
    1.7658   21.4064   26.7332 O   0  0  0  0  0  0  0  0  0  0  0  0
    1.2907   19.7685   28.4800 C   0  0  2  0  0  0  0  0  0  0  0  0
    2.2499   20.3876   29.3540 O   0  0  0  0  0  0  0  0  0  0  0  0
    1.2504   18.2315   28.7420 C   0  0  2  0  0  0  0  0  0  0  0  0
    0.2933   17.5846   27.8513 O   0  0  0  0  0  0  0  0  0  0  0  0
    0.8095   17.9315   30.1840 C   0  0  0  0  0  0  0  0  0  0  0  0
    1.7252   18.5142   31.1281 O   0  0  0  0  0  0  0  0  0  0  0  0
  1  2  1  6  0  0  0
  1  3  1  0  0  0  0
  1  4  2  0  0  0  0
  1 16  1  0  0  0  0
  5  6  1  1  0  0  0
  5  7  1  0  0  0  0
  5 14  1  0  0  0  0
  7  8  1  6  0  0  0
  7  9  1  0  0  0  0
  9 10  1  6  0  0  0
  9 11  1  0  0  0  0
 11 12  1  1  0  0  0
 11 13  1  0  0  0  0
 13 14  1  0  0  0  0
 13 15  1  1  0  0  0
 15 16  1  0  0  0  0
M  CHG  1   3  -1
M  END
>  <CHROM.1>
-60.37294914,-167.12800545,56.03079014,1.31991480,18.59798654,29.38237073
1.48108840,1.29413180,1.86259114

>  <Name>
ligand

>  <RI>
0

>  <Rbt.Current_Directory>
/home/itssahil/PROJECTS/Mol_Feturizer/New_Systems/rnas/3B4A

>  <Rbt.Executable>
rbdock ($Id: //depot/dev/client3/rdock/2013.1/src/exe/rbdock.cxx#4 $)

>  <Rbt.Library>
libRbt.so (2013.1, Build901 2013/11/27)

>  <Rbt.Parameter_File>
/export/apps/rDock/src/rDock_2013.1_src/data/scripts/dock_solv.prm

>  <Rbt.Receptor>
prm/blind_docking_60.prm

>  <SCORE>
-7.96713

>  <SCORE.INTER>
-7.27916

>  <SCORE.INTER.CONST>
1

>  <SCORE.INTER.POLAR>
0

>  <SCORE.INTER.ROT>
3

>  <SCORE.INTER.SOLV>
13.713

>  <SCORE.INTER.VDW>
-15.0238

>  <SCORE.INTER.norm>
-0.454948

>  <SCORE.INTRA>
-0.896234

>  <SCORE.INTRA.DIHEDRAL>
-1.24431

>  <SCORE.INTRA.DIHEDRAL.0>
2.05999

>  <SCORE.INTRA.POLAR>
0

>  <SCORE.INTRA.POLAR.0>
0

>  <SCORE.INTRA.REPUL>
0

>  <SCORE.INTRA.REPUL.0>
0

>  <SCORE.INTRA.SOLV>
-0.813709

>  <SCORE.INTRA.SOLV.lig_0>
-58.7001

>  <SCORE.INTRA.VDW>
0.132776

>  <SCORE.INTRA.VDW.0>
-0.401036

>  <SCORE.INTRA.norm>
-0.0560146

>  <SCORE.RESTR>
0.208264

>  <SCORE.RESTR.CAVITY>
0.208264

>  <SCORE.RESTR.norm>
0.0130165

>  <SCORE.SYSTEM>
0

>  <SCORE.SYSTEM.CONST>
0

>  <SCORE.SYSTEM.DIHEDRAL>
0

>  <SCORE.SYSTEM.SOLV>
0

>  <SCORE.SYSTEM.norm>
0

>  <SCORE.heavy>
16

>  <SCORE.norm>
-0.497946

>  <RMSD>
55.554

$$$$
ligand
 OpenBabel11021811463D
libRbt.so/2013.1/901 2013/11/27
 16 16  0  0  0  0  0  0  0  0999 V2000
    1.0440   18.1751   32.5670 P   0  0  2  0  0  0  0  0  0  0  0  0
   -0.0994   19.1203   32.5263 O   0  0  0  0  0  0  0  0  0  0  0  0
    0.5011   16.7010   32.9324 O   0  5  0  0  0  0  0  0  0  0  0  0
    2.0927   18.6737   33.6934 O   0  0  0  0  0  0  0  0  0  0  0  0
    0.6696   17.6944   26.3985 C   0  0  2  0  0  0  0  0  0  0  0  0
    1.9732   17.1366   26.1165 O   0  0  0  0  0  0  0  0  0  0  0  0
    0.6469   19.2259   26.1227 C   0  0  2  0  0  0  0  0  0  0  0  0
    1.0141   19.4795   24.7173 N   0  0  0  0  0  0  0  0  0  0  0  0
    1.6576   19.9139   27.0664 C   0  0  1  0  0  0  0  0  0  0  0  0
    1.6536   21.3333   26.8382 O   0  0  0  0  0  0  0  0  0  0  0  0
    1.2211   19.6126   28.5152 C   0  0  2  0  0  0  0  0  0  0  0  0
    2.1463   20.2330   29.4243 O   0  0  0  0  0  0  0  0  0  0  0  0
    1.2361   18.0662   28.7179 C   0  0  2  0  0  0  0  0  0  0  0  0
    0.3143   17.4188   27.7911 O   0  0  0  0  0  0  0  0  0  0  0  0
    0.7906   17.6947   30.1417 C   0  0  0  0  0  0  0  0  0  0  0  0
    1.7532   18.1461   31.1106 O   0  0  0  0  0  0  0  0  0  0  0  0
  1  2  1  6  0  0  0
  1  3  1  0  0  0  0
  1  4  2  0  0  0  0
  1 16  1  0  0  0  0
  5  6  1  1  0  0  0
  5  7  1  0  0  0  0
  5 14  1  0  0  0  0
  7  8  1  6  0  0  0
  7  9  1  0  0  0  0
  9 10  1  1  0  0  0
  9 11  1  0  0  0  0
 11 12  1  1  0  0  0
 11 13  1  0  0  0  0
 13 14  1  0  0  0  0
 13 15  1  1  0  0  0
 15 16  1  0  0  0  0
M  CHG  1   3  -1
M  END
>  <CHROM.1>
-66.83177818,161.81570327,-60.82249597,1.16500928,18.62205625,29.37663336
-1.68285542,-1.33159568,-1.53489009

>  <Name>
ligand

>  <RI>
0

>  <Rbt.Current_Directory>
/home/itssahil/PROJECTS/Mol_Feturizer/New_Systems/rnas/3B4A

>  <Rbt.Executable>
rbdock ($Id: //depot/dev/client3/rdock/2013.1/src/exe/rbdock.cxx#4 $)

>  <Rbt.Library>
libRbt.so (2013.1, Build901 2013/11/27)

>  <Rbt.Parameter_File>
/export/apps/rDock/src/rDock_2013.1_src/data/scripts/dock_solv.prm

>  <Rbt.Receptor>
prm/blind_docking_60.prm

>  <SCORE>
-8.06987

>  <SCORE.INTER>
-7.92662

>  <SCORE.INTER.CONST>
1

>  <SCORE.INTER.POLAR>
0

>  <SCORE.INTER.ROT>
3

>  <SCORE.INTER.SOLV>
13.0695

>  <SCORE.INTER.VDW>
-15.2409

>  <SCORE.INTER.norm>
-0.495414

>  <SCORE.INTRA>
-0.648688

>  <SCORE.INTRA.DIHEDRAL>
-0.379287

>  <SCORE.INTRA.DIHEDRAL.0>
2.05999

>  <SCORE.INTRA.POLAR>
0

>  <SCORE.INTRA.POLAR.0>
0

>  <SCORE.INTRA.REPUL>
0

>  <SCORE.INTRA.REPUL.0>
0

>  <SCORE.INTRA.SOLV>
-0.50363

>  <SCORE.INTRA.SOLV.lig_0>
-58.7001

>  <SCORE.INTRA.VDW>
-0.20723

>  <SCORE.INTRA.VDW.0>
-0.401036

>  <SCORE.INTRA.norm>
-0.040543

>  <SCORE.RESTR>
0.50544

>  <SCORE.RESTR.CAVITY>
0.50544

>  <SCORE.RESTR.norm>
0.03159

>  <SCORE.SYSTEM>
0

>  <SCORE.SYSTEM.CONST>
0

>  <SCORE.SYSTEM.DIHEDRAL>
0

>  <SCORE.SYSTEM.SOLV>
0

>  <SCORE.SYSTEM.norm>
0

>  <SCORE.heavy>
16

>  <SCORE.norm>
-0.504367

>  <RMSD>
55.672

$$$$
ligand
 OpenBabel11021811463D
libRbt.so/2013.1/901 2013/11/27
 16 16  0  0  0  0  0  0  0  0999 V2000
    0.2508   18.3873   25.4982 P   0  0  2  0  0  0  0  0  0  0  0  0
   -0.9895   17.6516   25.8491 O   0  0  0  0  0  0  0  0  0  0  0  0
   -0.0004   19.9696   25.6836 O   0  5  0  0  0  0  0  0  0  0  0  0
    0.6311   18.0637   23.9594 O   0  0  0  0  0  0  0  0  0  0  0  0
    1.8506   21.6690   28.2944 C   0  0  2  0  0  0  0  0  0  0  0  0
    3.2894   21.5919   28.1755 O   0  0  0  0  0  0  0  0  0  0  0  0
    1.4237   21.8720   29.7772 C   0  0  2  0  0  0  0  0  0  0  0  0
    2.0431   23.1016   30.3050 N   0  0  0  0  0  0  0  0  0  0  0  0
    1.8901   20.6498   30.5983 C   0  0  1  0  0  0  0  0  0  0  0  0
    1.5029   20.8067   31.9738 O   0  0  0  0  0  0  0  0  0  0  0  0
    1.2109   19.4004   29.9998 C   0  0  2  0  0  0  0  0  0  0  0  0
    1.6290   18.2387   30.7365 O   0  0  0  0  0  0  0  0  0  0  0  0
    1.6543   19.2703   28.5101 C   0  0  2  0  0  0  0  0  0  0  0  0
    1.2523   20.4492   27.7508 O   0  0  0  0  0  0  0  0  0  0  0  0
    0.9953   18.0506   27.8454 C   0  0  0  0  0  0  0  0  0  0  0  0
    1.4425   17.9081   26.4856 O   0  0  0  0  0  0  0  0  0  0  0  0
  1  2  1  1  0  0  0
  1  3  1  0  0  0  0
  1  4  2  0  0  0  0
  1 16  1  0  0  0  0
  5  6  1  1  0  0  0
  5  7  1  0  0  0  0
  5 14  1  0  0  0  0
  7  8  1  1  0  0  0
  7  9  1  0  0  0  0
  9 10  1  1  0  0  0
  9 11  1  0  0  0  0
 11 12  1  1  0  0  0
 11 13  1  0  0  0  0
 13 14  1  0  0  0  0
 13 15  1  6  0  0  0
 15 16  1  0  0  0  0
M  CHG  1   3  -1
M  END
>  <CHROM.1>
-178.02344326,-105.13096558,-53.20315919,1.17017606,19.67582640,27.96798906
-2.55928887,1.24121553,2.00980204

>  <Name>
ligand

>  <RI>
0

>  <Rbt.Current_Directory>
/home/itssahil/PROJECTS/Mol_Feturizer/New_Systems/rnas/3B4A

>  <Rbt.Executable>
rbdock ($Id: //depot/dev/client3/rdock/2013.1/src/exe/rbdock.cxx#4 $)

>  <Rbt.Library>
libRbt.so (2013.1, Build901 2013/11/27)

>  <Rbt.Parameter_File>
/export/apps/rDock/src/rDock_2013.1_src/data/scripts/dock_solv.prm

>  <Rbt.Receptor>
prm/blind_docking_40.prm

>  <SCORE>
-3.62119

>  <SCORE.INTER>
-8.04614

>  <SCORE.INTER.CONST>
1

>  <SCORE.INTER.POLAR>
0

>  <SCORE.INTER.ROT>
3

>  <SCORE.INTER.SOLV>
22.2462

>  <SCORE.INTER.VDW>
-18.3795

>  <SCORE.INTER.norm>
-0.502883

>  <SCORE.INTRA>
3.03295

>  <SCORE.INTRA.DIHEDRAL>
4.1955

>  <SCORE.INTRA.DIHEDRAL.0>
2.05999

>  <SCORE.INTRA.POLAR>
0

>  <SCORE.INTRA.POLAR.0>
0

>  <SCORE.INTRA.REPUL>
0

>  <SCORE.INTRA.REPUL.0>
0

>  <SCORE.INTRA.SOLV>
1.67553

>  <SCORE.INTRA.SOLV.lig_0>
-58.7001

>  <SCORE.INTRA.VDW>
0.0974282

>  <SCORE.INTRA.VDW.0>
-0.401036

>  <SCORE.INTRA.norm>
0.189559

>  <SCORE.RESTR>
1.392

>  <SCORE.RESTR.CAVITY>
1.392

>  <SCORE.RESTR.norm>
0.0870002

>  <SCORE.SYSTEM>
0

>  <SCORE.SYSTEM.CONST>
0

>  <SCORE.SYSTEM.DIHEDRAL>
0

>  <SCORE.SYSTEM.SOLV>
0

>  <SCORE.SYSTEM.norm>
0

>  <SCORE.heavy>
16

>  <SCORE.norm>
-0.226324

>  <RMSD>
55.674

$$$$
ligand
 OpenBabel11021811463D
libRbt.so/2013.1/901 2013/11/27
 16 16  0  0  0  0  0  0  0  0999 V2000
    0.2789   18.4045   25.4753 P   0  0  2  0  0  0  0  0  0  0  0  0
    0.0004   19.8415   25.7207 O   0  0  0  0  0  0  0  0  0  0  0  0
    0.7583   18.2102   23.9477 O   0  5  0  0  0  0  0  0  0  0  0  0
   -1.0737   17.5582   25.7430 O   0  0  0  0  0  0  0  0  0  0  0  0
    1.8505   21.6803   28.3048 C   0  0  2  0  0  0  0  0  0  0  0  0
    3.2893   21.6022   28.1862 O   0  0  0  0  0  0  0  0  0  0  0  0
    1.4230   21.8743   29.7886 C   0  0  2  0  0  0  0  0  0  0  0  0
    2.0437   23.0998   30.3245 N   0  0  0  0  0  0  0  0  0  0  0  0
    1.8874   20.6464   30.6022 C   0  0  1  0  0  0  0  0  0  0  0  0
    1.4997   20.7950   31.9785 O   0  0  0  0  0  0  0  0  0  0  0  0
    1.2071   19.4017   29.9953 C   0  0  2  0  0  0  0  0  0  0  0  0
    1.6234   18.2348   30.7249 O   0  0  0  0  0  0  0  0  0  0  0  0
    1.6511   19.2805   28.5051 C   0  0  2  0  0  0  0  0  0  0  0  0
    1.2510   20.4647   27.7531 O   0  0  0  0  0  0  0  0  0  0  0  0
    0.9910   18.0659   27.8323 C   0  0  0  0  0  0  0  0  0  0  0  0
    1.4548   17.9190   26.4786 O   0  0  0  0  0  0  0  0  0  0  0  0
  1  2  1  1  0  0  0
  1  3  1  0  0  0  0
  1  4  2  0  0  0  0
  1 16  1  0  0  0  0
  5  6  1  1  0  0  0
  5  7  1  0  0  0  0
  5 14  1  0  0  0  0
  7  8  1  1  0  0  0
  7  9  1  0  0  0  0
  9 10  1  1  0  0  0
  9 11  1  0  0  0  0
 11 12  1  1  0  0  0
 11 13  1  0  0  0  0
 13 14  1  0  0  0  0
 13 15  1  6  0  0  0
 15 16  1  0  0  0  0
M  CHG  1   3  -1
M  END
>  <CHROM.1>
-177.11350329,-105.24755790,62.22234083,1.17577117,19.67639522,27.96119026
-2.49788192,1.22938640,1.94804356

>  <Name>
ligand

>  <RI>
0

>  <Rbt.Current_Directory>
/home/itssahil/PROJECTS/Mol_Feturizer/New_Systems/rnas/3B4A

>  <Rbt.Executable>
rbdock ($Id: //depot/dev/client3/rdock/2013.1/src/exe/rbdock.cxx#4 $)

>  <Rbt.Library>
libRbt.so (2013.1, Build901 2013/11/27)

>  <Rbt.Parameter_File>
/export/apps/rDock/src/rDock_2013.1_src/data/scripts/dock_solv.prm

>  <Rbt.Receptor>
prm/blind_docking_40.prm

>  <SCORE>
-3.02521

>  <SCORE.INTER>
-6.44226

>  <SCORE.INTER.CONST>
1

>  <SCORE.INTER.POLAR>
0

>  <SCORE.INTER.ROT>
3

>  <SCORE.INTER.SOLV>
25.6415

>  <SCORE.INTER.VDW>
-18.442

>  <SCORE.INTER.norm>
-0.402641

>  <SCORE.INTRA>
2.00497

>  <SCORE.INTRA.DIHEDRAL>
4.15992

>  <SCORE.INTRA.DIHEDRAL.0>
2.05999

>  <SCORE.INTRA.POLAR>
0

>  <SCORE.INTRA.POLAR.0>
0

>  <SCORE.INTRA.REPUL>
0

>  <SCORE.INTRA.REPUL.0>
0

>  <SCORE.INTRA.SOLV>
-0.110237

>  <SCORE.INTRA.SOLV.lig_0>
-58.7001

>  <SCORE.INTRA.VDW>
-0.0198697

>  <SCORE.INTRA.VDW.0>
-0.401036

>  <SCORE.INTRA.norm>
0.125311

>  <SCORE.RESTR>
1.41207

>  <SCORE.RESTR.CAVITY>
1.41207

>  <SCORE.RESTR.norm>
0.0882546

>  <SCORE.SYSTEM>
0

>  <SCORE.SYSTEM.CONST>
0

>  <SCORE.SYSTEM.DIHEDRAL>
0

>  <SCORE.SYSTEM.SOLV>
0

>  <SCORE.SYSTEM.norm>
0

>  <SCORE.heavy>
16

>  <SCORE.norm>
-0.189076

>  <RMSD>
55.677

$$$$
