@<TRIPOS>MOLECULE
3B4A_rdock.pdb
 3087 3450 0 0 0
SMALL
GASTEIGER

@<TRIPOS>ATOM
      1  C5'       44.6020   26.5210   63.2890 C.3    -2  A-2         0.0000
      2  O5'       45.3630   25.7830   64.2410 O.3    -2  A-2         0.0000
      3  C4'       43.4210   25.7160   62.8180 C.3    -2  A-2         0.0000
      4  O4'       43.8850   24.4500   62.2870 O.3    -2  A-2         0.0000
      5  C3'       42.4420   25.3350   63.9100 C.3    -2  A-2         0.0000
      6  O3'       41.5590   26.4220   64.2040 O.3    -2  A-2         0.0000
      7  C2'       41.8070   24.0400   63.4000 C.3    -2  A-2         0.0000
      8  O2'       40.6640   24.1970   62.5940 O.3    -2  A-2         0.0000
      9  C1'       42.9400   23.4330   62.5660 C.3    -2  A-2         0.0000
     10  N1        43.4880   18.3220   62.7340 N.ar   -2  A-2         0.0000
     11  C2        42.6990   19.1250   62.0010 C.ar   -2  A-2         0.0000
     12  N3        42.6060   20.4560   62.0100 N.ar   -2  A-2         0.0000
     13  C4        43.4570   20.9840   62.9080 C.ar   -2  A-2         0.0000
     14  C5        44.3310   20.2920   63.7350 C.ar   -2  A-2         0.0000
     15  C6        44.3340   18.8860   63.6300 C.ar   -2  A-2         0.0000
     16  N6        45.1220   18.0900   64.3640 N.pl3  -2  A-2         0.0000
     17  N7        45.0540   21.1720   64.5320 N.ar   -2  A-2         0.0000
     18  C8        44.6110   22.3570   64.1760 C.ar   -2  A-2         0.0000
     19  N9        43.6420   22.3160   63.1970 N.ar   -2  A-2         0.0000
     20  P         40.8210   27.2180   63.0110 P.3    -1  A-1         0.0000
     21  C5'       41.7690   28.9410   61.3060 C.3    -1  A-1         0.0000
     22  O5'       41.9180   28.2590   62.5330 O.3    -1  A-1         0.0000
     23  C4'       43.1100   29.1410   60.6630 C.3    -1  A-1         0.0000
     24  O4'       43.8220   27.8810   60.6200 O.3    -1  A-1         0.0000
     25  C3'       42.9190   29.5670   59.2180 C.3    -1  A-1         0.0000
     26  O3'       43.7750   30.6360   58.8960 O.3    -1  A-1         0.0000
     27  C2'       43.0700   28.3130   58.3770 C.3    -1  A-1         0.0000
     28  O2'       43.8020   28.5740   57.2060 O.3    -1  A-1         0.0000
     29  C1'       43.9350   27.4360   59.2840 C.3    -1  A-1         0.0000
     30  N1        46.1190   22.9020   58.3660 N.ar   -1  A-1         0.0000
     31  C2        46.5980   24.1580   58.3730 C.ar   -1  A-1         0.0000
     32  N3        45.9640   25.3010   58.6320 N.ar   -1  A-1         0.0000
     33  C4        44.6710   25.0680   58.9160 C.ar   -1  A-1         0.0000
     34  C5        44.0350   23.8420   58.9520 C.ar   -1  A-1         0.0000
     35  C6        44.8130   22.7080   58.6560 C.ar   -1  A-1         0.0000
     36  N6        44.3310   21.4620   58.6450 N.pl3  -1  A-1         0.0000
     37  N7        42.6960   23.9940   59.2840 N.ar   -1  A-1         0.0000
     38  C8        42.5570   25.2890   59.4380 C.ar   -1  A-1         0.0000
     39  N9        43.7090   25.9970   59.2250 N.ar   -1  A-1         0.0000
     40  OP1       39.6970   27.9970   63.5710 O.3    -1  A-1        -0.5000
     41  OP2       40.5750   26.3030   61.8790 O.co2  -1  A-1        -0.5000
     42  P         43.5990   31.4250   57.5200 P.3     1  G1          0.0000
     43  C5'       43.6930   33.5160   59.1370 C.3     1  G1          0.0000
     44  O5'       44.1110   32.8930   57.9070 O.3     1  G1          0.0000
     45  C4'       44.8650   33.6870   60.0810 C.3     1  G1          0.0000
     46  O4'       45.9570   34.2650   59.3510 O.3     1  G1          0.0000
     47  C3'       44.5490   34.6610   61.2090 C.3     1  G1          0.0000
     48  O3'       45.0600   34.2840   62.4820 O.3     1  G1          0.0000
     49  C2'       45.0930   36.0090   60.7610 C.3     1  G1          0.0000
     50  O2'       45.7090   36.6570   61.8540 O.3     1  G1          0.0000
     51  C1'       46.1810   35.5860   59.7740 C.3     1  G1          0.0000
     52  N1        49.5600   36.4840   56.1680 N.ar    1  G1          0.0000
     53  C2        49.5650   35.5530   57.1760 C.ar    1  G1          0.0000
     54  N2        50.6240   34.7440   57.2480 N.pl3   1  G1          0.0000
     55  N3        48.5930   35.4180   58.0580 N.ar    1  G1          0.0000
     56  C4        47.5930   36.2990   57.8500 C.ar    1  G1          0.0000
     57  C5        47.4810   37.2560   56.8790 C.ar    1  G1          0.0000
     58  C6        48.5400   37.3950   55.9340 C.ar    1  G1          0.0000
     59  O6        48.6360   38.1870   54.9920 O.2     1  G1          0.0000
     60  N7        46.2830   37.9450   57.0080 N.ar    1  G1          0.0000
     61  C8        45.7070   37.3990   58.0440 C.ar    1  G1          0.0000
     62  N9        46.4590   36.4020   58.6020 N.ar    1  G1          0.0000
     63  OP1       42.1540   31.4810   57.1940 O.3     1  G1         -0.5000
     64  OP2       44.5410   30.8370   56.5490 O.co2   1  G1         -0.5000
     65  P         44.3660   33.1200   63.3150 P.3     2  C2          0.0000
     66  C5'       46.4170   31.6040   62.7970 C.3     2  C2          0.0000
     67  O5'       45.0160   31.8050   62.7030 O.3     2  C2          0.0000
     68  C4'       46.7500   30.1340   62.7320 C.3     2  C2          0.0000
     69  O4'       46.4130   29.6250   61.4130 O.3     2  C2          0.0000
     70  C3'       48.2350   29.8550   62.8800 C.3     2  C2          0.0000
     71  O3'       48.5750   29.6960   64.2490 O.3     2  C2          0.0000
     72  C2'       48.3980   28.5590   62.1130 C.3     2  C2          0.0000
     73  O2'       47.9250   27.4780   62.8820 O.3     2  C2          0.0000
     74  C1'       47.4660   28.8070   60.9300 C.3     2  C2          0.0000
     75  N1        48.1050   29.5220   59.8160 N.ar    2  C2          0.0000
     76  C2        49.0870   28.8780   59.0680 C.ar    2  C2          0.0000
     77  O2        49.3930   27.7170   59.3630 O.2     2  C2          0.0000
     78  N3        49.6810   29.5380   58.0390 N.ar    2  C2          0.0000
     79  C4        49.3170   30.7900   57.7570 C.ar    2  C2          0.0000
     80  N4        49.9190   31.4100   56.7410 N.pl3   2  C2          0.0000
     81  C5        48.3160   31.4680   58.5050 C.ar    2  C2          0.0000
     82  C6        47.7420   30.8040   59.5160 C.ar    2  C2          0.0000
     83  OP1       42.9120   33.1770   63.0360 O.2     2  C2          0.0000
     84  OP2       44.8530   33.2100   64.7090 O.co2   2  C2         -1.0000
     85  P         50.1010   29.8560   64.7040 P.3     3  G3          0.0000
     86  C5'       50.7110   27.2960   64.6810 C.3     3  G3          0.0000
     87  O5'       50.8280   28.5850   64.0840 O.3     3  G3          0.0000
     88  C4'       51.7100   26.3540   64.0560 C.3     3  G3          0.0000
     89  O4'       51.4260   26.2590   62.6330 O.3     3  G3          0.0000
     90  C3'       53.1560   26.8200   64.1060 C.3     3  G3          0.0000
     91  O3'       53.7850   26.4590   65.3250 O.3     3  G3          0.0000
     92  C2'       53.7700   26.0730   62.9370 C.3     3  G3          0.0000
     93  O2'       54.0440   24.7320   63.2600 O.3     3  G3          0.0000
     94  C1'       52.6400   26.1470   61.9100 C.3     3  G3          0.0000
     95  N1        55.2310   28.2100   58.0900 N.ar    3  G3          0.0000
     96  C2        55.3820   26.9870   58.6890 C.ar    3  G3          0.0000
     97  N2        56.3630   26.2050   58.2100 N.pl3   3  G3          0.0000
     98  N3        54.6300   26.5580   59.6830 N.ar    3  G3          0.0000
     99  C4        53.6970   27.4650   60.0400 C.ar    3  G3          0.0000
    100  C5        53.4630   28.7090   59.5100 C.ar    3  G3          0.0000
    101  C6        54.2790   29.1580   58.4370 C.ar    3  G3          0.0000
    102  O6        54.2290   30.2290   57.8200 O.2     3  G3          0.0000
    103  N7        52.4060   29.3300   60.1630 N.ar    3  G3          0.0000
    104  C8        52.0270   28.4660   61.0590 C.ar    3  G3          0.0000
    105  N9        52.7720   27.3120   61.0410 N.ar    3  G3          0.0000
    106  OP1       50.1780   29.7420   66.1820 O.3     3  G3         -0.5000
    107  OP2       50.6400   31.0610   64.0210 O.co2   3  G3         -0.5000
    108  P         55.0380   27.3170   65.8550 P.3     4  C4          0.0000
    109  C5'       56.7580   25.5530   64.9570 C.3     4  C4          0.0000
    110  O5'       56.2410   26.8750   64.9110 O.3     4  C4          0.0000
    111  C4'       57.8130   25.3730   63.8950 C.3     4  C4          0.0000
    112  O4'       57.2190   25.6420   62.5990 O.3     4  C4          0.0000
    113  C3'       59.0040   26.3180   63.9680 C.3     4  C4          0.0000
    114  O3'       59.9950   25.7920   64.8500 O.3     4  C4          0.0000
    115  C2'       59.4960   26.3150   62.5260 C.3     4  C4          0.0000
    116  O2'       60.2750   25.1740   62.2140 O.3     4  C4          0.0000
    117  C1'       58.1790   26.2430   61.7530 C.3     4  C4          0.0000
    118  N1        57.6710   27.5530   61.3460 N.ar    4  C4          0.0000
    119  C2        58.2310   28.1660   60.2320 C.ar    4  C4          0.0000
    120  O2        59.1450   27.5860   59.6310 O.2     4  C4          0.0000
    121  N3        57.7650   29.3710   59.8340 N.ar    4  C4          0.0000
    122  C4        56.7790   29.9560   60.5100 C.ar    4  C4          0.0000
    123  N4        56.3460   31.1390   60.0840 N.pl3   4  C4          0.0000
    124  C5        56.1910   29.3520   61.6560 C.ar    4  C4          0.0000
    125  C6        56.6640   28.1630   62.0360 C.ar    4  C4          0.0000
    126  OP1       55.3710   26.8900   67.2440 O.3     4  C4         -0.5000
    127  OP2       54.7360   28.7450   65.5720 O.co2   4  C4         -0.5000
    128  P         61.0770   26.7740   65.5310 P.3     5  C5          0.0000
    129  C5'       62.8050   26.7300   63.5480 C.3     5  C5          0.0000
    130  O5'       61.8360   27.4420   64.3010 O.3     5  C5          0.0000
    131  C4'       63.5450   27.6850   62.6480 C.3     5  C5          0.0000
    132  O4'       62.6300   28.2370   61.6690 O.3     5  C5          0.0000
    133  C3'       64.1160   28.9050   63.3480 C.3     5  C5          0.0000
    134  O3'       65.3530   28.5890   63.9990 O.3     5  C5          0.0000
    135  C2'       64.1990   29.9550   62.2460 C.3     5  C5          0.0000
    136  O2'       65.4180   29.9360   61.5360 O.3     5  C5          0.0000
    137  C1'       63.0430   29.5470   61.3230 C.3     5  C5          0.0000
    138  N1        61.8730   30.4400   61.3450 N.ar    5  C5          0.0000
    139  C2        61.8410   31.5290   60.4630 C.ar    5  C5          0.0000
    140  O2        62.7940   31.7090   59.6910 O.2     5  C5          0.0000
    141  N3        60.7730   32.3550   60.4740 N.ar    5  C5          0.0000
    142  C4        59.7640   32.1280   61.3140 C.ar    5  C5          0.0000
    143  N4        58.7370   32.9650   61.2910 N.pl3   5  C5          0.0000
    144  C5        59.7680   31.0290   62.2180 C.ar    5  C5          0.0000
    145  C6        60.8320   30.2180   62.2010 C.ar    5  C5          0.0000
    146  OP1       62.0480   25.9290   66.2730 O.3     5  C5         -0.5000
    147  OP2       60.3550   27.8600   66.2450 O.co2   5  C5         -0.5000
    148  P         66.6380   28.0930   63.1450 P.3     6  U6          0.0000
    149  C5'       68.9930   29.2580   63.1060 C.3     6  U6          0.0000
    150  O5'       67.5730   29.3840   63.0460 O.3     6  U6          0.0000
    151  C4'       69.6150   29.7130   61.8070 C.3     6  U6          0.0000
    152  O4'       68.9740   29.0030   60.7090 O.3     6  U6          0.0000
    153  C3'       69.4160   31.1820   61.4670 C.3     6  U6          0.0000
    154  O3'       70.4210   31.9910   62.0730 O.3     6  U6          0.0000
    155  C2'       69.5450   31.1790   59.9500 C.3     6  U6          0.0000
    156  O2'       70.8900   31.1320   59.5230 O.3     6  U6          0.0000
    157  C1'       68.8480   29.8650   59.5900 C.3     6  U6          0.0000
    158  OP1       66.2330   27.6860   61.7690 O.2     6  U6         -0.5000
    159  OP2       67.3400   27.1070   64.0110 O.co2   6  U6         -0.5000
    160  P         70.0670   33.4960   62.5140 P.3     7  G7          0.0000
    161  C5'       70.8630   34.3480   60.1610 C.3     7  G7          0.0000
    162  O5'       69.8260   34.2590   61.1350 O.3     7  G7          0.0000
    163  C4'       70.5090   35.3660   59.1040 C.3     7  G7          0.0000
    164  O4'       69.3700   34.8970   58.3340 O.3     7  G7          0.0000
    165  C3'       70.0810   36.7260   59.6260 C.3     7  G7          0.0000
    166  O3'       71.1950   37.5570   59.8860 O.3     7  G7          0.0000
    167  C2'       69.2550   37.2590   58.4680 C.3     7  G7          0.0000
    168  O2'       70.0610   37.7530   57.4250 O.3     7  G7          0.0000
    169  C1'       68.5280   35.9930   58.0130 C.3     7  G7          0.0000
    170  N1        63.8600   37.8370   58.7700 N.ar    7  G7          0.0000
    171  C2        64.8600   38.3020   57.9570 C.ar    7  G7          0.0000
    172  N2        64.5820   39.4060   57.2520 N.pl3   7  G7          0.0000
    173  N3        66.0450   37.7290   57.8410 N.ar    7  G7          0.0000
    174  C4        66.1540   36.6300   58.6170 C.ar    7  G7          0.0000
    175  C5        65.2200   36.0820   59.4660 C.ar    7  G7          0.0000
    176  C6        63.9490   36.7130   59.5800 C.ar    7  G7          0.0000
    177  O6        62.9860   36.3850   60.2740 O.2     7  G7          0.0000
    178  N7        65.7250   34.9460   60.0890 N.ar    7  G7          0.0000
    179  C8        66.9330   34.8260   59.6130 C.ar    7  G7          0.0000
    180  N9        67.2600   35.8170   58.7160 N.ar    7  G7          0.0000
    181  OP1       71.2680   34.0790   63.1700 O.2     7  G7         -0.5000
    182  OP2       68.7790   33.4540   63.2490 O.co2   7  G7         -0.5000
    183  P         71.1360   38.6020   61.1030 P.3     8  G8          0.0000
    184  C5'       70.0310   40.4800   59.6560 C.3     8  G8          0.0000
    185  O5'       69.9260   39.5670   60.7400 O.3     8  G8          0.0000
    186  C4'       68.7480   41.2540   59.5020 C.3     8  G8          0.0000
    187  O4'       67.6630   40.3390   59.1840 O.3     8  G8          0.0000
    188  C3'       68.2890   41.9600   60.7600 C.3     8  G8          0.0000
    189  O3'       68.8990   43.2280   60.8650 O.3     8  G8          0.0000
    190  C2'       66.7960   42.0830   60.5210 C.3     8  G8          0.0000
    191  O2'       66.5020   43.1220   59.6170 O.3     8  G8          0.0000
    192  C1'       66.4910   40.7320   59.8760 C.3     8  G8          0.0000
    193  N1        63.0160   38.8350   63.0520 N.ar    8  G8          0.0000
    194  C2        62.9350   39.9310   62.2320 C.ar    8  G8          0.0000
    195  N2        61.7800   40.6020   62.2510 N.pl3   8  G8          0.0000
    196  N3        63.9150   40.3380   61.4470 N.ar    8  G8          0.0000
    197  C4        65.0050   39.5460   61.5490 C.ar    8  G8          0.0000
    198  C5        65.1860   38.4320   62.3380 C.ar    8  G8          0.0000
    199  C6        64.1250   38.0030   63.1690 C.ar    8  G8          0.0000
    200  O6        64.0880   37.0250   63.9290 O.2     8  G8          0.0000
    201  N7        66.4540   37.9030   62.1570 N.ar    8  G8          0.0000
    202  C8        67.0070   38.6830   61.2730 C.ar    8  G8          0.0000
    203  N9        66.1830   39.6980   60.8590 N.ar    8  G8          0.0000
    204  OP1       72.3590   39.4420   61.1000 O.2     8  G8         -0.5000
    205  OP2       70.7920   37.8090   62.3100 O.co2   8  G8         -0.5000
    206  P         69.3520   43.7640   62.3020 P.3     9  A9          0.0000
    207  C5'       67.0170   44.9570   62.4750 C.3     9  A9          0.0000
    208  O5'       67.9820   44.0810   63.0400 O.3     9  A9          0.0000
    209  C4'       65.7520   44.8850   63.2870 C.3     9  A9          0.0000
    210  O4'       65.0930   43.6120   63.0430 O.3     9  A9          0.0000
    211  C3'       66.0010   44.8970   64.7870 C.3     9  A9          0.0000
    212  O3'       66.0950   46.2240   65.2810 O.3     9  A9          0.0000
    213  C2'       64.7730   44.1830   65.3250 C.3     9  A9          0.0000
    214  O2'       63.6630   45.0460   65.3760 O.3     9  A9          0.0000
    215  C1'       64.5570   43.1110   64.2560 C.3     9  A9          0.0000
    216  N1        64.5830   38.8670   67.1620 N.ar    9  A9          0.0000
    217  C2        63.7830   39.9360   67.1470 C.ar    9  A9          0.0000
    218  N3        63.8330   41.0120   66.3730 N.ar    9  A9          0.0000
    219  C4        64.8630   40.9310   65.5160 C.ar    9  A9          0.0000
    220  C5        65.7730   39.8980   65.4150 C.ar    9  A9          0.0000
    221  C6        65.6080   38.8170   66.2920 C.ar    9  A9          0.0000
    222  N6        66.4010   37.7520   66.3130 N.pl3   9  A9          0.0000
    223  N7        66.7050   40.1610   64.4230 N.ar    9  A9          0.0000
    224  C8        66.3410   41.3260   63.9500 C.ar    9  A9          0.0000
    225  N9        65.2290   41.8480   64.5600 N.ar    9  A9          0.0000
    226  OP1       70.1020   45.0380   62.1630 O.2     9  A9         -0.5000
    227  OP2       69.9810   42.6040   62.9840 O.co2   9  A9         -0.5000
    228  P         67.1600   46.5700   66.4340 P.3    10  C10         0.0000
    229  C5'       65.2940   46.2420   68.2410 C.3    10  C10         0.0000
    230  O5'       66.5660   45.8700   67.7340 O.3    10  C10         0.0000
    231  C4'       64.8560   45.2570   69.2910 C.3    10  C10         0.0000
    232  O4'       64.6470   43.9590   68.6770 O.3    10  C10         0.0000
    233  C3'       65.8720   44.9470   70.3730 C.3    10  C10         0.0000
    234  O3'       65.9100   45.9540   71.3720 O.3    10  C10         0.0000
    235  C2'       65.3450   43.6280   70.9210 C.3    10  C10         0.0000
    236  O2'       64.2490   43.7890   71.7940 O.3    10  C10         0.0000
    237  C1'       64.8830   42.9400   69.6370 C.3    10  C10         0.0000
    238  N1        65.9100   42.0280   69.1200 N.ar   10  C10         0.0000
    239  C2        66.0870   40.8120   69.7640 C.ar   10  C10         0.0000
    240  O2        65.3660   40.5410   70.7220 O.2    10  C10         0.0000
    241  N3        67.0340   39.9670   69.3320 N.ar   10  C10         0.0000
    242  C4        67.7910   40.2960   68.2880 C.ar   10  C10         0.0000
    243  N4        68.7110   39.4150   67.8920 N.pl3  10  C10         0.0000
    244  C5        67.6340   41.5330   67.6030 C.ar   10  C10         0.0000
    245  C6        66.6880   42.3620   68.0470 C.ar   10  C10         0.0000
    246  OP1       67.1370   48.0420   66.6480 O.3    10  C10        -0.5000
    247  OP2       68.4400   45.8840   66.1090 O.co2  10  C10        -0.5000
    248  P         67.2000   46.0710   72.3230 P.3    11  U11         0.0000
    249  C5'       66.0580   44.7170   74.2600 C.3    11  U11         0.0000
    250  O5'       67.1020   44.8160   73.2980 O.3    11  U11         0.0000
    251  C4'       66.2740   43.5080   75.1320 C.3    11  U11         0.0000
    252  O4'       66.2380   42.3150   74.3130 O.3    11  U11         0.0000
    253  C3'       67.6290   43.4250   75.8040 C.3    11  U11         0.0000
    254  O3'       67.6550   44.1930   76.9940 O.3    11  U11         0.0000
    255  C2'       67.7410   41.9430   76.1100 C.3    11  U11         0.0000
    256  O2'       66.9990   41.5820   77.2540 O.3    11  U11         0.0000
    257  C1'       67.1050   41.3410   74.8630 C.3    11  U11         0.0000
    258  N1        68.0570   40.9410   73.8220 N.ar   11  U11         0.0000
    259  C2        68.7500   39.7660   74.0160 C.ar   11  U11         0.0000
    260  O2        68.6560   39.1050   75.0360 O.2    11  U11         0.0000
    261  N3        69.5570   39.3910   72.9720 N.ar   11  U11         0.0000
    262  C4        69.7370   40.0670   71.7830 C.ar   11  U11         0.0000
    263  O4        70.4500   39.5730   70.9120 O.2    11  U11         0.0000
    264  C5        69.0120   41.2930   71.6760 C.ar   11  U11         0.0000
    265  C6        68.2220   41.6830   72.6810 C.ar   11  U11         0.0000
    266  OP1       67.0420   47.3140   73.1180 O.3    11  U11        -0.5000
    267  OP2       68.4230   45.8600   71.5060 O.co2  11  U11        -0.5000
    268  P         69.0680   44.6310   77.6190 P.3    12  U12         0.0000
    269  C5'       69.2160   42.5910   79.2380 C.3    12  U12         0.0000
    270  O5'       69.7210   43.2600   78.0950 O.3    12  U12         0.0000
    271  C4'       70.0090   41.3410   79.5030 C.3    12  U12         0.0000
    272  O4'       69.8550   40.4270   78.3880 O.3    12  U12         0.0000
    273  C3'       71.5090   41.5300   79.5850 C.3    12  U12         0.0000
    274  O3'       71.9090   41.9960   80.8590 O.3    12  U12         0.0000
    275  C2'       72.0100   40.1230   79.3130 C.3    12  U12         0.0000
    276  O2'       71.8340   39.2620   80.4220 O.3    12  U12         0.0000
    277  C1'       71.0550   39.6970   78.2060 C.3    12  U12         0.0000
    278  N1        71.5750   39.9890   76.8670 N.ar   12  U12         0.0000
    279  C2        72.3260   39.0110   76.2850 C.ar   12  U12         0.0000
    280  O2        72.6240   37.9960   76.8750 O.2    12  U12         0.0000
    281  N3        72.7240   39.2640   74.9980 N.ar   12  U12         0.0000
    282  C4        72.4670   40.3980   74.2620 C.ar   12  U12         0.0000
    283  O4        72.8230   40.4450   73.0790 O.2    12  U12         0.0000
    284  C5        71.7200   41.4040   74.9610 C.ar   12  U12         0.0000
    285  C6        71.3080   41.1700   76.2110 C.ar   12  U12         0.0000
    286  OP1       68.7590   45.4420   78.8240 O.3    12  U12        -0.5000
    287  OP2       69.8960   45.2070   76.5240 O.co2  12  U12        -0.5000
    288  P         73.2140   42.9180   80.9770 P.3    13  A13         0.0000
    289  C5'       74.5080   40.7670   81.7180 C.3    13  A13         0.0000
    290  O5'       74.4080   41.8740   80.8400 O.3    13  A13         0.0000
    291  C4'       75.5030   39.7740   81.1790 C.3    13  A13         0.0000
    292  O4'       75.0040   39.1980   79.9450 O.3    13  A13         0.0000
    293  C3'       76.8470   40.3540   80.7750 C.3    13  A13         0.0000
    294  O3'       77.6910   40.4880   81.9020 O.3    13  A13         0.0000
    295  C2'       77.3750   39.2860   79.8330 C.3    13  A13         0.0000
    296  O2'       77.8970   38.1760   80.5360 O.3    13  A13         0.0000
    297  C1'       76.0970   38.8870   79.0940 C.3    13  A13         0.0000
    298  N1        77.3640   38.9690   74.1560 N.ar   13  A13         0.0000
    299  C2        77.6780   38.1460   75.1600 C.ar   13  A13         0.0000
    300  N3        77.3040   38.1930   76.4300 N.ar   13  A13         0.0000
    301  C4        76.5070   39.2480   76.6480 C.ar   13  A13         0.0000
    302  C5        76.0950   40.1860   75.7210 C.ar   13  A13         0.0000
    303  C6        76.5550   40.0160   74.4050 C.ar   13  A13         0.0000
    304  N6        76.2350   40.8220   73.3930 N.pl3  13  A13         0.0000
    305  N7        75.2780   41.1410   76.3180 N.ar   13  A13         0.0000
    306  C8        75.2140   40.7590   77.5720 C.ar   13  A13         0.0000
    307  N9        75.9330   39.6150   77.8370 N.ar   13  A13         0.0000
    308  OP1       73.2250   43.5220   82.3360 O.3    13  A13        -0.5000
    309  OP2       73.2480   43.8060   79.7750 O.co2  13  A13        -0.5000
    310  P         78.7770   41.6670   81.9420 P.3    14  A14         0.0000
    311  C5'       80.6800   39.9420   81.4600 C.3    14  A14         0.0000
    312  O5'       79.9620   41.0960   81.0480 O.3    14  A14         0.0000
    313  C4'       81.5980   39.4870   80.3600 C.3    14  A14         0.0000
    314  O4'       80.8080   38.9920   79.2460 O.3    14  A14         0.0000
    315  C3'       82.4480   40.5810   79.7400 C.3    14  A14         0.0000
    316  O3'       83.6110   40.8300   80.5150 O.3    14  A14         0.0000
    317  C2'       82.7940   39.9630   78.3970 C.3    14  A14         0.0000
    318  O2'       83.8020   38.9850   78.5320 O.3    14  A14         0.0000
    319  C1'       81.4600   39.3090   78.0260 C.3    14  A14         0.0000
    320  N1        80.2020   41.1330   73.3980 N.ar   14  A14         0.0000
    321  C2        81.0400   40.1650   73.7860 C.ar   14  A14         0.0000
    322  N3        81.3040   39.7210   75.0100 N.ar   14  A14         0.0000
    323  C4        80.5830   40.3950   75.9210 C.ar   14  A14         0.0000
    324  C5        79.6800   41.4120   75.6770 C.ar   14  A14         0.0000
    325  C6        79.4930   41.7890   74.3410 C.ar   14  A14         0.0000
    326  N6        78.6590   42.7560   73.9550 N.pl3  14  A14         0.0000
    327  N7        79.1260   41.8710   76.8640 N.ar   14  A14         0.0000
    328  C8        79.7020   41.1360   77.7840 C.ar   14  A14         0.0000
    329  N9        80.6060   40.2330   77.2840 N.ar   14  A14         0.0000
    330  OP1       79.2350   41.7780   83.3540 O.3    14  A14        -0.5000
    331  OP2       78.2100   42.8590   81.2570 O.co2  14  A14        -0.5000
    332  P         84.2530   42.3030   80.5320 P.3    15  A15         0.0000
    333  C5'       85.9660   41.5900   78.6840 C.3    15  A15         0.0000
    334  O5'       84.9040   42.4490   79.0850 O.3    15  A15         0.0000
    335  C4'       86.2280   41.7270   77.2030 C.3    15  A15         0.0000
    336  O4'       85.0430   41.3300   76.4620 O.3    15  A15         0.0000
    337  C3'       86.5010   43.1320   76.6930 C.3    15  A15         0.0000
    338  O3'       87.8450   43.5330   76.9150 O.3    15  A15         0.0000
    339  C2'       86.1990   42.9800   75.2090 C.3    15  A15         0.0000
    340  O2'       87.2430   42.3340   74.5070 O.3    15  A15         0.0000
    341  C1'       84.9660   42.0740   75.2530 C.3    15  A15         0.0000
    342  N1        81.4840   44.5040   72.3680 N.ar   15  A15         0.0000
    343  C2        82.5590   43.7740   72.0540 C.ar   15  A15         0.0000
    344  N3        83.4150   43.1490   72.8590 N.ar   15  A15         0.0000
    345  C4        83.0740   43.3300   74.1480 C.ar   15  A15         0.0000
    346  C5        81.9970   44.0520   74.6260 C.ar   15  A15         0.0000
    347  C6        81.1690   44.6660   73.6730 C.ar   15  A15         0.0000
    348  N6        80.0990   45.3970   73.9860 N.pl3  15  A15         0.0000
    349  N7        81.9590   44.0180   76.0140 N.ar   15  A15         0.0000
    350  C8        83.0020   43.2930   76.3390 C.ar   15  A15         0.0000
    351  N9        83.7290   42.8550   75.2590 N.ar   15  A15         0.0000
    352  OP1       85.3400   42.2870   81.5470 O.3    15  A15        -0.5000
    353  OP2       83.1530   43.2960   80.6470 O.co2  15  A15        -0.5000
    354  P         88.1920   45.0960   77.0180 P.3    16  G16         0.0000
    355  C5'       89.0670   45.2280   74.5490 C.3    16  G16         0.0000
    356  O5'       88.0950   45.6200   75.5150 O.3    16  G16         0.0000
    357  C4'       88.6090   45.5870   73.1530 C.3    16  G16         0.0000
    358  O4'       87.3090   44.9850   72.9070 O.3    16  G16         0.0000
    359  C3'       88.3810   47.0620   72.8620 C.3    16  G16         0.0000
    360  O3'       89.5930   47.7380   72.5410 O.3    16  G16         0.0000
    361  C2'       87.4540   46.9940   71.6560 C.3    16  G16         0.0000
    362  O2'       88.1380   46.7040   70.4530 O.3    16  G16         0.0000
    363  C1'       86.5550   45.8170   72.0370 C.3    16  G16         0.0000
    364  N1        82.0470   48.1010   71.6210 N.ar   16  G16         0.0000
    365  C2        82.9470   47.7650   70.6410 C.ar   16  G16         0.0000
    366  N2        82.6080   48.1000   69.3880 N.pl3  16  G16         0.0000
    367  N3        84.0920   47.1450   70.8710 N.ar   16  G16         0.0000
    368  C4        84.2690   46.8840   72.1850 C.ar   16  G16         0.0000
    369  C5        83.4310   47.1740   73.2400 C.ar   16  G16         0.0000
    370  C6        82.2060   47.8390   72.9790 C.ar   16  G16         0.0000
    371  O6        81.3290   48.1860   73.7800 O.2    16  G16         0.0000
    372  N7        83.9770   46.7320   74.4380 N.ar   16  G16         0.0000
    373  C8        85.1170   46.1970   74.0960 C.ar   16  G16         0.0000
    374  N9        85.3630   46.2690   72.7450 N.ar   16  G16         0.0000
    375  OP1       89.6080   45.1920   77.4530 O.2    16  G16        -0.5000
    376  OP2       87.1330   45.7580   77.8200 O.co2  16  G16        -0.5000
    377  P         89.7200   49.3190   72.8210 P.3    17  C17         0.0000
    378  C5'       89.0780   49.9790   70.3570 C.3    17  C17         0.0000
    379  O5'       88.7530   49.9960   71.7460 O.3    17  C17         0.0000
    380  C4'       87.9650   50.6020   69.5390 C.3    17  C17         0.0000
    381  O4'       86.7320   49.8610   69.7550 O.3    17  C17         0.0000
    382  C3'       87.5750   52.0330   69.8760 C.3    17  C17         0.0000
    383  O3'       88.4390   52.9920   69.2790 O.3    17  C17         0.0000
    384  C2'       86.1790   52.1170   69.2750 C.3    17  C17         0.0000
    385  O2'       86.2010   52.2810   67.8710 O.3    17  C17         0.0000
    386  C1'       85.6210   50.7390   69.6330 C.3    17  C17         0.0000
    387  N1        84.8960   50.7670   70.9140 N.ar   17  C17         0.0000
    388  C2        83.5870   51.2700   70.9350 C.ar   17  C17         0.0000
    389  O2        83.0720   51.6540   69.8700 O.2    17  C17         0.0000
    390  N3        82.9190   51.3260   72.1100 N.ar   17  C17         0.0000
    391  C4        83.5070   50.9030   73.2320 C.ar   17  C17         0.0000
    392  N4        82.8140   50.9820   74.3680 N.pl3  17  C17         0.0000
    393  C5        84.8330   50.3790   73.2370 C.ar   17  C17         0.0000
    394  C6        85.4840   50.3270   72.0670 C.ar   17  C17         0.0000
    395  OP1       91.1150   49.7350   72.5230 O.2    17  C17        -0.5000
    396  OP2       89.1520   49.5670   74.1710 O.co2  17  C17        -0.5000
    397  P         88.5250   54.4730   69.9010 P.3    18  C18         0.0000
    398  C5'       86.8320   55.4630   68.1520 C.3    18  C18         0.0000
    399  O5'       87.1380   55.1540   69.5090 O.3    18  C18         0.0000
    400  C4'       85.3910   55.9020   68.0220 C.3    18  C18         0.0000
    401  O4'       84.5390   54.8790   68.6060 O.3    18  C18         0.0000
    402  C3'       84.9880   57.1620   68.7750 C.3    18  C18         0.0000
    403  O3'       85.2970   58.3480   68.0510 O.3    18  C18         0.0000
    404  C2'       83.4810   56.9840   68.8840 C.3    18  C18         0.0000
    405  O2'       82.8060   57.2920   67.6790 O.3    18  C18         0.0000
    406  C1'       83.3810   55.4850   69.1660 C.3    18  C18         0.0000
    407  N1        83.3460   55.2020   70.6110 N.ar   18  C18         0.0000
    408  C2        82.1770   55.4960   71.3210 C.ar   18  C18         0.0000
    409  O2        81.2070   55.9660   70.7100 O.2    18  C18         0.0000
    410  N3        82.1330   55.2640   72.6510 N.ar   18  C18         0.0000
    411  C4        83.1990   54.7560   73.2740 C.ar   18  C18         0.0000
    412  N4        83.1120   54.5490   74.5890 N.pl3  18  C18         0.0000
    413  C5        84.4010   54.4400   72.5750 C.ar   18  C18         0.0000
    414  C6        84.4300   54.6750   71.2560 C.ar   18  C18         0.0000
    415  OP1       89.6140   55.2040   69.2040 O.2    18  C18        -0.5000
    416  OP2       88.5650   54.3260   71.3810 O.co2  18  C18        -0.5000
    417  P         85.6120   59.7100   68.8490 P.3    19  A19         0.0000
    418  C5'       83.0770   60.3930   69.1410 C.3    19  A19         0.0000
    419  O5'       84.3110   59.9830   69.7370 O.3    19  A19         0.0000
    420  C4'       81.9200   60.1710   70.0990 C.3    19  A19         0.0000
    421  O4'       82.0760   58.8590   70.7090 O.3    19  A19         0.0000
    422  C3'       81.7870   61.1150   71.2920 C.3    19  A19         0.0000
    423  O3'       81.0760   62.3090   70.9510 O.3    19  A19         0.0000
    424  C2'       80.9810   60.2640   72.2640 C.3    19  A19         0.0000
    425  O2'       79.6100   60.1880   71.9280 O.3    19  A19         0.0000
    426  C1'       81.6230   58.8950   72.0530 C.3    19  A19         0.0000
    427  N1        83.2430   58.6710   76.9240 N.ar   19  A19         0.0000
    428  C2        82.0280   58.8460   76.3840 C.ar   19  A19         0.0000
    429  N3        81.6740   58.8840   75.0990 N.ar   19  A19         0.0000
    430  C4        82.7470   58.7140   74.3060 C.ar   19  A19         0.0000
    431  C5        84.0570   58.5210   74.7110 C.ar   19  A19         0.0000
    432  C6        84.3010   58.5020   76.0980 C.ar   19  A19         0.0000
    433  N6        85.5120   58.3300   76.6350 N.pl3  19  A19         0.0000
    434  N7        84.8950   58.3820   73.6110 N.ar   19  A19         0.0000
    435  C8        84.0870   58.4930   72.5840 C.ar   19  A19         0.0000
    436  N9        82.7740   58.7020   72.9320 N.ar   19  A19         0.0000
    437  OP1       85.7390   60.8020   67.8480 O.2    19  A19        -0.5000
    438  OP2       86.7440   59.4190   69.7690 O.co2  19  A19        -0.5000
    439  P         81.2480   63.6370   71.8550 P.3    20  U20         0.0000
    440  C5'       79.0820   62.8090   73.0970 C.3    20  U20         0.0000
    441  O5'       80.4050   63.3390   73.1790 O.3    20  U20         0.0000
    442  C4'       78.6630   62.1970   74.4190 C.3    20  U20         0.0000
    443  O4'       79.7900   61.4760   74.9880 O.3    20  U20         0.0000
    444  C3'       78.2660   63.1520   75.5340 C.3    20  U20         0.0000
    445  O3'       76.9110   63.5650   75.3940 O.3    20  U20         0.0000
    446  C2'       78.4350   62.2740   76.7690 C.3    20  U20         0.0000
    447  O2'       77.3520   61.3820   76.9610 O.3    20  U20         0.0000
    448  C1'       79.6950   61.4850   76.4060 C.3    20  U20         0.0000
    449  N1        80.9120   62.0960   76.9600 N.ar   20  U20         0.0000
    450  C2        81.2910   61.7180   78.2390 C.ar   20  U20         0.0000
    451  O2        80.6710   60.8990   78.9000 O.2    20  U20         0.0000
    452  N3        82.4220   62.3350   78.7140 N.ar   20  U20         0.0000
    453  C4        83.1980   63.2680   78.0560 C.ar   20  U20         0.0000
    454  O4        84.1880   63.7360   78.6200 O.2    20  U20         0.0000
    455  C5        82.7440   63.6010   76.7380 C.ar   20  U20         0.0000
    456  C6        81.6450   63.0170   76.2470 C.ar   20  U20         0.0000
    457  OP1       80.5790   64.7500   71.1300 O.2    20  U20        -0.5000
    458  OP2       82.6830   63.7650   72.2280 O.co2  20  U20        -0.5000
    459  P         71.5310   56.4430   79.1760 P.3    23  G23         0.0000
    460  C5'       71.2490   55.2760   76.8470 C.3    23  G23         0.0000
    461  O5'       70.7110   56.1310   77.8480 O.3    23  G23         0.0000
    462  C4'       71.6540   56.0840   75.6380 C.3    23  G23         0.0000
    463  O4'       72.5770   57.1330   76.0390 O.3    23  G23         0.0000
    464  C3'       72.4010   55.2970   74.5750 C.3    23  G23         0.0000
    465  O3'       71.4830   54.6680   73.6930 O.3    23  G23         0.0000
    466  C2'       73.2190   56.3770   73.8820 C.3    23  G23         0.0000
    467  O2'       72.4680   57.1100   72.9340 O.3    23  G23         0.0000
    468  C1'       73.6000   57.2710   75.0660 C.3    23  G23         0.0000
    469  N1        78.5700   56.4250   74.3960 N.ar   23  G23         0.0000
    470  C2        77.6260   56.8300   73.4820 C.ar   23  G23         0.0000
    471  N2        78.0640   57.0290   72.2280 N.pl3  23  G23         0.0000
    472  N3        76.3500   57.0270   73.7760 N.ar   23  G23         0.0000
    473  C4        76.0890   56.7820   75.0780 C.ar   23  G23         0.0000
    474  C5        76.9590   56.3750   76.0690 C.ar   23  G23         0.0000
    475  C6        78.3240   56.1670   75.7410 C.ar   23  G23         0.0000
    476  O6        79.2500   55.8040   76.4810 O.2    23  G23         0.0000
    477  N7        76.2960   56.2360   77.2800 N.ar   23  G23         0.0000
    478  C8        75.0590   56.5510   77.0100 C.ar   23  G23         0.0000
    479  N9        74.8620   56.8880   75.6910 N.ar   23  G23         0.0000
    480  OP1       71.6890   57.9190   79.2760 O.3    23  G23         0.0000
    481  OP2       72.7350   55.5710   79.1910 O.co2  23  G23        -1.0000
    482  P         71.8010   53.2000   73.1360 P.3    24  G24         0.0000
    483  C5'       72.0920   54.2810   70.7630 C.3    24  G24         0.0000
    484  O5'       72.6300   53.4740   71.8070 O.3    24  G24         0.0000
    485  C4'       73.1560   54.5620   69.7340 C.3    24  G24         0.0000
    486  O4'       74.2100   55.3510   70.3500 O.3    24  G24         0.0000
    487  C3'       73.8620   53.3220   69.2100 C.3    24  G24         0.0000
    488  O3'       73.1410   52.7450   68.1260 O.3    24  G24         0.0000
    489  C2'       75.2190   53.8730   68.7890 C.3    24  G24         0.0000
    490  O2'       75.1870   54.5160   67.5330 O.3    24  G24         0.0000
    491  C1'       75.4760   54.9070   69.8880 C.3    24  G24         0.0000
    492  N1        79.8620   52.9370   71.5330 N.ar   24  G24         0.0000
    493  C2        79.5150   53.3590   70.2740 C.ar   24  G24         0.0000
    494  N2        80.4610   53.2390   69.3320 N.pl3  24  G24         0.0000
    495  N3        78.3310   53.8610   69.9610 N.ar   24  G24         0.0000
    496  C4        77.5060   53.9080   71.0280 C.ar   24  G24         0.0000
    497  C5        77.7550   53.5120   72.3260 C.ar   24  G24         0.0000
    498  C6        79.0310   52.9750   72.6470 C.ar   24  G24         0.0000
    499  O6        79.4450   52.5680   73.7400 O.2    24  G24         0.0000
    500  N7        76.6420   53.7250   73.1280 N.ar   24  G24         0.0000
    501  C8        75.7540   54.2350   72.3190 C.ar   24  G24         0.0000
    502  N9        76.2130   54.3730   71.0300 N.ar   24  G24         0.0000
    503  OP1       70.5040   52.5830   72.7570 O.2    24  G24        -0.5000
    504  OP2       72.6870   52.5100   74.1080 O.co2  24  G24        -0.5000
    505  P         73.2870   51.1730   67.8220 P.3    25  C25         0.0000
    506  C5'       75.1550   51.7100   66.0660 C.3    25  C25         0.0000
    507  O5'       74.7670   51.0340   67.2560 O.3    25  C25         0.0000
    508  C4'       76.5830   51.3700   65.7200 C.3    25  C25         0.0000
    509  O4'       77.4810   51.9470   66.7050 O.3    25  C25         0.0000
    510  C3'       76.8960   49.8870   65.7500 C.3    25  C25         0.0000
    511  O3'       76.5180   49.2680   64.5280 O.3    25  C25         0.0000
    512  C2'       78.4020   49.8790   65.9750 C.3    25  C25         0.0000
    513  O2'       79.1340   50.1090   64.7900 O.3    25  C25         0.0000
    514  C1'       78.5710   51.0660   66.9270 C.3    25  C25         0.0000
    515  N1        78.5720   50.6850   68.3490 N.ar   25  C25         0.0000
    516  C2        79.7380   50.1490   68.9020 C.ar   25  C25         0.0000
    517  O2        80.7310   49.9990   68.1770 O.2    25  C25         0.0000
    518  N3        79.7540   49.8080   70.2090 N.ar   25  C25         0.0000
    519  C4        78.6630   49.9820   70.9550 C.ar   25  C25         0.0000
    520  N4        78.7250   49.6370   72.2400 N.pl3  25  C25         0.0000
    521  C5        77.4600   50.5200   70.4160 C.ar   25  C25         0.0000
    522  C6        77.4580   50.8540   69.1220 C.ar   25  C25         0.0000
    523  OP1       72.3440   50.8060   66.7340 O.2    25  C25        -0.5000
    524  OP2       73.2240   50.4590   69.1220 O.co2  25  C25        -0.5000
    525  P         76.0650   47.7290   64.5290 P.3    26  U26         0.0000
    526  C5'       78.5060   47.1430   63.7870 C.3    26  U26         0.0000
    527  O5'       77.4350   46.9350   64.7000 O.3    26  U26         0.0000
    528  C4'       79.7480   46.4300   64.2610 C.3    26  U26         0.0000
    529  O4'       80.2990   47.0860   65.4310 O.3    26  U26         0.0000
    530  C3'       79.5350   45.0050   64.7240 C.3    26  U26         0.0000
    531  O3'       79.4590   44.1210   63.6220 O.3    26  U26         0.0000
    532  C2'       80.7710   44.7570   65.5770 C.3    26  U26         0.0000
    533  O2'       81.9140   44.4260   64.8160 O.3    26  U26         0.0000
    534  C1'       80.9580   46.1230   66.2400 C.3    26  U26         0.0000
    535  N1        80.3880   46.1790   67.5910 N.ar   26  U26         0.0000
    536  C2        81.0280   45.4610   68.5790 C.ar   26  U26         0.0000
    537  O2        82.0250   44.7940   68.3660 O.2    26  U26         0.0000
    538  N3        80.4590   45.5510   69.8240 N.ar   26  U26         0.0000
    539  C4        79.3370   46.2730   70.1720 C.ar   26  U26         0.0000
    540  O4        78.9470   46.2600   71.3410 O.2    26  U26         0.0000
    541  C5        78.7290   46.9880   69.0910 C.ar   26  U26         0.0000
    542  C6        79.2620   46.9170   67.8670 C.ar   26  U26         0.0000
    543  OP1       75.4920   47.3940   63.1990 O.2    26  U26        -0.5000
    544  OP2       75.2480   47.5330   65.7550 O.co2  26  U26        -0.5000
    545  P         78.4320   42.8960   63.6740 P.3    27  U27         0.0000
    546  C5'       80.5110   41.3150   63.7510 C.3    27  U27         0.0000
    547  O5'       79.2800   41.7190   64.3350 O.3    27  U27         0.0000
    548  C4'       81.4530   40.7900   64.8070 C.3    27  U27         0.0000
    549  O4'       81.5770   41.7660   65.8720 O.3    27  U27         0.0000
    550  C3'       81.0280   39.5270   65.5340 C.3    27  U27         0.0000
    551  O3'       81.3710   38.3740   64.7730 O.3    27  U27         0.0000
    552  C2'       81.8710   39.5930   66.8030 C.3    27  U27         0.0000
    553  O2'       83.1930   39.1400   66.5920 O.3    27  U27         0.0000
    554  C1'       81.8910   41.0980   67.0830 C.3    27  U27         0.0000
    555  N1        80.9520   41.5340   68.1260 N.ar   27  U27         0.0000
    556  C2        81.2070   41.1280   69.4210 C.ar   27  U27         0.0000
    557  O2        82.1500   40.4140   69.7140 O.2    27  U27         0.0000
    558  N3        80.3180   41.5880   70.3600 N.ar   27  U27         0.0000
    559  C4        79.2190   42.3940   70.1400 C.ar   27  U27         0.0000
    560  O4        78.5180   42.7320   71.0930 O.2    27  U27         0.0000
    561  C5        79.0140   42.7620   68.7730 C.ar   27  U27         0.0000
    562  C6        79.8650   42.3280   67.8340 C.ar   27  U27         0.0000
    563  OP1       78.1200   42.5270   62.2680 O.2    27  U27        -0.5000
    564  OP2       77.3330   43.2910   64.5970 O.co2  27  U27        -0.5000
    565  P         80.4800   37.0410   64.9020 P.3    28  U28         0.0000
    566  C5'       81.9230   36.0170   66.8320 C.3    28  U28         0.0000
    567  O5'       80.6880   36.5810   66.4120 O.3    28  U28         0.0000
    568  C4'       81.8680   35.6770   68.3000 C.3    28  U28         0.0000
    569  O4'       81.7670   36.8920   69.0890 O.3    28  U28         0.0000
    570  C3'       80.6520   34.8830   68.7260 C.3    28  U28         0.0000
    571  O3'       80.8220   33.5050   68.4440 O.3    28  U28         0.0000
    572  C2'       80.6100   35.1540   70.2220 C.3    28  U28         0.0000
    573  O2'       81.5500   34.3630   70.9210 O.3    28  U28         0.0000
    574  C1'       81.0290   36.6260   70.2710 C.3    28  U28         0.0000
    575  N1        79.8980   37.5650   70.3380 N.ar   28  U28         0.0000
    576  C2        79.3600   37.8360   71.5870 C.ar   28  U28         0.0000
    577  O2        79.7760   37.3240   72.6130 O.2    28  U28         0.0000
    578  N3        78.3150   38.7260   71.5880 N.ar   28  U28         0.0000
    579  C4        77.7600   39.3580   70.4950 C.ar   28  U28         0.0000
    580  O4        76.8200   40.1390   70.6610 O.2    28  U28         0.0000
    581  C5        78.3660   39.0240   69.2400 C.ar   28  U28         0.0000
    582  C6        79.3900   38.1600   69.2060 C.ar   28  U28         0.0000
    583  OP1       81.0790   35.9920   64.0370 O.2    28  U28        -0.5000
    584  OP2       79.0550   37.4270   64.7130 O.co2  28  U28        -0.5000
    585  P         79.5490   32.6360   68.0040 P.3    29  A29         0.0000
    586  C5'       79.4060   31.6340   70.4200 C.3    29  A29         0.0000
    587  O5'       78.7840   32.3790   69.3790 O.3    29  A29         0.0000
    588  C4'       78.6750   31.8370   71.7270 C.3    29  A29         0.0000
    589  O4'       78.7320   33.2360   72.1080 O.3    29  A29         0.0000
    590  C3'       77.1870   31.5340   71.7160 C.3    29  A29         0.0000
    591  O3'       76.9440   30.1390   71.8550 O.3    29  A29         0.0000
    592  C2'       76.6900   32.3230   72.9240 C.3    29  A29         0.0000
    593  O2'       76.8980   31.6680   74.1600 O.3    29  A29         0.0000
    594  C1'       77.5750   33.5670   72.8570 C.3    29  A29         0.0000
    595  N1        74.5170   37.6180   73.5410 N.ar   29  A29         0.0000
    596  C2        74.9690   36.6780   74.3780 C.ar   29  A29         0.0000
    597  N3        75.7610   35.6410   74.1300 N.ar   29  A29         0.0000
    598  C4        76.1030   35.6100   72.8320 C.ar   29  A29         0.0000
    599  C5        75.7180   36.5000   71.8510 C.ar   29  A29         0.0000
    600  C6        74.8820   37.5560   72.2420 C.ar   29  A29         0.0000
    601  N6        74.4300   38.4950   71.4060 N.pl3  29  A29         0.0000
    602  N7        76.2670   36.1470   70.6260 N.ar   29  A29         0.0000
    603  C8        76.9640   35.0690   70.8930 C.ar   29  A29         0.0000
    604  N9        76.9130   34.6940   72.2100 N.ar   29  A29         0.0000
    605  OP1       80.0350   31.3270   67.4870 O.3    29  A29        -0.5000
    606  OP2       78.7110   33.5090   67.1340 O.co2  29  A29        -0.5000
    607  P         75.6100   29.5000   71.2270 P.3    30  A30         0.0000
    608  C5'       74.5640   29.4650   73.6260 C.3    30  A30         0.0000
    609  O5'       74.4780   29.8920   72.2760 O.3    30  A30         0.0000
    610  C4'       73.5860   30.2340   74.4840 C.3    30  A30         0.0000
    611  O4'       73.9420   31.6440   74.5090 O.3    30  A30         0.0000
    612  C3'       72.1360   30.2480   74.0330 C.3    30  A30         0.0000
    613  O3'       71.4940   29.0280   74.4020 O.3    30  A30         0.0000
    614  C2'       71.6020   31.4430   74.8130 C.3    30  A30         0.0000
    615  O2'       71.4150   31.1370   76.1770 O.3    30  A30         0.0000
    616  C1'       72.7750   32.4210   74.7190 C.3    30  A30         0.0000
    617  N1        71.0190   37.0250   73.2680 N.ar   30  A30         0.0000
    618  C2        71.0150   36.3960   74.4470 C.ar   30  A30         0.0000
    619  N3        71.5010   35.2000   74.7630 N.ar   30  A30         0.0000
    620  C4        72.0560   34.6180   73.6870 C.ar   30  A30         0.0000
    621  C5        72.1390   35.1420   72.4130 C.ar   30  A30         0.0000
    622  C6        71.5850   36.4060   72.2070 C.ar   30  A30         0.0000
    623  N6        71.5840   37.0270   71.0270 N.pl3  30  A30         0.0000
    624  N7        72.7830   34.2620   71.5620 N.ar   30  A30         0.0000
    625  C8        73.0660   33.2350   72.3270 C.ar   30  A30         0.0000
    626  N9        72.6470   33.3790   73.6220 N.ar   30  A30         0.0000
    627  OP1       75.7600   28.0190   71.2200 O.3    30  A30        -0.5000
    628  OP2       75.3170   30.2220   69.9550 O.co2  30  A30        -0.5000
    629  P         70.0500   28.6570   73.7850 P.3    31  G31         0.0000
    630  C5'       67.9540   30.2410   73.7460 C.3    31  G31         0.0000
    631  O5'       69.0900   29.7470   74.4340 O.3    31  G31         0.0000
    632  C4'       67.5130   31.5310   74.3830 C.3    31  G31         0.0000
    633  O4'       68.5560   32.5320   74.2170 O.3    31  G31         0.0000
    634  C3'       66.2840   32.1790   73.7820 C.3    31  G31         0.0000
    635  O3'       65.1100   31.5730   74.3110 O.3    31  G31         0.0000
    636  C2'       66.4590   33.6230   74.2320 C.3    31  G31         0.0000
    637  O2'       66.1330   33.7990   75.6020 O.3    31  G31         0.0000
    638  C1'       67.9680   33.8100   74.0320 C.3    31  G31         0.0000
    639  N1        67.6340   37.5730   70.6110 N.ar   31  G31         0.0000
    640  C2        67.1500   37.5240   71.8850 C.ar   31  G31         0.0000
    641  N2        66.4870   38.6130   72.2940 N.pl3  31  G31         0.0000
    642  N3        67.3060   36.4900   72.7000 N.ar   31  G31         0.0000
    643  C4        68.0050   35.4910   72.1180 C.ar   31  G31         0.0000
    644  C5        68.5380   35.4470   70.8480 C.ar   31  G31         0.0000
    645  C6        68.3600   36.5680   69.9880 C.ar   31  G31         0.0000
    646  O6        68.7600   36.7310   68.8220 O.2    31  G31         0.0000
    647  N7        69.1900   34.2410   70.6310 N.ar   31  G31         0.0000
    648  C8        69.0410   33.5820   71.7480 C.ar   31  G31         0.0000
    649  N9        68.3260   34.2760   72.6940 N.ar   31  G31         0.0000
    650  OP1       69.6300   27.3280   74.3140 O.3    31  G31        -0.5000
    651  OP2       70.0940   28.8880   72.3130 O.co2  31  G31        -0.5000
    652  P         63.7940   31.4650   73.4000 P.3    32  U32         0.0000
    653  C5'       62.7080   33.6030   74.4170 C.3    32  U32         0.0000
    654  O5'       63.2850   32.9640   73.3000 O.3    32  U32         0.0000
    655  C4'       62.2230   34.9630   74.0220 C.3    32  U32         0.0000
    656  O4'       63.3580   35.7560   73.5850 O.3    32  U32         0.0000
    657  C3'       61.3230   34.9900   72.8050 C.3    32  U32         0.0000
    658  O3'       59.9920   34.6330   73.1310 O.3    32  U32         0.0000
    659  C2'       61.4520   36.4410   72.3770 C.3    32  U32         0.0000
    660  O2'       60.7610   37.3130   73.2520 O.3    32  U32         0.0000
    661  C1'       62.9510   36.6520   72.5640 C.3    32  U32         0.0000
    662  N1        63.7130   36.3420   71.3490 N.ar   32  U32         0.0000
    663  C2        63.6620   37.2590   70.3100 C.ar   32  U32         0.0000
    664  O2        63.0040   38.2850   70.3660 O.2    32  U32         0.0000
    665  N3        64.4010   36.9270   69.2050 N.ar   32  U32         0.0000
    666  C4        65.1640   35.7940   69.0320 C.ar   32  U32         0.0000
    667  O4        65.7840   35.6390   67.9830 O.2    32  U32         0.0000
    668  C5        65.1580   34.8900   70.1470 C.ar   32  U32         0.0000
    669  C6        64.4490   35.1900   71.2420 C.ar   32  U32         0.0000
    670  OP1       62.7720   30.6740   74.1210 O.3    32  U32        -0.5000
    671  OP2       64.2140   31.0530   72.0370 O.co2  32  U32        -0.5000
    672  P         59.1130   33.8370   72.0550 P.3    33  U33         0.0000
    673  C5'       58.2470   36.2150   71.4000 C.3    33  U33         0.0000
    674  O5'       58.7490   34.9540   70.9850 O.3    33  U33         0.0000
    675  C4'       58.3420   37.2120   70.2700 C.3    33  U33         0.0000
    676  O4'       59.7320   37.5110   69.9880 O.3    33  U33         0.0000
    677  C3'       57.7900   36.7640   68.9290 C.3    33  U33         0.0000
    678  O3'       56.3860   36.9470   68.8790 O.3    33  U33         0.0000
    679  C2'       58.4930   37.7120   67.9710 C.3    33  U33         0.0000
    680  O2'       57.8930   38.9880   67.9480 O.3    33  U33         0.0000
    681  C1'       59.8740   37.8230   68.6140 C.3    33  U33         0.0000
    682  N1        60.8270   36.8820   68.0220 N.ar   33  U33         0.0000
    683  C2        61.3580   37.2110   66.8010 C.ar   33  U33         0.0000
    684  O2        61.0640   38.2290   66.2110 O.2    33  U33         0.0000
    685  N3        62.2440   36.2990   66.2930 N.ar   33  U33         0.0000
    686  C4        62.6360   35.1150   66.8810 C.ar   33  U33         0.0000
    687  O4        63.4430   34.3930   66.3040 O.2    33  U33         0.0000
    688  C5        62.0350   34.8490   68.1440 C.ar   33  U33         0.0000
    689  C6        61.1730   35.7200   68.6590 C.ar   33  U33         0.0000
    690  OP1       57.8820   33.3660   72.7120 O.3    33  U33        -0.5000
    691  OP2       60.0130   32.8610   71.3950 O.co2  33  U33        -0.5000
    692  P         55.4920   35.9790   67.9680 P.3    34  G34         0.0000
    693  C5'       55.9120   37.5390   65.8890 C.3    34  G34         0.0000
    694  O5'       55.9920   36.2470   66.4840 O.3    34  G34         0.0000
    695  C4'       56.6480   37.5340   64.5750 C.3    34  G34         0.0000
    696  O4'       58.0500   37.2610   64.8220 O.3    34  G34         0.0000
    697  C3'       56.2170   36.4400   63.6150 C.3    34  G34         0.0000
    698  O3'       55.1030   36.8820   62.8430 O.3    34  G34         0.0000
    699  C2'       57.4570   36.2690   62.7510 C.3    34  G34         0.0000
    700  O2'       57.5430   37.3000   61.7900 O.3    34  G34         0.0000
    701  C1'       58.5730   36.4550   63.7800 C.3    34  G34         0.0000
    702  N1        62.2140   32.9090   63.7080 N.ar   34  G34         0.0000
    703  C2        62.0440   33.9930   62.8870 C.ar   34  G34         0.0000
    704  N2        62.9630   34.1600   61.9350 N.pl3  34  G34         0.0000
    705  N3        61.0420   34.8490   62.9930 N.ar   34  G34         0.0000
    706  C4        60.2080   34.5260   64.0020 C.ar   34  G34         0.0000
    707  C5        60.2910   33.4660   64.8760 C.ar   34  G34         0.0000
    708  C6        61.3690   32.5600   64.7540 C.ar   34  G34         0.0000
    709  O6        61.6150   31.5590   65.4370 O.2    34  G34         0.0000
    710  N7        59.2360   33.4830   65.7710 N.ar   34  G34         0.0000
    711  C8        58.5430   34.5340   65.4340 C.ar   34  G34         0.0000
    712  N9        59.0820   35.2190   64.3740 N.ar   34  G34         0.0000
    713  OP1       54.0780   36.4120   68.0850 O.2    34  G34        -0.5000
    714  OP2       55.8660   34.5820   68.2850 O.co2  34  G34        -0.5000
    715  P         53.7210   36.0720   62.9080 P.3    35  A35         0.0000
    716  C5'       52.0460   37.9530   63.7480 C.3    35  A35         0.0000
    717  O5'       52.5930   37.1830   62.6650 O.3    35  A35         0.0000
    718  C4'       50.5260   37.9340   63.6970 C.3    35  A35         0.0000
    719  O4'       50.0870   38.4900   62.4380 O.3    35  A35         0.0000
    720  C3'       49.9400   36.5350   63.7630 C.3    35  A35         0.0000
    721  O3'       48.8220   36.3760   64.6420 O.3    35  A35         0.0000
    722  C2'       49.6850   36.1280   62.3100 C.3    35  A35         0.0000
    723  O2'       48.4590   35.4540   62.1200 O.3    35  A35         0.0000
    724  C1'       49.5690   37.4790   61.5980 C.3    35  A35         0.0000
    725  N1        49.8980   40.0710   57.2080 N.ar   35  A35         0.0000
    726  C2        48.9990   40.0950   58.2010 C.ar   35  A35         0.0000
    727  N3        48.9440   39.3470   59.2990 N.ar   35  A35         0.0000
    728  C4        49.9690   38.4750   59.3300 C.ar   35  A35         0.0000
    729  C5        50.9610   38.3280   58.3860 C.ar   35  A35         0.0000
    730  C6        50.9150   39.1810   57.2770 C.ar   35  A35         0.0000
    731  N6        51.8180   39.1660   56.2970 N.pl3  35  A35         0.0000
    732  N7        51.8440   37.3280   58.7540 N.ar   35  A35         0.0000
    733  C8        51.3810   36.9080   59.9010 C.ar   35  A35         0.0000
    734  N9        50.2710   37.5850   60.3260 N.ar   35  A35         0.0000
    735  OP1       53.6390   35.5600   64.2990 O.3    35  A35        -0.5000
    736  OP2       53.6910   35.1180   61.7860 O.co2  35  A35        -0.5000
    737  P         48.8950   36.8750   66.1730 P.3    36  C36         0.0000
    738  C5'       48.0120   39.0380   67.3490 C.3    36  C36         0.0000
    739  O5'       48.3270   38.3610   66.1310 O.3    36  C36         0.0000
    740  C4'       46.5870   39.5450   67.3270 C.3    36  C36         0.0000
    741  O4'       46.4840   40.6350   66.3810 O.3    36  C36         0.0000
    742  C3'       45.5060   38.5580   66.9060 C.3    36  C36         0.0000
    743  O3'       45.0850   37.7820   68.0280 O.3    36  C36         0.0000
    744  C2'       44.4050   39.4940   66.4280 C.3    36  C36         0.0000
    745  O2'       43.7120   40.0650   67.5150 O.3    36  C36         0.0000
    746  C1'       45.2180   40.6080   65.7670 C.3    36  C36         0.0000
    747  N1        45.4230   40.4900   64.3220 N.ar   36  C36         0.0000
    748  C2        44.3900   40.8720   63.4770 C.ar   36  C36         0.0000
    749  O2        43.3180   41.2320   63.9760 O.2    36  C36         0.0000
    750  N3        44.5800   40.8410   62.1350 N.ar   36  C36         0.0000
    751  C4        45.7490   40.4370   61.6400 C.ar   36  C36         0.0000
    752  N4        45.8930   40.4430   60.3140 N.pl3  36  C36         0.0000
    753  C5        46.8190   40.0120   62.4830 C.ar   36  C36         0.0000
    754  C6        46.6120   40.0490   63.8080 C.ar   36  C36         0.0000
    755  OP1       50.3180   36.9360   66.5910 O.2    36  C36         0.0000
    756  OP2       47.9280   36.0740   66.9640 O.co2  36  C36        -1.0000
    757  P         44.4510   36.3180   67.8080 P.3    37  G37         0.0000
    758  C5'       41.9150   35.9490   67.3620 C.3    37  G37         0.0000
    759  O5'       42.9260   36.5110   68.1740 O.3    37  G37         0.0000
    760  C4'       40.9570   37.0170   66.9810 C.3    37  G37         0.0000
    761  O4'       41.6880   38.0460   66.2680 O.3    37  G37         0.0000
    762  C3'       39.8490   36.5990   66.0480 C.3    37  G37         0.0000
    763  O3'       38.8020   36.0640   66.8440 O.3    37  G37         0.0000
    764  C2'       39.4860   37.9390   65.4260 C.3    37  G37         0.0000
    765  O2'       38.7680   38.7240   66.3610 O.3    37  G37         0.0000
    766  C1'       40.8730   38.5640   65.2400 C.3    37  G37         0.0000
    767  N1        40.7600   39.2850   60.2510 N.ar   37  G37         0.0000
    768  C2        39.8610   39.6500   61.2120 C.ar   37  G37         0.0000
    769  N2        38.7920   40.3350   60.7880 N.pl3  37  G37         0.0000
    770  N3        39.9900   39.3690   62.4890 N.ar   37  G37         0.0000
    771  C4        41.1090   38.6880   62.7390 C.ar   37  G37         0.0000
    772  C5        42.0780   38.2630   61.8530 C.ar   37  G37         0.0000
    773  C6        41.9230   38.5670   60.4800 C.ar   37  G37         0.0000
    774  O6        42.6670   38.2730   59.5310 O.2    37  G37         0.0000
    775  N7        43.0880   37.5750   62.5140 N.ar   37  G37         0.0000
    776  C8        42.7150   37.6020   63.7680 C.ar   37  G37         0.0000
    777  N9        41.5310   38.2850   63.9670 N.ar   37  G37         0.0000
    778  OP1       44.9900   35.3610   68.7950 O.3    37  G37        -0.5000
    779  OP2       44.4990   35.9940   66.3650 O.co2  37  G37        -0.5000
    780  P         37.7730   34.9940   66.2130 P.3    38  A38         0.0000
    781  C5'       35.8500   36.5280   65.3400 C.3    38  A38         0.0000
    782  O5'       37.0280   35.7980   65.0580 O.3    38  A38         0.0000
    783  C4'       35.3460   37.1890   64.0960 C.3    38  A38         0.0000
    784  O4'       36.4480   37.9120   63.4980 O.3    38  A38         0.0000
    785  C3'       34.8810   36.2730   62.9830 C.3    38  A38         0.0000
    786  O3'       33.5210   35.9170   63.1880 O.3    38  A38         0.0000
    787  C2'       35.0030   37.2030   61.7900 C.3    38  A38         0.0000
    788  O2'       34.0070   38.2050   61.8260 O.3    38  A38         0.0000
    789  C1'       36.3390   37.8680   62.0850 C.3    38  A38         0.0000
    790  N1        38.9110   36.4900   57.8620 N.ar   38  A38         0.0000
    791  C2        37.7980   37.2110   58.0440 C.ar   38  A38         0.0000
    792  N3        37.1800   37.5350   59.1750 N.ar   38  A38         0.0000
    793  C4        37.8310   37.0210   60.2310 C.ar   38  A38         0.0000
    794  C5        38.9850   36.2630   60.2040 C.ar   38  A38         0.0000
    795  C6        39.5390   35.9940   58.9460 C.ar   38  A38         0.0000
    796  N6        40.6450   35.2770   58.7660 N.pl3  38  A38         0.0000
    797  N7        39.3660   35.8960   61.4880 N.ar   38  A38         0.0000
    798  C8        38.4450   36.4310   62.2490 C.ar   38  A38         0.0000
    799  N9        37.4860   37.1330   61.5540 N.ar   38  A38         0.0000
    800  OP1       36.7600   34.6590   67.2510 O.3    38  A38        -0.5000
    801  OP2       38.5670   33.8960   65.5750 O.co2  38  A38        -0.5000
    802  P         32.9630   34.4930   62.6640 P.3    39  G39         0.0000
    803  C5'       32.5690   35.1570   60.1600 C.3    39  G39         0.0000
    804  O5'       33.3380   34.4500   61.1180 O.3    39  G39         0.0000
    805  C4'       33.1600   34.9530   58.7930 C.3    39  G39         0.0000
    806  O4'       34.5490   35.3830   58.8270 O.3    39  G39         0.0000
    807  C3'       33.2430   33.5070   58.3350 C.3    39  G39         0.0000
    808  O3'       32.0050   33.1400   57.7280 O.3    39  G39         0.0000
    809  C2'       34.3720   33.5800   57.3140 C.3    39  G39         0.0000
    810  O2'       33.9450   34.2360   56.1400 O.3    39  G39         0.0000
    811  C1'       35.3360   34.5380   58.0040 C.3    39  G39         0.0000
    812  N1        39.8960   32.3010   58.0880 N.ar   39  G39         0.0000
    813  C2        39.1430   32.7060   57.0150 C.ar   39  G39         0.0000
    814  N2        39.6930   32.5370   55.8090 N.pl3  39  G39         0.0000
    815  N3        37.9430   33.2490   57.1160 N.ar   39  G39         0.0000
    816  C4        37.5470   33.3630   58.3980 C.ar   39  G39         0.0000
    817  C5        38.2200   32.9900   59.5410 C.ar   39  G39         0.0000
    818  C6        39.5150   32.4210   59.4200 C.ar   39  G39         0.0000
    819  O6        40.2950   32.0640   60.3250 O.2    39  G39         0.0000
    820  N7        37.4660   33.2730   60.6710 N.ar   39  G39         0.0000
    821  C8        36.3700   33.8160   60.2040 C.ar   39  G39         0.0000
    822  N9        36.3650   33.9190   58.8330 N.ar   39  G39         0.0000
    823  OP1       31.4740   34.5370   62.7820 O.2    39  G39        -0.5000
    824  OP2       33.7260   33.4090   63.3400 O.co2  39  G39        -0.5000
    825  P         31.5420   31.5930   57.6980 P.3    40  A40         0.0000
    826  C5'       32.2400   31.3210   55.1920 C.3    40  A40         0.0000
    827  O5'       32.4220   30.9350   56.5480 O.3    40  A40         0.0000
    828  C4'       33.3400   30.7470   54.3480 C.3    40  A40         0.0000
    829  O4'       34.5950   31.3490   54.7450 O.3    40  A40         0.0000
    830  C3'       33.5610   29.2540   54.5290 C.3    40  A40         0.0000
    831  O3'       32.6910   28.5420   53.6460 O.3    40  A40         0.0000
    832  C2'       35.0140   29.1060   54.1070 C.3    40  A40         0.0000
    833  O2'       35.1310   29.1360   52.7050 O.3    40  A40         0.0000
    834  C1'       35.6320   30.3890   54.6680 C.3    40  A40         0.0000
    835  N1        39.6870   28.9000   57.4520 N.ar   40  A40         0.0000
    836  C2        39.5200   29.0680   56.1410 C.ar   40  A40         0.0000
    837  N3        38.4490   29.4950   55.4750 N.ar   40  A40         0.0000
    838  C4        37.4450   29.7740   56.3230 C.ar   40  A40         0.0000
    839  C5        37.4720   29.6620   57.6990 C.ar   40  A40         0.0000
    840  C6        38.6580   29.1960   58.2770 C.ar   40  A40         0.0000
    841  N6        38.8220   29.0280   59.5940 N.pl3  40  A40         0.0000
    842  N7        36.2540   30.0400   58.2450 N.ar   40  A40         0.0000
    843  C8        35.5250   30.3580   57.2010 C.ar   40  A40         0.0000
    844  N9        36.1760   30.1980   56.0070 N.ar   40  A40         0.0000
    845  OP1       30.1340   31.5870   57.2320 O.2    40  A40        -0.5000
    846  OP2       31.9020   30.9410   58.9910 O.co2  40  A40        -0.5000
    847  P         31.8790   27.2540   54.1710 P.3    41  G41         0.0000
    848  C5'       33.8870   26.1110   52.9470 C.3    41  G41         0.0000
    849  O5'       32.8940   26.0390   53.9650 O.3    41  G41         0.0000
    850  C4'       34.3290   24.7320   52.5020 C.3    41  G41         0.0000
    851  O4'       35.3380   24.2160   53.4120 O.3    41  G41         0.0000
    852  C3'       33.1920   23.7190   52.5210 C.3    41  G41         0.0000
    853  O3'       32.9840   23.0140   51.2980 O.3    41  G41         0.0000
    854  C2'       33.3500   22.9200   53.8110 C.3    41  G41         0.0000
    855  O2'       33.1440   21.5420   53.5890 O.3    41  G41         0.0000
    856  C1'       34.8380   23.1000   54.1070 C.3    41  G41         0.0000
    857  N1        38.7090   22.3390   57.2820 N.ar   41  G41         0.0000
    858  C2        38.6770   22.2670   55.9110 C.ar   41  G41         0.0000
    859  N2        39.8290   21.9230   55.3170 N.pl3  41  G41         0.0000
    860  N3        37.5970   22.5140   55.1810 N.ar   41  G41         0.0000
    861  C4        36.5360   22.8440   55.9480 C.ar   41  G41         0.0000
    862  C5        36.4650   22.9470   57.3210 C.ar   41  G41         0.0000
    863  C6        37.6300   22.6770   58.0900 C.ar   41  G41         0.0000
    864  O6        37.7680   22.7080   59.3180 O.2    41  G41         0.0000
    865  N7        35.1890   23.3220   57.7210 N.ar   41  G41         0.0000
    866  C8        34.5200   23.4360   56.6050 C.ar   41  G41         0.0000
    867  N9        35.2730   23.1430   55.4970 N.ar   41  G41         0.0000
    868  OP1       30.7340   27.0930   53.2490 O.2    41  G41        -0.5000
    869  OP2       31.6300   27.3960   55.6250 O.co2  41  G41        -0.5000
    870  P         31.5380   22.4090   50.9590 P.3    42  C42         0.0000
    871  C5'       30.7710   20.1990   52.1640 C.3    42  C42         0.0000
    872  O5'       31.6730   20.8510   51.2670 O.3    42  C42         0.0000
    873  C4'       30.4980   18.7820   51.7050 C.3    42  C42         0.0000
    874  O4'       29.6470   18.8000   50.5280 O.3    42  C42         0.0000
    875  C3'       31.7220   17.9910   51.2750 C.3    42  C42         0.0000
    876  O3'       32.3970   17.3970   52.3750 O.3    42  C42         0.0000
    877  C2'       31.1260   16.9480   50.3400 C.3    42  C42         0.0000
    878  O2'       30.5630   15.8430   51.0150 O.3    42  C42         0.0000
    879  C1'       30.0270   17.7540   49.6480 C.3    42  C42         0.0000
    880  N1        30.4630   18.3560   48.3770 N.ar   42  C42         0.0000
    881  C2        30.5920   17.5360   47.2500 C.ar   42  C42         0.0000
    882  O2        30.3400   16.3270   47.3570 O.2    42  C42         0.0000
    883  N3        30.9850   18.0840   46.0760 N.ar   42  C42         0.0000
    884  C4        31.2410   19.3930   46.0030 C.ar   42  C42         0.0000
    885  N4        31.6170   19.8940   44.8260 N.pl3  42  C42         0.0000
    886  C5        31.1200   20.2480   47.1350 C.ar   42  C42         0.0000
    887  C6        30.7340   19.6930   48.2910 C.ar   42  C42         0.0000
    888  OP1       31.3120   22.5820   49.5020 O.2    42  C42        -0.5000
    889  OP2       30.5810   23.0030   51.9250 O.co2  42  C42        -0.5000
    890  P         33.9460   17.0030   52.2230 P.3    43  A43         0.0000
    891  C5'       33.5970   14.4740   51.6080 C.3    43  A43         0.0000
    892  O5'       33.9300   15.7930   51.1870 O.3    43  A43         0.0000
    893  C4'       33.9320   13.4810   50.5210 C.3    43  A43         0.0000
    894  O4'       33.0600   13.6990   49.3790 O.3    43  A43         0.0000
    895  C3'       35.3310   13.6020   49.9430 C.3    43  A43         0.0000
    896  O3'       36.2840   12.9070   50.7290 O.3    43  A43         0.0000
    897  C2'       35.1630   12.9580   48.5770 C.3    43  A43         0.0000
    898  O2'       35.1330   11.5460   48.6510 O.3    43  A43         0.0000
    899  C1'       33.7840   13.4820   48.1780 C.3    43  A43         0.0000
    900  N1        34.8900   15.8060   43.7340 N.ar   43  A43         0.0000
    901  C2        34.9370   14.5260   44.1120 C.ar   43  A43         0.0000
    902  N3        34.6390   13.9850   45.2870 N.ar   43  A43         0.0000
    903  C4        34.2470   14.9300   46.1570 C.ar   43  A43         0.0000
    904  C5        34.1490   16.2860   45.9160 C.ar   43  A43         0.0000
    905  C6        34.4910   16.7310   44.6320 C.ar   43  A43         0.0000
    906  N6        34.4420   18.0090   44.2530 N.pl3  43  A43         0.0000
    907  N7        33.7130   16.9560   47.0500 N.ar   43  A43         0.0000
    908  C8        33.5580   16.0030   47.9350 C.ar   43  A43         0.0000
    909  N9        33.8590   14.7520   47.4610 N.ar   43  A43         0.0000
    910  OP1       34.4820   16.4920   53.5130 O.3    43  A43        -0.5000
    911  OP2       34.6060   18.1560   51.5590 O.co2  43  A43        -0.5000
    912  P         37.8180   13.3720   50.6930 P.3    44  G44         0.0000
    913  C5'       38.5490   11.5830   48.9150 C.3    44  G44         0.0000
    914  O5'       38.3130   12.9520   49.2370 O.3    44  G44         0.0000
    915  C4'       39.0900   11.4610   47.5100 C.3    44  G44         0.0000
    916  O4'       38.0910   11.9410   46.5700 O.3    44  G44         0.0000
    917  C3'       40.3300   12.2890   47.2040 C.3    44  G44         0.0000
    918  O3'       41.5200   11.6060   47.5970 O.3    44  G44         0.0000
    919  C2'       40.2390   12.4480   45.6920 C.3    44  G44         0.0000
    920  O2'       40.6970   11.3070   44.9960 O.3    44  G44         0.0000
    921  C1'       38.7290   12.6120   45.4970 C.3    44  G44         0.0000
    922  N1        38.1180   16.8850   42.8240 N.ar   44  G44         0.0000
    923  C2        38.5310   15.6470   42.4020 C.ar   44  G44         0.0000
    924  N2        38.8310   15.5380   41.1020 N.pl3  44  G44         0.0000
    925  N3        38.6410   14.5930   43.1950 N.ar   44  G44         0.0000
    926  C4        38.2980   14.8840   44.4690 C.ar   44  G44         0.0000
    927  C5        37.8720   16.0860   44.9930 C.ar   44  G44         0.0000
    928  C6        37.7600   17.2080   44.1280 C.ar   44  G44         0.0000
    929  O6        37.4010   18.3590   44.4010 O.2    44  G44         0.0000
    930  N7        37.6180   15.9680   46.3530 N.ar   44  G44         0.0000
    931  C8        37.8910   14.7220   46.6260 C.ar   44  G44         0.0000
    932  N9        38.3170   14.0100   45.5300 N.ar   44  G44         0.0000
    933  OP1       38.5810   12.5770   51.6980 O.3    44  G44        -0.5000
    934  OP2       37.8130   14.8620   50.7770 O.co2  44  G44        -0.5000
    935  P         42.8710   12.4420   47.8670 P.3    45  G45         0.0000
    936  C5'       43.7550   12.0550   45.4180 C.3    45  G45         0.0000
    937  O5'       43.2980   12.9650   46.4190 O.3    45  G45         0.0000
    938  C4'       43.9520   12.7650   44.0930 C.3    45  G45         0.0000
    939  O4'       42.6800   13.2760   43.6130 O.3    45  G45         0.0000
    940  C3'       44.8500   13.9900   44.1000 C.3    45  G45         0.0000
    941  O3'       46.2270   13.6380   44.0400 O.3    45  G45         0.0000
    942  C2'       44.4060   14.7140   42.8350 C.3    45  G45         0.0000
    943  O2'       44.9830   14.1850   41.6610 O.3    45  G45         0.0000
    944  C1'       42.8990   14.4490   42.8440 C.3    45  G45         0.0000
    945  N1        40.9830   19.0960   42.1770 N.ar   45  G45         0.0000
    946  C2        41.6390   18.2910   41.2850 C.ar   45  G45         0.0000
    947  N2        41.8200   18.8000   40.0570 N.pl3  45  G45         0.0000
    948  N3        42.0850   17.0800   41.5720 N.ar   45  G45         0.0000
    949  C4        41.8150   16.7330   42.8490 C.ar   45  G45         0.0000
    950  C5        41.1640   17.4630   43.8190 C.ar   45  G45         0.0000
    951  C6        40.6940   18.7620   43.4960 C.ar   45  G45         0.0000
    952  O6        40.1000   19.5700   44.2200 O.2    45  G45         0.0000
    953  N7        41.0900   16.7490   45.0070 N.ar   45  G45         0.0000
    954  C8        41.6890   15.6210   44.7440 C.ar   45  G45         0.0000
    955  N9        42.1600   15.5490   43.4550 N.ar   45  G45         0.0000
    956  OP1       43.9050   11.4930   48.3620 O.2    45  G45        -0.5000
    957  OP2       42.5140   13.6310   48.6890 O.co2  45  G45        -0.5000
    958  P         47.3330   14.6620   44.6060 P.3    46  G46         0.0000
    959  C5'       47.6840   15.5870   42.1750 C.3    46  G46         0.0000
    960  O5'       47.3480   15.8450   43.5330 O.3    46  G46         0.0000
    961  C4'       47.3380   16.7710   41.3010 C.3    46  G46         0.0000
    962  O4'       45.9110   17.0300   41.3700 O.3    46  G46         0.0000
    963  C3'       47.9400   18.1160   41.6620 C.3    46  G46         0.0000
    964  O3'       49.2780   18.2490   41.2170 O.3    46  G46         0.0000
    965  C2'       47.0340   19.0560   40.8870 C.3    46  G46         0.0000
    966  O2'       47.3240   19.0450   39.5090 O.3    46  G46         0.0000
    967  C1'       45.6710   18.4100   41.1240 C.3    46  G46         0.0000
    968  N1        43.2640   22.4850   42.9740 N.ar   46  G46         0.0000
    969  C2        43.7800   22.2710   41.7200 C.ar   46  G46         0.0000
    970  N2        43.6440   23.2810   40.8500 N.pl3  46  G46         0.0000
    971  N3        44.3830   21.1500   41.3470 N.ar   46  G46         0.0000
    972  C4        44.4330   20.2450   42.3510 C.ar   46  G46         0.0000
    973  C5        43.9500   20.3600   43.6370 C.ar   46  G46         0.0000
    974  C6        43.3010   21.5700   44.0220 C.ar   46  G46         0.0000
    975  O6        42.8050   21.8670   45.1160 O.2    46  G46         0.0000
    976  N7        44.2070   19.2040   44.3640 N.ar   46  G46         0.0000
    977  C8        44.8270   18.4230   43.5230 C.ar   46  G46         0.0000
    978  N9        45.0020   18.9930   42.2840 N.ar   46  G46         0.0000
    979  OP1       48.6560   13.9890   44.5900 O.2    46  G46        -0.5000
    980  OP2       46.8060   15.2040   45.8830 O.co2  46  G46        -0.5000
    981  P         50.2920   19.2030   42.0260 P.3    47  U47         0.0000
    982  C5'       49.7370   21.4260   40.7720 C.3    47  U47         0.0000
    983  O5'       49.6250   20.6440   41.9500 O.3    47  U47         0.0000
    984  C4'       49.1240   22.7830   40.9910 C.3    47  U47         0.0000
    985  O4'       47.7090   22.6270   41.2920 O.3    47  U47         0.0000
    986  C3'       49.6420   23.5630   42.1880 C.3    47  U47         0.0000
    987  O3'       50.8880   24.1930   41.9180 O.3    47  U47         0.0000
    988  C2'       48.5140   24.5610   42.3910 C.3    47  U47         0.0000
    989  O2'       48.5040   25.5640   41.3930 O.3    47  U47         0.0000
    990  C1'       47.3000   23.6560   42.1870 C.3    47  U47         0.0000
    991  N1        46.8660   23.0450   43.4520 N.ar   47  U47         0.0000
    992  C2        46.0620   23.8050   44.2760 C.ar   47  U47         0.0000
    993  O2        45.7010   24.9310   43.9840 O.2    47  U47         0.0000
    994  N3        45.6960   23.1990   45.4510 N.ar   47  U47         0.0000
    995  C4        46.0440   21.9340   45.8760 C.ar   47  U47         0.0000
    996  O4        45.6330   21.5240   46.9620 O.2    47  U47         0.0000
    997  C5        46.8750   21.2070   44.9650 C.ar   47  U47         0.0000
    998  C6        47.2480   21.7730   43.8120 C.ar   47  U47         0.0000
    999  OP1       51.5610   19.2740   41.2560 O.2    47  U47        -0.5000
   1000  OP2       50.3170   18.7730   43.4530 O.co2  47  U47        -0.5000
   1001  P         51.8100   24.6890   43.1400 P.3    48  U48         0.0000
   1002  C5'       50.7140   26.9550   42.4930 C.3    48  U48         0.0000
   1003  O5'       51.1840   26.1050   43.5280 O.3    48  U48         0.0000
   1004  C4'       50.1740   28.2620   43.0290 C.3    48  U48         0.0000
   1005  O4'       48.9040   28.0400   43.7090 O.3    48  U48         0.0000
   1006  C3'       51.1000   28.8840   44.0660 C.3    48  U48         0.0000
   1007  O3'       51.6160   30.1730   43.7320 O.3    48  U48         0.0000
   1008  C2'       50.4980   28.5680   45.4360 C.3    48  U48         0.0000
   1009  O2'       50.5050   29.6770   46.3070 O.3    48  U48         0.0000
   1010  C1'       49.0310   28.3270   45.0850 C.3    48  U48         0.0000
   1011  N1        48.2750   27.3640   45.9000 N.ar   48  U48         0.0000
   1012  C2        47.1260   27.8420   46.5010 C.ar   48  U48         0.0000
   1013  O2        46.7220   28.9750   46.3270 O.2    48  U48         0.0000
   1014  N3        46.4700   26.9520   47.3080 N.ar   48  U48         0.0000
   1015  C4        46.8310   25.6560   47.5690 C.ar   48  U48         0.0000
   1016  O4        46.1400   24.9820   48.3310 O.2    48  U48         0.0000
   1017  C5        48.0220   25.2200   46.8990 C.ar   48  U48         0.0000
   1018  C6        48.6850   26.0680   46.1000 C.ar   48  U48         0.0000
   1019  OP1       53.1740   24.9150   42.6090 O.2    48  U48        -0.5000
   1020  OP2       51.6050   23.7390   44.2610 O.co2  48  U48        -0.5000
   1021  P         52.5190   30.9870   44.7860 P.3    49  U49         0.0000
   1022  C5'       51.0820   33.0720   44.1640 C.3    49  U49         0.0000
   1023  O5'       51.5860   32.2170   45.1760 O.3    49  U49         0.0000
   1024  C4'       49.8980   33.8570   44.6680 C.3    49  U49         0.0000
   1025  O4'       49.5130   34.7710   43.6130 O.3    49  U49         0.0000
   1026  C3'       48.6450   33.0520   44.9720 C.3    49  U49         0.0000
   1027  O3'       48.1910   32.8840   46.3220 O.3    49  U49         0.0000
   1028  C2'       47.7420   33.1410   43.7480 C.3    49  U49         0.0000
   1029  O2'       46.3940   33.4040   44.0650 O.3    49  U49         0.0000
   1030  C1'       48.3020   34.3580   43.0060 C.3    49  U49         0.0000
   1031  N1        48.5830   34.0520   41.5970 N.ar   49  U49         0.0000
   1032  C2        48.0050   34.8570   40.6370 C.ar   49  U49         0.0000
   1033  O2        47.3210   35.8250   40.9120 O.2    49  U49         0.0000
   1034  N3        48.2610   34.4870   39.3400 N.ar   49  U49         0.0000
   1035  C4        49.0310   33.4220   38.9150 C.ar   49  U49         0.0000
   1036  O4        49.1580   33.2090   37.7070 O.2    49  U49         0.0000
   1037  C5        49.6140   32.6480   39.9700 C.ar   49  U49         0.0000
   1038  C6        49.3770   32.9840   41.2440 C.ar   49  U49         0.0000
   1039  OP1       53.6810   31.5420   44.0400 O.2    49  U49        -0.5000
   1040  OP2       52.7560   30.1490   45.9940 O.co2  49  U49        -0.5000
   1041  P         47.2350   33.9910   47.0060 P.3    50  A50         0.0000
   1042  C5'       44.7190   33.7070   46.2740 C.3    50  A50         0.0000
   1043  O5'       45.8000   33.2930   47.1150 O.3    50  A50         0.0000
   1044  C4'       43.3940   33.6780   47.0170 C.3    50  A50         0.0000
   1045  O4'       42.9680   32.3110   47.2490 O.3    50  A50         0.0000
   1046  C3'       43.4740   34.3310   48.3910 C.3    50  A50         0.0000
   1047  O3'       42.3650   35.2090   48.5760 O.3    50  A50         0.0000
   1048  C2'       43.6440   33.1760   49.3880 C.3    50  A50         0.0000
   1049  O2'       42.9030   33.3200   50.5810 O.3    50  A50         0.0000
   1050  C1'       43.0050   32.0180   48.6240 C.3    50  A50         0.0000
   1051  N1        42.1370   27.6300   51.0660 N.ar   50  A50         0.0000
   1052  C2        41.5480   28.8230   51.1170 C.ar   50  A50         0.0000
   1053  N3        41.8500   29.9340   50.4630 N.ar   50  A50         0.0000
   1054  C4        42.9100   29.7420   49.6620 C.ar   50  A50         0.0000
   1055  C5        43.6230   28.5740   49.5010 C.ar   50  A50         0.0000
   1056  C6        43.1990   27.4650   50.2500 C.ar   50  A50         0.0000
   1057  N6        43.7800   26.2640   50.2000 N.pl3  50  A50         0.0000
   1058  N7        44.6560   28.7530   48.5920 N.ar   50  A50         0.0000
   1059  C8        44.5410   30.0090   48.2260 C.ar   50  A50         0.0000
   1060  N9        43.4940   30.6590   48.8220 N.ar   50  A50         0.0000
   1061  OP1       47.1420   35.1760   46.1130 O.2    50  A50        -0.5000
   1062  OP2       47.7480   34.1600   48.3860 O.co2  50  A50        -0.5000
   1063  P         42.5660   36.6660   49.2090 P.3    51  U51         0.0000
   1064  C5'       39.9940   37.1130   49.0610 C.3    51  U51         0.0000
   1065  O5'       41.1470   36.9500   49.8760 O.3    51  U51         0.0000
   1066  C4'       38.8000   37.4760   49.9040 C.3    51  U51         0.0000
   1067  O4'       38.4870   36.3760   50.7990 O.3    51  U51         0.0000
   1068  C3'       38.9860   38.6630   50.8310 C.3    51  U51         0.0000
   1069  O3'       38.7400   39.8770   50.1500 O.3    51  U51         0.0000
   1070  C2'       37.9160   38.4070   51.8750 C.3    51  U51         0.0000
   1071  O2'       36.6280   38.7420   51.4110 O.3    51  U51         0.0000
   1072  C1'       38.0220   36.8930   52.0340 C.3    51  U51         0.0000
   1073  N1        38.9790   36.5180   53.0850 N.ar   51  U51         0.0000
   1074  C2        38.5880   36.7160   54.3810 C.ar   51  U51         0.0000
   1075  O2        37.5120   37.2060   54.6680 O.2    51  U51         0.0000
   1076  N3        39.4960   36.3280   55.3280 N.ar   51  U51         0.0000
   1077  C4        40.7380   35.7800   55.1030 C.ar   51  U51         0.0000
   1078  O4        41.4480   35.4710   56.0600 O.2    51  U51         0.0000
   1079  C5        41.0770   35.6230   53.7260 C.ar   51  U51         0.0000
   1080  C6        40.2070   35.9880   52.7880 C.ar   51  U51         0.0000
   1081  OP1       42.7270   37.6400   48.0950 O.2    51  U51        -0.5000
   1082  OP2       43.6060   36.5730   50.2620 O.co2  51  U51        -0.5000
   1083  P         39.5290   41.2010   50.5920 P.3    52  C52         0.0000
   1084  C5'       37.4830   41.7870   52.1110 C.3    52  C52         0.0000
   1085  O5'       38.8810   41.5600   51.9970 O.3    52  C52         0.0000
   1086  C4'       37.0970   41.9010   53.5610 C.3    52  C52         0.0000
   1087  O4'       37.3540   40.6360   54.2220 O.3    52  C52         0.0000
   1088  C3'       37.9250   42.8650   54.3850 C.3    52  C52         0.0000
   1089  O3'       37.5120   44.1940   54.1820 O.3    52  C52         0.0000
   1090  C2'       37.6250   42.3890   55.7910 C.3    52  C52         0.0000
   1091  O2'       36.3340   42.7800   56.2020 O.3    52  C52         0.0000
   1092  C1'       37.6430   40.8760   55.5900 C.3    52  C52         0.0000
   1093  N1        38.9420   40.2810   55.9020 N.ar   52  C52         0.0000
   1094  C2        39.2930   40.1400   57.2380 C.ar   52  C52         0.0000
   1095  O2        38.5200   40.5560   58.0930 O.2    52  C52         0.0000
   1096  N3        40.4670   39.5540   57.5590 N.ar   52  C52         0.0000
   1097  C4        41.2800   39.1200   56.5920 C.ar   52  C52         0.0000
   1098  N4        42.4160   38.5230   56.9540 N.pl3  52  C52         0.0000
   1099  C5        40.9560   39.2740   55.2100 C.ar   52  C52         0.0000
   1100  C6        39.7870   39.8570   54.9130 C.ar   52  C52         0.0000
   1101  OP1       39.2080   42.3000   49.6440 O.2    52  C52        -0.5000
   1102  OP2       40.9440   40.8040   50.8140 O.co2  52  C52        -0.5000
   1103  P         38.5770   45.2740   53.6560 P.3    53  G53         0.0000
   1104  C5'       38.2480   46.8810   55.7130 C.3    53  G53         0.0000
   1105  O5'       39.1010   46.0040   54.9770 O.3    53  G53         0.0000
   1106  C4'       38.1480   46.4400   57.1600 C.3    53  G53         0.0000
   1107  O4'       38.2060   44.9900   57.2260 O.3    53  G53         0.0000
   1108  C3'       39.2530   46.8560   58.1120 C.3    53  G53         0.0000
   1109  O3'       39.0140   48.1650   58.5910 O.3    53  G53         0.0000
   1110  C2'       39.0440   45.8650   59.2420 C.3    53  G53         0.0000
   1111  O2'       37.8870   46.1830   59.9890 O.3    53  G53         0.0000
   1112  C1'       38.7810   44.5870   58.4540 C.3    53  G53         0.0000
   1113  N1        42.6170   42.0110   60.5040 N.ar   53  G53         0.0000
   1114  C2        41.5600   42.6310   61.1130 C.ar   53  G53         0.0000
   1115  N2        41.5210   42.5650   62.4470 N.pl3  53  G53         0.0000
   1116  N3        40.6140   43.2730   60.4620 N.ar   53  G53         0.0000
   1117  C4        40.8160   43.2570   59.1260 C.ar   53  G53         0.0000
   1118  C5        41.8390   42.6730   58.4210 C.ar   53  G53         0.0000
   1119  C6        42.8450   41.9790   59.1350 C.ar   53  G53         0.0000
   1120  O6        43.8330   41.3960   58.6990 O.2    53  G53         0.0000
   1121  N7        41.6850   42.8930   57.0610 N.ar   53  G53         0.0000
   1122  C8        40.5870   43.5950   56.9630 C.ar   53  G53         0.0000
   1123  N9        40.0070   43.8480   58.1800 N.ar   53  G53         0.0000
   1124  OP1       37.7980   46.2360   52.8370 O.2    53  G53        -0.5000
   1125  OP2       39.7300   44.5550   53.0530 O.co2  53  G53        -0.5000
   1126  P         40.2490   49.0880   59.0360 P.3    54  A54         0.0000
   1127  C5'       39.8530   48.5980   61.5740 C.3    54  A54         0.0000
   1128  O5'       40.7030   48.5050   60.4450 O.3    54  A54         0.0000
   1129  C4'       40.5750   48.1030   62.7890 C.3    54  A54         0.0000
   1130  O4'       40.8860   46.6960   62.6240 O.3    54  A54         0.0000
   1131  C3'       41.9290   48.7530   63.0030 C.3    54  A54         0.0000
   1132  O3'       41.7640   50.0010   63.6670 O.3    54  A54         0.0000
   1133  C2'       42.6330   47.7190   63.8690 C.3    54  A54         0.0000
   1134  O2'       42.1980   47.8070   65.2070 O.3    54  A54         0.0000
   1135  C1'       42.1230   46.4080   63.2540 C.3    54  A54         0.0000
   1136  N1        46.4440   43.7060   62.6620 N.ar   54  A54         0.0000
   1137  C2        45.7680   44.1110   63.7380 C.ar   54  A54         0.0000
   1138  N3        44.6320   44.7970   63.8120 N.ar   54  A54         0.0000
   1139  C4        44.1680   45.0860   62.5870 C.ar   54  A54         0.0000
   1140  C5        44.7410   44.7360   61.3850 C.ar   54  A54         0.0000
   1141  C6        45.9490   44.0010   61.4460 C.ar   54  A54         0.0000
   1142  N6        46.6240   43.5800   60.3830 N.pl3  54  A54         0.0000
   1143  N7        43.9690   45.1950   60.3230 N.ar   54  A54         0.0000
   1144  C8        42.9670   45.8090   60.9030 C.ar   54  A54         0.0000
   1145  N9        43.0330   45.7960   62.2750 N.ar   54  A54         0.0000
   1146  OP1       39.7030   50.4560   59.2610 O.3    54  A54        -0.5000
   1147  OP2       41.3710   48.8840   58.0760 O.co2  54  A54        -0.5000
   1148  P         42.8950   51.1460   63.5400 P.3    55  G55         0.0000
   1149  C5'       44.8660   51.4100   65.2980 C.3    55  G55         0.0000
   1150  O5'       43.4660   51.2370   65.0380 O.3    55  G55         0.0000
   1151  C4'       45.0980   51.6830   66.7730 C.3    55  G55         0.0000
   1152  O4'       43.9470   52.3180   67.3210 O.3    55  G55         0.0000
   1153  C3'       45.3970   50.4710   67.6320 C.3    55  G55         0.0000
   1154  O3'       46.7320   50.6340   68.1440 O.3    55  G55         0.0000
   1155  C2'       44.5190   50.6190   68.8860 C.3    55  G55         0.0000
   1156  O2'       45.2780   50.6620   70.0700 O.3    55  G55         0.0000
   1157  C1'       43.8210   51.9590   68.6610 C.3    55  G55         0.0000
   1158  N1        38.9620   50.9660   67.6450 N.ar   55  G55         0.0000
   1159  C2        40.0870   50.3290   67.1930 C.ar   55  G55         0.0000
   1160  N2        39.8970   49.3640   66.2800 N.pl3  55  G55         0.0000
   1161  N3        41.3100   50.6160   67.5960 N.ar   55  G55         0.0000
   1162  C4        41.3210   51.6170   68.4940 C.ar   55  G55         0.0000
   1163  C5        40.2560   52.3240   69.0100 C.ar   55  G55         0.0000
   1164  C6        38.9470   51.9990   68.5690 C.ar   55  G55         0.0000
   1165  O6        37.8740   52.5120   68.8980 O.2    55  G55         0.0000
   1166  N7        40.6900   53.2780   69.9230 N.ar   55  G55         0.0000
   1167  C8        41.9900   53.1430   69.9340 C.ar   55  G55         0.0000
   1168  N9        42.4360   52.1970   69.0450 N.ar   55  G55         0.0000
   1169  OP1       42.1910   52.4110   63.2140 O.3    55  G55        -0.5000
   1170  OP2       43.9830   50.6750   62.6450 O.co2  55  G55        -0.5000
   1171  P         48.0220   50.5860   67.1810 P.3    56  A56         0.0000
   1172  C5'       48.8550   48.1990   67.8940 C.3    56  A56         0.0000
   1173  O5'       48.2070   49.0280   66.9340 O.3    56  A56         0.0000
   1174  C4'       49.5780   47.0950   67.1790 C.3    56  A56         0.0000
   1175  O4'       48.5850   46.2790   66.5040 O.3    56  A56         0.0000
   1176  C3'       50.4920   47.6120   66.0820 C.3    56  A56         0.0000
   1177  O3'       51.8020   47.8470   66.5900 O.3    56  A56         0.0000
   1178  C2'       50.4280   46.5000   65.0450 C.3    56  A56         0.0000
   1179  O2'       51.2660   45.4100   65.3690 O.3    56  A56         0.0000
   1180  C1'       48.9690   46.0660   65.1680 C.3    56  A56         0.0000
   1181  N1        47.2770   47.1140   60.4290 N.ar   56  A56         0.0000
   1182  C2        48.3180   46.4060   60.8630 C.ar   56  A56         0.0000
   1183  N3        48.7290   46.1910   62.1060 N.ar   56  A56         0.0000
   1184  C4        47.9300   46.8170   62.9790 C.ar   56  A56         0.0000
   1185  C5        46.8240   47.5890   62.6810 C.ar   56  A56         0.0000
   1186  C6        46.4930   47.7300   61.3320 C.ar   56  A56         0.0000
   1187  N6        45.4470   48.4320   60.8940 N.pl3  56  A56         0.0000
   1188  N7        46.2400   48.0750   63.8420 N.ar   56  A56         0.0000
   1189  C8        46.9920   47.5860   64.8000 C.ar   56  A56         0.0000
   1190  N9        48.0190   46.8010   64.3470 N.ar   56  A56         0.0000
   1191  OP1       49.1660   51.0470   67.9990 O.3    56  A56        -0.5000
   1192  OP2       47.7700   51.2260   65.8720 O.co2  56  A56        -0.5000
   1193  P         52.6060   49.1700   66.1420 P.3    57  C57         0.0000
   1194  C5'       53.5840   47.5280   64.3740 C.3    57  C57         0.0000
   1195  O5'       53.1050   48.8270   64.6720 O.3    57  C57         0.0000
   1196  C4'       54.0430   47.4500   62.9410 C.3    57  C57         0.0000
   1197  O4'       52.8930   47.4480   62.0500 O.3    57  C57         0.0000
   1198  C3'       54.8540   48.6550   62.5270 C.3    57  C57         0.0000
   1199  O3'       56.2770   48.6400   62.5690 O.3    57  C57         0.0000
   1200  C2'       53.9260   49.6040   61.7740 C.3    57  C57         0.0000
   1201  O2'       54.5160   50.1850   60.6310 O.3    57  C57         0.0000
   1202  C1'       52.8110   48.6610   61.3230 C.3    57  C57         0.0000
   1203  N1        51.4460   49.1820   61.4500 N.ar   57  C57         0.0000
   1204  C2        50.6890   49.3430   60.2910 C.ar   57  C57         0.0000
   1205  O2        51.1870   49.0210   59.2060 O.2    57  C57         0.0000
   1206  N3        49.4320   49.8340   60.3780 N.ar   57  C57         0.0000
   1207  C4        48.9250   50.1500   61.5670 C.ar   57  C57         0.0000
   1208  N4        47.6800   50.6260   61.6090 N.pl3  57  C57         0.0000
   1209  C5        49.6730   49.9890   62.7710 C.ar   57  C57         0.0000
   1210  C6        50.9210   49.5060   62.6660 C.ar   57  C57         0.0000
   1211  OP1       53.7840   49.3170   67.0370 O.3    57  C57        -0.5000
   1212  OP2       51.6210   50.2750   66.0300 O.co2  57  C57        -0.5000
   1213  P         57.1110   47.9510   61.3830 P.3    58  A58         0.0000
   1214  C5'       56.1730   45.5530   60.9600 C.3    58  A58         0.0000
   1215  O5'       57.0410   46.3930   61.7050 O.3    58  A58         0.0000
   1216  C4'       56.8490   44.2450   60.6470 C.3    58  A58         0.0000
   1217  O4'       58.2020   44.5020   60.2030 O.3    58  A58         0.0000
   1218  C3'       56.9730   43.3590   61.8780 C.3    58  A58         0.0000
   1219  O3'       56.7210   42.0100   61.4930 O.3    58  A58         0.0000
   1220  C2'       58.3760   43.5950   62.4200 C.3    58  A58         0.0000
   1221  O2'       58.9450   42.3870   62.8730 O.3    58  A58         0.0000
   1222  C1'       59.1190   44.0210   61.1540 C.3    58  A58         0.0000
   1223  N1        64.0690   44.6210   60.1240 N.ar   58  A58         0.0000
   1224  C2        63.2240   43.5940   59.9530 C.ar   58  A58         0.0000
   1225  N3        61.9390   43.5080   60.2640 N.ar   58  A58         0.0000
   1226  C4        61.5140   44.6530   60.8210 C.ar   58  A58         0.0000
   1227  C5        62.2590   45.7880   61.0620 C.ar   58  A58         0.0000
   1228  C6        63.6050   45.7550   60.6900 C.ar   58  A58         0.0000
   1229  N6        64.4470   46.7760   60.8610 N.pl3  58  A58         0.0000
   1230  N7        61.4770   46.7720   61.6450 N.ar   58  A58         0.0000
   1231  C8        60.2940   46.2170   61.7410 C.ar   58  A58         0.0000
   1232  N9        60.2440   44.9410   61.2520 N.ar   58  A58         0.0000
   1233  OP1       58.5180   48.4150   61.5260 O.3    58  A58        -0.5000
   1234  OP2       56.3830   48.1850   60.1030 O.co2  58  A58        -0.5000
   1235  P         56.1910   40.9410   62.5520 P.3    59  U59         0.0000
   1236  C5'       54.5130   39.6520   61.0070 C.3    59  U59         0.0000
   1237  O5'       54.7250   40.6500   62.0000 O.3    59  U59         0.0000
   1238  C4'       53.5400   40.1350   59.9620 C.3    59  U59         0.0000
   1239  O4'       52.2250   40.2700   60.5610 O.3    59  U59         0.0000
   1240  C3'       53.9380   41.5290   59.4870 C.3    59  U59         0.0000
   1241  O3'       53.8290   41.7310   58.0790 O.3    59  U59         0.0000
   1242  C2'       53.0590   42.4950   60.2670 C.3    59  U59         0.0000
   1243  O2'       52.6190   43.5380   59.4320 O.3    59  U59         0.0000
   1244  C1'       51.8450   41.6210   60.5680 C.3    59  U59         0.0000
   1245  N1        50.9910   41.9240   61.7240 N.ar   59  U59         0.0000
   1246  C2        49.7100   42.3670   61.4450 C.ar   59  U59         0.0000
   1247  O2        49.2840   42.4890   60.3160 O.2    59  U59         0.0000
   1248  N3        48.9460   42.6590   62.5410 N.ar   59  U59         0.0000
   1249  C4        49.3190   42.5530   63.8540 C.ar   59  U59         0.0000
   1250  O4        48.5200   42.8710   64.7260 O.2    59  U59         0.0000
   1251  C5        50.6530   42.0850   64.0650 C.ar   59  U59         0.0000
   1252  C6        51.4240   41.7940   63.0180 C.ar   59  U59         0.0000
   1253  OP1       56.1280   41.6030   63.8700 O.3    59  U59        -0.5000
   1254  OP2       56.9800   39.6980   62.4020 O.co2  59  U59        -0.5000
   1255  P         54.9310   41.1420   57.0800 P.3    60  C60         0.0000
   1256  C5'       56.4880   43.2370   56.7200 C.3    60  C60         0.0000
   1257  O5'       56.2470   41.9950   57.3770 O.3    60  C60         0.0000
   1258  C4'       57.9080   43.2780   56.1980 C.3    60  C60         0.0000
   1259  O4'       58.8430   43.3370   57.3130 O.3    60  C60         0.0000
   1260  C3'       58.3500   42.0450   55.4180 C.3    60  C60         0.0000
   1261  O3'       57.9460   42.0900   54.0520 O.3    60  C60         0.0000
   1262  C2'       59.8610   42.1180   55.5640 C.3    60  C60         0.0000
   1263  O2'       60.4110   43.1260   54.7430 O.3    60  C60         0.0000
   1264  C1'       59.9920   42.5530   57.0190 C.3    60  C60         0.0000
   1265  N1        60.0370   41.4090   57.9480 N.ar   60  C60         0.0000
   1266  C2        61.2060   40.6560   58.0190 C.ar   60  C60         0.0000
   1267  O2        62.1610   40.9750   57.3120 O.2    60  C60         0.0000
   1268  N3        61.2630   39.5980   58.8570 N.ar   60  C60         0.0000
   1269  C4        60.2080   39.2850   59.6070 C.ar   60  C60         0.0000
   1270  N4        60.3070   38.2310   60.4090 N.pl3  60  C60         0.0000
   1271  C5        59.0030   40.0390   59.5630 C.ar   60  C60         0.0000
   1272  C6        58.9590   41.0840   58.7260 C.ar   60  C60         0.0000
   1273  OP1       54.4460   41.4340   55.7070 O.2    60  C60        -0.5000
   1274  OP2       55.1770   39.7410   57.4880 O.co2  60  C60        -0.5000
   1275  P         57.6800   40.7170   53.2590 P.3    61  G61         0.0000
   1276  C5'       60.2340   40.2510   52.8020 C.3    61  G61         0.0000
   1277  O5'       59.0260   39.8850   53.4650 O.3    61  G61         0.0000
   1278  C4'       61.3050   39.2110   53.0490 C.3    61  G61         0.0000
   1279  O4'       61.7070   39.2090   54.4510 O.3    61  G61         0.0000
   1280  C3'       60.8910   37.7760   52.7930 C.3    61  G61         0.0000
   1281  O3'       60.9420   37.4560   51.4110 O.3    61  G61         0.0000
   1282  C2'       61.9250   37.0110   53.6050 C.3    61  G61         0.0000
   1283  O2'       63.1830   36.9810   52.9680 O.3    61  G61         0.0000
   1284  C1'       62.0200   37.8820   54.8600 C.3    61  G61         0.0000
   1285  N1        60.8260   34.5240   58.5250 N.ar   61  G61         0.0000
   1286  C2        61.9440   34.5810   57.7420 C.ar   61  G61         0.0000
   1287  N2        62.8370   33.6150   57.9590 N.pl3  61  G61         0.0000
   1288  N3        62.1630   35.5130   56.8200 N.ar   61  G61         0.0000
   1289  C4        61.1470   36.3980   56.7470 C.ar   61  G61         0.0000
   1290  C5        59.9850   36.4280   57.4890 C.ar   61  G61         0.0000
   1291  C6        59.7710   35.4190   58.4740 C.ar   61  G61         0.0000
   1292  O6        58.8110   35.2670   59.2300 O.2    61  G61         0.0000
   1293  N7        59.1890   37.5020   57.1160 N.ar   61  G61         0.0000
   1294  C8        59.8640   38.0960   56.1720 C.ar   61  G61         0.0000
   1295  N9        61.0580   37.4780   55.8870 N.ar   61  G61         0.0000
   1296  OP1       57.5400   41.0330   51.8170 O.2    61  G61        -0.5000
   1297  OP2       56.5960   39.9790   53.9520 O.co2  61  G61        -0.5000
   1298  P         60.0390   36.2550   50.8400 P.3    62  G62         0.0000
   1299  C5'       62.0220   34.5550   51.1080 C.3    62  G62         0.0000
   1300  O5'       60.7020   34.9470   51.4670 O.3    62  G62         0.0000
   1301  C4'       62.4450   33.3380   51.8970 C.3    62  G62         0.0000
   1302  O4'       62.4710   33.6550   53.3150 O.3    62  G62         0.0000
   1303  C3'       61.5060   32.1520   51.8270 C.3    62  G62         0.0000
   1304  O3'       61.6900   31.4050   50.6380 O.3    62  G62         0.0000
   1305  C2'       61.9060   31.3690   53.0680 C.3    62  G62         0.0000
   1306  O2'       63.1080   30.6450   52.9090 O.3    62  G62         0.0000
   1307  C1'       62.1220   32.5020   54.0690 C.3    62  G62         0.0000
   1308  N1        59.0010   30.9490   57.7670 N.ar   62  G62         0.0000
   1309  C2        60.1510   30.3680   57.2940 C.ar   62  G62         0.0000
   1310  N2        60.5180   29.2280   57.8780 N.pl3  62  G62         0.0000
   1311  N3        60.8880   30.8720   56.3180 N.ar   62  G62         0.0000
   1312  C4        60.3770   32.0280   55.8420 C.ar   62  G62         0.0000
   1313  C5        59.2390   32.6910   56.2420 C.ar   62  G62         0.0000
   1314  C6        58.4540   32.1370   57.2940 C.ar   62  G62         0.0000
   1315  O6        57.4110   32.5750   57.7920 O.2    62  G62         0.0000
   1316  N7        59.0590   33.8500   55.4980 N.ar   62  G62         0.0000
   1317  C8        60.0720   33.8690   54.6760 C.ar   62  G62         0.0000
   1318  N9        60.9100   32.7920   54.8290 N.ar   62  G62         0.0000
   1319  OP1       60.1810   36.2030   49.3620 O.2    62  G62        -0.5000
   1320  OP2       58.6890   36.4050   51.4300 O.co2  62  G62        -0.5000
   1321  P         60.4490   30.6060   50.0140 P.3    63  C63         0.0000
   1322  C5'       61.2990   28.3520   51.0290 C.3    63  C63         0.0000
   1323  O5'       60.2910   29.3510   50.9820 O.3    63  C63         0.0000
   1324  C4'       60.9570   27.3110   52.0610 C.3    63  C63         0.0000
   1325  O4'       60.9800   27.9240   53.3790 O.3    63  C63         0.0000
   1326  C3'       59.5640   26.7120   51.9710 C.3    63  C63         0.0000
   1327  O3'       59.4770   25.6520   51.0340 O.3    63  C63         0.0000
   1328  C2'       59.3780   26.1870   53.3820 C.3    63  C63         0.0000
   1329  O2'       60.1160   25.0030   53.5910 O.3    63  C63         0.0000
   1330  C1'       59.9720   27.3400   54.1930 C.3    63  C63         0.0000
   1331  N1        58.9470   28.3610   54.4690 N.ar   63  C63         0.0000
   1332  C2        58.0340   28.1340   55.4980 C.ar   63  C63         0.0000
   1333  O2        58.1400   27.1030   56.1740 O.2    63  C63         0.0000
   1334  N3        57.0580   29.0390   55.7310 N.ar   63  C63         0.0000
   1335  C4        56.9780   30.1380   54.9810 C.ar   63  C63         0.0000
   1336  N4        55.9930   31.0010   55.2370 N.pl3  63  C63         0.0000
   1337  C5        57.9060   30.4030   53.9330 C.ar   63  C63         0.0000
   1338  C6        58.8690   29.5000   53.7180 C.ar   63  C63         0.0000
   1339  OP1       60.8270   30.1170   48.6670 O.2    63  C63        -0.5000
   1340  OP2       59.2660   31.4830   50.1610 O.co2  63  C63        -0.5000
   1341  P         58.0700   25.3420   50.3180 P.3    64  G64         0.0000
   1342  C5'       57.4070   23.5940   52.1610 C.3    64  G64         0.0000
   1343  O5'       57.1250   24.8270   51.4990 O.3    64  G64         0.0000
   1344  C4'       56.4600   23.3680   53.3210 C.3    64  G64         0.0000
   1345  O4'       56.5390   24.4830   54.2510 O.3    64  G64         0.0000
   1346  C3'       54.9710   23.2870   53.0250 C.3    64  G64         0.0000
   1347  O3'       54.5960   22.0000   52.5550 O.3    64  G64         0.0000
   1348  C2'       54.3810   23.5110   54.4090 C.3    64  G64         0.0000
   1349  O2'       54.4810   22.3480   55.2010 O.3    64  G64         0.0000
   1350  C1'       55.3140   24.5890   54.9640 C.3    64  G64         0.0000
   1351  N1        51.8670   27.9540   56.5240 N.ar   64  G64         0.0000
   1352  C2        52.1860   26.7310   57.0510 C.ar   64  G64         0.0000
   1353  N2        51.4790   26.3450   58.1190 N.pl3  64  G64         0.0000
   1354  N3        53.1340   25.9460   56.5670 N.ar   64  G64         0.0000
   1355  C4        53.7490   26.4960   55.4980 C.ar   64  G64         0.0000
   1356  C5        53.5120   27.7150   54.9040 C.ar   64  G64         0.0000
   1357  C6        52.4900   28.5410   55.4310 C.ar   64  G64         0.0000
   1358  O6        52.1270   29.6460   55.0460 O.2    64  G64         0.0000
   1359  N7        54.3690   27.9150   53.8290 N.ar   64  G64         0.0000
   1360  C8        55.0940   26.8300   53.7860 C.ar   64  G64         0.0000
   1361  N9        54.7570   25.9210   54.7600 N.ar   64  G64         0.0000
   1362  OP1       58.2790   24.2040   49.3830 O.2    64  G64        -0.5000
   1363  OP2       57.5580   26.6390   49.7980 O.co2  64  G64        -0.5000
   1364  P         53.2530   21.8280   51.6830 P.3    65  G65         0.0000
   1365  C5'       51.7220   21.4730   53.7790 C.3    65  G65         0.0000
   1366  O5'       52.0740   22.2720   52.6620 O.3    65  G65         0.0000
   1367  C4'       50.6850   22.1710   54.6250 C.3    65  G65         0.0000
   1368  O4'       51.1600   23.4950   54.9850 O.3    65  G65         0.0000
   1369  C3'       49.3310   22.4740   54.0110 C.3    65  G65         0.0000
   1370  O3'       48.5100   21.3090   54.0100 O.3    65  G65         0.0000
   1371  C2'       48.7920   23.4900   55.0100 C.3    65  G65         0.0000
   1372  O2'       48.3390   22.8540   56.1870 O.3    65  G65         0.0000
   1373  C1'       50.0490   24.2980   55.3440 C.3    65  G65         0.0000
   1374  N1        47.9590   28.8680   54.8430 N.ar   65  G65         0.0000
   1375  C2        47.7080   27.8870   55.7680 C.ar   65  G65         0.0000
   1376  N2        46.7480   28.1410   56.6610 N.pl3  65  G65         0.0000
   1377  N3        48.3560   26.7370   55.8150 N.ar   65  G65         0.0000
   1378  C4        49.2900   26.6430   54.8470 C.ar   65  G65         0.0000
   1379  C5        49.6240   27.5640   53.8800 C.ar   65  G65         0.0000
   1380  C6        48.9220   28.7960   53.8400 C.ar   65  G65         0.0000
   1381  O6        49.0690   29.7460   53.0600 O.2    65  G65         0.0000
   1382  N7        50.6450   27.0840   53.0770 N.ar   65  G65         0.0000
   1383  C8        50.9020   25.8960   53.5580 C.ar   65  G65         0.0000
   1384  N9        50.0980   25.5610   54.6150 N.ar   65  G65         0.0000
   1385  OP1       53.1070   20.3760   51.3690 O.3    65  G65        -0.5000
   1386  OP2       53.2760   22.8290   50.5760 O.co2  65  G65        -0.5000
   1387  P         47.1170   21.3020   53.1970 P.3    66  G66         0.0000
   1388  C5'       45.4600   22.5340   54.8240 C.3    66  G66         0.0000
   1389  O5'       46.3410   22.5970   53.7060 O.3    66  G66         0.0000
   1390  C4'       44.5880   23.7620   54.8580 C.3    66  G66         0.0000
   1391  O4'       45.4420   24.9280   55.0030 O.3    66  G66         0.0000
   1392  C3'       43.7950   24.0110   53.5810 C.3    66  G66         0.0000
   1393  O3'       42.5480   23.3170   53.6220 O.3    66  G66         0.0000
   1394  C2'       43.6220   25.5260   53.5980 C.3    66  G66         0.0000
   1395  O2'       42.5880   25.9530   54.4600 O.3    66  G66         0.0000
   1396  C1'       44.9690   25.9740   54.1690 C.3    66  G66         0.0000
   1397  N1        46.9290   29.2410   50.8090 N.ar   66  G66         0.0000
   1398  C2        45.8970   29.4260   51.6870 C.ar   66  G66         0.0000
   1399  N2        45.3170   30.6310   51.6650 N.pl3  66  G66         0.0000
   1400  N3        45.4660   28.4980   52.5240 N.ar   66  G66         0.0000
   1401  C4        46.1650   27.3510   52.4050 C.ar   66  G66         0.0000
   1402  C5        47.2130   27.0680   51.5580 C.ar   66  G66         0.0000
   1403  C6        47.6610   28.0700   50.6710 C.ar   66  G66         0.0000
   1404  O6        48.5740   28.0090   49.8450 O.2    66  G66         0.0000
   1405  N7        47.6680   25.7710   51.7480 N.ar   66  G66         0.0000
   1406  C8        46.9020   25.2930   52.6900 C.ar   66  G66         0.0000
   1407  N9        45.9700   26.1980   53.1320 N.ar   66  G66         0.0000
   1408  OP1       46.3490   20.1150   53.6450 O.3    66  G66        -0.5000
   1409  OP2       47.4000   21.4930   51.7480 O.co2  66  G66        -0.5000
   1410  P         41.6830   23.1290   52.2760 P.3    67  U67         0.0000
   1411  C5'       39.3100   24.0470   51.5900 C.3    67  U67         0.0000
   1412  O5'       40.4250   24.0830   52.4810 O.3    67  U67         0.0000
   1413  C4'       38.3020   25.0950   52.0010 C.3    67  U67         0.0000
   1414  O4'       37.9780   24.8720   53.3850 O.3    67  U67         0.0000
   1415  C3'       38.8720   26.5030   51.9230 C.3    67  U67         0.0000
   1416  O3'       38.4100   27.1750   50.7440 O.3    67  U67         0.0000
   1417  C2'       38.3070   27.2380   53.1420 C.3    67  U67         0.0000
   1418  O2'       37.2690   28.1380   52.8390 O.3    67  U67         0.0000
   1419  C1'       37.7740   26.1060   54.0180 C.3    67  U67         0.0000
   1420  N1        38.3090   26.0290   55.3760 N.ar   67  U67         0.0000
   1421  C2        37.4240   26.3060   56.3810 C.ar   67  U67         0.0000
   1422  O2        36.2730   26.6400   56.1590 O.2    67  U67         0.0000
   1423  N3        37.9260   26.1820   57.6450 N.ar   67  U67         0.0000
   1424  C4        39.2080   25.8240   57.9860 C.ar   67  U67         0.0000
   1425  O4        39.5090   25.7360   59.1700 O.2    67  U67         0.0000
   1426  C5        40.0760   25.5680   56.8800 C.ar   67  U67         0.0000
   1427  C6        39.6060   25.6800   55.6380 C.ar   67  U67         0.0000
   1428  OP1       41.2040   21.7250   52.2520 O.3    67  U67        -0.5000
   1429  OP2       42.4610   23.6670   51.1290 O.co2  67  U67        -0.5000
   1430  P         37.1630   26.5790   49.8950 P.3    68  G68         0.0000
   1431  C5'       36.8820   29.0420   49.0350 C.3    68  G68         0.0000
   1432  O5'       36.9690   27.6550   48.7350 O.3    68  G68         0.0000
   1433  C4'       37.8670   29.8260   48.1970 C.3    68  G68         0.0000
   1434  O4'       39.2180   29.5440   48.6280 O.3    68  G68         0.0000
   1435  C3'       37.8990   29.4960   46.7180 C.3    68  G68         0.0000
   1436  O3'       36.8710   30.1710   46.0200 O.3    68  G68         0.0000
   1437  C2'       39.2610   30.0250   46.3050 C.3    68  G68         0.0000
   1438  O2'       39.2530   31.4220   46.1230 O.3    68  G68         0.0000
   1439  C1'       40.1010   29.6640   47.5270 C.3    68  G68         0.0000
   1440  N1        43.7890   27.1150   45.1470 N.ar   68  G68         0.0000
   1441  C2        43.3390   28.3920   44.9300 C.ar   68  G68         0.0000
   1442  N2        43.9730   29.0820   43.9750 N.pl3  68  G68         0.0000
   1443  N3        42.3460   28.9520   45.6000 N.ar   68  G68         0.0000
   1444  C4        41.8350   28.1170   46.5250 C.ar   68  G68         0.0000
   1445  C5        42.2130   26.8240   46.8200 C.ar   68  G68         0.0000
   1446  C6        43.2750   26.2390   46.0970 C.ar   68  G68         0.0000
   1447  O6        43.7600   25.1050   46.2230 O.2    68  G68         0.0000
   1448  N7        41.4290   26.3000   47.8370 N.ar   68  G68         0.0000
   1449  C8        40.6070   27.2660   48.1380 C.ar   68  G68         0.0000
   1450  N9        40.8110   28.4010   47.3930 N.ar   68  G68         0.0000
   1451  OP1       35.9440   26.5790   50.7350 O.3    68  G68        -0.5000
   1452  OP2       37.6030   25.3100   49.2430 O.co2  68  G68        -0.5000
   1453  P         36.0540   29.3950   44.8830 P.3    69  C69         0.0000
   1454  C5'       37.6460   30.2240   42.9610 C.3    69  C69         0.0000
   1455  O5'       37.1540   29.1430   43.7550 O.3    69  C69         0.0000
   1456  C4'       38.7950   29.7630   42.0930 C.3    69  C69         0.0000
   1457  O4'       39.8880   29.3110   42.9400 O.3    69  C69         0.0000
   1458  C3'       38.5240   28.5480   41.2240 C.3    69  C69         0.0000
   1459  O3'       37.8230   28.8660   40.0390 O.3    69  C69         0.0000
   1460  C2'       39.9320   28.0560   40.9320 C.3    69  C69         0.0000
   1461  O2'       40.6160   28.8340   39.9700 O.3    69  C69         0.0000
   1462  C1'       40.5820   28.2520   42.2960 C.3    69  C69         0.0000
   1463  N1        40.4690   27.0470   43.1250 N.ar   69  C69         0.0000
   1464  C2        41.4540   26.0790   43.0030 C.ar   69  C69         0.0000
   1465  O2        42.3410   26.2450   42.1640 O.2    69  C69         0.0000
   1466  N3        41.4170   24.9860   43.7950 N.ar   69  C69         0.0000
   1467  C4        40.4270   24.8400   44.6760 C.ar   69  C69         0.0000
   1468  N4        40.4420   23.7580   45.4530 N.pl3  69  C69         0.0000
   1469  C5        39.3800   25.8010   44.7990 C.ar   69  C69         0.0000
   1470  C6        39.4390   26.8800   44.0080 C.ar   69  C69         0.0000
   1471  OP1       35.0270   30.3330   44.3530 O.2    69  C69        -0.5000
   1472  OP2       35.6350   28.0820   45.4480 O.co2  69  C69        -0.5000
   1473  P         37.0040   27.7130   39.2800 P.3    70  C70         0.0000
   1474  C5'       39.0110   26.8710   37.7850 C.3    70  C70         0.0000
   1475  O5'       38.1180   26.6400   38.8780 O.3    70  C70         0.0000
   1476  C4'       39.7440   25.5960   37.4180 C.3    70  C70         0.0000
   1477  O4'       40.6510   25.2180   38.4900 O.3    70  C70         0.0000
   1478  C3'       38.8780   24.3600   37.2090 C.3    70  C70         0.0000
   1479  O3'       38.3480   24.2920   35.8940 O.3    70  C70         0.0000
   1480  C2'       39.8680   23.2320   37.4490 C.3    70  C70         0.0000
   1481  O2'       40.6930   22.9930   36.3300 O.3    70  C70         0.0000
   1482  C1'       40.6900   23.8020   38.6050 C.3    70  C70         0.0000
   1483  N1        40.1010   23.4380   39.8990 N.ar   70  C70         0.0000
   1484  C2        40.4210   22.2020   40.4630 C.ar   70  C70         0.0000
   1485  O2        41.1800   21.4400   39.8480 O.2    70  C70         0.0000
   1486  N3        39.8930   21.8690   41.6620 N.ar   70  C70         0.0000
   1487  C4        39.0740   22.7160   42.2860 C.ar   70  C70         0.0000
   1488  N4        38.5840   22.3550   43.4730 N.pl3  70  C70         0.0000
   1489  C5        38.7210   23.9770   41.7250 C.ar   70  C70         0.0000
   1490  C6        39.2520   24.2950   40.5440 C.ar   70  C70         0.0000
   1491  OP1       36.4510   28.3640   38.0630 O.2    70  C70        -0.5000
   1492  OP2       36.0810   27.0530   40.2450 O.co2  70  C70        -0.5000
   1493  P         37.0070   23.4500   35.6250 P.3    71  C71         0.0000
   1494  C5'       38.2340   21.3690   34.5910 C.3    71  C71         0.0000
   1495  O5'       37.4850   21.9280   35.6650 O.3    71  C71         0.0000
   1496  C4'       38.6250   19.9420   34.9070 C.3    71  C71         0.0000
   1497  O4'       39.4230   19.9310   36.1220 O.3    71  C71         0.0000
   1498  C3'       37.4910   18.9770   35.2200 C.3    71  C71         0.0000
   1499  O3'       36.8840   18.4360   34.0530 O.3    71  C71         0.0000
   1500  C2'       38.2080   17.8920   36.0100 C.3    71  C71         0.0000
   1501  O2'       38.9070   16.9730   35.1900 O.3    71  C71         0.0000
   1502  C1'       39.1880   18.7260   36.8360 C.3    71  C71         0.0000
   1503  N1        38.6480   19.0680   38.1580 N.ar   71  C71         0.0000
   1504  C2        38.7920   18.1470   39.1960 C.ar   71  C71         0.0000
   1505  O2        39.3550   17.0690   38.9650 O.2    71  C71         0.0000
   1506  N3        38.3100   18.4500   40.4230 N.ar   71  C71         0.0000
   1507  C4        37.6960   19.6180   40.6270 C.ar   71  C71         0.0000
   1508  N4        37.2340   19.8730   41.8530 N.pl3  71  C71         0.0000
   1509  C5        37.5280   20.5740   39.5830 C.ar   71  C71         0.0000
   1510  C6        38.0160   20.2600   38.3750 C.ar   71  C71         0.0000
   1511  OP1       36.5430   23.7770   34.2540 O.2    71  C71        -0.5000
   1512  OP2       36.1020   23.6840   36.7800 O.co2  71  C71        -0.5000
   1513  P         35.3790   17.8840   34.1330 P.3    72  U72         0.0000
   1514  C5'       36.1030   15.4320   34.6710 C.3    72  U72         0.0000
   1515  O5'       35.4880   16.6330   35.1090 O.3    72  U72         0.0000
   1516  C4'       35.9550   14.3590   35.7170 C.3    72  U72         0.0000
   1517  O4'       36.7550   14.6990   36.8820 O.3    72  U72         0.0000
   1518  C3'       34.5600   14.1790   36.2890 C.3    72  U72         0.0000
   1519  O3'       33.7070   13.4270   35.4350 O.3    72  U72         0.0000
   1520  C2'       34.8630   13.4580   37.5960 C.3    72  U72         0.0000
   1521  O2'       35.1500   12.0850   37.4140 O.3    72  U72         0.0000
   1522  C1'       36.1210   14.2020   38.0530 C.3    72  U72         0.0000
   1523  N1        35.7840   15.3390   38.9230 N.ar   72  U72         0.0000
   1524  C2        35.6580   15.0860   40.2740 C.ar   72  U72         0.0000
   1525  O2        35.8460   13.9840   40.7570 O.2    72  U72         0.0000
   1526  N3        35.3010   16.1710   41.0370 N.ar   72  U72         0.0000
   1527  C4        35.0660   17.4550   40.5960 C.ar   72  U72         0.0000
   1528  O4        34.7350   18.3230   41.4040 O.2    72  U72         0.0000
   1529  C5        35.2320   17.6390   39.1860 C.ar   72  U72         0.0000
   1530  C6        35.5800   16.6020   38.4180 C.ar   72  U72         0.0000
   1531  OP1       34.9720   17.3890   32.8000 O.2    72  U72        -0.5000
   1532  OP2       34.5660   18.9280   34.8030 O.co2  72  U72        -0.5000
   1533  P         32.1230   13.6990   35.4620 P.3    73  G73         0.0000
   1534  C5'       31.9380   11.5940   37.0070 C.3    73  G73         0.0000
   1535  O5'       31.6560   12.9730   36.7990 O.3    73  G73         0.0000
   1536  C4'       31.6700   11.2170   38.4420 C.3    73  G73         0.0000
   1537  O4'       32.6520   11.8530   39.3040 O.3    73  G73         0.0000
   1538  C3'       30.3330   11.6790   38.9950 C.3    73  G73         0.0000
   1539  O3'       29.2840   10.7880   38.6370 O.3    73  G73         0.0000
   1540  C2'       30.6090   11.6920   40.4930 C.3    73  G73         0.0000
   1541  O2'       30.5860   10.4030   41.0740 O.3    73  G73         0.0000
   1542  C1'       32.0370   12.2420   40.5230 C.3    73  G73         0.0000
   1543  N1        31.6510   16.2980   43.5500 N.ar   73  G73         0.0000
   1544  C2        31.5990   14.9650   43.8680 C.ar   73  G73         0.0000
   1545  N2        31.4080   14.6720   45.1590 N.pl3  73  G73         0.0000
   1546  N3        31.7240   13.9910   42.9870 N.ar   73  G73         0.0000
   1547  C4        31.9110   14.4620   41.7370 C.ar   73  G73         0.0000
   1548  C5        31.9810   15.7710   41.3130 C.ar   73  G73         0.0000
   1549  C6        31.8430   16.8090   42.2710 C.ar   73  G73         0.0000
   1550  O6        31.8720   18.0340   42.0920 O.2    73  G73         0.0000
   1551  N7        32.1850   15.8340   39.9400 N.ar   73  G73         0.0000
   1552  C8        32.2330   14.5860   39.5630 C.ar   73  G73         0.0000
   1553  N9        32.0660   13.7000   40.6030 N.ar   73  G73         0.0000
   1554  OP1       31.5000   13.0000   34.3090 O.2    73  G73        -0.5000
   1555  OP2       31.9190   15.1610   35.6250 O.co2  73  G73        -0.5000
   1556  P         27.8050   11.3640   38.3750 P.3    74  C74         0.0000
   1557  C5'       27.2150   10.5760   40.8060 C.3    74  C74         0.0000
   1558  O5'       27.2370   11.6230   39.8390 O.3    74  C74         0.0000
   1559  C4'       27.0190   11.1470   42.1880 C.3    74  C74         0.0000
   1560  O4'       28.1770   11.9440   42.5580 O.3    74  C74         0.0000
   1561  C3'       25.8620   12.1200   42.3240 C.3    74  C74         0.0000
   1562  O3'       24.6240   11.4510   42.4850 O.3    74  C74         0.0000
   1563  C2'       26.2570   12.8960   43.5700 C.3    74  C74         0.0000
   1564  O2'       26.0030   12.1780   44.7640 O.3    74  C74         0.0000
   1565  C1'       27.7620   13.0500   43.3480 C.3    74  C74         0.0000
   1566  N1        28.0850   14.2890   42.6210 N.ar   74  C74         0.0000
   1567  C2        28.1290   15.4900   43.3310 C.ar   74  C74         0.0000
   1568  O2        27.9140   15.4720   44.5500 O.2    74  C74         0.0000
   1569  N3        28.4040   16.6380   42.6750 N.ar   74  C74         0.0000
   1570  C4        28.6350   16.6170   41.3630 C.ar   74  C74         0.0000
   1571  N4        28.9000   17.7720   40.7580 N.pl3  74  C74         0.0000
   1572  C5        28.6030   15.4080   40.6140 C.ar   74  C74         0.0000
   1573  C6        28.3280   14.2760   41.2770 C.ar   74  C74         0.0000
   1574  OP1       26.9890   10.2910   37.7430 O.3    74  C74        -0.5000
   1575  OP2       27.9450   12.6780   37.6940 O.co2  74  C74        -0.5000
   1576  P         23.2930   12.1050   41.8750 P.3    75  G75         0.0000
   1577  C5'       22.6150   13.2760   44.1280 C.3    75  G75         0.0000
   1578  O5'       23.0500   13.3980   42.7750 O.3    75  G75         0.0000
   1579  C4'       22.5070   14.6390   44.7730 C.3    75  G75         0.0000
   1580  O4'       23.8270   15.2440   44.8510 O.3    75  G75         0.0000
   1581  C3'       21.6770   15.6720   44.0270 C.3    75  G75         0.0000
   1582  O3'       20.2850   15.5320   44.2930 O.3    75  G75         0.0000
   1583  C2'       22.2210   16.9770   44.5920 C.3    75  G75         0.0000
   1584  O2'       21.6860   17.2850   45.8630 O.3    75  G75         0.0000
   1585  C1'       23.7120   16.6530   44.7150 C.3    75  G75         0.0000
   1586  N1        25.7540   20.5450   42.1810 N.ar   75  G75         0.0000
   1587  C2        25.1430   20.5310   43.4100 C.ar   75  G75         0.0000
   1588  N2        25.0470   21.7140   44.0340 N.pl3  75  G75         0.0000
   1589  N3        24.6630   19.4410   43.9830 N.ar   75  G75         0.0000
   1590  C4        24.8460   18.3450   43.2160 C.ar   75  G75         0.0000
   1591  C5        25.4460   18.2520   41.9780 C.ar   75  G75         0.0000
   1592  C6        25.9540   19.4300   41.3750 C.ar   75  G75         0.0000
   1593  O6        26.5170   19.5530   40.2820 O.2    75  G75         0.0000
   1594  N7        25.4410   16.9400   41.5250 N.ar   75  G75         0.0000
   1595  C8        24.8450   16.2720   42.4760 C.ar   75  G75         0.0000
   1596  N9        24.4460   17.0660   43.5240 N.ar   75  G75         0.0000
   1597  OP1       22.1790   11.1510   42.1100 O.3    75  G75        -0.5000
   1598  OP2       23.6030   12.5490   40.4910 O.co2  75  G75        -0.5000
   1599  P         19.2120   16.0590   43.2150 P.3    76  G76         0.0000
   1600  C5'       18.5590   18.1530   44.6690 C.3    76  G76         0.0000
   1601  O5'       19.1250   17.6330   43.4670 O.3    76  G76         0.0000
   1602  C4'       18.7650   19.6500   44.7460 C.3    76  G76         0.0000
   1603  O4'       20.1890   19.9400   44.7420 O.3    76  G76         0.0000
   1604  C3'       18.2220   20.4640   43.5810 C.3    76  G76         0.0000
   1605  O3'       16.8330   20.7410   43.7440 O.3    76  G76         0.0000
   1606  C2'       19.0640   21.7370   43.6500 C.3    76  G76         0.0000
   1607  O2'       18.5880   22.6880   44.5810 O.3    76  G76         0.0000
   1608  C1'       20.4190   21.1910   44.1120 C.3    76  G76         0.0000
   1609  N1        23.2860   23.4380   40.5760 N.ar   76  G76         0.0000
   1610  C2        22.4790   24.0060   41.5290 C.ar   76  G76         0.0000
   1611  N2        22.4260   25.3450   41.5340 N.pl3  76  G76         0.0000
   1612  N3        21.7800   23.3110   42.4120 N.ar   76  G76         0.0000
   1613  C4        21.9560   21.9800   42.2610 C.ar   76  G76         0.0000
   1614  C5        22.7400   21.3160   41.3430 C.ar   76  G76         0.0000
   1615  C6        23.4850   22.0710   40.4040 C.ar   76  G76         0.0000
   1616  O6        24.2410   21.6650   39.5130 O.2    76  G76         0.0000
   1617  N7        22.6500   19.9420   41.5210 N.ar   76  G76         0.0000
   1618  C8        21.8260   19.7990   42.5230 C.ar   76  G76         0.0000
   1619  N9        21.3620   20.9950   43.0150 N.ar   76  G76         0.0000
   1620  OP1       17.8940   15.4530   43.5430 O.3    76  G76        -0.5000
   1621  OP2       19.8060   15.8450   41.8700 O.co2  76  G76        -0.5000
   1622  P         15.9330   21.1010   42.4590 P.3    77  U77         0.0000
   1623  C5'       15.8860   23.6890   42.8820 C.3    77  U77         0.0000
   1624  O5'       16.3350   22.5980   42.0880 O.3    77  U77         0.0000
   1625  C4'       16.5010   24.9790   42.3970 C.3    77  U77         0.0000
   1626  O4'       17.9440   24.8280   42.3820 O.3    77  U77         0.0000
   1627  C3'       16.1570   25.3940   40.9740 C.3    77  U77         0.0000
   1628  O3'       14.9300   26.1180   40.9380 O.3    77  U77         0.0000
   1629  C2'       17.3350   26.2890   40.6060 C.3    77  U77         0.0000
   1630  O2'       17.2170   27.6090   41.0960 O.3    77  U77         0.0000
   1631  C1'       18.4900   25.5790   41.3130 C.3    77  U77         0.0000
   1632  N1        19.2230   24.6600   40.4350 N.ar   77  U77         0.0000
   1633  C2        20.0170   25.2140   39.4500 C.ar   77  U77         0.0000
   1634  O2        20.1260   26.4190   39.2890 O.2    77  U77         0.0000
   1635  N3        20.6780   24.3040   38.6610 N.ar   77  U77         0.0000
   1636  C4        20.6250   22.9280   38.7570 C.ar   77  U77         0.0000
   1637  O4        21.2790   22.2400   37.9740 O.2    77  U77         0.0000
   1638  C5        19.7800   22.4350   39.8030 C.ar   77  U77         0.0000
   1639  C6        19.1250   23.2980   40.5860 C.ar   77  U77         0.0000
   1640  OP1       14.5070   21.1060   42.8690 O.3    77  U77        -0.5000
   1641  OP2       16.3760   20.2130   41.3540 O.co2  77  U77        -0.5000
   1642  P         13.8360   25.7800   39.8110 P.3    78  C78         0.0000
   1643  C5'       14.0440   28.0070   38.4450 C.3    78  C78         0.0000
   1644  O5'       14.3040   26.6110   38.5370 O.3    78  C78         0.0000
   1645  C4'       14.8370   28.6160   37.3110 C.3    78  C78         0.0000
   1646  O4'       16.2460   28.3260   37.5210 O.3    78  C78         0.0000
   1647  C3'       14.5550   28.0720   35.9180 C.3    78  C78         0.0000
   1648  O3'       13.4220   28.7080   35.3240 O.3    78  C78         0.0000
   1649  C2'       15.8490   28.4130   35.1850 C.3    78  C78         0.0000
   1650  O2'       15.9240   29.7730   34.8070 O.3    78  C78         0.0000
   1651  C1'       16.8910   28.1390   36.2720 C.3    78  C78         0.0000
   1652  N1        17.4340   26.7700   36.2320 N.ar   78  C78         0.0000
   1653  C2        18.5270   26.5040   35.4020 C.ar   78  C78         0.0000
   1654  O2        19.0080   27.4290   34.7280 O.2    78  C78         0.0000
   1655  N3        19.0320   25.2480   35.3550 N.ar   78  C78         0.0000
   1656  C4        18.4860   24.2820   36.0960 C.ar   78  C78         0.0000
   1657  N4        19.0130   23.0600   36.0190 N.pl3  78  C78         0.0000
   1658  C5        17.3740   24.5260   36.9510 C.ar   78  C78         0.0000
   1659  C6        16.8850   25.7730   36.9890 C.ar   78  C78         0.0000
   1660  OP1       12.5280   26.3270   40.2540 O.3    78  C78        -0.5000
   1661  OP2       13.9650   24.3300   39.5160 O.co2  78  C78        -0.5000
   1662  P          6.6590   27.3120   35.0290 P.3    80  U80         0.0000
   1663  C5'        5.5880   25.5780   36.6800 C.3    80  U80         0.0000
   1664  O5'        6.3110   25.8240   35.4800 O.3    80  U80         0.0000
   1665  C4'        5.0230   24.1800   36.6680 C.3    80  U80         0.0000
   1666  O4'        4.0530   24.0620   35.5940 O.3    80  U80         0.0000
   1667  C3'        6.0260   23.0770   36.3820 C.3    80  U80         0.0000
   1668  O3'        6.7090   22.6910   37.5670 O.3    80  U80         0.0000
   1669  C2'        5.1330   21.9610   35.8570 C.3    80  U80         0.0000
   1670  O2'        4.4830   21.2470   36.8890 O.3    80  U80         0.0000
   1671  C1'        4.1050   22.7540   35.0460 C.3    80  U80         0.0000
   1672  N1         4.4600   22.8600   33.6230 N.ar   80  U80         0.0000
   1673  C2         4.2600   21.7490   32.8250 C.ar   80  U80         0.0000
   1674  O2         3.7930   20.7060   33.2490 O.2    80  U80         0.0000
   1675  N3         4.6270   21.9060   31.5120 N.ar   80  U80         0.0000
   1676  C4         5.1590   23.0360   30.9280 C.ar   80  U80         0.0000
   1677  O4         5.4470   23.0210   29.7290 O.2    80  U80         0.0000
   1678  C5         5.3290   24.1440   31.8170 C.ar   80  U80         0.0000
   1679  C6         4.9810   24.0220   33.1010 C.ar   80  U80         0.0000
   1680  OP1        7.7810   27.8040   35.8710 O.3    80  U80         0.0000
   1681  OP2        5.3930   28.0870   34.9650 O.co2  80  U80        -1.0000
   1682  P          8.1500   21.9930   37.4590 P.3    81  C81         0.0000
   1683  C5'        7.1150   19.5870   37.6510 C.3    81  C81         0.0000
   1684  O5'        7.8330   20.5440   36.8760 O.3    81  C81         0.0000
   1685  C4'        6.8460   18.3460   36.8330 C.3    81  C81         0.0000
   1686  O4'        6.0160   18.6940   35.6950 O.3    81  C81         0.0000
   1687  C3'        8.0690   17.6860   36.2170 C.3    81  C81         0.0000
   1688  O3'        8.6890   16.8020   37.1450 O.3    81  C81         0.0000
   1689  C2'        7.4660   16.9290   35.0400 C.3    81  C81         0.0000
   1690  O2'        6.8750   15.7050   35.4240 O.3    81  C81         0.0000
   1691  C1'        6.3820   17.9030   34.5750 C.3    81  C81         0.0000
   1692  N1         6.8270   18.8040   33.5010 N.ar   81  C81         0.0000
   1693  C2         6.8610   18.3260   32.1870 C.ar   81  C81         0.0000
   1694  O2         6.5140   17.1550   31.9640 O.2    81  C81         0.0000
   1695  N3         7.2700   19.1510   31.1950 N.ar   81  C81         0.0000
   1696  C4         7.6340   20.4050   31.4780 C.ar   81  C81         0.0000
   1697  N4         8.0310   21.1840   30.4720 N.pl3  81  C81         0.0000
   1698  C5         7.6080   20.9150   32.8060 C.ar   81  C81         0.0000
   1699  C6         7.2020   20.0890   33.7770 C.ar   81  C81         0.0000
   1700  OP1        8.6970   21.8300   38.8300 O.3    81  C81        -0.5000
   1701  OP2        8.9250   22.7520   36.4440 O.co2  81  C81        -0.5000
   1702  P         10.2840   16.5960   37.1070 P.3    82  C82         0.0000
   1703  C5'       10.1510   14.1420   36.1650 C.3    82  C82         0.0000
   1704  O5'       10.5120   15.5080   35.9650 O.3    82  C82         0.0000
   1705  C4'       10.4080   13.3470   34.9050 C.3    82  C82         0.0000
   1706  O4'        9.5630   13.8520   33.8370 O.3    82  C82         0.0000
   1707  C3'       11.8150   13.4620   34.3460 C.3    82  C82         0.0000
   1708  O3'       12.6890   12.5400   34.9760 O.3    82  C82         0.0000
   1709  C2'       11.6070   13.1300   32.8750 C.3    82  C82         0.0000
   1710  O2'       11.4920   11.7410   32.6380 O.3    82  C82         0.0000
   1711  C1'       10.2670   13.8150   32.6060 C.3    82  C82         0.0000
   1712  N1        10.4000   15.1960   32.1150 N.ar   82  C82         0.0000
   1713  C2        10.6510   15.4080   30.7570 C.ar   82  C82         0.0000
   1714  O2        10.7650   14.4260   30.0090 O.2    82  C82         0.0000
   1715  N3        10.7610   16.6750   30.2960 N.ar   82  C82         0.0000
   1716  C4        10.6320   17.7040   31.1360 C.ar   82  C82         0.0000
   1717  N4        10.7440   18.9360   30.6390 N.pl3  82  C82         0.0000
   1718  C5        10.3820   17.5150   32.5250 C.ar   82  C82         0.0000
   1719  C6        10.2760   16.2570   32.9670 C.ar   82  C82         0.0000
   1720  OP1       10.7150   16.0050   38.4000 O.3    82  C82        -0.5000
   1721  OP2       10.8830   17.8770   36.6490 O.co2  82  C82        -0.5000
   1722  P         14.2470   12.8960   35.1050 P.3    83  U83         0.0000
   1723  C5'       15.0240   11.5830   32.9710 C.3    83  U83         0.0000
   1724  O5'       14.7760   12.8360   33.6030 O.3    83  U83         0.0000
   1725  C4'       15.6250   11.7880   31.5980 C.3    83  U83         0.0000
   1726  O4'       14.6630   12.4650   30.7420 O.3    83  U83         0.0000
   1727  C3'       16.8450   12.6880   31.5090 C.3    83  U83         0.0000
   1728  O3'       18.0510   12.0450   31.9100 O.3    83  U83         0.0000
   1729  C2'       16.8440   13.0410   30.0300 C.3    83  U83         0.0000
   1730  O2'       17.2970   11.9780   29.2130 O.3    83  U83         0.0000
   1731  C1'       15.3520   13.2630   29.7900 C.3    83  U83         0.0000
   1732  N1        14.9840   14.6680   30.0050 N.ar   83  U83         0.0000
   1733  C2        15.1360   15.5340   28.9400 C.ar   83  U83         0.0000
   1734  O2        15.5390   15.1730   27.8480 O.2    83  U83         0.0000
   1735  N3        14.8020   16.8390   29.2000 N.ar   83  U83         0.0000
   1736  C4        14.3420   17.3540   30.3930 C.ar   83  U83         0.0000
   1737  O4        14.0890   18.5560   30.4750 O.2    83  U83         0.0000
   1738  C5        14.2060   16.3930   31.4460 C.ar   83  U83         0.0000
   1739  C6        14.5210   15.1130   31.2200 C.ar   83  U83         0.0000
   1740  OP1       14.9120   11.8160   35.8810 O.3    83  U83        -0.5000
   1741  OP2       14.3300   14.3020   35.5770 O.co2  83  U83        -0.5000
   1742  P         19.2920   12.9410   32.4150 P.3    84  G84         0.0000
   1743  C5'       20.2810   12.8590   29.9910 C.3    84  G84         0.0000
   1744  O5'       19.8130   13.6430   31.0830 O.3    84  G84         0.0000
   1745  C4'       20.6200   13.7420   28.8160 C.3    84  G84         0.0000
   1746  O4'       19.4160   14.3880   28.3240 O.3    84  G84         0.0000
   1747  C3'       21.5480   14.9040   29.1140 C.3    84  G84         0.0000
   1748  O3'       22.9080   14.5000   29.1410 O.3    84  G84         0.0000
   1749  C2'       21.2550   15.8330   27.9480 C.3    84  G84         0.0000
   1750  O2'       21.8750   15.4030   26.7530 O.3    84  G84         0.0000
   1751  C1'       19.7390   15.6760   27.8290 C.3    84  G84         0.0000
   1752  N1        18.1610   20.4780   28.1780 N.ar   84  G84         0.0000
   1753  C2        18.8720   19.8660   27.1750 C.ar   84  G84         0.0000
   1754  N2        19.2030   20.6370   26.1310 N.pl3  84  G84         0.0000
   1755  N3        19.2300   18.5940   27.1960 N.ar   84  G84         0.0000
   1756  C4        18.8170   17.9740   28.3200 C.ar   84  G84         0.0000
   1757  C5        18.1080   18.4940   29.3790 C.ar   84  G84         0.0000
   1758  C6        17.7260   19.8570   29.3430 C.ar   84  G84         0.0000
   1759  O6        17.0910   20.5020   30.1840 O.2    84  G84         0.0000
   1760  N7        17.8850   17.5240   30.3460 N.ar   84  G84         0.0000
   1761  C8        18.4510   16.4530   29.8640 C.ar   84  G84         0.0000
   1762  N9        19.0320   16.6580   28.6390 N.ar   84  G84         0.0000
   1763  OP1       20.3610   12.0390   32.9180 O.2    84  G84        -0.5000
   1764  OP2       18.7510   14.0040   33.3000 O.co2  84  G84        -0.5000
   1765  P         23.9390   15.2800   30.0910 P.3    85  C85         0.0000
   1766  C5'       24.6480   16.8050   28.0860 C.3    85  C85         0.0000
   1767  O5'       24.0950   16.7000   29.3880 O.3    85  C85         0.0000
   1768  C4'       24.5220   18.2170   27.5800 C.3    85  C85         0.0000
   1769  O4'       23.1180   18.5660   27.4800 O.3    85  C85         0.0000
   1770  C3'       25.0920   19.3050   28.4750 C.3    85  C85         0.0000
   1771  O3'       26.5030   19.4340   28.3290 O.3    85  C85         0.0000
   1772  C2'       24.3530   20.5340   27.9660 C.3    85  C85         0.0000
   1773  O2'       24.8870   21.0460   26.7620 O.3    85  C85         0.0000
   1774  C1'       22.9600   19.9550   27.7120 C.3    85  C85         0.0000
   1775  N1        22.0830   20.1390   28.8740 N.ar   85  C85         0.0000
   1776  C2        21.4060   21.3530   29.0070 C.ar   85  C85         0.0000
   1777  O2        21.5530   22.2190   28.1300 O.2    85  C85         0.0000
   1778  N3        20.6120   21.5540   30.0810 N.ar   85  C85         0.0000
   1779  C4        20.4790   20.5950   31.0000 C.ar   85  C85         0.0000
   1780  N4        19.6860   20.8430   32.0450 N.pl3  85  C85         0.0000
   1781  C5        21.1540   19.3430   30.8870 C.ar   85  C85         0.0000
   1782  C6        21.9370   19.1580   29.8170 C.ar   85  C85         0.0000
   1783  OP1       25.2440   14.5740   30.0450 O.2    85  C85        -0.5000
   1784  OP2       23.2700   15.4970   31.3990 O.co2  85  C85        -0.5000
   1785  P         27.3690   20.1050   29.5070 P.3    86  G86         0.0000
   1786  C5'       27.2470   22.4110   28.2890 C.3    86  G86         0.0000
   1787  O5'       26.9440   21.6340   29.4390 O.3    86  G86         0.0000
   1788  C4'       26.7580   23.8190   28.4790 C.3    86  G86         0.0000
   1789  O4'       25.3070   23.8220   28.4890 O.3    86  G86         0.0000
   1790  C3'       27.1500   24.4250   29.8140 C.3    86  G86         0.0000
   1791  O3'       28.4500   25.0000   29.7680 O.3    86  G86         0.0000
   1792  C2'       26.0600   25.4630   30.0220 C.3    86  G86         0.0000
   1793  O2'       26.2930   26.6370   29.2720 O.3    86  G86         0.0000
   1794  C1'       24.8360   24.7100   29.4910 C.3    86  G86         0.0000
   1795  N1        21.2950   24.6350   33.1330 N.ar   86  G86         0.0000
   1796  C2        21.6390   25.6490   32.2700 C.ar   86  G86         0.0000
   1797  N2        20.9590   26.7990   32.4030 N.pl3  86  G86         0.0000
   1798  N3        22.5810   25.5460   31.3450 N.ar   86  G86         0.0000
   1799  C4        23.1640   24.3280   31.3530 C.ar   86  G86         0.0000
   1800  C5        22.8970   23.2490   32.1700 C.ar   86  G86         0.0000
   1801  C6        21.8800   23.3740   33.1600 C.ar   86  G86         0.0000
   1802  O6        21.4930   22.5340   33.9810 O.2    86  G86         0.0000
   1803  N7        23.7210   22.1770   31.8550 N.ar   86  G86         0.0000
   1804  C8        24.4590   22.6160   30.8730 C.ar   86  G86         0.0000
   1805  N9        24.1780   23.9150   30.5240 N.ar   86  G86         0.0000
   1806  OP1       28.8040   20.0280   29.1410 O.2    86  G86        -0.5000
   1807  OP2       26.9120   19.5200   30.7950 O.co2  86  G86        -0.5000
   1808  P         29.3270   25.0750   31.1130 P.3    87  A87         0.0000
   1809  C5'       28.4890   27.5530   31.2850 C.3    87  A87         0.0000
   1810  O5'       28.6610   26.2850   31.9090 O.3    87  A87         0.0000
   1811  C4'       27.5130   28.3970   32.0700 C.3    87  A87         0.0000
   1812  O4'       26.1750   27.8390   31.9610 O.3    87  A87         0.0000
   1813  C3'       27.7520   28.4710   33.5700 C.3    87  A87         0.0000
   1814  O3'       28.7670   29.4130   33.8950 O.3    87  A87         0.0000
   1815  C2'       26.3790   28.8920   34.0790 C.3    87  A87         0.0000
   1816  O2'       26.1210   30.2740   33.9030 O.3    87  A87         0.0000
   1817  C1'       25.4640   28.0680   33.1690 C.3    87  A87         0.0000
   1818  N1        22.4320   25.5480   36.4440 N.ar   87  A87         0.0000
   1819  C2        22.4490   26.8180   36.0290 C.ar   87  A87         0.0000
   1820  N3        23.2590   27.4070   35.1570 N.ar   87  A87         0.0000
   1821  C4        24.1510   26.5280   34.6750 C.ar   87  A87         0.0000
   1822  C5        24.2570   25.1880   35.0020 C.ar   87  A87         0.0000
   1823  C6        23.3410   24.6900   35.9400 C.ar   87  A87         0.0000
   1824  N6        23.3230   23.4250   36.3570 N.pl3  87  A87         0.0000
   1825  N7        25.2970   24.5920   34.3020 N.ar   87  A87         0.0000
   1826  C8        25.7900   25.5690   33.5810 C.ar   87  A87         0.0000
   1827  N9        25.1510   26.7720   33.7680 N.ar   87  A87         0.0000
   1828  OP1       30.7210   25.4440   30.7460 O.2    87  A87        -0.5000
   1829  OP2       29.0810   23.8240   31.8790 O.co2  87  A87        -0.5000
   1830  P         29.6960   29.1630   35.1810 P.3    88  C88         0.0000
   1831  C5'       28.1270   30.7390   36.5820 C.3    88  C88         0.0000
   1832  O5'       28.7250   29.4570   36.4100 O.3    88  C88         0.0000
   1833  C4'       27.1520   30.7120   37.7390 C.3    88  C88         0.0000
   1834  O4'       26.0320   29.8420   37.4170 O.3    88  C88         0.0000
   1835  C3'       27.6820   30.1490   39.0490 C.3    88  C88         0.0000
   1836  O3'       28.4060   31.1280   39.7840 O.3    88  C88         0.0000
   1837  C2'       26.3940   29.7650   39.7630 C.3    88  C88         0.0000
   1838  O2'       25.7450   30.8850   40.3290 O.3    88  C88         0.0000
   1839  C1'       25.5580   29.2230   38.6020 C.3    88  C88         0.0000
   1840  N1        25.6930   27.7680   38.4530 N.ar   88  C88         0.0000
   1841  C2        25.0040   26.9350   39.3380 C.ar   88  C88         0.0000
   1842  O2        24.2900   27.4490   40.2120 O.2    88  C88         0.0000
   1843  N3        25.1310   25.5950   39.2210 N.ar   88  C88         0.0000
   1844  C4        25.9070   25.0810   38.2650 C.ar   88  C88         0.0000
   1845  N4        26.0030   23.7530   38.1880 N.pl3  88  C88         0.0000
   1846  C5        26.6170   25.9070   37.3470 C.ar   88  C88         0.0000
   1847  C6        26.4820   27.2320   37.4750 C.ar   88  C88         0.0000
   1848  OP1       30.7780   30.1820   35.1690 O.2    88  C88        -0.5000
   1849  OP2       30.0470   27.7200   35.2280 O.co2  88  C88        -0.5000
   1850  P         29.3500   30.6690   41.0000 P.3    89  C89         0.0000
   1851  C5'       28.7350   29.2690   43.1510 C.3    89  C89         0.0000
   1852  O5'       28.3220   30.1490   42.1040 O.3    89  C89         0.0000
   1853  C4'       27.5250   28.6640   43.8260 C.3    89  C89         0.0000
   1854  O4'       26.6800   28.0620   42.8090 O.3    89  C89         0.0000
   1855  C3'       27.7960   27.5370   44.8140 C.3    89  C89         0.0000
   1856  O3'       28.0640   28.0270   46.1240 O.3    89  C89         0.0000
   1857  C2'       26.4850   26.7650   44.7930 C.3    89  C89         0.0000
   1858  O2'       25.4990   27.3450   45.6200 O.3    89  C89         0.0000
   1859  C1'       26.0850   26.8810   43.3190 C.3    89  C89         0.0000
   1860  N1        26.5590   25.7440   42.5190 N.ar   89  C89         0.0000
   1861  C2        25.9100   24.5160   42.6490 C.ar   89  C89         0.0000
   1862  O2        24.9410   24.4310   43.4190 O.2    89  C89         0.0000
   1863  N3        26.3500   23.4540   41.9370 N.ar   89  C89         0.0000
   1864  C4        27.3910   23.5890   41.1160 C.ar   89  C89         0.0000
   1865  N4        27.7920   22.5140   40.4370 N.pl3  89  C89         0.0000
   1866  C5        28.0660   24.8330   40.9550 C.ar   89  C89         0.0000
   1867  C6        27.6210   25.8750   41.6690 C.ar   89  C89         0.0000
   1868  OP1       30.0260   31.8840   41.5170 O.3    89  C89        -0.5000
   1869  OP2       30.1650   29.5180   40.5330 O.co2  89  C89        -0.5000
   1870  P         28.8020   27.0790   47.1960 P.3    90  G90         0.0000
   1871  C5'       26.6620   25.9150   48.2240 C.3    90  G90         0.0000
   1872  O5'       27.8220   25.8300   47.3900 O.3    90  G90         0.0000
   1873  C4'       26.2420   24.5350   48.6980 C.3    90  G90         0.0000
   1874  O4'       26.0770   23.6860   47.5370 O.3    90  G90         0.0000
   1875  C3'       27.3030   23.8560   49.5660 C.3    90  G90         0.0000
   1876  O3'       26.8410   23.2310   50.7680 O.3    90  G90         0.0000
   1877  C2'       28.0820   22.9310   48.6350 C.3    90  G90         0.0000
   1878  O2'       28.3290   21.6690   49.2160 O.3    90  G90         0.0000
   1879  C1'       27.0770   22.6960   47.5130 C.3    90  G90         0.0000
   1880  N1        28.5010   19.4320   43.9470 N.ar   90  G90         0.0000
   1881  C2        28.0400   19.2020   45.2200 C.ar   90  G90         0.0000
   1882  N2        27.9320   17.9210   45.5930 N.pl3  90  G90         0.0000
   1883  N3        27.7100   20.1550   46.0670 N.ar   90  G90         0.0000
   1884  C4        27.8770   21.3820   45.5360 C.ar   90  G90         0.0000
   1885  C5        28.3280   21.7260   44.2810 C.ar   90  G90         0.0000
   1886  C6        28.6830   20.6870   43.3770 C.ar   90  G90         0.0000
   1887  O6        29.1070   20.7810   42.2190 O.2    90  G90         0.0000
   1888  N7        28.3510   23.1070   44.1280 N.ar   90  G90         0.0000
   1889  C8        27.9190   23.5650   45.2730 C.ar   90  G90         0.0000
   1890  N9        27.6080   22.5680   46.1640 N.ar   90  G90         0.0000
   1891  OP1       28.8750   27.8110   48.4830 O.3    90  G90        -0.5000
   1892  OP2       30.0540   26.5910   46.5630 O.co2  90  G90        -0.5000
   1893  P         25.9890   24.0610   51.8490 P.3    91  U91         0.0000
   1894  C5'       23.5450   24.2620   50.9140 C.3    91  U91         0.0000
   1895  O5'       24.5020   23.5160   51.6650 O.3    91  U91         0.0000
   1896  C4'       22.2580   23.4780   50.7390 C.3    91  U91         0.0000
   1897  O4'       22.5260   22.2790   49.9600 O.3    91  U91         0.0000
   1898  C3'       21.6840   22.9880   52.0660 C.3    91  U91         0.0000
   1899  O3'       20.3240   23.3670   52.3110 O.3    91  U91         0.0000
   1900  C2'       22.1140   21.5260   52.2120 C.3    91  U91         0.0000
   1901  O2'       21.0800   20.7030   52.7120 O.3    91  U91         0.0000
   1902  C1'       22.3620   21.1210   50.7580 C.3    91  U91         0.0000
   1903  N1        23.4530   20.1710   50.4910 N.ar   91  U91         0.0000
   1904  C2        23.0910   18.9040   50.0540 C.ar   91  U91         0.0000
   1905  O2        21.9310   18.5710   49.8780 O.2    91  U91         0.0000
   1906  N3        24.1360   18.0450   49.8260 N.ar   91  U91         0.0000
   1907  C4        25.4780   18.3120   49.9830 C.ar   91  U91         0.0000
   1908  O4        26.3010   17.4300   49.7370 O.2    91  U91         0.0000
   1909  C5        25.7750   19.6400   50.4340 C.ar   91  U91         0.0000
   1910  C6        24.7750   20.5040   50.6660 C.ar   91  U91         0.0000
   1911  OP1       25.9870   25.5040   51.5020 O.2    91  U91        -0.5000
   1912  OP2       26.4810   23.6250   53.1780 O.co2  91  U91        -0.5000
   1913  P         19.7090   23.2830   53.7980 P.3    92  U92         0.0000
   1914  C5'       18.3490   25.5120   53.4960 C.3    92  U92         0.0000
   1915  O5'       19.4060   24.8080   54.1500 O.3    92  U92         0.0000
   1916  C4'       18.7400   26.9560   53.2430 C.3    92  U92         0.0000
   1917  O4'       18.9600   27.6190   54.5150 O.3    92  U92         0.0000
   1918  C3'       20.0410   27.1010   52.4670 C.3    92  U92         0.0000
   1919  O3'       19.9770   27.8820   51.2740 O.3    92  U92         0.0000
   1920  C2'       21.1350   27.3770   53.4990 C.3    92  U92         0.0000
   1921  O2'       21.9990   28.4210   53.0900 O.3    92  U92         0.0000
   1922  C1'       20.3360   27.8930   54.7020 C.3    92  U92         0.0000
   1923  N1        20.7460   27.3380   56.0010 N.ar   92  U92         0.0000
   1924  C2        21.9070   27.8300   56.5740 C.ar   92  U92         0.0000
   1925  O2        22.5920   28.6950   56.0510 O.2    92  U92         0.0000
   1926  N3        22.2360   27.2700   57.7850 N.ar   92  U92         0.0000
   1927  C4        21.5370   26.2920   58.4680 C.ar   92  U92         0.0000
   1928  O4        21.9650   25.8850   59.5520 O.2    92  U92         0.0000
   1929  C5        20.3470   25.8390   57.8100 C.ar   92  U92         0.0000
   1930  C6        20.0020   26.3650   56.6290 C.ar   92  U92         0.0000
   1931  OP1       20.7330   22.7620   54.7420 O.3    92  U92        -0.5000
   1932  OP2       18.4070   22.5810   53.6790 O.co2  92  U92        -0.5000
   1933  P         19.5270   27.1970   49.8920 P.3    93  A93         0.0000
   1934  C5'       21.8960   27.5490   48.7910 C.3    93  A93         0.0000
   1935  O5'       20.8810   26.6550   49.2490 O.3    93  A93         0.0000
   1936  C4'       22.4990   27.0360   47.5030 C.3    93  A93         0.0000
   1937  O4'       22.9400   25.6690   47.7030 O.3    93  A93         0.0000
   1938  C3'       21.5470   26.9850   46.3180 C.3    93  A93         0.0000
   1939  O3'       21.6360   28.2190   45.6130 O.3    93  A93         0.0000
   1940  C2'       22.1050   25.8390   45.4850 C.3    93  A93         0.0000
   1941  O2'       23.1760   26.2550   44.6670 O.3    93  A93         0.0000
   1942  C1'       22.6280   24.8910   46.5660 C.3    93  A93         0.0000
   1943  N1        21.9390   19.8770   47.4510 N.ar   93  A93         0.0000
   1944  C2        22.9880   20.5750   47.0040 C.ar   93  A93         0.0000
   1945  N3        23.0970   21.8830   46.7830 N.ar   93  A93         0.0000
   1946  C4        21.9460   22.5110   47.0770 C.ar   93  A93         0.0000
   1947  C5        20.7820   21.9310   47.5460 C.ar   93  A93         0.0000
   1948  C6        20.7960   20.5400   47.7370 C.ar   93  A93         0.0000
   1949  N6        19.7490   19.8440   48.1840 N.pl3  93  A93         0.0000
   1950  N7        19.7980   22.8910   47.7380 N.ar   93  A93         0.0000
   1951  C8        20.3800   24.0120   47.3890 C.ar   93  A93         0.0000
   1952  N9        21.6840   23.8570   46.9870 N.ar   93  A93         0.0000
   1953  OP1       18.9740   28.2530   49.0020 O.2    93  A93        -0.5000
   1954  OP2       18.6910   26.0190   50.2490 O.co2  93  A93        -0.5000
   1955  P         20.4520   28.6710   44.6280 P.3    94  G94         0.0000
   1956  C5'       22.2560   29.2220   42.8350 C.3    94  G94         0.0000
   1957  O5'       21.1620   29.6720   43.6130 O.3    94  G94         0.0000
   1958  C4'       22.9840   30.3770   42.1900 C.3    94  G94         0.0000
   1959  O4'       22.1180   31.0090   41.2100 O.3    94  G94         0.0000
   1960  C3'       23.3650   31.4760   43.1750 C.3    94  G94         0.0000
   1961  O3'       24.7510   31.7910   43.1900 O.3    94  G94         0.0000
   1962  C2'       22.3280   32.5860   43.0200 C.3    94  G94         0.0000
   1963  O2'       22.9250   33.8640   42.9360 O.3    94  G94         0.0000
   1964  C1'       21.7760   32.3110   41.6260 C.3    94  G94         0.0000
   1965  N1        18.3450   34.8770   38.9710 N.ar   94  G94         0.0000
   1966  C2        19.7110   34.8320   38.8350 C.ar   94  G94         0.0000
   1967  N2        20.2370   35.5980   37.8710 N.pl3  94  G94         0.0000
   1968  N3        20.5010   34.0900   39.5870 N.ar   94  G94         0.0000
   1969  C4        19.8080   33.3820   40.5030 C.ar   94  G94         0.0000
   1970  C5        18.4500   33.3490   40.7220 C.ar   94  G94         0.0000
   1971  C6        17.6080   34.1560   39.9070 C.ar   94  G94         0.0000
   1972  O6        16.3750   34.2730   39.9450 O.2    94  G94         0.0000
   1973  N7        18.1400   32.4820   41.7640 N.ar   94  G94         0.0000
   1974  C8        19.2980   32.0180   42.1520 C.ar   94  G94         0.0000
   1975  N9        20.3500   32.5400   41.4380 N.ar   94  G94         0.0000
   1976  OP1       19.4370   29.4370   45.3980 O.3    94  G94        -0.5000
   1977  OP2       20.0490   27.4570   43.8800 O.co2  94  G94        -0.5000
   1978  P         25.3400   32.8250   44.2660 P.3    95  A95         0.0000
   1979  C5'       27.3550   33.3230   42.6780 C.3    95  A95         0.0000
   1980  O5'       26.2050   33.8130   43.3630 O.3    95  A95         0.0000
   1981  C4'       27.5310   34.0170   41.3460 C.3    95  A95         0.0000
   1982  O4'       26.3370   33.8600   40.5410 O.3    95  A95         0.0000
   1983  C3'       27.7380   35.5210   41.3690 C.3    95  A95         0.0000
   1984  O3'       29.0960   35.8290   41.6550 O.3    95  A95         0.0000
   1985  C2'       27.3930   35.9060   39.9340 C.3    95  A95         0.0000
   1986  O2'       28.4580   35.6850   39.0310 O.3    95  A95         0.0000
   1987  C1'       26.2600   34.9300   39.6150 C.3    95  A95         0.0000
   1988  N1        23.0560   38.3090   37.4810 N.ar   95  A95         0.0000
   1989  C2        24.3040   37.9270   37.1770 C.ar   95  A95         0.0000
   1990  N3        25.0850   37.0370   37.7860 N.ar   95  A95         0.0000
   1991  C4        24.4520   36.4970   38.8420 C.ar   95  A95         0.0000
   1992  C5        23.1740   36.7850   39.2810 C.ar   95  A95         0.0000
   1993  C6        22.4520   37.7440   38.5510 C.ar   95  A95         0.0000
   1994  N6        21.2100   38.1230   38.8570 N.pl3  95  A95         0.0000
   1995  N7        22.8600   36.0330   40.4030 N.ar   95  A95         0.0000
   1996  C8        23.9380   35.3160   40.6130 C.ar   95  A95         0.0000
   1997  N9        24.9390   35.5450   39.7030 N.ar   95  A95         0.0000
   1998  OP1       26.2730   32.0490   45.1180 O.3    95  A95        -0.5000
   1999  OP2       24.2300   33.5750   44.8980 O.co2  95  A95        -0.5000
   2000  P         29.4410   37.0280   42.6620 P.3    96  G96         0.0000
   2001  C5'       29.3590   38.8340   40.7580 C.3    96  G96         0.0000
   2002  O5'       28.8100   38.3140   41.9660 O.3    96  G96         0.0000
   2003  C4'       28.3780   39.7760   40.1010 C.3    96  G96         0.0000
   2004  O4'       27.1690   39.0460   39.7580 O.3    96  G96         0.0000
   2005  C3'       27.8770   40.9150   40.9720 C.3    96  G96         0.0000
   2006  O3'       28.7860   42.0050   40.9860 O.3    96  G96         0.0000
   2007  C2'       26.5630   41.2800   40.2930 C.3    96  G96         0.0000
   2008  O2'       26.7340   42.0730   39.1340 O.3    96  G96         0.0000
   2009  C1'       26.0410   39.8970   39.9010 C.3    96  G96         0.0000
   2010  N1        21.4760   40.1320   42.0810 N.ar   96  G96         0.0000
   2011  C2        22.0010   40.8940   41.0660 C.ar   96  G96         0.0000
   2012  N2        21.2010   41.8430   40.5650 N.pl3  96  G96         0.0000
   2013  N3        23.2190   40.7370   40.5790 N.ar   96  G96         0.0000
   2014  C4        23.8850   39.7390   41.1990 C.ar   96  G96         0.0000
   2015  C5        23.4550   38.9210   42.2220 C.ar   96  G96         0.0000
   2016  C6        22.1430   39.1010   42.7350 C.ar   96  G96         0.0000
   2017  O6        21.5750   38.4770   43.6380 O.2    96  G96         0.0000
   2018  N7        24.4460   38.0160   42.5780 N.ar   96  G96         0.0000
   2019  C8        25.4400   38.2950   41.7800 C.ar   96  G96         0.0000
   2020  N9        25.1640   39.3300   40.9180 N.ar   96  G96         0.0000
   2021  OP1       30.9190   37.1860   42.6820 O.2    96  G96        -0.5000
   2022  OP2       28.7090   36.7700   43.9260 O.co2  96  G96        -0.5000
   2023  P         28.7560   43.0390   42.2130 P.3    97  G97         0.0000
   2024  C5'       27.1290   44.7820   41.1180 C.3    97  G97         0.0000
   2025  O5'       27.3390   43.7580   42.0840 O.3    97  G97         0.0000
   2026  C4'       25.8180   45.4820   41.3740 C.3    97  G97         0.0000
   2027  O4'       24.7260   44.5380   41.2080 O.3    97  G97         0.0000
   2028  C3'       25.6210   46.0140   42.7840 C.3    97  G97         0.0000
   2029  O3'       26.2340   47.2860   42.9520 O.3    97  G97         0.0000
   2030  C2'       24.1050   46.1170   42.8790 C.3    97  G97         0.0000
   2031  O2'       23.5990   47.2920   42.2760 O.3    97  G97         0.0000
   2032  C1'       23.6660   44.8790   42.0890 C.3    97  G97         0.0000
   2033  N1        20.3950   42.7580   45.3260 N.ar   97  G97         0.0000
   2034  C2        20.2970   43.9410   44.6340 C.ar   97  G97         0.0000
   2035  N2        19.1810   44.6570   44.8380 N.pl3  97  G97         0.0000
   2036  N3        21.2240   44.3890   43.8040 N.ar   97  G97         0.0000
   2037  C4        22.2750   43.5480   43.7210 C.ar   97  G97         0.0000
   2038  C5        22.4710   42.3480   44.3690 C.ar   97  G97         0.0000
   2039  C6        21.4670   41.8770   45.2550 C.ar   97  G97         0.0000
   2040  O6        21.4520   40.8380   45.9220 O.2    97  G97         0.0000
   2041  N7        23.6890   41.7880   44.0100 N.ar   97  G97         0.0000
   2042  C8        24.2020   42.6440   43.1680 C.ar   97  G97         0.0000
   2043  N9        23.3960   43.7350   42.9520 N.ar   97  G97         0.0000
   2044  OP1       29.8210   44.0480   41.9600 O.2    97  G97        -0.5000
   2045  OP2       28.7620   42.2590   43.4780 O.co2  97  G97        -0.5000
   2046  P         26.4480   47.8700   44.4330 P.3    98  A98         0.0000
   2047  C5'       24.3510   49.4460   44.3580 C.3    98  A98         0.0000
   2048  O5'       24.9850   48.2920   44.9020 O.3    98  A98         0.0000
   2049  C4'       22.9870   49.6390   44.9770 C.3    98  A98         0.0000
   2050  O4'       22.2000   48.4380   44.7630 O.3    98  A98         0.0000
   2051  C3'       22.9450   49.8350   46.4850 C.3    98  A98         0.0000
   2052  O3'       23.1770   51.1970   46.8330 O.3    98  A98         0.0000
   2053  C2'       21.5140   49.4290   46.8110 C.3    98  A98         0.0000
   2054  O2'       20.5860   50.4510   46.5090 O.3    98  A98         0.0000
   2055  C1'       21.3080   48.2560   45.8500 C.3    98  A98         0.0000
   2056  N1        19.5620   44.5790   48.9800 N.ar   98  A98         0.0000
   2057  C2        19.0280   45.7330   48.5560 C.ar   98  A98         0.0000
   2058  N3        19.5380   46.6470   47.7330 N.ar   98  A98         0.0000
   2059  C4        20.7610   46.2780   47.3170 C.ar   98  A98         0.0000
   2060  C5        21.4420   45.1240   47.6620 C.ar   98  A98         0.0000
   2061  C6        20.7930   44.2390   48.5430 C.ar   98  A98         0.0000
   2062  N6        21.3270   43.0930   48.9660 N.pl3  98  A98         0.0000
   2063  N7        22.6810   45.0810   47.0370 N.ar   98  A98         0.0000
   2064  C8        22.7220   46.1920   46.3420 C.ar   98  A98         0.0000
   2065  N9        21.5950   46.9640   46.4680 N.ar   98  A98         0.0000
   2066  OP1       27.2660   49.1040   44.3110 O.2    98  A98        -0.5000
   2067  OP2       26.9160   46.7610   45.3050 O.co2  98  A98        -0.5000
   2068  P         23.8340   51.5570   48.2600 P.3    99  C99         0.0000
   2069  C5'       21.5450   52.0870   49.4490 C.3    99  C99         0.0000
   2070  O5'       22.6840   51.2350   49.3230 O.3    99  C99         0.0000
   2071  C4'       20.4910   51.4440   50.3230 C.3    99  C99         0.0000
   2072  O4'       20.2020   50.1210   49.7990 O.3    99  C99         0.0000
   2073  C3'       20.8730   51.1850   51.7720 C.3    99  C99         0.0000
   2074  O3'       20.6720   52.3370   52.5910 O.3    99  C99         0.0000
   2075  C2'       19.9170   50.0610   52.1580 C.3    99  C99         0.0000
   2076  O2'       18.6240   50.5120   52.5090 O.3    99  C99         0.0000
   2077  C1'       19.8680   49.2460   50.8640 C.3    99  C99         0.0000
   2078  N1        20.8310   48.1360   50.8720 N.ar   99  C99         0.0000
   2079  C2        20.4700   46.9350   51.5000 C.ar   99  C99         0.0000
   2080  O2        19.3400   46.8390   52.0130 O.2    99  C99         0.0000
   2081  N3        21.3590   45.9140   51.5310 N.ar   99  C99         0.0000
   2082  C4        22.5610   46.0580   50.9660 C.ar   99  C99         0.0000
   2083  N4        23.4060   45.0280   51.0240 N.pl3  99  C99         0.0000
   2084  C5        22.9500   47.2660   50.3160 C.ar   99  C99         0.0000
   2085  C6        22.0620   48.2690   50.2900 C.ar   99  C99         0.0000
   2086  OP1       24.0840   53.0260   48.2780 O.2    99  C99        -0.5000
   2087  OP2       24.9660   50.6170   48.4830 O.co2  99  C99        -0.5000
   2088  P         21.5510   52.5340   53.9320 P.3   100  U100        0.0000
   2089  C5'       19.7880   51.4160   55.5340 C.3   100  U100        0.0000
   2090  O5'       21.0650   51.3620   54.9030 O.3   100  U100        0.0000
   2091  C4'       19.5510   50.1780   56.3740 C.3   100  U100        0.0000
   2092  O4'       19.6060   49.0010   55.5260 O.3   100  U100        0.0000
   2093  C3'       20.5610   49.8580   57.4680 C.3   100  U100        0.0000
   2094  O3'       20.3400   50.6100   58.6600 O.3   100  U100        0.0000
   2095  C2'       20.2830   48.3820   57.7170 C.3   100  U100        0.0000
   2096  O2'       19.1400   48.1700   58.5290 O.3   100  U100        0.0000
   2097  C1'       20.0170   47.8810   56.2970 C.3   100  U100        0.0000
   2098  N1        21.2060   47.2880   55.6700 N.ar  100  U100        0.0000
   2099  C2        21.5580   46.0030   56.0530 C.ar  100  U100        0.0000
   2100  O2        20.9310   45.3640   56.8780 O.2   100  U100        0.0000
   2101  N3        22.6710   45.4950   55.4330 N.ar  100  U100        0.0000
   2102  C4        23.4560   46.1270   54.4890 C.ar  100  U100        0.0000
   2103  O4        24.4340   45.5350   54.0190 O.2   100  U100        0.0000
   2104  C5        23.0300   47.4560   54.1480 C.ar  100  U100        0.0000
   2105  C6        21.9450   47.9770   54.7380 C.ar  100  U100        0.0000
   2106  OP1       21.1720   53.8400   54.5360 O.3   100  U100       -0.5000
   2107  OP2       22.9760   52.2700   53.5820 O.co2 100  U100       -0.5000
   2108  P         21.5770   50.9180   59.6480 P.3   101  G101        0.0000
   2109  C5'       21.0620   48.8170   61.1450 C.3   101  G101        0.0000
   2110  O5'       21.9630   49.4950   60.2690 O.3   101  G101        0.0000
   2111  C4'       21.5030   47.3840   61.3860 C.3   101  G101        0.0000
   2112  O4'       21.7280   46.7190   60.1150 O.3   101  G101        0.0000
   2113  C3'       22.8070   47.1360   62.1300 C.3   101  G101        0.0000
   2114  O3'       22.6160   47.2500   63.5360 O.3   101  G101        0.0000
   2115  C2'       23.1050   45.6840   61.7530 C.3   101  G101        0.0000
   2116  O2'       22.3360   44.7550   62.4970 O.3   101  G101        0.0000
   2117  C1'       22.6340   45.6420   60.3020 C.3   101  G101        0.0000
   2118  N1        26.3410   43.1310   57.9250 N.ar  101  G101        0.0000
   2119  C2        25.5480   42.7300   58.9640 C.ar  101  G101        0.0000
   2120  N2        25.7440   41.4800   59.4120 N.pl3 101  G101        0.0000
   2121  N3        24.6280   43.4950   59.5270 N.ar  101  G101        0.0000
   2122  C4        24.5680   44.7160   58.9590 C.ar  101  G101        0.0000
   2123  C5        25.3190   45.2160   57.9230 C.ar  101  G101        0.0000
   2124  C6        26.2950   44.3830   57.3240 C.ar  101  G101        0.0000
   2125  O6        27.0530   44.6390   56.3840 O.2   101  G101        0.0000
   2126  N7        24.9530   46.5240   57.6340 N.ar  101  G101        0.0000
   2127  C8        23.9950   46.7880   58.4820 C.ar  101  G101        0.0000
   2128  N9        23.6950   45.7240   59.3010 N.ar  101  G101        0.0000
   2129  OP1       21.0790   51.7950   60.7460 O.3   101  G101       -0.5000
   2130  OP2       22.7060   51.3810   58.7900 O.co2 101  G101       -0.5000
   2131  P         23.8820   47.4850   64.5050 P.3   102  G102        0.0000
   2132  C5'       24.3850   44.9310   64.6640 C.3   102  G102        0.0000
   2133  O5'       24.8270   46.2200   64.2760 O.3   102  G102        0.0000
   2134  C4'       25.2350   43.8400   64.0440 C.3   102  G102        0.0000
   2135  O4'       25.5280   44.1730   62.6560 O.3   102  G102        0.0000
   2136  C3'       26.5940   43.6990   64.7150 C.3   102  G102        0.0000
   2137  O3'       26.8870   42.4210   65.2620 O.3   102  G102        0.0000
   2138  C2'       27.6140   44.4060   63.8340 C.3   102  G102        0.0000
   2139  O2'       28.7610   43.6090   63.6420 O.3   102  G102        0.0000
   2140  C1'       26.9080   44.4270   62.4850 C.3   102  G102        0.0000
   2141  N1        29.1210   46.3070   58.3570 N.ar  102  G102        0.0000
   2142  C2        29.1460   45.0330   58.8570 C.ar  102  G102        0.0000
   2143  N2        29.8620   44.1420   58.1600 N.pl3 102  G102        0.0000
   2144  N3        28.5160   44.6620   59.9560 N.ar  102  G102        0.0000
   2145  C4        27.8470   45.6870   60.5200 C.ar  102  G102        0.0000
   2146  C5        27.7570   46.9930   60.0970 C.ar  102  G102        0.0000
   2147  C6        28.4370   47.3740   58.9210 C.ar  102  G102        0.0000
   2148  O6        28.4800   48.4840   58.3810 O.2   102  G102        0.0000
   2149  N7        26.9700   47.7380   60.9630 N.ar  102  G102        0.0000
   2150  C8        26.6020   46.8850   61.8820 C.ar  102  G102        0.0000
   2151  N9        27.1020   45.6220   61.6710 N.ar  102  G102        0.0000
   2152  OP1       23.3630   47.4150   65.8940 O.3   102  G102       -0.5000
   2153  OP2       24.6080   48.7000   64.0480 O.co2 102  G102       -0.5000
   2154  P         28.1330   42.2520   66.2590 P.3   103  U103        0.0000
   2155  C5'       27.6320   43.9950   68.1550 C.3   103  U103        0.0000
   2156  O5'       28.2890   43.6950   66.9320 O.3   103  U103        0.0000
   2157  C4'       28.6270   44.0140   69.2890 C.3   103  U103        0.0000
   2158  O4'       27.9120   43.6440   70.5020 O.3   103  U103        0.0000
   2159  C3'       29.7240   42.9720   69.1510 C.3   103  U103        0.0000
   2160  O3'       31.0570   43.3570   68.7970 O.3   103  U103        0.0000
   2161  C2'       29.3130   41.7500   69.9640 C.3   103  U103        0.0000
   2162  O2'       30.3730   41.1950   70.7100 O.3   103  U103        0.0000
   2163  C1'       28.2710   42.3330   70.9220 C.3   103  U103        0.0000
   2164  OP1       29.3340   41.9950   65.4160 O.2   103  U103       -0.5000
   2165  OP2       27.7500   41.2650   67.3070 O.co2 103  U103       -0.5000
   2166  P         32.2110   43.4590   69.9260 P.3   104  A104        0.0000
   2167  C5'       33.0330   40.9980   69.4660 C.3   104  A104        0.0000
   2168  O5'       33.3110   42.3910   69.4970 O.3   104  A104        0.0000
   2169  C4'       34.2530   40.2540   68.9810 C.3   104  A104        0.0000
   2170  O4'       34.5880   40.6980   67.6400 O.3   104  A104        0.0000
   2171  C3'       35.5230   40.5240   69.7620 C.3   104  A104        0.0000
   2172  O3'       35.5150   39.7220   70.9270 O.3   104  A104        0.0000
   2173  C2'       36.6050   40.1430   68.7530 C.3   104  A104        0.0000
   2174  O2'       36.7670   38.7460   68.6120 O.3   104  A104        0.0000
   2175  C1'       35.9900   40.6430   67.4500 C.3   104  A104        0.0000
   2176  N1        39.0700   43.1250   64.1990 N.ar  104  A104        0.0000
   2177  C2        38.9810   41.8500   64.5340 C.ar  104  A104        0.0000
   2178  N3        38.1900   41.2690   65.4210 N.ar  104  A104        0.0000
   2179  C4        37.4080   42.1760   66.0250 C.ar  104  A104        0.0000
   2180  C5        37.3990   43.5320   65.7940 C.ar  104  A104        0.0000
   2181  C6        38.2740   44.0130   64.8210 C.ar  104  A104        0.0000
   2182  N6        38.3610   45.2880   64.4710 N.pl3 104  A104        0.0000
   2183  N7        36.4710   44.1600   66.6050 N.ar  104  A104        0.0000
   2184  C8        35.9380   43.1780   67.2890 C.ar  104  A104        0.0000
   2185  N9        36.4350   41.9480   66.9650 N.ar  104  A104        0.0000
   2186  OP1       31.6680   43.0650   71.2600 O.3   104  A104       -0.5000
   2187  OP2       32.8380   44.8050   69.7410 O.co2 104  A104       -0.5000
   2188  P         36.5930   39.9810   72.0840 P.3   105  A105        0.0000
   2189  C5'       39.1070   39.4050   72.0830 C.3   105  A105        0.0000
   2190  O5'       37.8460   39.1870   71.5350 O.3   105  A105        0.0000
   2191  C4'       40.1500   39.2210   71.0370 C.3   105  A105        0.0000
   2192  O4'       39.6890   39.7000   69.7460 O.3   105  A105        0.0000
   2193  C3'       41.3220   40.1150   71.3300 C.3   105  A105        0.0000
   2194  O3'       42.0720   39.5740   72.3870 O.3   105  A105        0.0000
   2195  C2'       41.9930   40.1960   69.9720 C.3   105  A105        0.0000
   2196  O2'       42.6880   39.0060   69.6550 O.3   105  A105        0.0000
   2197  C1'       40.7710   40.3220   69.0630 C.3   105  A105        0.0000
   2198  N1        41.7160   44.4390   66.1510 N.ar  105  A105        0.0000
   2199  C2        42.2670   43.2220   66.2020 C.ar  105  A105        0.0000
   2200  N3        41.9700   42.1920   66.9930 N.ar  105  A105        0.0000
   2201  C4        40.9700   42.5100   67.8240 C.ar  105  A105        0.0000
   2202  C5        40.3030   43.7240   67.8970 C.ar  105  A105        0.0000
   2203  C6        40.7070   44.7250   67.0030 C.ar  105  A105        0.0000
   2204  N6        40.1530   45.9310   66.9470 N.pl3 105  A105        0.0000
   2205  N7        39.3280   43.6930   68.8830 N.ar  105  A105        0.0000
   2206  C8        39.4230   42.4760   69.3780 C.ar  105  A105        0.0000
   2207  N9        40.3990   41.7060   68.7770 N.ar  105  A105        0.0000
   2208  OP1       36.1760   39.2800   73.3240 O.3   105  A105       -0.5000
   2209  OP2       36.9250   41.4140   72.1440 O.co2 105  A105       -0.5000
   2210  P         42.6800   40.5580   73.4770 P.3   106  A106        0.0000
   2211  C5'       44.9800   40.2950   72.2520 C.3   106  A106        0.0000
   2212  O5'       43.9650   41.1460   72.7410 O.3   106  A106        0.0000
   2213  C4'       45.7590   40.9790   71.1510 C.3   106  A106        0.0000
   2214  O4'       44.8560   41.3440   70.0710 O.3   106  A106        0.0000
   2215  C3'       46.4440   42.2940   71.4840 C.3   106  A106        0.0000
   2216  O3'       47.7080   42.0860   72.1240 O.3   106  A106        0.0000
   2217  C2'       46.6530   42.8750   70.0900 C.3   106  A106        0.0000
   2218  O2'       47.7380   42.2730   69.4310 O.3   106  A106        0.0000
   2219  C1'       45.3620   42.4720   69.3800 C.3   106  A106        0.0000
   2220  N1        43.7620   46.9180   67.2850 N.ar  106  A106        0.0000
   2221  C2        44.6770   46.0240   66.8950 C.ar  106  A106        0.0000
   2222  N3        45.0190   44.8570   67.4560 N.ar  106  A106        0.0000
   2223  C4        44.2870   44.6260   68.5650 C.ar  106  A106        0.0000
   2224  C5        43.3050   45.4430   69.0820 C.ar  106  A106        0.0000
   2225  C6        43.0390   46.6500   68.3960 C.ar  106  A106        0.0000
   2226  N6        42.1110   47.5320   68.7840 N.pl3 106  A106        0.0000
   2227  N7        42.7490   44.8760   70.2160 N.ar  106  A106        0.0000
   2228  C8        43.4050   43.7530   70.3680 C.ar  106  A106        0.0000
   2229  N9        44.3760   43.5540   69.4300 N.ar  106  A106        0.0000
   2230  OP1       43.1170   39.8040   74.6810 O.3   106  A106       -0.5000
   2231  OP2       41.6750   41.6400   73.6270 O.co2 106  A106       -0.5000
   2232  P         48.1030   42.9540   73.4220 P.3   107  A107        0.0000
   2233  C5'       48.6830   45.0880   72.0310 C.3   107  A107        0.0000
   2234  O5'       47.8420   44.4610   72.9870 O.3   107  A107        0.0000
   2235  C4'       48.0680   46.3770   71.5620 C.3   107  A107        0.0000
   2236  O4'       46.7150   46.1280   71.0700 O.3   107  A107        0.0000
   2237  C3'       47.8500   47.4420   72.6240 C.3   107  A107        0.0000
   2238  O3'       49.0470   48.1650   72.8560 O.3   107  A107        0.0000
   2239  C2'       46.8400   48.3350   71.9190 C.3   107  A107        0.0000
   2240  O2'       47.4580   49.1130   70.9190 O.3   107  A107        0.0000
   2241  C1'       45.9290   47.2980   71.2550 C.3   107  A107        0.0000
   2242  N1        41.8400   49.2550   73.5740 N.ar  107  A107        0.0000
   2243  C2        42.6810   49.7410   72.6550 C.ar  107  A107        0.0000
   2244  N3        43.7070   49.1530   72.0640 N.ar  107  A107        0.0000
   2245  C4        43.8500   47.8940   72.5130 C.ar  107  A107        0.0000
   2246  C5        43.0680   47.2550   73.4530 C.ar  107  A107        0.0000
   2247  C6        42.0100   47.9930   74.0030 C.ar  107  A107        0.0000
   2248  N6        41.1730   47.5220   74.9170 N.pl3 107  A107        0.0000
   2249  N7        43.5160   45.9570   73.6610 N.ar  107  A107        0.0000
   2250  C8        44.5490   45.8480   72.8580 C.ar  107  A107        0.0000
   2251  N9        44.8210   46.9930   72.1550 N.ar  107  A107        0.0000
   2252  OP1       49.5500   42.8790   73.6900 O.2   107  A107       -0.5000
   2253  OP2       47.1460   42.5670   74.4720 O.co2 107  A107       -0.5000
   2254  P         49.7500   48.1310   74.3020 P.3   108  C108        0.0000
   2255  C5'       48.1790   49.9560   75.3990 C.3   108  C108        0.0000
   2256  O5'       48.6200   48.6060   75.3260 O.3   108  C108        0.0000
   2257  C4'       47.0420   50.0740   76.3880 C.3   108  C108        0.0000
   2258  O4'       45.8590   49.3910   75.8810 O.3   108  C108        0.0000
   2259  C3'       47.2740   49.4230   77.7350 C.3   108  C108        0.0000
   2260  O3'       48.0260   50.2630   78.5950 O.3   108  C108        0.0000
   2261  C2'       45.8510   49.2260   78.2370 C.3   108  C108        0.0000
   2262  O2'       45.2650   50.4090   78.7050 O.3   108  C108        0.0000
   2263  C1'       45.1290   48.8240   76.9550 C.3   108  C108        0.0000
   2264  N1        45.0990   47.3660   76.7650 N.ar  108  C108        0.0000
   2265  C2        44.1320   46.6060   77.4330 C.ar  108  C108        0.0000
   2266  O2        43.3330   47.1750   78.1800 O.2   108  C108        0.0000
   2267  N3        44.0980   45.2700   77.2430 N.ar  108  C108        0.0000
   2268  C4        44.9770   44.6940   76.4190 C.ar  108  C108        0.0000
   2269  N4        44.8920   43.3810   76.2290 N.pl3 108  C108        0.0000
   2270  C5        45.9790   45.4440   75.7430 C.ar  108  C108        0.0000
   2271  C6        46.0030   46.7600   75.9420 C.ar  108  C108        0.0000
   2272  OP1       50.8440   49.1230   74.2510 O.2   108  C108       -0.5000
   2273  OP2       50.0670   46.7280   74.6510 O.co2 108  C108       -0.5000
   2274  P         48.9930   49.6110   79.7010 P.3   109  C109        0.0000
   2275  C5'       47.2450   50.0150   81.6090 C.3   109  C109        0.0000
   2276  O5'       47.9690   49.0940   80.8060 O.3   109  C109        0.0000
   2277  C4'       46.2510   49.2870   82.4870 C.3   109  C109        0.0000
   2278  O4'       45.2390   48.6300   81.6770 O.3   109  C109        0.0000
   2279  C3'       46.8060   48.1680   83.3490 C.3   109  C109        0.0000
   2280  O3'       47.4050   48.7010   84.5110 O.3   109  C109        0.0000
   2281  C2'       45.5490   47.3650   83.6570 C.3   109  C109        0.0000
   2282  O2'       44.7110   47.9500   84.6240 O.3   109  C109        0.0000
   2283  C1'       44.8360   47.4220   82.3110 C.3   109  C109        0.0000
   2284  N1        45.2510   46.2920   81.4720 N.ar  109  C109        0.0000
   2285  C2        44.7100   45.0330   81.7390 C.ar  109  C109        0.0000
   2286  O2        43.9090   44.9200   82.6680 O.2   109  C109        0.0000
   2287  N3        45.0720   43.9860   80.9780 N.ar  109  C109        0.0000
   2288  C4        45.9330   44.1610   79.9730 C.ar  109  C109        0.0000
   2289  N4        46.2470   43.1070   79.2320 N.pl3 109  C109        0.0000
   2290  C5        46.5070   45.4310   79.6820 C.ar  109  C109        0.0000
   2291  C6        46.1450   46.4600   80.4500 C.ar  109  C109        0.0000
   2292  OP1       49.8370   50.6590   80.3140 O.3   109  C109       -0.5000
   2293  OP2       49.6500   48.4430   79.0820 O.co2 109  C109       -0.5000
   2294  P         48.5690   47.8880   85.2630 P.3   110  A110        0.0000
   2295  C5'       46.8840   46.7070   86.8650 C.3   110  A110        0.0000
   2296  O5'       47.8290   46.5910   85.8190 O.3   110  A110        0.0000
   2297  C4'       46.3020   45.3540   87.1950 C.3   110  A110        0.0000
   2298  O4'       45.5410   44.8470   86.0640 O.3   110  A110        0.0000
   2299  C3'       47.2710   44.2240   87.5200 C.3   110  A110        0.0000
   2300  O3'       47.6660   44.2740   88.8810 O.3   110  A110        0.0000
   2301  C2'       46.3830   43.0140   87.2930 C.3   110  A110        0.0000
   2302  O2'       45.4550   42.8900   88.3500 O.3   110  A110        0.0000
   2303  C1'       45.6330   43.4370   86.0300 C.3   110  A110        0.0000
   2304  N1        46.4330   39.7050   82.6340 N.ar  110  A110        0.0000
   2305  C2        45.7540   39.7470   83.7750 C.ar  110  A110        0.0000
   2306  N3        45.5960   40.7510   84.6230 N.ar  110  A110        0.0000
   2307  C4        46.2560   41.8350   84.1920 C.ar  110  A110        0.0000
   2308  C5        47.0070   41.9440   83.0370 C.ar  110  A110        0.0000
   2309  C6        47.0840   40.8080   82.2250 C.ar  110  A110        0.0000
   2310  N6        47.7570   40.7580   81.0810 N.pl3 110  A110        0.0000
   2311  N7        47.5590   43.2110   82.9290 N.ar  110  A110        0.0000
   2312  C8        47.1270   43.8280   84.0040 C.ar  110  A110        0.0000
   2313  N9        46.3210   43.0590   84.8000 N.ar  110  A110        0.0000
   2314  OP1       48.9170   48.7460   86.4220 O.3   110  A110       -0.5000
   2315  OP2       49.6450   47.4650   84.3180 O.co2 110  A110       -0.5000
   2316  P         49.0270   43.5640   89.3410 P.3   111  C111        0.0000
   2317  C5'       47.6940   41.4750   90.1960 C.3   111  C111        0.0000
   2318  O5'       48.6820   42.0150   89.3390 O.3   111  C111        0.0000
   2319  C4'       47.5590   40.0040   89.9210 C.3   111  C111        0.0000
   2320  O4'       46.9640   39.8100   88.6130 O.3   111  C111        0.0000
   2321  C3'       48.8960   39.2930   89.8220 C.3   111  C111        0.0000
   2322  O3'       49.3420   38.9430   91.1210 O.3   111  C111        0.0000
   2323  C2'       48.5410   38.0840   88.9730 C.3   111  C111        0.0000
   2324  O2'       47.8520   37.1100   89.7170 O.3   111  C111        0.0000
   2325  C1'       47.5680   38.7010   87.9760 C.3   111  C111        0.0000
   2326  N1        48.2540   39.1760   86.7710 N.ar  111  C111        0.0000
   2327  C2        48.3660   38.3140   85.7070 C.ar  111  C111        0.0000
   2328  O2        47.8550   37.1930   85.8000 O.2   111  C111        0.0000
   2329  N3        49.0260   38.7140   84.6010 N.ar  111  C111        0.0000
   2330  C4        49.5570   39.9320   84.5420 C.ar  111  C111        0.0000
   2331  N4        50.2130   40.2730   83.4320 N.pl3 111  C111        0.0000
   2332  C5        49.4430   40.8490   85.6150 C.ar  111  C111        0.0000
   2333  C6        48.7870   40.4350   86.7030 C.ar  111  C111        0.0000
   2334  OP1       49.2970   43.9930   90.7390 O.3   111  C111       -0.5000
   2335  OP2       50.0690   43.7480   88.2980 O.co2 111  C111       -0.5000
   2336  P         50.8850   38.5730   91.3700 P.3   112  A112        0.0000
   2337  C5'       50.7420   36.0380   90.6600 C.3   112  A112        0.0000
   2338  O5'       51.1880   37.3600   90.3720 O.3   112  A112        0.0000
   2339  C4'       51.2100   35.0720   89.5900 C.3   112  A112        0.0000
   2340  O4'       50.4980   35.3240   88.3510 O.3   112  A112        0.0000
   2341  C3'       52.6700   35.1250   89.1690 C.3   112  A112        0.0000
   2342  O3'       53.5590   34.4810   90.0790 O.3   112  A112        0.0000
   2343  C2'       52.6020   34.3910   87.8360 C.3   112  A112        0.0000
   2344  O2'       52.4360   32.9950   87.9700 O.3   112  A112        0.0000
   2345  C1'       51.3210   34.9760   87.2500 C.3   112  A112        0.0000
   2346  N1        53.2110   36.6790   82.8080 N.ar  112  A112        0.0000
   2347  C2        52.9340   35.4590   83.2630 C.ar  112  A112        0.0000
   2348  N3        52.4090   35.0900   84.4330 N.ar  112  A112        0.0000
   2349  C4        52.1460   36.1620   85.1910 C.ar  112  A112        0.0000
   2350  C5        52.3690   37.4840   84.8590 C.ar  112  A112        0.0000
   2351  C6        52.9410   37.7370   83.6020 C.ar  112  A112        0.0000
   2352  N6        53.2390   38.9480   83.1570 N.pl3 112  A112        0.0000
   2353  N7        51.9600   38.3220   85.8840 N.ar  112  A112        0.0000
   2354  C8        51.5130   37.4970   86.8050 C.ar  112  A112        0.0000
   2355  N9        51.6220   36.1730   86.4600 N.ar  112  A112        0.0000
   2356  OP1       50.9590   38.0970   92.7820 O.3   112  A112       -0.5000
   2357  OP2       51.7360   39.7010   90.9280 O.co2 112  A112       -0.5000
   2358  P         55.0910   34.9830   90.1910 P.3   113  G113        0.0000
   2359  C5'       55.9150   33.0990   88.5680 C.3   113  G113        0.0000
   2360  O5'       55.7930   34.4790   88.8550 O.3   113  G113        0.0000
   2361  C4'       56.5170   32.9080   87.2000 C.3   113  G113        0.0000
   2362  O4'       55.6320   33.4540   86.1800 O.3   113  G113        0.0000
   2363  C3'       57.8120   33.6460   86.9380 C.3   113  G113        0.0000
   2364  O3'       58.9120   32.9380   87.4750 O.3   113  G113        0.0000
   2365  C2'       57.8620   33.5980   85.4240 C.3   113  G113        0.0000
   2366  O2'       58.2310   32.3050   85.0140 O.3   113  G113        0.0000
   2367  C1'       56.4010   33.8710   85.0640 C.3   113  G113        0.0000
   2368  N1        56.9010   37.6900   81.7720 N.ar  113  G113        0.0000
   2369  C2        57.1170   36.3530   81.5960 C.ar  113  G113        0.0000
   2370  N2        57.5440   35.9850   80.3960 N.pl3 113  G113        0.0000
   2371  N3        56.9160   35.4400   82.5300 N.ar  113  G113        0.0000
   2372  C4        56.4570   35.9810   83.6740 C.ar  113  G113        0.0000
   2373  C5        56.1950   37.2990   83.9540 C.ar  113  G113        0.0000
   2374  C6        56.4270   38.2760   82.9390 C.ar  113  G113        0.0000
   2375  O6        56.2550   39.5140   82.9830 O.2   113  G113        0.0000
   2376  N7        55.7230   37.4410   85.2480 N.ar  113  G113        0.0000
   2377  C8        55.7150   36.2280   85.7260 C.ar  113  G113        0.0000
   2378  N9        56.1780   35.2980   84.8320 N.ar  113  G113        0.0000
   2379  OP1       55.7590   34.3360   91.3440 O.3   113  G113       -0.5000
   2380  OP2       55.0560   36.4620   90.1200 O.co2 113  G113       -0.5000
   2381  P         60.1010   33.7380   88.2030 P.3   114  G114        0.0000
   2382  C5'       61.6460   33.4700   86.1290 C.3   114  G114        0.0000
   2383  O5'       60.9510   34.3300   87.0020 O.3   114  G114        0.0000
   2384  C4'       62.0700   34.2220   84.9010 C.3   114  G114        0.0000
   2385  O4'       60.8970   34.7980   84.2660 O.3   114  G114        0.0000
   2386  C3'       62.9320   35.4530   85.1000 C.3   114  G114        0.0000
   2387  O3'       64.2860   35.0990   85.3890 O.3   114  G114        0.0000
   2388  C2'       62.7890   36.1060   83.7290 C.3   114  G114        0.0000
   2389  O2'       63.5490   35.4270   82.7490 O.3   114  G114        0.0000
   2390  C1'       61.3040   35.8650   83.4310 C.3   114  G114        0.0000
   2391  N1        59.9240   40.4180   81.7330 N.ar  114  G114        0.0000
   2392  C2        60.5970   39.4150   81.0850 C.ar  114  G114        0.0000
   2393  N2        61.0290   39.6810   79.8430 N.pl3 114  G114        0.0000
   2394  N3        60.8370   38.2320   81.6180 N.ar  114  G114        0.0000
   2395  C4        60.3460   38.1300   82.8710 C.ar  114  G114        0.0000
   2396  C5        59.6560   39.0660   83.6010 C.ar  114  G114        0.0000
   2397  C6        59.4130   40.3320   83.0220 C.ar  114  G114        0.0000
   2398  O6        58.8450   41.2980   83.5170 O.2   114  G114        0.0000
   2399  N7        59.3090   38.5620   84.8490 N.pl3 114  G114        0.0000
   2400  C8        59.8100   37.3540   84.8630 C.3   114  G114        0.0000
   2401  N9        60.4930   37.0480   83.7110 N.pl3 114  G114        0.0000
   2402  OP1       60.9520   32.7430   88.8990 O.2   114  G114       -0.5000
   2403  OP2       59.5130   34.8600   88.9620 O.co2 114  G114       -0.5000
   2404  P         65.1020   35.9010   86.5330 P.3   115  C115        0.0000
   2405  C5'       65.3680   38.4760   86.9840 C.3   115  C115        0.0000
   2406  O5'       64.9990   37.4280   86.0910 O.3   115  C115        0.0000
   2407  C4'       66.1190   39.5560   86.2390 C.3   115  C115        0.0000
   2408  O4'       67.3530   39.0050   85.7330 O.3   115  C115        0.0000
   2409  C3'       65.4360   40.1060   84.9990 C.3   115  C115        0.0000
   2410  O3'       64.5520   41.1590   85.3510 O.3   115  C115        0.0000
   2411  C2'       66.5980   40.6520   84.1790 C.3   115  C115        0.0000
   2412  O2'       66.9460   41.9680   84.5420 O.3   115  C115        0.0000
   2413  C1'       67.7290   39.6990   84.5610 C.3   115  C115        0.0000
   2414  N1        68.0760   38.7180   83.5320 N.ar  115  C115        0.0000
   2415  C2        68.6940   39.1690   82.3690 C.ar  115  C115        0.0000
   2416  O2        68.8740   40.3940   82.2180 O.2   115  C115        0.0000
   2417  N3        69.0790   38.2670   81.4380 N.ar  115  C115        0.0000
   2418  C4        68.8590   36.9650   81.6410 C.ar  115  C115        0.0000
   2419  N4        69.2780   36.1080   80.7090 N.pl3 115  C115        0.0000
   2420  C5        68.2050   36.4840   82.8080 C.ar  115  C115        0.0000
   2421  C6        67.8290   37.3870   83.7170 C.ar  115  C115        0.0000
   2422  OP1       66.5400   35.5270   86.4310 O.2   115  C115       -0.5000
   2423  OP2       64.3930   35.7500   87.8320 O.co2 115  C115       -0.5000
   2424  P         63.1060   41.2350   84.6680 P.3   116  G116        0.0000
   2425  C5'       63.8040   42.9270   82.7930 C.3   116  G116        0.0000
   2426  O5'       63.4130   41.6090   83.1540 O.3   116  G116        0.0000
   2427  C4'       64.3030   42.9350   81.3740 C.3   116  G116        0.0000
   2428  O4'       65.3780   41.9710   81.2640 O.3   116  G116        0.0000
   2429  C3'       63.2710   42.4810   80.3630 C.3   116  G116        0.0000
   2430  O3'       62.5140   43.6140   79.9620 O.3   116  G116        0.0000
   2431  C2'       64.1320   41.9080   79.2470 C.3   116  G116        0.0000
   2432  O2'       64.6490   42.9100   78.4060 O.3   116  G116        0.0000
   2433  C1'       65.2900   41.2840   80.0330 C.3   116  G116        0.0000
   2434  N1        66.7610   36.5500   78.8950 N.ar  116  G116        0.0000
   2435  C2        67.1140   37.7280   78.2990 C.ar  116  G116        0.0000
   2436  N2        67.9870   37.6330   77.2860 N.pl3 116  G116        0.0000
   2437  N3        66.6490   38.9080   78.6680 N.ar  116  G116        0.0000
   2438  C4        65.7920   38.8110   79.7020 C.ar  116  G116        0.0000
   2439  C5        65.3740   37.6800   80.3630 C.ar  116  G116        0.0000
   2440  C6        65.8770   36.4270   79.9600 C.ar  116  G116        0.0000
   2441  O6        65.6310   35.3120   80.4280 O.2   116  G116        0.0000
   2442  N7        64.4810   38.0020   81.3730 N.ar  116  G116        0.0000
   2443  C8        64.3780   39.3020   81.3150 C.ar  116  G116        0.0000
   2444  N9        65.1540   39.8610   80.3310 N.ar  116  G116        0.0000
   2445  OP1       62.3380   42.3580   85.2760 O.3   116  G116       -0.5000
   2446  OP2       62.5640   39.8460   84.7030 O.co2 116  G116       -0.5000
   2447  P         61.1670   43.4260   79.1170 P.3   117  A117        0.0000
   2448  C5'       61.9210   43.8800   76.6430 C.3   117  A117        0.0000
   2449  O5'       61.6940   42.9370   77.6930 O.3   117  A117        0.0000
   2450  C4'       62.4190   43.1840   75.3960 C.3   117  A117        0.0000
   2451  O4'       63.4840   42.2930   75.8040 O.3   117  A117        0.0000
   2452  C3'       61.4280   42.2900   74.6680 C.3   117  A117        0.0000
   2453  O3'       60.6850   43.0150   73.6880 O.3   117  A117        0.0000
   2454  C2'       62.3400   41.2770   73.9860 C.3   117  A117        0.0000
   2455  O2'       62.8660   41.7440   72.7700 O.3   117  A117        0.0000
   2456  C1'       63.4680   41.1250   75.0060 C.3   117  A117        0.0000
   2457  N1        64.8810   36.3020   76.0960 N.ar  117  A117        0.0000
   2458  C2        65.3310   37.1830   75.1870 C.ar  117  A117        0.0000
   2459  N3        64.9370   38.4300   74.9610 N.ar  117  A117        0.0000
   2460  C4        63.9500   38.7710   75.8110 C.ar  117  A117        0.0000
   2461  C5        63.3930   37.9770   76.7970 C.ar  117  A117        0.0000
   2462  C6        63.8930   36.6820   76.9310 C.ar  117  A117        0.0000
   2463  N6        63.4490   35.8120   77.8340 N.pl3 117  A117        0.0000
   2464  N7        62.4130   38.6690   77.4880 N.ar  117  A117        0.0000
   2465  C8        62.3940   39.8430   76.9150 C.ar  117  A117        0.0000
   2466  N9        63.2850   39.9700   75.8800 N.ar  117  A117        0.0000
   2467  OP1       60.5600   44.7560   78.9140 O.2   117  A117       -0.5000
   2468  OP2       60.3510   42.3550   79.7520 O.co2 117  A117       -0.5000
   2469  P         59.1330   43.3750   73.9520 P.3   118  C118        0.0000
   2470  C5'       58.5270   40.9560   73.1390 C.3   118  C118        0.0000
   2471  O5'       58.3430   41.9930   74.0760 O.3   118  C118        0.0000
   2472  C4'       58.5630   39.6180   73.8440 C.3   118  C118        0.0000
   2473  O4'       59.3330   39.7430   75.0800 O.3   118  C118        0.0000
   2474  C3'       57.2690   38.9860   74.3370 C.3   118  C118        0.0000
   2475  O3'       56.5880   38.3500   73.2640 O.3   118  C118        0.0000
   2476  C2'       57.8460   37.9290   75.2680 C.3   118  C118        0.0000
   2477  O2'       58.4890   36.9170   74.5120 O.3   118  C118        0.0000
   2478  C1'       58.9190   38.7420   75.9950 C.3   118  C118        0.0000
   2479  N1        58.3740   39.3920   77.1940 N.ar  118  C118        0.0000
   2480  C2        58.1680   38.6200   78.3220 C.ar  118  C118        0.0000
   2481  O2        58.4720   37.4360   78.2810 O.2   118  C118        0.0000
   2482  N3        57.6430   39.1790   79.4270 N.ar  118  C118        0.0000
   2483  C4        57.3340   40.4770   79.4340 C.ar  118  C118        0.0000
   2484  N4        56.8280   40.9920   80.5510 N.pl3 118  C118        0.0000
   2485  C5        57.5360   41.2990   78.2940 C.ar  118  C118        0.0000
   2486  C6        58.0570   40.7210   77.2010 C.ar  118  C118        0.0000
   2487  OP1       58.6190   44.1090   72.7700 O.2   118  C118       -0.5000
   2488  OP2       59.0410   43.9930   75.3150 O.co2 118  C118       -0.5000
   2489  P         55.0220   37.9860   73.3940 P.3   119  U119        0.0000
   2490  C5'       55.4560   35.5040   74.0540 C.3   119  U119        0.0000
   2491  O5'       54.9710   36.7820   74.4280 O.3   119  U119        0.0000
   2492  C4'       55.2760   34.5420   75.1830 C.3   119  U119        0.0000
   2493  O4'       55.9350   35.0710   76.3590 O.3   119  U119        0.0000
   2494  C3'       53.8410   34.3660   75.6540 C.3   119  U119        0.0000
   2495  O3'       53.1530   33.4510   74.8170 O.3   119  U119        0.0000
   2496  C2'       54.0550   33.7930   77.0460 C.3   119  U119        0.0000
   2497  O2'       54.4530   32.4320   77.0090 O.3   119  U119        0.0000
   2498  C1'       55.2340   34.6390   77.5200 C.3   119  U119        0.0000
   2499  N1        54.8300   35.8210   78.2910 N.ar  119  U119        0.0000
   2500  C2        54.4280   35.6230   79.5930 C.ar  119  U119        0.0000
   2501  O2        54.3290   34.5250   80.0940 O.2   119  U119        0.0000
   2502  N3        54.1490   36.7660   80.2880 N.ar  119  U119        0.0000
   2503  C4        54.2200   38.0490   79.8170 C.ar  119  U119        0.0000
   2504  O4        53.9770   38.9740   80.5790 O.2   119  U119        0.0000
   2505  C5        54.6040   38.1730   78.4540 C.ar  119  U119        0.0000
   2506  C6        54.8820   37.0830   77.7510 C.ar  119  U119        0.0000
   2507  OP1       54.6080   37.4320   72.0810 O.2   119  U119       -0.5000
   2508  OP2       54.2850   39.1330   73.9700 O.co2 119  U119       -0.5000
   2509  P         51.5580   33.5350   74.6860 P.3   120  G120        0.0000
   2510  C5'       51.1440   31.6610   76.4740 C.3   120  G120        0.0000
   2511  O5'       51.0350   33.0170   76.0980 O.3   120  G120        0.0000
   2512  C4'       50.4670   31.4460   77.8010 C.3   120  G120        0.0000
   2513  O4'       51.2420   32.0800   78.8490 O.3   120  G120        0.0000
   2514  C3'       49.0720   32.0320   77.9620 C.3   120  G120        0.0000
   2515  O3'       48.0940   31.1460   77.4500 O.3   120  G120        0.0000
   2516  C2'       48.9600   32.1260   79.4740 C.3   120  G120        0.0000
   2517  O2'       48.7100   30.8930   80.1070 O.3   120  G120        0.0000
   2518  C1'       50.3700   32.5740   79.8510 C.3   120  G120        0.0000
   2519  N1        49.6450   36.7040   82.6750 N.ar  120  G120        0.0000
   2520  C2        49.4620   35.3860   82.9940 C.ar  120  G120        0.0000
   2521  N2        49.0200   35.1210   84.2310 N.pl3 120  G120        0.0000
   2522  N3        49.7010   34.3930   82.1640 N.ar  120  G120        0.0000
   2523  C4        50.1430   34.8260   80.9680 C.ar  120  G120        0.0000
   2524  C5        50.3610   36.1110   80.5520 C.ar  120  G120        0.0000
   2525  C6        50.1140   37.1720   81.4600 C.ar  120  G120        0.0000
   2526  O6        50.2810   38.3760   81.2970 O.2   120  G120        0.0000
   2527  N7        50.8200   36.1300   79.2400 N.ar  120  G120        0.0000
   2528  C8        50.8700   34.8760   78.8940 C.ar  120  G120        0.0000
   2529  N9        50.4660   34.0290   79.8970 N.ar  120  G120        0.0000
   2530  OP1       51.1950   32.5740   73.6130 O.2   120  G120       -0.5000
   2531  OP2       51.1470   34.9620   74.5620 O.co2 120  G120       -0.5000
   2532  P         46.6100   31.6720   77.1180 P.3   121  U121        0.0000
   2533  C5'       45.4050   31.1540   79.3830 C.3   121  U121        0.0000
   2534  O5'       46.0140   32.1070   78.5250 O.3   121  U121        0.0000
   2535  C4'       44.9260   31.8280   80.6400 C.3   121  U121        0.0000
   2536  O4'       46.0260   32.6020   81.1860 O.3   121  U121        0.0000
   2537  C3'       43.8380   32.8750   80.4660 C.3   121  U121        0.0000
   2538  O3'       42.5510   32.2700   80.3940 O.3   121  U121        0.0000
   2539  C2'       44.0030   33.6970   81.7320 C.3   121  U121        0.0000
   2540  O2'       43.5010   33.0210   82.8570 O.3   121  U121        0.0000
   2541  C1'       45.5230   33.7470   81.8460 C.3   121  U121        0.0000
   2542  N1        46.0820   34.9360   81.2000 N.ar  121  U121        0.0000
   2543  C2        46.0430   36.1260   81.9190 C.ar  121  U121        0.0000
   2544  O2        45.5970   36.2050   83.0550 O.2   121  U121        0.0000
   2545  N3        46.5400   37.2170   81.2620 N.ar  121  U121        0.0000
   2546  C4        47.0690   37.2510   80.0030 C.ar  121  U121        0.0000
   2547  O4        47.4870   38.3220   79.5650 O.2   121  U121        0.0000
   2548  C5        47.0920   35.9780   79.3170 C.ar  121  U121        0.0000
   2549  C6        46.6080   34.8870   79.9290 C.ar  121  U121        0.0000
   2550  OP1       45.8040   30.5050   76.6530 O.3   121  U121       -0.5000
   2551  OP2       46.7250   32.8590   76.2440 O.co2 121  U121       -0.5000
   2552  P         41.3090   33.1110   79.8250 P.3   122  G122        0.0000
   2553  C5'       40.4550   33.9300   82.1600 C.3   122  G122        0.0000
   2554  O5'       41.0790   34.2340   80.9250 O.3   122  G122        0.0000
   2555  C4'       40.2660   35.1900   82.9600 C.3   122  G122        0.0000
   2556  O4'       41.5670   35.7610   83.2660 O.3   122  G122        0.0000
   2557  C3'       39.5630   36.3300   82.2440 C.3   122  G122        0.0000
   2558  O3'       38.1530   36.1820   82.2860 O.3   122  G122        0.0000
   2559  C2'       40.0050   37.5120   83.0900 C.3   122  G122        0.0000
   2560  O2'       39.3480   37.4930   84.3370 O.3   122  G122        0.0000
   2561  C1'       41.4780   37.1760   83.2980 C.3   122  G122        0.0000
   2562  N1        43.8180   41.2760   81.4470 N.ar  122  G122        0.0000
   2563  C2        43.0910   41.1330   82.6000 C.ar  122  G122        0.0000
   2564  N2        42.9660   42.2280   83.3540 N.pl3 122  G122        0.0000
   2565  N3        42.5280   39.9990   82.9870 N.ar  122  G122        0.0000
   2566  C4        42.7590   39.0020   82.1120 C.ar  122  G122        0.0000
   2567  C5        43.4710   39.0390   80.9330 C.ar  122  G122        0.0000
   2568  C6        44.0680   40.2710   80.5330 C.ar  122  G122        0.0000
   2569  O6        44.7390   40.5200   79.5240 O.2   122  G122        0.0000
   2570  N7        43.4700   37.7930   80.3200 N.ar  122  G122        0.0000
   2571  C8        42.7650   37.0390   81.1200 C.ar  122  G122        0.0000
   2572  N9        42.3040   37.7100   82.2210 N.ar  122  G122        0.0000
   2573  OP1       40.1210   32.2400   79.8210 O.3   122  G122       -0.5000
   2574  OP2       41.7520   33.7580   78.5680 O.co2 122  G122       -0.5000
   2575  P         37.2350   37.0130   81.2660 P.3   123  G123        0.0000
   2576  C5'       36.8680   39.0980   82.8340 C.3   123  G123        0.0000
   2577  O5'       37.4280   38.5400   81.6620 O.3   123  G123        0.0000
   2578  C4'       37.3160   40.5330   82.9570 C.3   123  G123        0.0000
   2579  O4'       38.7720   40.5720   82.8650 O.3   123  G123        0.0000
   2580  C3'       36.9040   41.4740   81.8390 C.3   123  G123        0.0000
   2581  O3'       35.5710   41.9380   82.0090 O.3   123  G123        0.0000
   2582  C2'       37.9030   42.6000   82.0380 C.3   123  G123        0.0000
   2583  O2'       37.5960   43.3490   83.1880 O.3   123  G123        0.0000
   2584  C1'       39.1820   41.8160   82.3200 C.3   123  G123        0.0000
   2585  N1        42.2930   43.7260   78.7600 N.ar  123  G123        0.0000
   2586  C2        41.8140   44.3300   79.8880 C.ar  123  G123        0.0000
   2587  N2        42.2050   45.5880   80.0680 N.pl3 123  G123        0.0000
   2588  N3        41.0130   43.7360   80.7700 N.ar  123  G123        0.0000
   2589  C4        40.7390   42.4580   80.4130 C.ar  123  G123        0.0000
   2590  C5        41.1760   41.7710   79.3060 C.ar  123  G123        0.0000
   2591  C6        42.0170   42.4220   78.3790 C.ar  123  G123        0.0000
   2592  O6        42.4850   41.9820   77.3410 O.2   123  G123        0.0000
   2593  N7        40.6780   40.4810   79.3020 N.ar  123  G123        0.0000
   2594  C8        39.9550   40.4060   80.3860 C.ar  123  G123        0.0000
   2595  N9        39.9340   41.5680   81.1000 N.ar  123  G123        0.0000
   2596  OP1       35.8290   36.5920   81.4950 O.3   123  G123       -0.5000
   2597  OP2       37.8330   36.9200   79.9100 O.co2 123  G123       -0.5000
   2598  P         34.6630   42.2590   80.7170 P.3   124  C124        0.0000
   2599  C5'       35.1880   44.8020   80.8720 C.3   124  C124        0.0000
   2600  O5'       35.2820   43.5990   80.1410 O.3   124  C124        0.0000
   2601  C4'       36.0150   45.8450   80.2010 C.3   124  C124        0.0000
   2602  O4'       37.3850   45.3790   80.2130 O.3   124  C124        0.0000
   2603  C3'       35.7110   46.0470   78.7250 C.3   124  C124        0.0000
   2604  O3'       34.6040   46.9400   78.5670 O.3   124  C124        0.0000
   2605  C2'       37.0310   46.6240   78.2270 C.3   124  C124        0.0000
   2606  O2'       37.1620   47.9850   78.5630 O.3   124  C124        0.0000
   2607  C1'       38.0470   45.8100   79.0390 C.3   124  C124        0.0000
   2608  N1        38.4810   44.6190   78.3110 N.ar  124  C124        0.0000
   2609  C2        39.5180   44.7420   77.4080 C.ar  124  C124        0.0000
   2610  O2        40.1070   45.8140   77.3420 O.2   124  C124        0.0000
   2611  N3        39.8560   43.6820   76.6400 N.ar  124  C124        0.0000
   2612  C4        39.2150   42.5210   76.7940 C.ar  124  C124        0.0000
   2613  N4        39.5760   41.4990   76.0210 N.pl3 124  C124        0.0000
   2614  C5        38.1800   42.3560   77.7490 C.ar  124  C124        0.0000
   2615  C6        37.8480   43.4180   78.4840 C.ar  124  C124        0.0000
   2616  OP1       33.2730   42.5650   81.1260 O.3   124  C124       -0.5000
   2617  OP2       34.9120   41.2030   79.7070 O.co2 124  C124       -0.5000
   2618  P         33.7690   46.9710   77.1850 P.3   125  A125        0.0000
   2619  C5'       34.5670   49.4240   76.6160 C.3   125  A125        0.0000
   2620  O5'       34.5780   48.0340   76.3050 O.3   125  A125        0.0000
   2621  C4'       35.0690   50.2210   75.4340 C.3   125  A125        0.0000
   2622  O4'       36.5090   50.0870   75.3350 O.3   125  A125        0.0000
   2623  C3'       34.5700   49.8210   74.0510 C.3   125  A125        0.0000
   2624  O3'       33.3010   50.3830   73.7600 O.3   125  A125        0.0000
   2625  C2'       35.6440   50.4170   73.1580 C.3   125  A125        0.0000
   2626  O2'       35.5320   51.8170   73.0670 O.3   125  A125        0.0000
   2627  C1'       36.9040   50.1240   73.9710 C.3   125  A125        0.0000
   2628  N1        40.2910   47.6930   70.9580 N.ar  125  A125        0.0000
   2629  C2        39.8730   48.9610   70.9940 C.ar  125  A125        0.0000
   2630  N3        38.9810   49.5290   71.7970 N.ar  125  A125        0.0000
   2631  C4        38.4800   48.6310   72.6560 C.ar  125  A125        0.0000
   2632  C5        38.8060   47.2970   72.7390 C.ar  125  A125        0.0000
   2633  C6        39.7620   46.8170   71.8370 C.ar  125  A125        0.0000
   2634  N6        40.1730   45.5560   71.7970 N.pl3 125  A125        0.0000
   2635  N7        38.0900   46.6800   73.7430 N.ar  125  A125        0.0000
   2636  C8        37.3570   47.6410   74.2410 C.ar  125  A125        0.0000
   2637  N9        37.5480   48.8510   73.6360 N.ar  125  A125        0.0000
   2638  OP1       32.4000   47.4750   77.4770 O.3   125  A125       -0.5000
   2639  OP2       33.9180   45.6920   76.4600 O.co2 125  A125       -0.5000
   2640  P         32.4150   49.7820   72.5620 P.3   126  U126        0.0000
   2641  C5'       33.5890   51.0510   70.6040 C.3   126  U126        0.0000
   2642  O5'       33.3890   49.8530   71.3140 O.3   126  U126        0.0000
   2643  C4'       34.6210   50.8290   69.5300 C.3   126  U126        0.0000
   2644  O4'       35.7840   50.1890   70.1200 O.3   126  U126        0.0000
   2645  C3'       34.2450   49.8940   68.3970 C.3   126  U126        0.0000
   2646  O3'       33.5140   50.6510   67.4330 O.3   126  U126        0.0000
   2647  C2'       35.6230   49.5370   67.8640 C.3   126  U126        0.0000
   2648  O2'       36.1500   50.6500   67.1770 O.3   126  U126        0.0000
   2649  C1'       36.4230   49.3790   69.1570 C.3   126  U126        0.0000
   2650  N1        36.4770   48.0070   69.6820 N.ar  126  U126        0.0000
   2651  C2        37.4240   47.1360   69.1660 C.ar  126  U126        0.0000
   2652  O2        38.2320   47.4630   68.3200 O.2   126  U126        0.0000
   2653  N3        37.3880   45.8670   69.6880 N.ar  126  U126        0.0000
   2654  C4        36.5270   45.3980   70.6590 C.ar  126  U126        0.0000
   2655  O4        36.5930   44.2220   71.0190 O.2   126  U126        0.0000
   2656  C5        35.5980   46.3690   71.1450 C.ar  126  U126        0.0000
   2657  C6        35.6060   47.6010   70.6540 C.ar  126  U126        0.0000
   2658  OP1       31.2520   50.6660   72.2970 O.2   126  U126       -0.5000
   2659  OP2       32.1770   48.3350   72.8350 O.co2 126  U126       -0.5000
   2660  P         32.5700   49.9110   66.3570 P.3   127  A127        0.0000
   2661  C5'       33.1160   48.7780   64.0650 C.3   127  A127        0.0000
   2662  O5'       33.5840   49.2740   65.3100 O.3   127  A127        0.0000
   2663  C4'       34.2510   48.6470   63.0810 C.3   127  A127        0.0000
   2664  O4'       35.2350   47.7010   63.5710 O.3   127  A127        0.0000
   2665  C3'       33.7850   48.0730   61.7620 C.3   127  A127        0.0000
   2666  O3'       33.3540   49.1340   60.9330 O.3   127  A127        0.0000
   2667  C2'       35.0130   47.3420   61.2300 C.3   127  A127        0.0000
   2668  O2'       35.9330   48.1880   60.5810 O.3   127  A127        0.0000
   2669  C1'       35.6450   46.8370   62.5220 C.3   127  A127        0.0000
   2670  N1        36.8520   41.8720   62.1820 N.ar  127  A127        0.0000
   2671  C2        37.3020   42.9450   61.5250 C.ar  127  A127        0.0000
   2672  N3        36.9030   44.2040   61.6090 N.ar  127  A127        0.0000
   2673  C4        35.9030   44.3250   62.5010 C.ar  127  A127        0.0000
   2674  C5        35.3250   43.3140   63.2400 C.ar  127  A127        0.0000
   2675  C6        35.8450   42.0270   63.0690 C.ar  127  A127        0.0000
   2676  N6        35.4090   40.9590   63.7440 N.pl3 127  A127        0.0000
   2677  N7        34.3260   43.8130   64.0600 N.ar  127  A127        0.0000
   2678  C8        34.3360   45.0920   63.8150 C.ar  127  A127        0.0000
   2679  N9        35.2910   45.4770   62.9090 N.ar  127  A127        0.0000
   2680  OP1       31.7910   50.9370   65.6050 O.2   127  A127       -0.5000
   2681  OP2       31.8590   48.8180   67.0490 O.co2 127  A127       -0.5000
   2682  P         32.0410   48.9460   60.0420 P.3   128  G128        0.0000
   2683  C5'       33.5200   48.4890   57.9120 C.3   128  G128        0.0000
   2684  O5'       32.5390   48.0290   58.8350 O.3   128  G128        0.0000
   2685  C4'       34.1430   47.3180   57.1730 C.3   128  G128        0.0000
   2686  O4'       34.9110   46.4940   58.1010 O.3   128  G128        0.0000
   2687  C3'       33.2070   46.3240   56.4990 C.3   128  G128        0.0000
   2688  O3'       32.7810   46.7640   55.2120 O.3   128  G128        0.0000
   2689  C2'       34.1180   45.1170   56.3690 C.3   128  G128        0.0000
   2690  O2'       35.1010   45.3690   55.3800 O.3   128  G128        0.0000
   2691  C1'       34.7980   45.1270   57.7360 C.3   128  G128        0.0000
   2692  N1        34.0960   40.9040   60.5180 N.ar  128  G128        0.0000
   2693  C2        34.9630   41.1050   59.4760 C.ar  128  G128        0.0000
   2694  N2        35.7540   40.0700   59.1730 N.pl3 128  G128        0.0000
   2695  N3        35.0470   42.2400   58.7880 N.ar  128  G128        0.0000
   2696  C4        34.1820   43.1710   59.2530 C.ar  128  G128        0.0000
   2697  C5        33.2830   43.0580   60.2910 C.ar  128  G128        0.0000
   2698  C6        33.1990   41.8460   61.0010 C.ar  128  G128        0.0000
   2699  O6        32.4540   41.5610   61.9380 O.2   128  G128        0.0000
   2700  N7        32.5720   44.2340   60.4560 N.ar  128  G128        0.0000
   2701  C8        33.0410   45.0300   59.5360 C.ar  128  G128        0.0000
   2702  N9        34.0340   44.4620   58.7850 N.ar  128  G128        0.0000
   2703  OP1       31.6800   50.3010   59.5420 O.2   128  G128       -0.5000
   2704  OP2       31.0490   48.1550   60.8060 O.co2 128  G128       -0.5000
   2705  P         31.4490   46.1270   54.5490 P.3   129  A129        0.0000
   2706  C5'       32.6880   44.4490   52.9500 C.3   129  A129        0.0000
   2707  O5'       31.8860   44.6510   54.1120 O.3   129  A129        0.0000
   2708  C4'       33.1220   43.0080   52.8500 C.3   129  A129        0.0000
   2709  O4'       33.7680   42.6420   54.0990 O.3   129  A129        0.0000
   2710  C3'       32.0320   41.9510   52.7000 C.3   129  A129        0.0000
   2711  O3'       31.5750   41.7770   51.3580 O.3   129  A129        0.0000
   2712  C2'       32.7590   40.7030   53.1780 C.3   129  A129        0.0000
   2713  O2'       33.6400   40.1770   52.2030 O.3   129  A129        0.0000
   2714  C1'       33.5570   41.2650   54.3530 C.3   129  A129        0.0000
   2715  N1        32.7310   38.3910   58.5070 N.ar  129  A129        0.0000
   2716  C2        33.4840   38.2010   57.4220 C.ar  129  A129        0.0000
   2717  N3        33.6420   38.9900   56.3630 N.ar  129  A129        0.0000
   2718  C4        32.9030   40.1030   56.4850 C.ar  129  A129        0.0000
   2719  C5        32.0770   40.4370   57.5360 C.ar  129  A129        0.0000
   2720  C6        32.0020   39.5300   58.5950 C.ar  129  A129        0.0000
   2721  N6        31.2620   39.7300   59.6810 N.pl3 129  A129        0.0000
   2722  N7        31.4670   41.6600   57.3130 N.ar  129  A129        0.0000
   2723  C8        31.9400   42.0400   56.1520 C.ar  129  A129        0.0000
   2724  N9        32.8240   41.1480   55.6020 N.ar  129  A129        0.0000
   2725  OP1       31.1860   46.9290   53.3250 O.2   129  A129       -0.5000
   2726  OP2       30.3850   46.0010   55.5860 O.co2 129  A129       -0.5000
   2727  P         30.0980   41.1690   51.0850 P.3   130  G130        0.0000
   2728  C5'       31.0290   39.0310   49.8940 C.3   130  G130        0.0000
   2729  O5'       30.2980   39.5870   50.9730 O.3   130  G130        0.0000
   2730  C4'       31.2160   37.5440   50.0780 C.3   130  G130        0.0000
   2731  O4'       32.1940   37.1070   49.1030 O.3   130  G130        0.0000
   2732  C3'       31.7790   37.1680   51.4390 C.3   130  G130        0.0000
   2733  O3'       31.1820   35.9970   52.0020 O.3   130  G130        0.0000
   2734  C2'       33.2890   37.0400   51.2420 C.3   130  G130        0.0000
   2735  O2'       33.7730   35.8850   51.8920 O.3   130  G130        0.0000
   2736  C1'       33.4050   36.7810   49.7370 C.3   130  G130        0.0000
   2737  N1        35.6890   41.1610   48.4410 N.ar  130  G130        0.0000
   2738  C2        34.5680   40.9640   49.2100 C.ar  130  G130        0.0000
   2739  N2        33.9910   42.0660   49.7000 N.pl3 130  G130        0.0000
   2740  N3        34.0500   39.7710   49.4780 N.ar  130  G130        0.0000
   2741  C4        34.7580   38.7730   48.9080 C.ar  130  G130        0.0000
   2742  C5        35.8860   38.8650   48.1200 C.ar  130  G130        0.0000
   2743  C6        36.4280   40.1470   47.8350 C.ar  130  G130        0.0000
   2744  O6        37.4230   40.4280   47.1480 O.2   130  G130        0.0000
   2745  N7        36.3170   37.6070   47.7270 N.ar  130  G130        0.0000
   2746  C8        35.4630   36.7860   48.2760 C.ar  130  G130        0.0000
   2747  N9        34.4920   37.4250   49.0070 N.ar  130  G130        0.0000
   2748  OP1       29.6630   41.6990   49.7650 O.2   130  G130       -0.5000
   2749  OP2       29.2460   41.3930   52.2860 O.co2 130  G130       -0.5000
   2750  P         29.7160   36.0560   52.6560 P.3   131  C131        0.0000
   2751  C5'       30.2600   35.2390   55.0940 C.3   131  C131        0.0000
   2752  O5'       29.9790   36.3200   54.2050 O.3   131  C131        0.0000
   2753  C4'       29.6850   35.5330   56.4550 C.3   131  C131        0.0000
   2754  O4'       30.2490   36.7830   56.9240 O.3   131  C131        0.0000
   2755  C3'       28.1840   35.7650   56.4770 C.3   131  C131        0.0000
   2756  O3'       27.5020   34.5280   56.6430 O.3   131  C131        0.0000
   2757  C2'       28.0150   36.6580   57.6960 C.3   131  C131        0.0000
   2758  O2'       28.0750   35.9320   58.9050 O.3   131  C131        0.0000
   2759  C1'       29.2540   37.5410   57.5850 C.3   131  C131        0.0000
   2760  N1        29.0380   38.7730   56.8170 N.ar  131  C131        0.0000
   2761  C2        28.3060   39.7990   57.4000 C.ar  131  C131        0.0000
   2762  O2        27.8400   39.6270   58.5340 O.2   131  C131        0.0000
   2763  N3        28.1230   40.9500   56.7230 N.ar  131  C131        0.0000
   2764  C4        28.6400   41.0930   55.5040 C.ar  131  C131        0.0000
   2765  N4        28.4450   42.2510   54.8790 N.pl3 131  C131        0.0000
   2766  C5        29.3810   40.0560   54.8740 C.ar  131  C131        0.0000
   2767  C6        29.5530   38.9200   55.5610 C.ar  131  C131        0.0000
   2768  OP1       29.1250   34.6940   52.5720 O.3   131  C131       -0.5000
   2769  OP2       28.9920   37.2210   52.0640 O.co2 131  C131       -0.5000
   2770  P         25.9990   34.3600   56.0920 P.3   132  A132        0.0000
   2771  C5'       24.8010   34.9870   58.3440 C.3   132  A132        0.0000
   2772  O5'       25.1330   35.3330   57.0050 O.3   132  A132        0.0000
   2773  C4'       23.8430   36.0040   58.8970 C.3   132  A132        0.0000
   2774  O4'       24.4950   37.2990   58.9310 O.3   132  A132        0.0000
   2775  C3'       22.6410   36.2440   58.0050 C.3   132  A132        0.0000
   2776  O3'       21.6420   35.2710   58.2540 O.3   132  A132        0.0000
   2777  C2'       22.2030   37.6460   58.4120 C.3   132  A132        0.0000
   2778  O2'       21.4540   37.6780   59.6090 O.3   132  A132        0.0000
   2779  C1'       23.5500   38.3200   58.6500 C.3   132  A132        0.0000
   2780  N1        23.3230   42.7750   56.1380 N.ar  132  A132        0.0000
   2781  C2        22.6750   42.3160   57.2140 C.ar  132  A132        0.0000
   2782  N3        22.7640   41.1310   57.8070 N.ar  132  A132        0.0000
   2783  C4        23.6510   40.3560   57.1690 C.ar  132  A132        0.0000
   2784  C5        24.3890   40.6870   56.0510 C.ar  132  A132        0.0000
   2785  C6        24.2050   41.9650   55.5250 C.ar  132  A132        0.0000
   2786  N6        24.8520   42.4260   54.4580 N.pl3 132  A132        0.0000
   2787  N7        25.2000   39.6320   55.6700 N.ar  132  A132        0.0000
   2788  C8        24.9440   38.7020   56.5590 C.ar  132  A132        0.0000
   2789  N9        24.0270   39.0810   57.5020 N.ar  132  A132        0.0000
   2790  OP1       25.5940   32.9550   56.3670 O.3   132  A132       -0.5000
   2791  OP2       25.9330   34.9010   54.7050 O.co2 132  A132       -0.5000
   2792  P         20.5710   34.9280   57.1130 P.3   133  G133        0.0000
   2793  C5'       18.9020   36.8130   57.8400 C.3   133  G133        0.0000
   2794  O5'       19.8150   36.3140   56.8700 O.3   133  G133        0.0000
   2795  C4'       18.3770   38.1740   57.4400 C.3   133  G133        0.0000
   2796  O4'       19.4800   39.0990   57.3000 O.3   133  G133        0.0000
   2797  C3'       17.6670   38.3130   56.1020 C.3   133  G133        0.0000
   2798  O3'       16.3180   37.8510   56.1650 O.3   133  G133        0.0000
   2799  C2'       17.7090   39.8240   55.8890 C.3   133  G133        0.0000
   2800  O2'       16.7050   40.5180   56.6060 O.3   133  G133        0.0000
   2801  C1'       19.0730   40.1800   56.4800 C.3   133  G133        0.0000
   2802  N1        20.9260   43.5220   53.1740 N.ar  133  G133        0.0000
   2803  C2        19.8710   43.6430   54.0410 C.ar  133  G133        0.0000
   2804  N2        19.2220   44.8190   54.0200 N.pl3 133  G133        0.0000
   2805  N3        19.4800   42.6840   54.8650 N.ar  133  G133        0.0000
   2806  C4        20.2400   41.5770   54.7450 C.ar  133  G133        0.0000
   2807  C5        21.3110   41.3530   53.9100 C.ar  133  G133        0.0000
   2808  C6        21.7220   42.3900   53.0350 C.ar  133  G133        0.0000
   2809  O6        22.6510   42.3870   52.2170 O.2   133  G133        0.0000
   2810  N7        21.8220   40.0740   54.0950 N.ar  133  G133        0.0000
   2811  C8        21.0640   39.5560   55.0240 C.ar  133  G133        0.0000
   2812  N9        20.0870   40.4190   55.4610 N.ar  133  G133        0.0000
   2813  OP1       19.6390   33.9410   57.7290 O.3   133  G133       -0.5000
   2814  OP2       21.3060   34.5740   55.8710 O.co2 133  G133       -0.5000
   2815  P         15.4880   37.6160   54.8030 P.3   134  U134        0.0000
   2816  C5'       14.1750   39.8870   54.7010 C.3   134  U134        0.0000
   2817  O5'       15.2470   39.0820   54.2170 O.3   134  U134        0.0000
   2818  C4'       14.0900   41.1850   53.9310 C.3   134  U134        0.0000
   2819  O4'       15.3400   41.9090   54.0670 O.3   134  U134        0.0000
   2820  C3'       13.8990   41.0930   52.4240 C.3   134  U134        0.0000
   2821  O3'       12.5350   40.8700   52.0750 O.3   134  U134        0.0000
   2822  C2'       14.3750   42.4700   51.9700 C.3   134  U134        0.0000
   2823  O2'       13.4130   43.4930   52.1630 O.3   134  U134        0.0000
   2824  C1'       15.5640   42.6960   52.9050 C.3   134  U134        0.0000
   2825  N1        16.8240   42.2620   52.2910 N.ar  134  U134        0.0000
   2826  C2        17.4610   43.1520   51.4480 C.ar  134  U134        0.0000
   2827  O2        17.0330   44.2690   51.2190 O.2   134  U134        0.0000
   2828  N3        18.6200   42.6860   50.8840 N.ar  134  U134        0.0000
   2829  C4        19.1950   41.4490   51.0780 C.ar  134  U134        0.0000
   2830  O4        20.2430   41.1760   50.4940 O.2   134  U134        0.0000
   2831  C5        18.4790   40.5850   51.9720 C.ar  134  U134        0.0000
   2832  C6        17.3460   41.0120   52.5340 C.ar  134  U134        0.0000
   2833  OP1       14.1760   37.0510   55.2140 O.3   134  U134       -0.5000
   2834  OP2       16.3410   36.8710   53.8380 O.co2 134  U134       -0.5000
   2835  P         12.1780   40.0480   50.7370 P.3   135  C135        0.0000
   2836  C5'       11.9180   42.2610   49.3400 C.3   135  C135        0.0000
   2837  O5'       12.5950   41.0250   49.5470 O.3   135  C135        0.0000
   2838  C4'       12.7320   43.1620   48.4380 C.3   135  C135        0.0000
   2839  O4'       14.0440   43.3630   49.0390 O.3   135  C135        0.0000
   2840  C3'       13.0520   42.6170   47.0520 C.3   135  C135        0.0000
   2841  O3'       11.9930   42.8210   46.1210 O.3   135  C135        0.0000
   2842  C2'       14.2950   43.4180   46.6830 C.3   135  C135        0.0000
   2843  O2'       14.0030   44.7430   46.2780 O.3   135  C135        0.0000
   2844  C1'       15.0370   43.4300   48.0200 C.3   135  C135        0.0000
   2845  N1        15.9360   42.2660   48.1660 N.ar  135  C135        0.0000
   2846  C2        17.2140   42.3190   47.5860 C.ar  135  C135        0.0000
   2847  O2        17.5590   43.3450   46.9770 O.2   135  C135        0.0000
   2848  N3        18.0360   41.2500   47.7050 N.ar  135  C135        0.0000
   2849  C4        17.6270   40.1620   48.3660 C.ar  135  C135        0.0000
   2850  N4        18.4680   39.1280   48.4550 N.pl3 135  C135        0.0000
   2851  C5        16.3370   40.0850   48.9670 C.ar  135  C135        0.0000
   2852  C6        15.5330   41.1480   48.8450 C.ar  135  C135        0.0000
   2853  OP1       10.7010   39.8880   50.7400 O.3   135  C135       -0.5000
   2854  OP2       13.0440   38.8440   50.6640 O.co2 135  C135       -0.5000
   2855  P         11.8620   41.8500   44.8420 P.3   136  C136        0.0000
   2856  C5'       12.9260   43.6510   43.2450 C.3   136  C136        0.0000
   2857  O5'       12.9980   42.3560   43.8420 O.3   136  C136        0.0000
   2858  C4'       14.1850   43.9370   42.4560 C.3   136  C136        0.0000
   2859  O4'       15.3230   43.8820   43.3600 O.3   136  C136        0.0000
   2860  C3'       14.5280   42.9350   41.3600 C.3   136  C136        0.0000
   2861  O3'       13.8600   43.2350   40.1350 O.3   136  C136        0.0000
   2862  C2'       16.0380   43.1020   41.2330 C.3   136  C136        0.0000
   2863  O2'       16.4190   44.2350   40.4770 O.3   136  C136        0.0000
   2864  C1'       16.4380   43.3080   42.6930 C.3   136  C136        0.0000
   2865  N1        16.7920   42.0520   43.3760 N.ar  136  C136        0.0000
   2866  C2        18.0640   41.5090   43.1620 C.ar  136  C136        0.0000
   2867  O2        18.8420   42.0920   42.3910 O.2   136  C136        0.0000
   2868  N3        18.4100   40.3670   43.7970 N.ar  136  C136        0.0000
   2869  C4        17.5390   39.7670   44.6130 C.ar  136  C136        0.0000
   2870  N4        17.9250   38.6440   45.2240 N.pl3 136  C136        0.0000
   2871  C5        16.2320   40.2930   44.8410 C.ar  136  C136        0.0000
   2872  C6        15.9040   41.4260   44.2070 C.ar  136  C136        0.0000
   2873  OP1       10.5440   42.1350   44.2220 O.2   136  C136       -0.5000
   2874  OP2       12.1930   40.4610   45.2640 O.co2 136  C136       -0.5000
   2875  P         13.4810   42.0430   39.1190 P.3   137  G137        0.0000
   2876  C5'       15.8140   41.9310   37.9070 C.3   137  G137        0.0000
   2877  O5'       14.8740   41.3370   38.8010 O.3   137  G137        0.0000
   2878  C4'       17.0350   41.0480   37.7690 C.3   137  G137        0.0000
   2879  O4'       17.6710   40.9170   39.0700 O.3   137  G137        0.0000
   2880  C3'       16.7720   39.6120   37.3310 C.3   137  G137        0.0000
   2881  O3'       16.6910   39.4950   35.9100 O.3   137  G137        0.0000
   2882  C2'       17.9960   38.8890   37.8800 C.3   137  G137        0.0000
   2883  O2'       19.1380   39.0550   37.0620 O.3   137  G137        0.0000
   2884  C1'       18.1920   39.6070   39.2190 C.3   137  G137        0.0000
   2885  N1        18.4000   36.1860   42.9700 N.ar  137  G137        0.0000
   2886  C2        19.3880   36.5890   42.1050 C.ar  137  G137        0.0000
   2887  N2        20.5820   35.9920   42.2520 N.pl3 137  G137        0.0000
   2888  N3        19.2190   37.5080   41.1660 N.ar  137  G137        0.0000
   2889  C4        17.9610   38.0000   41.1630 C.ar  137  G137        0.0000
   2890  C5        16.9040   37.6660   41.9830 C.ar  137  G137        0.0000
   2891  C6        17.0980   36.6790   42.9840 C.ar  137  G137        0.0000
   2892  O6        16.2820   36.2440   43.8060 O.2   137  G137        0.0000
   2893  N7        15.7750   38.4050   41.6570 N.ar  137  G137        0.0000
   2894  C8        16.1570   39.1570   40.6620 C.ar  137  G137        0.0000
   2895  N9        17.4690   38.9550   40.3050 N.ar  137  G137        0.0000
   2896  OP1       12.9970   42.6820   37.8670 O.2   137  G137       -0.5000
   2897  OP2       12.6160   41.0570   39.8280 O.co2 137  G137       -0.5000
   2898  P         15.4080   38.7880   35.2350 P.3   138  G138        0.0000
   2899  C5'       16.2020   36.2820   35.5640 C.3   138  G138        0.0000
   2900  O5'       15.9570   37.3910   34.6890 O.3   138  G138        0.0000
   2901  C4'       16.8170   35.1330   34.7870 C.3   138  G138        0.0000
   2902  O4'       17.2740   34.1190   35.7240 O.3   138  G138        0.0000
   2903  C3'       15.8040   34.4330   33.8840 C.3   138  G138        0.0000
   2904  O3'       16.1060   34.3600   32.4890 O.3   138  G138        0.0000
   2905  C2'       15.3370   33.1850   34.6320 C.3   138  G138        0.0000
   2906  O2'       15.2480   32.0410   33.8070 O.3   138  G138        0.0000
   2907  C1'       16.4860   32.9500   35.6100 C.3   138  G138        0.0000
   2908  N1        17.9170   30.2670   39.6600 N.ar  138  G138        0.0000
   2909  C2        18.6240   30.5850   38.5280 C.ar  138  G138        0.0000
   2910  N2        19.8710   30.1030   38.4540 N.pl3 138  G138        0.0000
   2911  N3        18.1450   31.3220   37.5410 N.ar  138  G138        0.0000
   2912  C4        16.8790   31.7220   37.7790 C.ar  138  G138        0.0000
   2913  C5        16.0850   31.4620   38.8740 C.ar  138  G138        0.0000
   2914  C6        16.6110   30.6680   39.9270 C.ar  138  G138        0.0000
   2915  O6        16.0620   30.3220   40.9800 O.2   138  G138        0.0000
   2916  N7        14.8410   32.0650   38.7350 N.ar  138  G138        0.0000
   2917  C8        14.9000   32.6650   37.5760 C.ar  138  G138        0.0000
   2918  N9        16.1020   32.4820   36.9370 N.ar  138  G138        0.0000
   2919  OP1       15.0150   39.6180   34.0670 O.2   138  G138       -0.5000
   2920  OP2       14.4120   38.5140   36.3070 O.co2 138  G138       -0.5000
   2921  P         14.9250   34.1140   31.4250 P.3   139  G139        0.0000
   2922  C5'       16.1130   31.7900   31.0500 C.3   139  G139        0.0000
   2923  O5'       15.4740   32.9410   30.4900 O.3   139  G139        0.0000
   2924  C4'       16.9390   31.0750   29.9980 C.3   139  G139        0.0000
   2925  O4'       17.9570   30.2730   30.6580 O.3   139  G139        0.0000
   2926  C3'       16.2400   30.0660   29.0940 C.3   139  G139        0.0000
   2927  O3'       15.5320   30.6510   28.0040 O.3   139  G139        0.0000
   2928  C2'       17.4220   29.2520   28.5850 C.3   139  G139        0.0000
   2929  O2'       18.1430   29.9370   27.5780 O.3   139  G139        0.0000
   2930  C1'       18.2840   29.1580   29.8440 C.3   139  G139        0.0000
   2931  N1        19.4900   24.2600   30.3820 N.ar  139  G139        0.0000
   2932  C2        19.9510   25.1770   29.4720 C.ar  139  G139        0.0000
   2933  N2        20.8520   24.7310   28.5910 N.pl3 139  G139        0.0000
   2934  N3        19.5570   26.4390   29.4300 N.ar  139  G139        0.0000
   2935  C4        18.6470   26.7160   30.3890 C.ar  139  G139        0.0000
   2936  C5        18.1210   25.8750   31.3440 C.ar  139  G139        0.0000
   2937  C6        18.5580   24.5210   31.3780 C.ar  139  G139        0.0000
   2938  O6        18.2180   23.6200   32.1480 O.2   139  G139        0.0000
   2939  N7        17.2070   26.5490   32.1430 N.ar  139  G139        0.0000
   2940  C8        17.1970   27.7650   31.6680 C.ar  139  G139        0.0000
   2941  N9        18.0480   27.9350   30.6050 N.ar  139  G139        0.0000
   2942  OP1       14.8000   35.3480   30.6030 O.2   139  G139       -0.5000
   2943  OP2       13.7400   33.6030   32.1650 O.co2 139  G139       -0.5000
   2944  P         14.4480   29.7690   27.1950 P.3   140  C140        0.0000
   2945  C5'       16.1500   29.3200   25.2420 C.3   140  C140        0.0000
   2946  O5'       15.3240   28.7980   26.2800 O.3   140  C140        0.0000
   2947  C4'       17.0790   28.2500   24.7110 C.3   140  C140        0.0000
   2948  O4'       17.8420   27.6860   25.8140 O.3   140  C140        0.0000
   2949  C3'       16.4310   27.0220   24.0930 C.3   140  C140        0.0000
   2950  O3'       16.0300   27.2330   22.7490 O.3   140  C140        0.0000
   2951  C2'       17.5610   26.0070   24.1650 C.3   140  C140        0.0000
   2952  O2'       18.5350   26.2010   23.1570 O.3   140  C140        0.0000
   2953  C1'       18.1570   26.3280   25.5340 C.3   140  C140        0.0000
   2954  N1        17.5800   25.4800   26.5880 N.ar  140  C140        0.0000
   2955  C2        18.1160   24.2020   26.7880 C.ar  140  C140        0.0000
   2956  O2        19.0620   23.8300   26.0770 O.2   140  C140        0.0000
   2957  N3        17.5910   23.4060   27.7450 N.ar  140  C140        0.0000
   2958  C4        16.5710   23.8430   28.4880 C.ar  140  C140        0.0000
   2959  N4        16.0830   23.0240   29.4180 N.pl3 140  C140        0.0000
   2960  C5        16.0070   25.1400   28.3080 C.ar  140  C140        0.0000
   2961  C6        16.5370   25.9190   27.3560 C.ar  140  C140        0.0000
   2962  OP1       13.6940   30.6910   26.3030 O.2   140  C140       -0.5000
   2963  OP2       13.7080   28.9310   28.1740 O.co2 140  C140       -0.5000
   2964  P         14.8890   26.2980   22.1180 P.3   141  A141        0.0000
   2965  C5'       16.6000   24.4810   21.2820 C.3   141  A141        0.0000
   2966  O5'       15.5230   24.8360   22.1490 O.3   141  A141        0.0000
   2967  C4'       16.8890   22.9970   21.3780 C.3   141  A141        0.0000
   2968  O4'       17.4210   22.6740   22.6890 O.3   141  A141        0.0000
   2969  C3'       15.6790   22.0910   21.2360 C.3   141  A141        0.0000
   2970  O3'       15.3880   21.8640   19.8690 O.3   141  A141        0.0000
   2971  C2'       16.1370   20.8190   21.9350 C.3   141  A141        0.0000
   2972  O2'       16.9490   19.9950   21.1250 O.3   141  A141        0.0000
   2973  C1'       16.9640   21.3900   23.0870 C.3   141  A141        0.0000
   2974  N1        15.2460   19.0340   27.3150 N.ar  141  A141        0.0000
   2975  C2        15.9580   18.5990   26.2700 C.ar  141  A141        0.0000
   2976  N3        16.3670   19.2660   25.1960 N.ar  141  A141        0.0000
   2977  C4        15.9640   20.5470   25.2510 C.ar  141  A141        0.0000
   2978  C5        15.2270   21.1410   26.2570 C.ar  141  A141        0.0000
   2979  C6        14.8570   20.3270   27.3400 C.ar  141  A141        0.0000
   2980  N6        14.1460   20.7610   28.3830 N.pl3 141  A141        0.0000
   2981  N7        14.9960   22.4800   25.9730 N.ar  141  A141        0.0000
   2982  C8        15.5920   22.6630   24.8210 C.ar  141  A141        0.0000
   2983  N9        16.2030   21.5360   24.3280 N.ar  141  A141        0.0000
   2984  OP1       14.7100   26.7010   20.7030 O.2   141  A141       -0.5000
   2985  OP2       13.7240   26.3220   23.0410 O.co2 141  A141       -0.5000
   2986  P         13.9360   21.3350   19.4500 P.3   142  G142        0.0000
   2987  C5'       12.7060   19.1460   20.1710 C.3   142  G142        0.0000
   2988  O5'       13.9320   19.8240   19.9490 O.3   142  G142        0.0000
   2989  C4'       12.9620   17.7270   20.6050 C.3   142  G142        0.0000
   2990  O4'       13.8680   17.7210   21.7380 O.3   142  G142        0.0000
   2991  C3'       11.7150   17.0110   21.0910 C.3   142  G142        0.0000
   2992  O3'       11.0340   16.4250   19.9910 O.3   142  G142        0.0000
   2993  C2'       12.2900   15.9840   22.0570 C.3   142  G142        0.0000
   2994  O2'       12.8330   14.8570   21.3990 O.3   142  G142        0.0000
   2995  C1'       13.4110   16.7960   22.7100 C.3   142  G142        0.0000
   2996  N1        11.9280   16.6240   27.5580 N.ar  142  G142        0.0000
   2997  C2        12.3110   15.5990   26.7270 C.ar  142  G142        0.0000
   2998  N2        12.2950   14.3670   27.2550 N.pl3 142  G142        0.0000
   2999  N3        12.6820   15.7680   25.4700 N.ar  142  G142        0.0000
   3000  C4        12.6360   17.0640   25.1030 C.ar  142  G142        0.0000
   3001  C5        12.2660   18.1610   25.8540 C.ar  142  G142        0.0000
   3002  C6        11.8730   17.9670   27.2000 C.ar  142  G142        0.0000
   3003  O6        11.5130   18.8120   28.0270 O.2   142  G142        0.0000
   3004  N7        12.3540   19.3250   25.1030 N.ar  142  G142        0.0000
   3005  C8        12.7680   18.9230   23.9330 C.ar  142  G142        0.0000
   3006  N9        12.9580   17.5620   23.8660 N.ar  142  G142        0.0000
   3007  OP1       13.8850   21.3360   17.9620 O.2   142  G142       -0.5000
   3008  OP2       12.9080   22.0850   20.2240 O.co2 142  G142       -0.5000
   3009  P          9.6570   17.0730   19.4710 P.3   143  G143        0.0000
   3010  C5'        7.6940   15.9880   20.8190 C.3   143  G143        0.0000
   3011  O5'        8.5900   15.9230   19.7210 O.3   143  G143        0.0000
   3012  C4'        8.0500   14.9370   21.8390 C.3   143  G143        0.0000
   3013  O4'        9.2670   15.3200   22.5410 O.3   143  G143        0.0000
   3014  C3'        7.0190   14.7860   22.9380 C.3   143  G143        0.0000
   3015  O3'        5.9850   13.9270   22.4890 O.3   143  G143        0.0000
   3016  C2'        7.8580   14.2160   24.0710 C.3   143  G143        0.0000
   3017  O2'        8.1820   12.8530   23.8820 O.3   143  G143        0.0000
   3018  C1'        9.1200   15.0670   23.9310 C.3   143  G143        0.0000
   3019  N1         8.0300   17.5000   28.2630 N.ar  143  G143        0.0000
   3020  C2         8.1130   16.1520   28.0250 C.ar  143  G143        0.0000
   3021  N2         7.8590   15.3510   29.0700 N.pl3 143  G143        0.0000
   3022  N3         8.4220   15.6270   26.8500 N.ar  143  G143        0.0000
   3023  C4         8.6460   16.5770   25.9160 C.ar  143  G143        0.0000
   3024  C5         8.5900   17.9480   26.0550 C.ar  143  G143        0.0000
   3025  C6         8.2570   18.4950   27.3180 C.ar  143  G143        0.0000
   3026  O6         8.1530   19.6840   27.6380 O.2   143  G143        0.0000
   3027  N7         8.8870   18.5770   24.8540 N.ar  143  G143        0.0000
   3028  C8         9.1110   17.5980   24.0220 C.ar  143  G143        0.0000
   3029  N9         8.9730   16.3570   24.5980 N.ar  143  G143        0.0000
   3030  OP1        9.7750   17.2670   18.0030 O.2   143  G143       -0.5000
   3031  OP2        9.3050   18.2260   20.3390 O.co2 143  G143       -0.5000
   3032  P          4.5500   14.5480   22.1230 P.3   144  A144        0.0000
   3033  C5'        3.5290   12.9560   23.9320 C.3   144  A144        0.0000
   3034  O5'        3.6920   14.2780   23.4340 O.3   144  A144        0.0000
   3035  C4'        3.2800   12.9900   25.4180 C.3   144  A144        0.0000
   3036  O4'        4.4750   13.4560   26.1110 O.3   144  A144        0.0000
   3037  C3'        2.2100   13.9710   25.8630 C.3   144  A144        0.0000
   3038  O3'        0.8920   13.4760   25.6740 O.3   144  A144        0.0000
   3039  C2'        2.5780   14.1660   27.3220 C.3   144  A144        0.0000
   3040  O2'        2.2340   13.0520   28.1210 O.3   144  A144        0.0000
   3041  C1'        4.0970   14.2850   27.2040 C.3   144  A144        0.0000
   3042  N1         4.5150   19.0990   28.9560 N.ar  144  A144        0.0000
   3043  C2         4.1660   17.9510   29.5510 C.ar  144  A144        0.0000
   3044  N3         4.0900   16.7250   29.0380 N.ar  144  A144        0.0000
   3045  C4         4.4280   16.7340   27.7370 C.ar  144  A144        0.0000
   3046  C5         4.8080   17.8320   26.9880 C.ar  144  A144        0.0000
   3047  C6         4.8500   19.0720   27.6480 C.ar  144  A144        0.0000
   3048  N6         5.2000   20.2150   27.0550 N.pl3 144  A144        0.0000
   3049  N7         5.0820   17.4610   25.6790 N.ar  144  A144        0.0000
   3050  C8         4.8660   16.1680   25.6670 C.ar  144  A144        0.0000
   3051  N9         4.4590   15.6630   26.8770 N.ar  144  A144        0.0000
   3052  OP1        3.9730   13.7480   21.0130 O.2   144  A144       -0.5000
   3053  OP2        4.7080   16.0160   21.9650 O.co2 144  A144       -0.5000
   3054  P         -0.2300   14.4470   25.0570 P.3   145  A23145      0.0000
   3055  PC        -5.9920   14.5920   25.2260 P.3   145  A23145      0.0000
   3056  C5'       -1.8660   14.3880   27.1070 C.3   145  A23145      0.0000
   3057  O5'       -0.9150   15.1120   26.3330 O.3   145  A23145      0.0000
   3058  C4'       -3.2080   15.0750   27.0520 C.3   145  A23145      0.0000
   3059  O4'       -3.1640   16.3200   27.7840 O.3   145  A23145      0.0000
   3060  C3'       -3.6640   15.4810   25.6600 C.3   145  A23145      0.0000
   3061  O3'       -4.3950   14.3950   25.0490 O.3   145  A23145      0.0000
   3062  C2'       -4.6610   16.5890   25.9400 C.3   145  A23145      0.0000
   3063  O2'       -5.9500   15.9560   26.0870 O.3   145  A23145      0.0000
   3064  C1'       -4.0960   17.2230   27.2170 C.3   145  A23145      0.0000
   3065  N1        -1.2300   20.9780   29.2430 N.ar  145  A23145      0.0000
   3066  O1C       -6.5920   14.8310   23.8950 O.co2 145  A23145     -0.5000
   3067  C2        -1.6740   19.8190   29.7420 C.ar  145  A23145      0.0000
   3068  O2C       -6.5290   13.4790   26.0390 O.3   145  A23145     -0.5000
   3069  N3        -2.3990   18.8720   29.1540 N.ar  145  A23145      0.0000
   3070  C4        -2.6780   19.2100   27.8830 C.ar  145  A23145      0.0000
   3071  C5        -2.2860   20.3630   27.2280 C.ar  145  A23145      0.0000
   3072  C6        -1.5250   21.2850   27.9610 C.ar  145  A23145      0.0000
   3073  N6        -1.0800   22.4400   27.4610 N.pl3 145  A23145      0.0000
   3074  N7        -2.7510   20.3680   25.9200 N.ar  145  A23145      0.0000
   3075  C8        -3.4060   19.2380   25.8160 C.ar  145  A23145      0.0000
   3076  N9        -3.4160   18.4940   26.9720 N.ar  145  A23145      0.0000
   3077  OP1       -1.2390   13.6120   24.3570 O.co2 145  A23145     -0.5000
   3078  OP2        0.4780   15.5190   24.3120 O.3   145  A23145     -0.5000
   3079 MG         88.4730   42.7590   81.2990 Mg    204  MG204       0.0000
   3080 MG         46.5810   34.6160   65.5890 Mg    201  MG201       0.0000
   3081 MG         39.1220   32.6900   63.3260 Mg    202  MG202       0.0000
   3082 MG         53.4890   44.7380   63.4950 Mg    203  MG203       0.0000
   3083 MG         52.2690   47.2700   71.0890 Mg    205  MG205       0.0000
   3084 MG         59.0420   40.2800   86.7270 Mg    206  MG206       0.0000
   3085  O         46.2420   36.0990   64.2630 O.3   301  HOH301      0.0000
   3086  O         46.4540   33.4030   66.9620 O.3   302  HOH302      0.0000
   3087  O         48.6490   33.4600   64.6580 O.3   303  HOH303      0.0000
@<TRIPOS>BOND
     1    84  3080    1
     2   756  3080    1
     3  3038  3054    1
     4  3054  3057    1
     5  3054  3077    2
     6  3054  3078    1
     7  3055  3061    1
     8  3055  3063    1
     9  3055  3066    2
    10  3055  3068    1
    11  3056  3058    1
    12  3056  3057    1
    13  3058  3059    1
    14  3058  3060    1
    15  3059  3064    1
    16  3060  3061    1
    17  3060  3062    1
    18  3062  3063    1
    19  3062  3064    1
    20  3064  3076    1
    21  3065  3067   ar
    22  3065  3072   ar
    23  3067  3069   ar
    24  3069  3070   ar
    25  3070  3071   ar
    26  3070  3076   ar
    27  3071  3072   ar
    28  3071  3074   ar
    29  3072  3073    1
    30  3074  3075   ar
    31  3075  3076   ar
    32  3080  3085    1
    33  3080  3086    1
    34  3007  2986    2
    35  3030  3009    2
    36  2986  2970    1
    37  2986  2988    1
    38  2986  3008    1
    39  3009  3011    1
    40  3009  2992    1
    41  3009  3031    1
    42  3011  3010    1
    43  2970  2969    1
    44  2988  2987    1
    45  2992  2991    1
    46  2987  2989    1
    47  2989  2991    1
    48  2989  2990    1
    49  2984  2964    2
    50  3010  3012    1
    51  3052  3032    2
    52  2991  2993    1
    53  2972  2971    1
    54  2969  2967    1
    55  2969  2971    1
    56  2965  2967    1
    57  2965  2966    1
    58  2967  2968    1
    59  2994  2993    1
    60  2990  2995    1
    61  3012  3013    1
    62  3012  3014    1
    63  2971  2973    1
    64  3053  3032    1
    65  2993  2995    1
    66  2964  2966    1
    67  2964  2950    1
    68  2964  2985    1
    69  3032  3015    1
    70  3032  3034    1
    71  3015  3014    1
    72  3013  3018    1
    73  2968  2973    1
    74  2995  3006    1
    75  2950  2949    1
    76  3014  3016    1
    77  2973  2983    1
    78  2952  2951    1
    79  3034  3033    1
    80  3006  3005   ar
    81  3006  3000   ar
    82  3017  3016    1
    83  3018  3016    1
    84  3018  3029    1
    85  3033  3035    1
    86  3005  3004   ar
    87  3028  3029   ar
    88  3028  3027   ar
    89  2949  2951    1
    90  2949  2947    1
    91  2951  2953    1
    92  2983  2982   ar
    93  2983  2977   ar
    94  3029  3023   ar
    95  2947  2945    1
    96  2947  2948    1
    97  2982  2981   ar
    98  3027  3024   ar
    99  3004  3001   ar
   100  3000  2999   ar
   101  3000  3001   ar
   102  2976  2977   ar
   103  2976  2975   ar
   104  2945  2946    1
   105  2977  2978   ar
   106  3035  3037    1
   107  3035  3036    1
   108  2999  2997   ar
   109  2953  2948    1
   110  2953  2954    1
   111  3050  3049   ar
   112  3050  3051   ar
   113  3038  3037    1
   114  3049  3046   ar
   115  3001  3002   ar
   116  3037  3039    1
   117  3023  3024   ar
   118  3023  3022   ar
   119  2981  2978   ar
   120  3024  3025   ar
   121  2956  2955    2
   122  3036  3041    1
   123  1754  1753    1
   124  2978  2979   ar
   125  2975  2974   ar
   126  2946  2944    1
   127  2962  2944    2
   128  2954  2955   ar
   129  2954  2961   ar
   130  2997  2998    1
   131  2997  2996   ar
   132  1750  1749    1
   133  1773  1772    1
   134  2955  2957   ar
   135  3022  3020   ar
   136  3051  3041    1
   137  3051  3045   ar
   138  3046  3047   ar
   139  3046  3045   ar
   140  3048  3047    1
   141  1753  1755   ar
   142  1753  1752   ar
   143  2944  2927    1
   144  2944  2963    1
   145  1755  1756   ar
   146  3002  2996   ar
   147  3002  3003    2
   148  3041  3039    1
   149  2974  2979   ar
   150  3025  3026    2
   151  3025  3019   ar
   152  3039  3040    1
   153  2979  2980    1
   154  2961  2960   ar
   155  1769  1768    1
   156  1769  1774    1
   157  2929  2928    1
   158  1768  1766    1
   159  1768  1770    1
   160  3047  3042   ar
   161  1774  1772    1
   162  1774  1775    1
   163  3045  3044   ar
   164  2957  2958   ar
   165  1751  1749    1
   166  1751  1746    1
   167  1751  1762    1
   168  1734  1733    2
   169  1749  1747    1
   170  1772  1770    1
   171  2927  2926    1
   172  3020  3019   ar
   173  3020  3021    1
   174  1766  1767    1
   175  1777  1776    2
   176  1752  1758   ar
   177  1786  1788    1
   178  1786  1787    1
   179  2960  2958   ar
   180  1756  1762   ar
   181  1756  1757   ar
   182  1746  1745    1
   183  1771  1770    1
   184  1771  1785    1
   185  1788  1789    1
   186  1788  1790    1
   187  2958  2959    1
   188  1789  1794    1
   189  2928  2926    1
   190  2928  2930    1
   191  2933  2932    1
   192  1762  1761   ar
   193  1745  1747    1
   194  1745  1743    1
   195  1775  1776   ar
   196  1775  1782   ar
   197  1733  1735   ar
   198  1733  1732   ar
   199  3042  3043   ar
   200  1776  1778   ar
   201  3044  3043   ar
   202  2926  2924    1
   203  1747  1748    1
   204  1806  1785    2
   205  1748  1765    1
   206  1735  1736   ar
   207  1730  1729    1
   208  1793  1792    1
   209  1758  1757   ar
   210  1758  1759    2
   211  1757  1760   ar
   212  1767  1765    1
   213  2934  2932   ar
   214  2934  2935   ar
   215  1787  1785    1
   216  2932  2931   ar
   217  1794  1792    1
   218  1794  1805    1
   219  1785  1807    1
   220  1677  1676    2
   221  1791  1790    1
   222  1791  1808    1
   223  1731  1732    1
   224  1731  1729    1
   225  1731  1726    1
   226  1790  1792    1
   227  1782  1781   ar
   228  2930  2941    1
   229  2930  2925    1
   230  1761  1760   ar
   231  1743  1744    1
   232  2924  2925    1
   233  2924  2922    1
   234  1732  1739   ar
   235  1714  1713    2
   236  1729  1727    1
   237  1783  1765    2
   238  1778  1779   ar
   239  1765  1784    1
   240  1715  1713   ar
   241  1715  1716   ar
   242  2931  2937   ar
   243  2935  2941   ar
   244  2935  2936   ar
   245  1736  1737    2
   246  1736  1738   ar
   247  1697  1696    1
   248  2923  2922    1
   249  2923  2921    1
   250  1805  1804   ar
   251  1805  1799   ar
   252  2942  2921    2
   253  2941  2940   ar
   254  1717  1716    1
   255  1726  1725    1
   256  1828  1808    2
   257  1713  1712   ar
   258  1804  1803   ar
   259  1781  1779   ar
   260  1676  1675   ar
   261  1676  1678   ar
   262  1779  1780    1
   263  1744  1742    1
   264  1808  1829    1
   265  1808  1810    1
   266  1716  1718   ar
   267  1695  1696   ar
   268  1695  1693   ar
   269  1739  1738   ar
   270  1809  1810    1
   271  1809  1811    1
   272  2936  2937   ar
   273  2936  2939   ar
   274  1798  1799   ar
   275  1798  1796   ar
   276  1799  1800   ar
   277  2937  2938    2
   278  2921  2943    1
   279  2921  2904    1
   280  1696  1698   ar
   281  1727  1725    1
   282  1727  1728    1
   283  1675  1673   ar
   284  1725  1723    1
   285  2940  2939   ar
   286  1678  1679   ar
   287  1803  1800   ar
   288  1728  1742    1
   289  1812  1811    1
   290  1812  1817    1
   291  1694  1693    2
   292  1811  1813    1
   293  1712  1711    1
   294  1712  1719   ar
   295  1800  1801   ar
   296  1693  1692   ar
   297  1796  1797    1
   298  1796  1795   ar
   299  1742  1763    2
   300  1742  1764    1
   301  2904  2903    1
   302  1718  1719   ar
   303  1711  1709    1
   304  1711  1706    1
   305  1710  1709    1
   306  1531  1513    2
   307  1698  1699   ar
   308  1673  1674    2
   309  1673  1672   ar
   310  1709  1707    1
   311  1723  1724    1
   312  1679  1672   ar
   313  1795  1801   ar
   314  1801  1802    2
   315  1817  1827    1
   316  1817  1815    1
   317  1692  1699   ar
   318  1692  1691    1
   319  1813  1814    1
   320  1813  1815    1
   321  1826  1827   ar
   322  1826  1825   ar
   323  1724  1722    1
   324  1672  1671    1
   325  1827  1821   ar
   326  2906  2905    1
   327  1706  1705    1
   328  2903  2905    1
   329  2903  2901    1
   330  1814  1830    1
   331  1816  1815    1
   332  1499  1513    1
   333  1499  1498    1
   334  2919  2898    2
   335  1513  1532    1
   336  1513  1515    1
   337  1511  1493    2
   338  1825  1822   ar
   339  1554  1533    2
   340  1707  1705    1
   341  1707  1708    1
   342  1691  1689    1
   343  1691  1686    1
   344  1494  1496    1
   345  1494  1495    1
   346  2905  2907    1
   347  1514  1515    1
   348  1514  1516    1
   349  1821  1822   ar
   350  1821  1820   ar
   351  2900  2898    1
   352  2900  2899    1
   353  1654  1653    2
   354  2901  2899    1
   355  2901  2902    1
   356  1650  1649    1
   357  1705  1703    1
   358  1496  1498    1
   359  1496  1497    1
   360  1681  1662    1
   361  1708  1722    1
   362  1822  1823   ar
   363  1662  1664    1
   364  1662  1680    1
   365  1689  1690    1
   366  1689  1687    1
   367  1671  1666    1
   368  1671  1669    1
   369  1722  1741    2
   370  1722  1740    1
   371  1820  1819   ar
   372  1848  1830    2
   373  1830  1849    1
   374  1830  1832    1
   375  1649  1647    1
   376  1649  1651    1
   377  1501  1500    1
   378  1498  1500    1
   379  2898  2881    1
   380  2898  2920    1
   381  1648  1647    1
   382  1655  1653   ar
   383  1655  1656   ar
   384  1653  1652   ar
   385  1519  1533    1
   386  1519  1518    1
   387  1533  1555    1
   388  1533  1535    1
   389  1664  1663    1
   390  1666  1665    1
   391  2907  2902    1
   392  2907  2918    1
   393  1493  1495    1
   394  1493  1479    1
   395  1493  1512    1
   396  1686  1685    1
   397  1516  1518    1
   398  1516  1517    1
   399  1669  1667    1
   400  1669  1670    1
   401  1479  1478    1
   402  2881  2880    1
   403  1647  1645    1
   404  1823  1824    1
   405  1823  1818   ar
   406  1704  1703    1
   407  1704  1702    1
   408  1500  1502    1
   409  1657  1656    1
   410  1819  1818   ar
   411  1656  1658   ar
   412  1497  1502    1
   413  1687  1685    1
   414  1687  1688    1
   415  1652  1651    1
   416  1652  1659   ar
   417  1651  1646    1
   418  1518  1520    1
   419  1481  1480    1
   420  1667  1665    1
   421  1667  1668    1
   422  1832  1831    1
   423  1701  1682    2
   424  1831  1833    1
   425  1721  1702    2
   426  1665  1663    1
   427  1535  1534    1
   428  1685  1683    1
   429  1502  1503    1
   430  1684  1682    1
   431  1684  1683    1
   432  1517  1522    1
   433  2918  2917   ar
   434  2918  2912   ar
   435  1658  1659   ar
   436  1534  1536    1
   437  2883  2882    1
   438  1702  1688    1
   439  1702  1720    1
   440  1989  1988   ar
   441  1989  1990   ar
   442  1478  1476    1
   443  1478  1480    1
   444  1645  1646    1
   445  1645  1643    1
   446  2880  2878    1
   447  2880  2882    1
   448  1846  1847   ar
   449  1846  1844   ar
   450  1521  1520    1
   451  1834  1833    1
   452  1834  1839    1
   453  1476  1474    1
   454  1476  1477    1
   455  1480  1482    1
   456  1682  1668    1
   457  1682  1700    1
   458  1847  1840   ar
   459  1988  1993   ar
   460  2911  2912   ar
   461  2911  2909   ar
   462  2917  2916   ar
   463  1520  1522    1
   464  1575  1556    2
   465  1036  1035    2
   466  1833  1835    1
   467  1574  1556    1
   468  2878  2876    1
   469  2878  2879    1
   470  2912  2913   ar
   471  1474  1475    1
   472  1990  1991   ar
   473  2896  2875    2
   474  1967  1966    1
   475  2882  2884    1
   476  2876  2877    1
   477  1637  1636    2
   478  1522  1523    1
   479  1491  1473    2
   480  1503  1510   ar
   481  1503  1504   ar
   482  1845  1844    1
   483  1844  1843   ar
   484  1556  1539    1
   485  1556  1558    1
   486  1510  1509   ar
   487  1530  1523   ar
   488  1530  1529   ar
   489  1536  1538    1
   490  1536  1537    1
   491  1643  1644    1
   492  1840  1839    1
   493  1840  1841   ar
   494  2910  2909    1
   495  1477  1482    1
   496  2909  2908   ar
   497  1644  1642    1
   498  1993  1994    1
   499  1993  1992   ar
   500  1839  1837    1
   501  1482  1483    1
   502  1539  1538    1
   503  1635  1636   ar
   504  1635  1633   ar
   505  2916  2913   ar
   506  1636  1638   ar
   507  2877  2875    1
   508  1966  1965   ar
   509  1966  1968   ar
   510  1991  1992   ar
   511  1991  1997   ar
   512  2913  2914   ar
   513  1475  1473    1
   514  1035  1034   ar
   515  1035  1037   ar
   516  1523  1524   ar
   517  1505  1504    2
   518  1965  1971   ar
   519  1538  1540    1
   520  1986  1985    1
   521  1835  1837    1
   522  1835  1836    1
   523  2879  2884    1
   524  2875  2897    1
   525  2875  2861    1
   526  2008  2007    1
   527  1529  1527   ar
   528  1504  1506   ar
   529  2884  2895    1
   530  1843  1841   ar
   531  1473  1459    1
   532  1473  1492    1
   533  1992  1995   ar
   534  1634  1633    2
   535  1537  1542    1
   536  1841  1842    2
   537  1034  1032   ar
   538  1633  1632   ar
   539   966   965    1
   540  1616  1615    2
   541  1661  1642    2
   542  1552  1551   ar
   543  1552  1553   ar
   544  1509  1507   ar
   545  1968  1969   ar
   546  1987  1997    1
   547  1987  1985    1
   548  1987  1982    1
   549  2908  2914   ar
   550  1997  1996   ar
   551  2004  2009    1
   552  2004  2003    1
   553  1837  1838    1
   554  1836  1850    1
   555  1638  1639   ar
   556  1642  1660    1
   557  1642  1628    1
   558  1558  1557    1
   559  1485  1484    2
   560  1483  1484   ar
   561  1483  1490   ar
   562  2009  2007    1
   563  2009  2020    1
   564  1971  1972    2
   565  1971  1970   ar
   566  2914  2915    2
   567  1985  1983    1
   568  1551  1548   ar
   569  1461  1460    1
   570  1037  1038   ar
   571  1459  1458    1
   572   947   946    1
   573  2003  2001    1
   574  2003  2005    1
   575  2861  2860    1
   576  1524  1525    2
   577  1524  1526   ar
   578  1593  1592    2
   579  2007  2005    1
   580  2895  2894   ar
   581  2895  2889   ar
   582  1995  1996   ar
   583  1615  1609   ar
   584  1615  1614   ar
   585  1506  1507   ar
   586  1632  1639   ar
   587  1632  1631    1
   588  1865  1864    1
   589  1484  1486   ar
   590  2863  2862    1
   591  1598  1576    2
   592  1540  1542    1
   593  1540  1541    1
   594  1969  1970   ar
   595  1969  1975   ar
   596  1542  1553    1
   597  1869  1850    2
   598  1982  1981    1
   599  1490  1489   ar
   600  2012  2011    1
   601  1609  1610   ar
   602  2013  2011   ar
   603  2013  2014   ar
   604  1527  1526   ar
   605  1527  1528    2
   606  1553  1547   ar
   607  1629  1627    1
   608  1629  1630    1
   609  1629  1631    1
   610  1572  1573   ar
   611  1572  1570   ar
   612  1507  1508    1
   613  1032  1033    2
   614  1032  1031   ar
   615  2894  2893   ar
   616  1970  1973   ar
   617  1571  1570    1
   618  2001  2002    1
   619   982   984    1
   620   982   983    1
   621  1557  1559    1
   622   970   969    1
   623   965   967    1
   624   965   963    1
   625  2020  2014   ar
   626  2020  2019   ar
   627  1460  1458    1
   628  1460  1462    1
   629  1628  1627    1
   630  1866  1864   ar
   631  1866  1867   ar
   632  2005  2006    1
   633  1627  1625    1
   634  2006  2023    1
   635   984   985    1
   636   984   986    1
   637  1850  1868    1
   638  1850  1852    1
   639  2011  2010   ar
   640   924   923    1
   641  1864  1863   ar
   642  2024  2026    1
   643  2024  2025    1
   644   967   962    1
   645   967   978    1
   646  2889  2888   ar
   647  2889  2890   ar
   648  2888  2886   ar
   649  2014  2015   ar
   650  2027  2026    1
   651  2027  2032    1
   652  1959  1964    1
   653  1959  1958    1
   654   964   963    1
   655   964   981    1
   656  1458  1456    1
   657  2862  2860    1
   658  2862  2864    1
   659  1038  1031   ar
   660   999   981    2
   661  1573  1566   ar
   662   946   948   ar
   663   946   945   ar
   664   985   990    1
   665   961   962    1
   666   961   963    1
   667   961   959    1
   668  1631  1626    1
   669  1548  1547   ar
   670  1548  1549   ar
   671  1614  1617   ar
   672  1614  1613   ar
   673  1981  1983    1
   674  1981  1979    1
   675   971   969   ar
   676   971   972   ar
   677  1641  1622    2
   678  2860  2858    1
   679  1570  1569   ar
   680  1983  1984    1
   681  2026  2028    1
   682  1592  1591   ar
   683  1592  1586   ar
   684   989   988    1
   685  1975  1964    1
   686  1975  1974   ar
   687  1617  1618   ar
   688  1594  1591   ar
   689  1594  1595   ar
   690  1610  1611    1
   691  1610  1612   ar
   692   948   949   ar
   693  1031  1030    1
   694  1964  1962    1
   695  1984  2000    1
   696  2893  2890   ar
   697   943   942    1
   698  1486  1487   ar
   699  1867  1860   ar
   700   969   968   ar
   701  1489  1487   ar
   702  1547  1546   ar
   703  1973  1974   ar
   704  2019  2018   ar
   705  1621  1599    2
   706  1576  1597    1
   707  1576  1562    1
   708  1576  1578    1
   709   987   986    1
   710   987  1001    1
   711  1863  1861   ar
   712   983   981    1
   713  2044  2023    2
   714  2002  2000    1
   715  1591  1590   ar
   716  2890  2891   ar
   717   981  1000    1
   718  2010  2016   ar
   719  2025  2023    1
   720  1624  1622    1
   721  1624  1623    1
   722  2032  2030    1
   723  2032  2043    1
   724  1550  1549    2
   725  1456  1457    1
   726  1456  1454    1
   727  1852  1851    1
   728  2886  2887    1
   729  2886  2885   ar
   730  1465  1464    2
   731   959   960    1
   732   945   951   ar
   733  1586  1587   ar
   734   990   988    1
   735   990   991    1
   736  1559  1561    1
   737  1559  1560    1
   738   986   988    1
   739  1958  1956    1
   740  1958  1960    1
   741  2023  2045    1
   742  1887  1886    2
   743  2015  2018   ar
   744  2015  2016   ar
   745  1613  1612   ar
   746  1613  1619   ar
   747  1549  1543   ar
   748  2031  2030    1
   749   978   972   ar
   750   978   977   ar
   751  1487  1488    1
   752  1462  1457    1
   753  1462  1463    1
   754  1561  1562    1
   755  1561  1563    1
   756   972   973   ar
   757  1626  1625    1
   758  2867  2866    2
   759  1625  1623    1
   760   923   922   ar
   761   923   925   ar
   762  2858  2856    1
   763  2858  2859    1
   764  1622  1640    1
   765  1622  1605    1
   766  1595  1596   ar
   767  1002  1004    1
   768  1002  1003    1
   769  1860  1861   ar
   770  1860  1859    1
   771  1618  1619   ar
   772  1560  1565    1
   773  1019  1001    2
   774  1566  1567   ar
   775  1566  1565    1
   776  1861  1862    2
   777  2000  2021    2
   778  2000  2022    1
   779  1569  1567   ar
   780  1979  1980    1
   781  2864  2859    1
   782  2864  2865    1
   783  2016  2017    2
   784  1578  1577    1
   785  2028  2030    1
   786  2028  2029    1
   787  1854  1859    1
   788  1854  1853    1
   789   922   928   ar
   790  1956  1957    1
   791   942   944    1
   792   942   940    1
   793   944   955    1
   794   944   939    1
   795   949   955   ar
   796   949   950   ar
   797  1963  1962    1
   798  2043  2042   ar
   799  2043  2037   ar
   800  2029  2046    1
   801  1454  1455    1
   802  2885  2891   ar
   803   968   974   ar
   804  2891  2892    2
   805  1546  1544   ar
   806  1464  1463   ar
   807  1464  1466   ar
   808  1030  1025    1
   809  1030  1028    1
   810  1619  1608    1
   811  1962  1960    1
   812  1004  1005    1
   813  1004  1006    1
   814  1463  1470   ar
   815  1001  1003    1
   816  1001  1020    1
   817  1851  1853    1
   818  2866  2865   ar
   819  2866  2868   ar
   820  2042  2041   ar
   821  1960  1961    1
   822  1961  1978    1
   823   925   926   ar
   824  1599  1601    1
   825  1599  1620    1
   826  1599  1582    1
   827  1590  1596   ar
   828  1590  1589   ar
   829  2856  2857    1
   830  1859  1857    1
   831  1567  1568    2
   832  1565  1563    1
   833  1980  1978    1
   834  2865  2872   ar
   835  1886  1880   ar
   836  1886  1885   ar
   837  1587  1589   ar
   838  1587  1588    1
   839   991   998   ar
   840   991   992   ar
   841   955   954   ar
   842  1601  1600    1
   843   951   950   ar
   844   951   952    2
   845   977   976   ar
   846  1596  1585    1
   847   960   958    1
   848  1543  1544   ar
   849  1563  1564    1
   850  1604  1606    1
   851  1604  1605    1
   852  1604  1602    1
   853  1957  1955    1
   854   939   938    1
   855  1025  1024    1
   856   973   974   ar
   857   973   976   ar
   858  1606  1608    1
   859  1606  1607    1
   860  1005  1010    1
   861  2037  2036   ar
   862  2037  2038   ar
   863  1007  1006    1
   864  1007  1021    1
   865   900   901   ar
   866   900   905   ar
   867  1028  1029    1
   868  1028  1026    1
   869  1455  1453    1
   870  1466  1467   ar
   871  2868  2869   ar
   872  2036  2034   ar
   873   998   997   ar
   874   950   953   ar
   875  1853  1855    1
   876  2857  2855    1
   877  1544  1545    1
   878  1977  1955    2
   879  1880  1881   ar
   880  1442  1441    1
   881   993   992    2
   882  1470  1469   ar
   883  2041  2038   ar
   884   974   975    2
   885  1581  1582    1
   886  1581  1583    1
   887  1581  1579    1
   888  1039  1021    2
   889   941   940    1
   890   941   958    1
   891  1006  1008    1
   892   938   940    1
   893   938   936    1
   894   901   902   ar
   895  1608  1603    1
   896  1577  1579    1
   897   928   929    2
   898   928   927   ar
   899  1888  1885   ar
   900  1888  1889   ar
   901  1022  1024    1
   902  1022  1023    1
   903  2872  2871   ar
   904  2873  2855    2
   905   906   905    1
   906  1978  1999    2
   907  1978  1998    1
   908   992   994   ar
   909  1885  1884   ar
   910  2066  2046    2
   911  1471  1453    2
   912  2047  2048    1
   913  2047  2049    1
   914  2038  2039   ar
   915  2046  2048    1
   916  2046  2067    1
   917   926   927   ar
   918   926   932   ar
   919   979   958    2
   920  1583  1585    1
   921  1583  1584    1
   922   958   980    1
   923  2869  2871   ar
   924  2869  2870    1
   925  1955  1976    1
   926  1955  1939    1
   927   905   904   ar
   928  2034  2035    1
   929  2034  2033   ar
   930  1941  1940    1
   931  1024  1026    1
   932  1600  1602    1
   933  1467  1469   ar
   934  1467  1468    1
   935  1585  1580    1
   936  1603  1602    1
   937   954   953   ar
   938  2050  2049    1
   939  2050  2055    1
   940  1579  1580    1
   941  1021  1023    1
   942  1021  1040    1
   943  1857  1855    1
   944  1857  1858    1
   945  1855  1856    1
   946   885   884    1
   947  2855  2874    1
   948  2855  2841    1
   949  1453  1472    1
   950  1453  1436    1
   951  1441  1440   ar
   952  1441  1443   ar
   953   997   995   ar
   954  1026  1027    1
   955  2049  2051    1
   956   927   930   ar
   957   920   919    1
   958  1010  1008    1
   959  1010  1011    1
   960  1440  1446   ar
   961  1881  1882    1
   962  1881  1883   ar
   963  2039  2033   ar
   964  2039  2040    2
   965  1889  1890   ar
   966   902   903   ar
   967   936   937    1
   968  1008  1009    1
   969   994   995   ar
   970  1940  1938    1
   971  1940  1942    1
   972   921   932    1
   973   921   919    1
   974   921   916    1
   975   932   931   ar
   976  1884  1883   ar
   977  1884  1890   ar
   978  1443  1444   ar
   979  1939  1938    1
   980   919   917    1
   981  2055  2065    1
   982  2055  2053    1
   983   995   996    2
   984  1011  1018   ar
   985  1011  1012   ar
   986   904   903   ar
   987   904   907   ar
   988   884   883   ar
   989   884   886   ar
   990  1436  1435    1
   991   883   881   ar
   992  1446  1447    2
   993  1446  1445   ar
   994  1018  1017   ar
   995  1061  1041    2
   996  2841  2840    1
   997  1438  1437    1
   998  1856  1870    1
   999   903   909   ar
  1000  1890  1879    1
  1001  1042  1044    1
  1002  1042  1043    1
  1003  2843  2842    1
  1004  1437  1435    1
  1005  1437  1439    1
  1006  1938  1936    1
  1007  1027  1041    1
  1008  1013  1012    2
  1009  2064  2065   ar
  1010  2064  2063   ar
  1011   930   931   ar
  1012   937   935    1
  1013  2065  2059   ar
  1014  2051  2053    1
  1015  2051  2052    1
  1016  1012  1014   ar
  1017  2054  2053    1
  1018  1444  1445   ar
  1019  1444  1450   ar
  1020  1892  1870    2
  1021  1942  1952    1
  1022  1942  1937    1
  1023   916   915    1
  1024  2842  2840    1
  1025  2842  2844    1
  1026  1435  1433    1
  1027  1945  1944   ar
  1028  1945  1946   ar
  1029  1445  1448   ar
  1030  2052  2068    1
  1031  1017  1015   ar
  1032  2847  2846    2
  1033  1952  1946   ar
  1034  1952  1951   ar
  1035  1944  1943   ar
  1036  1041  1043    1
  1037  1041  1062    1
  1038  1044  1045    1
  1039  1044  1046    1
  1040  2063  2060   ar
  1041   907   908   ar
  1042  2840  2838    1
  1043  1946  1947   ar
  1044   886   887   ar
  1045  2744  2743    2
  1046  1870  1872    1
  1047  1870  1891    1
  1048   917   915    1
  1049   917   918    1
  1050  1045  1050    1
  1051   881   882    2
  1052   881   880   ar
  1053  1014  1015   ar
  1054  2059  2060   ar
  1055  2059  2058   ar
  1056  1951  1950   ar
  1057  1872  1871    1
  1058  1450  1439    1
  1059  1450  1449   ar
  1060  1943  1948   ar
  1061   909   908   ar
  1062   909   899    1
  1063  1936  1937    1
  1064  1936  1934    1
  1065   915   913    1
  1066  1879  1874    1
  1067  1879  1877    1
  1068  1439  1434    1
  1069  1874  1873    1
  1070  1947  1948   ar
  1071  1947  1950   ar
  1072  1015  1016    2
  1073  2846  2848   ar
  1074  2846  2845   ar
  1075   918   935    1
  1076  2060  2061   ar
  1077  2848  2849   ar
  1078  2745  2742   ar
  1079  2745  2746   ar
  1080  2058  2057   ar
  1081  1948  1949    1
  1082  2743  2742   ar
  1083  2743  2737   ar
  1084  1448  1449   ar
  1085   935   956    2
  1086   935   957    1
  1087  2844  2845    1
  1088  2844  2839    1
  1089  1081  1063    2
  1090  2742  2741   ar
  1091  2845  2852   ar
  1092   899   897    1
  1093   899   894    1
  1094  1433  1434    1
  1095  1433  1431    1
  1096  1871  1873    1
  1097  1059  1058   ar
  1098  1059  1060   ar
  1099  2068  2086    2
  1100  2068  2087    1
  1101  2068  2070    1
  1102  2746  2747   ar
  1103   887   880   ar
  1104  2849  2850    1
  1105  2849  2851   ar
  1106   880   879    1
  1107  1046  1047    1
  1108  1046  1048    1
  1109  2838  2839    1
  1110  2838  2836    1
  1111  2737  2738   ar
  1112  2061  2062    1
  1113  2061  2056   ar
  1114  2057  2056   ar
  1115  1047  1063    1
  1116   897   898    1
  1117   897   895    1
  1118  1058  1055   ar
  1119  1050  1060    1
  1120  1050  1048    1
  1121  1877  1878    1
  1122  1877  1875    1
  1123  1339  1321    2
  1124  1873  1875    1
  1125  1432  1431    1
  1126  1432  1430    1
  1127  1934  1935    1
  1128  1060  1054   ar
  1129  2852  2851   ar
  1130  2741  2747   ar
  1131  2741  2740   ar
  1132   913   914    1
  1133  1953  1933    2
  1134  2747  2736    1
  1135  1064  1065    1
  1136  1064  1066    1
  1137  2731  2736    1
  1138  2731  2730    1
  1139  1063  1065    1
  1140  1063  1082    1
  1141  2738  2740   ar
  1142  2738  2739    1
  1143   914   912    1
  1144  1452  1430    2
  1145  1935  1933    1
  1146  2070  2069    1
  1147  2836  2837    1
  1148  1319  1298    2
  1149   894   893    1
  1150  1362  1341    2
  1151  1048  1049    1
  1152  2069  2071    1
  1153  1055  1054   ar
  1154  1055  1056   ar
  1155   888   870    2
  1156  2837  2835    1
  1157  1875  1876    1
  1158  1101  1083    2
  1159   879   877    1
  1160   879   874    1
  1161  1054  1053   ar
  1162  2736  2734    1
  1163  1908  1907    2
  1164  2748  2727    2
  1165  1363  1341    1
  1166  2072  2071    1
  1167  2072  2077    1
  1168  1906  1907   ar
  1169  1906  1904   ar
  1170  1404  1403    2
  1171  1905  1904    2
  1172  1933  1954    1
  1173  1933  1919    1
  1174  2728  2730    1
  1175  2728  2729    1
  1176  1430  1451    1
  1177  1430  1416    1
  1178  1066  1067    1
  1179  1066  1068    1
  1180   895   893    1
  1181   895   896    1
  1182  1897  1896    1
  1183  1897  1902    1
  1184  1907  1909   ar
  1185  1321  1340    1
  1186  1321  1304    1
  1187  1321  1323    1
  1188  1904  1903   ar
  1189  2730  2732    1
  1190  1069  1083    1
  1191  1069  1068    1
  1192  1057  1056    1
  1193  1056  1051   ar
  1194  2085  2084   ar
  1195  2085  2078   ar
  1196  2084  2082   ar
  1197  1341  1327    1
  1198  1341  1343    1
  1199  2071  2073    1
  1200   877   878    1
  1201   877   875    1
  1202  1909  1910   ar
  1203  1053  1052   ar
  1204  1903  1910   ar
  1205  1903  1902    1
  1206  2830  2829    2
  1207   893   891    1
  1208   874   873    1
  1209  1386  1364    2
  1210  1083  1102    1
  1211  1083  1085    1
  1212  1304  1303    1
  1213  2854  2835    2
  1214  1403  1397   ar
  1215  1403  1402   ar
  1216   912   896    1
  1217   912   934    2
  1218   912   933    1
  1219  2835  2853    1
  1220  2835  2821    1
  1221  1896  1894    1
  1222  1896  1898    1
  1223  1416  1415    1
  1224  1902  1900    1
  1225  1876  1893    1
  1226  1067  1072    1
  1227  1397  1398   ar
  1228  1068  1070    1
  1229  1298  1281    1
  1230  1298  1320    1
  1231  1298  1300    1
  1232  2077  2078    1
  1233  2077  2075    1
  1234  2078  2079   ar
  1235  2828  2829   ar
  1236  2828  2826   ar
  1237  1894  1895    1
  1238   870   872    1
  1239   870   853    1
  1240   870   889    1
  1241  2082  2083    1
  1242  2082  2081   ar
  1243  2729  2727    1
  1244  1323  1322    1
  1245  1322  1324    1
  1246  1327  1326    1
  1247  1051  1052   ar
  1248  2829  2831   ar
  1249  2727  2711    1
  1250  2727  2749    1
  1251  1299  1300    1
  1252  1299  1301    1
  1253  1429  1410    2
  1254   892   891    1
  1255   892   890    1
  1256  2827  2826    2
  1257  2734  2732    1
  1258  2734  2735    1
  1259   872   871    1
  1260  1919  1918    1
  1261   875   873    1
  1262   875   876    1
  1263   853   852    1
  1264  2711  2710    1
  1265  1385  1364    1
  1266  1071  1070    1
  1267  1281  1280    1
  1268  2732  2733    1
  1269  2826  2825   ar
  1270  1343  1342    1
  1271  2079  2081   ar
  1272  2079  2080    2
  1273  1911  1893    2
  1274  1402  1405   ar
  1275  1402  1401   ar
  1276   911   890    2
  1277  1411  1413    1
  1278  1411  1412    1
  1279  1399  1398    1
  1280  1895  1893    1
  1281  1364  1347    1
  1282  1364  1366    1
  1283  1398  1400   ar
  1284   873   871    1
  1285  1409  1387    2
  1286  1405  1406   ar
  1287  2073  2075    1
  1288  2073  2074    1
  1289  1296  1275    2
  1290  1303  1301    1
  1291  1303  1305    1
  1292  1893  1912    1
  1293  1070  1072    1
  1294  1301  1302    1
  1295  1415  1413    1
  1296  1415  1417    1
  1297  2822  2823    1
  1298  2822  2820    1
  1299  2822  2824    1
  1300  1326  1324    1
  1301  1326  1328    1
  1302  2831  2832   ar
  1303  1085  1084    1
  1304  1413  1414    1
  1305  2733  2750    1
  1306  1072  1073    1
  1307  1324  1325    1
  1308  2769  2750    2
  1309  1898  1900    1
  1310  1898  1899    1
  1311  2821  2820    1
  1312  1084  1086    1
  1313  2075  2076    1
  1314  1342  1344    1
  1315  2713  2712    1
  1316  1900  1901    1
  1317  2809  2808    2
  1318   890   876    1
  1319   890   910    1
  1320  1428  1410    1
  1321  1410  1412    1
  1322  1410  1393    1
  1323  2825  2832   ar
  1324  2825  2824    1
  1325  1899  1913    1
  1326  1401  1400   ar
  1327  1401  1407   ar
  1328  2820  2818    1
  1329  1918  1916    1
  1330  1918  1920    1
  1331   850   852    1
  1332   850   848    1
  1333   850   851    1
  1334   852   854    1
  1335  1347  1346    1
  1336  2768  2750    1
  1337  2074  2088    1
  1338  2750  2752    1
  1339  1366  1365    1
  1340  1406  1407   ar
  1341  2710  2708    1
  1342  2710  2712    1
  1343   833   832    1
  1344  1080  1073   ar
  1345  1080  1079   ar
  1346  1280  1278    1
  1347  1280  1282    1
  1348  1276  1278    1
  1349  1276  1277    1
  1350  1124  1103    2
  1351  1418  1417    1
  1352  2708  2706    1
  1353  2708  2709    1
  1354  2824  2819    1
  1355  1306  1305    1
  1356   848   849    1
  1357  2706  2707    1
  1358  1283  1282    1
  1359  1346  1344    1
  1360  1346  1348    1
  1361  2808  2802   ar
  1362  2808  2807   ar
  1363  1278  1279    1
  1364  1125  1103    1
  1365  1381  1380    2
  1366  1305  1307    1
  1367  1382  1383   ar
  1368  1382  1379   ar
  1369  1073  1074   ar
  1370  1921  1920    1
  1371  1407  1396    1
  1372  1417  1419    1
  1373  2802  2803   ar
  1374  2712  2714    1
  1375  1387  1408    1
  1376  1387  1389    1
  1377  1387  1370    1
  1378  1916  1914    1
  1379  1916  1917    1
  1380   868   847    2
  1381  1275  1277    1
  1382  1275  1297    1
  1383  1275  1261    1
  1384  1302  1307    1
  1385  1344  1345    1
  1386  2725  2705    2
  1387  1325  1330    1
  1388  1328  1329    1
  1389  1328  1330    1
  1390  1414  1419    1
  1391   851   856    1
  1392  1914  1915    1
  1393  1920  1922    1
  1394  1383  1384   ar
  1395  1086  1087    1
  1396  1086  1088    1
  1397  1392  1394    1
  1398  1392  1393    1
  1399  1392  1390    1
  1400  2107  2088    2
  1401   855   854    1
  1402  1394  1396    1
  1403  1394  1395    1
  1404  1282  1284    1
  1405   831   847    1
  1406   831   830    1
  1407  1103  1089    1
  1408  1103  1105    1
  1409  1932  1913    2
  1410  1389  1388    1
  1411  1338  1337   ar
  1412  1338  1331   ar
  1413  1079  1077   ar
  1414  1365  1367    1
  1415  1360  1359   ar
  1416  1360  1361   ar
  1417  1913  1915    1
  1418  1913  1931    1
  1419   854   856    1
  1420  1359  1356   ar
  1421  2834  2815    2
  1422  1380  1379   ar
  1423  1380  1374   ar
  1424  1379  1378   ar
  1425  2807  2810   ar
  1426  2807  2806   ar
  1427  2818  2819    1
  1428  2818  2816    1
  1429  2088  2106    1
  1430  2088  2090    1
  1431  1337  1335   ar
  1432   849   847    1
  1433  1370  1369    1
  1434  1369  1367    1
  1435  1369  1371    1
  1436  1419  1420    1
  1437  2103  2102    2
  1438  2804  2803    1
  1439  2803  2805   ar
  1440  1261  1260    1
  1441  1307  1318    1
  1442  2810  2811   ar
  1443  2709  2714    1
  1444   832   830    1
  1445   832   834    1
  1446   856   867    1
  1447  2707  2705    1
  1448  2104  2102   ar
  1449  2104  2105   ar
  1450  1396  1391    1
  1451   847   869    1
  1452  1089  1088    1
  1453  1330  1331    1
  1454  2752  2751    1
  1455  2817  2816    1
  1456  2817  2815    1
  1457  1087  1092    1
  1458  1345  1350    1
  1459   828   830    1
  1460   828   829    1
  1461   828   826    1
  1462  2714  2724    1
  1463  1074  1075    2
  1464  1074  1076   ar
  1465  1088  1090    1
  1466  1348  1350    1
  1467  1348  1349    1
  1468  1279  1284    1
  1469  2786  2785    1
  1470  1331  1332   ar
  1471  2102  2101   ar
  1472  1917  1922    1
  1473  2705  2688    1
  1474  2705  2726    1
  1475  1384  1378   ar
  1476  1384  1373    1
  1477  1367  1368    1
  1478   834   829    1
  1479   834   844    1
  1480  1317  1318   ar
  1481  1317  1316   ar
  1482  1922  1923    1
  1483  2791  2770    2
  1484  2105  2098   ar
  1485  1263  1262    1
  1486  2806  2805   ar
  1487  2806  2812   ar
  1488  1361  1350    1
  1489  1361  1355   ar
  1490  2815  2833    1
  1491  2815  2798    1
  1492  1388  1390    1
  1493  1318  1312   ar
  1494  1374  1375   ar
  1495  1378  1377   ar
  1496  1390  1391    1
  1497  1284  1295    1
  1498  2766  2764   ar
  1499  2766  2767   ar
  1500  2765  2764    1
  1501  2090  2089    1
  1502  1356  1357   ar
  1503  1356  1355   ar
  1504  1100  1099   ar
  1505  1100  1093   ar
  1506  1105  1104    1
  1507  1335  1336    1
  1508  1335  1334   ar
  1509  1368  1373    1
  1510    59    58    2
  1511  1371  1373    1
  1512  1371  1372    1
  1513  2811  2812   ar
  1514  1358  1357    2
  1515  2751  2753    1
  1516  1077  1076   ar
  1517  1077  1078    2
  1518   860   858   ar
  1519   860   861   ar
  1520   826   827    1
  1521  1099  1097   ar
  1522  2688  2687    1
  1523   859   858    1
  1524  1420  1427   ar
  1525  1420  1421   ar
  1526  2690  2689    1
  1527  1260  1262    1
  1528  1260  1258    1
  1529  1357  1351   ar
  1530  2101  2099   ar
  1531  2812  2801    1
  1532   837   836   ar
  1533   837   838   ar
  1534   867   861   ar
  1535   867   866   ar
  1536  1316  1313   ar
  1537  1355  1354   ar
  1538  1332  1334   ar
  1539  1332  1333    2
  1540  2764  2763   ar
  1541  2785  2784   ar
  1542  2785  2780   ar
  1543  2092  2097    1
  1544  2092  2091    1
  1545  2089  2091    1
  1546  2767  2760   ar
  1547  1262  1264    1
  1548  1092  1090    1
  1549  1092  1093    1
  1550  2724  2723   ar
  1551  2724  2718   ar
  1552  1427  1426   ar
  1553  2098  2099   ar
  1554  2098  2097    1
  1555  2787  2784   ar
  1556  2787  2788   ar
  1557  1273  1255    2
  1558  1104  1106    1
  1559  1375  1377   ar
  1560  1375  1376    1
  1561  1090  1091    1
  1562   814   813    1
  1563  1312  1313   ar
  1564  1312  1311   ar
  1565  2814  2792    2
  1566  1295  1294   ar
  1567  1295  1289   ar
  1568  2799  2797    1
  1569  2799  2801    1
  1570  2799  2800    1
  1571  1093  1094   ar
  1572   858   857   ar
  1573    58    52   ar
  1574    58    57   ar
  1575   861   862   ar
  1576  1923  1924   ar
  1577  1923  1930   ar
  1578   844   838   ar
  1579   844   843   ar
  1580  2784  2783   ar
  1581  1925  1924    2
  1582  2099  2100    2
  1583  2770  2790    1
  1584  2770  2756    1
  1585  2770  2772    1
  1586  2797  2798    1
  1587  2797  2795    1
  1588  2780  2781   ar
  1589   810   809    1
  1590   836   835   ar
  1591  2723  2722   ar
  1592  1422  1421    2
  1593    52    53   ar
  1594  1294  1293   ar
  1595  1258  1256    1
  1596  1258  1259    1
  1597  1313  1314   ar
  1598  2097  2095    1
  1599   731   730    1
  1600  1311  1309   ar
  1601   838   839   ar
  1602  2717  2718   ar
  1603  2717  2716   ar
  1604  2689  2687    1
  1605  2689  2691    1
  1606  2091  2093    1
  1607  1421  1423   ar
  1608  2125  2124    2
  1609  2753  2755    1
  1610  2753  2754    1
  1611  2755  2756    1
  1612  2755  2757    1
  1613  2801  2796    1
  1614  2718  2719   ar
  1615  2687  2685    1
  1616  1351  1352   ar
  1617   827   825    1
  1618    64    42    2
  1619  2788  2789   ar
  1620  1354  1352   ar
  1621  1924  1926   ar
  1622  1097  1098    1
  1623  1097  1096   ar
  1624   866   865   ar
  1625  1930  1929   ar
  1626  1256  1257    1
  1627  2763  2761   ar
  1628    80    79    1
  1629  1289  1288   ar
  1630  1289  1290   ar
  1631  2760  2761   ar
  1632  2760  2759    1
  1633  1288  1286   ar
  1634  2794  2792    1
  1635  2794  2793    1
  1636    57    60   ar
  1637    57    56   ar
  1638  1426  1424   ar
  1639  2754  2759    1
  1640  1122  1121   ar
  1641  1122  1123   ar
  1642  2772  2771    1
  1643    60    61   ar
  1644   813   815   ar
  1645   813   812   ar
  1646  1264  1259    1
  1647  1264  1265    1
  1648  1352  1353    1
  1649  1121  1118   ar
  1650  1255  1257    1
  1651  1255  1274    1
  1652  1255  1241    1
  1653  2792  2813    1
  1654  2792  2776    1
  1655   815   816   ar
  1656  1293  1290   ar
  1657  1106  1107    1
  1658  1106  1108    1
  1659  2783  2789   ar
  1660  2783  2782   ar
  1661  2685  2683    1
  1662  2685  2686    1
  1663    53    54    1
  1664    53    55   ar
  1665    63    42    1
  1666   843   842   ar
  1667    28    27    1
  1668   725   730   ar
  1669   725   726   ar
  1670  2781  2782   ar
  1671  1107  1112    1
  1672   845   825    2
  1673  1094  1096   ar
  1674  1094  1095    2
  1675   172   171    1
  1676   730   729   ar
  1677   857   863   ar
  1678  1309  1308   ar
  1679  1309  1310    1
  1680  1314  1308   ar
  1681  1314  1315    2
  1682  2796  2795    1
  1683  1267  1266    2
  1684  2722  2719   ar
  1685   809   811    1
  1686   809   807    1
  1687   862   865   ar
  1688   862   863   ar
  1689  2124  2123   ar
  1690  2124  2118   ar
  1691  2761  2762    2
  1692  2716  2715   ar
  1693   168   167    1
  1694  2795  2793    1
  1695   835   840   ar
  1696  2093  2095    1
  1697  2093  2094    1
  1698  1290  1291   ar
  1699  2789  2779    1
  1700    42    44    1
  1701    42    26    1
  1702  2719  2720   ar
  1703  2759  2757    1
  1704  2126  2123   ar
  1705  2126  2127   ar
  1706  1423  1424   ar
  1707  2757  2758    1
  1708   825   808    1
  1709   825   846    1
  1710   839   842   ar
  1711   839   840   ar
  1712  2095  2096    1
  1713   808   807    1
  1714  2691  2686    1
  1715  2691  2702    1
  1716  1286  1287    1
  1717  1286  1285   ar
  1718    79    78   ar
  1719    79    81   ar
  1720  1926  1927   ar
  1721  1929  1927   ar
  1722   102   101    2
  1723   173   171   ar
  1724   173   174   ar
  1725    56    55   ar
  1726    56    62   ar
  1727   790   791   ar
  1728   790   795   ar
  1729    44    43    1
  1730  2683  2684    1
  1731  2123  2122   ar
  1732  2118  2119   ar
  1733  1265  1266   ar
  1734  1265  1272   ar
  1735   171   170   ar
  1736  1424  1425    2
  1737   811   806    1
  1738   811   822    1
  1739  2775  2776    1
  1740  2775  2777    1
  1741  2775  2773    1
  1742   169   164    1
  1743   169   167    1
  1744   169   180    1
  1745  1266  1268   ar
  1746    78    76   ar
  1747    61    62   ar
  1748   791   792   ar
  1749  1147  1126    2
  1750  1241  1240    1
  1751   812   818   ar
  1752   863   864    2
  1753    95   101   ar
  1754    95    96   ar
  1755  1108  1109    1
  1756  1108  1110    1
  1757  2143  2142    1
  1758  1123  1112    1
  1759  1123  1117   ar
  1760   726   727   ar
  1761    97    96    1
  1762   840   841    1
  1763   164   163    1
  1764   807   805    1
  1765  2771  2773    1
  1766  2141  2142   ar
  1767  2141  2147   ar
  1768    30    31   ar
  1769    30    35   ar
  1770    31    32   ar
  1771    27    25    1
  1772    27    29    1
  1773  2148  2147    2
  1774   729   732   ar
  1775   729   728   ar
  1776   816   822   ar
  1777   816   817   ar
  1778  2777  2779    1
  1779  2777  2778    1
  1780  1118  1117   ar
  1781  1118  1119   ar
  1782   101   100   ar
  1783  1112  1110    1
  1784  1927  1928    2
  1785   167   165    1
  1786  1291  1285   ar
  1787  1291  1292    2
  1788  2127  2128   ar
  1789    81    82   ar
  1790  2715  2720   ar
  1791  1109  1126    1
  1792  2720  2721    1
  1793    62    51    1
  1794   174   180   ar
  1795   174   175   ar
  1796    32    33   ar
  1797    36    35    1
  1798  2779  2774    1
  1799    35    34   ar
  1800  2094  2108    1
  1801    96    98   ar
  1802  1120  1119    2
  1803   180   179   ar
  1804  1272  1271   ar
  1805   732   733   ar
  1806   796   795    1
  1807   170   176   ar
  1808  2702  2696   ar
  1809  2702  2701   ar
  1810  2695  2696   ar
  1811  2695  2693   ar
  1812  2130  2108    2
  1813   805   806    1
  1814   805   803    1
  1815   822   821   ar
  1816  2684  2682    1
  1817  2142  2144   ar
  1818  1268  1269   ar
  1819    26    25    1
  1820  2773  2774    1
  1821    33    34   ar
  1822    33    39   ar
  1823  2147  2146   ar
  1824   795   794   ar
  1825    34    37   ar
  1826  2122  2128   ar
  1827  2122  2121   ar
  1828  2119  2120    1
  1829  2119  2121   ar
  1830  1126  1146    1
  1831  1126  1128    1
  1832    76    77    2
  1833    76    75   ar
  1834   163   165    1
  1835   163   161    1
  1836  1117  1116   ar
  1837  1119  1113   ar
  1838    43    45    1
  1839  2694  2693    1
  1840   792   793   ar
  1841   187   186    1
  1842   187   192    1
  1843  1205  1204    2
  1844    25    23    1
  1845    39    29    1
  1846    39    38   ar
  1847  1110  1111    1
  1848  2696  2697   ar
  1849    29    24    1
  1850    37    38   ar
  1851   727   728   ar
  1852  2128  2117    1
  1853   728   734   ar
  1854    46    51    1
  1855    46    45    1
  1856   818   817   ar
  1857   818   819    2
  1858  1243  1242    1
  1859   175   176   ar
  1860   175   178   ar
  1861  2693  2692   ar
  1862  1240  1238    1
  1863  1240  1242    1
  1864   186   184    1
  1865   186   188    1
  1866   100    99   ar
  1867   100   103   ar
  1868    82    75   ar
  1869   156   155    1
  1870   774   773    2
  1871  2701  2700   ar
  1872   817   820   ar
  1873  2703  2682    2
  1874  1271  1269   ar
  1875   176   177    2
  1876   157   155    1
  1877   157   152    1
  1878  1269  1270    1
  1879   179   178   ar
  1880   191   190    1
  1881   165   166    1
  1882   120   119    2
  1883  2108  2110    1
  1884  2108  2129    1
  1885   184   185    1
  1886    98    99   ar
  1887   140   139    2
  1888    51    49    1
  1889    75    74    1
  1890   121   119   ar
  1891   121   122   ar
  1892   192   190    1
  1893   192   203    1
  1894   166   183    1
  1895   733   734   ar
  1896   155   153    1
  1897  1224  1223   ar
  1898  1224  1225   ar
  1899  2144  2145   ar
  1900  1238  1239    1
  1901  1238  1236    1
  1902    99   105   ar
  1903  2682  2704    1
  1904  2682  2666    1
  1905    45    47    1
  1906   123   122    1
  1907  2146  2145   ar
  1908  2146  2149   ar
  1909  1234  1213    2
  1910  2112  2117    1
  1911  2112  2111    1
  1912  1223  1228   ar
  1913   803   804    1
  1914   161   162    1
  1915   103   104   ar
  1916  1217  1216    1
  1917  1217  1222    1
  1918   821   820   ar
  1919   794   793   ar
  1920   794   797   ar
  1921   793   799   ar
  1922   119   118   ar
  1923   767   773   ar
  1924   767   768   ar
  1925  1225  1226   ar
  1926  1242  1244    1
  1927  2110  2109    1
  1928  1204  1206   ar
  1929  1204  1203   ar
  1930  2697  2700   ar
  1931  2697  2698   ar
  1932  2117  2115    1
  1933   752   751    1
  1934  1247  1246    2
  1935  1143  1144   ar
  1936  1143  1140   ar
  1937   734   724    1
  1938  1206  1207   ar
  1939  1142  1141    1
  1940  1181  1182   ar
  1941  1181  1186   ar
  1942  1128  1127    1
  1943  1116  1114   ar
  1944   139   141   ar
  1945   139   138   ar
  1946   141   142   ar
  1947   773   772   ar
  1948  1113  1114   ar
  1949   122   124   ar
  1950  2692  2698   ar
  1951  2145  2151   ar
  1952   190   188    1
  1953  1239  1244    1
  1954  1244  1245    1
  1955  2668  2667    1
  1956    24    23    1
  1957  1201  1200    1
  1958  1216  1214    1
  1959  1216  1218    1
  1960    23    21    1
  1961  1228  1229    1
  1962  1228  1227   ar
  1963   152   151    1
  1964   185   183    1
  1965   188   189    1
  1966    49    47    1
  1967    49    50    1
  1968   769   768    1
  1969  1226  1227   ar
  1970  1226  1232   ar
  1971   203   202   ar
  1972   203   197   ar
  1973  1182  1183   ar
  1974   189   206    1
  1975  1187  1186    1
  1976  1144  1145   ar
  1977    74    69    1
  1978    74    72    1
  1979  2666  2665    1
  1980  1214  1215    1
  1981  2149  2150   ar
  1982  2698  2699    2
  1983  1236  1237    1
  1984   105   104   ar
  1985   105    94    1
  1986  1227  1230   ar
  1987   204   183    2
  1988   183   205    1
  1989  1114  1115    1
  1990   804   802    1
  1991   162   160    1
  1992  2109  2111    1
  1993  1222  1232    1
  1994  1222  1220    1
  1995    47    48    1
  1996   768   770   ar
  1997  2667  2665    1
  1998  2667  2669    1
  1999  1232  1231   ar
  2000   202   201   ar
  2001   143   142    1
  2002    21    22    1
  2003   142   144   ar
  2004   137   138    1
  2005   137   132    1
  2006   137   135    1
  2007  1202  1203    1
  2008  1202  1200    1
  2009  1202  1197    1
  2010  1186  1185   ar
  2011   138   145   ar
  2012   118   117    1
  2013   118   125   ar
  2014  1213  1233    1
  2015  1213  1215    1
  2016  1213  1199    1
  2017  1140  1141   ar
  2018  1140  1139   ar
  2019  2111  2113    1
  2020    69    68    1
  2021  1246  1245   ar
  2022  1246  1248   ar
  2023  1141  1136   ar
  2024   196   197   ar
  2025   196   194   ar
  2026  1203  1210   ar
  2027   153   151    1
  2028   153   154    1
  2029   797   798   ar
  2030  1219  1218    1
  2031  1219  1235    1
  2032  2671  2672   ar
  2033  2671  2670   ar
  2034   136   135    1
  2035   197   198   ar
  2036   799   789    1
  2037   799   798   ar
  2038  1207  1208    1
  2039  1207  1209   ar
  2040  1127  1129    1
  2041   724   722    1
  2042   724   719    1
  2043  2672  2673   ar
  2044   751   750   ar
  2045   751   753   ar
  2046  1230  1231   ar
  2047   124   125   ar
  2048   132   131    1
  2049  2151  2150   ar
  2050  2151  2140    1
  2051  1245  1252   ar
  2052   117   115    1
  2053   117   112    1
  2054  2115  2113    1
  2055  2115  2116    1
  2056  2665  2663    1
  2057   158   148    2
  2058  1200  1198    1
  2059   736   715    2
  2060   787   788    1
  2061   787   789    1
  2062   787   785    1
  2063   700   699    1
  2064   151   149    1
  2065   772   775   ar
  2066   772   771   ar
  2067  1218  1220    1
  2068    41    20    2
  2069    94    89    1
  2070    94    92    1
  2071   704   703    1
  2072  1237  1235    1
  2073    11    12   ar
  2074    11    10   ar
  2075    12    13   ar
  2076  1197  1196    1
  2077   154   160    1
  2078   789   784    1
  2079  1183  1184   ar
  2080    72    70    1
  2081    72    73    1
  2082   723   722    1
  2083  2113  2114    1
  2084   750   748   ar
  2085   201   198   ar
  2086   226   206    2
  2087  2670  2675   ar
  2088   145   144   ar
  2089   116   115    1
  2090   194   195    1
  2091   194   193   ar
  2092   135   133    1
  2093   563   545    2
  2094  1145  1139   ar
  2095  1145  1135    1
  2096     4     9    1
  2097     4     3    1
  2098   206   227    1
  2099   206   208    1
  2100   722   720    1
  2101   198   199   ar
  2102  1254  1235    2
  2103  1220  1221    1
  2104   719   718    1
  2105   207   208    1
  2106   207   209    1
  2107    48    65    1
  2108   753   754   ar
  2109  2140  2135    1
  2110  2140  2138    1
  2111   770   771   ar
  2112  2673  2679   ar
  2113  2673  2674   ar
  2114   775   776   ar
  2115   160   181    2
  2116   160   182    1
  2117  2669  2679    1
  2118  2669  2664    1
  2119   115   113    1
  2120  1198  1199    1
  2121  1198  1196    1
  2122    22    20    1
  2123  1248  1249   ar
  2124  1235  1253    1
  2125     9    19    1
  2126     9     7    1
  2127  1139  1138   ar
  2128     8     7    1
  2129   112   111    1
  2130  1130  1129    1
  2131  1130  1135    1
  2132    89    88    1
  2133  1170  1148    2
  2134   131   133    1
  2135   131   129    1
  2136  2135  2134    1
  2137  1136  1137   ar
  2138   802   823    2
  2139   802   786    1
  2140   802   824    1
  2141   717   715    1
  2142   717   716    1
  2143  1210  1209   ar
  2144  1185  1184   ar
  2145  1185  1188   ar
  2146    67    66    1
  2147    67    65    1
  2148    68    66    1
  2149    68    70    1
  2150    10    15   ar
  2151   771   777   ar
  2152   699   697    1
  2153   699   701    1
  2154  1129  1131    1
  2155     3     1    1
  2156     3     5    1
  2157   698   715    1
  2158   698   697    1
  2159    70    71    1
  2160   703   705   ar
  2161   703   702   ar
  2162   715   735    1
  2163    13    19   ar
  2164    13    14   ar
  2165  2679  2678   ar
  2166    92    93    1
  2167    92    90    1
  2168  1196  1194    1
  2169  1184  1190   ar
  2170   785   786    1
  2171   785   783    1
  2172   705   706   ar
  2173  1131  1132    1
  2174  1131  1133    1
  2175    20    40    1
  2176    20     6    1
  2177  1252  1251   ar
  2178    83    65    2
  2179   210   209    1
  2180   210   215    1
  2181   150   149    1
  2182   150   148    1
  2183   193   199   ar
  2184  2675  2674   ar
  2185  2675  2676    1
  2186  2663  2664    1
  2187  2663  2661    1
  2188   148   134    1
  2189   148   159    1
  2190   199   200    2
  2191    19    18   ar
  2192   543   525    2
  2193  1169  1148    1
  2194  2674  2677   ar
  2195  1135  1133    1
  2196   209   211    1
  2197     1     2    1
  2198    65    84    1
  2199   133   134    1
  2200     7     5    1
  2201   748   749    2
  2202   748   747   ar
  2203   784   783    1
  2204  2114  2131    1
  2205  1148  1132    1
  2206  1148  1150    1
  2207   129   130    1
  2208   697   695    1
  2209   531   545    1
  2210   531   530    1
  2211    15    14   ar
  2212    15    16    1
  2213  2139  2138    1
  2214   545   547    1
  2215   545   564    1
  2216   718   716    1
  2217   718   720    1
  2218   702   708   ar
  2219    14    17   ar
  2220  1137  1138   ar
  2221   546   547    1
  2222   546   548    1
  2223   720   721    1
  2224   776   777   ar
  2225   701   712    1
  2226   701   696    1
  2227   526   528    1
  2228   526   527    1
  2229   754   747   ar
  2230  2678  2677   ar
  2231  2138  2136    1
  2232  1188  1189   ar
  2233  1249  1251   ar
  2234  1249  1250    2
  2235  1133  1134    1
  2236   111   113    1
  2237   111   109    1
  2238     5     6    1
  2239   224   223   ar
  2240   224   225   ar
  2241   777   766    1
  2242   113   114    1
  2243   706   712   ar
  2244   706   707   ar
  2245   107    85    2
  2246   583   565    2
  2247  2134  2132    1
  2248  2134  2136    1
  2249  2153  2131    2
  2250    88    90    1
  2251    88    86    1
  2252  2661  2662    1
  2253    87    86    1
  2254    87    85    1
  2255   783   781    1
  2256    90    91    1
  2257    18    17   ar
  2258  2176  2177   ar
  2259  2176  2181   ar
  2260    71    85    1
  2261   215   225    1
  2262   215   213    1
  2263   528   530    1
  2264   528   529    1
  2265  2133  2131    1
  2266  2133  2132    1
  2267   130   128    1
  2268   747   746    1
  2269  1190  1189   ar
  2270  1190  1180    1
  2271  1194  1195    1
  2272   712   711   ar
  2273   223   220   ar
  2274  2182  2181    1
  2275  2131  2152    1
  2276   511   525    1
  2277   511   510    1
  2278   525   527    1
  2279   525   544    1
  2280  2177  2178   ar
  2281   225   219   ar
  2282   695   696    1
  2283   695   693    1
  2284   721   737    1
  2285  1195  1193    1
  2286    85   106    1
  2287   584   565    1
  2288  2136  2137    1
  2289   530   532    1
  2290   708   707   ar
  2291   708   709    2
  2292   551   565    1
  2293   551   550    1
  2294   211   212    1
  2295   211   213    1
  2296   513   512    1
  2297   548   550    1
  2298   548   549    1
  2299   533   532    1
  2300  2181  2180   ar
  2301   114   128    1
  2302   707   710   ar
  2303   565   567    1
  2304   110   109    1
  2305   110   108    1
  2306  1150  1149    1
  2307  1178  1180    1
  2308  1178  1179    1
  2309  1178  1176    1
  2310   782   781    1
  2311   782   780    1
  2312  1180  1175    1
  2313   766   764    1
  2314   766   761    1
  2315  2137  2154    1
  2316   212   228    1
  2317  1149  1151    1
  2318  2662  2660    1
  2319   213   214    1
  2320    91   108    1
  2321   220   219   ar
  2322   220   221   ar
  2323  2164  2154    2
  2324  2178  2179   ar
  2325   764   762    1
  2326   764   765    1
  2327   529   534    1
  2328   711   710   ar
  2329   219   218   ar
  2330   128   147    2
  2331   128   146    1
  2332   550   552    1
  2333   127   108    2
  2334   801   780    2
  2335   532   534    1
  2336  2680  2660    2
  2337   508   510    1
  2338   508   506    1
  2339   508   509    1
  2340   510   512    1
  2341   746   741    1
  2342   746   744    1
  2343  2180  2179   ar
  2344  2180  2183   ar
  2345   108   126    1
  2346  1192  1171    2
  2347   549   554    1
  2348   693   694    1
  2349   512   514    1
  2350  2179  2185   ar
  2351  1212  1193    2
  2352   762   763    1
  2353   762   760    1
  2354   506   507    1
  2355  1176  1177    1
  2356  1176  1174    1
  2357   247   228    2
  2358   739   737    1
  2359   739   738    1
  2360  1193  1177    1
  2361  1193  1211    1
  2362  2198  2199   ar
  2363  2198  2203   ar
  2364   737   755    2
  2365   737   756    1
  2366  2199  2200   ar
  2367   684   683    2
  2368   780   763    1
  2369   780   800    1
  2370   534   535    1
  2371  2154  2156    1
  2372  2154  2165    1
  2373   761   760    1
  2374  1160  1159    1
  2375   221   222    1
  2376   221   216   ar
  2377   685   683   ar
  2378   685   686   ar
  2379   687   686    2
  2380  2660  2681    1
  2381  2660  2646    1
  2382   779   757    2
  2383   218   217   ar
  2384   741   740    1
  2385   567   566    1
  2386   744   742    1
  2387   744   745    1
  2388   228   246    1
  2389   228   230    1
  2390   694   692    1
  2391  1175  1174    1
  2392   553   552    1
  2393  2183  2184   ar
  2394   509   514    1
  2395   523   505    2
  2396  1151  1152    1
  2397  1151  1153    1
  2398   683   682   ar
  2399   552   554    1
  2400   566   568    1
  2401   686   688   ar
  2402  2221  2220   ar
  2403  2221  2222   ar
  2404   742   740    1
  2405   742   743    1
  2406   514   515    1
  2407  2156  2155    1
  2408  1173  1171    1
  2409  1173  1172    1
  2410  2204  2203    1
  2411  2185  2184   ar
  2412  2185  2175    1
  2413   760   758    1
  2414  2200  2201   ar
  2415  2203  2202   ar
  2416   554   555    1
  2417   606   585    2
  2418   217   216   ar
  2419  2648  2647    1
  2420  1174  1172    1
  2421  1171  1191    1
  2422  1171  1154    1
  2423  1159  1161   ar
  2424  1159  1158   ar
  2425   507   505    1
  2426  2220  2225   ar
  2427  1152  1157    1
  2428   740   738    1
  2429   758   759    1
  2430  2646  2645    1
  2431  2175  2170    1
  2432  2175  2173    1
  2433  2222  2223   ar
  2434   605   585    1
  2435   490   489    1
  2436   535   542   ar
  2437   535   536   ar
  2438  1161  1162   ar
  2439   244   245   ar
  2440   244   242   ar
  2441  1153  1154    1
  2442  1153  1155    1
  2443  2170  2169    1
  2444  1158  1164   ar
  2445   405   404    1
  2446   230   229    1
  2447   757   743    1
  2448   757   759    1
  2449   757   778    1
  2450   505   488    1
  2451   505   524    1
  2452  2201  2202   ar
  2453  2201  2207   ar
  2454   562   555   ar
  2455   562   561   ar
  2456   437   417    2
  2457  2647  2645    1
  2458  2647  2649    1
  2459   542   541   ar
  2460   385   384    1
  2461   243   242    1
  2462  2202  2205   ar
  2463   680   679    1
  2464   692   713    2
  2465   692   714    1
  2466   692   678    1
  2467   679   681    1
  2468   679   677    1
  2469   667   666    2
  2470   585   571    1
  2471   585   587    1
  2472   682   681    1
  2473   682   689   ar
  2474   400   398    1
  2475   400   401    1
  2476   400   402    1
  2477   245   238   ar
  2478   403   402    1
  2479   403   417    1
  2480   555   556   ar
  2481   488   487    1
  2482   688   689   ar
  2483   398   399    1
  2484  2155  2157    1
  2485   517   516    2
  2486   229   231    1
  2487   242   241   ar
  2488   568   570    1
  2489   568   569    1
  2490  2652  2651    2
  2491   515   516   ar
  2492   515   522   ar
  2493   537   536    2
  2494  2225  2226    1
  2495  2225  2224   ar
  2496  2645  2643    1
  2497   571   570    1
  2498  1162  1163   ar
  2499  1162  1168   ar
  2500  2223  2224   ar
  2501  2223  2229   ar
  2502  1164  1165    2
  2503  1164  1163   ar
  2504   536   538   ar
  2505   401   406    1
  2506  2174  2173    1
  2507   681   676    1
  2508  1157  1155    1
  2509  1157  1168    1
  2510   232   231    1
  2511   232   237    1
  2512   570   572    1
  2513  2173  2171    1
  2514   561   559   ar
  2515   402   404    1
  2516  2207  2197    1
  2517  2207  2206   ar
  2518   489   487    1
  2519   489   491    1
  2520  2160  2159    1
  2521  2160  2166    1
  2522   646   645    2
  2523   417   419    1
  2524   417   438    1
  2525   678   677    1
  2526  2205  2206   ar
  2527   404   406    1
  2528  1155  1156    1
  2529   516   518   ar
  2530   677   675    1
  2531  2169  2167    1
  2532  2169  2171    1
  2533  1163  1166   ar
  2534   666   665   ar
  2535   666   668   ar
  2536  1168  1167   ar
  2537  2197  2192    1
  2538  2197  2195    1
  2539  2224  2227   ar
  2540   569   574    1
  2541   541   539   ar
  2542   238   237    1
  2543   238   239   ar
  2544   522   521   ar
  2545   418   419    1
  2546   418   420    1
  2547  2159  2157    1
  2548  2159  2161    1
  2549  2649  2650    1
  2550  2649  2644    1
  2551   406   407    1
  2552  2651  2650   ar
  2553  2651  2653   ar
  2554   415   397    2
  2555   665   663   ar
  2556   582   581   ar
  2557   582   575   ar
  2558   487   485    1
  2559   581   579   ar
  2560   384   386    1
  2561   384   382    1
  2562   383   382    1
  2563   383   397    1
  2564  2157  2158    1
  2565   231   233    1
  2566   241   239   ar
  2567   494   493    1
  2568   587   586    1
  2569  2219  2229    1
  2570  2219  2214    1
  2571  2219  2217    1
  2572   366   365    1
  2573   556   557    2
  2574   556   558   ar
  2575  2229  2228   ar
  2576  2218  2217    1
  2577  2167  2168    1
  2578  2168  2166    1
  2579   399   397    1
  2580  2643  2644    1
  2581  2643  2641    1
  2582   380   381    1
  2583   380   382    1
  2584   380   378    1
  2585   386   381    1
  2586   386   387    1
  2587   237   235    1
  2588  2196  2195    1
  2589  2650  2657   ar
  2590  2653  2654   ar
  2591   485   486    1
  2592   485   483    1
  2593  2187  2166    2
  2594  2192  2191    1
  2595  2171  2172    1
  2596   239   240    2
  2597   538   539   ar
  2598   389   388    2
  2599   491   486    1
  2600   491   502    1
  2601   397   416    1
  2602  1166  1167   ar
  2603  2166  2186    1
  2604   628   607    2
  2605   495   493   ar
  2606   495   496   ar
  2607  2161  2162    1
  2608  2161  2163    1
  2609  2195  2193    1
  2610   676   675    1
  2611   645   639   ar
  2612   645   644   ar
  2613  2214  2213    1
  2614  2217  2215    1
  2615   420   421    1
  2616   420   422    1
  2617   559   558   ar
  2618   559   560    2
  2619   668   669   ar
  2620   539   540    2
  2621   518   519   ar
  2622  2227  2228   ar
  2623   572   574    1
  2624   572   573    1
  2625   675   673    1
  2626   574   575    1
  2627   493   492   ar
  2628   663   664    2
  2629   663   662   ar
  2630   575   576   ar
  2631   378   379    1
  2632   233   235    1
  2633   233   234    1
  2634   521   519   ar
  2635   586   588    1
  2636   362   361    1
  2637   579   580    2
  2638   579   578   ar
  2639  2158  2163    1
  2640  2641  2642    1
  2641   639   640   ar
  2642   407   414   ar
  2643   407   408   ar
  2644   602   603   ar
  2645   602   599   ar
  2646   647   644   ar
  2647   647   648   ar
  2648   365   367   ar
  2649   365   364   ar
  2650  2657  2656   ar
  2651  2654  2655    2
  2652  2654  2656   ar
  2653   421   426    1
  2654   409   408    2
  2655   483   484    1
  2656   644   643   ar
  2657   367   368   ar
  2658   603   604   ar
  2659   263   262    2
  2660   387   388   ar
  2661   387   394   ar
  2662  2240  2239    1
  2663   235   236    1
  2664  2172  2188    1
  2665   388   390   ar
  2666   423   422    1
  2667   423   439    1
  2668   519   520    1
  2669  2628  2629   ar
  2670  2628  2633   ar
  2671   674   673    1
  2672   674   672    1
  2673  2629  2630   ar
  2674   623   622    1
  2675   496   502   ar
  2676   496   497   ar
  2677   502   501   ar
  2678  2191  2193    1
  2679  2191  2189    1
  2680  2236  2241    1
  2681  2236  2235    1
  2682   457   439    2
  2683  2213  2215    1
  2684  2213  2211    1
  2685   627   607    1
  2686   607   591    1
  2687   607   609    1
  2688   669   662   ar
  2689  2241  2239    1
  2690  2241  2251    1
  2691   414   413   ar
  2692   422   424    1
  2693  2642  2640    1
  2694   408   410   ar
  2695  2193  2194    1
  2696   662   661    1
  2697   234   248    1
  2698   691   672    2
  2699   601   600    1
  2700  2215  2216    1
  2701   267   248    2
  2702   492   498   ar
  2703  2190  2189    1
  2704  2190  2188    1
  2705  2235  2233    1
  2706  2235  2237    1
  2707   624   625   ar
  2708   624   621   ar
  2709   576   578   ar
  2710   576   577    2
  2711   364   370   ar
  2712   361   363    1
  2713   361   359    1
  2714   264   262   ar
  2715   264   265   ar
  2716   590   588    1
  2717   590   591    1
  2718   590   592    1
  2719   588   589    1
  2720   379   377    1
  2721   648   649   ar
  2722   262   261   ar
  2723  2634  2633    1
  2724  2630  2631   ar
  2725   484   482    1
  2726  2633  2632   ar
  2727   599   600   ar
  2728   599   598   ar
  2729   439   458    1
  2730   439   441    1
  2731   640   641    1
  2732   640   642   ar
  2733  2239  2237    1
  2734   425   424    1
  2735  2233  2234    1
  2736   671   652    2
  2737   363   374    1
  2738   363   358    1
  2739   426   424    1
  2740   426   436    1
  2741   343   342   ar
  2742   343   344   ar
  2743   672   690    1
  2744   672   658    1
  2745  2244  2245   ar
  2746  2244  2243   ar
  2747   394   393   ar
  2748  2507  2489    2
  2749  2188  2209    2
  2750  2188  2208    1
  2751   589   594    1
  2752   390   391   ar
  2753   643   649   ar
  2754   643   642   ar
  2755  2216  2232    1
  2756  2251  2245   ar
  2757  2251  2250   ar
  2758   368   374   ar
  2759   368   369   ar
  2760   622   621   ar
  2761   622   617   ar
  2762   604   598   ar
  2763   604   594    1
  2764   471   470    1
  2765   600   595   ar
  2766  2211  2212    1
  2767   609   608    1
  2768  2658  2640    2
  2769   651   629    2
  2770   501   500   ar
  2771   248   266    1
  2772   248   250    1
  2773   497   498   ar
  2774   497   500   ar
  2775   625   626   ar
  2776   342   347   ar
  2777   659   661    1
  2778   659   657    1
  2779   659   660    1
  2780  2194  2210    1
  2781   621   620   ar
  2782  2245  2246   ar
  2783   395   377    2
  2784   360   377    1
  2785   360   359    1
  2786  2640  2659    1
  2787  2640  2624    1
  2788   661   656    1
  2789   413   411   ar
  2790   435   436   ar
  2791   435   434   ar
  2792  2237  2238    1
  2793   498   499    2
  2794   410   411   ar
  2795  2243  2242   ar
  2796  2631  2632   ar
  2797  2631  2637   ar
  2798   265   258   ar
  2799   649   638    1
  2800  2632  2635   ar
  2801  2212  2210    1
  2802   374   373   ar
  2803   503   482    2
  2804  2455  2454    1
  2805  2487  2469    2
  2806   657   658    1
  2807   657   655    1
  2808   377   396    1
  2809   598   597   ar
  2810  2238  2254    1
  2811   594   592    1
  2812  2250  2249   ar
  2813   344   345   ar
  2814   359   357    1
  2815   358   357    1
  2816   592   593    1
  2817   436   430   ar
  2818   467   466    1
  2819   261   259   ar
  2820   370   369   ar
  2821   370   371    2
  2822  2234  2232    1
  2823  2626  2625    1
  2824   283   282    2
  2825   440   441    1
  2826   440   442    1
  2827   482   465    1
  2828   482   504    1
  2829  2470  2472    1
  2830  2470  2471    1
  2831   357   355    1
  2832  2625  2627    1
  2833  2625  2623    1
  2834   391   393   ar
  2835   391   392    1
  2836   369   372   ar
  2837  2475  2489    1
  2838  2475  2474    1
  2839   617   618   ar
  2840   411   412    1
  2841   250   249    1
  2842   654   652    1
  2843   654   653    1
  2844   304   303    1
  2845  2489  2508    1
  2846  2489  2491    1
  2847   320   321   ar
  2848   320   325   ar
  2849   652   670    1
  2850   652   635    1
  2851  2232  2252    2
  2852  2232  2253    1
  2853  2246  2249   ar
  2854  2246  2247   ar
  2855  2210  2231    2
  2856  2210  2230    1
  2857   470   472   ar
  2858   470   469   ar
  2859   595   596   ar
  2860  2242  2247   ar
  2861   656   655    1
  2862   434   431   ar
  2863  2530  2509    2
  2864   626   620   ar
  2865   626   616    1
  2866   608   610    1
  2867  2637  2627    1
  2868  2637  2636   ar
  2869   347   348    1
  2870   347   346   ar
  2871   620   619   ar
  2872  2453  2469    1
  2873  2453  2452    1
  2874   465   464    1
  2875  2635  2636   ar
  2876   630   632    1
  2877   630   631    1
  2878  2624  2623    1
  2879   472   473   ar
  2880   634   636    1
  2881   634   635    1
  2882   634   632    1
  2883   629   650    1
  2884   629   613    1
  2885   629   631    1
  2886   321   322   ar
  2887   258   259   ar
  2888   258   257    1
  2889  2472  2474    1
  2890  2472  2473    1
  2891   466   464    1
  2892   466   468    1
  2893  2469  2471    1
  2894  2469  2488    1
  2895   326   325    1
  2896  2627  2622    1
  2897  2454  2452    1
  2898  2454  2456    1
  2899  2247  2248    1
  2900   259   260    2
  2901   655   653    1
  2902   638   633    1
  2903   638   636    1
  2904   612   613    1
  2905   612   610    1
  2906   612   614    1
  2907  2623  2621    1
  2908  2490  2491    1
  2909  2490  2492    1
  2910   373   372   ar
  2911   597   596   ar
  2912   345   346   ar
  2913   345   351   ar
  2914   298   303   ar
  2915   298   299   ar
  2916   633   632    1
  2917   636   637    1
  2918  2272  2254    2
  2919   249   251    1
  2920   282   284   ar
  2921   282   281   ar
  2922  2254  2273    1
  2923  2254  2256    1
  2924   430   431   ar
  2925   430   429   ar
  2926   252   257    1
  2927   252   251    1
  2928  2474  2476    1
  2929   325   324   ar
  2930   469   475   ar
  2931   303   302   ar
  2932   442   443    1
  2933   442   444    1
  2934   618   619   ar
  2935   610   611    1
  2936   340   339    1
  2937   611   616    1
  2938  2477  2476    1
  2939   355   356    1
  2940  2531  2509    1
  2941   464   462    1
  2942   346   349   ar
  2943  2452  2450    1
  2944  2509  2495    1
  2945  2509  2511    1
  2946   431   432   ar
  2947   616   614    1
  2948   614   615    1
  2949  2495  2494    1
  2950   257   255    1
  2951   284   285   ar
  2952  2459  2458   ar
  2953  2459  2460   ar
  2954   443   448    1
  2955   281   279   ar
  2956  2456  2451    1
  2957  2456  2466    1
  2958   322   323   ar
  2959   468   479    1
  2960   468   463    1
  2961   473   479   ar
  2962   473   474   ar
  2963  2473  2478    1
  2964   429   428   ar
  2965   251   253    1
  2966   299   300   ar
  2967  2492  2494    1
  2968  2492  2493    1
  2969  2458  2457   ar
  2970   339   341    1
  2971   339   337    1
  2972   341   351    1
  2973   341   336    1
  2974   351   350   ar
  2975  2476  2478    1
  2976  2256  2255    1
  2977  2622  2621    1
  2978   445   444    1
  2979  2450  2451    1
  2980  2450  2448    1
  2981  2255  2257    1
  2982  2621  2619    1
  2983   356   354    1
  2984   444   446    1
  2985   462   463    1
  2986   462   460    1
  2987  2494  2496    1
  2988   324   323   ar
  2989   324   327   ar
  2990   479   478   ar
  2991   302   305   ar
  2992   302   301   ar
  2993   475   474   ar
  2994   475   476    2
  2995  2270  2271   ar
  2996  2270  2268   ar
  2997   253   255    1
  2998   253   254    1
  2999  2460  2466   ar
  3000  2460  2461   ar
  3001  2466  2465   ar
  3002  2258  2257    1
  3003  2258  2263    1
  3004   323   329   ar
  3005  2271  2264   ar
  3006  2478  2479    1
  3007   349   350   ar
  3008  2613  2612    1
  3009   474   477   ar
  3010  2457  2462   ar
  3011  2511  2510    1
  3012   432   433    1
  3013   432   427   ar
  3014   255   256    1
  3015   285   278   ar
  3016  2269  2268    1
  3017  2551  2532    2
  3018   456   455   ar
  3019   456   449   ar
  3020   279   278   ar
  3021   279   280    2
  3022  2620  2619    1
  3023  2620  2618    1
  3024   305   306   ar
  3025  2493  2498    1
  3026   428   427   ar
  3027  2257  2259    1
  3028   448   446    1
  3029   448   449    1
  3030  2268  2267   ar
  3031   300   301   ar
  3032  2639  2618    2
  3033   336   335    1
  3034  2510  2512    1
  3035   287   268    2
  3036  2611  2612   ar
  3037  2611  2609   ar
  3038  2448  2449    1
  3039   301   307   ar
  3040  2550  2532    1
  3041   337   338    1
  3042   337   335    1
  3043   455   453   ar
  3044  2264  2263    1
  3045  2264  2265   ar
  3046   446   447    1
  3047  2612  2614   ar
  3048  2461  2462   ar
  3049  2461  2464   ar
  3050   460   461    1
  3051   327   328   ar
  3052   278   277    1
  3053  2465  2464   ar
  3054   338   354    1
  3055  2462  2463    1
  3056  2263  2261    1
  3057   449   450   ar
  3058   254   268    1
  3059  2497  2496    1
  3060   478   477   ar
  3061   354   375    2
  3062   354   376    1
  3063  2496  2498    1
  3064  2532  2515    1
  3065  2532  2534    1
  3066  2618  2638    1
  3067  2618  2604    1
  3068  2479  2486   ar
  3069  2479  2480   ar
  3070  2486  2485   ar
  3071   335   333    1
  3072  2267  2265   ar
  3073   329   328   ar
  3074   329   319    1
  3075  2436  2435    1
  3076  2592  2591    2
  3077  2610  2609    2
  3078  2609  2608   ar
  3079  2265  2266    2
  3080  2515  2514    1
  3081  2498  2499    1
  3082   306   307   ar
  3083   268   270    1
  3084   268   286    1
  3085  2449  2447    1
  3086  2259  2261    1
  3087  2259  2260    1
  3088  2614  2615   ar
  3089  2506  2499   ar
  3090  2506  2505   ar
  3091  2512  2514    1
  3092  2512  2513    1
  3093   307   297    1
  3094   461   459    1
  3095  2514  2516    1
  3096   319   317    1
  3097   319   314    1
  3098   453   454    2
  3099   453   452   ar
  3100   270   269    1
  3101   277   272    1
  3102   277   275    1
  3103  2605  2606    1
  3104  2605  2603    1
  3105  2605  2607    1
  3106  2261  2262    1
  3107   450   452   ar
  3108   450   451    2
  3109  2481  2480    2
  3110  2499  2500   ar
  3111  2485  2483   ar
  3112  2435  2437   ar
  3113  2435  2434   ar
  3114  2608  2615   ar
  3115  2608  2607    1
  3116  2480  2482   ar
  3117  2591  2585   ar
  3118  2591  2590   ar
  3119   272   271    1
  3120   317   318    1
  3121   317   315    1
  3122  2432  2431    1
  3123  2505  2503   ar
  3124  2534  2533    1
  3125  2604  2603    1
  3126  2574  2552    2
  3127  2260  2274    1
  3128  2437  2438   ar
  3129   333   334    1
  3130  2603  2601    1
  3131  2585  2586   ar
  3132  2513  2518    1
  3133  2528  2527   ar
  3134  2528  2529   ar
  3135  2434  2440   ar
  3136  2467  2447    2
  3137  2607  2602    1
  3138  2293  2274    2
  3139   334   332    1
  3140   297   295    1
  3141   297   292    1
  3142  2447  2468    1
  3143  2447  2430    1
  3144   459   481    1
  3145   459   480    1
  3146  2289  2288    1
  3147   269   271    1
  3148  2527  2524   ar
  3149   314   313    1
  3150  2431  2433    1
  3151  2431  2429    1
  3152  2593  2590   ar
  3153  2593  2594   ar
  3154  2590  2589   ar
  3155   275   273    1
  3156   275   276    1
  3157  2548  2549   ar
  3158  2548  2546   ar
  3159  2533  2535    1
  3160  2482  2483   ar
  3161  2483  2484    1
  3162  2516  2518    1
  3163  2516  2517    1
  3164   271   273    1
  3165  2569  2568    2
  3166  2547  2546    2
  3167   273   274    1
  3168  2500  2501    2
  3169  2500  2502   ar
  3170  2290  2288   ar
  3171  2290  2291   ar
  3172  2274  2292    1
  3173  2274  2276    1
  3174  2438  2444   ar
  3175  2438  2439   ar
  3176  2617  2598    2
  3177   315   313    1
  3178   315   316    1
  3179   309   288    2
  3180  2503  2502   ar
  3181  2503  2504    2
  3182  2573  2552    1
  3183  2552  2538    1
  3184  2552  2554    1
  3185   295   296    1
  3186   295   293    1
  3187  2393  2392    1
  3188  2518  2529    1
  3189  2586  2587    1
  3190  2586  2588   ar
  3191  2529  2523   ar
  3192  2597  2575    2
  3193  2549  2542   ar
  3194   292   291    1
  3195  2440  2439   ar
  3196  2440  2441    2
  3197  2430  2429    1
  3198  2288  2287   ar
  3199  2546  2545   ar
  3200  2433  2444    1
  3201  2433  2428    1
  3202  2600  2598    1
  3203  2600  2599    1
  3204  2601  2602    1
  3205  2601  2599    1
  3206  2570  2567   ar
  3207  2570  2571   ar
  3208  2444  2443   ar
  3209   313   311    1
  3210  2429  2427    1
  3211  2439  2442   ar
  3212  2594  2595   ar
  3213  2538  2537    1
  3214  2370  2369    1
  3215  2589  2588   ar
  3216  2589  2595   ar
  3217  2291  2284   ar
  3218  2537  2535    1
  3219  2537  2539    1
  3220   316   332    1
  3221   332   353    2
  3222   332   352    1
  3223  2568  2567   ar
  3224  2568  2562   ar
  3225  2524  2523   ar
  3226  2524  2525   ar
  3227  2535  2536    1
  3228  2419  2418    1
  3229  2598  2616    1
  3230  2598  2581    1
  3231   293   291    1
  3232   293   294    1
  3233  2276  2275    1
  3234   290   288    1
  3235   290   289    1
  3236   274   288    1
  3237  2554  2553    1
  3238  2567  2566   ar
  3239  2523  2522   ar
  3240   288   308    1
  3241  2287  2285   ar
  3242   312   311    1
  3243   312   310    1
  3244  2310  2309    1
  3245  2392  2394   ar
  3246  2392  2391   ar
  3247  2595  2584    1
  3248  2571  2572   ar
  3249   291   289    1
  3250  2536  2541    1
  3251  2542  2541    1
  3252  2542  2543   ar
  3253   331   310    2
  3254  2545  2543   ar
  3255  2428  2427    1
  3256  2575  2596    1
  3257  2575  2577    1
  3258  2575  2558    1
  3259  2526  2525    2
  3260  2443  2442   ar
  3261  2427  2425    1
  3262  2417  2418   ar
  3263  2417  2415   ar
  3264  2562  2563   ar
  3265  2525  2519   ar
  3266  2284  2285   ar
  3267  2284  2283    1
  3268  2369  2368   ar
  3269  2369  2371   ar
  3270  2275  2277    1
  3271  2394  2395   ar
  3272  2418  2420   ar
  3273  2577  2576    1
  3274  2278  2283    1
  3275  2278  2277    1
  3276  2539  2541    1
  3277  2539  2540    1
  3278  2391  2397   ar
  3279  2285  2286    2
  3280  2368  2374   ar
  3281  2580  2581    1
  3282  2580  2582    1
  3283  2580  2578    1
  3284   294   310    1
  3285  2543  2544    2
  3286   310   330    1
  3287  2582  2584    1
  3288  2582  2583    1
  3289  2566  2572   ar
  3290  2566  2565   ar
  3291  2553  2555    1
  3292  2522  2520   ar
  3293  2416  2415    2
  3294  2572  2561    1
  3295  2309  2304   ar
  3296  2309  2308   ar
  3297  2557  2558    1
  3298  2557  2555    1
  3299  2557  2559    1
  3300  2283  2281    1
  3301  2584  2579    1
  3302  2415  2414   ar
  3303  2277  2279    1
  3304  2371  2372   ar
  3305  2563  2565   ar
  3306  2563  2564    1
  3307  2304  2305   ar
  3308  2519  2520   ar
  3309  2389  2388    1
  3310  2425  2426    1
  3311  2346  2347   ar
  3312  2346  2351   ar
  3313  2420  2421   ar
  3314  2576  2578    1
  3315  2579  2578    1
  3316  2395  2396   ar
  3317  2395  2401    1
  3318  2311  2308   ar
  3319  2311  2312   ar
  3320  2374  2375    2
  3321  2374  2373   ar
  3322  2555  2556    1
  3323  2520  2521    1
  3324  2397  2398    2
  3325  2397  2396   ar
  3326  2308  2307   ar
  3327  2559  2561    1
  3328  2559  2560    1
  3329  2426  2424    1
  3330  2352  2351    1
  3331  2347  2348   ar
  3332  2556  2561    1
  3333  2279  2281    1
  3334  2279  2280    1
  3335  2390  2401    1
  3336  2390  2388    1
  3337  2390  2385    1
  3338  2331  2330    1
  3339  2414  2421   ar
  3340  2414  2413    1
  3341  2396  2399    1
  3342  2351  2350   ar
  3343  2281  2282    1
  3344  2372  2373   ar
  3345  2372  2378   ar
  3346  2401  2400    1
  3347  2388  2386    1
  3348  2305  2306   ar
  3349  2373  2376   ar
  3350  2312  2313   ar
  3351  2411  2412    1
  3352  2411  2413    1
  3353  2411  2409    1
  3354  2307  2306   ar
  3355  2307  2313   ar
  3356  2385  2384    1
  3357  2315  2294    2
  3358  2348  2349   ar
  3359  2280  2294    1
  3360  2330  2329   ar
  3361  2330  2332   ar
  3362  2413  2408    1
  3363  2329  2327   ar
  3364  2424  2446    2
  3365  2424  2445    1
  3366  2424  2410    1
  3367  2313  2303    1
  3368  2378  2367    1
  3369  2378  2377   ar
  3370  2399  2400    1
  3371  2399  3084    1
  3372  2350  2349   ar
  3373  2350  2353   ar
  3374  2384  2386    1
  3375  2384  2382    1
  3376  2409  2410    1
  3377  2409  2407    1
  3378  2366  2365    1
  3379  2367  2365    1
  3380  2367  2362    1
  3381  2386  2387    1
  3382  2349  2355   ar
  3383  2376  2377   ar
  3384  2294  2296    1
  3385  2294  2314    1
  3386  2387  2404    1
  3387  2365  2363    1
  3388  2332  2333   ar
  3389  2327  2328    2
  3390  2327  2326   ar
  3391  2408  2407    1
  3392  2296  2295    1
  3393  2353  2354   ar
  3394  2303  2298    1
  3395  2303  2301    1
  3396  2298  2297    1
  3397  2406  2404    1
  3398  2406  2405    1
  3399  2382  2383    1
  3400  2362  2361    1
  3401  2407  2405    1
  3402  2422  2404    2
  3403  2355  2354   ar
  3404  2355  2345    1
  3405  2404  2423    1
  3406  2333  2326   ar
  3407  2326  2325    1
  3408  2295  2297    1
  3409  2363  2361    1
  3410  2363  2364    1
  3411  2383  2381    1
  3412  2297  2299    1
  3413  2361  2359    1
  3414  2345  2343    1
  3415  2345  2340    1
  3416  2301  2299    1
  3417  2301  2302    1
  3418  2364  2381    1
  3419  2299  2300    1
  3420  2343  2344    1
  3421  2343  2341    1
  3422  2325  2320    1
  3423  2325  2323    1
  3424  2381  2402    2
  3425  2381  2403    1
  3426  2335  2316    2
  3427  2340  2339    1
  3428  2359  2360    1
  3429  2320  2319    1
  3430  2360  2358    1
  3431  2300  2316    1
  3432  2323  2324    1
  3433  2323  2321    1
  3434  2341  2339    1
  3435  2341  2342    1
  3436  2318  2316    1
  3437  2318  2317    1
  3438  2316  2334    1
  3439  2339  2337    1
  3440  2321  2319    1
  3441  2321  2322    1
  3442  2319  2317    1
  3443  2342  2358    1
  3444  2380  2358    2
  3445  2358  2379    1
  3446  2338  2337    1
  3447  2338  2336    1
  3448  2357  2336    2
  3449  2322  2336    1
  3450  2336  2356    1
