2et4_lig
 OpenBabel11021811423D
libRbt.so/2013.1/901 2013/11/27
 42 45  0  0  0  0  0  0  0  0999 V2000
   13.9230    9.3294    5.2227 C   0  0  2  0  0  0  0  0  0  0  0  0
   14.9056    8.4173    4.7280 O   0  0  0  0  0  0  0  0  0  0  0  0
   12.5957    9.0149    4.4864 C   0  0  2  0  0  0  0  0  0  0  0  0
   12.1995    7.6434    4.6808 N   0  0  0  0  0  0  0  0  0  0  0  0
   12.7580    9.3415    2.9737 C   0  0  1  0  0  0  0  0  0  0  0  0
   11.5585    9.0732    2.3171 O   0  0  0  0  0  0  0  0  0  0  0  0
   13.1848   10.8415    2.8402 C   0  0  2  0  0  0  0  0  0  0  0  0
   13.3510   11.1805    1.4797 O   0  0  0  0  0  0  0  0  0  0  0  0
   14.5166   11.1099    3.6045 C   0  0  2  0  0  0  0  0  0  0  0  0
   14.3324   10.7408    4.9744 O   0  0  0  0  0  0  0  0  0  0  0  0
   14.9526   12.6097    3.5274 C   0  0  0  0  0  0  0  0  0  0  0  0
   16.3560   12.7696    3.6886 N   0  0  0  0  0  0  0  0  0  0  0  0
   17.7479    5.7980    6.6556 C   0  0  2  0  0  0  0  0  0  0  0  0
   18.8963    5.3537    7.4551 N   0  0  0  0  0  0  0  0  0  0  0  0
   18.2667    6.7261    5.4301 C   0  0  0  0  0  0  0  0  0  0  0  0
   17.0231    7.2141    4.5800 C   0  0  2  0  0  0  0  0  0  0  0  0
   17.4469    8.0835    3.4682 N   0  0  0  0  0  0  0  0  0  0  0  0
   16.0328    7.9955    5.5081 C   0  0  2  0  0  0  0  0  0  0  0  0
   15.5634    7.0985    6.7009 C   0  0  2  0  0  0  0  0  0  0  0  0
   14.6705    7.9125    7.5004 O   0  0  0  0  0  0  0  0  0  0  0  0
   16.8006    6.6321    7.5335 C   0  0  1  0  0  0  0  0  0  0  0  0
   16.3559    5.8286    8.5739 O   0  0  0  0  0  0  0  0  0  0  0  0
   13.8877    7.4604    8.5099 C   0  0  1  0  0  0  0  0  0  0  0  0
   13.3104    8.6391    9.3362 C   0  0  2  0  0  0  0  0  0  0  0  0
   14.1879    9.0997   10.3226 O   0  0  0  0  0  0  0  0  0  0  0  0
   11.9928    8.0192    9.7633 C   0  0  1  0  0  0  0  0  0  0  0  0
   11.4953    7.1784    8.5791 C   0  0  2  0  0  0  0  0  0  0  0  0
   12.7384    6.6778    8.0875 O   0  0  0  0  0  0  0  0  0  0  0  0
   10.7066    7.9645    7.4770 C   0  0  0  0  0  0  0  0  0  0  0  0
    9.5171    8.5147    8.1028 O   0  0  0  0  0  0  0  0  0  0  0  0
   11.1604    6.6880   11.6755 C   0  0  2  0  0  0  0  0  0  0  0  0
   12.2606    7.1811   10.9611 O   0  0  0  0  0  0  0  0  0  0  0  0
   11.6234    5.8098   12.9181 C   0  0  1  0  0  0  0  0  0  0  0  0
    8.9279    3.3003    9.6970 N   0  0  0  0  0  0  0  0  0  0  0  0
   10.2820    5.2789   13.6500 C   0  0  1  0  0  0  0  0  0  0  0  0
    9.4633    6.4849   14.0656 O   0  0  0  0  0  0  0  0  0  0  0  0
    9.4324    4.3446   12.6343 C   0  0  2  0  0  0  0  0  0  0  0  0
   10.2310    3.1965   12.2600 O   0  0  0  0  0  0  0  0  0  0  0  0
    9.0086    5.2679   11.3584 C   0  0  1  0  0  0  0  0  0  0  0  0
   10.2447    5.8531   10.7328 O   0  0  0  0  0  0  0  0  0  0  0  0
    8.1954    4.4640   10.2843 C   0  0  0  0  0  0  0  0  0  0  0  0
   12.5215    4.7001   12.4569 N   0  0  0  0  0  0  0  0  0  0  0  0
  1  2  1  6  0  0  0
  1  3  1  0  0  0  0
  1 10  1  0  0  0  0
  3  4  1  6  0  0  0
  3  5  1  0  0  0  0
  5  6  1  6  0  0  0
  5  7  1  0  0  0  0
  7  8  1  6  0  0  0
  7  9  1  0  0  0  0
  9 10  1  0  0  0  0
  9 11  1  1  0  0  0
 11 12  1  0  0  0  0
 13 14  1  1  0  0  0
 13 15  1  0  0  0  0
 13 21  1  0  0  0  0
 16 15  1  0  0  0  0
 16 17  1  6  0  0  0
 18  2  1  6  0  0  0
 18 16  1  0  0  0  0
 19 18  1  0  0  0  0
 19 20  1  1  0  0  0
 21 19  1  0  0  0  0
 21 22  1  1  0  0  0
 23 20  1  6  0  0  0
 23 24  1  0  0  0  0
 23 28  1  0  0  0  0
 24 25  1  1  0  0  0
 24 26  1  0  0  0  0
 26 27  1  0  0  0  0
 26 32  1  1  0  0  0
 27 28  1  0  0  0  0
 27 29  1  6  0  0  0
 29 30  1  0  0  0  0
 31 32  1  6  0  0  0
 31 40  1  0  0  0  0
 33 31  1  0  0  0  0
 33 42  1  6  0  0  0
 35 33  1  0  0  0  0
 35 36  1  6  0  0  0
 37 35  1  0  0  0  0
 37 38  1  6  0  0  0
 37 39  1  0  0  0  0
 39 40  1  0  0  0  0
 39 41  1  6  0  0  0
 41 34  1  0  0  0  0
M  END
>  <CHROM.1>
-152.34810353,-154.78505165,-169.96279003,169.46172551,167.48240494,169.27133116
-62.06342956,179.75122547,-60.23741449,13.17668010,7.55125022,7.64845637
1.07210571,0.19098636,-0.97110344

>  <Name>
2et4_lig

>  <RI>
0

>  <Rbt.Current_Directory>
/home/itssahil/PROJECTS/Mol_Feturizer/New_Systems/rnas/2et4

>  <Rbt.Executable>
rbdock ($Id: //depot/dev/client3/rdock/2013.1/src/exe/rbdock.cxx#4 $)

>  <Rbt.Library>
libRbt.so (2013.1, Build901 2013/11/27)

>  <Rbt.Parameter_File>
/export/apps/rDock/src/rDock_2013.1_src/data/scripts/dock_solv.prm

>  <Rbt.Receptor>
prm/pocket_docking_2.prm

>  <SCORE>
-22.7636

>  <SCORE.INTER>
-16.209

>  <SCORE.INTER.CONST>
1

>  <SCORE.INTER.POLAR>
-1.49864

>  <SCORE.INTER.ROT>
9

>  <SCORE.INTER.SOLV>
19.4068

>  <SCORE.INTER.VDW>
-21.8794

>  <SCORE.INTER.norm>
-0.385928

>  <SCORE.INTRA>
-6.61625

>  <SCORE.INTRA.DIHEDRAL>
-14.0361

>  <SCORE.INTRA.DIHEDRAL.0>
21.6909

>  <SCORE.INTRA.POLAR>
0

>  <SCORE.INTRA.POLAR.0>
0

>  <SCORE.INTRA.REPUL>
0

>  <SCORE.INTRA.REPUL.0>
0

>  <SCORE.INTRA.SOLV>
-1.25508

>  <SCORE.INTRA.SOLV.lig_0>
-116.606

>  <SCORE.INTRA.VDW>
1.02934

>  <SCORE.INTRA.VDW.0>
-6.01229

>  <SCORE.INTRA.norm>
-0.15753

>  <SCORE.RESTR>
0.0615919

>  <SCORE.RESTR.CAVITY>
0.0615919

>  <SCORE.RESTR.norm>
0.00146647

>  <SCORE.SYSTEM>
0

>  <SCORE.SYSTEM.CONST>
0

>  <SCORE.SYSTEM.DIHEDRAL>
0

>  <SCORE.SYSTEM.SOLV>
0

>  <SCORE.SYSTEM.norm>
0

>  <SCORE.heavy>
42

>  <SCORE.norm>
-0.541991

>  <RMSD>
0.598

$$$$
2et4_lig
 OpenBabel11021811423D
libRbt.so/2013.1/901 2013/11/27
 42 45  0  0  0  0  0  0  0  0999 V2000
   13.9512    9.3790    5.1989 C   0  0  2  0  0  0  0  0  0  0  0  0
   14.9261    8.4574    4.7067 O   0  0  0  0  0  0  0  0  0  0  0  0
   12.6234    9.0791    4.4577 C   0  0  2  0  0  0  0  0  0  0  0  0
   12.2123    7.7116    4.6492 N   0  0  0  0  0  0  0  0  0  0  0  0
   12.7943    9.4056    2.9460 C   0  0  1  0  0  0  0  0  0  0  0  0
   11.5944    9.1505    2.2849 O   0  0  0  0  0  0  0  0  0  0  0  0
   13.2371   10.9012    2.8155 C   0  0  2  0  0  0  0  0  0  0  0  0
   13.4116   11.2399    1.4559 O   0  0  0  0  0  0  0  0  0  0  0  0
   14.5690   11.1550    3.5848 C   0  0  2  0  0  0  0  0  0  0  0  0
   14.3762   10.7864    4.9536 O   0  0  0  0  0  0  0  0  0  0  0  0
   15.0208   12.6503    3.5108 C   0  0  0  0  0  0  0  0  0  0  0  0
   16.4277   12.7936    3.6558 N   0  0  0  0  0  0  0  0  0  0  0  0
   17.6790    5.7818    6.6859 C   0  0  2  0  0  0  0  0  0  0  0  0
   18.8124    5.3147    7.4939 N   0  0  0  0  0  0  0  0  0  0  0  0
   18.2281    6.6666    5.4418 C   0  0  0  0  0  0  0  0  0  0  0  0
   17.0010    7.1796    4.5824 C   0  0  2  0  0  0  0  0  0  0  0  0
   17.4532    8.0114    3.4531 N   0  0  0  0  0  0  0  0  0  0  0  0
   16.0390    8.0131    5.4947 C   0  0  2  0  0  0  0  0  0  0  0  0
   15.5404    7.1570    6.7056 C   0  0  2  0  0  0  0  0  0  0  0  0
   14.6767    8.0170    7.4888 O   0  0  0  0  0  0  0  0  0  0  0  0
   16.7618    6.6654    7.5471 C   0  0  1  0  0  0  0  0  0  0  0  0
   16.2909    5.8988    8.6037 O   0  0  0  0  0  0  0  0  0  0  0  0
   13.8708    7.6106    8.4995 C   0  0  1  0  0  0  0  0  0  0  0  0
   13.4376    8.8104    9.3818 C   0  0  2  0  0  0  0  0  0  0  0  0
   14.3782    9.1380   10.3630 O   0  0  0  0  0  0  0  0  0  0  0  0
   12.0707    8.3156    9.8172 C   0  0  1  0  0  0  0  0  0  0  0  0
   11.4638    7.5781    8.6154 C   0  0  2  0  0  0  0  0  0  0  0  0
   12.6372    6.9695    8.0764 O   0  0  0  0  0  0  0  0  0  0  0  0
   10.7407    8.4845    7.5617 C   0  0  0  0  0  0  0  0  0  0  0  0
   10.1407    7.6069    6.5723 O   0  0  0  0  0  0  0  0  0  0  0  0
   11.1433    7.0252   11.7136 C   0  0  2  0  0  0  0  0  0  0  0  0
   12.2723    7.4084   10.9770 O   0  0  0  0  0  0  0  0  0  0  0  0
   11.5371    6.0655   12.9193 C   0  0  1  0  0  0  0  0  0  0  0  0
    8.5099    4.0199    9.6677 N   0  0  0  0  0  0  0  0  0  0  0  0
   10.1648    5.6720   13.6801 C   0  0  1  0  0  0  0  0  0  0  0  0
    9.5033    6.9521   14.1505 O   0  0  0  0  0  0  0  0  0  0  0  0
    9.1842    4.8700   12.6694 C   0  0  2  0  0  0  0  0  0  0  0  0
    9.8337    3.6486   12.2422 O   0  0  0  0  0  0  0  0  0  0  0  0
    8.8336    5.8709   11.4304 C   0  0  1  0  0  0  0  0  0  0  0  0
   10.1107    6.3275   10.7804 O   0  0  0  0  0  0  0  0  0  0  0  0
    7.9026    5.1958   10.3633 C   0  0  0  0  0  0  0  0  0  0  0  0
   12.2873    4.8732   12.4031 N   0  0  0  0  0  0  0  0  0  0  0  0
  1  2  1  6  0  0  0
  1  3  1  0  0  0  0
  1 10  1  0  0  0  0
  3  4  1  6  0  0  0
  3  5  1  0  0  0  0
  5  6  1  6  0  0  0
  5  7  1  0  0  0  0
  7  8  1  6  0  0  0
  7  9  1  0  0  0  0
  9 10  1  0  0  0  0
  9 11  1  1  0  0  0
 11 12  1  0  0  0  0
 13 14  1  1  0  0  0
 13 15  1  0  0  0  0
 13 21  1  0  0  0  0
 16 15  1  0  0  0  0
 16 17  1  6  0  0  0
 18  2  1  6  0  0  0
 18 16  1  0  0  0  0
 19 18  1  0  0  0  0
 19 20  1  1  0  0  0
 21 19  1  0  0  0  0
 21 22  1  1  0  0  0
 23 20  1  6  0  0  0
 23 24  1  0  0  0  0
 23 28  1  0  0  0  0
 24 25  1  1  0  0  0
 24 26  1  0  0  0  0
 26 27  1  0  0  0  0
 26 32  1  1  0  0  0
 27 28  1  0  0  0  0
 27 29  1  6  0  0  0
 29 30  1  0  0  0  0
 31 32  1  6  0  0  0
 31 40  1  0  0  0  0
 33 31  1  0  0  0  0
 33 42  1  6  0  0  0
 35 33  1  0  0  0  0
 35 36  1  6  0  0  0
 37 35  1  0  0  0  0
 37 38  1  6  0  0  0
 37 39  1  0  0  0  0
 39 40  1  0  0  0  0
 39 41  1  6  0  0  0
 41 34  1  0  0  0  0
M  END
>  <CHROM.1>
-151.72639620,-153.84840803,-172.07065883,168.82490960,162.48511574,168.14018746
-175.24401898,-179.64189213,-63.63631714,13.15555261,7.71547502,7.61501165
1.05225664,0.18265836,-1.01428035

>  <Name>
2et4_lig

>  <RI>
0

>  <Rbt.Current_Directory>
/home/itssahil/PROJECTS/Mol_Feturizer/New_Systems/rnas/2et4

>  <Rbt.Executable>
rbdock ($Id: //depot/dev/client3/rdock/2013.1/src/exe/rbdock.cxx#4 $)

>  <Rbt.Library>
libRbt.so (2013.1, Build901 2013/11/27)

>  <Rbt.Parameter_File>
/export/apps/rDock/src/rDock_2013.1_src/data/scripts/dock_solv.prm

>  <Rbt.Receptor>
prm/pocket_docking_2.prm

>  <SCORE>
-21.8832

>  <SCORE.INTER>
-16.0409

>  <SCORE.INTER.CONST>
1

>  <SCORE.INTER.POLAR>
-1.42992

>  <SCORE.INTER.ROT>
9

>  <SCORE.INTER.SOLV>
19.0915

>  <SCORE.INTER.VDW>
-21.8914

>  <SCORE.INTER.norm>
-0.381926

>  <SCORE.INTRA>
-5.8817

>  <SCORE.INTRA.DIHEDRAL>
-13.0263

>  <SCORE.INTRA.DIHEDRAL.0>
21.6909

>  <SCORE.INTRA.POLAR>
0

>  <SCORE.INTRA.POLAR.0>
0

>  <SCORE.INTRA.REPUL>
0

>  <SCORE.INTRA.REPUL.0>
0

>  <SCORE.INTRA.SOLV>
-0.474963

>  <SCORE.INTRA.SOLV.lig_0>
-116.606

>  <SCORE.INTRA.VDW>
0.868915

>  <SCORE.INTRA.VDW.0>
-6.01229

>  <SCORE.INTRA.norm>
-0.14004

>  <SCORE.RESTR>
0.0393643

>  <SCORE.RESTR.CAVITY>
0.0393643

>  <SCORE.RESTR.norm>
0.000937245

>  <SCORE.SYSTEM>
0

>  <SCORE.SYSTEM.CONST>
0

>  <SCORE.SYSTEM.DIHEDRAL>
0

>  <SCORE.SYSTEM.SOLV>
0

>  <SCORE.SYSTEM.norm>
0

>  <SCORE.heavy>
42

>  <SCORE.norm>
-0.521029

>  <RMSD>
0.603

$$$$
2et4_lig
 OpenBabel11021811423D
libRbt.so/2013.1/901 2013/11/27
 42 45  0  0  0  0  0  0  0  0999 V2000
   13.9067    9.3890    5.2235 C   0  0  2  0  0  0  0  0  0  0  0  0
   14.8709    8.4579    4.7280 O   0  0  0  0  0  0  0  0  0  0  0  0
   12.5850    9.1299    4.4563 C   0  0  2  0  0  0  0  0  0  0  0  0
   12.1443    7.7673    4.6144 N   0  0  0  0  0  0  0  0  0  0  0  0
   12.7858    9.4824    2.9541 C   0  0  1  0  0  0  0  0  0  0  0  0
   11.5917    9.2640    2.2699 O   0  0  0  0  0  0  0  0  0  0  0  0
   13.2597   10.9712    2.8601 C   0  0  2  0  0  0  0  0  0  0  0  0
   13.4620   11.3328    1.5103 O   0  0  0  0  0  0  0  0  0  0  0  0
   14.5841   11.1835    3.6545 C   0  0  2  0  0  0  0  0  0  0  0  0
   14.3628   10.7922    5.0126 O   0  0  0  0  0  0  0  0  0  0  0  0
   15.0660   12.6707    3.6170 C   0  0  0  0  0  0  0  0  0  0  0  0
   16.4829   12.7770    3.6643 N   0  0  0  0  0  0  0  0  0  0  0  0
   17.6238    5.7641    6.6823 C   0  0  2  0  0  0  0  0  0  0  0  0
   18.7580    5.2894    7.4848 N   0  0  0  0  0  0  0  0  0  0  0  0
   18.1719    6.6576    5.4439 C   0  0  0  0  0  0  0  0  0  0  0  0
   16.9440    7.1786    4.5905 C   0  0  2  0  0  0  0  0  0  0  0  0
   17.3953    8.0183    3.4667 N   0  0  0  0  0  0  0  0  0  0  0  0
   15.9846    8.0063    5.5108 C   0  0  2  0  0  0  0  0  0  0  0  0
   15.4870    7.1417    6.7161 C   0  0  2  0  0  0  0  0  0  0  0  0
   14.6257    7.9969    7.5071 O   0  0  0  0  0  0  0  0  0  0  0  0
   16.7092    6.6423    7.5517 C   0  0  1  0  0  0  0  0  0  0  0  0
   16.2391    5.8684    8.6033 O   0  0  0  0  0  0  0  0  0  0  0  0
   13.7811    7.5771    8.4801 C   0  0  1  0  0  0  0  0  0  0  0  0
   13.2999    8.7674    9.3502 C   0  0  2  0  0  0  0  0  0  0  0  0
   14.1949    9.0971   10.3726 O   0  0  0  0  0  0  0  0  0  0  0  0
   11.9202    8.2580    9.7240 C   0  0  1  0  0  0  0  0  0  0  0  0
   11.3718    7.5228    8.4930 C   0  0  2  0  0  0  0  0  0  0  0  0
   12.5725    6.9279    8.0009 O   0  0  0  0  0  0  0  0  0  0  0  0
   10.6861    8.4295    7.4148 C   0  0  0  0  0  0  0  0  0  0  0  0
    9.5144    9.0267    8.0308 O   0  0  0  0  0  0  0  0  0  0  0  0
   10.9213    6.9102   11.5425 C   0  0  2  0  0  0  0  0  0  0  0  0
   12.0804    7.3453   10.8859 O   0  0  0  0  0  0  0  0  0  0  0  0
   11.2744    6.0982   12.8637 C   0  0  1  0  0  0  0  0  0  0  0  0
    8.7811    3.4522    9.5899 N   0  0  0  0  0  0  0  0  0  0  0  0
    9.8728    5.6301   13.5219 C   0  0  1  0  0  0  0  0  0  0  0  0
    9.0486    6.8699   13.8064 O   0  0  0  0  0  0  0  0  0  0  0  0
    9.0831    4.6515   12.4996 C   0  0  2  0  0  0  0  0  0  0  0  0
    9.8853    3.4721   12.2513 O   0  0  0  0  0  0  0  0  0  0  0  0
    8.7723    5.5059   11.1456 C   0  0  1  0  0  0  0  0  0  0  0  0
   10.0621    6.0361   10.5824 O   0  0  0  0  0  0  0  0  0  0  0  0
    8.0257    4.6536   10.0606 C   0  0  0  0  0  0  0  0  0  0  0  0
   12.1831    4.9508   12.5342 N   0  0  0  0  0  0  0  0  0  0  0  0
  1  2  1  6  0  0  0
  1  3  1  0  0  0  0
  1 10  1  0  0  0  0
  3  4  1  6  0  0  0
  3  5  1  0  0  0  0
  5  6  1  6  0  0  0
  5  7  1  0  0  0  0
  7  8  1  6  0  0  0
  7  9  1  0  0  0  0
  9 10  1  0  0  0  0
  9 11  1  1  0  0  0
 11 12  1  0  0  0  0
 13 14  1  1  0  0  0
 13 15  1  0  0  0  0
 13 21  1  0  0  0  0
 16 15  1  0  0  0  0
 16 17  1  6  0  0  0
 18  2  1  6  0  0  0
 18 16  1  0  0  0  0
 19 18  1  0  0  0  0
 19 20  1  1  0  0  0
 21 19  1  0  0  0  0
 21 22  1  1  0  0  0
 23 20  1  6  0  0  0
 23 24  1  0  0  0  0
 23 28  1  0  0  0  0
 24 25  1  1  0  0  0
 24 26  1  0  0  0  0
 26 27  1  0  0  0  0
 26 32  1  1  0  0  0
 27 28  1  0  0  0  0
 27 29  1  6  0  0  0
 29 30  1  0  0  0  0
 31 32  1  6  0  0  0
 31 40  1  0  0  0  0
 33 31  1  0  0  0  0
 33 42  1  6  0  0  0
 35 33  1  0  0  0  0
 35 36  1  6  0  0  0
 37 35  1  0  0  0  0
 37 38  1  6  0  0  0
 37 39  1  0  0  0  0
 39 40  1  0  0  0  0
 39 41  1  6  0  0  0
 41 34  1  0  0  0  0
M  END
>  <CHROM.1>
-153.59946478,-148.51455489,-171.32826511,166.01416027,165.36546852,170.32772623
-63.97596815,-172.75130448,-60.60403701,13.07584795,7.69859565,7.61184104
1.02996543,0.22455194,-0.95708666

>  <Name>
2et4_lig

>  <RI>
0

>  <Rbt.Current_Directory>
/home/itssahil/PROJECTS/Mol_Feturizer/New_Systems/rnas/2et4

>  <Rbt.Executable>
rbdock ($Id: //depot/dev/client3/rdock/2013.1/src/exe/rbdock.cxx#4 $)

>  <Rbt.Library>
libRbt.so (2013.1, Build901 2013/11/27)

>  <Rbt.Parameter_File>
/export/apps/rDock/src/rDock_2013.1_src/data/scripts/dock_solv.prm

>  <Rbt.Receptor>
prm/pocket_docking_2.prm

>  <SCORE>
-22.4456

>  <SCORE.INTER>
-16.3497

>  <SCORE.INTER.CONST>
1

>  <SCORE.INTER.POLAR>
-1.41839

>  <SCORE.INTER.ROT>
9

>  <SCORE.INTER.SOLV>
19.2818

>  <SCORE.INTER.VDW>
-22.1991

>  <SCORE.INTER.norm>
-0.389279

>  <SCORE.INTRA>
-6.14511

>  <SCORE.INTRA.DIHEDRAL>
-12.6822

>  <SCORE.INTRA.DIHEDRAL.0>
21.6909

>  <SCORE.INTRA.POLAR>
0

>  <SCORE.INTRA.POLAR.0>
0

>  <SCORE.INTRA.REPUL>
0

>  <SCORE.INTRA.REPUL.0>
0

>  <SCORE.INTRA.SOLV>
-1.38105

>  <SCORE.INTRA.SOLV.lig_0>
-116.606

>  <SCORE.INTRA.VDW>
0.886525

>  <SCORE.INTRA.VDW.0>
-6.01229

>  <SCORE.INTRA.norm>
-0.146312

>  <SCORE.RESTR>
0.0492788

>  <SCORE.RESTR.CAVITY>
0.0492788

>  <SCORE.RESTR.norm>
0.0011733

>  <SCORE.SYSTEM>
0

>  <SCORE.SYSTEM.CONST>
0

>  <SCORE.SYSTEM.DIHEDRAL>
0

>  <SCORE.SYSTEM.SOLV>
0

>  <SCORE.SYSTEM.norm>
0

>  <SCORE.heavy>
42

>  <SCORE.norm>
-0.534418

>  <RMSD>
0.613

$$$$
2et4_lig
 OpenBabel11021811423D
libRbt.so/2013.1/901 2013/11/27
 42 45  0  0  0  0  0  0  0  0999 V2000
   13.8284    9.3406    5.1957 C   0  0  2  0  0  0  0  0  0  0  0  0
   14.8100    8.4146    4.7254 O   0  0  0  0  0  0  0  0  0  0  0  0
   12.5427    9.1062    4.3623 C   0  0  2  0  0  0  0  0  0  0  0  0
   12.0882    7.7433    4.4699 N   0  0  0  0  0  0  0  0  0  0  0  0
   12.8152    9.4899    2.8792 C   0  0  1  0  0  0  0  0  0  0  0  0
   11.6533    9.2936    2.1355 O   0  0  0  0  0  0  0  0  0  0  0  0
   13.3006   10.9774    2.8398 C   0  0  2  0  0  0  0  0  0  0  0  0
   13.5675   11.3668    1.5092 O   0  0  0  0  0  0  0  0  0  0  0  0
   14.5875   11.1644    3.6994 C   0  0  2  0  0  0  0  0  0  0  0  0
   14.3010   10.7452    5.0370 O   0  0  0  0  0  0  0  0  0  0  0  0
   15.0783   12.6491    3.7170 C   0  0  0  0  0  0  0  0  0  0  0  0
   16.4957   12.7464    3.6660 N   0  0  0  0  0  0  0  0  0  0  0  0
   17.5832    5.7962    6.7522 C   0  0  2  0  0  0  0  0  0  0  0  0
   18.7170    5.3524    7.5728 N   0  0  0  0  0  0  0  0  0  0  0  0
   18.1294    6.6743    5.5020 C   0  0  0  0  0  0  0  0  0  0  0  0
   16.9018    7.1621    4.6289 C   0  0  2  0  0  0  0  0  0  0  0  0
   17.3510    7.9871    3.4935 N   0  0  0  0  0  0  0  0  0  0  0  0
   15.9231    7.9932    5.5257 C   0  0  2  0  0  0  0  0  0  0  0  0
   15.4273    7.1441    6.7426 C   0  0  2  0  0  0  0  0  0  0  0  0
   14.5474    8.0016    7.5105 O   0  0  0  0  0  0  0  0  0  0  0  0
   16.6490    6.6774    7.5976 C   0  0  1  0  0  0  0  0  0  0  0  0
   16.1808    5.9166    8.6594 O   0  0  0  0  0  0  0  0  0  0  0  0
   13.7473    7.5978    8.5268 C   0  0  1  0  0  0  0  0  0  0  0  0
   13.3333    8.7973    9.4186 C   0  0  2  0  0  0  0  0  0  0  0  0
   14.2860    9.1117   10.3926 O   0  0  0  0  0  0  0  0  0  0  0  0
   11.9661    8.3130    9.8645 C   0  0  1  0  0  0  0  0  0  0  0  0
   11.3413    7.5867    8.6650 C   0  0  2  0  0  0  0  0  0  0  0  0
   12.5040    6.9700    8.1122 O   0  0  0  0  0  0  0  0  0  0  0  0
   10.6168    8.5047    7.6224 C   0  0  0  0  0  0  0  0  0  0  0  0
    9.9951    7.6371    6.6375 O   0  0  0  0  0  0  0  0  0  0  0  0
   11.0436    7.0163   11.7591 C   0  0  2  0  0  0  0  0  0  0  0  0
   12.1701    7.3985   11.0181 O   0  0  0  0  0  0  0  0  0  0  0  0
   11.4408    6.0548   12.9622 C   0  0  1  0  0  0  0  0  0  0  0  0
    8.3662    3.9701    9.7781 N   0  0  0  0  0  0  0  0  0  0  0  0
   10.0711    5.6628   13.7283 C   0  0  1  0  0  0  0  0  0  0  0  0
    9.4135    6.9434   14.2027 O   0  0  0  0  0  0  0  0  0  0  0  0
    9.0851    4.8633   12.7210 C   0  0  2  0  0  0  0  0  0  0  0  0
    9.7309    3.6413   12.2899 O   0  0  0  0  0  0  0  0  0  0  0  0
    8.7310    5.8658   11.4843 C   0  0  1  0  0  0  0  0  0  0  0  0
   10.0061    6.3211   10.8295 O   0  0  0  0  0  0  0  0  0  0  0  0
    7.7945    5.1932   10.4204 C   0  0  0  0  0  0  0  0  0  0  0  0
   12.1871    4.8619   12.4418 N   0  0  0  0  0  0  0  0  0  0  0  0
  1  2  1  6  0  0  0
  1  3  1  0  0  0  0
  1 10  1  0  0  0  0
  3  4  1  6  0  0  0
  3  5  1  0  0  0  0
  5  6  1  6  0  0  0
  5  7  1  0  0  0  0
  7  8  1  6  0  0  0
  7  9  1  0  0  0  0
  9 10  1  0  0  0  0
  9 11  1  1  0  0  0
 11 12  1  0  0  0  0
 13 14  1  1  0  0  0
 13 15  1  0  0  0  0
 13 21  1  0  0  0  0
 16 15  1  0  0  0  0
 16 17  1  6  0  0  0
 18  2  1  6  0  0  0
 18 16  1  0  0  0  0
 19 18  1  0  0  0  0
 19 20  1  1  0  0  0
 21 19  1  0  0  0  0
 21 22  1  1  0  0  0
 23 20  1  6  0  0  0
 23 24  1  0  0  0  0
 23 28  1  0  0  0  0
 24 25  1  1  0  0  0
 24 26  1  0  0  0  0
 26 27  1  0  0  0  0
 26 32  1  1  0  0  0
 27 28  1  0  0  0  0
 27 29  1  6  0  0  0
 29 30  1  0  0  0  0
 31 32  1  6  0  0  0
 31 40  1  0  0  0  0
 33 31  1  0  0  0  0
 33 42  1  6  0  0  0
 35 33  1  0  0  0  0
 35 36  1  6  0  0  0
 37 35  1  0  0  0  0
 37 38  1  6  0  0  0
 37 39  1  0  0  0  0
 39 40  1  0  0  0  0
 39 41  1  6  0  0  0
 41 34  1  0  0  0  0
M  END
>  <CHROM.1>
-156.95798213,-141.26278294,-171.35449157,169.34038906,160.44294140,168.47884817
-175.02014922,-179.31659179,-60.27384240,13.07628821,7.72049222,7.65054130
1.04982228,0.17858312,-1.01397709

>  <Name>
2et4_lig

>  <RI>
0

>  <Rbt.Current_Directory>
/home/itssahil/PROJECTS/Mol_Feturizer/New_Systems/rnas/2et4

>  <Rbt.Executable>
rbdock ($Id: //depot/dev/client3/rdock/2013.1/src/exe/rbdock.cxx#4 $)

>  <Rbt.Library>
libRbt.so (2013.1, Build901 2013/11/27)

>  <Rbt.Parameter_File>
/export/apps/rDock/src/rDock_2013.1_src/data/scripts/dock_solv.prm

>  <Rbt.Receptor>
prm/pocket_docking_2.prm

>  <SCORE>
-21.9892

>  <SCORE.INTER>
-16.3817

>  <SCORE.INTER.CONST>
1

>  <SCORE.INTER.POLAR>
-1.42803

>  <SCORE.INTER.ROT>
9

>  <SCORE.INTER.SOLV>
19.1439

>  <SCORE.INTER.VDW>
-22.1423

>  <SCORE.INTER.norm>
-0.39004

>  <SCORE.INTRA>
-5.66981

>  <SCORE.INTRA.DIHEDRAL>
-12.0452

>  <SCORE.INTRA.DIHEDRAL.0>
21.6909

>  <SCORE.INTRA.POLAR>
0

>  <SCORE.INTRA.POLAR.0>
0

>  <SCORE.INTRA.REPUL>
0

>  <SCORE.INTRA.REPUL.0>
0

>  <SCORE.INTRA.SOLV>
-1.14532

>  <SCORE.INTRA.SOLV.lig_0>
-116.606

>  <SCORE.INTRA.VDW>
0.92545

>  <SCORE.INTRA.VDW.0>
-6.01229

>  <SCORE.INTRA.norm>
-0.134995

>  <SCORE.RESTR>
0.0622735

>  <SCORE.RESTR.CAVITY>
0.0622735

>  <SCORE.RESTR.norm>
0.0014827

>  <SCORE.SYSTEM>
0

>  <SCORE.SYSTEM.CONST>
0

>  <SCORE.SYSTEM.DIHEDRAL>
0

>  <SCORE.SYSTEM.SOLV>
0

>  <SCORE.SYSTEM.norm>
0

>  <SCORE.heavy>
42

>  <SCORE.norm>
-0.523553

>  <RMSD>
0.649

$$$$
2et4_lig
 OpenBabel11021811423D
libRbt.so/2013.1/901 2013/11/27
 42 45  0  0  0  0  0  0  0  0999 V2000
   13.9094    9.3704    5.2240 C   0  0  2  0  0  0  0  0  0  0  0  0
   14.8805    8.4501    4.7217 O   0  0  0  0  0  0  0  0  0  0  0  0
   12.5725    9.0633    4.5021 C   0  0  2  0  0  0  0  0  0  0  0  0
   12.1686    7.6952    4.7042 N   0  0  0  0  0  0  0  0  0  0  0  0
   12.7215    9.3850    2.9870 C   0  0  1  0  0  0  0  0  0  0  0  0
   11.5136    9.1235    2.3434 O   0  0  0  0  0  0  0  0  0  0  0  0
   13.1576   10.8815    2.8451 C   0  0  2  0  0  0  0  0  0  0  0  0
   13.3122   11.2158    1.4821 O   0  0  0  0  0  0  0  0  0  0  0  0
   14.4990   11.1424    3.5951 C   0  0  2  0  0  0  0  0  0  0  0  0
   14.3263   10.7782    4.9678 O   0  0  0  0  0  0  0  0  0  0  0  0
   14.9447   12.6389    3.5096 C   0  0  0  0  0  0  0  0  0  0  0  0
   16.3528   12.7876    3.6373 N   0  0  0  0  0  0  0  0  0  0  0  0
   17.6411    5.7667    6.6794 C   0  0  2  0  0  0  0  0  0  0  0  0
   18.7799    5.2963    7.4779 N   0  0  0  0  0  0  0  0  0  0  0  0
   18.1824    6.6484    5.4296 C   0  0  0  0  0  0  0  0  0  0  0  0
   16.9497    7.1649    4.5805 C   0  0  2  0  0  0  0  0  0  0  0  0
   17.3949    7.9939    3.4464 N   0  0  0  0  0  0  0  0  0  0  0  0
   15.9986    8.0026    5.5004 C   0  0  2  0  0  0  0  0  0  0  0  0
   15.5077    7.1495    6.7165 C   0  0  2  0  0  0  0  0  0  0  0  0
   14.6539    8.0133    7.5063 O   0  0  0  0  0  0  0  0  0  0  0  0
   16.7346    6.6544    7.5477 C   0  0  1  0  0  0  0  0  0  0  0  0
   16.2703    5.8905    8.6092 O   0  0  0  0  0  0  0  0  0  0  0  0
   13.8486    7.6094    8.5185 C   0  0  1  0  0  0  0  0  0  0  0  0
   13.4568    8.8035    9.4275 C   0  0  2  0  0  0  0  0  0  0  0  0
   14.4164    9.0882   10.4038 O   0  0  0  0  0  0  0  0  0  0  0  0
   12.0822    8.3367    9.8693 C   0  0  1  0  0  0  0  0  0  0  0  0
   11.4430    7.6378    8.6612 C   0  0  2  0  0  0  0  0  0  0  0  0
   12.5940    7.0088    8.0978 O   0  0  0  0  0  0  0  0  0  0  0  0
   10.7326    8.5823    7.6326 C   0  0  0  0  0  0  0  0  0  0  0  0
   10.0727    7.7386    6.6518 O   0  0  0  0  0  0  0  0  0  0  0  0
   11.1315    6.9639   11.6950 C   0  0  2  0  0  0  0  0  0  0  0  0
   12.2724    7.4031   11.0099 O   0  0  0  0  0  0  0  0  0  0  0  0
   11.5193    6.0726   12.9539 C   0  0  1  0  0  0  0  0  0  0  0  0
    6.8026    4.3200   10.7070 N   0  0  0  0  0  0  0  0  0  0  0  0
   10.1353    5.6067   13.6498 C   0  0  1  0  0  0  0  0  0  0  0  0
    9.3605    6.8506   14.0369 O   0  0  0  0  0  0  0  0  0  0  0  0
    9.2732    4.7060   12.6144 C   0  0  2  0  0  0  0  0  0  0  0  0
   10.0293    3.5211   12.2677 O   0  0  0  0  0  0  0  0  0  0  0  0
    8.9275    5.6404   11.3232 C   0  0  1  0  0  0  0  0  0  0  0  0
   10.2059    6.1660   10.7304 O   0  0  0  0  0  0  0  0  0  0  0  0
    8.1093    4.8680   10.2299 C   0  0  0  0  0  0  0  0  0  0  0  0
   12.3790    4.9211   12.5230 N   0  0  0  0  0  0  0  0  0  0  0  0
  1  2  1  6  0  0  0
  1  3  1  0  0  0  0
  1 10  1  0  0  0  0
  3  4  1  6  0  0  0
  3  5  1  0  0  0  0
  5  6  1  6  0  0  0
  5  7  1  0  0  0  0
  7  8  1  6  0  0  0
  7  9  1  0  0  0  0
  9 10  1  0  0  0  0
  9 11  1  1  0  0  0
 11 12  1  0  0  0  0
 13 14  1  1  0  0  0
 13 15  1  0  0  0  0
 13 21  1  0  0  0  0
 16 15  1  0  0  0  0
 16 17  1  6  0  0  0
 18  2  1  6  0  0  0
 18 16  1  0  0  0  0
 19 18  1  0  0  0  0
 19 20  1  1  0  0  0
 21 19  1  0  0  0  0
 21 22  1  1  0  0  0
 23 20  1  6  0  0  0
 23 24  1  0  0  0  0
 23 28  1  0  0  0  0
 24 25  1  1  0  0  0
 24 26  1  0  0  0  0
 26 27  1  0  0  0  0
 26 32  1  1  0  0  0
 27 28  1  0  0  0  0
 27 29  1  6  0  0  0
 29 30  1  0  0  0  0
 31 32  1  6  0  0  0
 31 40  1  0  0  0  0
 33 31  1  0  0  0  0
 33 42  1  6  0  0  0
 35 33  1  0  0  0  0
 35 36  1  6  0  0  0
 37 35  1  0  0  0  0
 37 38  1  6  0  0  0
 37 39  1  0  0  0  0
 39 40  1  0  0  0  0
 39 41  1  6  0  0  0
 41 34  1  0  0  0  0
M  END
>  <CHROM.1>
-151.12329280,-153.96644263,-172.40489276,168.34971609,161.08614227,172.42395401
-173.93655772,-175.29186923,58.91232342,13.09929195,7.69406045,7.64864382
1.04546540,0.16882431,-1.01287173

>  <Name>
2et4_lig

>  <RI>
0

>  <Rbt.Current_Directory>
/home/itssahil/PROJECTS/Mol_Feturizer/New_Systems/rnas/2et4

>  <Rbt.Executable>
rbdock ($Id: //depot/dev/client3/rdock/2013.1/src/exe/rbdock.cxx#4 $)

>  <Rbt.Library>
libRbt.so (2013.1, Build901 2013/11/27)

>  <Rbt.Parameter_File>
/export/apps/rDock/src/rDock_2013.1_src/data/scripts/dock_solv.prm

>  <Rbt.Receptor>
prm/pocket_docking_2.prm

>  <SCORE>
-22.462

>  <SCORE.INTER>
-16.2426

>  <SCORE.INTER.CONST>
1

>  <SCORE.INTER.POLAR>
-1.41237

>  <SCORE.INTER.ROT>
9

>  <SCORE.INTER.SOLV>
19.4179

>  <SCORE.INTER.VDW>
-22.1931

>  <SCORE.INTER.norm>
-0.386729

>  <SCORE.INTRA>
-6.27028

>  <SCORE.INTRA.DIHEDRAL>
-12.9687

>  <SCORE.INTRA.DIHEDRAL.0>
21.6909

>  <SCORE.INTRA.POLAR>
0

>  <SCORE.INTRA.POLAR.0>
0

>  <SCORE.INTRA.REPUL>
0

>  <SCORE.INTRA.REPUL.0>
0

>  <SCORE.INTRA.SOLV>
-1.70472

>  <SCORE.INTRA.SOLV.lig_0>
-116.606

>  <SCORE.INTRA.VDW>
1.06645

>  <SCORE.INTRA.VDW.0>
-6.01229

>  <SCORE.INTRA.norm>
-0.149292

>  <SCORE.RESTR>
0.0509107

>  <SCORE.RESTR.CAVITY>
0.0509107

>  <SCORE.RESTR.norm>
0.00121216

>  <SCORE.SYSTEM>
0

>  <SCORE.SYSTEM.CONST>
0

>  <SCORE.SYSTEM.DIHEDRAL>
0

>  <SCORE.SYSTEM.SOLV>
0

>  <SCORE.SYSTEM.norm>
0

>  <SCORE.heavy>
42

>  <SCORE.norm>
-0.53481

>  <RMSD>
0.673

$$$$
2et4_lig
 OpenBabel11021811423D
libRbt.so/2013.1/901 2013/11/27
 42 45  0  0  0  0  0  0  0  0999 V2000
   13.8438    9.2520    5.1860 C   0  0  2  0  0  0  0  0  0  0  0  0
   14.8215    8.3272    4.7054 O   0  0  0  0  0  0  0  0  0  0  0  0
   12.5385    8.9909    4.3918 C   0  0  2  0  0  0  0  0  0  0  0  0
   12.1006    7.6259    4.5352 N   0  0  0  0  0  0  0  0  0  0  0  0
   12.7674    9.3510    2.8954 C   0  0  1  0  0  0  0  0  0  0  0  0
   11.5879    9.1307    2.1869 O   0  0  0  0  0  0  0  0  0  0  0  0
   13.2368   10.8421    2.8172 C   0  0  2  0  0  0  0  0  0  0  0  0
   13.4641   11.2106    1.4733 O   0  0  0  0  0  0  0  0  0  0  0  0
   14.5444   11.0563    3.6384 C   0  0  2  0  0  0  0  0  0  0  0  0
   14.2981   10.6580    4.9902 O   0  0  0  0  0  0  0  0  0  0  0  0
   15.0207   12.5456    3.6170 C   0  0  0  0  0  0  0  0  0  0  0  0
   16.4371   12.6569    3.6691 N   0  0  0  0  0  0  0  0  0  0  0  0
   17.6896    5.7475    6.6482 C   0  0  2  0  0  0  0  0  0  0  0  0
   18.8429    5.3192    7.4495 N   0  0  0  0  0  0  0  0  0  0  0  0
   18.1987    6.6717    5.4157 C   0  0  0  0  0  0  0  0  0  0  0  0
   16.9498    7.1423    4.5636 C   0  0  2  0  0  0  0  0  0  0  0  0
   17.3645    8.0078    3.4452 N   0  0  0  0  0  0  0  0  0  0  0  0
   15.9533    7.9212    5.4872 C   0  0  2  0  0  0  0  0  0  0  0  0
   15.4934    7.0283    6.6868 C   0  0  2  0  0  0  0  0  0  0  0  0
   14.5939    7.8396    7.4815 O   0  0  0  0  0  0  0  0  0  0  0  0
   16.7357    6.5790    7.5213 C   0  0  1  0  0  0  0  0  0  0  0  0
   16.2994    5.7788    8.5678 O   0  0  0  0  0  0  0  0  0  0  0  0
   13.8260    7.3900    8.5035 C   0  0  1  0  0  0  0  0  0  0  0  0
   13.1932    8.5710    9.2847 C   0  0  2  0  0  0  0  0  0  0  0  0
   14.0443    9.1045   10.2574 O   0  0  0  0  0  0  0  0  0  0  0  0
   11.9016    7.9095    9.7285 C   0  0  1  0  0  0  0  0  0  0  0  0
   11.4478    7.0060    8.5732 C   0  0  2  0  0  0  0  0  0  0  0  0
   12.7143    6.5432    8.1048 O   0  0  0  0  0  0  0  0  0  0  0  0
   10.6317    7.7170    7.4404 C   0  0  0  0  0  0  0  0  0  0  0  0
    9.4182    8.2407    8.0423 O   0  0  0  0  0  0  0  0  0  0  0  0
   11.1247    6.5296   11.6295 C   0  0  2  0  0  0  0  0  0  0  0  0
   12.1990    7.1273   10.9566 O   0  0  0  0  0  0  0  0  0  0  0  0
   11.5967    5.8564   12.9910 C   0  0  1  0  0  0  0  0  0  0  0  0
    8.1824    4.3580    8.9871 N   0  0  0  0  0  0  0  0  0  0  0  0
   10.2894    5.1841   13.6661 C   0  0  1  0  0  0  0  0  0  0  0  0
    9.2591    6.2741   13.8852 O   0  0  0  0  0  0  0  0  0  0  0  0
    9.6943    4.0348   12.6908 C   0  0  2  0  0  0  0  0  0  0  0  0
   10.6920    3.0022   12.5048 O   0  0  0  0  0  0  0  0  0  0  0  0
    9.2571    4.7556   11.2947 C   0  0  1  0  0  0  0  0  0  0  0  0
   10.4425    5.4740   10.7108 O   0  0  0  0  0  0  0  0  0  0  0  0
    8.6834    3.7349   10.2505 C   0  0  0  0  0  0  0  0  0  0  0  0
   12.6947    4.8698   12.7228 N   0  0  0  0  0  0  0  0  0  0  0  0
  1  2  1  6  0  0  0
  1  3  1  0  0  0  0
  1 10  1  0  0  0  0
  3  4  1  6  0  0  0
  3  5  1  0  0  0  0
  5  6  1  6  0  0  0
  5  7  1  0  0  0  0
  7  8  1  6  0  0  0
  7  9  1  0  0  0  0
  9 10  1  0  0  0  0
  9 11  1  1  0  0  0
 11 12  1  0  0  0  0
 13 14  1  1  0  0  0
 13 15  1  0  0  0  0
 13 21  1  0  0  0  0
 16 15  1  0  0  0  0
 16 17  1  6  0  0  0
 18  2  1  6  0  0  0
 18 16  1  0  0  0  0
 19 18  1  0  0  0  0
 19 20  1  1  0  0  0
 21 19  1  0  0  0  0
 21 22  1  1  0  0  0
 23 20  1  6  0  0  0
 23 24  1  0  0  0  0
 23 28  1  0  0  0  0
 24 25  1  1  0  0  0
 24 26  1  0  0  0  0
 26 27  1  0  0  0  0
 26 32  1  1  0  0  0
 27 28  1  0  0  0  0
 27 29  1  6  0  0  0
 29 30  1  0  0  0  0
 31 32  1  6  0  0  0
 31 40  1  0  0  0  0
 33 31  1  0  0  0  0
 33 42  1  6  0  0  0
 35 33  1  0  0  0  0
 35 36  1  6  0  0  0
 37 35  1  0  0  0  0
 37 38  1  6  0  0  0
 37 39  1  0  0  0  0
 39 40  1  0  0  0  0
 39 41  1  6  0  0  0
 41 34  1  0  0  0  0
M  END
>  <CHROM.1>
-156.37785090,-147.49232339,-168.81941422,170.14072255,169.63202996,173.85524980
-61.86038052,-174.42028381,176.09312173,13.16421825,7.46786554,7.61988190
1.09143878,0.16610854,-0.98021588

>  <Name>
2et4_lig

>  <RI>
0

>  <Rbt.Current_Directory>
/home/itssahil/PROJECTS/Mol_Feturizer/New_Systems/rnas/2et4

>  <Rbt.Executable>
rbdock ($Id: //depot/dev/client3/rdock/2013.1/src/exe/rbdock.cxx#4 $)

>  <Rbt.Library>
libRbt.so (2013.1, Build901 2013/11/27)

>  <Rbt.Parameter_File>
/export/apps/rDock/src/rDock_2013.1_src/data/scripts/dock_solv.prm

>  <Rbt.Receptor>
prm/pocket_docking_2.prm

>  <SCORE>
-23.5521

>  <SCORE.INTER>
-16.2886

>  <SCORE.INTER.CONST>
1

>  <SCORE.INTER.POLAR>
-1.53441

>  <SCORE.INTER.ROT>
9

>  <SCORE.INTER.SOLV>
19.219

>  <SCORE.INTER.VDW>
-21.7507

>  <SCORE.INTER.norm>
-0.387823

>  <SCORE.INTRA>
-7.35574

>  <SCORE.INTRA.DIHEDRAL>
-14.1144

>  <SCORE.INTRA.DIHEDRAL.0>
21.6909

>  <SCORE.INTRA.POLAR>
0

>  <SCORE.INTRA.POLAR.0>
0

>  <SCORE.INTRA.REPUL>
0

>  <SCORE.INTRA.REPUL.0>
0

>  <SCORE.INTRA.SOLV>
-2.9179

>  <SCORE.INTRA.SOLV.lig_0>
-116.606

>  <SCORE.INTRA.VDW>
1.1604

>  <SCORE.INTRA.VDW.0>
-6.01229

>  <SCORE.INTRA.norm>
-0.175137

>  <SCORE.RESTR>
0.0922303

>  <SCORE.RESTR.CAVITY>
0.0922303

>  <SCORE.RESTR.norm>
0.00219596

>  <SCORE.SYSTEM>
0

>  <SCORE.SYSTEM.CONST>
0

>  <SCORE.SYSTEM.DIHEDRAL>
0

>  <SCORE.SYSTEM.SOLV>
0

>  <SCORE.SYSTEM.norm>
0

>  <SCORE.heavy>
42

>  <SCORE.norm>
-0.560764

>  <RMSD>
0.694

$$$$
2et4_lig
 OpenBabel11021811423D
libRbt.so/2013.1/901 2013/11/27
 42 45  0  0  0  0  0  0  0  0999 V2000
   13.9053    9.3103    5.2453 C   0  0  2  0  0  0  0  0  0  0  0  0
   14.8695    8.3848    4.7393 O   0  0  0  0  0  0  0  0  0  0  0  0
   12.5663    9.0165    4.5218 C   0  0  2  0  0  0  0  0  0  0  0  0
   12.1519    7.6507    4.7178 N   0  0  0  0  0  0  0  0  0  0  0  0
   12.7183    9.3435    3.0081 C   0  0  1  0  0  0  0  0  0  0  0  0
   11.5085    9.0939    2.3630 O   0  0  0  0  0  0  0  0  0  0  0  0
   13.1657   10.8372    2.8727 C   0  0  2  0  0  0  0  0  0  0  0  0
   13.3233   11.1762    1.5111 O   0  0  0  0  0  0  0  0  0  0  0  0
   14.5088   11.0848    3.6241 C   0  0  2  0  0  0  0  0  0  0  0  0
   14.3329   10.7160    4.9952 O   0  0  0  0  0  0  0  0  0  0  0  0
   14.9660   12.5781    3.5451 C   0  0  0  0  0  0  0  0  0  0  0  0
   16.3690   12.7202    3.7253 N   0  0  0  0  0  0  0  0  0  0  0  0
   17.6815    5.7150    6.6417 C   0  0  2  0  0  0  0  0  0  0  0  0
   18.8295    5.2501    7.4302 N   0  0  0  0  0  0  0  0  0  0  0  0
   18.2051    6.6315    5.4096 C   0  0  0  0  0  0  0  0  0  0  0  0
   16.9623    7.1417    4.5716 C   0  0  2  0  0  0  0  0  0  0  0  0
   17.3910    8.0016    3.4542 N   0  0  0  0  0  0  0  0  0  0  0  0
   15.9964    7.9429    5.5085 C   0  0  2  0  0  0  0  0  0  0  0  0
   15.5225    7.0564    6.7074 C   0  0  2  0  0  0  0  0  0  0  0  0
   14.6532    7.8881    7.5147 O   0  0  0  0  0  0  0  0  0  0  0  0
   16.7591    6.5679    7.5281 C   0  0  1  0  0  0  0  0  0  0  0  0
   16.3101    5.7743    8.5741 O   0  0  0  0  0  0  0  0  0  0  0  0
   13.8651    7.4507    8.5265 C   0  0  1  0  0  0  0  0  0  0  0  0
   13.2980    8.6407    9.3437 C   0  0  2  0  0  0  0  0  0  0  0  0
   14.1787    9.1000   10.3278 O   0  0  0  0  0  0  0  0  0  0  0  0
   11.9741    8.0362    9.7736 C   0  0  1  0  0  0  0  0  0  0  0  0
   11.4700    7.1918    8.5948 C   0  0  2  0  0  0  0  0  0  0  0  0
   12.7089    6.6759    8.1082 O   0  0  0  0  0  0  0  0  0  0  0  0
   10.6900    7.9774    7.4861 C   0  0  0  0  0  0  0  0  0  0  0  0
    9.6079    8.6921    8.1398 O   0  0  0  0  0  0  0  0  0  0  0  0
   11.1269    6.7240   11.6924 C   0  0  2  0  0  0  0  0  0  0  0  0
   12.2326    7.2043   10.9776 O   0  0  0  0  0  0  0  0  0  0  0  0
   11.5799    5.9136   12.9838 C   0  0  1  0  0  0  0  0  0  0  0  0
    6.9090    3.8719   10.8229 N   0  0  0  0  0  0  0  0  0  0  0  0
   10.2334    5.3920   13.7130 C   0  0  1  0  0  0  0  0  0  0  0  0
    9.3846    6.6002   14.0552 O   0  0  0  0  0  0  0  0  0  0  0  0
    9.4221    4.3954   12.7257 C   0  0  2  0  0  0  0  0  0  0  0  0
   10.2490    3.2465   12.4216 O   0  0  0  0  0  0  0  0  0  0  0  0
    9.0082    5.2499   11.3997 C   0  0  1  0  0  0  0  0  0  0  0  0
   10.2463    5.8289   10.7720 O   0  0  0  0  0  0  0  0  0  0  0  0
    8.2322    4.3816   10.3485 C   0  0  0  0  0  0  0  0  0  0  0  0
   12.5073    4.8010   12.5932 N   0  0  0  0  0  0  0  0  0  0  0  0
  1  2  1  6  0  0  0
  1  3  1  0  0  0  0
  1 10  1  0  0  0  0
  3  4  1  6  0  0  0
  3  5  1  0  0  0  0
  5  6  1  6  0  0  0
  5  7  1  0  0  0  0
  7  8  1  6  0  0  0
  7  9  1  0  0  0  0
  9 10  1  0  0  0  0
  9 11  1  1  0  0  0
 11 12  1  0  0  0  0
 13 14  1  1  0  0  0
 13 15  1  0  0  0  0
 13 21  1  0  0  0  0
 16 15  1  0  0  0  0
 16 17  1  6  0  0  0
 18  2  1  6  0  0  0
 18 16  1  0  0  0  0
 19 18  1  0  0  0  0
 19 20  1  1  0  0  0
 21 19  1  0  0  0  0
 21 22  1  1  0  0  0
 23 20  1  6  0  0  0
 23 24  1  0  0  0  0
 23 28  1  0  0  0  0
 24 25  1  1  0  0  0
 24 26  1  0  0  0  0
 26 27  1  0  0  0  0
 26 32  1  1  0  0  0
 27 28  1  0  0  0  0
 27 29  1  6  0  0  0
 29 30  1  0  0  0  0
 31 32  1  6  0  0  0
 31 40  1  0  0  0  0
 33 31  1  0  0  0  0
 33 42  1  6  0  0  0
 35 33  1  0  0  0  0
 35 36  1  6  0  0  0
 37 35  1  0  0  0  0
 37 38  1  6  0  0  0
 37 39  1  0  0  0  0
 39 40  1  0  0  0  0
 39 41  1  6  0  0  0
 41 34  1  0  0  0  0
M  END
>  <CHROM.1>
-152.20563531,-156.22902445,-170.31249220,168.94934727,168.58476655,169.41630924
-54.45152924,-177.32902112,63.98181173,13.10624821,7.56190697,7.70108173
1.05073211,0.19462881,-0.97881287

>  <Name>
2et4_lig

>  <RI>
0

>  <Rbt.Current_Directory>
/home/itssahil/PROJECTS/Mol_Feturizer/New_Systems/rnas/2et4

>  <Rbt.Executable>
rbdock ($Id: //depot/dev/client3/rdock/2013.1/src/exe/rbdock.cxx#4 $)

>  <Rbt.Library>
libRbt.so (2013.1, Build901 2013/11/27)

>  <Rbt.Parameter_File>
/export/apps/rDock/src/rDock_2013.1_src/data/scripts/dock_solv.prm

>  <Rbt.Receptor>
prm/pocket_docking_2.prm

>  <SCORE>
-23.2789

>  <SCORE.INTER>
-16.1824

>  <SCORE.INTER.CONST>
1

>  <SCORE.INTER.POLAR>
-1.48993

>  <SCORE.INTER.ROT>
9

>  <SCORE.INTER.SOLV>
19.2547

>  <SCORE.INTER.VDW>
-21.8401

>  <SCORE.INTER.norm>
-0.385296

>  <SCORE.INTRA>
-7.15632

>  <SCORE.INTRA.DIHEDRAL>
-14.153

>  <SCORE.INTRA.DIHEDRAL.0>
21.6909

>  <SCORE.INTRA.POLAR>
0

>  <SCORE.INTRA.POLAR.0>
0

>  <SCORE.INTRA.REPUL>
0

>  <SCORE.INTRA.REPUL.0>
0

>  <SCORE.INTRA.SOLV>
-2.58737

>  <SCORE.INTRA.SOLV.lig_0>
-116.606

>  <SCORE.INTRA.VDW>
1.21385

>  <SCORE.INTRA.VDW.0>
-6.01229

>  <SCORE.INTRA.norm>
-0.170389

>  <SCORE.RESTR>
0.0598452

>  <SCORE.RESTR.CAVITY>
0.0598452

>  <SCORE.RESTR.norm>
0.00142489

>  <SCORE.SYSTEM>
0

>  <SCORE.SYSTEM.CONST>
0

>  <SCORE.SYSTEM.DIHEDRAL>
0

>  <SCORE.SYSTEM.SOLV>
0

>  <SCORE.SYSTEM.norm>
0

>  <SCORE.heavy>
42

>  <SCORE.norm>
-0.55426

>  <RMSD>
0.696

$$$$
2et4_lig
 OpenBabel11021811423D
libRbt.so/2013.1/901 2013/11/27
 42 45  0  0  0  0  0  0  0  0999 V2000
   13.8195    9.1395    5.1042 C   0  0  2  0  0  0  0  0  0  0  0  0
   14.8509    8.2582    4.6551 O   0  0  0  0  0  0  0  0  0  0  0  0
   12.5942    8.9170    4.1812 C   0  0  2  0  0  0  0  0  0  0  0  0
   12.1676    7.5410    4.1972 N   0  0  0  0  0  0  0  0  0  0  0  0
   12.9491    9.3761    2.7375 C   0  0  1  0  0  0  0  0  0  0  0  0
   11.8408    9.1901    1.9135 O   0  0  0  0  0  0  0  0  0  0  0  0
   13.3992   10.8740    2.7972 C   0  0  2  0  0  0  0  0  0  0  0  0
   13.7388   11.3316    1.5053 O   0  0  0  0  0  0  0  0  0  0  0  0
   14.6251   11.0480    3.7442 C   0  0  2  0  0  0  0  0  0  0  0  0
   14.2664   10.5599    5.0403 O   0  0  0  0  0  0  0  0  0  0  0  0
   15.0772   12.5404    3.8608 C   0  0  0  0  0  0  0  0  0  0  0  0
   15.7232   12.9993    2.6804 N   0  0  0  0  0  0  0  0  0  0  0  0
   17.7960    5.8524    6.7027 C   0  0  2  0  0  0  0  0  0  0  0  0
   18.9541    5.4939    7.5310 N   0  0  0  0  0  0  0  0  0  0  0  0
   18.2842    6.7673    5.4549 C   0  0  0  0  0  0  0  0  0  0  0  0
   17.0296    7.1628    4.5735 C   0  0  2  0  0  0  0  0  0  0  0  0
   17.4242    8.0178    3.4398 N   0  0  0  0  0  0  0  0  0  0  0  0
   15.9868    7.9204    5.4629 C   0  0  2  0  0  0  0  0  0  0  0  0
   15.5470    7.0382    6.6778 C   0  0  2  0  0  0  0  0  0  0  0  0
   14.6015    7.8293    7.4389 O   0  0  0  0  0  0  0  0  0  0  0  0
   16.7942    6.6632    7.5410 C   0  0  1  0  0  0  0  0  0  0  0  0
   16.3764    5.8708    8.6008 O   0  0  0  0  0  0  0  0  0  0  0  0
   13.8375    7.3720    8.4605 C   0  0  1  0  0  0  0  0  0  0  0  0
   13.2129    8.5473    9.2567 C   0  0  2  0  0  0  0  0  0  0  0  0
   14.0709    9.0682   10.2301 O   0  0  0  0  0  0  0  0  0  0  0  0
   11.9214    7.8857    9.7008 C   0  0  1  0  0  0  0  0  0  0  0  0
   11.4585    6.9953    8.5391 C   0  0  2  0  0  0  0  0  0  0  0  0
   12.7209    6.5329    8.0594 O   0  0  0  0  0  0  0  0  0  0  0  0
   10.6388    7.7202    7.4178 C   0  0  0  0  0  0  0  0  0  0  0  0
    9.4322    8.2453    8.0322 O   0  0  0  0  0  0  0  0  0  0  0  0
   11.1456    6.5309   11.6202 C   0  0  2  0  0  0  0  0  0  0  0  0
   12.2228    7.0903   10.9195 O   0  0  0  0  0  0  0  0  0  0  0  0
   11.6479    5.6256   12.8277 C   0  0  1  0  0  0  0  0  0  0  0  0
    9.0370    3.1555    9.5091 N   0  0  0  0  0  0  0  0  0  0  0  0
   10.3313    5.0190   13.5456 C   0  0  1  0  0  0  0  0  0  0  0  0
    9.4713    6.1779   14.0089 O   0  0  0  0  0  0  0  0  0  0  0  0
    9.5107    4.0917   12.5001 C   0  0  2  0  0  0  0  0  0  0  0  0
   10.3488    2.9884   12.0801 O   0  0  0  0  0  0  0  0  0  0  0  0
    9.0458    5.0447   11.2609 C   0  0  1  0  0  0  0  0  0  0  0  0
   10.2558    5.6978   10.6517 O   0  0  0  0  0  0  0  0  0  0  0  0
    8.2564    4.2511   10.1616 C   0  0  0  0  0  0  0  0  0  0  0  0
   12.5836    4.5675   12.3219 N   0  0  0  0  0  0  0  0  0  0  0  0
  1  2  1  6  0  0  0
  1  3  1  0  0  0  0
  1 10  1  0  0  0  0
  3  4  1  6  0  0  0
  3  5  1  0  0  0  0
  5  6  1  6  0  0  0
  5  7  1  0  0  0  0
  7  8  1  6  0  0  0
  7  9  1  0  0  0  0
  9 10  1  0  0  0  0
  9 11  1  1  0  0  0
 11 12  1  0  0  0  0
 13 14  1  1  0  0  0
 13 15  1  0  0  0  0
 13 21  1  0  0  0  0
 16 15  1  0  0  0  0
 16 17  1  6  0  0  0
 18  2  1  6  0  0  0
 18 16  1  0  0  0  0
 19 18  1  0  0  0  0
 19 20  1  1  0  0  0
 21 19  1  0  0  0  0
 21 22  1  1  0  0  0
 23 20  1  6  0  0  0
 23 24  1  0  0  0  0
 23 28  1  0  0  0  0
 24 25  1  1  0  0  0
 24 26  1  0  0  0  0
 26 27  1  0  0  0  0
 26 32  1  1  0  0  0
 27 28  1  0  0  0  0
 27 29  1  6  0  0  0
 29 30  1  0  0  0  0
 31 32  1  6  0  0  0
 31 40  1  0  0  0  0
 33 31  1  0  0  0  0
 33 42  1  6  0  0  0
 35 33  1  0  0  0  0
 35 36  1  6  0  0  0
 37 35  1  0  0  0  0
 37 38  1  6  0  0  0
 37 39  1  0  0  0  0
 39 40  1  0  0  0  0
 39 41  1  6  0  0  0
 41 34  1  0  0  0  0
M  END
>  <CHROM.1>
-162.82226218,-72.74223916,-169.56644951,170.11841552,166.13841978,171.53133684
-61.69646121,175.70809366,-61.41831568,13.18615696,7.45977081,7.55663102
1.09083997,0.16939720,-0.96750074

>  <Name>
2et4_lig

>  <RI>
0

>  <Rbt.Current_Directory>
/home/itssahil/PROJECTS/Mol_Feturizer/New_Systems/rnas/2et4

>  <Rbt.Executable>
rbdock ($Id: //depot/dev/client3/rdock/2013.1/src/exe/rbdock.cxx#4 $)

>  <Rbt.Library>
libRbt.so (2013.1, Build901 2013/11/27)

>  <Rbt.Parameter_File>
/export/apps/rDock/src/rDock_2013.1_src/data/scripts/dock_solv.prm

>  <Rbt.Receptor>
prm/pocket_docking_2.prm

>  <SCORE>
-24.63

>  <SCORE.INTER>
-16.6485

>  <SCORE.INTER.CONST>
1

>  <SCORE.INTER.POLAR>
-1.5442

>  <SCORE.INTER.ROT>
9

>  <SCORE.INTER.SOLV>
17.448

>  <SCORE.INTER.VDW>
-21.3677

>  <SCORE.INTER.norm>
-0.396394

>  <SCORE.INTRA>
-8.02717

>  <SCORE.INTRA.DIHEDRAL>
-17.2306

>  <SCORE.INTRA.DIHEDRAL.0>
21.6909

>  <SCORE.INTRA.POLAR>
0

>  <SCORE.INTRA.POLAR.0>
0

>  <SCORE.INTRA.REPUL>
0

>  <SCORE.INTRA.REPUL.0>
0

>  <SCORE.INTRA.SOLV>
-1.44889

>  <SCORE.INTRA.SOLV.lig_0>
-116.606

>  <SCORE.INTRA.VDW>
1.31256

>  <SCORE.INTRA.VDW.0>
-6.01229

>  <SCORE.INTRA.norm>
-0.191123

>  <SCORE.RESTR>
0.0456704

>  <SCORE.RESTR.CAVITY>
0.0456704

>  <SCORE.RESTR.norm>
0.00108739

>  <SCORE.SYSTEM>
0

>  <SCORE.SYSTEM.CONST>
0

>  <SCORE.SYSTEM.DIHEDRAL>
0

>  <SCORE.SYSTEM.SOLV>
0

>  <SCORE.SYSTEM.norm>
0

>  <SCORE.heavy>
42

>  <SCORE.norm>
-0.586429

>  <RMSD>
0.701

$$$$
2et4_lig
 OpenBabel11021811423D
libRbt.so/2013.1/901 2013/11/27
 42 45  0  0  0  0  0  0  0  0999 V2000
   13.8181    9.2800    5.1279 C   0  0  2  0  0  0  0  0  0  0  0  0
   14.8008    8.3466    4.6750 O   0  0  0  0  0  0  0  0  0  0  0  0
   12.5677    9.0990    4.2299 C   0  0  2  0  0  0  0  0  0  0  0  0
   12.0803    7.7440    4.2752 N   0  0  0  0  0  0  0  0  0  0  0  0
   12.9167    9.5198    2.7731 C   0  0  1  0  0  0  0  0  0  0  0  0
   11.7866    9.3714    1.9715 O   0  0  0  0  0  0  0  0  0  0  0  0
   13.4344   10.9967    2.8012 C   0  0  2  0  0  0  0  0  0  0  0  0
   13.7707   11.4189    1.4965 O   0  0  0  0  0  0  0  0  0  0  0  0
   14.6837   11.1296    3.7239 C   0  0  2  0  0  0  0  0  0  0  0  0
   14.3269   10.6778    5.0336 O   0  0  0  0  0  0  0  0  0  0  0  0
   15.2041   12.6018    3.8089 C   0  0  0  0  0  0  0  0  0  0  0  0
   15.7342   13.0560    2.5705 N   0  0  0  0  0  0  0  0  0  0  0  0
   17.6024    5.7555    6.6978 C   0  0  2  0  0  0  0  0  0  0  0  0
   18.7329    5.3227    7.5288 N   0  0  0  0  0  0  0  0  0  0  0  0
   18.1478    6.6705    5.4741 C   0  0  0  0  0  0  0  0  0  0  0  0
   16.9234    7.1462    4.5899 C   0  0  2  0  0  0  0  0  0  0  0  0
   17.3712    8.0037    3.4783 N   0  0  0  0  0  0  0  0  0  0  0  0
   15.9104    7.9361    5.4858 C   0  0  2  0  0  0  0  0  0  0  0  0
   15.4152    7.0518    6.6777 C   0  0  2  0  0  0  0  0  0  0  0  0
   14.5025    7.8730    7.4468 O   0  0  0  0  0  0  0  0  0  0  0  0
   16.6336    6.5975    7.5440 C   0  0  1  0  0  0  0  0  0  0  0  0
   16.1664    5.8051    8.5830 O   0  0  0  0  0  0  0  0  0  0  0  0
   13.7456    7.4444    8.4859 C   0  0  1  0  0  0  0  0  0  0  0  0
   13.2179    8.6408    9.3199 C   0  0  2  0  0  0  0  0  0  0  0  0
   14.1361    9.0935   10.2723 O   0  0  0  0  0  0  0  0  0  0  0  0
   11.9041    8.0493    9.7962 C   0  0  1  0  0  0  0  0  0  0  0  0
   11.3520    7.2077    8.6370 C   0  0  2  0  0  0  0  0  0  0  0  0
   12.5687    6.6797    8.1091 O   0  0  0  0  0  0  0  0  0  0  0  0
   10.5416    7.9988    7.5544 C   0  0  0  0  0  0  0  0  0  0  0  0
   11.3842    9.0866    7.0897 O   0  0  0  0  0  0  0  0  0  0  0  0
   11.1110    6.6856   11.7022 C   0  0  2  0  0  0  0  0  0  0  0  0
   12.1962    7.2168   10.9922 O   0  0  0  0  0  0  0  0  0  0  0  0
   11.5995    5.8116   12.9380 C   0  0  1  0  0  0  0  0  0  0  0  0
    8.9823    3.2528    9.6915 N   0  0  0  0  0  0  0  0  0  0  0  0
   10.2744    5.2354   13.6650 C   0  0  1  0  0  0  0  0  0  0  0  0
    9.4202    6.4133   14.0899 O   0  0  0  0  0  0  0  0  0  0  0  0
    9.4530    4.2845   12.6416 C   0  0  2  0  0  0  0  0  0  0  0  0
   10.2854    3.1636   12.2584 O   0  0  0  0  0  0  0  0  0  0  0  0
    9.0023    5.2049   11.3729 C   0  0  1  0  0  0  0  0  0  0  0  0
   10.2206    5.8316   10.7525 O   0  0  0  0  0  0  0  0  0  0  0  0
    8.2135    4.3859   10.2920 C   0  0  0  0  0  0  0  0  0  0  0  0
   12.5303    4.7328   12.4683 N   0  0  0  0  0  0  0  0  0  0  0  0
  1  2  1  6  0  0  0
  1  3  1  0  0  0  0
  1 10  1  0  0  0  0
  3  4  1  6  0  0  0
  3  5  1  0  0  0  0
  5  6  1  6  0  0  0
  5  7  1  0  0  0  0
  7  8  1  6  0  0  0
  7  9  1  0  0  0  0
  9 10  1  0  0  0  0
  9 11  1  1  0  0  0
 11 12  1  0  0  0  0
 13 14  1  1  0  0  0
 13 15  1  0  0  0  0
 13 21  1  0  0  0  0
 16 15  1  0  0  0  0
 16 17  1  6  0  0  0
 18  2  1  6  0  0  0
 18 16  1  0  0  0  0
 19 18  1  0  0  0  0
 19 20  1  1  0  0  0
 21 19  1  0  0  0  0
 21 22  1  1  0  0  0
 23 20  1  6  0  0  0
 23 24  1  0  0  0  0
 23 28  1  0  0  0  0
 24 25  1  1  0  0  0
 24 26  1  0  0  0  0
 26 27  1  0  0  0  0
 26 32  1  1  0  0  0
 27 28  1  0  0  0  0
 27 29  1  6  0  0  0
 29 30  1  0  0  0  0
 31 32  1  6  0  0  0
 31 40  1  0  0  0  0
 33 31  1  0  0  0  0
 33 42  1  6  0  0  0
 35 33  1  0  0  0  0
 35 36  1  6  0  0  0
 37 35  1  0  0  0  0
 37 38  1  6  0  0  0
 37 39  1  0  0  0  0
 39 40  1  0  0  0  0
 39 41  1  6  0  0  0
 41 34  1  0  0  0  0
M  END
>  <CHROM.1>
-160.66298430,-67.15052978,-168.84204370,172.88239653,163.48046634,172.92742655
53.95889265,179.38820570,-60.49073388,13.18483140,7.57715206,7.58152307,1.10329541
0.22247024,-0.95376689

>  <Name>
2et4_lig

>  <RI>
0

>  <Rbt.Current_Directory>
/home/itssahil/PROJECTS/Mol_Feturizer/New_Systems/rnas/2et4

>  <Rbt.Executable>
rbdock ($Id: //depot/dev/client3/rdock/2013.1/src/exe/rbdock.cxx#4 $)

>  <Rbt.Library>
libRbt.so (2013.1, Build901 2013/11/27)

>  <Rbt.Parameter_File>
/export/apps/rDock/src/rDock_2013.1_src/data/scripts/dock_solv.prm

>  <Rbt.Receptor>
prm/pocket_docking_2.prm

>  <SCORE>
-24.2496

>  <SCORE.INTER>
-17.0271

>  <SCORE.INTER.CONST>
1

>  <SCORE.INTER.POLAR>
-1.51626

>  <SCORE.INTER.ROT>
9

>  <SCORE.INTER.SOLV>
17.1256

>  <SCORE.INTER.VDW>
-21.6058

>  <SCORE.INTER.norm>
-0.405408

>  <SCORE.INTRA>
-7.27268

>  <SCORE.INTRA.DIHEDRAL>
-17.1483

>  <SCORE.INTRA.DIHEDRAL.0>
21.6909

>  <SCORE.INTRA.POLAR>
0

>  <SCORE.INTRA.POLAR.0>
0

>  <SCORE.INTRA.REPUL>
0

>  <SCORE.INTRA.REPUL.0>
0

>  <SCORE.INTRA.SOLV>
0.417004

>  <SCORE.INTRA.SOLV.lig_0>
-116.606

>  <SCORE.INTRA.VDW>
1.09294

>  <SCORE.INTRA.VDW.0>
-6.01229

>  <SCORE.INTRA.norm>
-0.173159

>  <SCORE.RESTR>
0.0502525

>  <SCORE.RESTR.CAVITY>
0.0502525

>  <SCORE.RESTR.norm>
0.00119649

>  <SCORE.SYSTEM>
0

>  <SCORE.SYSTEM.CONST>
0

>  <SCORE.SYSTEM.DIHEDRAL>
0

>  <SCORE.SYSTEM.SOLV>
0

>  <SCORE.SYSTEM.norm>
0

>  <SCORE.heavy>
42

>  <SCORE.norm>
-0.577371

>  <RMSD>
0.706

$$$$
2et4_lig
 OpenBabel11021811423D
libRbt.so/2013.1/901 2013/11/27
 42 45  0  0  0  0  0  0  0  0999 V2000
   13.7659    9.1531    5.1256 C   0  0  2  0  0  0  0  0  0  0  0  0
   14.8047    8.2800    4.6775 O   0  0  0  0  0  0  0  0  0  0  0  0
   12.5558    8.9470    4.1792 C   0  0  2  0  0  0  0  0  0  0  0  0
   12.1293    7.5709    4.1639 N   0  0  0  0  0  0  0  0  0  0  0  0
   12.9336    9.4317    2.7497 C   0  0  1  0  0  0  0  0  0  0  0  0
   11.8388    9.2603    1.9048 O   0  0  0  0  0  0  0  0  0  0  0  0
   13.3823   10.9283    2.8432 C   0  0  2  0  0  0  0  0  0  0  0  0
   13.7424   11.4088    1.5653 O   0  0  0  0  0  0  0  0  0  0  0  0
   14.5928   11.0854    3.8128 C   0  0  2  0  0  0  0  0  0  0  0  0
   14.2134   10.5745    5.0941 O   0  0  0  0  0  0  0  0  0  0  0  0
   15.0425   12.5756    3.9631 C   0  0  0  0  0  0  0  0  0  0  0  0
   15.7229   13.0499    2.8086 N   0  0  0  0  0  0  0  0  0  0  0  0
   17.6676    5.8173    6.7737 C   0  0  2  0  0  0  0  0  0  0  0  0
   18.8069    5.4363    7.6178 N   0  0  0  0  0  0  0  0  0  0  0  0
   18.1921    6.7133    5.5269 C   0  0  0  0  0  0  0  0  0  0  0  0
   16.9578    7.1332    4.6282 C   0  0  2  0  0  0  0  0  0  0  0  0
   17.3860    7.9721    3.4948 N   0  0  0  0  0  0  0  0  0  0  0  0
   15.9226    7.9202    5.5008 C   0  0  2  0  0  0  0  0  0  0  0  0
   15.4476    7.0554    6.7151 C   0  0  2  0  0  0  0  0  0  0  0  0
   14.5120    7.8729    7.4604 O   0  0  0  0  0  0  0  0  0  0  0  0
   16.6752    6.6562    7.5954 C   0  0  1  0  0  0  0  0  0  0  0  0
   16.2262    5.8799    8.6543 O   0  0  0  0  0  0  0  0  0  0  0  0
   13.7517    7.4483    8.4987 C   0  0  1  0  0  0  0  0  0  0  0  0
   13.2348    8.6472    9.3359 C   0  0  2  0  0  0  0  0  0  0  0  0
   14.1572    9.0895   10.2891 O   0  0  0  0  0  0  0  0  0  0  0  0
   11.9160    8.0660    9.8112 C   0  0  1  0  0  0  0  0  0  0  0  0
   11.3562    7.2322    8.6501 C   0  0  2  0  0  0  0  0  0  0  0  0
   12.5681    6.6949    8.1204 O   0  0  0  0  0  0  0  0  0  0  0  0
   10.5524    8.0331    7.5697 C   0  0  0  0  0  0  0  0  0  0  0  0
   11.4103    9.1047    7.0956 O   0  0  0  0  0  0  0  0  0  0  0  0
   11.1139    6.6574   11.6803 C   0  0  2  0  0  0  0  0  0  0  0  0
   12.2012    7.2280   11.0050 O   0  0  0  0  0  0  0  0  0  0  0  0
   11.5872    5.8708   12.9792 C   0  0  1  0  0  0  0  0  0  0  0  0
    7.9258    4.8498    9.0352 N   0  0  0  0  0  0  0  0  0  0  0  0
   10.2627    5.2402   13.6610 C   0  0  1  0  0  0  0  0  0  0  0  0
    9.3134    6.3765   13.9854 O   0  0  0  0  0  0  0  0  0  0  0  0
    9.5614    4.1947   12.6404 C   0  0  2  0  0  0  0  0  0  0  0  0
   10.4830    3.1156   12.3538 O   0  0  0  0  0  0  0  0  0  0  0  0
    9.1247    5.0288   11.3087 C   0  0  1  0  0  0  0  0  0  0  0  0
   10.3337    5.7071   10.7253 O   0  0  0  0  0  0  0  0  0  0  0  0
    8.4507    4.1144   10.2265 C   0  0  0  0  0  0  0  0  0  0  0  0
   12.6090    4.8363   12.6095 N   0  0  0  0  0  0  0  0  0  0  0  0
  1  2  1  6  0  0  0
  1  3  1  0  0  0  0
  1 10  1  0  0  0  0
  3  4  1  6  0  0  0
  3  5  1  0  0  0  0
  5  6  1  6  0  0  0
  5  7  1  0  0  0  0
  7  8  1  6  0  0  0
  7  9  1  0  0  0  0
  9 10  1  0  0  0  0
  9 11  1  1  0  0  0
 11 12  1  0  0  0  0
 13 14  1  1  0  0  0
 13 15  1  0  0  0  0
 13 21  1  0  0  0  0
 16 15  1  0  0  0  0
 16 17  1  6  0  0  0
 18  2  1  6  0  0  0
 18 16  1  0  0  0  0
 19 18  1  0  0  0  0
 19 20  1  1  0  0  0
 21 19  1  0  0  0  0
 21 22  1  1  0  0  0
 23 20  1  6  0  0  0
 23 24  1  0  0  0  0
 23 28  1  0  0  0  0
 24 25  1  1  0  0  0
 24 26  1  0  0  0  0
 26 27  1  0  0  0  0
 26 32  1  1  0  0  0
 27 28  1  0  0  0  0
 27 29  1  6  0  0  0
 29 30  1  0  0  0  0
 31 32  1  6  0  0  0
 31 40  1  0  0  0  0
 33 31  1  0  0  0  0
 33 42  1  6  0  0  0
 35 33  1  0  0  0  0
 35 36  1  6  0  0  0
 37 35  1  0  0  0  0
 37 38  1  6  0  0  0
 37 39  1  0  0  0  0
 39 40  1  0  0  0  0
 39 41  1  6  0  0  0
 41 34  1  0  0  0  0
M  END
>  <CHROM.1>
-162.35550823,-73.52881628,-171.69789124,172.01342219,161.48101207,175.60927137
54.63938422,-176.47668999,175.01071540,13.17965996,7.58700949,7.58897274
1.10270902,0.18306183,-0.98367200

>  <Name>
2et4_lig

>  <RI>
0

>  <Rbt.Current_Directory>
/home/itssahil/PROJECTS/Mol_Feturizer/New_Systems/rnas/2et4

>  <Rbt.Executable>
rbdock ($Id: //depot/dev/client3/rdock/2013.1/src/exe/rbdock.cxx#4 $)

>  <Rbt.Library>
libRbt.so (2013.1, Build901 2013/11/27)

>  <Rbt.Parameter_File>
/export/apps/rDock/src/rDock_2013.1_src/data/scripts/dock_solv.prm

>  <Rbt.Receptor>
prm/pocket_docking_2.prm

>  <SCORE>
-24.8809

>  <SCORE.INTER>
-16.8956

>  <SCORE.INTER.CONST>
1

>  <SCORE.INTER.POLAR>
-1.50794

>  <SCORE.INTER.ROT>
9

>  <SCORE.INTER.SOLV>
18.3847

>  <SCORE.INTER.VDW>
-21.9655

>  <SCORE.INTER.norm>
-0.402277

>  <SCORE.INTRA>
-7.99743

>  <SCORE.INTRA.DIHEDRAL>
-16.8843

>  <SCORE.INTRA.DIHEDRAL.0>
21.6909

>  <SCORE.INTRA.POLAR>
0

>  <SCORE.INTRA.POLAR.0>
0

>  <SCORE.INTRA.REPUL>
0

>  <SCORE.INTRA.REPUL.0>
0

>  <SCORE.INTRA.SOLV>
-1.41245

>  <SCORE.INTRA.SOLV.lig_0>
-116.606

>  <SCORE.INTRA.VDW>
1.15097

>  <SCORE.INTRA.VDW.0>
-6.01229

>  <SCORE.INTRA.norm>
-0.190415

>  <SCORE.RESTR>
0.0121428

>  <SCORE.RESTR.CAVITY>
0.0121428

>  <SCORE.RESTR.norm>
0.000289113

>  <SCORE.SYSTEM>
0

>  <SCORE.SYSTEM.CONST>
0

>  <SCORE.SYSTEM.DIHEDRAL>
0

>  <SCORE.SYSTEM.SOLV>
0

>  <SCORE.SYSTEM.norm>
0

>  <SCORE.heavy>
42

>  <SCORE.norm>
-0.592403

>  <RMSD>
0.707

$$$$
2et4_lig
 OpenBabel11021811423D
libRbt.so/2013.1/901 2013/11/27
 42 45  0  0  0  0  0  0  0  0999 V2000
   13.8388    9.3296    5.1215 C   0  0  2  0  0  0  0  0  0  0  0  0
   14.8178    8.3855    4.6830 O   0  0  0  0  0  0  0  0  0  0  0  0
   12.5874    9.1393    4.2268 C   0  0  2  0  0  0  0  0  0  0  0  0
   12.0949    7.7870    4.2934 N   0  0  0  0  0  0  0  0  0  0  0  0
   12.9375    9.5360    2.7635 C   0  0  1  0  0  0  0  0  0  0  0  0
   11.8065    9.3795    1.9646 O   0  0  0  0  0  0  0  0  0  0  0  0
   13.4608   11.0112    2.7683 C   0  0  2  0  0  0  0  0  0  0  0  0
   13.7983   11.4117    1.4572 O   0  0  0  0  0  0  0  0  0  0  0  0
   14.7109   11.1537    3.6886 C   0  0  2  0  0  0  0  0  0  0  0  0
   14.3528   10.7238    5.0053 O   0  0  0  0  0  0  0  0  0  0  0  0
   15.2370   12.6251    3.7504 C   0  0  0  0  0  0  0  0  0  0  0  0
   15.7272   13.0730    2.4934 N   0  0  0  0  0  0  0  0  0  0  0  0
   17.5678    5.7955    6.7769 C   0  0  2  0  0  0  0  0  0  0  0  0
   18.6905    5.3632    7.6186 N   0  0  0  0  0  0  0  0  0  0  0  0
   18.1300    6.6624    5.5261 C   0  0  0  0  0  0  0  0  0  0  0  0
   16.9141    7.1380    4.6301 C   0  0  2  0  0  0  0  0  0  0  0  0
   17.3778    7.9528    3.4931 N   0  0  0  0  0  0  0  0  0  0  0  0
   15.9201    7.9753    5.5038 C   0  0  2  0  0  0  0  0  0  0  0  0
   15.4086    7.1372    6.7219 C   0  0  2  0  0  0  0  0  0  0  0  0
   14.5152    7.9999    7.4679 O   0  0  0  0  0  0  0  0  0  0  0  0
   16.6188    6.6825    7.5994 C   0  0  1  0  0  0  0  0  0  0  0  0
   16.1370    5.9311    8.6619 O   0  0  0  0  0  0  0  0  0  0  0  0
   13.6643    7.5956    8.4420 C   0  0  1  0  0  0  0  0  0  0  0  0
   13.2011    8.7955    9.3087 C   0  0  2  0  0  0  0  0  0  0  0  0
   14.1008    9.1144   10.3303 O   0  0  0  0  0  0  0  0  0  0  0  0
   11.8138    8.3080    9.6837 C   0  0  1  0  0  0  0  0  0  0  0  0
   11.2544    7.5778    8.4547 C   0  0  2  0  0  0  0  0  0  0  0  0
   12.4461    6.9634    7.9644 O   0  0  0  0  0  0  0  0  0  0  0  0
   10.5827    8.4918    7.3739 C   0  0  0  0  0  0  0  0  0  0  0  0
    9.4813    9.1870    8.0164 O   0  0  0  0  0  0  0  0  0  0  0  0
   10.7981    7.0166   11.5335 C   0  0  2  0  0  0  0  0  0  0  0  0
   11.9601    7.3962   10.8482 O   0  0  0  0  0  0  0  0  0  0  0  0
   11.1416    6.1307   12.8091 C   0  0  1  0  0  0  0  0  0  0  0  0
    8.3390    3.7816    9.5578 N   0  0  0  0  0  0  0  0  0  0  0  0
    9.7357    5.7347   13.5043 C   0  0  1  0  0  0  0  0  0  0  0  0
    9.0119    7.0163   13.8666 O   0  0  0  0  0  0  0  0  0  0  0  0
    8.8419    4.8541   12.4787 C   0  0  2  0  0  0  0  0  0  0  0  0
    9.5494    3.6329   12.1557 O   0  0  0  0  0  0  0  0  0  0  0  0
    8.5424    5.7807   11.1704 C   0  0  1  0  0  0  0  0  0  0  0  0
    9.8448    6.2424   10.5766 O   0  0  0  0  0  0  0  0  0  0  0  0
    7.6982    5.0253   10.0850 C   0  0  0  0  0  0  0  0  0  0  0  0
   11.9544    4.9372   12.4020 N   0  0  0  0  0  0  0  0  0  0  0  0
  1  2  1  6  0  0  0
  1  3  1  0  0  0  0
  1 10  1  0  0  0  0
  3  4  1  6  0  0  0
  3  5  1  0  0  0  0
  5  6  1  6  0  0  0
  5  7  1  0  0  0  0
  7  8  1  6  0  0  0
  7  9  1  0  0  0  0
  9 10  1  0  0  0  0
  9 11  1  1  0  0  0
 11 12  1  0  0  0  0
 13 14  1  1  0  0  0
 13 15  1  0  0  0  0
 13 21  1  0  0  0  0
 16 15  1  0  0  0  0
 16 17  1  6  0  0  0
 18  2  1  6  0  0  0
 18 16  1  0  0  0  0
 19 18  1  0  0  0  0
 19 20  1  1  0  0  0
 21 19  1  0  0  0  0
 21 22  1  1  0  0  0
 23 20  1  6  0  0  0
 23 24  1  0  0  0  0
 23 28  1  0  0  0  0
 24 25  1  1  0  0  0
 24 26  1  0  0  0  0
 26 27  1  0  0  0  0
 26 32  1  1  0  0  0
 27 28  1  0  0  0  0
 27 29  1  6  0  0  0
 29 30  1  0  0  0  0
 31 32  1  6  0  0  0
 31 40  1  0  0  0  0
 33 31  1  0  0  0  0
 33 42  1  6  0  0  0
 35 33  1  0  0  0  0
 35 36  1  6  0  0  0
 37 35  1  0  0  0  0
 37 38  1  6  0  0  0
 37 39  1  0  0  0  0
 39 40  1  0  0  0  0
 39 41  1  6  0  0  0
 41 34  1  0  0  0  0
M  END
>  <CHROM.1>
-160.14441348,-65.17681178,-170.32482929,166.68634887,162.33682657,168.21867926
-59.68997206,-175.84549106,-59.62108768,12.98710864,7.76628506,7.55232169
1.02010356,0.22969587,-0.96994264

>  <Name>
2et4_lig

>  <RI>
0

>  <Rbt.Current_Directory>
/home/itssahil/PROJECTS/Mol_Feturizer/New_Systems/rnas/2et4

>  <Rbt.Executable>
rbdock ($Id: //depot/dev/client3/rdock/2013.1/src/exe/rbdock.cxx#4 $)

>  <Rbt.Library>
libRbt.so (2013.1, Build901 2013/11/27)

>  <Rbt.Parameter_File>
/export/apps/rDock/src/rDock_2013.1_src/data/scripts/dock_solv.prm

>  <Rbt.Receptor>
prm/pocket_docking_2.prm

>  <SCORE>
-24.5702

>  <SCORE.INTER>
-17.0798

>  <SCORE.INTER.CONST>
1

>  <SCORE.INTER.POLAR>
-1.41753

>  <SCORE.INTER.ROT>
9

>  <SCORE.INTER.SOLV>
16.8081

>  <SCORE.INTER.VDW>
-21.8641

>  <SCORE.INTER.norm>
-0.406661

>  <SCORE.INTRA>
-7.5215

>  <SCORE.INTRA.DIHEDRAL>
-16.1762

>  <SCORE.INTRA.DIHEDRAL.0>
21.6909

>  <SCORE.INTRA.POLAR>
0

>  <SCORE.INTRA.POLAR.0>
0

>  <SCORE.INTRA.REPUL>
0

>  <SCORE.INTRA.REPUL.0>
0

>  <SCORE.INTRA.SOLV>
-0.911686

>  <SCORE.INTRA.SOLV.lig_0>
-116.606

>  <SCORE.INTRA.VDW>
1.02243

>  <SCORE.INTRA.VDW.0>
-6.01229

>  <SCORE.INTRA.norm>
-0.179083

>  <SCORE.RESTR>
0.0310465

>  <SCORE.RESTR.CAVITY>
0.0310465

>  <SCORE.RESTR.norm>
0.000739203

>  <SCORE.SYSTEM>
0

>  <SCORE.SYSTEM.CONST>
0

>  <SCORE.SYSTEM.DIHEDRAL>
0

>  <SCORE.SYSTEM.SOLV>
0

>  <SCORE.SYSTEM.norm>
0

>  <SCORE.heavy>
42

>  <SCORE.norm>
-0.585005

>  <RMSD>
0.709

$$$$
2et4_lig
 OpenBabel11021811423D
libRbt.so/2013.1/901 2013/11/27
 42 45  0  0  0  0  0  0  0  0999 V2000
   13.8998    9.2844    5.1617 C   0  0  2  0  0  0  0  0  0  0  0  0
   14.8720    8.3477    4.6931 O   0  0  0  0  0  0  0  0  0  0  0  0
   12.6198    9.0782    4.3121 C   0  0  2  0  0  0  0  0  0  0  0  0
   12.1430    7.7216    4.4015 N   0  0  0  0  0  0  0  0  0  0  0  0
   12.9147    9.4717    2.8358 C   0  0  1  0  0  0  0  0  0  0  0  0
   11.7580    9.3007    2.0777 O   0  0  0  0  0  0  0  0  0  0  0  0
   13.4235   10.9517    2.8163 C   0  0  2  0  0  0  0  0  0  0  0  0
   13.7111   11.3496    1.4924 O   0  0  0  0  0  0  0  0  0  0  0  0
   14.7036   11.1103    3.6916 C   0  0  2  0  0  0  0  0  0  0  0  0
   14.3959   10.6829    5.0218 O   0  0  0  0  0  0  0  0  0  0  0  0
   15.2172   12.5869    3.7289 C   0  0  0  0  0  0  0  0  0  0  0  0
   15.7648   12.9963    2.4825 N   0  0  0  0  0  0  0  0  0  0  0  0
   17.7604    5.7978    6.6450 C   0  0  2  0  0  0  0  0  0  0  0  0
   18.9175    5.3817    7.4472 N   0  0  0  0  0  0  0  0  0  0  0  0
   18.2616    6.7199    5.4077 C   0  0  0  0  0  0  0  0  0  0  0  0
   17.0086    7.1776    4.5547 C   0  0  2  0  0  0  0  0  0  0  0  0
   17.4160    8.0408    3.4319 N   0  0  0  0  0  0  0  0  0  0  0  0
   16.0074    7.9535    5.4757 C   0  0  2  0  0  0  0  0  0  0  0  0
   15.5551    7.0629    6.6798 C   0  0  2  0  0  0  0  0  0  0  0  0
   14.6504    7.8714    7.4716 O   0  0  0  0  0  0  0  0  0  0  0  0
   16.8013    6.6265    7.5152 C   0  0  1  0  0  0  0  0  0  0  0  0
   16.3718    5.8280    8.5658 O   0  0  0  0  0  0  0  0  0  0  0  0
   13.8700    7.4165    8.4817 C   0  0  1  0  0  0  0  0  0  0  0  0
   13.2762    8.5936    9.2987 C   0  0  2  0  0  0  0  0  0  0  0  0
   14.1452    9.0709   10.2847 O   0  0  0  0  0  0  0  0  0  0  0  0
   11.9648    7.9608    9.7258 C   0  0  1  0  0  0  0  0  0  0  0  0
   11.4808    7.1067    8.5456 C   0  0  2  0  0  0  0  0  0  0  0  0
   12.7313    6.6177    8.0609 O   0  0  0  0  0  0  0  0  0  0  0  0
   10.6863    7.8763    7.4361 C   0  0  0  0  0  0  0  0  0  0  0  0
    9.5463    8.5079    8.0769 O   0  0  0  0  0  0  0  0  0  0  0  0
   11.1494    6.5302   11.5724 C   0  0  2  0  0  0  0  0  0  0  0  0
   12.2388    7.1337   10.9298 O   0  0  0  0  0  0  0  0  0  0  0  0
   11.5861    5.8624   12.9483 C   0  0  1  0  0  0  0  0  0  0  0  0
    8.2813    4.3363    8.8574 N   0  0  0  0  0  0  0  0  0  0  0  0
   10.2641    5.1828   13.5865 C   0  0  1  0  0  0  0  0  0  0  0  0
    9.2208    6.2663   13.7735 O   0  0  0  0  0  0  0  0  0  0  0  0
    9.7051    4.0279   12.5966 C   0  0  2  0  0  0  0  0  0  0  0  0
   10.7144    3.0016   12.4416 O   0  0  0  0  0  0  0  0  0  0  0  0
    9.3038    4.7433   11.1870 C   0  0  1  0  0  0  0  0  0  0  0  0
   10.5009    5.4685   10.6364 O   0  0  0  0  0  0  0  0  0  0  0  0
    8.7673    3.7171   10.1286 C   0  0  0  0  0  0  0  0  0  0  0  0
   12.6977    4.8826   12.7140 N   0  0  0  0  0  0  0  0  0  0  0  0
  1  2  1  6  0  0  0
  1  3  1  0  0  0  0
  1 10  1  0  0  0  0
  3  4  1  6  0  0  0
  3  5  1  0  0  0  0
  5  6  1  6  0  0  0
  5  7  1  0  0  0  0
  7  8  1  6  0  0  0
  7  9  1  0  0  0  0
  9 10  1  0  0  0  0
  9 11  1  1  0  0  0
 11 12  1  0  0  0  0
 13 14  1  1  0  0  0
 13 15  1  0  0  0  0
 13 21  1  0  0  0  0
 16 15  1  0  0  0  0
 16 17  1  6  0  0  0
 18  2  1  6  0  0  0
 18 16  1  0  0  0  0
 19 18  1  0  0  0  0
 19 20  1  1  0  0  0
 21 19  1  0  0  0  0
 21 22  1  1  0  0  0
 23 20  1  6  0  0  0
 23 24  1  0  0  0  0
 23 28  1  0  0  0  0
 24 25  1  1  0  0  0
 24 26  1  0  0  0  0
 26 27  1  0  0  0  0
 26 32  1  1  0  0  0
 27 28  1  0  0  0  0
 27 29  1  6  0  0  0
 29 30  1  0  0  0  0
 31 32  1  6  0  0  0
 31 40  1  0  0  0  0
 33 31  1  0  0  0  0
 33 42  1  6  0  0  0
 35 33  1  0  0  0  0
 35 36  1  6  0  0  0
 37 35  1  0  0  0  0
 37 38  1  6  0  0  0
 37 39  1  0  0  0  0
 39 40  1  0  0  0  0
 39 41  1  6  0  0  0
 41 34  1  0  0  0  0
M  END
>  <CHROM.1>
-160.25461051,-70.22929227,-167.76194505,168.96003939,167.50442905,175.04628393
-57.49259146,-171.80595596,175.28134522,13.21808234,7.52265443,7.56311780
1.09859279,0.18415706,-0.96421091

>  <Name>
2et4_lig

>  <RI>
0

>  <Rbt.Current_Directory>
/home/itssahil/PROJECTS/Mol_Feturizer/New_Systems/rnas/2et4

>  <Rbt.Executable>
rbdock ($Id: //depot/dev/client3/rdock/2013.1/src/exe/rbdock.cxx#4 $)

>  <Rbt.Library>
libRbt.so (2013.1, Build901 2013/11/27)

>  <Rbt.Parameter_File>
/export/apps/rDock/src/rDock_2013.1_src/data/scripts/dock_solv.prm

>  <Rbt.Receptor>
prm/pocket_docking_2.prm

>  <SCORE>
-25.3798

>  <SCORE.INTER>
-17.0339

>  <SCORE.INTER.CONST>
1

>  <SCORE.INTER.POLAR>
-1.51423

>  <SCORE.INTER.ROT>
9

>  <SCORE.INTER.SOLV>
17.1154

>  <SCORE.INTER.VDW>
-21.6137

>  <SCORE.INTER.norm>
-0.40557

>  <SCORE.INTRA>
-8.42524

>  <SCORE.INTRA.DIHEDRAL>
-16.8028

>  <SCORE.INTRA.DIHEDRAL.0>
21.6909

>  <SCORE.INTRA.POLAR>
0

>  <SCORE.INTRA.POLAR.0>
0

>  <SCORE.INTRA.REPUL>
0

>  <SCORE.INTRA.REPUL.0>
0

>  <SCORE.INTRA.SOLV>
-2.37681

>  <SCORE.INTRA.SOLV.lig_0>
-116.606

>  <SCORE.INTRA.VDW>
1.16456

>  <SCORE.INTRA.VDW.0>
-6.01229

>  <SCORE.INTRA.norm>
-0.200601

>  <SCORE.RESTR>
0.0794055

>  <SCORE.RESTR.CAVITY>
0.0794055

>  <SCORE.RESTR.norm>
0.00189061

>  <SCORE.SYSTEM>
0

>  <SCORE.SYSTEM.CONST>
0

>  <SCORE.SYSTEM.DIHEDRAL>
0

>  <SCORE.SYSTEM.SOLV>
0

>  <SCORE.SYSTEM.norm>
0

>  <SCORE.heavy>
42

>  <SCORE.norm>
-0.60428

>  <RMSD>
0.714

$$$$
2et4_lig
 OpenBabel11021811423D
libRbt.so/2013.1/901 2013/11/27
 42 45  0  0  0  0  0  0  0  0999 V2000
   13.8338    9.2963    5.2137 C   0  0  2  0  0  0  0  0  0  0  0  0
   14.8135    8.3731    4.7341 O   0  0  0  0  0  0  0  0  0  0  0  0
   12.5339    9.0425    4.4084 C   0  0  2  0  0  0  0  0  0  0  0  0
   12.0928    7.6772    4.5396 N   0  0  0  0  0  0  0  0  0  0  0  0
   12.7741    9.4121    2.9161 C   0  0  1  0  0  0  0  0  0  0  0  0
   11.5994    9.1984    2.1977 O   0  0  0  0  0  0  0  0  0  0  0  0
   13.2463   10.9029    2.8512 C   0  0  2  0  0  0  0  0  0  0  0  0
   13.4838   11.2800    1.5115 O   0  0  0  0  0  0  0  0  0  0  0  0
   14.5482   11.1096    3.6832 C   0  0  2  0  0  0  0  0  0  0  0  0
   14.2916   10.7028    5.0306 O   0  0  0  0  0  0  0  0  0  0  0  0
   15.0270   12.5983    3.6751 C   0  0  0  0  0  0  0  0  0  0  0  0
   16.4443   12.7061    3.6481 N   0  0  0  0  0  0  0  0  0  0  0  0
   17.6321    5.7611    6.7059 C   0  0  2  0  0  0  0  0  0  0  0  0
   18.7746    5.3199    7.5157 N   0  0  0  0  0  0  0  0  0  0  0  0
   18.1615    6.6709    5.4713 C   0  0  0  0  0  0  0  0  0  0  0  0
   16.9244    7.1557    4.6100 C   0  0  2  0  0  0  0  0  0  0  0  0
   17.3580    8.0087    3.4893 N   0  0  0  0  0  0  0  0  0  0  0  0
   15.9349    7.9544    5.5241 C   0  0  2  0  0  0  0  0  0  0  0  0
   15.4553    7.0750    6.7259 C   0  0  2  0  0  0  0  0  0  0  0  0
   14.5639    7.9040    7.5115 O   0  0  0  0  0  0  0  0  0  0  0  0
   16.6862    6.6116    7.5695 C   0  0  1  0  0  0  0  0  0  0  0  0
   16.2324    5.8237    8.6178 O   0  0  0  0  0  0  0  0  0  0  0  0
   13.7863    7.4721    8.5337 C   0  0  1  0  0  0  0  0  0  0  0  0
   13.2730    8.6637    9.3836 C   0  0  2  0  0  0  0  0  0  0  0  0
   14.1887    9.0801   10.3546 O   0  0  0  0  0  0  0  0  0  0  0  0
   11.9420    8.0904    9.8337 C   0  0  1  0  0  0  0  0  0  0  0  0
   11.3868    7.2815    8.6530 C   0  0  2  0  0  0  0  0  0  0  0  0
   12.5988    6.7385    8.1294 O   0  0  0  0  0  0  0  0  0  0  0  0
   10.6054    8.1085    7.5759 C   0  0  0  0  0  0  0  0  0  0  0  0
   11.4755    9.1866    7.1403 O   0  0  0  0  0  0  0  0  0  0  0  0
   11.0989    6.7294   11.7201 C   0  0  2  0  0  0  0  0  0  0  0  0
   12.2031    7.2306   11.0175 O   0  0  0  0  0  0  0  0  0  0  0  0
   11.5531    5.9237   13.0140 C   0  0  1  0  0  0  0  0  0  0  0  0
    6.8854    3.9143   10.7514 N   0  0  0  0  0  0  0  0  0  0  0  0
   10.2088    5.3769   13.7286 C   0  0  1  0  0  0  0  0  0  0  0  0
    9.3357    6.5693   14.0651 O   0  0  0  0  0  0  0  0  0  0  0  0
    9.4248    4.3688   12.7309 C   0  0  2  0  0  0  0  0  0  0  0  0
   10.2745    3.2352   12.4323 O   0  0  0  0  0  0  0  0  0  0  0  0
    9.0092    5.2194   11.4028 C   0  0  1  0  0  0  0  0  0  0  0  0
   10.2431    5.8214   10.7888 O   0  0  0  0  0  0  0  0  0  0  0  0
    8.2589    4.3403   10.3420 C   0  0  0  0  0  0  0  0  0  0  0  0
   12.5036    4.8283   12.6300 N   0  0  0  0  0  0  0  0  0  0  0  0
  1  2  1  6  0  0  0
  1  3  1  0  0  0  0
  1 10  1  0  0  0  0
  3  4  1  6  0  0  0
  3  5  1  0  0  0  0
  5  6  1  6  0  0  0
  5  7  1  0  0  0  0
  7  8  1  6  0  0  0
  7  9  1  0  0  0  0
  9 10  1  0  0  0  0
  9 11  1  1  0  0  0
 11 12  1  0  0  0  0
 13 14  1  1  0  0  0
 13 15  1  0  0  0  0
 13 21  1  0  0  0  0
 16 15  1  0  0  0  0
 16 17  1  6  0  0  0
 18  2  1  6  0  0  0
 18 16  1  0  0  0  0
 19 18  1  0  0  0  0
 19 20  1  1  0  0  0
 21 19  1  0  0  0  0
 21 22  1  1  0  0  0
 23 20  1  6  0  0  0
 23 24  1  0  0  0  0
 23 28  1  0  0  0  0
 24 25  1  1  0  0  0
 24 26  1  0  0  0  0
 26 27  1  0  0  0  0
 26 32  1  1  0  0  0
 27 28  1  0  0  0  0
 27 29  1  6  0  0  0
 29 30  1  0  0  0  0
 31 32  1  6  0  0  0
 31 40  1  0  0  0  0
 33 31  1  0  0  0  0
 33 42  1  6  0  0  0
 35 33  1  0  0  0  0
 35 36  1  6  0  0  0
 37 35  1  0  0  0  0
 37 38  1  6  0  0  0
 37 39  1  0  0  0  0
 39 40  1  0  0  0  0
 39 41  1  6  0  0  0
 41 34  1  0  0  0  0
M  END
>  <CHROM.1>
-156.01556668,-143.56967183,-170.00984191,170.30538394,164.37656886,171.74503986
53.99529212,-175.75260546,69.50037525,13.13740024,7.59919576,7.68249501,1.06821722
0.18313969,-0.98217367

>  <Name>
2et4_lig

>  <RI>
0

>  <Rbt.Current_Directory>
/home/itssahil/PROJECTS/Mol_Feturizer/New_Systems/rnas/2et4

>  <Rbt.Executable>
rbdock ($Id: //depot/dev/client3/rdock/2013.1/src/exe/rbdock.cxx#4 $)

>  <Rbt.Library>
libRbt.so (2013.1, Build901 2013/11/27)

>  <Rbt.Parameter_File>
/export/apps/rDock/src/rDock_2013.1_src/data/scripts/dock_solv.prm

>  <Rbt.Receptor>
prm/pocket_docking_2.prm

>  <SCORE>
-22.5445

>  <SCORE.INTER>
-16.5936

>  <SCORE.INTER.CONST>
1

>  <SCORE.INTER.POLAR>
-1.48217

>  <SCORE.INTER.ROT>
9

>  <SCORE.INTER.SOLV>
19.5502

>  <SCORE.INTER.VDW>
-22.2386

>  <SCORE.INTER.norm>
-0.395085

>  <SCORE.INTRA>
-6.00895

>  <SCORE.INTRA.DIHEDRAL>
-12.5776

>  <SCORE.INTRA.DIHEDRAL.0>
21.6909

>  <SCORE.INTRA.POLAR>
0

>  <SCORE.INTRA.POLAR.0>
0

>  <SCORE.INTRA.REPUL>
0

>  <SCORE.INTRA.REPUL.0>
0

>  <SCORE.INTRA.SOLV>
-1.49096

>  <SCORE.INTRA.SOLV.lig_0>
-116.606

>  <SCORE.INTRA.VDW>
1.02531

>  <SCORE.INTRA.VDW.0>
-6.01229

>  <SCORE.INTRA.norm>
-0.14307

>  <SCORE.RESTR>
0.0580884

>  <SCORE.RESTR.CAVITY>
0.0580884

>  <SCORE.RESTR.norm>
0.00138306

>  <SCORE.SYSTEM>
0

>  <SCORE.SYSTEM.CONST>
0

>  <SCORE.SYSTEM.DIHEDRAL>
0

>  <SCORE.SYSTEM.SOLV>
0

>  <SCORE.SYSTEM.norm>
0

>  <SCORE.heavy>
42

>  <SCORE.norm>
-0.536773

>  <RMSD>
0.720

$$$$
2et4_lig
 OpenBabel11021811423D
libRbt.so/2013.1/901 2013/11/27
 42 45  0  0  0  0  0  0  0  0999 V2000
   13.7975    9.3266    5.0908 C   0  0  2  0  0  0  0  0  0  0  0  0
   14.7960    8.3962    4.6672 O   0  0  0  0  0  0  0  0  0  0  0  0
   12.5686    9.1304    4.1668 C   0  0  2  0  0  0  0  0  0  0  0  0
   12.0889    7.7726    4.2120 N   0  0  0  0  0  0  0  0  0  0  0  0
   12.9471    9.5423    2.7148 C   0  0  1  0  0  0  0  0  0  0  0  0
   11.8360    9.3802    1.8895 O   0  0  0  0  0  0  0  0  0  0  0  0
   13.4546   11.0226    2.7427 C   0  0  2  0  0  0  0  0  0  0  0  0
   13.8171   11.4370    1.4425 O   0  0  0  0  0  0  0  0  0  0  0  0
   14.6822   11.1709    3.6918 C   0  0  2  0  0  0  0  0  0  0  0  0
   14.2993   10.7270    4.9968 O   0  0  0  0  0  0  0  0  0  0  0  0
   15.1912   12.6471    3.7767 C   0  0  0  0  0  0  0  0  0  0  0  0
   15.7468   13.0948    2.5471 N   0  0  0  0  0  0  0  0  0  0  0  0
   17.5458    5.8375    6.7995 C   0  0  2  0  0  0  0  0  0  0  0  0
   18.6596    5.4180    7.6593 N   0  0  0  0  0  0  0  0  0  0  0  0
   18.1174    6.7177    5.5622 C   0  0  0  0  0  0  0  0  0  0  0  0
   16.9108    7.1793    4.6467 C   0  0  2  0  0  0  0  0  0  0  0  0
   17.3827    8.0055    3.5213 N   0  0  0  0  0  0  0  0  0  0  0  0
   15.8894    7.9986    5.5059 C   0  0  2  0  0  0  0  0  0  0  0  0
   15.3687    7.1481    6.7114 C   0  0  2  0  0  0  0  0  0  0  0  0
   14.4498    7.9947    7.4448 O   0  0  0  0  0  0  0  0  0  0  0  0
   16.5697    6.7073    7.6085 C   0  0  1  0  0  0  0  0  0  0  0  0
   16.0801    5.9446    8.6593 O   0  0  0  0  0  0  0  0  0  0  0  0
   13.6581    7.5928    8.4686 C   0  0  1  0  0  0  0  0  0  0  0  0
   13.2601    8.7925    9.3673 C   0  0  2  0  0  0  0  0  0  0  0  0
   14.2245    9.0996   10.3320 O   0  0  0  0  0  0  0  0  0  0  0  0
   11.8949    8.3146    9.8265 C   0  0  1  0  0  0  0  0  0  0  0  0
   11.2537    7.5944    8.6319 C   0  0  2  0  0  0  0  0  0  0  0  0
   12.4072    6.9727    8.0656 O   0  0  0  0  0  0  0  0  0  0  0  0
   10.5233    8.5186    7.5990 C   0  0  0  0  0  0  0  0  0  0  0  0
    9.8525    7.6561    6.6424 O   0  0  0  0  0  0  0  0  0  0  0  0
   10.9755    6.9414   11.6678 C   0  0  2  0  0  0  0  0  0  0  0  0
   12.1061    7.3963   10.9758 O   0  0  0  0  0  0  0  0  0  0  0  0
   11.3838    6.1032   12.9564 C   0  0  1  0  0  0  0  0  0  0  0  0
    7.6831    5.4630    9.0138 N   0  0  0  0  0  0  0  0  0  0  0  0
   10.0112    5.6139   13.6587 C   0  0  1  0  0  0  0  0  0  0  0  0
    9.1935    6.8431   14.0021 O   0  0  0  0  0  0  0  0  0  0  0  0
    9.1861    4.6534   12.6473 C   0  0  2  0  0  0  0  0  0  0  0  0
    9.9830    3.4837   12.3424 O   0  0  0  0  0  0  0  0  0  0  0  0
    8.8187    5.5350   11.3254 C   0  0  1  0  0  0  0  0  0  0  0  0
   10.0831    6.0836   10.7236 O   0  0  0  0  0  0  0  0  0  0  0  0
    8.0336    4.7022   10.2522 C   0  0  0  0  0  0  0  0  0  0  0  0
   12.2837    4.9677   12.5669 N   0  0  0  0  0  0  0  0  0  0  0  0
  1  2  1  6  0  0  0
  1  3  1  0  0  0  0
  1 10  1  0  0  0  0
  3  4  1  6  0  0  0
  3  5  1  0  0  0  0
  5  6  1  6  0  0  0
  5  7  1  0  0  0  0
  7  8  1  6  0  0  0
  7  9  1  0  0  0  0
  9 10  1  0  0  0  0
  9 11  1  1  0  0  0
 11 12  1  0  0  0  0
 13 14  1  1  0  0  0
 13 15  1  0  0  0  0
 13 21  1  0  0  0  0
 16 15  1  0  0  0  0
 16 17  1  6  0  0  0
 18  2  1  6  0  0  0
 18 16  1  0  0  0  0
 19 18  1  0  0  0  0
 19 20  1  1  0  0  0
 21 19  1  0  0  0  0
 21 22  1  1  0  0  0
 23 20  1  6  0  0  0
 23 24  1  0  0  0  0
 23 28  1  0  0  0  0
 24 25  1  1  0  0  0
 24 26  1  0  0  0  0
 26 27  1  0  0  0  0
 26 32  1  1  0  0  0
 27 28  1  0  0  0  0
 27 29  1  6  0  0  0
 29 30  1  0  0  0  0
 31 32  1  6  0  0  0
 31 40  1  0  0  0  0
 33 31  1  0  0  0  0
 33 42  1  6  0  0  0
 35 33  1  0  0  0  0
 35 36  1  6  0  0  0
 37 35  1  0  0  0  0
 37 38  1  6  0  0  0
 37 39  1  0  0  0  0
 39 40  1  0  0  0  0
 39 41  1  6  0  0  0
 41 34  1  0  0  0  0
M  END
>  <CHROM.1>
-160.61985605,-67.19755017,-170.17432303,171.80711257,157.03113434,173.01835605
-173.30127062,-173.77432780,-179.48533591,13.04600130,7.74053338,7.55601536
1.06711282,0.17051983,-1.01497737

>  <Name>
2et4_lig

>  <RI>
0

>  <Rbt.Current_Directory>
/home/itssahil/PROJECTS/Mol_Feturizer/New_Systems/rnas/2et4

>  <Rbt.Executable>
rbdock ($Id: //depot/dev/client3/rdock/2013.1/src/exe/rbdock.cxx#4 $)

>  <Rbt.Library>
libRbt.so (2013.1, Build901 2013/11/27)

>  <Rbt.Parameter_File>
/export/apps/rDock/src/rDock_2013.1_src/data/scripts/dock_solv.prm

>  <Rbt.Receptor>
prm/pocket_docking_2.prm

>  <SCORE>
-24.4704

>  <SCORE.INTER>
-16.818

>  <SCORE.INTER.CONST>
1

>  <SCORE.INTER.POLAR>
-1.44577

>  <SCORE.INTER.ROT>
9

>  <SCORE.INTER.SOLV>
17.7814

>  <SCORE.INTER.VDW>
-21.9199

>  <SCORE.INTER.norm>
-0.400428

>  <SCORE.INTRA>
-7.6695

>  <SCORE.INTRA.DIHEDRAL>
-15.9683

>  <SCORE.INTRA.DIHEDRAL.0>
21.6909

>  <SCORE.INTRA.POLAR>
0

>  <SCORE.INTRA.POLAR.0>
0

>  <SCORE.INTRA.REPUL>
0

>  <SCORE.INTRA.REPUL.0>
0

>  <SCORE.INTRA.SOLV>
-1.66739

>  <SCORE.INTRA.SOLV.lig_0>
-116.606

>  <SCORE.INTRA.VDW>
1.14837

>  <SCORE.INTRA.VDW.0>
-6.01229

>  <SCORE.INTRA.norm>
-0.182607

>  <SCORE.RESTR>
0.0170482

>  <SCORE.RESTR.CAVITY>
0.0170482

>  <SCORE.RESTR.norm>
0.00040591

>  <SCORE.SYSTEM>
0

>  <SCORE.SYSTEM.CONST>
0

>  <SCORE.SYSTEM.DIHEDRAL>
0

>  <SCORE.SYSTEM.SOLV>
0

>  <SCORE.SYSTEM.norm>
0

>  <SCORE.heavy>
42

>  <SCORE.norm>
-0.582629

>  <RMSD>
0.722

$$$$
2et4_lig
 OpenBabel11021811423D
libRbt.so/2013.1/901 2013/11/27
 42 45  0  0  0  0  0  0  0  0999 V2000
   13.8334    9.1368    5.1470 C   0  0  2  0  0  0  0  0  0  0  0  0
   14.8597    8.2558    4.6858 O   0  0  0  0  0  0  0  0  0  0  0  0
   12.5995    8.9182    4.2347 C   0  0  2  0  0  0  0  0  0  0  0  0
   12.1715    7.5426    4.2507 N   0  0  0  0  0  0  0  0  0  0  0  0
   12.9415    9.3813    2.7891 C   0  0  1  0  0  0  0  0  0  0  0  0
   11.8255    9.1988    1.9748 O   0  0  0  0  0  0  0  0  0  0  0  0
   13.3938   10.8785    2.8490 C   0  0  2  0  0  0  0  0  0  0  0  0
   13.7218   11.3396    1.5555 O   0  0  0  0  0  0  0  0  0  0  0  0
   14.6285   11.0484    3.7852 C   0  0  2  0  0  0  0  0  0  0  0  0
   14.2812   10.5570    5.0831 O   0  0  0  0  0  0  0  0  0  0  0  0
   15.0832   12.5401    3.9020 C   0  0  0  0  0  0  0  0  0  0  0  0
   15.6556   13.0229    2.6935 N   0  0  0  0  0  0  0  0  0  0  0  0
   17.7660    5.7931    6.7213 C   0  0  2  0  0  0  0  0  0  0  0  0
   18.9188    5.4119    7.5469 N   0  0  0  0  0  0  0  0  0  0  0  0
   18.2681    6.7037    5.4760 C   0  0  0  0  0  0  0  0  0  0  0  0
   17.0194    7.1237    4.5976 C   0  0  2  0  0  0  0  0  0  0  0  0
   17.4271    7.9757    3.4664 N   0  0  0  0  0  0  0  0  0  0  0  0
   15.9907    7.8959    5.4910 C   0  0  2  0  0  0  0  0  0  0  0  0
   15.5374    7.0170    6.7034 C   0  0  2  0  0  0  0  0  0  0  0  0
   14.6066    7.8215    7.4685 O   0  0  0  0  0  0  0  0  0  0  0  0
   16.7792    6.6179    7.5637 C   0  0  1  0  0  0  0  0  0  0  0  0
   16.3492    5.8291    8.6213 O   0  0  0  0  0  0  0  0  0  0  0  0
   13.8350    7.3734    8.4884 C   0  0  1  0  0  0  0  0  0  0  0  0
   13.2041    8.5558    9.2691 C   0  0  2  0  0  0  0  0  0  0  0  0
   14.0546    9.0859   10.2441 O   0  0  0  0  0  0  0  0  0  0  0  0
   11.9094    7.8979    9.7094 C   0  0  1  0  0  0  0  0  0  0  0  0
   11.4554    6.9968    8.5524 C   0  0  2  0  0  0  0  0  0  0  0  0
   12.7216    6.5304    8.0866 O   0  0  0  0  0  0  0  0  0  0  0  0
   10.6441    7.7112    7.4184 C   0  0  0  0  0  0  0  0  0  0  0  0
    9.4614    8.2913    8.0297 O   0  0  0  0  0  0  0  0  0  0  0  0
   11.1215    6.5397   11.6214 C   0  0  2  0  0  0  0  0  0  0  0  0
   12.2017    7.1138   10.9377 O   0  0  0  0  0  0  0  0  0  0  0  0
   11.5955    5.8380   12.9678 C   0  0  1  0  0  0  0  0  0  0  0  0
    8.0924    4.4808    8.9964 N   0  0  0  0  0  0  0  0  0  0  0  0
   10.2803    5.1959   13.6568 C   0  0  1  0  0  0  0  0  0  0  0  0
    9.2855    6.3124   13.9043 O   0  0  0  0  0  0  0  0  0  0  0  0
    9.6368    4.0751   12.6790 C   0  0  2  0  0  0  0  0  0  0  0  0
   10.6013    3.0165   12.4657 O   0  0  0  0  0  0  0  0  0  0  0  0
    9.1984    4.8237   11.2980 C   0  0  1  0  0  0  0  0  0  0  0  0
   10.3945    5.5144   10.7027 O   0  0  0  0  0  0  0  0  0  0  0  0
    8.5789    3.8317   10.2524 C   0  0  0  0  0  0  0  0  0  0  0  0
   12.6602    4.8234   12.6712 N   0  0  0  0  0  0  0  0  0  0  0  0
  1  2  1  6  0  0  0
  1  3  1  0  0  0  0
  1 10  1  0  0  0  0
  3  4  1  6  0  0  0
  3  5  1  0  0  0  0
  5  6  1  6  0  0  0
  5  7  1  0  0  0  0
  7  8  1  6  0  0  0
  7  9  1  0  0  0  0
  9 10  1  0  0  0  0
  9 11  1  1  0  0  0
 11 12  1  0  0  0  0
 13 14  1  1  0  0  0
 13 15  1  0  0  0  0
 13 21  1  0  0  0  0
 16 15  1  0  0  0  0
 16 17  1  6  0  0  0
 18  2  1  6  0  0  0
 18 16  1  0  0  0  0
 19 18  1  0  0  0  0
 19 20  1  1  0  0  0
 21 19  1  0  0  0  0
 21 22  1  1  0  0  0
 23 20  1  6  0  0  0
 23 24  1  0  0  0  0
 23 28  1  0  0  0  0
 24 25  1  1  0  0  0
 24 26  1  0  0  0  0
 26 27  1  0  0  0  0
 26 32  1  1  0  0  0
 27 28  1  0  0  0  0
 27 29  1  6  0  0  0
 29 30  1  0  0  0  0
 31 32  1  6  0  0  0
 31 40  1  0  0  0  0
 33 31  1  0  0  0  0
 33 42  1  6  0  0  0
 35 33  1  0  0  0  0
 35 36  1  6  0  0  0
 37 35  1  0  0  0  0
 37 38  1  6  0  0  0
 37 39  1  0  0  0  0
 39 40  1  0  0  0  0
 39 41  1  6  0  0  0
 41 34  1  0  0  0  0
M  END
>  <CHROM.1>
-161.69293373,-69.66665145,-170.55749741,170.03254781,167.51409333,172.69700604
-59.28034044,-175.47863351,176.86263832,13.17704792,7.48380840,7.59520563
1.09278047,0.17340723,-0.97899951

>  <Name>
2et4_lig

>  <RI>
0

>  <Rbt.Current_Directory>
/home/itssahil/PROJECTS/Mol_Feturizer/New_Systems/rnas/2et4

>  <Rbt.Executable>
rbdock ($Id: //depot/dev/client3/rdock/2013.1/src/exe/rbdock.cxx#4 $)

>  <Rbt.Library>
libRbt.so (2013.1, Build901 2013/11/27)

>  <Rbt.Parameter_File>
/export/apps/rDock/src/rDock_2013.1_src/data/scripts/dock_solv.prm

>  <Rbt.Receptor>
prm/pocket_docking_2.prm

>  <SCORE>
-25.3413

>  <SCORE.INTER>
-16.545

>  <SCORE.INTER.CONST>
1

>  <SCORE.INTER.POLAR>
-1.535

>  <SCORE.INTER.ROT>
9

>  <SCORE.INTER.SOLV>
17.6129

>  <SCORE.INTER.VDW>
-21.3843

>  <SCORE.INTER.norm>
-0.393929

>  <SCORE.INTRA>
-8.79655

>  <SCORE.INTRA.DIHEDRAL>
-17.6059

>  <SCORE.INTRA.DIHEDRAL.0>
21.6909

>  <SCORE.INTRA.POLAR>
0

>  <SCORE.INTRA.POLAR.0>
0

>  <SCORE.INTRA.REPUL>
0

>  <SCORE.INTRA.REPUL.0>
0

>  <SCORE.INTRA.SOLV>
-2.5371

>  <SCORE.INTRA.SOLV.lig_0>
-116.606

>  <SCORE.INTRA.VDW>
1.27495

>  <SCORE.INTRA.VDW.0>
-6.01229

>  <SCORE.INTRA.norm>
-0.209442

>  <SCORE.RESTR>
0.00025841

>  <SCORE.RESTR.CAVITY>
0.00025841

>  <SCORE.RESTR.norm>
6.15263e-06

>  <SCORE.SYSTEM>
0

>  <SCORE.SYSTEM.CONST>
0

>  <SCORE.SYSTEM.DIHEDRAL>
0

>  <SCORE.SYSTEM.SOLV>
0

>  <SCORE.SYSTEM.norm>
0

>  <SCORE.heavy>
42

>  <SCORE.norm>
-0.603364

>  <RMSD>
0.730

$$$$
2et4_lig
 OpenBabel11021811423D
libRbt.so/2013.1/901 2013/11/27
 42 45  0  0  0  0  0  0  0  0999 V2000
   13.7607    9.2316    5.0472 C   0  0  2  0  0  0  0  0  0  0  0  0
   14.7743    8.3165    4.6261 O   0  0  0  0  0  0  0  0  0  0  0  0
   12.5588    9.0573    4.0841 C   0  0  2  0  0  0  0  0  0  0  0  0
   12.0834    7.6973    4.0781 N   0  0  0  0  0  0  0  0  0  0  0  0
   12.9760    9.5106    2.6552 C   0  0  1  0  0  0  0  0  0  0  0  0
   11.8891    9.3681    1.7950 O   0  0  0  0  0  0  0  0  0  0  0  0
   13.4768   10.9912    2.7383 C   0  0  2  0  0  0  0  0  0  0  0  0
   13.8738   11.4427    1.4608 O   0  0  0  0  0  0  0  0  0  0  0  0
   14.6768   11.1169    3.7252 C   0  0  2  0  0  0  0  0  0  0  0  0
   14.2594   10.6356    5.0061 O   0  0  0  0  0  0  0  0  0  0  0  0
   15.1774   12.5918    3.8652 C   0  0  0  0  0  0  0  0  0  0  0  0
   15.7779   13.0705    2.6688 N   0  0  0  0  0  0  0  0  0  0  0  0
   17.5722    5.8154    6.7641 C   0  0  2  0  0  0  0  0  0  0  0  0
   18.6946    5.4192    7.6237 N   0  0  0  0  0  0  0  0  0  0  0  0
   18.1263    6.7007    5.5224 C   0  0  0  0  0  0  0  0  0  0  0  0
   16.9103    7.1373    4.6070 C   0  0  2  0  0  0  0  0  0  0  0  0
   17.3657    7.9672    3.4776 N   0  0  0  0  0  0  0  0  0  0  0  0
   15.8758    7.9417    5.4646 C   0  0  2  0  0  0  0  0  0  0  0  0
   15.3721    7.0868    6.6742 C   0  0  2  0  0  0  0  0  0  0  0  0
   14.4395    7.9199    7.4058 O   0  0  0  0  0  0  0  0  0  0  0  0
   16.5821    6.6710    7.5712 C   0  0  1  0  0  0  0  0  0  0  0  0
   16.1077    5.9039    8.6257 O   0  0  0  0  0  0  0  0  0  0  0  0
   13.6770    7.5151    8.4503 C   0  0  1  0  0  0  0  0  0  0  0  0
   13.2537    8.7207    9.3296 C   0  0  2  0  0  0  0  0  0  0  0  0
   14.2222    9.0796   10.2720 O   0  0  0  0  0  0  0  0  0  0  0  0
   11.9120    8.2091    9.8204 C   0  0  1  0  0  0  0  0  0  0  0  0
   11.2765    7.4427    8.6518 C   0  0  2  0  0  0  0  0  0  0  0  0
   12.4409    6.8463    8.0806 O   0  0  0  0  0  0  0  0  0  0  0  0
   10.5008    8.3201    7.6111 C   0  0  0  0  0  0  0  0  0  0  0  0
    9.9144    7.4193    6.6345 O   0  0  0  0  0  0  0  0  0  0  0  0
   11.0654    6.8369   11.6971 C   0  0  2  0  0  0  0  0  0  0  0  0
   12.1704    7.3234   10.9856 O   0  0  0  0  0  0  0  0  0  0  0  0
   11.5166    6.0839   13.0234 C   0  0  1  0  0  0  0  0  0  0  0  0
    7.7650    5.0772    9.1644 N   0  0  0  0  0  0  0  0  0  0  0  0
   10.1719    5.5497   13.7466 C   0  0  1  0  0  0  0  0  0  0  0  0
    9.2840    6.7446   14.0320 O   0  0  0  0  0  0  0  0  0  0  0  0
    9.4065    4.4977   12.7802 C   0  0  2  0  0  0  0  0  0  0  0  0
   10.2700    3.3628   12.5303 O   0  0  0  0  0  0  0  0  0  0  0  0
    8.9937    5.2948   11.4185 C   0  0  1  0  0  0  0  0  0  0  0  0
   10.2267    5.8866   10.7929 O   0  0  0  0  0  0  0  0  0  0  0  0
    8.2613    4.3697   10.3845 C   0  0  0  0  0  0  0  0  0  0  0  0
   12.4813    4.9851   12.6876 N   0  0  0  0  0  0  0  0  0  0  0  0
  1  2  1  6  0  0  0
  1  3  1  0  0  0  0
  1 10  1  0  0  0  0
  3  4  1  6  0  0  0
  3  5  1  0  0  0  0
  5  6  1  6  0  0  0
  5  7  1  0  0  0  0
  7  8  1  6  0  0  0
  7  9  1  0  0  0  0
  9 10  1  0  0  0  0
  9 11  1  1  0  0  0
 11 12  1  0  0  0  0
 13 14  1  1  0  0  0
 13 15  1  0  0  0  0
 13 21  1  0  0  0  0
 16 15  1  0  0  0  0
 16 17  1  6  0  0  0
 18  2  1  6  0  0  0
 18 16  1  0  0  0  0
 19 18  1  0  0  0  0
 19 20  1  1  0  0  0
 21 19  1  0  0  0  0
 21 22  1  1  0  0  0
 23 20  1  6  0  0  0
 23 24  1  0  0  0  0
 23 28  1  0  0  0  0
 24 25  1  1  0  0  0
 24 26  1  0  0  0  0
 26 27  1  0  0  0  0
 26 32  1  1  0  0  0
 27 28  1  0  0  0  0
 27 29  1  6  0  0  0
 29 30  1  0  0  0  0
 31 32  1  6  0  0  0
 31 40  1  0  0  0  0
 33 31  1  0  0  0  0
 33 42  1  6  0  0  0
 35 33  1  0  0  0  0
 35 36  1  6  0  0  0
 37 35  1  0  0  0  0
 37 38  1  6  0  0  0
 37 39  1  0  0  0  0
 39 40  1  0  0  0  0
 39 41  1  6  0  0  0
 41 34  1  0  0  0  0
M  END
>  <CHROM.1>
-163.26025076,-67.81420195,-170.11906273,173.26195491,157.17134468,173.62963976
-176.86242332,-171.87672566,175.37831486,13.09706237,7.65045352,7.56693834
1.08934853,0.16247003,-1.01791025

>  <Name>
2et4_lig

>  <RI>
0

>  <Rbt.Current_Directory>
/home/itssahil/PROJECTS/Mol_Feturizer/New_Systems/rnas/2et4

>  <Rbt.Executable>
rbdock ($Id: //depot/dev/client3/rdock/2013.1/src/exe/rbdock.cxx#4 $)

>  <Rbt.Library>
libRbt.so (2013.1, Build901 2013/11/27)

>  <Rbt.Parameter_File>
/export/apps/rDock/src/rDock_2013.1_src/data/scripts/dock_solv.prm

>  <Rbt.Receptor>
prm/pocket_docking_2.prm

>  <SCORE>
-24.7608

>  <SCORE.INTER>
-16.6663

>  <SCORE.INTER.CONST>
1

>  <SCORE.INTER.POLAR>
-1.48683

>  <SCORE.INTER.ROT>
9

>  <SCORE.INTER.SOLV>
17.7032

>  <SCORE.INTER.VDW>
-21.6558

>  <SCORE.INTER.norm>
-0.396816

>  <SCORE.INTRA>
-8.13907

>  <SCORE.INTRA.DIHEDRAL>
-16.4059

>  <SCORE.INTRA.DIHEDRAL.0>
21.6909

>  <SCORE.INTRA.POLAR>
0

>  <SCORE.INTRA.POLAR.0>
0

>  <SCORE.INTRA.REPUL>
0

>  <SCORE.INTRA.REPUL.0>
0

>  <SCORE.INTRA.SOLV>
-2.4002

>  <SCORE.INTRA.SOLV.lig_0>
-116.606

>  <SCORE.INTRA.VDW>
1.26399

>  <SCORE.INTRA.VDW.0>
-6.01229

>  <SCORE.INTRA.norm>
-0.193787

>  <SCORE.RESTR>
0.0445362

>  <SCORE.RESTR.CAVITY>
0.0445362

>  <SCORE.RESTR.norm>
0.00106039

>  <SCORE.SYSTEM>
0

>  <SCORE.SYSTEM.CONST>
0

>  <SCORE.SYSTEM.DIHEDRAL>
0

>  <SCORE.SYSTEM.SOLV>
0

>  <SCORE.SYSTEM.norm>
0

>  <SCORE.heavy>
42

>  <SCORE.norm>
-0.589543

>  <RMSD>
0.742

$$$$
2et4_lig
 OpenBabel11021811423D
libRbt.so/2013.1/901 2013/11/27
 42 45  0  0  0  0  0  0  0  0999 V2000
   13.7413    9.2304    5.0725 C   0  0  2  0  0  0  0  0  0  0  0  0
   14.7606    8.3237    4.6470 O   0  0  0  0  0  0  0  0  0  0  0  0
   12.5372    9.0470    4.1137 C   0  0  2  0  0  0  0  0  0  0  0  0
   12.0728    7.6832    4.1086 N   0  0  0  0  0  0  0  0  0  0  0  0
   12.9455    9.5045    2.6836 C   0  0  1  0  0  0  0  0  0  0  0  0
   11.8566    9.3537    1.8273 O   0  0  0  0  0  0  0  0  0  0  0  0
   13.4346   10.9890    2.7658 C   0  0  2  0  0  0  0  0  0  0  0  0
   13.8232   11.4445    1.4871 O   0  0  0  0  0  0  0  0  0  0  0  0
   14.6373   11.1238    3.7483 C   0  0  2  0  0  0  0  0  0  0  0  0
   14.2285   10.6384    5.0305 O   0  0  0  0  0  0  0  0  0  0  0  0
   15.1265   12.6025    3.8874 C   0  0  0  0  0  0  0  0  0  0  0  0
   15.7155   13.0880    2.6880 N   0  0  0  0  0  0  0  0  0  0  0  0
   17.5564    5.8183    6.7828 C   0  0  2  0  0  0  0  0  0  0  0  0
   18.6778    5.4202    7.6428 N   0  0  0  0  0  0  0  0  0  0  0  0
   18.1117    6.7063    5.5437 C   0  0  0  0  0  0  0  0  0  0  0  0
   16.8967    7.1447    4.6278 C   0  0  2  0  0  0  0  0  0  0  0  0
   17.3534    7.9771    3.5008 N   0  0  0  0  0  0  0  0  0  0  0  0
   15.8612    7.9472    5.4860 C   0  0  2  0  0  0  0  0  0  0  0  0
   15.3562    7.0896    6.6932 C   0  0  2  0  0  0  0  0  0  0  0  0
   14.4226    7.9210    7.4255 O   0  0  0  0  0  0  0  0  0  0  0  0
   16.5652    6.6720    7.5906 C   0  0  1  0  0  0  0  0  0  0  0  0
   16.0897    5.9025    8.6430 O   0  0  0  0  0  0  0  0  0  0  0  0
   13.6660    7.5165    8.4744 C   0  0  1  0  0  0  0  0  0  0  0  0
   13.2509    8.7217    9.3579 C   0  0  2  0  0  0  0  0  0  0  0  0
   14.2262    9.0773   10.2946 O   0  0  0  0  0  0  0  0  0  0  0  0
   11.9113    8.2122    9.8567 C   0  0  1  0  0  0  0  0  0  0  0  0
   11.2668    7.4488    8.6911 C   0  0  2  0  0  0  0  0  0  0  0  0
   12.4262    6.8507    8.1117 O   0  0  0  0  0  0  0  0  0  0  0  0
   10.4862    8.3292    7.6567 C   0  0  0  0  0  0  0  0  0  0  0  0
   10.0876    7.4626    6.5616 O   0  0  0  0  0  0  0  0  0  0  0  0
   11.0734    6.8270   11.7277 C   0  0  2  0  0  0  0  0  0  0  0  0
   12.1753    7.3244   11.0190 O   0  0  0  0  0  0  0  0  0  0  0  0
   11.5288    6.0765   13.0540 C   0  0  1  0  0  0  0  0  0  0  0  0
    7.8546    5.0274    9.1558 N   0  0  0  0  0  0  0  0  0  0  0  0
   10.1875    5.5292   13.7738 C   0  0  1  0  0  0  0  0  0  0  0  0
    9.2882    6.7156   14.0589 O   0  0  0  0  0  0  0  0  0  0  0  0
    9.4337    4.4716   12.8046 C   0  0  2  0  0  0  0  0  0  0  0  0
   10.3080    3.3449   12.5551 O   0  0  0  0  0  0  0  0  0  0  0  0
    9.0164    5.2665   11.4431 C   0  0  1  0  0  0  0  0  0  0  0  0
   10.2452    5.8703   10.8206 O   0  0  0  0  0  0  0  0  0  0  0  0
    8.2944    4.3361   10.4065 C   0  0  0  0  0  0  0  0  0  0  0  0
   12.5041    4.9869   12.7187 N   0  0  0  0  0  0  0  0  0  0  0  0
  1  2  1  6  0  0  0
  1  3  1  0  0  0  0
  1 10  1  0  0  0  0
  3  4  1  6  0  0  0
  3  5  1  0  0  0  0
  5  6  1  6  0  0  0
  5  7  1  0  0  0  0
  7  8  1  6  0  0  0
  7  9  1  0  0  0  0
  9 10  1  0  0  0  0
  9 11  1  1  0  0  0
 11 12  1  0  0  0  0
 13 14  1  1  0  0  0
 13 15  1  0  0  0  0
 13 21  1  0  0  0  0
 16 15  1  0  0  0  0
 16 17  1  6  0  0  0
 18  2  1  6  0  0  0
 18 16  1  0  0  0  0
 19 18  1  0  0  0  0
 19 20  1  1  0  0  0
 21 19  1  0  0  0  0
 21 22  1  1  0  0  0
 23 20  1  6  0  0  0
 23 24  1  0  0  0  0
 23 28  1  0  0  0  0
 24 25  1  1  0  0  0
 24 26  1  0  0  0  0
 26 27  1  0  0  0  0
 26 32  1  1  0  0  0
 27 28  1  0  0  0  0
 27 29  1  6  0  0  0
 29 30  1  0  0  0  0
 31 32  1  6  0  0  0
 31 40  1  0  0  0  0
 33 31  1  0  0  0  0
 33 42  1  6  0  0  0
 35 33  1  0  0  0  0
 35 36  1  6  0  0  0
 37 35  1  0  0  0  0
 37 38  1  6  0  0  0
 37 39  1  0  0  0  0
 39 40  1  0  0  0  0
 39 41  1  6  0  0  0
 41 34  1  0  0  0  0
M  END
>  <CHROM.1>
-162.63604352,-67.65918024,-170.58227553,173.76087657,156.68192471,174.33994529
173.51682839,-171.70883702,178.27948445,13.09427926,7.64732454,7.58945101
1.09707112,0.16480519,-1.01638263

>  <Name>
2et4_lig

>  <RI>
0

>  <Rbt.Current_Directory>
/home/itssahil/PROJECTS/Mol_Feturizer/New_Systems/rnas/2et4

>  <Rbt.Executable>
rbdock ($Id: //depot/dev/client3/rdock/2013.1/src/exe/rbdock.cxx#4 $)

>  <Rbt.Library>
libRbt.so (2013.1, Build901 2013/11/27)

>  <Rbt.Parameter_File>
/export/apps/rDock/src/rDock_2013.1_src/data/scripts/dock_solv.prm

>  <Rbt.Receptor>
prm/pocket_docking_2.prm

>  <SCORE>
-24.7258

>  <SCORE.INTER>
-16.8075

>  <SCORE.INTER.CONST>
1

>  <SCORE.INTER.POLAR>
-1.48525

>  <SCORE.INTER.ROT>
9

>  <SCORE.INTER.SOLV>
17.8093

>  <SCORE.INTER.VDW>
-21.7906

>  <SCORE.INTER.norm>
-0.400179

>  <SCORE.INTRA>
-7.95907

>  <SCORE.INTRA.DIHEDRAL>
-16.2756

>  <SCORE.INTRA.DIHEDRAL.0>
21.6909

>  <SCORE.INTRA.POLAR>
0

>  <SCORE.INTRA.POLAR.0>
0

>  <SCORE.INTRA.REPUL>
0

>  <SCORE.INTRA.REPUL.0>
0

>  <SCORE.INTRA.SOLV>
-2.1543

>  <SCORE.INTRA.SOLV.lig_0>
-116.606

>  <SCORE.INTRA.VDW>
1.25588

>  <SCORE.INTRA.VDW.0>
-6.01229

>  <SCORE.INTRA.norm>
-0.189502

>  <SCORE.RESTR>
0.040762

>  <SCORE.RESTR.CAVITY>
0.040762

>  <SCORE.RESTR.norm>
0.000970524

>  <SCORE.SYSTEM>
0

>  <SCORE.SYSTEM.CONST>
0

>  <SCORE.SYSTEM.DIHEDRAL>
0

>  <SCORE.SYSTEM.SOLV>
0

>  <SCORE.SYSTEM.norm>
0

>  <SCORE.heavy>
42

>  <SCORE.norm>
-0.58871

>  <RMSD>
0.743

$$$$
2et4_lig
 OpenBabel11021811423D
libRbt.so/2013.1/901 2013/11/27
 42 45  0  0  0  0  0  0  0  0999 V2000
   13.8764    9.2064    5.1645 C   0  0  2  0  0  0  0  0  0  0  0  0
   14.8853    8.3151    4.6851 O   0  0  0  0  0  0  0  0  0  0  0  0
   12.6248    9.0016    4.2734 C   0  0  2  0  0  0  0  0  0  0  0  0
   12.1827    7.6305    4.2957 N   0  0  0  0  0  0  0  0  0  0  0  0
   12.9467    9.4623    2.8224 C   0  0  1  0  0  0  0  0  0  0  0  0
   11.8150    9.2923    2.0273 O   0  0  0  0  0  0  0  0  0  0  0  0
   13.4156   10.9547    2.8756 C   0  0  2  0  0  0  0  0  0  0  0  0
   13.7262   11.4134    1.5770 O   0  0  0  0  0  0  0  0  0  0  0  0
   14.6680   11.1108    3.7906 C   0  0  2  0  0  0  0  0  0  0  0  0
   14.3379   10.6218    5.0939 O   0  0  0  0  0  0  0  0  0  0  0  0
   15.1402   12.5975    3.9006 C   0  0  0  0  0  0  0  0  0  0  0  0
   15.6575   13.0887    2.6709 N   0  0  0  0  0  0  0  0  0  0  0  0
   17.7720    5.7913    6.6731 C   0  0  2  0  0  0  0  0  0  0  0  0
   18.9269    5.3857    7.4838 N   0  0  0  0  0  0  0  0  0  0  0  0
   18.2759    6.7023    5.4287 C   0  0  0  0  0  0  0  0  0  0  0  0
   17.0251    7.1487    4.5664 C   0  0  2  0  0  0  0  0  0  0  0  0
   17.4349    8.0017    3.4368 N   0  0  0  0  0  0  0  0  0  0  0  0
   16.0186    7.9313    5.4758 C   0  0  2  0  0  0  0  0  0  0  0  0
   15.5637    7.0515    6.6870 C   0  0  2  0  0  0  0  0  0  0  0  0
   14.6542    7.8657    7.4673 O   0  0  0  0  0  0  0  0  0  0  0  0
   16.8077    6.6262    7.5314 C   0  0  1  0  0  0  0  0  0  0  0  0
   16.3759    5.8372    8.5881 O   0  0  0  0  0  0  0  0  0  0  0  0
   13.8687    7.4185    8.4769 C   0  0  1  0  0  0  0  0  0  0  0  0
   13.2792    8.6015    9.2884 C   0  0  2  0  0  0  0  0  0  0  0  0
   14.1483    9.0774   10.2750 O   0  0  0  0  0  0  0  0  0  0  0  0
   11.9633    7.9772    9.7143 C   0  0  1  0  0  0  0  0  0  0  0  0
   11.4778    7.1217    8.5357 C   0  0  2  0  0  0  0  0  0  0  0  0
   12.7268    6.6243    8.0559 O   0  0  0  0  0  0  0  0  0  0  0  0
   10.6902    7.8918    7.4216 C   0  0  0  0  0  0  0  0  0  0  0  0
    9.5187    8.4808    8.0458 O   0  0  0  0  0  0  0  0  0  0  0  0
   11.1289    6.6478   11.6269 C   0  0  2  0  0  0  0  0  0  0  0  0
   12.2298    7.1527   10.9218 O   0  0  0  0  0  0  0  0  0  0  0  0
   11.5901    5.8112   12.8986 C   0  0  1  0  0  0  0  0  0  0  0  0
    6.9349    3.7780   10.7009 N   0  0  0  0  0  0  0  0  0  0  0  0
   10.2489    5.2628   13.6176 C   0  0  1  0  0  0  0  0  0  0  0  0
    9.3916    6.4564   13.9888 O   0  0  0  0  0  0  0  0  0  0  0  0
    9.4433    4.2832   12.6086 C   0  0  2  0  0  0  0  0  0  0  0  0
   10.2782    3.1478   12.2768 O   0  0  0  0  0  0  0  0  0  0  0  0
    9.0208    5.1650   11.3034 C   0  0  1  0  0  0  0  0  0  0  0  0
   10.2534    5.7676   10.6874 O   0  0  0  0  0  0  0  0  0  0  0  0
    8.2495    4.3154   10.2336 C   0  0  0  0  0  0  0  0  0  0  0  0
   12.5252    4.7149   12.4809 N   0  0  0  0  0  0  0  0  0  0  0  0
  1  2  1  6  0  0  0
  1  3  1  0  0  0  0
  1 10  1  0  0  0  0
  3  4  1  6  0  0  0
  3  5  1  0  0  0  0
  5  6  1  6  0  0  0
  5  7  1  0  0  0  0
  7  8  1  6  0  0  0
  7  9  1  0  0  0  0
  9 10  1  0  0  0  0
  9 11  1  1  0  0  0
 11 12  1  0  0  0  0
 13 14  1  1  0  0  0
 13 15  1  0  0  0  0
 13 21  1  0  0  0  0
 16 15  1  0  0  0  0
 16 17  1  6  0  0  0
 18  2  1  6  0  0  0
 18 16  1  0  0  0  0
 19 18  1  0  0  0  0
 19 20  1  1  0  0  0
 21 19  1  0  0  0  0
 21 22  1  1  0  0  0
 23 20  1  6  0  0  0
 23 24  1  0  0  0  0
 23 28  1  0  0  0  0
 24 25  1  1  0  0  0
 24 26  1  0  0  0  0
 26 27  1  0  0  0  0
 26 32  1  1  0  0  0
 27 28  1  0  0  0  0
 27 29  1  6  0  0  0
 29 30  1  0  0  0  0
 31 32  1  6  0  0  0
 31 40  1  0  0  0  0
 33 31  1  0  0  0  0
 33 42  1  6  0  0  0
 35 33  1  0  0  0  0
 35 36  1  6  0  0  0
 37 35  1  0  0  0  0
 37 38  1  6  0  0  0
 37 39  1  0  0  0  0
 39 40  1  0  0  0  0
 39 41  1  6  0  0  0
 41 34  1  0  0  0  0
M  END
>  <CHROM.1>
-160.99502070,-67.79164186,-170.74830596,168.80852635,167.02506452,169.92442959
-60.05183360,-179.09520919,63.62389874,13.14187302,7.54922537,7.62154394
1.05924532,0.18630219,-0.96761382

>  <Name>
2et4_lig

>  <RI>
0

>  <Rbt.Current_Directory>
/home/itssahil/PROJECTS/Mol_Feturizer/New_Systems/rnas/2et4

>  <Rbt.Executable>
rbdock ($Id: //depot/dev/client3/rdock/2013.1/src/exe/rbdock.cxx#4 $)

>  <Rbt.Library>
libRbt.so (2013.1, Build901 2013/11/27)

>  <Rbt.Parameter_File>
/export/apps/rDock/src/rDock_2013.1_src/data/scripts/dock_solv.prm

>  <Rbt.Receptor>
prm/pocket_docking_2.prm

>  <SCORE>
-25.2074

>  <SCORE.INTER>
-16.6119

>  <SCORE.INTER.CONST>
1

>  <SCORE.INTER.POLAR>
-1.50978

>  <SCORE.INTER.ROT>
9

>  <SCORE.INTER.SOLV>
17.6666

>  <SCORE.INTER.VDW>
-21.5308

>  <SCORE.INTER.norm>
-0.395521

>  <SCORE.INTRA>
-8.62048

>  <SCORE.INTRA.DIHEDRAL>
-17.311

>  <SCORE.INTRA.DIHEDRAL.0>
21.6909

>  <SCORE.INTRA.POLAR>
0

>  <SCORE.INTRA.POLAR.0>
0

>  <SCORE.INTRA.REPUL>
0

>  <SCORE.INTRA.REPUL.0>
0

>  <SCORE.INTRA.SOLV>
-2.53097

>  <SCORE.INTRA.SOLV.lig_0>
-116.606

>  <SCORE.INTRA.VDW>
1.3005

>  <SCORE.INTRA.VDW.0>
-6.01229

>  <SCORE.INTRA.norm>
-0.205249

>  <SCORE.RESTR>
0.0249559

>  <SCORE.RESTR.CAVITY>
0.0249559

>  <SCORE.RESTR.norm>
0.000594188

>  <SCORE.SYSTEM>
0

>  <SCORE.SYSTEM.CONST>
0

>  <SCORE.SYSTEM.DIHEDRAL>
0

>  <SCORE.SYSTEM.SOLV>
0

>  <SCORE.SYSTEM.norm>
0

>  <SCORE.heavy>
42

>  <SCORE.norm>
-0.600176

>  <RMSD>
0.747

$$$$
2et4_lig
 OpenBabel11021811423D
libRbt.so/2013.1/901 2013/11/27
 42 45  0  0  0  0  0  0  0  0999 V2000
   13.9335    9.3010    5.1681 C   0  0  2  0  0  0  0  0  0  0  0  0
   14.8954    8.3983    4.6186 O   0  0  0  0  0  0  0  0  0  0  0  0
   12.5962    9.0520    4.4248 C   0  0  2  0  0  0  0  0  0  0  0  0
   12.1745    7.6799    4.5480 N   0  0  0  0  0  0  0  0  0  0  0  0
   12.7563    9.4564    2.9308 C   0  0  1  0  0  0  0  0  0  0  0  0
   11.5482    9.2468    2.2688 O   0  0  0  0  0  0  0  0  0  0  0  0
   13.2115   10.9529    2.8751 C   0  0  2  0  0  0  0  0  0  0  0  0
   13.3766   11.3614    1.5337 O   0  0  0  0  0  0  0  0  0  0  0  0
   14.5525   11.1543    3.6438 C   0  0  2  0  0  0  0  0  0  0  0  0
   14.3689   10.7157    4.9932 O   0  0  0  0  0  0  0  0  0  0  0  0
   15.0172   12.6475    3.6444 C   0  0  0  0  0  0  0  0  0  0  0  0
   16.4324   12.7691    3.7044 N   0  0  0  0  0  0  0  0  0  0  0  0
   17.9792    5.8749    6.2851 C   0  0  2  0  0  0  0  0  0  0  0  0
   19.1921    5.4670    7.0050 N   0  0  0  0  0  0  0  0  0  0  0  0
   18.3786    6.8786    5.0747 C   0  0  0  0  0  0  0  0  0  0  0  0
   17.0657    7.3265    4.3111 C   0  0  2  0  0  0  0  0  0  0  0  0
   17.3798    8.2618    3.2165 N   0  0  0  0  0  0  0  0  0  0  0  0
   16.0847    8.0124    5.3211 C   0  0  2  0  0  0  0  0  0  0  0  0
   15.7312    7.0438    6.4977 C   0  0  2  0  0  0  0  0  0  0  0  0
   14.8385    7.7728    7.3757 O   0  0  0  0  0  0  0  0  0  0  0  0
   17.0355    6.6177    7.2451 C   0  0  1  0  0  0  0  0  0  0  0  0
   16.6931    5.7498    8.2723 O   0  0  0  0  0  0  0  0  0  0  0  0
   14.1534    7.2410    8.4169 C   0  0  1  0  0  0  0  0  0  0  0  0
   13.5138    8.3538    9.2877 C   0  0  2  0  0  0  0  0  0  0  0  0
   14.3950    8.8841   10.2350 O   0  0  0  0  0  0  0  0  0  0  0  0
   12.2823    7.6110    9.7719 C   0  0  1  0  0  0  0  0  0  0  0  0
   11.8036    6.7390    8.6026 C   0  0  2  0  0  0  0  0  0  0  0  0
   13.0605    6.3597    8.0420 O   0  0  0  0  0  0  0  0  0  0  0  0
   10.8906    7.4592    7.5526 C   0  0  0  0  0  0  0  0  0  0  0  0
    9.7523    8.0065    8.2695 O   0  0  0  0  0  0  0  0  0  0  0  0
   11.6737    6.2284   11.7314 C   0  0  2  0  0  0  0  0  0  0  0  0
   12.6870    6.7901   10.9428 O   0  0  0  0  0  0  0  0  0  0  0  0
   12.2604    5.1607   12.7539 C   0  0  1  0  0  0  0  0  0  0  0  0
    9.0177    3.2438    9.6316 N   0  0  0  0  0  0  0  0  0  0  0  0
   11.0092    4.5664   13.5893 C   0  0  1  0  0  0  0  0  0  0  0  0
   10.3190    5.7204   14.2888 O   0  0  0  0  0  0  0  0  0  0  0  0
    9.9796    3.8203   12.5844 C   0  0  2  0  0  0  0  0  0  0  0  0
   10.6586    2.7179   11.9365 O   0  0  0  0  0  0  0  0  0  0  0  0
    9.4293    4.9363   11.5301 C   0  0  1  0  0  0  0  0  0  0  0  0
   10.5941    5.5717   10.8219 O   0  0  0  0  0  0  0  0  0  0  0  0
    8.4342    4.3268   10.4815 C   0  0  0  0  0  0  0  0  0  0  0  0
   13.0277    4.1064   12.0120 N   0  0  0  0  0  0  0  0  0  0  0  0
  1  2  1  6  0  0  0
  1  3  1  0  0  0  0
  1 10  1  0  0  0  0
  3  4  1  6  0  0  0
  3  5  1  0  0  0  0
  5  6  1  6  0  0  0
  5  7  1  0  0  0  0
  7  8  1  6  0  0  0
  7  9  1  0  0  0  0
  9 10  1  0  0  0  0
  9 11  1  1  0  0  0
 11 12  1  0  0  0  0
 13 14  1  1  0  0  0
 13 15  1  0  0  0  0
 13 21  1  0  0  0  0
 16 15  1  0  0  0  0
 16 17  1  6  0  0  0
 18  2  1  6  0  0  0
 18 16  1  0  0  0  0
 19 18  1  0  0  0  0
 19 20  1  1  0  0  0
 21 19  1  0  0  0  0
 21 22  1  1  0  0  0
 23 20  1  6  0  0  0
 23 24  1  0  0  0  0
 23 28  1  0  0  0  0
 24 25  1  1  0  0  0
 24 26  1  0  0  0  0
 26 27  1  0  0  0  0
 26 32  1  1  0  0  0
 27 28  1  0  0  0  0
 27 29  1  6  0  0  0
 29 30  1  0  0  0  0
 31 32  1  6  0  0  0
 31 40  1  0  0  0  0
 33 31  1  0  0  0  0
 33 42  1  6  0  0  0
 35 33  1  0  0  0  0
 35 36  1  6  0  0  0
 37 35  1  0  0  0  0
 37 38  1  6  0  0  0
 37 39  1  0  0  0  0
 39 40  1  0  0  0  0
 39 41  1  6  0  0  0
 41 34  1  0  0  0  0
M  END
>  <CHROM.1>
-158.40636212,-150.41019781,-165.79328924,170.52521620,169.32586274,167.14184265
-56.55084269,168.77846234,-60.29578488,13.40496919,7.37703459,7.57028124
1.12752633,0.16886349,-0.94691603

>  <Name>
2et4_lig

>  <RI>
0

>  <Rbt.Current_Directory>
/home/itssahil/PROJECTS/Mol_Feturizer/New_Systems/rnas/2et4

>  <Rbt.Executable>
rbdock ($Id: //depot/dev/client3/rdock/2013.1/src/exe/rbdock.cxx#4 $)

>  <Rbt.Library>
libRbt.so (2013.1, Build901 2013/11/27)

>  <Rbt.Parameter_File>
/export/apps/rDock/src/rDock_2013.1_src/data/scripts/dock_solv.prm

>  <Rbt.Receptor>
prm/pocket_docking_2.prm

>  <SCORE>
-23.707

>  <SCORE.INTER>
-17.6834

>  <SCORE.INTER.CONST>
1

>  <SCORE.INTER.POLAR>
-1.62783

>  <SCORE.INTER.ROT>
9

>  <SCORE.INTER.SOLV>
21.2706

>  <SCORE.INTER.VDW>
-23.053

>  <SCORE.INTER.norm>
-0.421033

>  <SCORE.INTRA>
-6.44292

>  <SCORE.INTRA.DIHEDRAL>
-13.5199

>  <SCORE.INTRA.DIHEDRAL.0>
21.6909

>  <SCORE.INTRA.POLAR>
0

>  <SCORE.INTRA.POLAR.0>
0

>  <SCORE.INTRA.REPUL>
0

>  <SCORE.INTRA.REPUL.0>
0

>  <SCORE.INTRA.SOLV>
-1.46475

>  <SCORE.INTRA.SOLV.lig_0>
-116.606

>  <SCORE.INTRA.VDW>
1.04942

>  <SCORE.INTRA.VDW.0>
-6.01229

>  <SCORE.INTRA.norm>
-0.153403

>  <SCORE.RESTR>
0.419262

>  <SCORE.RESTR.CAVITY>
0.419262

>  <SCORE.RESTR.norm>
0.00998242

>  <SCORE.SYSTEM>
0

>  <SCORE.SYSTEM.CONST>
0

>  <SCORE.SYSTEM.DIHEDRAL>
0

>  <SCORE.SYSTEM.SOLV>
0

>  <SCORE.SYSTEM.norm>
0

>  <SCORE.heavy>
42

>  <SCORE.norm>
-0.564453

>  <RMSD>
0.752

$$$$
2et4_lig
 OpenBabel11021811423D
libRbt.so/2013.1/901 2013/11/27
 42 45  0  0  0  0  0  0  0  0999 V2000
   13.8485    9.2337    5.1634 C   0  0  2  0  0  0  0  0  0  0  0  0
   14.8468    8.3282    4.6884 O   0  0  0  0  0  0  0  0  0  0  0  0
   12.5916    9.0333    4.2787 C   0  0  2  0  0  0  0  0  0  0  0  0
   12.1362    7.6669    4.3149 N   0  0  0  0  0  0  0  0  0  0  0  0
   12.9127    9.4777    2.8225 C   0  0  1  0  0  0  0  0  0  0  0  0
   11.7765    9.3118    2.0330 O   0  0  0  0  0  0  0  0  0  0  0  0
   13.3965   10.9658    2.8605 C   0  0  2  0  0  0  0  0  0  0  0  0
   13.7068   11.4097    1.5566 O   0  0  0  0  0  0  0  0  0  0  0  0
   14.6537   11.1178    3.7695 C   0  0  2  0  0  0  0  0  0  0  0  0
   14.3237   10.6438    5.0784 O   0  0  0  0  0  0  0  0  0  0  0  0
   15.1410   12.6007    3.8644 C   0  0  0  0  0  0  0  0  0  0  0  0
   15.7228   13.0532    2.6487 N   0  0  0  0  0  0  0  0  0  0  0  0
   17.7416    5.8078    6.6689 C   0  0  2  0  0  0  0  0  0  0  0  0
   18.8993    5.4035    7.4763 N   0  0  0  0  0  0  0  0  0  0  0  0
   18.2409    6.7184    5.4225 C   0  0  0  0  0  0  0  0  0  0  0  0
   16.9871    7.1633    4.5638 C   0  0  2  0  0  0  0  0  0  0  0  0
   17.3927    8.0160    3.4324 N   0  0  0  0  0  0  0  0  0  0  0  0
   15.9828    7.9457    5.4758 C   0  0  2  0  0  0  0  0  0  0  0  0
   15.5323    7.0663    6.6889 C   0  0  2  0  0  0  0  0  0  0  0  0
   14.6246    7.8802    7.4716 O   0  0  0  0  0  0  0  0  0  0  0  0
   16.7792    6.6425    7.5297 C   0  0  1  0  0  0  0  0  0  0  0  0
   16.3514    5.8537    8.5883 O   0  0  0  0  0  0  0  0  0  0  0  0
   13.8432    7.4332    8.4844 C   0  0  1  0  0  0  0  0  0  0  0  0
   13.2560    8.6163    9.2973 C   0  0  2  0  0  0  0  0  0  0  0  0
   14.1284    9.0934   10.2803 O   0  0  0  0  0  0  0  0  0  0  0  0
   11.9421    7.9915    9.7286 C   0  0  1  0  0  0  0  0  0  0  0  0
   11.4527    7.1348    8.5524 C   0  0  2  0  0  0  0  0  0  0  0  0
   12.7003    6.6380    8.0682 O   0  0  0  0  0  0  0  0  0  0  0  0
   10.6605    7.9037    7.4407 C   0  0  0  0  0  0  0  0  0  0  0  0
    9.5118    8.5247    8.0763 O   0  0  0  0  0  0  0  0  0  0  0  0
   11.1159    6.6977   11.6690 C   0  0  2  0  0  0  0  0  0  0  0  0
   12.2137    7.1679   10.9356 O   0  0  0  0  0  0  0  0  0  0  0  0
   11.5829    5.8416   12.9254 C   0  0  1  0  0  0  0  0  0  0  0  0
    6.7845    4.0127   10.8344 N   0  0  0  0  0  0  0  0  0  0  0  0
   10.2439    5.3359   13.6791 C   0  0  1  0  0  0  0  0  0  0  0  0
    9.4376    6.5563   14.0767 O   0  0  0  0  0  0  0  0  0  0  0  0
    9.3789    4.3875   12.6898 C   0  0  2  0  0  0  0  0  0  0  0  0
   10.1659    3.2259   12.3325 O   0  0  0  0  0  0  0  0  0  0  0  0
    8.9512    5.2876   11.3989 C   0  0  1  0  0  0  0  0  0  0  0  0
   10.1863    5.8507   10.7512 O   0  0  0  0  0  0  0  0  0  0  0  0
    8.1231    4.4681   10.3482 C   0  0  0  0  0  0  0  0  0  0  0  0
   12.4690    4.7160   12.4797 N   0  0  0  0  0  0  0  0  0  0  0  0
  1  2  1  6  0  0  0
  1  3  1  0  0  0  0
  1 10  1  0  0  0  0
  3  4  1  6  0  0  0
  3  5  1  0  0  0  0
  5  6  1  6  0  0  0
  5  7  1  0  0  0  0
  7  8  1  6  0  0  0
  7  9  1  0  0  0  0
  9 10  1  0  0  0  0
  9 11  1  1  0  0  0
 11 12  1  0  0  0  0
 13 14  1  1  0  0  0
 13 15  1  0  0  0  0
 13 21  1  0  0  0  0
 16 15  1  0  0  0  0
 16 17  1  6  0  0  0
 18  2  1  6  0  0  0
 18 16  1  0  0  0  0
 19 18  1  0  0  0  0
 19 20  1  1  0  0  0
 21 19  1  0  0  0  0
 21 22  1  1  0  0  0
 23 20  1  6  0  0  0
 23 24  1  0  0  0  0
 23 28  1  0  0  0  0
 24 25  1  1  0  0  0
 24 26  1  0  0  0  0
 26 27  1  0  0  0  0
 26 32  1  1  0  0  0
 27 28  1  0  0  0  0
 27 29  1  6  0  0  0
 29 30  1  0  0  0  0
 31 32  1  6  0  0  0
 31 40  1  0  0  0  0
 33 31  1  0  0  0  0
 33 42  1  6  0  0  0
 35 33  1  0  0  0  0
 35 36  1  6  0  0  0
 37 35  1  0  0  0  0
 37 38  1  6  0  0  0
 37 39  1  0  0  0  0
 39 40  1  0  0  0  0
 39 41  1  6  0  0  0
 41 34  1  0  0  0  0
M  END
>  <CHROM.1>
-161.32907059,-70.87766383,-169.84124076,168.85169044,166.98480292,167.96762368
-58.43191910,-179.81988378,65.58357710,13.10950300,7.58473654,7.64000232
1.05543364,0.19085098,-0.97599926

>  <Name>
2et4_lig

>  <RI>
0

>  <Rbt.Current_Directory>
/home/itssahil/PROJECTS/Mol_Feturizer/New_Systems/rnas/2et4

>  <Rbt.Executable>
rbdock ($Id: //depot/dev/client3/rdock/2013.1/src/exe/rbdock.cxx#4 $)

>  <Rbt.Library>
libRbt.so (2013.1, Build901 2013/11/27)

>  <Rbt.Parameter_File>
/export/apps/rDock/src/rDock_2013.1_src/data/scripts/dock_solv.prm

>  <Rbt.Receptor>
prm/pocket_docking_2.prm

>  <SCORE>
-25.3082

>  <SCORE.INTER>
-16.8938

>  <SCORE.INTER.CONST>
1

>  <SCORE.INTER.POLAR>
-1.51056

>  <SCORE.INTER.ROT>
9

>  <SCORE.INTER.SOLV>
17.5837

>  <SCORE.INTER.VDW>
-21.6886

>  <SCORE.INTER.norm>
-0.402234

>  <SCORE.INTRA>
-8.49367

>  <SCORE.INTRA.DIHEDRAL>
-16.8161

>  <SCORE.INTRA.DIHEDRAL.0>
21.6909

>  <SCORE.INTRA.POLAR>
0

>  <SCORE.INTRA.POLAR.0>
0

>  <SCORE.INTRA.REPUL>
0

>  <SCORE.INTRA.REPUL.0>
0

>  <SCORE.INTRA.SOLV>
-2.61294

>  <SCORE.INTRA.SOLV.lig_0>
-116.606

>  <SCORE.INTRA.VDW>
1.22087

>  <SCORE.INTRA.VDW.0>
-6.01229

>  <SCORE.INTRA.norm>
-0.20223

>  <SCORE.RESTR>
0.0793346

>  <SCORE.RESTR.CAVITY>
0.0793346

>  <SCORE.RESTR.norm>
0.00188892

>  <SCORE.SYSTEM>
0

>  <SCORE.SYSTEM.CONST>
0

>  <SCORE.SYSTEM.DIHEDRAL>
0

>  <SCORE.SYSTEM.SOLV>
0

>  <SCORE.SYSTEM.norm>
0

>  <SCORE.heavy>
42

>  <SCORE.norm>
-0.602575

>  <RMSD>
0.754

$$$$
2et4_lig
 OpenBabel11021811423D
libRbt.so/2013.1/901 2013/11/27
 42 45  0  0  0  0  0  0  0  0999 V2000
   13.8672    9.2837    5.1412 C   0  0  2  0  0  0  0  0  0  0  0  0
   14.8469    8.3630    4.6569 O   0  0  0  0  0  0  0  0  0  0  0  0
   12.5940    9.0921    4.2781 C   0  0  2  0  0  0  0  0  0  0  0  0
   12.1230    7.7316    4.3317 N   0  0  0  0  0  0  0  0  0  0  0  0
   12.8969    9.5223    2.8138 C   0  0  1  0  0  0  0  0  0  0  0  0
   11.7462    9.3643    2.0438 O   0  0  0  0  0  0  0  0  0  0  0  0
   13.3988   11.0047    2.8332 C   0  0  2  0  0  0  0  0  0  0  0  0
   13.6934   11.4356    1.5213 O   0  0  0  0  0  0  0  0  0  0  0  0
   14.6722   11.1481    3.7209 C   0  0  2  0  0  0  0  0  0  0  0  0
   14.3576   10.6875    5.0383 O   0  0  0  0  0  0  0  0  0  0  0  0
   15.1785   12.6257    3.7971 C   0  0  0  0  0  0  0  0  0  0  0  0
   15.7242   13.0704    2.5620 N   0  0  0  0  0  0  0  0  0  0  0  0
   17.6928    5.7491    6.5865 C   0  0  2  0  0  0  0  0  0  0  0  0
   18.8375    5.3067    7.3925 N   0  0  0  0  0  0  0  0  0  0  0  0
   18.2151    6.6925    5.3744 C   0  0  0  0  0  0  0  0  0  0  0  0
   16.9754    7.1783    4.5174 C   0  0  2  0  0  0  0  0  0  0  0  0
   17.4022    8.0613    3.4175 N   0  0  0  0  0  0  0  0  0  0  0  0
   15.9704    7.9432    5.4434 C   0  0  2  0  0  0  0  0  0  0  0  0
   15.4975    7.0315    6.6237 C   0  0  2  0  0  0  0  0  0  0  0  0
   14.5907    7.8308    7.4223 O   0  0  0  0  0  0  0  0  0  0  0  0
   16.7308    6.5674    7.4634 C   0  0  1  0  0  0  0  0  0  0  0  0
   16.2832    5.7509    8.4922 O   0  0  0  0  0  0  0  0  0  0  0  0
   13.8246    7.3687    8.4400 C   0  0  1  0  0  0  0  0  0  0  0  0
   13.1686    8.5393    9.2178 C   0  0  2  0  0  0  0  0  0  0  0  0
   14.0057    9.0863   10.1952 O   0  0  0  0  0  0  0  0  0  0  0  0
   11.8854    7.8570    9.6545 C   0  0  1  0  0  0  0  0  0  0  0  0
   11.4526    6.9466    8.4968 C   0  0  2  0  0  0  0  0  0  0  0  0
   12.7289    6.5042    8.0353 O   0  0  0  0  0  0  0  0  0  0  0  0
   10.6313    7.6445    7.3596 C   0  0  0  0  0  0  0  0  0  0  0  0
    9.4133    8.1618    7.9580 O   0  0  0  0  0  0  0  0  0  0  0  0
   11.1182    6.4803   11.5617 C   0  0  2  0  0  0  0  0  0  0  0  0
   12.1887    7.0795   10.8843 O   0  0  0  0  0  0  0  0  0  0  0  0
   11.5924    5.8300   12.9336 C   0  0  1  0  0  0  0  0  0  0  0  0
    8.2341    4.2413    8.9273 N   0  0  0  0  0  0  0  0  0  0  0  0
   10.2896    5.1538   13.6135 C   0  0  1  0  0  0  0  0  0  0  0  0
    9.2479    6.2363   13.8147 O   0  0  0  0  0  0  0  0  0  0  0  0
    9.7091    3.9857   12.6518 C   0  0  2  0  0  0  0  0  0  0  0  0
   10.7176    2.9607   12.4828 O   0  0  0  0  0  0  0  0  0  0  0  0
    9.2694    4.6834   11.2448 C   0  0  1  0  0  0  0  0  0  0  0  0
   10.4494    5.4057   10.6551 O   0  0  0  0  0  0  0  0  0  0  0  0
    8.7092    3.6432   10.2126 C   0  0  0  0  0  0  0  0  0  0  0  0
   12.7010    4.8509   12.6821 N   0  0  0  0  0  0  0  0  0  0  0  0
  1  2  1  6  0  0  0
  1  3  1  0  0  0  0
  1 10  1  0  0  0  0
  3  4  1  6  0  0  0
  3  5  1  0  0  0  0
  5  6  1  6  0  0  0
  5  7  1  0  0  0  0
  7  8  1  6  0  0  0
  7  9  1  0  0  0  0
  9 10  1  0  0  0  0
  9 11  1  1  0  0  0
 11 12  1  0  0  0  0
 13 14  1  1  0  0  0
 13 15  1  0  0  0  0
 13 21  1  0  0  0  0
 16 15  1  0  0  0  0
 16 17  1  6  0  0  0
 18  2  1  6  0  0  0
 18 16  1  0  0  0  0
 19 18  1  0  0  0  0
 19 20  1  1  0  0  0
 21 19  1  0  0  0  0
 21 22  1  1  0  0  0
 23 20  1  6  0  0  0
 23 24  1  0  0  0  0
 23 28  1  0  0  0  0
 24 25  1  1  0  0  0
 24 26  1  0  0  0  0
 26 27  1  0  0  0  0
 26 32  1  1  0  0  0
 27 28  1  0  0  0  0
 27 29  1  6  0  0  0
 29 30  1  0  0  0  0
 31 32  1  6  0  0  0
 31 40  1  0  0  0  0
 33 31  1  0  0  0  0
 33 42  1  6  0  0  0
 35 33  1  0  0  0  0
 35 36  1  6  0  0  0
 37 35  1  0  0  0  0
 37 38  1  6  0  0  0
 37 39  1  0  0  0  0
 39 40  1  0  0  0  0
 39 41  1  6  0  0  0
 41 34  1  0  0  0  0
M  END
>  <CHROM.1>
-159.49549118,-69.82740653,-168.64949064,171.02012838,170.29114817,172.97603854
-61.22427026,-173.64341398,177.38208540,13.17792226,7.48529839,7.54622991
1.10170391,0.18966046,-0.95341556

>  <Name>
2et4_lig

>  <RI>
0

>  <Rbt.Current_Directory>
/home/itssahil/PROJECTS/Mol_Feturizer/New_Systems/rnas/2et4

>  <Rbt.Executable>
rbdock ($Id: //depot/dev/client3/rdock/2013.1/src/exe/rbdock.cxx#4 $)

>  <Rbt.Library>
libRbt.so (2013.1, Build901 2013/11/27)

>  <Rbt.Parameter_File>
/export/apps/rDock/src/rDock_2013.1_src/data/scripts/dock_solv.prm

>  <Rbt.Receptor>
prm/pocket_docking_2.prm

>  <SCORE>
-25.5803

>  <SCORE.INTER>
-17.0304

>  <SCORE.INTER.CONST>
1

>  <SCORE.INTER.POLAR>
-1.54129

>  <SCORE.INTER.ROT>
9

>  <SCORE.INTER.SOLV>
17.1797

>  <SCORE.INTER.VDW>
-21.5425

>  <SCORE.INTER.norm>
-0.405485

>  <SCORE.INTRA>
-8.67005

>  <SCORE.INTRA.DIHEDRAL>
-17.3595

>  <SCORE.INTRA.DIHEDRAL.0>
21.6909

>  <SCORE.INTRA.POLAR>
0

>  <SCORE.INTRA.POLAR.0>
0

>  <SCORE.INTRA.REPUL>
0

>  <SCORE.INTRA.REPUL.0>
0

>  <SCORE.INTRA.SOLV>
-2.28622

>  <SCORE.INTRA.SOLV.lig_0>
-116.606

>  <SCORE.INTRA.VDW>
1.15281

>  <SCORE.INTRA.VDW.0>
-6.01229

>  <SCORE.INTRA.norm>
-0.20643

>  <SCORE.RESTR>
0.120112

>  <SCORE.RESTR.CAVITY>
0.120112

>  <SCORE.RESTR.norm>
0.00285981

>  <SCORE.SYSTEM>
0

>  <SCORE.SYSTEM.CONST>
0

>  <SCORE.SYSTEM.DIHEDRAL>
0

>  <SCORE.SYSTEM.SOLV>
0

>  <SCORE.SYSTEM.norm>
0

>  <SCORE.heavy>
42

>  <SCORE.norm>
-0.609055

>  <RMSD>
0.762

$$$$
2et4_lig
 OpenBabel11021811423D
libRbt.so/2013.1/901 2013/11/27
 42 45  0  0  0  0  0  0  0  0999 V2000
   13.7826    9.2076    5.0803 C   0  0  2  0  0  0  0  0  0  0  0  0
   14.7535    8.2880    4.5765 O   0  0  0  0  0  0  0  0  0  0  0  0
   12.5126    9.0568    4.2045 C   0  0  2  0  0  0  0  0  0  0  0  0
   12.0238    7.7016    4.2171 N   0  0  0  0  0  0  0  0  0  0  0  0
   12.8306    9.5236    2.7546 C   0  0  1  0  0  0  0  0  0  0  0  0
   11.6830    9.4023    1.9735 O   0  0  0  0  0  0  0  0  0  0  0  0
   13.3515   10.9982    2.8186 C   0  0  2  0  0  0  0  0  0  0  0  0
   13.6601   11.4616    1.5210 O   0  0  0  0  0  0  0  0  0  0  0  0
   14.6208   11.1001    3.7176 C   0  0  2  0  0  0  0  0  0  0  0  0
   14.2918   10.6071    5.0197 O   0  0  0  0  0  0  0  0  0  0  0  0
   15.1457   12.5683    3.8382 C   0  0  0  0  0  0  0  0  0  0  0  0
   15.6961   13.0435    2.6166 N   0  0  0  0  0  0  0  0  0  0  0  0
   17.9189    5.9478    6.3537 C   0  0  2  0  0  0  0  0  0  0  0  0
   19.1525    5.6148    7.0770 N   0  0  0  0  0  0  0  0  0  0  0  0
   18.2759    6.8741    5.0704 C   0  0  0  0  0  0  0  0  0  0  0  0
   16.9408    7.2419    4.3026 C   0  0  2  0  0  0  0  0  0  0  0  0
   17.2159    8.1062    3.1411 N   0  0  0  0  0  0  0  0  0  0  0  0
   15.9628    7.9754    5.2815 C   0  0  2  0  0  0  0  0  0  0  0  0
   15.6503    7.0827    6.5278 C   0  0  2  0  0  0  0  0  0  0  0  0
   14.7574    7.8519    7.3704 O   0  0  0  0  0  0  0  0  0  0  0  0
   16.9761    6.7354    7.2781 C   0  0  1  0  0  0  0  0  0  0  0  0
   16.6700    5.9331    8.3683 O   0  0  0  0  0  0  0  0  0  0  0  0
   14.0493    7.3628    8.4172 C   0  0  1  0  0  0  0  0  0  0  0  0
   13.4654    8.5126    9.2789 C   0  0  2  0  0  0  0  0  0  0  0  0
   14.3726    9.0083   10.2203 O   0  0  0  0  0  0  0  0  0  0  0  0
   12.2005    7.8340    9.7713 C   0  0  1  0  0  0  0  0  0  0  0  0
   11.6785    6.9757    8.6104 C   0  0  2  0  0  0  0  0  0  0  0  0
   12.9147    6.5317    8.0515 O   0  0  0  0  0  0  0  0  0  0  0  0
   10.7993    7.7297    7.5553 C   0  0  0  0  0  0  0  0  0  0  0  0
   11.5744    8.8580    7.0703 O   0  0  0  0  0  0  0  0  0  0  0  0
   11.5295    6.4290   11.6942 C   0  0  2  0  0  0  0  0  0  0  0  0
   12.5673    7.0049   10.9489 O   0  0  0  0  0  0  0  0  0  0  0  0
   12.0932    5.6155   12.9392 C   0  0  1  0  0  0  0  0  0  0  0  0
    8.0944    4.6961    9.2924 N   0  0  0  0  0  0  0  0  0  0  0  0
   10.8190    4.9812   13.7077 C   0  0  1  0  0  0  0  0  0  0  0  0
    9.9059    6.1174   14.1232 O   0  0  0  0  0  0  0  0  0  0  0  0
   10.0344    3.9593   12.7245 C   0  0  2  0  0  0  0  0  0  0  0  0
   10.9232    2.8796   12.3498 O   0  0  0  0  0  0  0  0  0  0  0  0
    9.5051    4.8206   11.4447 C   0  0  1  0  0  0  0  0  0  0  0  0
   10.6720    5.5016   10.7840 O   0  0  0  0  0  0  0  0  0  0  0  0
    8.7443    3.9308   10.4004 C   0  0  0  0  0  0  0  0  0  0  0  0
   13.0760    4.5814   12.4749 N   0  0  0  0  0  0  0  0  0  0  0  0
  1  2  1  6  0  0  0
  1  3  1  0  0  0  0
  1 10  1  0  0  0  0
  3  4  1  6  0  0  0
  3  5  1  0  0  0  0
  5  6  1  6  0  0  0
  5  7  1  0  0  0  0
  7  8  1  6  0  0  0
  7  9  1  0  0  0  0
  9 10  1  0  0  0  0
  9 11  1  1  0  0  0
 11 12  1  0  0  0  0
 13 14  1  1  0  0  0
 13 15  1  0  0  0  0
 13 21  1  0  0  0  0
 16 15  1  0  0  0  0
 16 17  1  6  0  0  0
 18  2  1  6  0  0  0
 18 16  1  0  0  0  0
 19 18  1  0  0  0  0
 19 20  1  1  0  0  0
 21 19  1  0  0  0  0
 21 22  1  1  0  0  0
 23 20  1  6  0  0  0
 23 24  1  0  0  0  0
 23 28  1  0  0  0  0
 24 25  1  1  0  0  0
 24 26  1  0  0  0  0
 26 27  1  0  0  0  0
 26 32  1  1  0  0  0
 27 28  1  0  0  0  0
 27 29  1  6  0  0  0
 29 30  1  0  0  0  0
 31 32  1  6  0  0  0
 31 40  1  0  0  0  0
 33 31  1  0  0  0  0
 33 42  1  6  0  0  0
 35 33  1  0  0  0  0
 35 36  1  6  0  0  0
 37 35  1  0  0  0  0
 37 38  1  6  0  0  0
 37 39  1  0  0  0  0
 39 40  1  0  0  0  0
 39 41  1  6  0  0  0
 41 34  1  0  0  0  0
M  END
>  <CHROM.1>
-168.47891387,-69.39043903,-165.72988849,166.97736304,166.93855175,171.12765364
55.12960482,-178.24549791,172.88775295,13.38169349,7.52378909,7.50816659
1.14867209,0.17541875,-0.97952639

>  <Name>
2et4_lig

>  <RI>
0

>  <Rbt.Current_Directory>
/home/itssahil/PROJECTS/Mol_Feturizer/New_Systems/rnas/2et4

>  <Rbt.Executable>
rbdock ($Id: //depot/dev/client3/rdock/2013.1/src/exe/rbdock.cxx#4 $)

>  <Rbt.Library>
libRbt.so (2013.1, Build901 2013/11/27)

>  <Rbt.Parameter_File>
/export/apps/rDock/src/rDock_2013.1_src/data/scripts/dock_solv.prm

>  <Rbt.Receptor>
prm/pocket_docking_3.prm

>  <SCORE>
-26.6099

>  <SCORE.INTER>
-18.2224

>  <SCORE.INTER.CONST>
1

>  <SCORE.INTER.POLAR>
-1.57112

>  <SCORE.INTER.ROT>
9

>  <SCORE.INTER.SOLV>
19.7629

>  <SCORE.INTER.VDW>
-23.0988

>  <SCORE.INTER.norm>
-0.433866

>  <SCORE.INTRA>
-8.3937

>  <SCORE.INTRA.DIHEDRAL>
-17.3252

>  <SCORE.INTRA.DIHEDRAL.0>
21.6909

>  <SCORE.INTRA.POLAR>
0

>  <SCORE.INTRA.POLAR.0>
0

>  <SCORE.INTRA.REPUL>
0

>  <SCORE.INTRA.REPUL.0>
0

>  <SCORE.INTRA.SOLV>
-1.12949

>  <SCORE.INTRA.SOLV.lig_0>
-116.606

>  <SCORE.INTRA.VDW>
0.833669

>  <SCORE.INTRA.VDW.0>
-6.01229

>  <SCORE.INTRA.norm>
-0.19985

>  <SCORE.RESTR>
0.00617981

>  <SCORE.RESTR.CAVITY>
0.00617981

>  <SCORE.RESTR.norm>
0.000147138

>  <SCORE.SYSTEM>
0

>  <SCORE.SYSTEM.CONST>
0

>  <SCORE.SYSTEM.DIHEDRAL>
0

>  <SCORE.SYSTEM.SOLV>
0

>  <SCORE.SYSTEM.norm>
0

>  <SCORE.heavy>
42

>  <SCORE.norm>
-0.633569

>  <RMSD>
0.767

$$$$
2et4_lig
 OpenBabel11021811423D
libRbt.so/2013.1/901 2013/11/27
 42 45  0  0  0  0  0  0  0  0999 V2000
   13.6668    9.2470    5.0832 C   0  0  2  0  0  0  0  0  0  0  0  0
   14.6259    8.2900    4.6289 O   0  0  0  0  0  0  0  0  0  0  0  0
   12.4250    9.1213    4.1641 C   0  0  2  0  0  0  0  0  0  0  0  0
   11.8938    7.7821    4.1792 N   0  0  0  0  0  0  0  0  0  0  0  0
   12.8092    9.5547    2.7199 C   0  0  1  0  0  0  0  0  0  0  0  0
   11.6871    9.4561    1.8996 O   0  0  0  0  0  0  0  0  0  0  0  0
   13.3734   11.0134    2.7807 C   0  0  2  0  0  0  0  0  0  0  0  0
   13.7428   11.4462    1.4885 O   0  0  0  0  0  0  0  0  0  0  0  0
   14.6123   11.0907    3.7237 C   0  0  2  0  0  0  0  0  0  0  0  0
   14.2214   10.6290    5.0202 O   0  0  0  0  0  0  0  0  0  0  0  0
   15.1782   12.5437    3.8413 C   0  0  0  0  0  0  0  0  0  0  0  0
   15.7806   12.9846    2.6315 N   0  0  0  0  0  0  0  0  0  0  0  0
   17.7014    5.9075    6.5050 C   0  0  2  0  0  0  0  0  0  0  0  0
   18.9040    5.5578    7.2712 N   0  0  0  0  0  0  0  0  0  0  0  0
   18.1144    6.8395    5.2428 C   0  0  0  0  0  0  0  0  0  0  0  0
   16.8122    7.2253    4.4287 C   0  0  2  0  0  0  0  0  0  0  0  0
   17.1383    8.0952    3.2847 N   0  0  0  0  0  0  0  0  0  0  0  0
   15.8051    7.9610    5.3759 C   0  0  2  0  0  0  0  0  0  0  0  0
   15.4383    7.0624    6.6031 C   0  0  2  0  0  0  0  0  0  0  0  0
   14.5217    7.8340    7.4177 O   0  0  0  0  0  0  0  0  0  0  0  0
   16.7320    6.6973    7.3996 C   0  0  1  0  0  0  0  0  0  0  0  0
   16.3782    5.8903    8.4716 O   0  0  0  0  0  0  0  0  0  0  0  0
   13.8260    7.3610    8.4800 C   0  0  1  0  0  0  0  0  0  0  0  0
   13.2665    8.5238    9.3404 C   0  0  2  0  0  0  0  0  0  0  0  0
   14.1932    9.0195   10.2626 O   0  0  0  0  0  0  0  0  0  0  0  0
   12.0034    7.8616    9.8589 C   0  0  1  0  0  0  0  0  0  0  0  0
   11.4551    6.9979    8.7144 C   0  0  2  0  0  0  0  0  0  0  0  0
   12.6781    6.5373    8.1400 O   0  0  0  0  0  0  0  0  0  0  0  0
   10.5661    7.7506    7.6666 C   0  0  0  0  0  0  0  0  0  0  0  0
   11.3703    8.8205    7.1031 O   0  0  0  0  0  0  0  0  0  0  0  0
   11.3509    6.4634   11.7930 C   0  0  2  0  0  0  0  0  0  0  0  0
   12.3814    7.0397   11.0381 O   0  0  0  0  0  0  0  0  0  0  0  0
   11.9232    5.6959   13.0631 C   0  0  1  0  0  0  0  0  0  0  0  0
    8.0373    4.5872    9.3771 N   0  0  0  0  0  0  0  0  0  0  0  0
   10.6573    5.0569   13.8416 C   0  0  1  0  0  0  0  0  0  0  0  0
    9.7188    6.1852   14.2205 O   0  0  0  0  0  0  0  0  0  0  0  0
    9.8998    3.9927   12.8824 C   0  0  2  0  0  0  0  0  0  0  0  0
   10.8126    2.9216   12.5426 O   0  0  0  0  0  0  0  0  0  0  0  0
    9.3611    4.8077   11.5765 C   0  0  1  0  0  0  0  0  0  0  0  0
   10.5180    5.4941   10.9038 O   0  0  0  0  0  0  0  0  0  0  0  0
    8.6250    3.8743   10.5527 C   0  0  0  0  0  0  0  0  0  0  0  0
   12.9296    4.6697   12.6330 N   0  0  0  0  0  0  0  0  0  0  0  0
  1  2  1  6  0  0  0
  1  3  1  0  0  0  0
  1 10  1  0  0  0  0
  3  4  1  6  0  0  0
  3  5  1  0  0  0  0
  5  6  1  6  0  0  0
  5  7  1  0  0  0  0
  7  8  1  6  0  0  0
  7  9  1  0  0  0  0
  9 10  1  0  0  0  0
  9 11  1  1  0  0  0
 11 12  1  0  0  0  0
 13 14  1  1  0  0  0
 13 15  1  0  0  0  0
 13 21  1  0  0  0  0
 16 15  1  0  0  0  0
 16 17  1  6  0  0  0
 18  2  1  6  0  0  0
 18 16  1  0  0  0  0
 19 18  1  0  0  0  0
 19 20  1  1  0  0  0
 21 19  1  0  0  0  0
 21 22  1  1  0  0  0
 23 20  1  6  0  0  0
 23 24  1  0  0  0  0
 23 28  1  0  0  0  0
 24 25  1  1  0  0  0
 24 26  1  0  0  0  0
 26 27  1  0  0  0  0
 26 32  1  1  0  0  0
 27 28  1  0  0  0  0
 27 29  1  6  0  0  0
 29 30  1  0  0  0  0
 31 32  1  6  0  0  0
 31 40  1  0  0  0  0
 33 31  1  0  0  0  0
 33 42  1  6  0  0  0
 35 33  1  0  0  0  0
 35 36  1  6  0  0  0
 37 35  1  0  0  0  0
 37 38  1  6  0  0  0
 37 39  1  0  0  0  0
 39 40  1  0  0  0  0
 39 41  1  6  0  0  0
 41 34  1  0  0  0  0
M  END
>  <CHROM.1>
-169.08608596,-69.08948004,-163.66675014,170.82030726,164.11137077,172.08829553
58.33747174,-176.49152305,176.39576024,13.24459772,7.52929227,7.58322052
1.14837900,0.17486079,-0.98566967

>  <Name>
2et4_lig

>  <RI>
0

>  <Rbt.Current_Directory>
/home/itssahil/PROJECTS/Mol_Feturizer/New_Systems/rnas/2et4

>  <Rbt.Executable>
rbdock ($Id: //depot/dev/client3/rdock/2013.1/src/exe/rbdock.cxx#4 $)

>  <Rbt.Library>
libRbt.so (2013.1, Build901 2013/11/27)

>  <Rbt.Parameter_File>
/export/apps/rDock/src/rDock_2013.1_src/data/scripts/dock_solv.prm

>  <Rbt.Receptor>
prm/pocket_docking_3.prm

>  <SCORE>
-26.4815

>  <SCORE.INTER>
-17.961

>  <SCORE.INTER.CONST>
1

>  <SCORE.INTER.POLAR>
-1.57596

>  <SCORE.INTER.ROT>
9

>  <SCORE.INTER.SOLV>
18.8685

>  <SCORE.INTER.VDW>
-22.6103

>  <SCORE.INTER.norm>
-0.427642

>  <SCORE.INTRA>
-8.52048

>  <SCORE.INTRA.DIHEDRAL>
-17.4067

>  <SCORE.INTRA.DIHEDRAL.0>
21.6909

>  <SCORE.INTRA.POLAR>
0

>  <SCORE.INTRA.POLAR.0>
0

>  <SCORE.INTRA.REPUL>
0

>  <SCORE.INTRA.REPUL.0>
0

>  <SCORE.INTRA.SOLV>
-1.25428

>  <SCORE.INTRA.SOLV.lig_0>
-116.606

>  <SCORE.INTRA.VDW>
0.810018

>  <SCORE.INTRA.VDW.0>
-6.01229

>  <SCORE.INTRA.norm>
-0.202869

>  <SCORE.RESTR>
0

>  <SCORE.RESTR.CAVITY>
0

>  <SCORE.RESTR.norm>
0

>  <SCORE.SYSTEM>
0

>  <SCORE.SYSTEM.CONST>
0

>  <SCORE.SYSTEM.DIHEDRAL>
0

>  <SCORE.SYSTEM.SOLV>
0

>  <SCORE.SYSTEM.norm>
0

>  <SCORE.heavy>
42

>  <SCORE.norm>
-0.630511

>  <RMSD>
0.769

$$$$
2et4_lig
 OpenBabel11021811423D
libRbt.so/2013.1/901 2013/11/27
 42 45  0  0  0  0  0  0  0  0999 V2000
   13.7126    9.2582    5.0899 C   0  0  2  0  0  0  0  0  0  0  0  0
   14.7256    8.3480    4.6569 O   0  0  0  0  0  0  0  0  0  0  0  0
   12.5095    9.0953    4.1261 C   0  0  2  0  0  0  0  0  0  0  0  0
   12.0340    7.7355    4.1048 N   0  0  0  0  0  0  0  0  0  0  0  0
   12.9252    9.5653    2.7022 C   0  0  1  0  0  0  0  0  0  0  0  0
   11.8372    9.4329    1.8416 O   0  0  0  0  0  0  0  0  0  0  0  0
   13.4262   11.0448    2.8021 C   0  0  2  0  0  0  0  0  0  0  0  0
   13.8217   11.5112    1.5295 O   0  0  0  0  0  0  0  0  0  0  0  0
   14.6274   11.1588    3.7890 C   0  0  2  0  0  0  0  0  0  0  0  0
   14.2113   10.6626    5.0647 O   0  0  0  0  0  0  0  0  0  0  0  0
   15.1282   12.6319    3.9457 C   0  0  0  0  0  0  0  0  0  0  0  0
   15.7781   13.1053    2.7733 N   0  0  0  0  0  0  0  0  0  0  0  0
   17.5596    5.8360    6.7336 C   0  0  2  0  0  0  0  0  0  0  0  0
   18.6870    5.4349    7.5844 N   0  0  0  0  0  0  0  0  0  0  0  0
   18.1013    6.7620    5.5164 C   0  0  0  0  0  0  0  0  0  0  0  0
   16.8798    7.2033    4.6106 C   0  0  2  0  0  0  0  0  0  0  0  0
   17.3237    8.0694    3.5041 N   0  0  0  0  0  0  0  0  0  0  0  0
   15.8318    7.9687    5.4872 C   0  0  2  0  0  0  0  0  0  0  0  0
   15.3400    7.0747    6.6732 C   0  0  2  0  0  0  0  0  0  0  0  0
   14.3934    7.8736    7.4247 O   0  0  0  0  0  0  0  0  0  0  0  0
   16.5552    6.6545    7.5610 C   0  0  1  0  0  0  0  0  0  0  0  0
   16.0915    5.8527    8.5944 O   0  0  0  0  0  0  0  0  0  0  0  0
   13.6601    7.4387    8.4780 C   0  0  1  0  0  0  0  0  0  0  0  0
   13.1287    8.6310    9.3155 C   0  0  2  0  0  0  0  0  0  0  0  0
   14.0557    9.1012   10.2507 O   0  0  0  0  0  0  0  0  0  0  0  0
   11.8317    8.0224    9.8159 C   0  0  1  0  0  0  0  0  0  0  0  0
   11.2730    7.1678    8.6695 C   0  0  2  0  0  0  0  0  0  0  0  0
   12.4885    6.6552    8.1239 O   0  0  0  0  0  0  0  0  0  0  0  0
   10.4335    7.9421    7.5971 C   0  0  0  0  0  0  0  0  0  0  0  0
   11.2689    9.0119    7.0807 O   0  0  0  0  0  0  0  0  0  0  0  0
   11.0910    6.6354   11.7261 C   0  0  2  0  0  0  0  0  0  0  0  0
   12.1556    7.1997   11.0104 O   0  0  0  0  0  0  0  0  0  0  0  0
   11.5960    5.9458   13.0674 C   0  0  1  0  0  0  0  0  0  0  0  0
    7.9699    4.5621    9.2082 N   0  0  0  0  0  0  0  0  0  0  0  0
   10.2964    5.3143   13.7947 C   0  0  1  0  0  0  0  0  0  0  0  0
    9.3107    6.4359   14.0552 O   0  0  0  0  0  0  0  0  0  0  0  0
    9.6265    4.1855   12.8441 C   0  0  2  0  0  0  0  0  0  0  0  0
   10.5827    3.1222   12.6181 O   0  0  0  0  0  0  0  0  0  0  0  0
    9.1563    4.9215   11.4668 C   0  0  1  0  0  0  0  0  0  0  0  0
   10.3392    5.6029   10.8357 O   0  0  0  0  0  0  0  0  0  0  0  0
    8.5090    3.9208   10.4466 C   0  0  0  0  0  0  0  0  0  0  0  0
   12.6506    4.9254   12.7551 N   0  0  0  0  0  0  0  0  0  0  0  0
  1  2  1  6  0  0  0
  1  3  1  0  0  0  0
  1 10  1  0  0  0  0
  3  4  1  6  0  0  0
  3  5  1  0  0  0  0
  5  6  1  6  0  0  0
  5  7  1  0  0  0  0
  7  8  1  6  0  0  0
  7  9  1  0  0  0  0
  9 10  1  0  0  0  0
  9 11  1  1  0  0  0
 11 12  1  0  0  0  0
 13 14  1  1  0  0  0
 13 15  1  0  0  0  0
 13 21  1  0  0  0  0
 16 15  1  0  0  0  0
 16 17  1  6  0  0  0
 18  2  1  6  0  0  0
 18 16  1  0  0  0  0
 19 18  1  0  0  0  0
 19 20  1  1  0  0  0
 21 19  1  0  0  0  0
 21 22  1  1  0  0  0
 23 20  1  6  0  0  0
 23 24  1  0  0  0  0
 23 28  1  0  0  0  0
 24 25  1  1  0  0  0
 24 26  1  0  0  0  0
 26 27  1  0  0  0  0
 26 32  1  1  0  0  0
 27 28  1  0  0  0  0
 27 29  1  6  0  0  0
 29 30  1  0  0  0  0
 31 32  1  6  0  0  0
 31 40  1  0  0  0  0
 33 31  1  0  0  0  0
 33 42  1  6  0  0  0
 35 33  1  0  0  0  0
 35 36  1  6  0  0  0
 37 35  1  0  0  0  0
 37 38  1  6  0  0  0
 37 39  1  0  0  0  0
 39 40  1  0  0  0  0
 39 41  1  6  0  0  0
 41 34  1  0  0  0  0
M  END
>  <CHROM.1>
-163.59274427,-70.31386271,-168.73873879,174.97894087,161.20420977,174.08372017
55.88628870,-172.83153988,175.74077697,13.14374943,7.60467494,7.60879605
1.11732264,0.19127628,-0.97729663

>  <Name>
2et4_lig

>  <RI>
0

>  <Rbt.Current_Directory>
/home/itssahil/PROJECTS/Mol_Feturizer/New_Systems/rnas/2et4

>  <Rbt.Executable>
rbdock ($Id: //depot/dev/client3/rdock/2013.1/src/exe/rbdock.cxx#4 $)

>  <Rbt.Library>
libRbt.so (2013.1, Build901 2013/11/27)

>  <Rbt.Parameter_File>
/export/apps/rDock/src/rDock_2013.1_src/data/scripts/dock_solv.prm

>  <Rbt.Receptor>
prm/pocket_docking_2.prm

>  <SCORE>
-25.2754

>  <SCORE.INTER>
-17.1788

>  <SCORE.INTER.CONST>
1

>  <SCORE.INTER.POLAR>
-1.53996

>  <SCORE.INTER.ROT>
9

>  <SCORE.INTER.SOLV>
18.4187

>  <SCORE.INTER.VDW>
-22.0589

>  <SCORE.INTER.norm>
-0.409018

>  <SCORE.INTRA>
-8.22791

>  <SCORE.INTRA.DIHEDRAL>
-16.9993

>  <SCORE.INTRA.DIHEDRAL.0>
21.6909

>  <SCORE.INTRA.POLAR>
0

>  <SCORE.INTRA.POLAR.0>
0

>  <SCORE.INTRA.REPUL>
0

>  <SCORE.INTRA.REPUL.0>
0

>  <SCORE.INTRA.SOLV>
-1.57944

>  <SCORE.INTRA.SOLV.lig_0>
-116.606

>  <SCORE.INTRA.VDW>
1.06148

>  <SCORE.INTRA.VDW.0>
-6.01229

>  <SCORE.INTRA.norm>
-0.195903

>  <SCORE.RESTR>
0.131315

>  <SCORE.RESTR.CAVITY>
0.131315

>  <SCORE.RESTR.norm>
0.00312654

>  <SCORE.SYSTEM>
0

>  <SCORE.SYSTEM.CONST>
0

>  <SCORE.SYSTEM.DIHEDRAL>
0

>  <SCORE.SYSTEM.SOLV>
0

>  <SCORE.SYSTEM.norm>
0

>  <SCORE.heavy>
42

>  <SCORE.norm>
-0.601794

>  <RMSD>
0.772

$$$$
2et4_lig
 OpenBabel11021811423D
libRbt.so/2013.1/901 2013/11/27
 42 45  0  0  0  0  0  0  0  0999 V2000
   13.8112    9.1819    5.1178 C   0  0  2  0  0  0  0  0  0  0  0  0
   14.8232    8.2746    4.6764 O   0  0  0  0  0  0  0  0  0  0  0  0
   12.5835    8.9823    4.1930 C   0  0  2  0  0  0  0  0  0  0  0  0
   12.1252    7.6166    4.2158 N   0  0  0  0  0  0  0  0  0  0  0  0
   12.9523    9.4248    2.7475 C   0  0  1  0  0  0  0  0  0  0  0  0
   11.8421    9.2595    1.9218 O   0  0  0  0  0  0  0  0  0  0  0  0
   13.4367   10.9122    2.7997 C   0  0  2  0  0  0  0  0  0  0  0  0
   13.7898   11.3544    1.5062 O   0  0  0  0  0  0  0  0  0  0  0  0
   14.6639   11.0635    3.7489 C   0  0  2  0  0  0  0  0  0  0  0  0
   14.2909   10.5913    5.0469 O   0  0  0  0  0  0  0  0  0  0  0  0
   15.1500   12.5458    3.8581 C   0  0  0  0  0  0  0  0  0  0  0  0
   15.7620   12.9996    2.6579 N   0  0  0  0  0  0  0  0  0  0  0  0
   17.7145    5.8108    6.7319 C   0  0  2  0  0  0  0  0  0  0  0  0
   18.8612    5.4293    7.5656 N   0  0  0  0  0  0  0  0  0  0  0  0
   18.2257    6.7222    5.4908 C   0  0  0  0  0  0  0  0  0  0  0  0
   16.9834    7.1426    4.6034 C   0  0  2  0  0  0  0  0  0  0  0  0
   17.3994    7.9952    3.4757 N   0  0  0  0  0  0  0  0  0  0  0  0
   15.9482    7.9143    5.4897 C   0  0  2  0  0  0  0  0  0  0  0  0
   15.4861    7.0347    6.6982 C   0  0  2  0  0  0  0  0  0  0  0  0
   14.5496    7.8388    7.4569 O   0  0  0  0  0  0  0  0  0  0  0  0
   16.7215    6.6352    7.5674 C   0  0  1  0  0  0  0  0  0  0  0  0
   16.2838    5.8458    8.6214 O   0  0  0  0  0  0  0  0  0  0  0  0
   13.7913    7.3968    8.4894 C   0  0  1  0  0  0  0  0  0  0  0  0
   13.2183    8.5841    9.3063 C   0  0  2  0  0  0  0  0  0  0  0  0
   14.1101    9.0705   10.2671 O   0  0  0  0  0  0  0  0  0  0  0  0
   11.9156    7.9589    9.7699 C   0  0  1  0  0  0  0  0  0  0  0  0
   11.4036    7.0926    8.6105 C   0  0  2  0  0  0  0  0  0  0  0  0
   12.6420    6.5957    8.1033 O   0  0  0  0  0  0  0  0  0  0  0  0
   10.5857    7.8515    7.5106 C   0  0  0  0  0  0  0  0  0  0  0  0
   11.4246    8.9255    7.0087 O   0  0  0  0  0  0  0  0  0  0  0  0
   11.1346    6.6156   11.6953 C   0  0  2  0  0  0  0  0  0  0  0  0
   12.2152    7.1446   10.9766 O   0  0  0  0  0  0  0  0  0  0  0  0
   11.6309    5.7654   12.9446 C   0  0  1  0  0  0  0  0  0  0  0  0
    6.9464    3.7289   10.8003 N   0  0  0  0  0  0  0  0  0  0  0  0
   10.3108    5.1897   13.6812 C   0  0  1  0  0  0  0  0  0  0  0  0
    9.4470    6.3669   14.0878 O   0  0  0  0  0  0  0  0  0  0  0  0
    9.4971    4.2159   12.6733 C   0  0  2  0  0  0  0  0  0  0  0  0
   10.3387    3.0960   12.3075 O   0  0  0  0  0  0  0  0  0  0  0  0
    9.0383    5.1123   11.3905 C   0  0  1  0  0  0  0  0  0  0  0  0
   10.2512    5.7392   10.7597 O   0  0  0  0  0  0  0  0  0  0  0  0
    8.2561    4.2697   10.3230 C   0  0  0  0  0  0  0  0  0  0  0  0
   12.5705    4.6870   12.4916 N   0  0  0  0  0  0  0  0  0  0  0  0
  1  2  1  6  0  0  0
  1  3  1  0  0  0  0
  1 10  1  0  0  0  0
  3  4  1  6  0  0  0
  3  5  1  0  0  0  0
  5  6  1  6  0  0  0
  5  7  1  0  0  0  0
  7  8  1  6  0  0  0
  7  9  1  0  0  0  0
  9 10  1  0  0  0  0
  9 11  1  1  0  0  0
 11 12  1  0  0  0  0
 13 14  1  1  0  0  0
 13 15  1  0  0  0  0
 13 21  1  0  0  0  0
 16 15  1  0  0  0  0
 16 17  1  6  0  0  0
 18  2  1  6  0  0  0
 18 16  1  0  0  0  0
 19 18  1  0  0  0  0
 19 20  1  1  0  0  0
 21 19  1  0  0  0  0
 21 22  1  1  0  0  0
 23 20  1  6  0  0  0
 23 24  1  0  0  0  0
 23 28  1  0  0  0  0
 24 25  1  1  0  0  0
 24 26  1  0  0  0  0
 26 27  1  0  0  0  0
 26 32  1  1  0  0  0
 27 28  1  0  0  0  0
 27 29  1  6  0  0  0
 29 30  1  0  0  0  0
 31 32  1  6  0  0  0
 31 40  1  0  0  0  0
 33 31  1  0  0  0  0
 33 42  1  6  0  0  0
 35 33  1  0  0  0  0
 35 36  1  6  0  0  0
 37 35  1  0  0  0  0
 37 38  1  6  0  0  0
 37 39  1  0  0  0  0
 39 40  1  0  0  0  0
 39 41  1  6  0  0  0
 41 34  1  0  0  0  0
M  END
>  <CHROM.1>
-162.74895700,-70.41164762,-168.91701991,171.51502565,164.13273421,171.37782481
56.28569127,179.56024415,64.62187544,13.17256920,7.53263779,7.61110514,1.08432253
0.17074974,-0.98013172

>  <Name>
2et4_lig

>  <RI>
0

>  <Rbt.Current_Directory>
/home/itssahil/PROJECTS/Mol_Feturizer/New_Systems/rnas/2et4

>  <Rbt.Executable>
rbdock ($Id: //depot/dev/client3/rdock/2013.1/src/exe/rbdock.cxx#4 $)

>  <Rbt.Library>
libRbt.so (2013.1, Build901 2013/11/27)

>  <Rbt.Parameter_File>
/export/apps/rDock/src/rDock_2013.1_src/data/scripts/dock_solv.prm

>  <Rbt.Receptor>
prm/pocket_docking_2.prm

>  <SCORE>
-24.8741

>  <SCORE.INTER>
-16.8688

>  <SCORE.INTER.CONST>
1

>  <SCORE.INTER.POLAR>
-1.52955

>  <SCORE.INTER.ROT>
9

>  <SCORE.INTER.SOLV>
17.4728

>  <SCORE.INTER.VDW>
-21.5717

>  <SCORE.INTER.norm>
-0.401639

>  <SCORE.INTRA>
-8.04269

>  <SCORE.INTRA.DIHEDRAL>
-17.1635

>  <SCORE.INTRA.DIHEDRAL.0>
21.6909

>  <SCORE.INTRA.POLAR>
0

>  <SCORE.INTRA.POLAR.0>
0

>  <SCORE.INTRA.REPUL>
0

>  <SCORE.INTRA.REPUL.0>
0

>  <SCORE.INTRA.SOLV>
-1.14064

>  <SCORE.INTRA.SOLV.lig_0>
-116.606

>  <SCORE.INTRA.VDW>
1.10938

>  <SCORE.INTRA.VDW.0>
-6.01229

>  <SCORE.INTRA.norm>
-0.191493

>  <SCORE.RESTR>
0.0374331

>  <SCORE.RESTR.CAVITY>
0.0374331

>  <SCORE.RESTR.norm>
0.000891265

>  <SCORE.SYSTEM>
0

>  <SCORE.SYSTEM.CONST>
0

>  <SCORE.SYSTEM.DIHEDRAL>
0

>  <SCORE.SYSTEM.SOLV>
0

>  <SCORE.SYSTEM.norm>
0

>  <SCORE.heavy>
42

>  <SCORE.norm>
-0.59224

>  <RMSD>
0.774

$$$$
2et4_lig
 OpenBabel11021811423D
libRbt.so/2013.1/901 2013/11/27
 42 45  0  0  0  0  0  0  0  0999 V2000
   13.7911    9.2837    5.1769 C   0  0  2  0  0  0  0  0  0  0  0  0
   14.7885    8.3710    4.7142 O   0  0  0  0  0  0  0  0  0  0  0  0
   12.5410    9.0870    4.2819 C   0  0  2  0  0  0  0  0  0  0  0  0
   12.0777    7.7233    4.3191 N   0  0  0  0  0  0  0  0  0  0  0  0
   12.8774    9.5242    2.8269 C   0  0  1  0  0  0  0  0  0  0  0  0
   11.7473    9.3615    2.0280 O   0  0  0  0  0  0  0  0  0  0  0  0
   13.3691   11.0097    2.8637 C   0  0  2  0  0  0  0  0  0  0  0  0
   13.6934   11.4470    1.5610 O   0  0  0  0  0  0  0  0  0  0  0  0
   14.6191   11.1581    3.7833 C   0  0  2  0  0  0  0  0  0  0  0  0
   14.2748   10.6909    5.0909 O   0  0  0  0  0  0  0  0  0  0  0  0
   15.1137   12.6386    3.8770 C   0  0  0  0  0  0  0  0  0  0  0  0
   15.6998   13.0866    2.6617 N   0  0  0  0  0  0  0  0  0  0  0  0
   17.6182    5.8175    6.7458 C   0  0  2  0  0  0  0  0  0  0  0  0
   18.7595    5.4001    7.5697 N   0  0  0  0  0  0  0  0  0  0  0  0
   18.1471    6.7117    5.4997 C   0  0  0  0  0  0  0  0  0  0  0  0
   16.9111    7.1710    4.6230 C   0  0  2  0  0  0  0  0  0  0  0  0
   17.3439    8.0095    3.4911 N   0  0  0  0  0  0  0  0  0  0  0  0
   15.9087    7.9755    5.5178 C   0  0  2  0  0  0  0  0  0  0  0  0
   15.4295    7.1116    6.7309 C   0  0  2  0  0  0  0  0  0  0  0  0
   14.5258    7.9452    7.4973 O   0  0  0  0  0  0  0  0  0  0  0  0
   16.6593    6.6733    7.5895 C   0  0  1  0  0  0  0  0  0  0  0  0
   16.2060    5.8986    8.6478 O   0  0  0  0  0  0  0  0  0  0  0  0
   13.7572    7.5262    8.5317 C   0  0  1  0  0  0  0  0  0  0  0  0
   13.2941    8.7243    9.4010 C   0  0  2  0  0  0  0  0  0  0  0  0
   14.2403    9.1074   10.3565 O   0  0  0  0  0  0  0  0  0  0  0  0
   11.9571    8.1841    9.8737 C   0  0  1  0  0  0  0  0  0  0  0  0
   11.3562    7.4006    8.6981 C   0  0  2  0  0  0  0  0  0  0  0  0
   12.5420    6.8289    8.1459 O   0  0  0  0  0  0  0  0  0  0  0  0
   10.5765    8.2577    7.6436 C   0  0  0  0  0  0  0  0  0  0  0  0
    9.9495    7.3361    6.7126 O   0  0  0  0  0  0  0  0  0  0  0  0
   11.1138    6.7949   11.7393 C   0  0  2  0  0  0  0  0  0  0  0  0
   12.2181    7.3075   11.0451 O   0  0  0  0  0  0  0  0  0  0  0  0
   11.5661    5.9979   13.0392 C   0  0  1  0  0  0  0  0  0  0  0  0
    6.9790    3.8556   10.7760 N   0  0  0  0  0  0  0  0  0  0  0  0
   10.2222    5.4368   13.7434 C   0  0  1  0  0  0  0  0  0  0  0  0
    9.3320    6.6195   14.0691 O   0  0  0  0  0  0  0  0  0  0  0  0
    9.4591    4.4170   12.7414 C   0  0  2  0  0  0  0  0  0  0  0  0
   10.3249    3.2929   12.4532 O   0  0  0  0  0  0  0  0  0  0  0  0
    9.0451    5.2593   11.4076 C   0  0  1  0  0  0  0  0  0  0  0  0
   10.2772    5.8745   10.8029 O   0  0  0  0  0  0  0  0  0  0  0  0
    8.3147    4.3686   10.3424 C   0  0  0  0  0  0  0  0  0  0  0  0
   12.5330    4.9131   12.6664 N   0  0  0  0  0  0  0  0  0  0  0  0
  1  2  1  6  0  0  0
  1  3  1  0  0  0  0
  1 10  1  0  0  0  0
  3  4  1  6  0  0  0
  3  5  1  0  0  0  0
  5  6  1  6  0  0  0
  5  7  1  0  0  0  0
  7  8  1  6  0  0  0
  7  9  1  0  0  0  0
  9 10  1  0  0  0  0
  9 11  1  1  0  0  0
 11 12  1  0  0  0  0
 13 14  1  1  0  0  0
 13 15  1  0  0  0  0
 13 21  1  0  0  0  0
 16 15  1  0  0  0  0
 16 17  1  6  0  0  0
 18  2  1  6  0  0  0
 18 16  1  0  0  0  0
 19 18  1  0  0  0  0
 19 20  1  1  0  0  0
 21 19  1  0  0  0  0
 21 22  1  1  0  0  0
 23 20  1  6  0  0  0
 23 24  1  0  0  0  0
 23 28  1  0  0  0  0
 24 25  1  1  0  0  0
 24 26  1  0  0  0  0
 26 27  1  0  0  0  0
 26 32  1  1  0  0  0
 27 28  1  0  0  0  0
 27 29  1  6  0  0  0
 29 30  1  0  0  0  0
 31 32  1  6  0  0  0
 31 40  1  0  0  0  0
 33 31  1  0  0  0  0
 33 42  1  6  0  0  0
 35 33  1  0  0  0  0
 35 36  1  6  0  0  0
 37 35  1  0  0  0  0
 37 38  1  6  0  0  0
 37 39  1  0  0  0  0
 39 40  1  0  0  0  0
 39 41  1  6  0  0  0
 41 34  1  0  0  0  0
M  END
>  <CHROM.1>
-160.72822191,-70.44355358,-170.58052473,171.11351160,161.04104544,173.82400688
-173.08054511,-174.51947730,65.81349150,13.09758824,7.61346743,7.65529257
1.08270226,0.15780413,-0.99808241

>  <Name>
2et4_lig

>  <RI>
0

>  <Rbt.Current_Directory>
/home/itssahil/PROJECTS/Mol_Feturizer/New_Systems/rnas/2et4

>  <Rbt.Executable>
rbdock ($Id: //depot/dev/client3/rdock/2013.1/src/exe/rbdock.cxx#4 $)

>  <Rbt.Library>
libRbt.so (2013.1, Build901 2013/11/27)

>  <Rbt.Parameter_File>
/export/apps/rDock/src/rDock_2013.1_src/data/scripts/dock_solv.prm

>  <Rbt.Receptor>
prm/pocket_docking_2.prm

>  <SCORE>
-24.8977

>  <SCORE.INTER>
-16.9456

>  <SCORE.INTER.CONST>
1

>  <SCORE.INTER.POLAR>
-1.47315

>  <SCORE.INTER.ROT>
9

>  <SCORE.INTER.SOLV>
17.7122

>  <SCORE.INTER.VDW>
-21.8906

>  <SCORE.INTER.norm>
-0.403466

>  <SCORE.INTRA>
-8.03182

>  <SCORE.INTRA.DIHEDRAL>
-16.4048

>  <SCORE.INTRA.DIHEDRAL.0>
21.6909

>  <SCORE.INTRA.POLAR>
0

>  <SCORE.INTRA.POLAR.0>
0

>  <SCORE.INTRA.REPUL>
0

>  <SCORE.INTRA.REPUL.0>
0

>  <SCORE.INTRA.SOLV>
-2.18708

>  <SCORE.INTRA.SOLV.lig_0>
-116.606

>  <SCORE.INTRA.VDW>
1.26412

>  <SCORE.INTRA.VDW.0>
-6.01229

>  <SCORE.INTRA.norm>
-0.191234

>  <SCORE.RESTR>
0.0796558

>  <SCORE.RESTR.CAVITY>
0.0796558

>  <SCORE.RESTR.norm>
0.00189657

>  <SCORE.SYSTEM>
0

>  <SCORE.SYSTEM.CONST>
0

>  <SCORE.SYSTEM.DIHEDRAL>
0

>  <SCORE.SYSTEM.SOLV>
0

>  <SCORE.SYSTEM.norm>
0

>  <SCORE.heavy>
42

>  <SCORE.norm>
-0.592803

>  <RMSD>
0.791

$$$$
2et4_lig
 OpenBabel11021811423D
libRbt.so/2013.1/901 2013/11/27
 42 45  0  0  0  0  0  0  0  0999 V2000
   13.9037    9.1257    5.3541 C   0  0  2  0  0  0  0  0  0  0  0  0
   14.6600    7.9903    4.9285 O   0  0  0  0  0  0  0  0  0  0  0  0
   12.5750    9.1150    4.5559 C   0  0  2  0  0  0  0  0  0  0  0  0
   11.8523    7.8847    4.7555 N   0  0  0  0  0  0  0  0  0  0  0  0
   12.8802    9.3464    3.0478 C   0  0  1  0  0  0  0  0  0  0  0  0
   11.6828    9.3525    2.3350 O   0  0  0  0  0  0  0  0  0  0  0  0
   13.6607   10.6959    2.9081 C   0  0  2  0  0  0  0  0  0  0  0  0
   13.9657   10.9431    1.5518 O   0  0  0  0  0  0  0  0  0  0  0  0
   14.9815   10.6616    3.7353 C   0  0  2  0  0  0  0  0  0  0  0  0
   14.6514   10.3899    5.1005 O   0  0  0  0  0  0  0  0  0  0  0  0
   15.7682   12.0106    3.6524 C   0  0  0  0  0  0  0  0  0  0  0  0
   14.9596   13.1259    4.0036 N   0  0  0  0  0  0  0  0  0  0  0  0
   17.4875    5.2633    6.7239 C   0  0  2  0  0  0  0  0  0  0  0  0
   18.6689    4.7746    7.4459 N   0  0  0  0  0  0  0  0  0  0  0  0
   17.9590    6.1143    5.4255 C   0  0  0  0  0  0  0  0  0  0  0  0
   16.6816    6.6509    4.6591 C   0  0  2  0  0  0  0  0  0  0  0  0
   17.0644    7.4532    3.4838 N   0  0  0  0  0  0  0  0  0  0  0  0
   15.8199    7.5247    5.6319 C   0  0  2  0  0  0  0  0  0  0  0  0
   15.3968    6.7005    6.8927 C   0  0  2  0  0  0  0  0  0  0  0  0
   14.6234    7.5962    7.7284 O   0  0  0  0  0  0  0  0  0  0  0  0
   16.6678    6.1852    7.6414 C   0  0  1  0  0  0  0  0  0  0  0  0
   16.2623    5.4475    8.7446 O   0  0  0  0  0  0  0  0  0  0  0  0
   13.8437    7.2206    8.7712 C   0  0  1  0  0  0  0  0  0  0  0  0
   13.2326    8.4564    9.4817 C   0  0  2  0  0  0  0  0  0  0  0  0
   14.0915    9.0271   10.4260 O   0  0  0  0  0  0  0  0  0  0  0  0
   11.9267    7.8471    9.9571 C   0  0  1  0  0  0  0  0  0  0  0  0
   11.4581    6.8888    8.8531 C   0  0  2  0  0  0  0  0  0  0  0  0
   12.7163    6.3749    8.4167 O   0  0  0  0  0  0  0  0  0  0  0  0
   10.6596    7.5505    7.6787 C   0  0  0  0  0  0  0  0  0  0  0  0
    9.4879    8.1870    8.2541 O   0  0  0  0  0  0  0  0  0  0  0  0
   11.1123    6.6461   11.9611 C   0  0  2  0  0  0  0  0  0  0  0  0
   12.2049    7.1300   11.2288 O   0  0  0  0  0  0  0  0  0  0  0  0
   11.5854    5.7060   13.1537 C   0  0  1  0  0  0  0  0  0  0  0  0
    8.7098    3.4245    9.9197 N   0  0  0  0  0  0  0  0  0  0  0  0
   10.2512    5.1917   13.9102 C   0  0  1  0  0  0  0  0  0  0  0  0
    9.4881    6.4070   14.3980 O   0  0  0  0  0  0  0  0  0  0  0  0
    9.3377    4.3255   12.8897 C   0  0  2  0  0  0  0  0  0  0  0  0
   10.0841    3.1670   12.4459 O   0  0  0  0  0  0  0  0  0  0  0  0
    8.9042    5.3105   11.6642 C   0  0  1  0  0  0  0  0  0  0  0  0
   10.1386    5.8785   11.0195 O   0  0  0  0  0  0  0  0  0  0  0  0
    8.0296    4.5756   10.5889 C   0  0  0  0  0  0  0  0  0  0  0  0
   12.4297    4.5860   12.6213 N   0  0  0  0  0  0  0  0  0  0  0  0
  1  2  1  6  0  0  0
  1  3  1  0  0  0  0
  1 10  1  0  0  0  0
  3  4  1  6  0  0  0
  3  5  1  0  0  0  0
  5  6  1  6  0  0  0
  5  7  1  0  0  0  0
  7  8  1  6  0  0  0
  7  9  1  0  0  0  0
  9 10  1  0  0  0  0
  9 11  1  1  0  0  0
 11 12  1  0  0  0  0
 13 14  1  1  0  0  0
 13 15  1  0  0  0  0
 13 21  1  0  0  0  0
 16 15  1  0  0  0  0
 16 17  1  6  0  0  0
 18  2  1  6  0  0  0
 18 16  1  0  0  0  0
 19 18  1  0  0  0  0
 19 20  1  1  0  0  0
 21 19  1  0  0  0  0
 21 22  1  1  0  0  0
 23 20  1  6  0  0  0
 23 24  1  0  0  0  0
 23 28  1  0  0  0  0
 24 25  1  1  0  0  0
 24 26  1  0  0  0  0
 26 27  1  0  0  0  0
 26 32  1  1  0  0  0
 27 28  1  0  0  0  0
 27 29  1  6  0  0  0
 29 30  1  0  0  0  0
 31 32  1  6  0  0  0
 31 40  1  0  0  0  0
 33 31  1  0  0  0  0
 33 42  1  6  0  0  0
 35 33  1  0  0  0  0
 35 36  1  6  0  0  0
 37 35  1  0  0  0  0
 37 38  1  6  0  0  0
 37 39  1  0  0  0  0
 39 40  1  0  0  0  0
 39 41  1  6  0  0  0
 41 34  1  0  0  0  0
M  END
>  <CHROM.1>
-167.21796217,53.37312255,-159.36937298,165.74381293,176.74556216,171.00704350
-59.17539317,170.60194061,-61.10263638,13.11360395,7.34865600,7.81936087
1.06424070,0.29044729,-0.94716107

>  <Name>
2et4_lig

>  <RI>
0

>  <Rbt.Current_Directory>
/home/itssahil/PROJECTS/Mol_Feturizer/New_Systems/rnas/2et4

>  <Rbt.Executable>
rbdock ($Id: //depot/dev/client3/rdock/2013.1/src/exe/rbdock.cxx#4 $)

>  <Rbt.Library>
libRbt.so (2013.1, Build901 2013/11/27)

>  <Rbt.Parameter_File>
/export/apps/rDock/src/rDock_2013.1_src/data/scripts/dock_solv.prm

>  <Rbt.Receptor>
prm/pocket_docking_2.prm

>  <SCORE>
-18.2189

>  <SCORE.INTER>
-10.7809

>  <SCORE.INTER.CONST>
1

>  <SCORE.INTER.POLAR>
-1.48241

>  <SCORE.INTER.ROT>
9

>  <SCORE.INTER.SOLV>
19.8638

>  <SCORE.INTER.VDW>
-18.4672

>  <SCORE.INTER.norm>
-0.256689

>  <SCORE.INTRA>
-7.5011

>  <SCORE.INTRA.DIHEDRAL>
-16.8539

>  <SCORE.INTRA.DIHEDRAL.0>
21.6909

>  <SCORE.INTRA.POLAR>
0

>  <SCORE.INTRA.POLAR.0>
0

>  <SCORE.INTRA.REPUL>
0

>  <SCORE.INTRA.REPUL.0>
0

>  <SCORE.INTRA.SOLV>
-0.127808

>  <SCORE.INTRA.SOLV.lig_0>
-116.606

>  <SCORE.INTRA.VDW>
0.98975

>  <SCORE.INTRA.VDW.0>
-6.01229

>  <SCORE.INTRA.norm>
-0.178598

>  <SCORE.RESTR>
0.0631334

>  <SCORE.RESTR.CAVITY>
0.0631334

>  <SCORE.RESTR.norm>
0.00150318

>  <SCORE.SYSTEM>
0

>  <SCORE.SYSTEM.CONST>
0

>  <SCORE.SYSTEM.DIHEDRAL>
0

>  <SCORE.SYSTEM.SOLV>
0

>  <SCORE.SYSTEM.norm>
0

>  <SCORE.heavy>
42

>  <SCORE.norm>
-0.433783

>  <RMSD>
0.816

$$$$
2et4_lig
 OpenBabel11021811423D
libRbt.so/2013.1/901 2013/11/27
 42 45  0  0  0  0  0  0  0  0999 V2000
   13.8146    9.2266    5.1417 C   0  0  2  0  0  0  0  0  0  0  0  0
   14.7596    8.2884    4.6230 O   0  0  0  0  0  0  0  0  0  0  0  0
   12.5144    9.0719    4.3121 C   0  0  2  0  0  0  0  0  0  0  0  0
   12.0141    7.7219    4.3667 N   0  0  0  0  0  0  0  0  0  0  0  0
   12.7874    9.5086    2.8438 C   0  0  1  0  0  0  0  0  0  0  0  0
   11.6130    9.3838    2.1041 O   0  0  0  0  0  0  0  0  0  0  0  0
   13.3235   10.9790    2.8623 C   0  0  2  0  0  0  0  0  0  0  0  0
   13.5923   11.4152    1.5466 O   0  0  0  0  0  0  0  0  0  0  0  0
   14.6234   11.0853    3.7161 C   0  0  2  0  0  0  0  0  0  0  0  0
   14.3341   10.6198    5.0376 O   0  0  0  0  0  0  0  0  0  0  0  0
   15.1653   12.5503    3.7913 C   0  0  0  0  0  0  0  0  0  0  0  0
   15.6440   13.0105    2.5343 N   0  0  0  0  0  0  0  0  0  0  0  0
   17.9359    5.9070    6.3243 C   0  0  2  0  0  0  0  0  0  0  0  0
   19.1788    5.5576    7.0234 N   0  0  0  0  0  0  0  0  0  0  0  0
   18.2784    6.8424    5.0437 C   0  0  0  0  0  0  0  0  0  0  0  0
   16.9334    7.2279    4.3022 C   0  0  2  0  0  0  0  0  0  0  0  0
   17.1957    8.1007    3.1442 N   0  0  0  0  0  0  0  0  0  0  0  0
   15.9781    7.9598    5.3043 C   0  0  2  0  0  0  0  0  0  0  0  0
   15.6797    7.0579    6.5475 C   0  0  2  0  0  0  0  0  0  0  0  0
   14.8074    7.8262    7.4123 O   0  0  0  0  0  0  0  0  0  0  0  0
   17.0152    6.6932    7.2719 C   0  0  1  0  0  0  0  0  0  0  0  0
   16.7213    5.8833    8.3597 O   0  0  0  0  0  0  0  0  0  0  0  0
   14.0925    7.3278    8.4500 C   0  0  1  0  0  0  0  0  0  0  0  0
   13.4770    8.4696    9.3003 C   0  0  2  0  0  0  0  0  0  0  0  0
   14.3620    8.9827   10.2534 O   0  0  0  0  0  0  0  0  0  0  0  0
   12.2166    7.7712    9.7760 C   0  0  1  0  0  0  0  0  0  0  0  0
   11.7259    6.9016    8.6098 C   0  0  2  0  0  0  0  0  0  0  0  0
   12.9773    6.4770    8.0701 O   0  0  0  0  0  0  0  0  0  0  0  0
   10.8496    7.6383    7.5402 C   0  0  0  0  0  0  0  0  0  0  0  0
    9.6585    8.1243    8.2142 O   0  0  0  0  0  0  0  0  0  0  0  0
   11.5406    6.3710   11.7006 C   0  0  2  0  0  0  0  0  0  0  0  0
   12.5801    6.9511   10.9609 O   0  0  0  0  0  0  0  0  0  0  0  0
   12.1042    5.4972   12.9042 C   0  0  1  0  0  0  0  0  0  0  0  0
    7.4337    3.3449   10.8815 N   0  0  0  0  0  0  0  0  0  0  0  0
   10.8273    4.8633   13.6688 C   0  0  1  0  0  0  0  0  0  0  0  0
    9.9480    6.0035   14.1423 O   0  0  0  0  0  0  0  0  0  0  0  0
   10.0036    3.8985   12.6603 C   0  0  2  0  0  0  0  0  0  0  0  0
   10.8607    2.8139   12.2301 O   0  0  0  0  0  0  0  0  0  0  0  0
    9.4751    4.8205   11.4232 C   0  0  1  0  0  0  0  0  0  0  0  0
   10.6473    5.4994   10.7699 O   0  0  0  0  0  0  0  0  0  0  0  0
    8.6772    3.9895   10.3583 C   0  0  0  0  0  0  0  0  0  0  0  0
   13.0548    4.4594   12.3847 N   0  0  0  0  0  0  0  0  0  0  0  0
  1  2  1  6  0  0  0
  1  3  1  0  0  0  0
  1 10  1  0  0  0  0
  3  4  1  6  0  0  0
  3  5  1  0  0  0  0
  5  6  1  6  0  0  0
  5  7  1  0  0  0  0
  7  8  1  6  0  0  0
  7  9  1  0  0  0  0
  9 10  1  0  0  0  0
  9 11  1  1  0  0  0
 11 12  1  0  0  0  0
 13 14  1  1  0  0  0
 13 15  1  0  0  0  0
 13 21  1  0  0  0  0
 16 15  1  0  0  0  0
 16 17  1  6  0  0  0
 18  2  1  6  0  0  0
 18 16  1  0  0  0  0
 19 18  1  0  0  0  0
 19 20  1  1  0  0  0
 21 19  1  0  0  0  0
 21 22  1  1  0  0  0
 23 20  1  6  0  0  0
 23 24  1  0  0  0  0
 23 28  1  0  0  0  0
 24 25  1  1  0  0  0
 24 26  1  0  0  0  0
 26 27  1  0  0  0  0
 26 32  1  1  0  0  0
 27 28  1  0  0  0  0
 27 29  1  6  0  0  0
 29 30  1  0  0  0  0
 31 32  1  6  0  0  0
 31 40  1  0  0  0  0
 33 31  1  0  0  0  0
 33 42  1  6  0  0  0
 35 33  1  0  0  0  0
 35 36  1  6  0  0  0
 37 35  1  0  0  0  0
 37 38  1  6  0  0  0
 37 39  1  0  0  0  0
 39 40  1  0  0  0  0
 39 41  1  6  0  0  0
 41 34  1  0  0  0  0
M  END
>  <CHROM.1>
-167.35410186,-67.74549399,-164.72460866,165.57228792,169.84862889,170.48450943
-61.64491633,178.38352305,61.86960833,13.31703486,7.43800833,7.58155772,1.12362768
0.17135686,-0.96426145

>  <Name>
2et4_lig

>  <RI>
0

>  <Rbt.Current_Directory>
/home/itssahil/PROJECTS/Mol_Feturizer/New_Systems/rnas/2et4

>  <Rbt.Executable>
rbdock ($Id: //depot/dev/client3/rdock/2013.1/src/exe/rbdock.cxx#4 $)

>  <Rbt.Library>
libRbt.so (2013.1, Build901 2013/11/27)

>  <Rbt.Parameter_File>
/export/apps/rDock/src/rDock_2013.1_src/data/scripts/dock_solv.prm

>  <Rbt.Receptor>
prm/pocket_docking_3.prm

>  <SCORE>
-26.992

>  <SCORE.INTER>
-18.1386

>  <SCORE.INTER.CONST>
1

>  <SCORE.INTER.POLAR>
-1.5836

>  <SCORE.INTER.ROT>
9

>  <SCORE.INTER.SOLV>
19.0045

>  <SCORE.INTER.VDW>
-22.7486

>  <SCORE.INTER.norm>
-0.431872

>  <SCORE.INTRA>
-8.85414

>  <SCORE.INTRA.DIHEDRAL>
-17.5045

>  <SCORE.INTRA.DIHEDRAL.0>
21.6909

>  <SCORE.INTRA.POLAR>
0

>  <SCORE.INTRA.POLAR.0>
0

>  <SCORE.INTRA.REPUL>
0

>  <SCORE.INTRA.REPUL.0>
0

>  <SCORE.INTRA.SOLV>
-2.50764

>  <SCORE.INTRA.SOLV.lig_0>
-116.606

>  <SCORE.INTRA.VDW>
1.15193

>  <SCORE.INTRA.VDW.0>
-6.01229

>  <SCORE.INTRA.norm>
-0.210813

>  <SCORE.RESTR>
0.00073872

>  <SCORE.RESTR.CAVITY>
0.00073872

>  <SCORE.RESTR.norm>
1.75886e-05

>  <SCORE.SYSTEM>
0

>  <SCORE.SYSTEM.CONST>
0

>  <SCORE.SYSTEM.DIHEDRAL>
0

>  <SCORE.SYSTEM.SOLV>
0

>  <SCORE.SYSTEM.norm>
0

>  <SCORE.heavy>
42

>  <SCORE.norm>
-0.642667

>  <RMSD>
0.835

$$$$
2et4_lig
 OpenBabel11021811423D
libRbt.so/2013.1/901 2013/11/27
 42 45  0  0  0  0  0  0  0  0999 V2000
   13.7851    9.4223    5.0657 C   0  0  2  0  0  0  0  0  0  0  0  0
   14.7385    8.4623    4.6057 O   0  0  0  0  0  0  0  0  0  0  0  0
   12.5193    9.2676    4.1845 C   0  0  2  0  0  0  0  0  0  0  0  0
   11.9990    7.9254    4.2435 N   0  0  0  0  0  0  0  0  0  0  0  0
   12.8600    9.6719    2.7211 C   0  0  1  0  0  0  0  0  0  0  0  0
   11.7165    9.5474    1.9346 O   0  0  0  0  0  0  0  0  0  0  0  0
   13.4145   11.1355    2.7343 C   0  0  2  0  0  0  0  0  0  0  0  0
   13.7447   11.5424    1.4232 O   0  0  0  0  0  0  0  0  0  0  0  0
   14.6784   11.2422    3.6406 C   0  0  2  0  0  0  0  0  0  0  0  0
   14.3271   10.8065    4.9572 O   0  0  0  0  0  0  0  0  0  0  0  0
   15.2362   12.7015    3.7107 C   0  0  0  0  0  0  0  0  0  0  0  0
   15.7613   13.1358    2.4631 N   0  0  0  0  0  0  0  0  0  0  0  0
   17.6924    5.9990    6.5709 C   0  0  2  0  0  0  0  0  0  0  0  0
   18.8780    5.6177    7.3484 N   0  0  0  0  0  0  0  0  0  0  0  0
   18.1486    6.8567    5.2715 C   0  0  0  0  0  0  0  0  0  0  0  0
   16.8653    7.2773    4.4448 C   0  0  2  0  0  0  0  0  0  0  0  0
   17.2320    8.0823    3.2661 N   0  0  0  0  0  0  0  0  0  0  0  0
   15.9018    8.1021    5.3634 C   0  0  2  0  0  0  0  0  0  0  0  0
   15.4932    7.2740    6.6264 C   0  0  2  0  0  0  0  0  0  0  0  0
   14.6213    8.1246    7.4108 O   0  0  0  0  0  0  0  0  0  0  0  0
   16.7691    6.8738    7.4346 C   0  0  1  0  0  0  0  0  0  0  0  0
   16.3777    6.1300    8.5389 O   0  0  0  0  0  0  0  0  0  0  0  0
   13.8482    7.7156    8.4459 C   0  0  1  0  0  0  0  0  0  0  0  0
   13.3625    8.9239    9.2882 C   0  0  2  0  0  0  0  0  0  0  0  0
   14.2949    9.3364   10.2449 O   0  0  0  0  0  0  0  0  0  0  0  0
   12.0278    8.3761    9.7586 C   0  0  1  0  0  0  0  0  0  0  0  0
   11.4475    7.5634    8.5926 C   0  0  2  0  0  0  0  0  0  0  0  0
   12.6453    6.9962    8.0621 O   0  0  0  0  0  0  0  0  0  0  0  0
   10.6674    8.3909    7.5150 C   0  0  0  0  0  0  0  0  0  0  0  0
   10.0797    7.4453    6.5825 O   0  0  0  0  0  0  0  0  0  0  0  0
   11.1850    6.9793   11.6187 C   0  0  2  0  0  0  0  0  0  0  0  0
   12.2883    7.5249   10.9487 O   0  0  0  0  0  0  0  0  0  0  0  0
   11.6213    6.2806   12.9794 C   0  0  1  0  0  0  0  0  0  0  0  0
    7.3030    3.7157   10.6417 N   0  0  0  0  0  0  0  0  0  0  0  0
   10.2816    5.6719   13.6511 C   0  0  1  0  0  0  0  0  0  0  0  0
    9.3058    6.8106   13.8713 O   0  0  0  0  0  0  0  0  0  0  0  0
    9.6322    4.5553   12.6723 C   0  0  2  0  0  0  0  0  0  0  0  0
   10.5782    3.4754   12.4854 O   0  0  0  0  0  0  0  0  0  0  0  0
    9.2330    5.2998   11.2773 C   0  0  1  0  0  0  0  0  0  0  0  0
   10.4530    5.9604   10.6967 O   0  0  0  0  0  0  0  0  0  0  0  0
    8.6113    4.3109   10.2300 C   0  0  0  0  0  0  0  0  0  0  0  0
   12.6699    5.2419   12.7104 N   0  0  0  0  0  0  0  0  0  0  0  0
  1  2  1  6  0  0  0
  1  3  1  0  0  0  0
  1 10  1  0  0  0  0
  3  4  1  6  0  0  0
  3  5  1  0  0  0  0
  5  6  1  6  0  0  0
  5  7  1  0  0  0  0
  7  8  1  6  0  0  0
  7  9  1  0  0  0  0
  9 10  1  0  0  0  0
  9 11  1  1  0  0  0
 11 12  1  0  0  0  0
 13 14  1  1  0  0  0
 13 15  1  0  0  0  0
 13 21  1  0  0  0  0
 16 15  1  0  0  0  0
 16 17  1  6  0  0  0
 18  2  1  6  0  0  0
 18 16  1  0  0  0  0
 19 18  1  0  0  0  0
 19 20  1  1  0  0  0
 21 19  1  0  0  0  0
 21 22  1  1  0  0  0
 23 20  1  6  0  0  0
 23 24  1  0  0  0  0
 23 28  1  0  0  0  0
 24 25  1  1  0  0  0
 24 26  1  0  0  0  0
 26 27  1  0  0  0  0
 26 32  1  1  0  0  0
 27 28  1  0  0  0  0
 27 29  1  6  0  0  0
 29 30  1  0  0  0  0
 31 32  1  6  0  0  0
 31 40  1  0  0  0  0
 33 31  1  0  0  0  0
 33 42  1  6  0  0  0
 35 33  1  0  0  0  0
 35 36  1  6  0  0  0
 37 35  1  0  0  0  0
 37 38  1  6  0  0  0
 37 39  1  0  0  0  0
 39 40  1  0  0  0  0
 39 41  1  6  0  0  0
 41 34  1  0  0  0  0
M  END
>  <CHROM.1>
-165.41825504,-67.13631220,-167.95775350,166.87514101,164.26009505,175.67827196
-174.04978179,-171.61943168,64.65592431,13.17301826,7.76055527,7.53556402
1.09683938,0.15479630,-1.00773087

>  <Name>
2et4_lig

>  <RI>
0

>  <Rbt.Current_Directory>
/home/itssahil/PROJECTS/Mol_Feturizer/New_Systems/rnas/2et4

>  <Rbt.Executable>
rbdock ($Id: //depot/dev/client3/rdock/2013.1/src/exe/rbdock.cxx#4 $)

>  <Rbt.Library>
libRbt.so (2013.1, Build901 2013/11/27)

>  <Rbt.Parameter_File>
/export/apps/rDock/src/rDock_2013.1_src/data/scripts/dock_solv.prm

>  <Rbt.Receptor>
prm/pocket_docking_3.prm

>  <SCORE>
-25.9956

>  <SCORE.INTER>
-17.5642

>  <SCORE.INTER.CONST>
1

>  <SCORE.INTER.POLAR>
-1.42051

>  <SCORE.INTER.ROT>
9

>  <SCORE.INTER.SOLV>
18.6322

>  <SCORE.INTER.VDW>
-22.7852

>  <SCORE.INTER.norm>
-0.418196

>  <SCORE.INTRA>
-8.43137

>  <SCORE.INTRA.DIHEDRAL>
-17.0558

>  <SCORE.INTRA.DIHEDRAL.0>
21.6909

>  <SCORE.INTRA.POLAR>
0

>  <SCORE.INTRA.POLAR.0>
0

>  <SCORE.INTRA.REPUL>
0

>  <SCORE.INTRA.REPUL.0>
0

>  <SCORE.INTRA.SOLV>
-2.00114

>  <SCORE.INTRA.SOLV.lig_0>
-116.606

>  <SCORE.INTRA.VDW>
1.09711

>  <SCORE.INTRA.VDW.0>
-6.01229

>  <SCORE.INTRA.norm>
-0.200747

>  <SCORE.RESTR>
0

>  <SCORE.RESTR.CAVITY>
0

>  <SCORE.RESTR.norm>
0

>  <SCORE.SYSTEM>
0

>  <SCORE.SYSTEM.CONST>
0

>  <SCORE.SYSTEM.DIHEDRAL>
0

>  <SCORE.SYSTEM.SOLV>
0

>  <SCORE.SYSTEM.norm>
0

>  <SCORE.heavy>
42

>  <SCORE.norm>
-0.618943

>  <RMSD>
0.837

$$$$
2et4_lig
 OpenBabel11021811423D
libRbt.so/2013.1/901 2013/11/27
 42 45  0  0  0  0  0  0  0  0999 V2000
   13.8601    9.1963    5.1771 C   0  0  2  0  0  0  0  0  0  0  0  0
   14.7589    8.1863    4.7142 O   0  0  0  0  0  0  0  0  0  0  0  0
   12.5596    9.0677    4.3435 C   0  0  2  0  0  0  0  0  0  0  0  0
   11.9896    7.7496    4.4592 N   0  0  0  0  0  0  0  0  0  0  0  0
   12.8654    9.4168    2.8583 C   0  0  1  0  0  0  0  0  0  0  0  0
   11.6915    9.3162    2.1142 O   0  0  0  0  0  0  0  0  0  0  0  0
   13.4768   10.8569    2.8100 C   0  0  2  0  0  0  0  0  0  0  0  0
   13.7773   11.2132    1.4773 O   0  0  0  0  0  0  0  0  0  0  0  0
   14.7742   10.9383    3.6702 C   0  0  2  0  0  0  0  0  0  0  0  0
   14.4517   10.5541    5.0100 O   0  0  0  0  0  0  0  0  0  0  0  0
   15.3907   12.3754    3.6789 C   0  0  0  0  0  0  0  0  0  0  0  0
   14.7093   13.2463    4.5724 N   0  0  0  0  0  0  0  0  0  0  0  0
   18.0599    5.9293    6.3462 C   0  0  2  0  0  0  0  0  0  0  0  0
   19.3342    5.6287    7.0106 N   0  0  0  0  0  0  0  0  0  0  0  0
   18.3331    6.8572    5.0436 C   0  0  0  0  0  0  0  0  0  0  0  0
   16.9544    7.1901    4.3395 C   0  0  2  0  0  0  0  0  0  0  0  0
   17.1531    8.0547    3.1628 N   0  0  0  0  0  0  0  0  0  0  0  0
   16.0075    7.9054    5.3614 C   0  0  2  0  0  0  0  0  0  0  0  0
   15.7763    7.0119    6.6247 C   0  0  2  0  0  0  0  0  0  0  0  0
   14.9070    7.7643    7.5064 O   0  0  0  0  0  0  0  0  0  0  0  0
   17.1443    6.6993    7.3118 C   0  0  1  0  0  0  0  0  0  0  0  0
   16.9098    5.8956    8.4185 O   0  0  0  0  0  0  0  0  0  0  0  0
   14.1912    7.2462    8.5337 C   0  0  1  0  0  0  0  0  0  0  0  0
   13.4577    8.3641    9.3197 C   0  0  2  0  0  0  0  0  0  0  0  0
   14.2628    8.9744   10.2863 O   0  0  0  0  0  0  0  0  0  0  0  0
   12.2359    7.5864    9.7726 C   0  0  1  0  0  0  0  0  0  0  0  0
   11.8592    6.6444    8.6205 C   0  0  2  0  0  0  0  0  0  0  0  0
   13.1597    6.3002    8.1429 O   0  0  0  0  0  0  0  0  0  0  0  0
   10.9728    7.2764    7.4937 C   0  0  0  0  0  0  0  0  0  0  0  0
    9.7419    7.7336    8.1142 O   0  0  0  0  0  0  0  0  0  0  0  0
   11.5831    6.2839   11.7723 C   0  0  2  0  0  0  0  0  0  0  0  0
   12.6131    6.8356   10.9985 O   0  0  0  0  0  0  0  0  0  0  0  0
   12.1622    5.4293   12.9823 C   0  0  1  0  0  0  0  0  0  0  0  0
    8.0742    4.7047    9.4231 N   0  0  0  0  0  0  0  0  0  0  0  0
   10.8948    4.8273   13.7873 C   0  0  1  0  0  0  0  0  0  0  0  0
   10.0389    5.9877   14.2545 O   0  0  0  0  0  0  0  0  0  0  0  0
   10.0386    3.8510   12.8175 C   0  0  2  0  0  0  0  0  0  0  0  0
   10.8738    2.7472   12.3928 O   0  0  0  0  0  0  0  0  0  0  0  0
    9.4944    4.7526   11.5722 C   0  0  1  0  0  0  0  0  0  0  0  0
   10.6601    5.4034   10.8797 O   0  0  0  0  0  0  0  0  0  0  0  0
    8.6644    3.9087   10.5426 C   0  0  0  0  0  0  0  0  0  0  0  0
   13.0895    4.3693   12.4654 N   0  0  0  0  0  0  0  0  0  0  0  0
  1  2  1  6  0  0  0
  1  3  1  0  0  0  0
  1 10  1  0  0  0  0
  3  4  1  6  0  0  0
  3  5  1  0  0  0  0
  5  6  1  6  0  0  0
  5  7  1  0  0  0  0
  7  8  1  6  0  0  0
  7  9  1  0  0  0  0
  9 10  1  0  0  0  0
  9 11  1  1  0  0  0
 11 12  1  0  0  0  0
 13 14  1  1  0  0  0
 13 15  1  0  0  0  0
 13 21  1  0  0  0  0
 16 15  1  0  0  0  0
 16 17  1  6  0  0  0
 18  2  1  6  0  0  0
 18 16  1  0  0  0  0
 19 18  1  0  0  0  0
 19 20  1  1  0  0  0
 21 19  1  0  0  0  0
 21 22  1  1  0  0  0
 23 20  1  6  0  0  0
 23 24  1  0  0  0  0
 23 28  1  0  0  0  0
 24 25  1  1  0  0  0
 24 26  1  0  0  0  0
 26 27  1  0  0  0  0
 26 32  1  1  0  0  0
 27 28  1  0  0  0  0
 27 29  1  6  0  0  0
 29 30  1  0  0  0  0
 31 32  1  6  0  0  0
 31 40  1  0  0  0  0
 33 31  1  0  0  0  0
 33 42  1  6  0  0  0
 35 33  1  0  0  0  0
 35 36  1  6  0  0  0
 37 35  1  0  0  0  0
 37 38  1  6  0  0  0
 37 39  1  0  0  0  0
 39 40  1  0  0  0  0
 39 41  1  6  0  0  0
 41 34  1  0  0  0  0
M  END
>  <CHROM.1>
-172.63968213,79.01506677,-158.36987566,162.27227672,175.83656959,165.92144218
-59.67072165,175.88146149,176.56977026,13.37769295,7.39251150,7.63542636
1.12824738,0.16778914,-0.97731140

>  <Name>
2et4_lig

>  <RI>
0

>  <Rbt.Current_Directory>
/home/itssahil/PROJECTS/Mol_Feturizer/New_Systems/rnas/2et4

>  <Rbt.Executable>
rbdock ($Id: //depot/dev/client3/rdock/2013.1/src/exe/rbdock.cxx#4 $)

>  <Rbt.Library>
libRbt.so (2013.1, Build901 2013/11/27)

>  <Rbt.Parameter_File>
/export/apps/rDock/src/rDock_2013.1_src/data/scripts/dock_solv.prm

>  <Rbt.Receptor>
prm/pocket_docking_3.prm

>  <SCORE>
-22.1151

>  <SCORE.INTER>
-14.243

>  <SCORE.INTER.CONST>
1

>  <SCORE.INTER.POLAR>
-1.83825

>  <SCORE.INTER.ROT>
9

>  <SCORE.INTER.SOLV>
26.6862

>  <SCORE.INTER.VDW>
-21.8632

>  <SCORE.INTER.norm>
-0.339118

>  <SCORE.INTRA>
-7.87215

>  <SCORE.INTRA.DIHEDRAL>
-15.3964

>  <SCORE.INTRA.DIHEDRAL.0>
21.6909

>  <SCORE.INTRA.POLAR>
0

>  <SCORE.INTRA.POLAR.0>
0

>  <SCORE.INTRA.REPUL>
0

>  <SCORE.INTRA.REPUL.0>
0

>  <SCORE.INTRA.SOLV>
-1.68542

>  <SCORE.INTRA.SOLV.lig_0>
-116.606

>  <SCORE.INTRA.VDW>
0.668757

>  <SCORE.INTRA.VDW.0>
-6.01229

>  <SCORE.INTRA.norm>
-0.187432

>  <SCORE.RESTR>
0

>  <SCORE.RESTR.CAVITY>
0

>  <SCORE.RESTR.norm>
0

>  <SCORE.SYSTEM>
0

>  <SCORE.SYSTEM.CONST>
0

>  <SCORE.SYSTEM.DIHEDRAL>
0

>  <SCORE.SYSTEM.SOLV>
0

>  <SCORE.SYSTEM.norm>
0

>  <SCORE.heavy>
42

>  <SCORE.norm>
-0.52655

>  <RMSD>
0.852

$$$$
2et4_lig
 OpenBabel11021811423D
libRbt.so/2013.1/901 2013/11/27
 42 45  0  0  0  0  0  0  0  0999 V2000
   13.9000    9.2273    5.3831 C   0  0  2  0  0  0  0  0  0  0  0  0
   14.6393    8.0802    4.9592 O   0  0  0  0  0  0  0  0  0  0  0  0
   12.5329    9.1850    4.6539 C   0  0  2  0  0  0  0  0  0  0  0  0
   11.8270    7.9602    4.9318 N   0  0  0  0  0  0  0  0  0  0  0  0
   12.7608    9.3652    3.1252 C   0  0  1  0  0  0  0  0  0  0  0  0
   11.5291    9.3430    2.4739 O   0  0  0  0  0  0  0  0  0  0  0  0
   13.5268   10.7115    2.9000 C   0  0  2  0  0  0  0  0  0  0  0  0
   13.7620   10.9126    1.5224 O   0  0  0  0  0  0  0  0  0  0  0  0
   14.8876   10.7098    3.6603 C   0  0  2  0  0  0  0  0  0  0  0  0
   14.6279   10.4843    5.0490 O   0  0  0  0  0  0  0  0  0  0  0  0
   15.6627   12.0574    3.4916 C   0  0  0  0  0  0  0  0  0  0  0  0
   14.9353   13.1634    4.0099 N   0  0  0  0  0  0  0  0  0  0  0  0
   17.4469    5.3261    6.7445 C   0  0  2  0  0  0  0  0  0  0  0  0
   18.6260    4.8260    7.4623 N   0  0  0  0  0  0  0  0  0  0  0  0
   17.9220    6.1727    5.4446 C   0  0  0  0  0  0  0  0  0  0  0  0
   16.6470    6.7216    4.6826 C   0  0  2  0  0  0  0  0  0  0  0  0
   17.0334    7.5204    3.5060 N   0  0  0  0  0  0  0  0  0  0  0  0
   15.7972    7.6035    5.6586 C   0  0  2  0  0  0  0  0  0  0  0  0
   15.3706    6.7832    6.9207 C   0  0  2  0  0  0  0  0  0  0  0  0
   14.6087    7.6862    7.7592 O   0  0  0  0  0  0  0  0  0  0  0  0
   16.6392    6.2557    7.6650 C   0  0  1  0  0  0  0  0  0  0  0  0
   16.2305    5.5218    8.7695 O   0  0  0  0  0  0  0  0  0  0  0  0
   13.8285    7.3179    8.8042 C   0  0  1  0  0  0  0  0  0  0  0  0
   13.3607    8.5564    9.6122 C   0  0  2  0  0  0  0  0  0  0  0  0
   14.2986    8.9809   10.5583 O   0  0  0  0  0  0  0  0  0  0  0  0
   12.0173    8.0424   10.0959 C   0  0  1  0  0  0  0  0  0  0  0  0
   11.4257    7.2067    8.9521 C   0  0  2  0  0  0  0  0  0  0  0  0
   12.6150    6.6068    8.4390 O   0  0  0  0  0  0  0  0  0  0  0  0
   10.6592    8.0160    7.8510 C   0  0  0  0  0  0  0  0  0  0  0  0
    9.9649    7.0563    7.0107 O   0  0  0  0  0  0  0  0  0  0  0  0
   11.1513    6.7240   12.0020 C   0  0  2  0  0  0  0  0  0  0  0  0
   12.2638    7.2206   11.3094 O   0  0  0  0  0  0  0  0  0  0  0  0
   11.5919    5.7925   13.2135 C   0  0  1  0  0  0  0  0  0  0  0  0
    6.7789    4.1905   10.9503 N   0  0  0  0  0  0  0  0  0  0  0  0
   10.2375    5.2624   13.9215 C   0  0  1  0  0  0  0  0  0  0  0  0
    9.4412    6.4687   14.3778 O   0  0  0  0  0  0  0  0  0  0  0  0
    9.3735    4.3825   12.8700 C   0  0  2  0  0  0  0  0  0  0  0  0
   10.1506    3.2329   12.4570 O   0  0  0  0  0  0  0  0  0  0  0  0
    8.9730    5.3594   11.6270 C   0  0  1  0  0  0  0  0  0  0  0  0
   10.2229    5.9421   11.0269 O   0  0  0  0  0  0  0  0  0  0  0  0
    8.1483    4.6111   10.5219 C   0  0  0  0  0  0  0  0  0  0  0  0
   12.4697    4.6825   12.7154 N   0  0  0  0  0  0  0  0  0  0  0  0
  1  2  1  6  0  0  0
  1  3  1  0  0  0  0
  1 10  1  0  0  0  0
  3  4  1  6  0  0  0
  3  5  1  0  0  0  0
  5  6  1  6  0  0  0
  5  7  1  0  0  0  0
  7  8  1  6  0  0  0
  7  9  1  0  0  0  0
  9 10  1  0  0  0  0
  9 11  1  1  0  0  0
 11 12  1  0  0  0  0
 13 14  1  1  0  0  0
 13 15  1  0  0  0  0
 13 21  1  0  0  0  0
 16 15  1  0  0  0  0
 16 17  1  6  0  0  0
 18  2  1  6  0  0  0
 18 16  1  0  0  0  0
 19 18  1  0  0  0  0
 19 20  1  1  0  0  0
 21 19  1  0  0  0  0
 21 22  1  1  0  0  0
 23 20  1  6  0  0  0
 23 24  1  0  0  0  0
 23 28  1  0  0  0  0
 24 25  1  1  0  0  0
 24 26  1  0  0  0  0
 26 27  1  0  0  0  0
 26 32  1  1  0  0  0
 27 28  1  0  0  0  0
 27 29  1  6  0  0  0
 29 30  1  0  0  0  0
 31 32  1  6  0  0  0
 31 40  1  0  0  0  0
 33 31  1  0  0  0  0
 33 42  1  6  0  0  0
 35 33  1  0  0  0  0
 35 36  1  6  0  0  0
 37 35  1  0  0  0  0
 37 38  1  6  0  0  0
 37 39  1  0  0  0  0
 39 40  1  0  0  0  0
 39 41  1  6  0  0  0
 41 34  1  0  0  0  0
M  END
>  <CHROM.1>
-164.00707397,61.19758056,-158.99822521,165.70607330,170.41131049,174.93204828
-169.32592342,176.31343051,67.70934541,13.06843902,7.41567617,7.84221184
1.06717046,0.23075756,-0.98548916

>  <Name>
2et4_lig

>  <RI>
0

>  <Rbt.Current_Directory>
/home/itssahil/PROJECTS/Mol_Feturizer/New_Systems/rnas/2et4

>  <Rbt.Executable>
rbdock ($Id: //depot/dev/client3/rdock/2013.1/src/exe/rbdock.cxx#4 $)

>  <Rbt.Library>
libRbt.so (2013.1, Build901 2013/11/27)

>  <Rbt.Parameter_File>
/export/apps/rDock/src/rDock_2013.1_src/data/scripts/dock_solv.prm

>  <Rbt.Receptor>
prm/pocket_docking_2.prm

>  <SCORE>
-18.2804

>  <SCORE.INTER>
-11.0766

>  <SCORE.INTER.CONST>
1

>  <SCORE.INTER.POLAR>
-1.40187

>  <SCORE.INTER.ROT>
9

>  <SCORE.INTER.SOLV>
20.6623

>  <SCORE.INTER.VDW>
-19.1989

>  <SCORE.INTER.norm>
-0.263728

>  <SCORE.INTRA>
-7.32666

>  <SCORE.INTRA.DIHEDRAL>
-16.1881

>  <SCORE.INTRA.DIHEDRAL.0>
21.6909

>  <SCORE.INTRA.POLAR>
0

>  <SCORE.INTRA.POLAR.0>
0

>  <SCORE.INTRA.REPUL>
0

>  <SCORE.INTRA.REPUL.0>
0

>  <SCORE.INTRA.SOLV>
-0.752697

>  <SCORE.INTRA.SOLV.lig_0>
-116.606

>  <SCORE.INTRA.VDW>
1.14372

>  <SCORE.INTRA.VDW.0>
-6.01229

>  <SCORE.INTRA.norm>
-0.174444

>  <SCORE.RESTR>
0.122855

>  <SCORE.RESTR.CAVITY>
0.122855

>  <SCORE.RESTR.norm>
0.00292511

>  <SCORE.SYSTEM>
0

>  <SCORE.SYSTEM.CONST>
0

>  <SCORE.SYSTEM.DIHEDRAL>
0

>  <SCORE.SYSTEM.SOLV>
0

>  <SCORE.SYSTEM.norm>
0

>  <SCORE.heavy>
42

>  <SCORE.norm>
-0.435248

>  <RMSD>
0.860

$$$$
2et4_lig
 OpenBabel11021811423D
libRbt.so/2013.1/901 2013/11/27
 42 45  0  0  0  0  0  0  0  0999 V2000
   13.7775    9.2111    5.1368 C   0  0  2  0  0  0  0  0  0  0  0  0
   14.6516    8.1760    4.6822 O   0  0  0  0  0  0  0  0  0  0  0  0
   12.4893    9.1312    4.2784 C   0  0  2  0  0  0  0  0  0  0  0  0
   11.8749    7.8315    4.3729 N   0  0  0  0  0  0  0  0  0  0  0  0
   12.8337    9.4814    2.8020 C   0  0  1  0  0  0  0  0  0  0  0  0
   11.6712    9.4247    2.0358 O   0  0  0  0  0  0  0  0  0  0  0  0
   13.4922   10.9012    2.7767 C   0  0  2  0  0  0  0  0  0  0  0  0
   13.8287   11.2576    1.4526 O   0  0  0  0  0  0  0  0  0  0  0  0
   14.7754   10.9339    3.6612 C   0  0  2  0  0  0  0  0  0  0  0  0
   14.4157   10.5502    4.9916 O   0  0  0  0  0  0  0  0  0  0  0  0
   15.4377   12.3501    3.6928 C   0  0  0  0  0  0  0  0  0  0  0  0
   14.7606   13.2397    4.5709 N   0  0  0  0  0  0  0  0  0  0  0  0
   17.5340    5.5509    6.5409 C   0  0  2  0  0  0  0  0  0  0  0  0
   18.7063    5.1044    7.3038 N   0  0  0  0  0  0  0  0  0  0  0  0
   18.0173    6.4556    5.2839 C   0  0  0  0  0  0  0  0  0  0  0  0
   16.7485    6.9461    4.4734 C   0  0  2  0  0  0  0  0  0  0  0  0
   17.1405    7.7949    3.3342 N   0  0  0  0  0  0  0  0  0  0  0  0
   15.8022    7.7520    5.4260 C   0  0  2  0  0  0  0  0  0  0  0  0
   15.3674    6.8774    6.6482 C   0  0  2  0  0  0  0  0  0  0  0  0
   14.5139    7.7128    7.4683 O   0  0  0  0  0  0  0  0  0  0  0  0
   16.6294    6.4082    7.4412 C   0  0  1  0  0  0  0  0  0  0  0  0
   16.2147    5.6247    8.5088 O   0  0  0  0  0  0  0  0  0  0  0  0
   13.8200    7.2985    8.5560 C   0  0  1  0  0  0  0  0  0  0  0  0
   13.2564    8.5064    9.3491 C   0  0  2  0  0  0  0  0  0  0  0  0
   14.1814    9.0570   10.2414 O   0  0  0  0  0  0  0  0  0  0  0  0
   11.9958    7.8702    9.9048 C   0  0  1  0  0  0  0  0  0  0  0  0
   11.4504    6.9408    8.8113 C   0  0  2  0  0  0  0  0  0  0  0  0
   12.6750    6.4527    8.2637 O   0  0  0  0  0  0  0  0  0  0  0  0
   10.5587    7.6295    7.7227 C   0  0  0  0  0  0  0  0  0  0  0  0
   11.3736    8.6372    7.0672 O   0  0  0  0  0  0  0  0  0  0  0  0
   11.3560    6.4962   11.8604 C   0  0  2  0  0  0  0  0  0  0  0  0
   12.3768    7.1181   11.1287 O   0  0  0  0  0  0  0  0  0  0  0  0
   11.9319    5.7614   13.1481 C   0  0  1  0  0  0  0  0  0  0  0  0
    8.3564    4.4317    9.2922 N   0  0  0  0  0  0  0  0  0  0  0  0
   10.6785    5.0659   13.8977 C   0  0  1  0  0  0  0  0  0  0  0  0
    9.6784    6.1498   14.2477 O   0  0  0  0  0  0  0  0  0  0  0  0
    9.9966    3.9635   12.9251 C   0  0  2  0  0  0  0  0  0  0  0  0
   10.9674    2.9356   12.6133 O   0  0  0  0  0  0  0  0  0  0  0  0
    9.4530    4.7472   11.6022 C   0  0  1  0  0  0  0  0  0  0  0  0
   10.5926    5.4852   10.9553 O   0  0  0  0  0  0  0  0  0  0  0  0
    8.7878    3.7762   10.5649 C   0  0  0  0  0  0  0  0  0  0  0  0
   12.9963    4.7826   12.7482 N   0  0  0  0  0  0  0  0  0  0  0  0
  1  2  1  6  0  0  0
  1  3  1  0  0  0  0
  1 10  1  0  0  0  0
  3  4  1  6  0  0  0
  3  5  1  0  0  0  0
  5  6  1  6  0  0  0
  5  7  1  0  0  0  0
  7  8  1  6  0  0  0
  7  9  1  0  0  0  0
  9 10  1  0  0  0  0
  9 11  1  1  0  0  0
 11 12  1  0  0  0  0
 13 14  1  1  0  0  0
 13 15  1  0  0  0  0
 13 21  1  0  0  0  0
 16 15  1  0  0  0  0
 16 17  1  6  0  0  0
 18  2  1  6  0  0  0
 18 16  1  0  0  0  0
 19 18  1  0  0  0  0
 19 20  1  1  0  0  0
 21 19  1  0  0  0  0
 21 22  1  1  0  0  0
 23 20  1  6  0  0  0
 23 24  1  0  0  0  0
 23 28  1  0  0  0  0
 24 25  1  1  0  0  0
 24 26  1  0  0  0  0
 26 27  1  0  0  0  0
 26 32  1  1  0  0  0
 27 28  1  0  0  0  0
 27 29  1  6  0  0  0
 29 30  1  0  0  0  0
 31 32  1  6  0  0  0
 31 40  1  0  0  0  0
 33 31  1  0  0  0  0
 33 42  1  6  0  0  0
 35 33  1  0  0  0  0
 35 36  1  6  0  0  0
 37 35  1  0  0  0  0
 37 38  1  6  0  0  0
 37 39  1  0  0  0  0
 39 40  1  0  0  0  0
 39 41  1  6  0  0  0
 41 34  1  0  0  0  0
M  END
>  <CHROM.1>
-165.73244023,78.44289959,-163.02353320,173.21082339,168.28042445,176.81156183
60.28052005,-178.96175813,-176.02839621,13.24582467,7.43326665,7.66886214
1.15008091,0.25831267,-0.95755726

>  <Name>
2et4_lig

>  <RI>
0

>  <Rbt.Current_Directory>
/home/itssahil/PROJECTS/Mol_Feturizer/New_Systems/rnas/2et4

>  <Rbt.Executable>
rbdock ($Id: //depot/dev/client3/rdock/2013.1/src/exe/rbdock.cxx#4 $)

>  <Rbt.Library>
libRbt.so (2013.1, Build901 2013/11/27)

>  <Rbt.Parameter_File>
/export/apps/rDock/src/rDock_2013.1_src/data/scripts/dock_solv.prm

>  <Rbt.Receptor>
prm/pocket_docking_3.prm

>  <SCORE>
-20.5748

>  <SCORE.INTER>
-12.8995

>  <SCORE.INTER.CONST>
1

>  <SCORE.INTER.POLAR>
-1.77718

>  <SCORE.INTER.ROT>
9

>  <SCORE.INTER.SOLV>
24.361

>  <SCORE.INTER.VDW>
-20.3961

>  <SCORE.INTER.norm>
-0.307131

>  <SCORE.INTRA>
-7.6753

>  <SCORE.INTRA.DIHEDRAL>
-17.0976

>  <SCORE.INTRA.DIHEDRAL.0>
21.6909

>  <SCORE.INTRA.POLAR>
0

>  <SCORE.INTRA.POLAR.0>
0

>  <SCORE.INTRA.REPUL>
0

>  <SCORE.INTRA.REPUL.0>
0

>  <SCORE.INTRA.SOLV>
-0.296338

>  <SCORE.INTRA.SOLV.lig_0>
-116.606

>  <SCORE.INTRA.VDW>
1.02166

>  <SCORE.INTRA.VDW.0>
-6.01229

>  <SCORE.INTRA.norm>
-0.182745

>  <SCORE.RESTR>
0

>  <SCORE.RESTR.CAVITY>
0

>  <SCORE.RESTR.norm>
0

>  <SCORE.SYSTEM>
0

>  <SCORE.SYSTEM.CONST>
0

>  <SCORE.SYSTEM.DIHEDRAL>
0

>  <SCORE.SYSTEM.SOLV>
0

>  <SCORE.SYSTEM.norm>
0

>  <SCORE.heavy>
42

>  <SCORE.norm>
-0.489876

>  <RMSD>
0.861

$$$$
2et4_lig
 OpenBabel11021811423D
libRbt.so/2013.1/901 2013/11/27
 42 45  0  0  0  0  0  0  0  0999 V2000
   13.8276    9.1001    5.3303 C   0  0  2  0  0  0  0  0  0  0  0  0
   14.5757    7.9554    4.9151 O   0  0  0  0  0  0  0  0  0  0  0  0
   12.5111    9.1070    4.5122 C   0  0  2  0  0  0  0  0  0  0  0  0
   11.7697    7.8859    4.6997 N   0  0  0  0  0  0  0  0  0  0  0  0
   12.8420    9.3356    3.0090 C   0  0  1  0  0  0  0  0  0  0  0  0
   11.6557    9.3576    2.2782 O   0  0  0  0  0  0  0  0  0  0  0  0
   13.6417   10.6752    2.8824 C   0  0  2  0  0  0  0  0  0  0  0  0
   13.9703   10.9194    1.5311 O   0  0  0  0  0  0  0  0  0  0  0  0
   14.9492   10.6234    3.7294 C   0  0  2  0  0  0  0  0  0  0  0  0
   14.5951   10.3548    5.0893 O   0  0  0  0  0  0  0  0  0  0  0  0
   15.7543   11.9622    3.6597 C   0  0  0  0  0  0  0  0  0  0  0  0
   14.9650   13.0832    4.0356 N   0  0  0  0  0  0  0  0  0  0  0  0
   17.4687    5.2347    6.6130 C   0  0  2  0  0  0  0  0  0  0  0  0
   18.6519    4.7486    7.3337 N   0  0  0  0  0  0  0  0  0  0  0  0
   17.9352    6.1816    5.3809 C   0  0  0  0  0  0  0  0  0  0  0  0
   16.6551    6.7144    4.6163 C   0  0  2  0  0  0  0  0  0  0  0  0
   17.0321    7.6018    3.5018 N   0  0  0  0  0  0  0  0  0  0  0  0
   15.7370    7.4927    5.6182 C   0  0  2  0  0  0  0  0  0  0  0  0
   15.3186    6.5767    6.8156 C   0  0  2  0  0  0  0  0  0  0  0  0
   14.4909    7.3887    7.6842 O   0  0  0  0  0  0  0  0  0  0  0  0
   16.5918    6.0660    7.5636 C   0  0  1  0  0  0  0  0  0  0  0  0
   16.1912    5.2467    8.6096 O   0  0  0  0  0  0  0  0  0  0  0  0
   13.7875    6.9338    8.7494 C   0  0  1  0  0  0  0  0  0  0  0  0
   13.2139    8.1110    9.5805 C   0  0  2  0  0  0  0  0  0  0  0  0
   14.1292    8.6303   10.5011 O   0  0  0  0  0  0  0  0  0  0  0  0
   11.9493    7.4528   10.1005 C   0  0  1  0  0  0  0  0  0  0  0  0
   11.4163    6.5631    8.9687 C   0  0  2  0  0  0  0  0  0  0  0  0
   12.6471    6.0973    8.4155 O   0  0  0  0  0  0  0  0  0  0  0  0
   10.5335    7.2895    7.8974 C   0  0  0  0  0  0  0  0  0  0  0  0
   11.3364    8.3543    7.3223 O   0  0  0  0  0  0  0  0  0  0  0  0
   11.2867    6.0709   12.0429 C   0  0  2  0  0  0  0  0  0  0  0  0
   12.3202    6.6572   11.2998 O   0  0  0  0  0  0  0  0  0  0  0  0
   11.8601    5.1331   13.1924 C   0  0  1  0  0  0  0  0  0  0  0  0
    7.7329    4.6941    9.6264 N   0  0  0  0  0  0  0  0  0  0  0  0
   10.5887    4.4977   13.9647 C   0  0  1  0  0  0  0  0  0  0  0  0
    9.7512    5.6372   14.5103 O   0  0  0  0  0  0  0  0  0  0  0  0
    9.7144    3.5970   12.9396 C   0  0  2  0  0  0  0  0  0  0  0  0
   10.5321    2.5116   12.4403 O   0  0  0  0  0  0  0  0  0  0  0  0
    9.1762    4.5836   11.7578 C   0  0  1  0  0  0  0  0  0  0  0  0
   10.3472    5.2617   11.1013 O   0  0  0  0  0  0  0  0  0  0  0  0
    8.3295    3.8184   10.6813 C   0  0  0  0  0  0  0  0  0  0  0  0
   12.7702    4.0960   12.6032 N   0  0  0  0  0  0  0  0  0  0  0  0
  1  2  1  6  0  0  0
  1  3  1  0  0  0  0
  1 10  1  0  0  0  0
  3  4  1  6  0  0  0
  3  5  1  0  0  0  0
  5  6  1  6  0  0  0
  5  7  1  0  0  0  0
  7  8  1  6  0  0  0
  7  9  1  0  0  0  0
  9 10  1  0  0  0  0
  9 11  1  1  0  0  0
 11 12  1  0  0  0  0
 13 14  1  1  0  0  0
 13 15  1  0  0  0  0
 13 21  1  0  0  0  0
 16 15  1  0  0  0  0
 16 17  1  6  0  0  0
 18  2  1  6  0  0  0
 18 16  1  0  0  0  0
 19 18  1  0  0  0  0
 19 20  1  1  0  0  0
 21 19  1  0  0  0  0
 21 22  1  1  0  0  0
 23 20  1  6  0  0  0
 23 24  1  0  0  0  0
 23 28  1  0  0  0  0
 24 25  1  1  0  0  0
 24 26  1  0  0  0  0
 26 27  1  0  0  0  0
 26 32  1  1  0  0  0
 27 28  1  0  0  0  0
 27 29  1  6  0  0  0
 29 30  1  0  0  0  0
 31 32  1  6  0  0  0
 31 40  1  0  0  0  0
 33 31  1  0  0  0  0
 33 42  1  6  0  0  0
 35 33  1  0  0  0  0
 35 36  1  6  0  0  0
 37 35  1  0  0  0  0
 37 38  1  6  0  0  0
 37 39  1  0  0  0  0
 39 40  1  0  0  0  0
 39 41  1  6  0  0  0
 41 34  1  0  0  0  0
M  END
>  <CHROM.1>
-168.69167967,55.00890639,-154.14463891,171.38196866,170.46985532,173.20939277
58.18526168,173.89749675,175.97006018,13.18377397,7.14166161,7.79632366,1.12481166
0.24855044,-0.93853958

>  <Name>
2et4_lig

>  <RI>
0

>  <Rbt.Current_Directory>
/home/itssahil/PROJECTS/Mol_Feturizer/New_Systems/rnas/2et4

>  <Rbt.Executable>
rbdock ($Id: //depot/dev/client3/rdock/2013.1/src/exe/rbdock.cxx#4 $)

>  <Rbt.Library>
libRbt.so (2013.1, Build901 2013/11/27)

>  <Rbt.Parameter_File>
/export/apps/rDock/src/rDock_2013.1_src/data/scripts/dock_solv.prm

>  <Rbt.Receptor>
prm/pocket_docking_2.prm

>  <SCORE>
-18.0292

>  <SCORE.INTER>
-10.8745

>  <SCORE.INTER.CONST>
1

>  <SCORE.INTER.POLAR>
-1.48946

>  <SCORE.INTER.ROT>
9

>  <SCORE.INTER.SOLV>
21.2437

>  <SCORE.INTER.VDW>
-18.9661

>  <SCORE.INTER.norm>
-0.258918

>  <SCORE.INTRA>
-7.19952

>  <SCORE.INTRA.DIHEDRAL>
-16.7147

>  <SCORE.INTRA.DIHEDRAL.0>
21.6909

>  <SCORE.INTRA.POLAR>
0

>  <SCORE.INTRA.POLAR.0>
0

>  <SCORE.INTRA.REPUL>
0

>  <SCORE.INTRA.REPUL.0>
0

>  <SCORE.INTRA.SOLV>
0.349298

>  <SCORE.INTRA.SOLV.lig_0>
-116.606

>  <SCORE.INTRA.VDW>
0.983208

>  <SCORE.INTRA.VDW.0>
-6.01229

>  <SCORE.INTRA.norm>
-0.171417

>  <SCORE.RESTR>
0.0448704

>  <SCORE.RESTR.CAVITY>
0.0448704

>  <SCORE.RESTR.norm>
0.00106834

>  <SCORE.SYSTEM>
0

>  <SCORE.SYSTEM.CONST>
0

>  <SCORE.SYSTEM.DIHEDRAL>
0

>  <SCORE.SYSTEM.SOLV>
0

>  <SCORE.SYSTEM.norm>
0

>  <SCORE.heavy>
42

>  <SCORE.norm>
-0.429267

>  <RMSD>
0.909

$$$$
2et4_lig
 OpenBabel11021811423D
libRbt.so/2013.1/901 2013/11/27
 42 45  0  0  0  0  0  0  0  0999 V2000
   13.7637    9.3897    5.1684 C   0  0  2  0  0  0  0  0  0  0  0  0
   14.6887    8.4489    4.6194 O   0  0  0  0  0  0  0  0  0  0  0  0
   12.4147    9.1871    4.4324 C   0  0  2  0  0  0  0  0  0  0  0  0
   11.9425    7.8324    4.5644 N   0  0  0  0  0  0  0  0  0  0  0  0
   12.5829    9.5778    2.9356 C   0  0  1  0  0  0  0  0  0  0  0  0
   11.3647    9.4102    2.2800 O   0  0  0  0  0  0  0  0  0  0  0  0
   13.0934   11.0560    2.8702 C   0  0  2  0  0  0  0  0  0  0  0  0
   13.2674   11.4513    1.5260 O   0  0  0  0  0  0  0  0  0  0  0  0
   14.4445   11.2110    3.6320 C   0  0  2  0  0  0  0  0  0  0  0  0
   14.2509   10.7863    4.9843 O   0  0  0  0  0  0  0  0  0  0  0  0
   14.9646   12.6857    3.6228 C   0  0  0  0  0  0  0  0  0  0  0  0
   16.3825   12.7552    3.6984 N   0  0  0  0  0  0  0  0  0  0  0  0
   17.9946    6.0895    6.0886 C   0  0  2  0  0  0  0  0  0  0  0  0
   19.2639    5.7441    6.7407 N   0  0  0  0  0  0  0  0  0  0  0  0
   18.2733    7.1321    4.8771 C   0  0  0  0  0  0  0  0  0  0  0  0
   16.8997    7.5121    4.1870 C   0  0  2  0  0  0  0  0  0  0  0  0
   17.1032    8.4796    3.0943 N   0  0  0  0  0  0  0  0  0  0  0  0
   15.9324    8.1244    5.2556 C   0  0  2  0  0  0  0  0  0  0  0  0
   15.6957    7.1201    6.4317 C   0  0  2  0  0  0  0  0  0  0  0  0
   14.8072    7.7825    7.3649 O   0  0  0  0  0  0  0  0  0  0  0  0
   17.0586    6.7616    7.1065 C   0  0  1  0  0  0  0  0  0  0  0  0
   16.8196    5.8606    8.1344 O   0  0  0  0  0  0  0  0  0  0  0  0
   14.1463    7.1800    8.3830 C   0  0  1  0  0  0  0  0  0  0  0  0
   13.4336    8.2260    9.2793 C   0  0  2  0  0  0  0  0  0  0  0  0
   14.2731    8.7796   10.2507 O   0  0  0  0  0  0  0  0  0  0  0  0
   12.2448    7.3968    9.7287 C   0  0  1  0  0  0  0  0  0  0  0  0
   11.8294    6.5331    8.5295 C   0  0  2  0  0  0  0  0  0  0  0  0
   13.1115    6.2465    7.9711 O   0  0  0  0  0  0  0  0  0  0  0  0
   10.8838    7.2285    7.4917 C   0  0  0  0  0  0  0  0  0  0  0  0
   10.5625    6.2470    6.4706 O   0  0  0  0  0  0  0  0  0  0  0  0
   11.7014    6.0088   11.7034 C   0  0  2  0  0  0  0  0  0  0  0  0
   12.6879    6.5670   10.8792 O   0  0  0  0  0  0  0  0  0  0  0  0
   12.3355    5.0261   12.7813 C   0  0  1  0  0  0  0  0  0  0  0  0
    7.8935    4.8244    9.5941 N   0  0  0  0  0  0  0  0  0  0  0  0
   11.1129    4.4279   13.6554 C   0  0  1  0  0  0  0  0  0  0  0  0
   10.3766    5.5896   14.2924 O   0  0  0  0  0  0  0  0  0  0  0  0
   10.1128    3.5838   12.6995 C   0  0  2  0  0  0  0  0  0  0  0  0
   10.8359    2.4760   12.1111 O   0  0  0  0  0  0  0  0  0  0  0  0
    9.5129    4.6144   11.5869 C   0  0  1  0  0  0  0  0  0  0  0  0
   10.6479    5.2570   10.8380 O   0  0  0  0  0  0  0  0  0  0  0  0
    8.5415    3.9054   10.5795 C   0  0  0  0  0  0  0  0  0  0  0  0
   13.1445    3.9647   12.0960 N   0  0  0  0  0  0  0  0  0  0  0  0
  1  2  1  6  0  0  0
  1  3  1  0  0  0  0
  1 10  1  0  0  0  0
  3  4  1  6  0  0  0
  3  5  1  0  0  0  0
  5  6  1  6  0  0  0
  5  7  1  0  0  0  0
  7  8  1  6  0  0  0
  7  9  1  0  0  0  0
  9 10  1  0  0  0  0
  9 11  1  1  0  0  0
 11 12  1  0  0  0  0
 13 14  1  1  0  0  0
 13 15  1  0  0  0  0
 13 21  1  0  0  0  0
 16 15  1  0  0  0  0
 16 17  1  6  0  0  0
 18  2  1  6  0  0  0
 18 16  1  0  0  0  0
 19 18  1  0  0  0  0
 19 20  1  1  0  0  0
 21 19  1  0  0  0  0
 21 22  1  1  0  0  0
 23 20  1  6  0  0  0
 23 24  1  0  0  0  0
 23 28  1  0  0  0  0
 24 25  1  1  0  0  0
 24 26  1  0  0  0  0
 26 27  1  0  0  0  0
 26 32  1  1  0  0  0
 27 28  1  0  0  0  0
 27 29  1  6  0  0  0
 29 30  1  0  0  0  0
 31 32  1  6  0  0  0
 31 40  1  0  0  0  0
 33 31  1  0  0  0  0
 33 42  1  6  0  0  0
 35 33  1  0  0  0  0
 35 36  1  6  0  0  0
 37 35  1  0  0  0  0
 37 38  1  6  0  0  0
 37 39  1  0  0  0  0
 39 40  1  0  0  0  0
 39 41  1  6  0  0  0
 41 34  1  0  0  0  0
M  END
>  <CHROM.1>
-164.91068607,-151.38528854,-159.34512517,166.44125364,172.76234199,162.20056373
-177.77083859,173.70835394,176.15423981,13.36587956,7.34376534,7.49654779
1.15443064,0.09861608,-0.96569597

>  <Name>
2et4_lig

>  <RI>
0

>  <Rbt.Current_Directory>
/home/itssahil/PROJECTS/Mol_Feturizer/New_Systems/rnas/2et4

>  <Rbt.Executable>
rbdock ($Id: //depot/dev/client3/rdock/2013.1/src/exe/rbdock.cxx#4 $)

>  <Rbt.Library>
libRbt.so (2013.1, Build901 2013/11/27)

>  <Rbt.Parameter_File>
/export/apps/rDock/src/rDock_2013.1_src/data/scripts/dock_solv.prm

>  <Rbt.Receptor>
prm/pocket_docking_5.prm

>  <SCORE>
-25.2978

>  <SCORE.INTER>
-18.2745

>  <SCORE.INTER.CONST>
1

>  <SCORE.INTER.POLAR>
-1.67258

>  <SCORE.INTER.ROT>
9

>  <SCORE.INTER.SOLV>
23.1635

>  <SCORE.INTER.VDW>
-23.9289

>  <SCORE.INTER.norm>
-0.435106

>  <SCORE.INTRA>
-7.02653

>  <SCORE.INTRA.DIHEDRAL>
-13.2682

>  <SCORE.INTRA.DIHEDRAL.0>
21.6909

>  <SCORE.INTRA.POLAR>
0

>  <SCORE.INTRA.POLAR.0>
0

>  <SCORE.INTRA.REPUL>
0

>  <SCORE.INTRA.REPUL.0>
0

>  <SCORE.INTRA.SOLV>
-2.19564

>  <SCORE.INTRA.SOLV.lig_0>
-116.606

>  <SCORE.INTRA.VDW>
0.705391

>  <SCORE.INTRA.VDW.0>
-6.01229

>  <SCORE.INTRA.norm>
-0.167298

>  <SCORE.RESTR>
0.00316866

>  <SCORE.RESTR.CAVITY>
0.00316866

>  <SCORE.RESTR.norm>
7.54444e-05

>  <SCORE.SYSTEM>
0

>  <SCORE.SYSTEM.CONST>
0

>  <SCORE.SYSTEM.DIHEDRAL>
0

>  <SCORE.SYSTEM.SOLV>
0

>  <SCORE.SYSTEM.norm>
0

>  <SCORE.heavy>
42

>  <SCORE.norm>
-0.602329

>  <RMSD>
0.920

$$$$
2et4_lig
 OpenBabel11021811423D
libRbt.so/2013.1/901 2013/11/27
 42 45  0  0  0  0  0  0  0  0999 V2000
   13.5448    9.4575    5.0372 C   0  0  2  0  0  0  0  0  0  0  0  0
   14.5197    8.4885    4.6462 O   0  0  0  0  0  0  0  0  0  0  0  0
   12.3609    9.3413    4.0435 C   0  0  2  0  0  0  0  0  0  0  0  0
   11.8153    8.0079    4.0302 N   0  0  0  0  0  0  0  0  0  0  0  0
   12.8383    9.7648    2.6244 C   0  0  1  0  0  0  0  0  0  0  0  0
   11.7681    9.6749    1.7365 O   0  0  0  0  0  0  0  0  0  0  0  0
   13.4136   11.2177    2.7150 C   0  0  2  0  0  0  0  0  0  0  0  0
   13.8668   11.6413    1.4467 O   0  0  0  0  0  0  0  0  0  0  0  0
   14.5925   11.2855    3.7326 C   0  0  2  0  0  0  0  0  0  0  0  0
   14.1173   10.8333    5.0040 O   0  0  0  0  0  0  0  0  0  0  0  0
   15.1658   12.7329    3.8802 C   0  0  0  0  0  0  0  0  0  0  0  0
   15.8785   13.1485    2.7223 N   0  0  0  0  0  0  0  0  0  0  0  0
   17.4054    6.0935    6.7890 C   0  0  2  0  0  0  0  0  0  0  0  0
   18.5578    5.7393    7.6270 N   0  0  0  0  0  0  0  0  0  0  0  0
   17.9121    6.9334    5.4967 C   0  0  0  0  0  0  0  0  0  0  0  0
   16.6640    7.3250    4.6045 C   0  0  2  0  0  0  0  0  0  0  0  0
   17.0762    8.1133    3.4296 N   0  0  0  0  0  0  0  0  0  0  0  0
   15.6505    8.1548    5.4629 C   0  0  2  0  0  0  0  0  0  0  0  0
   15.1928    7.3443    6.7204 C   0  0  2  0  0  0  0  0  0  0  0  0
   14.2767    8.1986    7.4486 O   0  0  0  0  0  0  0  0  0  0  0  0
   16.4341    6.9728    7.5936 C   0  0  1  0  0  0  0  0  0  0  0  0
   16.0000    6.2441    8.6918 O   0  0  0  0  0  0  0  0  0  0  0  0
   13.5154    7.8163    8.5023 C   0  0  1  0  0  0  0  0  0  0  0  0
   13.1067    9.0385    9.3653 C   0  0  2  0  0  0  0  0  0  0  0  0
   14.0825    9.4028   10.2980 O   0  0  0  0  0  0  0  0  0  0  0  0
   11.7628    8.5462    9.8695 C   0  0  1  0  0  0  0  0  0  0  0  0
   11.1153    7.7682    8.7153 C   0  0  2  0  0  0  0  0  0  0  0  0
   12.2718    7.1530    8.1481 O   0  0  0  0  0  0  0  0  0  0  0  0
   10.3427    8.6369    7.6650 C   0  0  0  0  0  0  0  0  0  0  0  0
    9.6961    7.7249    6.7381 O   0  0  0  0  0  0  0  0  0  0  0  0
   10.9116    7.1894   11.7553 C   0  0  2  0  0  0  0  0  0  0  0  0
   12.0186    7.6758   11.0467 O   0  0  0  0  0  0  0  0  0  0  0  0
   11.3609    6.4072   13.0653 C   0  0  1  0  0  0  0  0  0  0  0  0
    6.7520    4.2543   10.8805 N   0  0  0  0  0  0  0  0  0  0  0  0
   10.0137    5.8757   13.7860 C   0  0  1  0  0  0  0  0  0  0  0  0
    9.1415    7.0755   14.0978 O   0  0  0  0  0  0  0  0  0  0  0  0
    9.2310    4.8505   12.8049 C   0  0  2  0  0  0  0  0  0  0  0  0
   10.0798    3.7103   12.5298 O   0  0  0  0  0  0  0  0  0  0  0  0
    8.8205    5.6769   11.4601 C   0  0  1  0  0  0  0  0  0  0  0  0
   10.0571    6.2655   10.8386 O   0  0  0  0  0  0  0  0  0  0  0  0
    8.0718    4.7794   10.4136 C   0  0  0  0  0  0  0  0  0  0  0  0
   12.3108    5.3034   12.7043 N   0  0  0  0  0  0  0  0  0  0  0  0
  1  2  1  6  0  0  0
  1  3  1  0  0  0  0
  1 10  1  0  0  0  0
  3  4  1  6  0  0  0
  3  5  1  0  0  0  0
  5  6  1  6  0  0  0
  5  7  1  0  0  0  0
  7  8  1  6  0  0  0
  7  9  1  0  0  0  0
  9 10  1  0  0  0  0
  9 11  1  1  0  0  0
 11 12  1  0  0  0  0
 13 14  1  1  0  0  0
 13 15  1  0  0  0  0
 13 21  1  0  0  0  0
 16 15  1  0  0  0  0
 16 17  1  6  0  0  0
 18  2  1  6  0  0  0
 18 16  1  0  0  0  0
 19 18  1  0  0  0  0
 19 20  1  1  0  0  0
 21 19  1  0  0  0  0
 21 22  1  1  0  0  0
 23 20  1  6  0  0  0
 23 24  1  0  0  0  0
 23 28  1  0  0  0  0
 24 25  1  1  0  0  0
 24 26  1  0  0  0  0
 26 27  1  0  0  0  0
 26 32  1  1  0  0  0
 27 28  1  0  0  0  0
 27 29  1  6  0  0  0
 29 30  1  0  0  0  0
 31 32  1  6  0  0  0
 31 40  1  0  0  0  0
 33 31  1  0  0  0  0
 33 42  1  6  0  0  0
 35 33  1  0  0  0  0
 35 36  1  6  0  0  0
 37 35  1  0  0  0  0
 37 38  1  6  0  0  0
 37 39  1  0  0  0  0
 39 40  1  0  0  0  0
 39 41  1  6  0  0  0
 41 34  1  0  0  0  0
M  END
>  <CHROM.1>
-169.40944342,-70.72006973,-167.16939071,170.74971859,157.56480931,174.79948494
-174.43978678,-174.02072421,63.88165248,12.92088400,7.90614886,7.62856289
1.07400146,0.14955191,-1.03151747

>  <Name>
2et4_lig

>  <RI>
0

>  <Rbt.Current_Directory>
/home/itssahil/PROJECTS/Mol_Feturizer/New_Systems/rnas/2et4

>  <Rbt.Executable>
rbdock ($Id: //depot/dev/client3/rdock/2013.1/src/exe/rbdock.cxx#4 $)

>  <Rbt.Library>
libRbt.so (2013.1, Build901 2013/11/27)

>  <Rbt.Parameter_File>
/export/apps/rDock/src/rDock_2013.1_src/data/scripts/dock_solv.prm

>  <Rbt.Receptor>
prm/pocket_docking_5.prm

>  <SCORE>
-26.303

>  <SCORE.INTER>
-17.8124

>  <SCORE.INTER.CONST>
1

>  <SCORE.INTER.POLAR>
-1.41842

>  <SCORE.INTER.ROT>
9

>  <SCORE.INTER.SOLV>
18.9572

>  <SCORE.INTER.VDW>
-23.0659

>  <SCORE.INTER.norm>
-0.424104

>  <SCORE.INTRA>
-8.49065

>  <SCORE.INTRA.DIHEDRAL>
-16.7123

>  <SCORE.INTRA.DIHEDRAL.0>
21.6909

>  <SCORE.INTRA.POLAR>
0

>  <SCORE.INTRA.POLAR.0>
0

>  <SCORE.INTRA.REPUL>
0

>  <SCORE.INTRA.REPUL.0>
0

>  <SCORE.INTRA.SOLV>
-2.87739

>  <SCORE.INTRA.SOLV.lig_0>
-116.606

>  <SCORE.INTRA.VDW>
1.3042

>  <SCORE.INTRA.VDW.0>
-6.01229

>  <SCORE.INTRA.norm>
-0.202158

>  <SCORE.RESTR>
0

>  <SCORE.RESTR.CAVITY>
0

>  <SCORE.RESTR.norm>
0

>  <SCORE.SYSTEM>
0

>  <SCORE.SYSTEM.CONST>
0

>  <SCORE.SYSTEM.DIHEDRAL>
0

>  <SCORE.SYSTEM.SOLV>
0

>  <SCORE.SYSTEM.norm>
0

>  <SCORE.heavy>
42

>  <SCORE.norm>
-0.626262

>  <RMSD>
0.953

$$$$
2et4_lig
 OpenBabel11021811423D
libRbt.so/2013.1/901 2013/11/27
 42 45  0  0  0  0  0  0  0  0999 V2000
   13.8207    9.0628    5.3334 C   0  0  2  0  0  0  0  0  0  0  0  0
   14.5699    7.9274    4.8956 O   0  0  0  0  0  0  0  0  0  0  0  0
   12.4862    9.0614    4.5449 C   0  0  2  0  0  0  0  0  0  0  0  0
   11.7607    7.8325    4.7423 N   0  0  0  0  0  0  0  0  0  0  0  0
   12.7813    9.3009    3.0360 C   0  0  1  0  0  0  0  0  0  0  0  0
   11.5789    9.3154    2.3319 O   0  0  0  0  0  0  0  0  0  0  0  0
   13.5655   10.6486    2.8987 C   0  0  2  0  0  0  0  0  0  0  0  0
   13.8616   10.9028    1.5417 O   0  0  0  0  0  0  0  0  0  0  0  0
   14.8921   10.6048    3.7161 C   0  0  2  0  0  0  0  0  0  0  0  0
   14.5709   10.3259    5.0821 O   0  0  0  0  0  0  0  0  0  0  0  0
   15.6829   11.9514    3.6356 C   0  0  0  0  0  0  0  0  0  0  0  0
   14.8764   13.0690    3.9845 N   0  0  0  0  0  0  0  0  0  0  0  0
   17.4399    5.1673    6.5690 C   0  0  2  0  0  0  0  0  0  0  0  0
   18.6202    4.6649    7.2833 N   0  0  0  0  0  0  0  0  0  0  0  0
   17.9124    6.1163    5.3408 C   0  0  0  0  0  0  0  0  0  0  0  0
   16.6355    6.6667    4.5832 C   0  0  2  0  0  0  0  0  0  0  0  0
   17.0183    7.5565    3.4726 N   0  0  0  0  0  0  0  0  0  0  0  0
   15.7285    7.4487    5.5924 C   0  0  2  0  0  0  0  0  0  0  0  0
   15.3044    6.5303    6.7859 C   0  0  2  0  0  0  0  0  0  0  0  0
   14.4877    7.3458    7.6617 O   0  0  0  0  0  0  0  0  0  0  0  0
   16.5745    6.0022    7.5271 C   0  0  1  0  0  0  0  0  0  0  0  0
   16.1686    5.1811    8.5695 O   0  0  0  0  0  0  0  0  0  0  0  0
   13.8078    6.8974    8.7447 C   0  0  1  0  0  0  0  0  0  0  0  0
   13.1508    8.0728    9.5143 C   0  0  2  0  0  0  0  0  0  0  0  0
   14.0224    8.6962   10.4125 O   0  0  0  0  0  0  0  0  0  0  0  0
   11.9287    7.3579   10.0603 C   0  0  1  0  0  0  0  0  0  0  0  0
   11.4648    6.3805    8.9711 C   0  0  2  0  0  0  0  0  0  0  0  0
   12.7281    5.9715    8.4471 O   0  0  0  0  0  0  0  0  0  0  0  0
   10.5442    6.9934    7.8614 C   0  0  0  0  0  0  0  0  0  0  0  0
   11.2055    8.1838    7.3568 O   0  0  0  0  0  0  0  0  0  0  0  0
   11.3400    6.0651   12.0860 C   0  0  2  0  0  0  0  0  0  0  0  0
   12.3422    6.6481   11.2989 O   0  0  0  0  0  0  0  0  0  0  0  0
   11.9587    5.1097   13.1970 C   0  0  1  0  0  0  0  0  0  0  0  0
    7.6758    4.7466    9.8196 N   0  0  0  0  0  0  0  0  0  0  0  0
   10.7198    4.4797   14.0245 C   0  0  1  0  0  0  0  0  0  0  0  0
    9.9223    5.6223   14.6213 O   0  0  0  0  0  0  0  0  0  0  0  0
    9.7867    3.5986   13.0349 C   0  0  2  0  0  0  0  0  0  0  0  0
   10.5672    2.5099   12.4857 O   0  0  0  0  0  0  0  0  0  0  0  0
    9.2021    4.6027   11.8904 C   0  0  1  0  0  0  0  0  0  0  0  0
   10.3469    5.2752   11.1839 O   0  0  0  0  0  0  0  0  0  0  0  0
    8.2956    3.8572   10.8493 C   0  0  0  0  0  0  0  0  0  0  0  0
   12.8277    4.0694   12.5541 N   0  0  0  0  0  0  0  0  0  0  0  0
  1  2  1  6  0  0  0
  1  3  1  0  0  0  0
  1 10  1  0  0  0  0
  3  4  1  6  0  0  0
  3  5  1  0  0  0  0
  5  6  1  6  0  0  0
  5  7  1  0  0  0  0
  7  8  1  6  0  0  0
  7  9  1  0  0  0  0
  9 10  1  0  0  0  0
  9 11  1  1  0  0  0
 11 12  1  0  0  0  0
 13 14  1  1  0  0  0
 13 15  1  0  0  0  0
 13 21  1  0  0  0  0
 16 15  1  0  0  0  0
 16 17  1  6  0  0  0
 18  2  1  6  0  0  0
 18 16  1  0  0  0  0
 19 18  1  0  0  0  0
 19 20  1  1  0  0  0
 21 19  1  0  0  0  0
 21 22  1  1  0  0  0
 23 20  1  6  0  0  0
 23 24  1  0  0  0  0
 23 28  1  0  0  0  0
 24 25  1  1  0  0  0
 24 26  1  0  0  0  0
 26 27  1  0  0  0  0
 26 32  1  1  0  0  0
 27 28  1  0  0  0  0
 27 29  1  6  0  0  0
 29 30  1  0  0  0  0
 31 32  1  6  0  0  0
 31 40  1  0  0  0  0
 33 31  1  0  0  0  0
 33 42  1  6  0  0  0
 35 33  1  0  0  0  0
 35 36  1  6  0  0  0
 37 35  1  0  0  0  0
 37 38  1  6  0  0  0
 37 39  1  0  0  0  0
 39 40  1  0  0  0  0
 39 41  1  6  0  0  0
 41 34  1  0  0  0  0
M  END
>  <CHROM.1>
-166.82825945,52.69962754,-155.31910692,173.00616051,174.79883601,171.35483264
50.99466662,168.58245665,176.93566107,13.17422243,7.09952174,7.80705176,1.13208055
0.26637454,-0.93807141

>  <Name>
2et4_lig

>  <RI>
0

>  <Rbt.Current_Directory>
/home/itssahil/PROJECTS/Mol_Feturizer/New_Systems/rnas/2et4

>  <Rbt.Executable>
rbdock ($Id: //depot/dev/client3/rdock/2013.1/src/exe/rbdock.cxx#4 $)

>  <Rbt.Library>
libRbt.so (2013.1, Build901 2013/11/27)

>  <Rbt.Parameter_File>
/export/apps/rDock/src/rDock_2013.1_src/data/scripts/dock_solv.prm

>  <Rbt.Receptor>
prm/pocket_docking_2.prm

>  <SCORE>
-18.2712

>  <SCORE.INTER>
-11.6425

>  <SCORE.INTER.CONST>
1

>  <SCORE.INTER.POLAR>
-1.59459

>  <SCORE.INTER.ROT>
9

>  <SCORE.INTER.SOLV>
21.2698

>  <SCORE.INTER.VDW>
-19.1363

>  <SCORE.INTER.norm>
-0.277203

>  <SCORE.INTRA>
-6.70845

>  <SCORE.INTRA.DIHEDRAL>
-16.216

>  <SCORE.INTRA.DIHEDRAL.0>
21.6909

>  <SCORE.INTRA.POLAR>
0

>  <SCORE.INTRA.POLAR.0>
0

>  <SCORE.INTRA.REPUL>
0

>  <SCORE.INTRA.REPUL.0>
0

>  <SCORE.INTRA.SOLV>
0.407684

>  <SCORE.INTRA.SOLV.lig_0>
-116.606

>  <SCORE.INTRA.VDW>
1.19569

>  <SCORE.INTRA.VDW.0>
-6.01229

>  <SCORE.INTRA.norm>
-0.159725

>  <SCORE.RESTR>
0.0797715

>  <SCORE.RESTR.CAVITY>
0.0797715

>  <SCORE.RESTR.norm>
0.00189932

>  <SCORE.SYSTEM>
0

>  <SCORE.SYSTEM.CONST>
0

>  <SCORE.SYSTEM.DIHEDRAL>
0

>  <SCORE.SYSTEM.SOLV>
0

>  <SCORE.SYSTEM.norm>
0

>  <SCORE.heavy>
42

>  <SCORE.norm>
-0.435029

>  <RMSD>
0.969

$$$$
2et4_lig
 OpenBabel11021811423D
libRbt.so/2013.1/901 2013/11/27
 42 45  0  0  0  0  0  0  0  0999 V2000
   13.8476    9.1803    5.1820 C   0  0  2  0  0  0  0  0  0  0  0  0
   14.7246    8.1426    4.7388 O   0  0  0  0  0  0  0  0  0  0  0  0
   12.5627    9.0920    4.3195 C   0  0  2  0  0  0  0  0  0  0  0  0
   11.9495    7.7923    4.4221 N   0  0  0  0  0  0  0  0  0  0  0  0
   12.9122    9.4308    2.8416 C   0  0  1  0  0  0  0  0  0  0  0  0
   11.7526    9.3666    2.0716 O   0  0  0  0  0  0  0  0  0  0  0  0
   13.5691   10.8511    2.8074 C   0  0  2  0  0  0  0  0  0  0  0  0
   13.9101   11.1974    1.4818 O   0  0  0  0  0  0  0  0  0  0  0  0
   14.8490   10.8923    3.6963 C   0  0  2  0  0  0  0  0  0  0  0  0
   14.4849   10.5189    5.0285 O   0  0  0  0  0  0  0  0  0  0  0  0
   15.5096   12.3096    3.7192 C   0  0  0  0  0  0  0  0  0  0  0  0
   14.7437   13.2468    4.4649 N   0  0  0  0  0  0  0  0  0  0  0  0
   17.9710    5.8089    6.3726 C   0  0  2  0  0  0  0  0  0  0  0  0
   19.2267    5.4773    7.0574 N   0  0  0  0  0  0  0  0  0  0  0  0
   18.2817    6.7790    5.1098 C   0  0  0  0  0  0  0  0  0  0  0  0
   16.9229    7.1450    4.3840 C   0  0  2  0  0  0  0  0  0  0  0  0
   17.1557    8.0481    3.2429 N   0  0  0  0  0  0  0  0  0  0  0  0
   15.9552    7.8313    5.4064 C   0  0  2  0  0  0  0  0  0  0  0  0
   15.6876    6.8967    6.6322 C   0  0  2  0  0  0  0  0  0  0  0  0
   14.8012    7.6243    7.5176 O   0  0  0  0  0  0  0  0  0  0  0  0
   17.0364    6.5516    7.3414 C   0  0  1  0  0  0  0  0  0  0  0  0
   16.7699    5.7121    8.4138 O   0  0  0  0  0  0  0  0  0  0  0  0
   14.1159    7.0890    8.5569 C   0  0  1  0  0  0  0  0  0  0  0  0
   13.4117    8.1941    9.3865 C   0  0  2  0  0  0  0  0  0  0  0  0
   14.2490    8.7832   10.3389 O   0  0  0  0  0  0  0  0  0  0  0  0
   12.2016    7.4119    9.8627 C   0  0  1  0  0  0  0  0  0  0  0  0
   11.7855    6.4933    8.7053 C   0  0  2  0  0  0  0  0  0  0  0  0
   13.0690    6.1540    8.1808 O   0  0  0  0  0  0  0  0  0  0  0  0
   10.8667    7.1496    7.6191 C   0  0  0  0  0  0  0  0  0  0  0  0
   11.5313    8.3563    7.1593 O   0  0  0  0  0  0  0  0  0  0  0  0
   11.6064    6.0815   11.8620 C   0  0  2  0  0  0  0  0  0  0  0  0
   12.6141    6.6366   11.0617 O   0  0  0  0  0  0  0  0  0  0  0  0
   12.2142    5.1227   12.9761 C   0  0  1  0  0  0  0  0  0  0  0  0
    7.2718    3.3332   11.2683 N   0  0  0  0  0  0  0  0  0  0  0  0
   10.9692    4.5261   13.8191 C   0  0  1  0  0  0  0  0  0  0  0  0
   10.2011    5.6902   14.4126 O   0  0  0  0  0  0  0  0  0  0  0  0
   10.0095    3.6566   12.8448 C   0  0  2  0  0  0  0  0  0  0  0  0
   10.7623    2.5470   12.2986 O   0  0  0  0  0  0  0  0  0  0  0  0
    9.4366    4.6631   11.6965 C   0  0  1  0  0  0  0  0  0  0  0  0
   10.5894    5.3053   10.9749 O   0  0  0  0  0  0  0  0  0  0  0  0
    8.5059    3.9282   10.6694 C   0  0  0  0  0  0  0  0  0  0  0  0
   13.0556    4.0588   12.3350 N   0  0  0  0  0  0  0  0  0  0  0  0
  1  2  1  6  0  0  0
  1  3  1  0  0  0  0
  1 10  1  0  0  0  0
  3  4  1  6  0  0  0
  3  5  1  0  0  0  0
  5  6  1  6  0  0  0
  5  7  1  0  0  0  0
  7  8  1  6  0  0  0
  7  9  1  0  0  0  0
  9 10  1  0  0  0  0
  9 11  1  1  0  0  0
 11 12  1  0  0  0  0
 13 14  1  1  0  0  0
 13 15  1  0  0  0  0
 13 21  1  0  0  0  0
 16 15  1  0  0  0  0
 16 17  1  6  0  0  0
 18  2  1  6  0  0  0
 18 16  1  0  0  0  0
 19 18  1  0  0  0  0
 19 20  1  1  0  0  0
 21 19  1  0  0  0  0
 21 22  1  1  0  0  0
 23 20  1  6  0  0  0
 23 24  1  0  0  0  0
 23 28  1  0  0  0  0
 24 25  1  1  0  0  0
 24 26  1  0  0  0  0
 26 27  1  0  0  0  0
 26 32  1  1  0  0  0
 27 28  1  0  0  0  0
 27 29  1  6  0  0  0
 29 30  1  0  0  0  0
 31 32  1  6  0  0  0
 31 40  1  0  0  0  0
 33 31  1  0  0  0  0
 33 42  1  6  0  0  0
 35 33  1  0  0  0  0
 35 36  1  6  0  0  0
 37 35  1  0  0  0  0
 37 38  1  6  0  0  0
 37 39  1  0  0  0  0
 39 40  1  0  0  0  0
 39 41  1  6  0  0  0
 41 34  1  0  0  0  0
M  END
>  <CHROM.1>
-173.23117037,71.70914786,-155.66875201,166.26954273,172.84571591,165.48277209
53.55022328,172.05722900,62.01593974,13.38686673,7.27092982,7.68155556,1.13475040
0.17502325,-0.95144627

>  <Name>
2et4_lig

>  <RI>
0

>  <Rbt.Current_Directory>
/home/itssahil/PROJECTS/Mol_Feturizer/New_Systems/rnas/2et4

>  <Rbt.Executable>
rbdock ($Id: //depot/dev/client3/rdock/2013.1/src/exe/rbdock.cxx#4 $)

>  <Rbt.Library>
libRbt.so (2013.1, Build901 2013/11/27)

>  <Rbt.Parameter_File>
/export/apps/rDock/src/rDock_2013.1_src/data/scripts/dock_solv.prm

>  <Rbt.Receptor>
prm/pocket_docking_3.prm

>  <SCORE>
-21.314

>  <SCORE.INTER>
-13.9708

>  <SCORE.INTER.CONST>
1

>  <SCORE.INTER.POLAR>
-1.81603

>  <SCORE.INTER.ROT>
9

>  <SCORE.INTER.SOLV>
25.9777

>  <SCORE.INTER.VDW>
-21.5197

>  <SCORE.INTER.norm>
-0.332638

>  <SCORE.INTRA>
-7.3432

>  <SCORE.INTRA.DIHEDRAL>
-15.6707

>  <SCORE.INTRA.DIHEDRAL.0>
21.6909

>  <SCORE.INTRA.POLAR>
0

>  <SCORE.INTRA.POLAR.0>
0

>  <SCORE.INTRA.REPUL>
0

>  <SCORE.INTRA.REPUL.0>
0

>  <SCORE.INTRA.SOLV>
-0.286544

>  <SCORE.INTRA.SOLV.lig_0>
-116.606

>  <SCORE.INTRA.VDW>
0.635436

>  <SCORE.INTRA.VDW.0>
-6.01229

>  <SCORE.INTRA.norm>
-0.174838

>  <SCORE.RESTR>
0

>  <SCORE.RESTR.CAVITY>
0

>  <SCORE.RESTR.norm>
0

>  <SCORE.SYSTEM>
0

>  <SCORE.SYSTEM.CONST>
0

>  <SCORE.SYSTEM.DIHEDRAL>
0

>  <SCORE.SYSTEM.SOLV>
0

>  <SCORE.SYSTEM.norm>
0

>  <SCORE.heavy>
42

>  <SCORE.norm>
-0.507476

>  <RMSD>
0.974

$$$$
2et4_lig
 OpenBabel11021811423D
libRbt.so/2013.1/901 2013/11/27
 42 45  0  0  0  0  0  0  0  0999 V2000
   13.3983    9.1473    5.2659 C   0  0  2  0  0  0  0  0  0  0  0  0
   14.3598    8.1750    4.8508 O   0  0  0  0  0  0  0  0  0  0  0  0
   12.1763    9.0136    4.3218 C   0  0  2  0  0  0  0  0  0  0  0  0
   11.6346    7.6789    4.3495 N   0  0  0  0  0  0  0  0  0  0  0  0
   12.5959    9.4175    2.8788 C   0  0  1  0  0  0  0  0  0  0  0  0
   11.4916    9.3120    2.0355 O   0  0  0  0  0  0  0  0  0  0  0  0
   13.1699   10.8729    2.9255 C   0  0  2  0  0  0  0  0  0  0  0  0
   13.5712   11.2790    1.6341 O   0  0  0  0  0  0  0  0  0  0  0  0
   14.3880   10.9585    3.8944 C   0  0  2  0  0  0  0  0  0  0  0  0
   13.9648   10.5238    5.1900 O   0  0  0  0  0  0  0  0  0  0  0  0
   14.9624   12.4093    3.9980 C   0  0  0  0  0  0  0  0  0  0  0  0
   15.5871   12.8267    2.7911 N   0  0  0  0  0  0  0  0  0  0  0  0
   17.5384    5.8924    6.6786 C   0  0  2  0  0  0  0  0  0  0  0  0
   18.7436    5.5781    7.4561 N   0  0  0  0  0  0  0  0  0  0  0  0
   17.9191    6.9146    5.4776 C   0  0  0  0  0  0  0  0  0  0  0  0
   16.6135    7.2613    4.6516 C   0  0  2  0  0  0  0  0  0  0  0  0
   16.9088    8.2098    3.5631 N   0  0  0  0  0  0  0  0  0  0  0  0
   15.5407    7.8808    5.6097 C   0  0  2  0  0  0  0  0  0  0  0  0
   15.2047    6.8968    6.7787 C   0  0  2  0  0  0  0  0  0  0  0  0
   14.2228    7.5649    7.6085 O   0  0  0  0  0  0  0  0  0  0  0  0
   16.5010    6.5711    7.5880 C   0  0  1  0  0  0  0  0  0  0  0  0
   16.1756    5.6874    8.6071 O   0  0  0  0  0  0  0  0  0  0  0  0
   13.5664    7.0054    8.6537 C   0  0  1  0  0  0  0  0  0  0  0  0
   13.8449    7.7838    9.9659 C   0  0  2  0  0  0  0  0  0  0  0  0
   15.0297    7.3912   10.5962 O   0  0  0  0  0  0  0  0  0  0  0  0
   12.5261    7.5466   10.6782 C   0  0  1  0  0  0  0  0  0  0  0  0
   11.4298    7.5880    9.6043 C   0  0  2  0  0  0  0  0  0  0  0  0
   12.1200    6.9706    8.5179 O   0  0  0  0  0  0  0  0  0  0  0  0
   10.9077    9.0162    9.2270 C   0  0  0  0  0  0  0  0  0  0  0  0
    9.9170    8.8535    8.1776 O   0  0  0  0  0  0  0  0  0  0  0  0
   11.6031    5.8767   12.2533 C   0  0  2  0  0  0  0  0  0  0  0  0
   12.6056    6.2156   11.3345 O   0  0  0  0  0  0  0  0  0  0  0  0
   11.8155    4.4085   12.8268 C   0  0  1  0  0  0  0  0  0  0  0  0
    7.4961    7.2171   11.0593 N   0  0  0  0  0  0  0  0  0  0  0  0
   10.5980    4.1186   13.8516 C   0  0  1  0  0  0  0  0  0  0  0  0
   10.6342    5.1758   14.9372 O   0  0  0  0  0  0  0  0  0  0  0  0
    9.1853    4.1734   13.0594 C   0  0  2  0  0  0  0  0  0  0  0  0
    9.1715    3.1498   12.0356 O   0  0  0  0  0  0  0  0  0  0  0  0
    9.0209    5.6793   12.4553 C   0  0  1  0  0  0  0  0  0  0  0  0
   10.2033    5.9994   11.5827 O   0  0  0  0  0  0  0  0  0  0  0  0
    7.6921    5.8530   11.6394 C   0  0  0  0  0  0  0  0  0  0  0  0
   11.8843    3.4213   11.6991 N   0  0  0  0  0  0  0  0  0  0  0  0
  1  2  1  6  0  0  0
  1  3  1  0  0  0  0
  1 10  1  0  0  0  0
  3  4  1  6  0  0  0
  3  5  1  0  0  0  0
  5  6  1  6  0  0  0
  5  7  1  0  0  0  0
  7  8  1  6  0  0  0
  7  9  1  0  0  0  0
  9 10  1  0  0  0  0
  9 11  1  1  0  0  0
 11 12  1  0  0  0  0
 13 14  1  1  0  0  0
 13 15  1  0  0  0  0
 13 21  1  0  0  0  0
 16 15  1  0  0  0  0
 16 17  1  6  0  0  0
 18  2  1  6  0  0  0
 18 16  1  0  0  0  0
 19 18  1  0  0  0  0
 19 20  1  1  0  0  0
 21 19  1  0  0  0  0
 21 22  1  1  0  0  0
 23 20  1  6  0  0  0
 23 24  1  0  0  0  0
 23 28  1  0  0  0  0
 24 25  1  1  0  0  0
 24 26  1  0  0  0  0
 26 27  1  0  0  0  0
 26 32  1  6  0  0  0
 27 28  1  0  0  0  0
 27 29  1  6  0  0  0
 29 30  1  0  0  0  0
 31 32  1  6  0  0  0
 31 40  1  0  0  0  0
 33 31  1  0  0  0  0
 33 42  1  6  0  0  0
 35 33  1  0  0  0  0
 35 36  1  1  0  0  0
 37 35  1  0  0  0  0
 37 38  1  6  0  0  0
 37 39  1  0  0  0  0
 39 40  1  0  0  0  0
 39 41  1  6  0  0  0
 41 34  1  0  0  0  0
M  END
>  <CHROM.1>
-171.06290664,-68.69734665,-157.09466572,173.05161486,120.54606365,168.67663800
178.24322719,178.31733820,-179.78718591,13.02046175,7.46851544,7.92031426
1.12874120,0.25120695,-0.97573728

>  <Name>
2et4_lig

>  <RI>
0

>  <Rbt.Current_Directory>
/home/itssahil/PROJECTS/Mol_Feturizer/New_Systems/rnas/2et4

>  <Rbt.Executable>
rbdock ($Id: //depot/dev/client3/rdock/2013.1/src/exe/rbdock.cxx#4 $)

>  <Rbt.Library>
libRbt.so (2013.1, Build901 2013/11/27)

>  <Rbt.Parameter_File>
/export/apps/rDock/src/rDock_2013.1_src/data/scripts/dock_solv.prm

>  <Rbt.Receptor>
prm/pocket_docking_3.prm

>  <SCORE>
-19.2342

>  <SCORE.INTER>
-13.7185

>  <SCORE.INTER.CONST>
1

>  <SCORE.INTER.POLAR>
-0.916515

>  <SCORE.INTER.ROT>
9

>  <SCORE.INTER.SOLV>
20.1252

>  <SCORE.INTER.VDW>
-22.399

>  <SCORE.INTER.norm>
-0.326631

>  <SCORE.INTRA>
-5.56564

>  <SCORE.INTRA.DIHEDRAL>
-10.5005

>  <SCORE.INTRA.DIHEDRAL.0>
21.6909

>  <SCORE.INTRA.POLAR>
0

>  <SCORE.INTRA.POLAR.0>
0

>  <SCORE.INTRA.REPUL>
0

>  <SCORE.INTRA.REPUL.0>
0

>  <SCORE.INTRA.SOLV>
-2.62434

>  <SCORE.INTRA.SOLV.lig_0>
-116.606

>  <SCORE.INTRA.VDW>
0.996759

>  <SCORE.INTRA.VDW.0>
-6.01229

>  <SCORE.INTRA.norm>
-0.132515

>  <SCORE.RESTR>
0.0499111

>  <SCORE.RESTR.CAVITY>
0.0499111

>  <SCORE.RESTR.norm>
0.00118836

>  <SCORE.SYSTEM>
0

>  <SCORE.SYSTEM.CONST>
0

>  <SCORE.SYSTEM.DIHEDRAL>
0

>  <SCORE.SYSTEM.SOLV>
0

>  <SCORE.SYSTEM.norm>
0

>  <SCORE.heavy>
42

>  <SCORE.norm>
-0.457958

>  <RMSD>
1.029

$$$$
2et4_lig
 OpenBabel11021811423D
libRbt.so/2013.1/901 2013/11/27
 42 45  0  0  0  0  0  0  0  0999 V2000
   13.6919    9.1442    5.0314 C   0  0  2  0  0  0  0  0  0  0  0  0
   14.7276    8.2559    4.6066 O   0  0  0  0  0  0  0  0  0  0  0  0
   12.5195    8.9918    4.0288 C   0  0  2  0  0  0  0  0  0  0  0  0
   12.0607    7.6278    3.9606 N   0  0  0  0  0  0  0  0  0  0  0  0
   12.9712    9.5011    2.6296 C   0  0  1  0  0  0  0  0  0  0  0  0
   11.9105    9.3780    1.7343 O   0  0  0  0  0  0  0  0  0  0  0  0
   13.4518   10.9831    2.7800 C   0  0  2  0  0  0  0  0  0  0  0  0
   13.8790   11.4848    1.5313 O   0  0  0  0  0  0  0  0  0  0  0  0
   14.6222   11.0859    3.8045 C   0  0  2  0  0  0  0  0  0  0  0  0
   14.1748   10.5540    5.0550 O   0  0  0  0  0  0  0  0  0  0  0  0
   15.1011   12.5601    4.0115 C   0  0  0  0  0  0  0  0  0  0  0  0
   15.6899   13.1031    2.8370 N   0  0  0  0  0  0  0  0  0  0  0  0
   17.4344    5.6262    6.7072 C   0  0  2  0  0  0  0  0  0  0  0  0
   18.5126    5.1764    7.5965 N   0  0  0  0  0  0  0  0  0  0  0  0
   18.0449    6.6057    5.5670 C   0  0  0  0  0  0  0  0  0  0  0  0
   16.8758    7.0990    4.6198 C   0  0  2  0  0  0  0  0  0  0  0  0
   17.3824    8.0142    3.5818 N   0  0  0  0  0  0  0  0  0  0  0  0
   15.7859    7.8290    5.4753 C   0  0  2  0  0  0  0  0  0  0  0  0
   15.2270    6.8825    6.5887 C   0  0  2  0  0  0  0  0  0  0  0  0
   14.2453    7.6512    7.3265 O   0  0  0  0  0  0  0  0  0  0  0  0
   16.3909    6.4112    7.5186 C   0  0  1  0  0  0  0  0  0  0  0  0
   15.8687    5.5640    8.4857 O   0  0  0  0  0  0  0  0  0  0  0  0
   13.3762    7.1484    8.2365 C   0  0  1  0  0  0  0  0  0  0  0  0
   13.6642    7.7139    9.6517 C   0  0  2  0  0  0  0  0  0  0  0  0
   14.6650    7.0118   10.3302 O   0  0  0  0  0  0  0  0  0  0  0  0
   12.2547    7.7016   10.2139 C   0  0  1  0  0  0  0  0  0  0  0  0
   11.3158    8.0871    9.0622 C   0  0  2  0  0  0  0  0  0  0  0  0
   11.9780    7.4441    7.9732 O   0  0  0  0  0  0  0  0  0  0  0  0
   11.1462    9.6249    8.8151 C   0  0  0  0  0  0  0  0  0  0  0  0
   10.0396    9.7971    7.8906 O   0  0  0  0  0  0  0  0  0  0  0  0
   10.7266    6.0700   11.2741 C   0  0  2  0  0  0  0  0  0  0  0  0
   11.9836    6.3273   10.7104 O   0  0  0  0  0  0  0  0  0  0  0  0
   10.6124    6.6815   12.7379 C   0  0  1  0  0  0  0  0  0  0  0  0
    9.1233    1.9496   10.4615 N   0  0  0  0  0  0  0  0  0  0  0  0
    9.1404    6.3076   13.2949 C   0  0  1  0  0  0  0  0  0  0  0  0
    8.1146    6.8888   12.3423 O   0  0  0  0  0  0  0  0  0  0  0  0
    8.9771    4.6977   13.3843 C   0  0  2  0  0  0  0  0  0  0  0  0
    9.9601    4.1681   14.3059 O   0  0  0  0  0  0  0  0  0  0  0  0
    9.1373    4.1047   11.8735 C   0  0  1  0  0  0  0  0  0  0  0  0
   10.4613    4.5361   11.3053 O   0  0  0  0  0  0  0  0  0  0  0  0
    9.0217    2.5407   11.8311 C   0  0  0  0  0  0  0  0  0  0  0  0
   11.7204    6.1561   13.6022 N   0  0  0  0  0  0  0  0  0  0  0  0
  1  2  1  6  0  0  0
  1  3  1  0  0  0  0
  1 10  1  0  0  0  0
  3  4  1  6  0  0  0
  3  5  1  0  0  0  0
  5  6  1  6  0  0  0
  5  7  1  0  0  0  0
  7  8  1  6  0  0  0
  7  9  1  0  0  0  0
  9 10  1  0  0  0  0
  9 11  1  1  0  0  0
 11 12  1  0  0  0  0
 13 14  1  1  0  0  0
 13 15  1  0  0  0  0
 13 21  1  0  0  0  0
 16 15  1  0  0  0  0
 16 17  1  6  0  0  0
 18  2  1  6  0  0  0
 18 16  1  0  0  0  0
 19 18  1  0  0  0  0
 19 20  1  1  0  0  0
 21 19  1  0  0  0  0
 21 22  1  1  0  0  0
 23 20  1  6  0  0  0
 23 24  1  0  0  0  0
 23 28  1  0  0  0  0
 24 25  1  1  0  0  0
 24 26  1  0  0  0  0
 26 27  1  0  0  0  0
 26 32  1  6  0  0  0
 27 28  1  0  0  0  0
 27 29  1  6  0  0  0
 29 30  1  0  0  0  0
 31 32  1  1  0  0  0
 31 40  1  0  0  0  0
 33 31  1  0  0  0  0
 33 42  1  1  0  0  0
 35 33  1  0  0  0  0
 35 36  1  6  0  0  0
 37 35  1  0  0  0  0
 37 38  1  1  0  0  0
 37 39  1  0  0  0  0
 39 40  1  0  0  0  0
 39 41  1  1  0  0  0
 41 34  1  0  0  0  0
M  END
>  <CHROM.1>
-161.19467253,-65.89697215,-169.19546812,169.03502786,115.25604893,-179.69312727
-168.75461686,-75.55935277,178.35631462,13.02141864,7.49390420,7.73968449
1.07104395,0.36220054,-0.88472069

>  <Name>
2et4_lig

>  <RI>
0

>  <Rbt.Current_Directory>
/home/itssahil/PROJECTS/Mol_Feturizer/New_Systems/rnas/2et4

>  <Rbt.Executable>
rbdock ($Id: //depot/dev/client3/rdock/2013.1/src/exe/rbdock.cxx#4 $)

>  <Rbt.Library>
libRbt.so (2013.1, Build901 2013/11/27)

>  <Rbt.Parameter_File>
/export/apps/rDock/src/rDock_2013.1_src/data/scripts/dock_solv.prm

>  <Rbt.Receptor>
prm/pocket_docking_2.prm

>  <SCORE>
-16.2786

>  <SCORE.INTER>
-11.8542

>  <SCORE.INTER.CONST>
1

>  <SCORE.INTER.POLAR>
-0.916335

>  <SCORE.INTER.ROT>
9

>  <SCORE.INTER.SOLV>
17.5596

>  <SCORE.INTER.VDW>
-20.3016

>  <SCORE.INTER.norm>
-0.282244

>  <SCORE.INTRA>
-4.96329

>  <SCORE.INTRA.DIHEDRAL>
-10.0151

>  <SCORE.INTRA.DIHEDRAL.0>
21.6909

>  <SCORE.INTRA.POLAR>
0

>  <SCORE.INTRA.POLAR.0>
0

>  <SCORE.INTRA.REPUL>
0

>  <SCORE.INTRA.REPUL.0>
0

>  <SCORE.INTRA.SOLV>
-3.34469

>  <SCORE.INTRA.SOLV.lig_0>
-116.606

>  <SCORE.INTRA.VDW>
1.71663

>  <SCORE.INTRA.VDW.0>
-6.01229

>  <SCORE.INTRA.norm>
-0.118173

>  <SCORE.RESTR>
0.538931

>  <SCORE.RESTR.CAVITY>
0.538931

>  <SCORE.RESTR.norm>
0.0128317

>  <SCORE.SYSTEM>
0

>  <SCORE.SYSTEM.CONST>
0

>  <SCORE.SYSTEM.DIHEDRAL>
0

>  <SCORE.SYSTEM.SOLV>
0

>  <SCORE.SYSTEM.norm>
0

>  <SCORE.heavy>
42

>  <SCORE.norm>
-0.387586

>  <RMSD>
1.237

$$$$
2et4_lig
 OpenBabel11021811423D
libRbt.so/2013.1/901 2013/11/27
 42 45  0  0  0  0  0  0  0  0999 V2000
   13.5827    9.4481    5.3768 C   0  0  2  0  0  0  0  0  0  0  0  0
   14.4759    8.4210    4.9414 O   0  0  0  0  0  0  0  0  0  0  0  0
   12.2188    9.1904    4.6869 C   0  0  2  0  0  0  0  0  0  0  0  0
   11.7145    7.8763    4.9946 N   0  0  0  0  0  0  0  0  0  0  0  0
   12.3757    9.3842    3.1510 C   0  0  1  0  0  0  0  0  0  0  0  0
   11.1446    9.1678    2.5351 O   0  0  0  0  0  0  0  0  0  0  0  0
   12.9224   10.8281    2.8934 C   0  0  2  0  0  0  0  0  0  0  0  0
   13.0874   11.0456    1.5081 O   0  0  0  0  0  0  0  0  0  0  0  0
   14.2876   11.0417    3.6148 C   0  0  2  0  0  0  0  0  0  0  0  0
   14.1024   10.7966    5.0121 O   0  0  0  0  0  0  0  0  0  0  0  0
   14.8445   12.4890    3.4133 C   0  0  0  0  0  0  0  0  0  0  0  0
   16.2355   12.5728    3.6952 N   0  0  0  0  0  0  0  0  0  0  0  0
   17.5374    6.0001    6.7910 C   0  0  2  0  0  0  0  0  0  0  0  0
   18.7543    5.6359    7.5273 N   0  0  0  0  0  0  0  0  0  0  0  0
   17.9355    6.8765    5.4849 C   0  0  0  0  0  0  0  0  0  0  0  0
   16.6186    7.2786    4.7030 C   0  0  2  0  0  0  0  0  0  0  0  0
   16.9321    8.0995    3.5200 N   0  0  0  0  0  0  0  0  0  0  0  0
   15.6694    8.0775    5.6586 C   0  0  2  0  0  0  0  0  0  0  0  0
   15.3173    7.2320    6.9270 C   0  0  2  0  0  0  0  0  0  0  0  0
   14.4549    8.0595    7.7458 O   0  0  0  0  0  0  0  0  0  0  0  0
   16.6257    6.8503    7.6909 C   0  0  1  0  0  0  0  0  0  0  0  0
   16.2841    6.0907    8.8009 O   0  0  0  0  0  0  0  0  0  0  0  0
   13.4105    7.6144    8.4857 C   0  0  1  0  0  0  0  0  0  0  0  0
   13.7457    7.6519    9.9995 C   0  0  2  0  0  0  0  0  0  0  0  0
   14.4410    6.5201   10.4360 O   0  0  0  0  0  0  0  0  0  0  0  0
   12.3574    7.9143   10.5533 C   0  0  1  0  0  0  0  0  0  0  0  0
   11.6631    8.8692    9.5720 C   0  0  2  0  0  0  0  0  0  0  0  0
   12.1856    8.3819    8.3362 O   0  0  0  0  0  0  0  0  0  0  0  0
   11.9739   10.3911    9.7767 C   0  0  0  0  0  0  0  0  0  0  0  0
   13.3865   10.5869    9.5021 O   0  0  0  0  0  0  0  0  0  0  0  0
   10.4096    6.5725   11.2791 C   0  0  2  0  0  0  0  0  0  0  0  0
   11.6563    6.6067   10.6401 O   0  0  0  0  0  0  0  0  0  0  0  0
   10.5706    6.5338   12.8610 C   0  0  1  0  0  0  0  0  0  0  0  0
    8.1957    2.6139   11.1399 N   0  0  0  0  0  0  0  0  0  0  0  0
    9.0808    6.4739   13.4883 C   0  0  1  0  0  0  0  0  0  0  0  0
    8.3200    7.6957   13.0129 O   0  0  0  0  0  0  0  0  0  0  0  0
    8.3322    5.1208   13.0036 C   0  0  2  0  0  0  0  0  0  0  0  0
    9.0716    3.9697   13.4772 O   0  0  0  0  0  0  0  0  0  0  0  0
    8.2194    5.1793   11.3777 C   0  0  1  0  0  0  0  0  0  0  0  0
    9.5931    5.3415   10.7872 O   0  0  0  0  0  0  0  0  0  0  0  0
    7.5287    3.9031   10.7813 C   0  0  0  0  0  0  0  0  0  0  0  0
   11.4261    5.3684   13.2621 N   0  0  0  0  0  0  0  0  0  0  0  0
  1  2  1  6  0  0  0
  1  3  1  0  0  0  0
  1 10  1  0  0  0  0
  3  4  1  6  0  0  0
  3  5  1  0  0  0  0
  5  6  1  6  0  0  0
  5  7  1  0  0  0  0
  7  8  1  6  0  0  0
  7  9  1  0  0  0  0
  9 10  1  0  0  0  0
  9 11  1  1  0  0  0
 11 12  1  0  0  0  0
 13 14  1  1  0  0  0
 13 15  1  0  0  0  0
 13 21  1  0  0  0  0
 16 15  1  0  0  0  0
 16 17  1  6  0  0  0
 18  2  1  6  0  0  0
 18 16  1  0  0  0  0
 19 18  1  0  0  0  0
 19 20  1  1  0  0  0
 21 19  1  0  0  0  0
 21 22  1  1  0  0  0
 23 20  1  6  0  0  0
 23 24  1  0  0  0  0
 23 28  1  0  0  0  0
 24 25  1  1  0  0  0
 24 26  1  0  0  0  0
 26 27  1  0  0  0  0
 26 32  1  6  0  0  0
 27 28  1  0  0  0  0
 27 29  1  1  0  0  0
 29 30  1  0  0  0  0
 31 32  1  6  0  0  0
 31 40  1  0  0  0  0
 33 31  1  0  0  0  0
 33 42  1  6  0  0  0
 35 33  1  0  0  0  0
 35 36  1  6  0  0  0
 37 35  1  0  0  0  0
 37 38  1  6  0  0  0
 37 39  1  0  0  0  0
 39 40  1  0  0  0  0
 39 41  1  6  0  0  0
 41 34  1  0  0  0  0
M  END
>  <CHROM.1>
-160.00767133,-161.70822194,-161.95566957,143.64410104,107.52477052,172.32824647
64.98150025,-80.31009758,-57.02919265,12.90279145,7.76291579,7.92523949,1.01519468
0.21900596,-0.96740400

>  <Name>
2et4_lig

>  <RI>
0

>  <Rbt.Current_Directory>
/home/itssahil/PROJECTS/Mol_Feturizer/New_Systems/rnas/2et4

>  <Rbt.Executable>
rbdock ($Id: //depot/dev/client3/rdock/2013.1/src/exe/rbdock.cxx#4 $)

>  <Rbt.Library>
libRbt.so (2013.1, Build901 2013/11/27)

>  <Rbt.Parameter_File>
/export/apps/rDock/src/rDock_2013.1_src/data/scripts/dock_solv.prm

>  <Rbt.Receptor>
prm/pocket_docking_3.prm

>  <SCORE>
-17.772

>  <SCORE.INTER>
-16.5977

>  <SCORE.INTER.CONST>
1

>  <SCORE.INTER.POLAR>
-1.65837

>  <SCORE.INTER.ROT>
9

>  <SCORE.INTER.SOLV>
20.2614

>  <SCORE.INTER.VDW>
-21.891

>  <SCORE.INTER.norm>
-0.395184

>  <SCORE.INTRA>
-1.17423

>  <SCORE.INTRA.DIHEDRAL>
-3.64359

>  <SCORE.INTRA.DIHEDRAL.0>
21.6909

>  <SCORE.INTRA.POLAR>
0

>  <SCORE.INTRA.POLAR.0>
0

>  <SCORE.INTRA.REPUL>
0

>  <SCORE.INTRA.REPUL.0>
0

>  <SCORE.INTRA.SOLV>
-0.774329

>  <SCORE.INTRA.SOLV.lig_0>
-116.606

>  <SCORE.INTRA.VDW>
1.03473

>  <SCORE.INTRA.VDW.0>
-6.01229

>  <SCORE.INTRA.norm>
-0.0279578

>  <SCORE.RESTR>
0

>  <SCORE.RESTR.CAVITY>
0

>  <SCORE.RESTR.norm>
0

>  <SCORE.SYSTEM>
0

>  <SCORE.SYSTEM.CONST>
0

>  <SCORE.SYSTEM.DIHEDRAL>
0

>  <SCORE.SYSTEM.SOLV>
0

>  <SCORE.SYSTEM.norm>
0

>  <SCORE.heavy>
42

>  <SCORE.norm>
-0.423142

>  <RMSD>
1.250

$$$$
2et4_lig
 OpenBabel11021811423D
libRbt.so/2013.1/901 2013/11/27
 42 45  0  0  0  0  0  0  0  0999 V2000
   13.8269    9.0551    5.2794 C   0  0  2  0  0  0  0  0  0  0  0  0
   14.7598    8.1299    4.7175 O   0  0  0  0  0  0  0  0  0  0  0  0
   12.4996    8.8995    4.4941 C   0  0  2  0  0  0  0  0  0  0  0  0
   12.0112    7.5453    4.5512 N   0  0  0  0  0  0  0  0  0  0  0  0
   12.7177    9.3542    3.0221 C   0  0  1  0  0  0  0  0  0  0  0  0
   11.5190    9.2286    2.3227 O   0  0  0  0  0  0  0  0  0  0  0  0
   13.2435   10.8284    3.0382 C   0  0  2  0  0  0  0  0  0  0  0  0
   13.4628   11.2809    1.7189 O   0  0  0  0  0  0  0  0  0  0  0  0
   14.5717   10.9353    3.8471 C   0  0  2  0  0  0  0  0  0  0  0  0
   14.3323   10.4532    5.1727 O   0  0  0  0  0  0  0  0  0  0  0  0
   15.1053   12.4035    3.9196 C   0  0  0  0  0  0  0  0  0  0  0  0
   15.6051   12.8552    2.6677 N   0  0  0  0  0  0  0  0  0  0  0  0
   18.0266    5.7345    6.2157 C   0  0  2  0  0  0  0  0  0  0  0  0
   19.2896    5.3761    6.8732 N   0  0  0  0  0  0  0  0  0  0  0  0
   18.3231    6.7601    4.9940 C   0  0  0  0  0  0  0  0  0  0  0  0
   16.9566    7.1543    4.2981 C   0  0  2  0  0  0  0  0  0  0  0  0
   17.1765    8.1073    3.1958 N   0  0  0  0  0  0  0  0  0  0  0  0
   15.9975    7.7925    5.3589 C   0  0  2  0  0  0  0  0  0  0  0  0
   15.7436    6.8041    6.5449 C   0  0  2  0  0  0  0  0  0  0  0  0
   14.8643    7.4898    7.4699 O   0  0  0  0  0  0  0  0  0  0  0  0
   17.0999    6.4314    7.2252 C   0  0  1  0  0  0  0  0  0  0  0  0
   16.8455    5.5448    8.2620 O   0  0  0  0  0  0  0  0  0  0  0  0
   14.2885    6.9352    8.5640 C   0  0  1  0  0  0  0  0  0  0  0  0
   13.5102    7.9986    9.3819 C   0  0  2  0  0  0  0  0  0  0  0  0
   14.3235    8.7152   10.2651 O   0  0  0  0  0  0  0  0  0  0  0  0
   12.4133    7.1179    9.9511 C   0  0  1  0  0  0  0  0  0  0  0  0
   12.0437    6.1081    8.8555 C   0  0  2  0  0  0  0  0  0  0  0  0
   13.3304    5.8800    8.2808 O   0  0  0  0  0  0  0  0  0  0  0  0
   11.0113    6.6141    7.7912 C   0  0  0  0  0  0  0  0  0  0  0  0
    9.7808    6.9294    8.4951 O   0  0  0  0  0  0  0  0  0  0  0  0
   12.0743    5.7143   11.9602 C   0  0  2  0  0  0  0  0  0  0  0  0
   12.9607    6.4463   11.1586 O   0  0  0  0  0  0  0  0  0  0  0  0
   12.2771    4.1487   11.7670 C   0  0  1  0  0  0  0  0  0  0  0  0
    7.9260    7.4080   12.1305 N   0  0  0  0  0  0  0  0  0  0  0  0
   11.1954    3.4095   12.7158 C   0  0  1  0  0  0  0  0  0  0  0  0
   11.4402    3.8536   14.1441 O   0  0  0  0  0  0  0  0  0  0  0  0
    9.6937    3.8055   12.2526 C   0  0  2  0  0  0  0  0  0  0  0  0
    9.4814    3.3631   10.8905 O   0  0  0  0  0  0  0  0  0  0  0  0
    9.5365    5.4192   12.4290 C   0  0  1  0  0  0  0  0  0  0  0  0
   10.6060    6.1152   11.6329 O   0  0  0  0  0  0  0  0  0  0  0  0
    8.1216    5.9326   11.9867 C   0  0  0  0  0  0  0  0  0  0  0  0
   12.1344    3.7871   10.3180 N   0  0  0  0  0  0  0  0  0  0  0  0
  1  2  1  6  0  0  0
  1  3  1  0  0  0  0
  1 10  1  0  0  0  0
  3  4  1  6  0  0  0
  3  5  1  0  0  0  0
  5  6  1  6  0  0  0
  5  7  1  0  0  0  0
  7  8  1  6  0  0  0
  7  9  1  0  0  0  0
  9 10  1  0  0  0  0
  9 11  1  1  0  0  0
 11 12  1  0  0  0  0
 13 14  1  1  0  0  0
 13 15  1  0  0  0  0
 13 21  1  0  0  0  0
 16 15  1  0  0  0  0
 16 17  1  6  0  0  0
 18  2  1  6  0  0  0
 18 16  1  0  0  0  0
 19 18  1  0  0  0  0
 19 20  1  1  0  0  0
 21 19  1  0  0  0  0
 21 22  1  1  0  0  0
 23 20  1  6  0  0  0
 23 24  1  0  0  0  0
 23 28  1  0  0  0  0
 24 25  1  1  0  0  0
 24 26  1  0  0  0  0
 26 27  1  0  0  0  0
 26 32  1  1  0  0  0
 27 28  1  0  0  0  0
 27 29  1  6  0  0  0
 29 30  1  0  0  0  0
 31 32  1  6  0  0  0
 31 40  1  0  0  0  0
 33 31  1  0  0  0  0
 33 42  1  6  0  0  0
 35 33  1  0  0  0  0
 35 36  1  1  0  0  0
 37 35  1  0  0  0  0
 37 38  1  6  0  0  0
 37 39  1  0  0  0  0
 39 40  1  0  0  0  0
 39 41  1  6  0  0  0
 41 34  1  0  0  0  0
M  END
>  <CHROM.1>
-166.68487039,-71.01851231,-161.63171308,172.78607599,175.16677459,171.73070937
-61.27856489,105.70141726,179.94376441,13.35723112,7.23923456,7.63704709
1.09690281,0.27699325,-0.92046596

>  <Name>
2et4_lig

>  <RI>
0

>  <Rbt.Current_Directory>
/home/itssahil/PROJECTS/Mol_Feturizer/New_Systems/rnas/2et4

>  <Rbt.Executable>
rbdock ($Id: //depot/dev/client3/rdock/2013.1/src/exe/rbdock.cxx#4 $)

>  <Rbt.Library>
libRbt.so (2013.1, Build901 2013/11/27)

>  <Rbt.Parameter_File>
/export/apps/rDock/src/rDock_2013.1_src/data/scripts/dock_solv.prm

>  <Rbt.Receptor>
prm/pocket_docking_3.prm

>  <SCORE>
-22.3764

>  <SCORE.INTER>
-17.8252

>  <SCORE.INTER.CONST>
1

>  <SCORE.INTER.POLAR>
-1.72195

>  <SCORE.INTER.ROT>
9

>  <SCORE.INTER.SOLV>
18.3642

>  <SCORE.INTER.VDW>
-21.8651

>  <SCORE.INTER.norm>
-0.42441

>  <SCORE.INTRA>
-4.59756

>  <SCORE.INTRA.DIHEDRAL>
-11.8083

>  <SCORE.INTRA.DIHEDRAL.0>
21.6909

>  <SCORE.INTRA.POLAR>
0

>  <SCORE.INTRA.POLAR.0>
0

>  <SCORE.INTRA.REPUL>
0

>  <SCORE.INTRA.REPUL.0>
0

>  <SCORE.INTRA.SOLV>
0.070448

>  <SCORE.INTRA.SOLV.lig_0>
-116.606

>  <SCORE.INTRA.VDW>
1.27139

>  <SCORE.INTRA.VDW.0>
-6.01229

>  <SCORE.INTRA.norm>
-0.109466

>  <SCORE.RESTR>
0.0464305

>  <SCORE.RESTR.CAVITY>
0.0464305

>  <SCORE.RESTR.norm>
0.00110549

>  <SCORE.SYSTEM>
0

>  <SCORE.SYSTEM.CONST>
0

>  <SCORE.SYSTEM.DIHEDRAL>
0

>  <SCORE.SYSTEM.SOLV>
0

>  <SCORE.SYSTEM.norm>
0

>  <SCORE.heavy>
42

>  <SCORE.norm>
-0.532771

>  <RMSD>
1.376

$$$$
2et4_lig
 OpenBabel11021811423D
libRbt.so/2013.1/901 2013/11/27
 42 45  0  0  0  0  0  0  0  0999 V2000
   13.7508    9.4996    5.2277 C   0  0  2  0  0  0  0  0  0  0  0  0
   14.7357    8.5445    4.8275 O   0  0  0  0  0  0  0  0  0  0  0  0
   12.4720    9.2112    4.4005 C   0  0  2  0  0  0  0  0  0  0  0  0
   12.0156    7.8584    4.5934 N   0  0  0  0  0  0  0  0  0  0  0  0
   12.7574    9.4967    2.8978 C   0  0  1  0  0  0  0  0  0  0  0  0
   11.6017    9.2522    2.1587 O   0  0  0  0  0  0  0  0  0  0  0  0
   13.2442   10.9783    2.7651 C   0  0  2  0  0  0  0  0  0  0  0  0
   13.5226   11.2796    1.4141 O   0  0  0  0  0  0  0  0  0  0  0  0
   14.5239   11.2211    3.6215 C   0  0  2  0  0  0  0  0  0  0  0  0
   14.2258   10.8907    4.9812 O   0  0  0  0  0  0  0  0  0  0  0  0
   15.0155   12.7037    3.5458 C   0  0  0  0  0  0  0  0  0  0  0  0
   16.4301   12.8056    3.6438 N   0  0  0  0  0  0  0  0  0  0  0  0
   17.4735    6.0659    7.0671 C   0  0  2  0  0  0  0  0  0  0  0  0
   18.5996    5.6766    7.9249 N   0  0  0  0  0  0  0  0  0  0  0  0
   18.0333    6.8361    5.7534 C   0  0  0  0  0  0  0  0  0  0  0  0
   16.8139    7.2662    4.8393 C   0  0  2  0  0  0  0  0  0  0  0  0
   17.2758    7.9937    3.6439 N   0  0  0  0  0  0  0  0  0  0  0  0
   15.8415    8.1762    5.6633 C   0  0  2  0  0  0  0  0  0  0  0  0
   15.3324    7.4317    6.9417 C   0  0  2  0  0  0  0  0  0  0  0  0
   14.4595    8.3567    7.6355 O   0  0  0  0  0  0  0  0  0  0  0  0
   16.5462    7.0213    7.8360 C   0  0  1  0  0  0  0  0  0  0  0  0
   16.0663    6.3521    8.9529 O   0  0  0  0  0  0  0  0  0  0  0  0
   13.6416    8.0404    8.6686 C   0  0  1  0  0  0  0  0  0  0  0  0
   12.2625    8.7339    8.5182 C   0  0  2  0  0  0  0  0  0  0  0  0
   12.2506   10.0438    9.0072 O   0  0  0  0  0  0  0  0  0  0  0  0
   11.3884    7.6943    9.1949 C   0  0  1  0  0  0  0  0  0  0  0  0
   11.9592    6.3210    8.8141 C   0  0  2  0  0  0  0  0  0  0  0  0
   13.3545    6.6227    8.8077 O   0  0  0  0  0  0  0  0  0  0  0  0
   11.4802    5.7491    7.4364 C   0  0  0  0  0  0  0  0  0  0  0  0
   12.4533    4.7565    7.0159 O   0  0  0  0  0  0  0  0  0  0  0  0
   10.7011    7.1072   11.4981 C   0  0  2  0  0  0  0  0  0  0  0  0
   11.4604    7.9348   10.6598 O   0  0  0  0  0  0  0  0  0  0  0  0
   11.6317    6.2420   12.4546 C   0  0  1  0  0  0  0  0  0  0  0  0
    7.1988    5.1790    9.4760 N   0  0  0  0  0  0  0  0  0  0  0  0
   10.6570    5.3160   13.3542 C   0  0  1  0  0  0  0  0  0  0  0  0
    9.7212    6.2262   14.1243 O   0  0  0  0  0  0  0  0  0  0  0  0
    9.8109    4.3160   12.3999 C   0  0  2  0  0  0  0  0  0  0  0  0
   10.7251    3.4520   11.6832 O   0  0  0  0  0  0  0  0  0  0  0  0
    8.8995    5.2381   11.4105 C   0  0  1  0  0  0  0  0  0  0  0  0
    9.7887    6.1785   10.6444 O   0  0  0  0  0  0  0  0  0  0  0  0
    8.0452    4.3791   10.4136 C   0  0  0  0  0  0  0  0  0  0  0  0
   12.6106    5.4492   11.6396 N   0  0  0  0  0  0  0  0  0  0  0  0
  1  2  1  6  0  0  0
  1  3  1  0  0  0  0
  1 10  1  0  0  0  0
  3  4  1  6  0  0  0
  3  5  1  0  0  0  0
  5  6  1  6  0  0  0
  5  7  1  0  0  0  0
  7  8  1  6  0  0  0
  7  9  1  0  0  0  0
  9 10  1  0  0  0  0
  9 11  1  1  0  0  0
 11 12  1  0  0  0  0
 13 14  1  1  0  0  0
 13 15  1  0  0  0  0
 13 21  1  0  0  0  0
 16 15  1  0  0  0  0
 16 17  1  6  0  0  0
 18  2  1  6  0  0  0
 18 16  1  0  0  0  0
 19 18  1  0  0  0  0
 19 20  1  1  0  0  0
 21 19  1  0  0  0  0
 21 22  1  1  0  0  0
 23 20  1  6  0  0  0
 23 24  1  0  0  0  0
 23 28  1  0  0  0  0
 24 25  1  1  0  0  0
 24 26  1  0  0  0  0
 26 27  1  0  0  0  0
 26 32  1  1  0  0  0
 27 28  1  0  0  0  0
 27 29  1  6  0  0  0
 29 30  1  0  0  0  0
 31 32  1  6  0  0  0
 31 40  1  0  0  0  0
 33 31  1  0  0  0  0
 33 42  1  6  0  0  0
 35 33  1  0  0  0  0
 35 36  1  6  0  0  0
 37 35  1  0  0  0  0
 37 38  1  6  0  0  0
 37 39  1  0  0  0  0
 39 40  1  0  0  0  0
 39 41  1  6  0  0  0
 41 34  1  0  0  0  0
M  END
>  <CHROM.1>
-156.94556830,-147.50877077,-172.38485627,168.63513960,-138.20038779,178.57212287
158.92467693,116.14710958,-179.53849498,13.09239871,7.61841648,7.56637484
1.07328673,0.15651831,-0.96546201

>  <Name>
2et4_lig

>  <RI>
0

>  <Rbt.Current_Directory>
/home/itssahil/PROJECTS/Mol_Feturizer/New_Systems/rnas/2et4

>  <Rbt.Executable>
rbdock ($Id: //depot/dev/client3/rdock/2013.1/src/exe/rbdock.cxx#4 $)

>  <Rbt.Library>
libRbt.so (2013.1, Build901 2013/11/27)

>  <Rbt.Parameter_File>
/export/apps/rDock/src/rDock_2013.1_src/data/scripts/dock_solv.prm

>  <Rbt.Receptor>
prm/pocket_docking_2.prm

>  <SCORE>
-10.5275

>  <SCORE.INTER>
-12.3102

>  <SCORE.INTER.CONST>
1

>  <SCORE.INTER.POLAR>
-0.916515

>  <SCORE.INTER.ROT>
9

>  <SCORE.INTER.SOLV>
20.576

>  <SCORE.INTER.VDW>
-21.6104

>  <SCORE.INTER.norm>
-0.2931

>  <SCORE.INTRA>
0.542444

>  <SCORE.INTRA.DIHEDRAL>
-1.10188

>  <SCORE.INTRA.DIHEDRAL.0>
21.6909

>  <SCORE.INTRA.POLAR>
0

>  <SCORE.INTRA.POLAR.0>
0

>  <SCORE.INTRA.REPUL>
0

>  <SCORE.INTRA.REPUL.0>
0

>  <SCORE.INTRA.SOLV>
-0.742501

>  <SCORE.INTRA.SOLV.lig_0>
-116.606

>  <SCORE.INTRA.VDW>
1.46464

>  <SCORE.INTRA.VDW.0>
-6.01229

>  <SCORE.INTRA.norm>
0.0129153

>  <SCORE.RESTR>
1.24031

>  <SCORE.RESTR.CAVITY>
1.24031

>  <SCORE.RESTR.norm>
0.0295311

>  <SCORE.SYSTEM>
0

>  <SCORE.SYSTEM.CONST>
0

>  <SCORE.SYSTEM.DIHEDRAL>
0

>  <SCORE.SYSTEM.SOLV>
0

>  <SCORE.SYSTEM.norm>
0

>  <SCORE.heavy>
42

>  <SCORE.norm>
-0.250654

>  <RMSD>
1.383

$$$$
2et4_lig
 OpenBabel11021811423D
libRbt.so/2013.1/901 2013/11/27
 42 45  0  0  0  0  0  0  0  0999 V2000
   13.8329    9.2187    5.1166 C   0  0  2  0  0  0  0  0  0  0  0  0
   14.7265    8.1930    4.6788 O   0  0  0  0  0  0  0  0  0  0  0  0
   12.5622    9.1252    4.2338 C   0  0  2  0  0  0  0  0  0  0  0  0
   11.9600    7.8190    4.3167 N   0  0  0  0  0  0  0  0  0  0  0  0
   12.9310    9.4792    2.7641 C   0  0  1  0  0  0  0  0  0  0  0  0
   11.7839    9.4102    1.9759 O   0  0  0  0  0  0  0  0  0  0  0  0
   13.5747   10.9059    2.7513 C   0  0  2  0  0  0  0  0  0  0  0  0
   13.9326   11.2660    1.4338 O   0  0  0  0  0  0  0  0  0  0  0  0
   14.8404   10.9521    3.6600 C   0  0  2  0  0  0  0  0  0  0  0  0
   14.4596   10.5645    4.9835 O   0  0  0  0  0  0  0  0  0  0  0  0
   15.4869   12.3753    3.7042 C   0  0  0  0  0  0  0  0  0  0  0  0
   14.7546   13.2721    4.5291 N   0  0  0  0  0  0  0  0  0  0  0  0
   17.8732    5.8853    6.5301 C   0  0  2  0  0  0  0  0  0  0  0  0
   19.1237    5.5649    7.2295 N   0  0  0  0  0  0  0  0  0  0  0  0
   18.2087    6.6771    5.1543 C   0  0  0  0  0  0  0  0  0  0  0  0
   16.8562    7.0327    4.4117 C   0  0  2  0  0  0  0  0  0  0  0  0
   17.1130    7.7771    3.1661 N   0  0  0  0  0  0  0  0  0  0  0  0
   15.9527    7.8922    5.3590 C   0  0  2  0  0  0  0  0  0  0  0  0
   15.6613    7.1287    6.6931 C   0  0  2  0  0  0  0  0  0  0  0  0
   14.8381    8.0080    7.4982 O   0  0  0  0  0  0  0  0  0  0  0  0
   17.0046    6.7924    7.4170 C   0  0  1  0  0  0  0  0  0  0  0  0
   16.7161    6.1046    8.5872 O   0  0  0  0  0  0  0  0  0  0  0  0
   14.1110    7.6326    8.5784 C   0  0  1  0  0  0  0  0  0  0  0  0
   12.9413    8.6192    8.8313 C   0  0  2  0  0  0  0  0  0  0  0  0
   13.3215    9.7433    9.5709 O   0  0  0  0  0  0  0  0  0  0  0  0
   11.9327    7.6574    9.4316 C   0  0  1  0  0  0  0  0  0  0  0  0
   12.0871    6.3282    8.6793 C   0  0  2  0  0  0  0  0  0  0  0  0
   13.5000    6.3181    8.4760 O   0  0  0  0  0  0  0  0  0  0  0  0
   11.3028    6.2224    7.3272 C   0  0  0  0  0  0  0  0  0  0  0  0
    9.8893    6.3548    7.6332 O   0  0  0  0  0  0  0  0  0  0  0  0
   11.4137    6.7142   11.6592 C   0  0  2  0  0  0  0  0  0  0  0  0
   12.2552    7.5151   10.8754 O   0  0  0  0  0  0  0  0  0  0  0  0
   11.8484    6.7416   13.1890 C   0  0  1  0  0  0  0  0  0  0  0  0
   10.1569    2.7932    9.7847 N   0  0  0  0  0  0  0  0  0  0  0  0
   10.8295    5.7730   13.9892 C   0  0  1  0  0  0  0  0  0  0  0  0
    9.4214    6.2924   13.7774 O   0  0  0  0  0  0  0  0  0  0  0  0
   10.9595    4.2561   13.4336 C   0  0  2  0  0  0  0  0  0  0  0  0
   12.3086    3.7799   13.6555 O   0  0  0  0  0  0  0  0  0  0  0  0
   10.5429    4.2749   11.8569 C   0  0  1  0  0  0  0  0  0  0  0  0
   11.4166    5.2533   11.1210 O   0  0  0  0  0  0  0  0  0  0  0  0
   10.6524    2.8572   11.1940 C   0  0  0  0  0  0  0  0  0  0  0  0
   13.2838    6.3263   13.3228 N   0  0  0  0  0  0  0  0  0  0  0  0
  1  2  1  6  0  0  0
  1  3  1  0  0  0  0
  1 10  1  0  0  0  0
  3  4  1  6  0  0  0
  3  5  1  0  0  0  0
  5  6  1  6  0  0  0
  5  7  1  0  0  0  0
  7  8  1  6  0  0  0
  7  9  1  0  0  0  0
  9 10  1  0  0  0  0
  9 11  1  1  0  0  0
 11 12  1  0  0  0  0
 13 14  1  1  0  0  0
 13 15  1  0  0  0  0
 13 21  1  0  0  0  0
 16 15  1  0  0  0  0
 16 17  1  6  0  0  0
 18  2  1  6  0  0  0
 18 16  1  0  0  0  0
 19 18  1  0  0  0  0
 19 20  1  1  0  0  0
 21 19  1  0  0  0  0
 21 22  1  1  0  0  0
 23 20  1  6  0  0  0
 23 24  1  0  0  0  0
 23 28  1  0  0  0  0
 24 25  1  1  0  0  0
 24 26  1  0  0  0  0
 26 27  1  0  0  0  0
 26 32  1  1  0  0  0
 27 28  1  0  0  0  0
 27 29  1  6  0  0  0
 29 30  1  0  0  0  0
 31 32  1  6  0  0  0
 31 40  1  0  0  0  0
 33 31  1  0  0  0  0
 33 42  1  6  0  0  0
 35 33  1  0  0  0  0
 35 36  1  6  0  0  0
 37 35  1  0  0  0  0
 37 38  1  6  0  0  0
 37 39  1  0  0  0  0
 39 40  1  0  0  0  0
 39 41  1  6  0  0  0
 41 34  1  0  0  0  0
M  END
>  <CHROM.1>
-173.53075551,76.19880738,-164.06679341,163.83551582,-156.46548913,177.18504229
-61.63343293,-176.54294658,174.42210250,13.50694334,7.45499085,7.69076408
1.19435256,0.28477439,-0.97391381

>  <Name>
2et4_lig

>  <RI>
0

>  <Rbt.Current_Directory>
/home/itssahil/PROJECTS/Mol_Feturizer/New_Systems/rnas/2et4

>  <Rbt.Executable>
rbdock ($Id: //depot/dev/client3/rdock/2013.1/src/exe/rbdock.cxx#4 $)

>  <Rbt.Library>
libRbt.so (2013.1, Build901 2013/11/27)

>  <Rbt.Parameter_File>
/export/apps/rDock/src/rDock_2013.1_src/data/scripts/dock_solv.prm

>  <Rbt.Receptor>
prm/pocket_docking_5.prm

>  <SCORE>
-17.4759

>  <SCORE.INTER>
-9.73065

>  <SCORE.INTER.CONST>
1

>  <SCORE.INTER.POLAR>
-1.15721

>  <SCORE.INTER.ROT>
9

>  <SCORE.INTER.SOLV>
27.1264

>  <SCORE.INTER.VDW>
-21.2719

>  <SCORE.INTER.norm>
-0.231682

>  <SCORE.INTRA>
-7.87341

>  <SCORE.INTRA.DIHEDRAL>
-15.3917

>  <SCORE.INTRA.DIHEDRAL.0>
21.6909

>  <SCORE.INTRA.POLAR>
0

>  <SCORE.INTRA.POLAR.0>
0

>  <SCORE.INTRA.REPUL>
0

>  <SCORE.INTRA.REPUL.0>
0

>  <SCORE.INTRA.SOLV>
-2.55484

>  <SCORE.INTRA.SOLV.lig_0>
-116.606

>  <SCORE.INTRA.VDW>
1.09984

>  <SCORE.INTRA.VDW.0>
-6.01229

>  <SCORE.INTRA.norm>
-0.187462

>  <SCORE.RESTR>
0.128204

>  <SCORE.RESTR.CAVITY>
0.128204

>  <SCORE.RESTR.norm>
0.00305247

>  <SCORE.SYSTEM>
0

>  <SCORE.SYSTEM.CONST>
0

>  <SCORE.SYSTEM.DIHEDRAL>
0

>  <SCORE.SYSTEM.SOLV>
0

>  <SCORE.SYSTEM.norm>
0

>  <SCORE.heavy>
42

>  <SCORE.norm>
-0.416092

>  <RMSD>
1.505

$$$$
2et4_lig
 OpenBabel11021811423D
libRbt.so/2013.1/901 2013/11/27
 42 45  0  0  0  0  0  0  0  0999 V2000
   13.7400    9.3013    5.6628 C   0  0  2  0  0  0  0  0  0  0  0  0
   14.5670    8.2360    5.1902 O   0  0  0  0  0  0  0  0  0  0  0  0
   12.3474    9.1249    5.0053 C   0  0  2  0  0  0  0  0  0  0  0  0
   11.7833    7.8342    5.3080 N   0  0  0  0  0  0  0  0  0  0  0  0
   12.4751    9.3333    3.4686 C   0  0  1  0  0  0  0  0  0  0  0  0
   11.2192    9.1902    2.8821 O   0  0  0  0  0  0  0  0  0  0  0  0
   13.0896   10.7507    3.2165 C   0  0  2  0  0  0  0  0  0  0  0  0
   13.2305   10.9801    1.8305 O   0  0  0  0  0  0  0  0  0  0  0  0
   14.4819   10.8826    3.9049 C   0  0  2  0  0  0  0  0  0  0  0  0
   14.3197   10.6264    5.3030 O   0  0  0  0  0  0  0  0  0  0  0  0
   15.1082   12.3020    3.7087 C   0  0  0  0  0  0  0  0  0  0  0  0
   15.5192   12.5264    2.3664 N   0  0  0  0  0  0  0  0  0  0  0  0
   18.0061    5.9981    6.5389 C   0  0  2  0  0  0  0  0  0  0  0  0
   19.3303    5.7044    7.1009 N   0  0  0  0  0  0  0  0  0  0  0  0
   18.1695    6.9436    5.2307 C   0  0  0  0  0  0  0  0  0  0  0  0
   16.7378    7.2688    4.6375 C   0  0  2  0  0  0  0  0  0  0  0  0
   16.8373    8.1487    3.4596 N   0  0  0  0  0  0  0  0  0  0  0  0
   15.8642    7.9619    5.7370 C   0  0  2  0  0  0  0  0  0  0  0  0
   15.7392    7.0518    7.0035 C   0  0  2  0  0  0  0  0  0  0  0  0
   14.9319    7.7845    7.9577 O   0  0  0  0  0  0  0  0  0  0  0  0
   17.1588    6.7469    7.5806 C   0  0  1  0  0  0  0  0  0  0  0  0
   17.0177    5.9283    8.6922 O   0  0  0  0  0  0  0  0  0  0  0  0
   13.8582    7.2910    8.6210 C   0  0  1  0  0  0  0  0  0  0  0  0
   14.2365    6.0177    9.4216 C   0  0  2  0  0  0  0  0  0  0  0  0
   14.2011    4.8528    8.6492 O   0  0  0  0  0  0  0  0  0  0  0  0
   13.2646    6.1560   10.5788 C   0  0  1  0  0  0  0  0  0  0  0  0
   13.1730    7.6538   10.9028 C   0  0  2  0  0  0  0  0  0  0  0  0
   13.2669    8.2008    9.5876 O   0  0  0  0  0  0  0  0  0  0  0  0
   14.2928    8.2101   11.8469 C   0  0  0  0  0  0  0  0  0  0  0  0
   13.9593    9.5907   12.1500 O   0  0  0  0  0  0  0  0  0  0  0  0
   10.8837    5.6583   11.0318 C   0  0  2  0  0  0  0  0  0  0  0  0
   11.9576    5.6070   10.1328 O   0  0  0  0  0  0  0  0  0  0  0  0
   11.2102    4.8624   12.3697 C   0  0  1  0  0  0  0  0  0  0  0  0
    6.8740    5.1912    9.0982 N   0  0  0  0  0  0  0  0  0  0  0  0
    9.9030    4.9695   13.3165 C   0  0  1  0  0  0  0  0  0  0  0  0
    9.6232    6.4376   13.5691 O   0  0  0  0  0  0  0  0  0  0  0  0
    8.6350    4.2721   12.5869 C   0  0  2  0  0  0  0  0  0  0  0  0
    8.9225    2.8706   12.3654 O   0  0  0  0  0  0  0  0  0  0  0  0
    8.3549    5.0903   11.2042 C   0  0  1  0  0  0  0  0  0  0  0  0
    9.6002    5.0871   10.3609 O   0  0  0  0  0  0  0  0  0  0  0  0
    7.1559    4.4911   10.3889 C   0  0  0  0  0  0  0  0  0  0  0  0
   11.5893    3.4473   12.0463 N   0  0  0  0  0  0  0  0  0  0  0  0
  1  2  1  6  0  0  0
  1  3  1  0  0  0  0
  1 10  1  0  0  0  0
  3  4  1  6  0  0  0
  3  5  1  0  0  0  0
  5  6  1  6  0  0  0
  5  7  1  0  0  0  0
  7  8  1  6  0  0  0
  7  9  1  0  0  0  0
  9 10  1  0  0  0  0
  9 11  1  1  0  0  0
 11 12  1  0  0  0  0
 13 14  1  1  0  0  0
 13 15  1  0  0  0  0
 13 21  1  0  0  0  0
 16 15  1  0  0  0  0
 16 17  1  6  0  0  0
 18  2  1  6  0  0  0
 18 16  1  0  0  0  0
 19 18  1  0  0  0  0
 19 20  1  1  0  0  0
 21 19  1  0  0  0  0
 21 22  1  1  0  0  0
 23 20  1  1  0  0  0
 23 24  1  0  0  0  0
 23 28  1  0  0  0  0
 24 25  1  6  0  0  0
 24 26  1  0  0  0  0
 26 27  1  0  0  0  0
 26 32  1  6  0  0  0
 27 28  1  0  0  0  0
 27 29  1  1  0  0  0
 29 30  1  0  0  0  0
 31 32  1  6  0  0  0
 31 40  1  0  0  0  0
 33 31  1  0  0  0  0
 33 42  1  6  0  0  0
 35 33  1  0  0  0  0
 35 36  1  6  0  0  0
 37 35  1  0  0  0  0
 37 38  1  6  0  0  0
 37 39  1  0  0  0  0
 39 40  1  0  0  0  0
 39 41  1  6  0  0  0
 41 34  1  0  0  0  0
M  END
>  <CHROM.1>
-170.53726215,-70.32427655,-153.19644837,130.45804196,56.59224875,-178.41793309
-173.98911751,-59.44984255,-178.92810950,13.23273425,7.30514551,7.92054878
1.03836743,0.06296847,-1.00145029

>  <Name>
2et4_lig

>  <RI>
0

>  <Rbt.Current_Directory>
/home/itssahil/PROJECTS/Mol_Feturizer/New_Systems/rnas/2et4

>  <Rbt.Executable>
rbdock ($Id: //depot/dev/client3/rdock/2013.1/src/exe/rbdock.cxx#4 $)

>  <Rbt.Library>
libRbt.so (2013.1, Build901 2013/11/27)

>  <Rbt.Parameter_File>
/export/apps/rDock/src/rDock_2013.1_src/data/scripts/dock_solv.prm

>  <Rbt.Receptor>
prm/pocket_docking_3.prm

>  <SCORE>
-18.326

>  <SCORE.INTER>
-13.2282

>  <SCORE.INTER.CONST>
1

>  <SCORE.INTER.POLAR>
-0.916515

>  <SCORE.INTER.ROT>
9

>  <SCORE.INTER.SOLV>
19.34

>  <SCORE.INTER.VDW>
-21.8104

>  <SCORE.INTER.norm>
-0.314957

>  <SCORE.INTRA>
-5.09811

>  <SCORE.INTRA.DIHEDRAL>
-10.8531

>  <SCORE.INTRA.DIHEDRAL.0>
21.6909

>  <SCORE.INTRA.POLAR>
0

>  <SCORE.INTRA.POLAR.0>
0

>  <SCORE.INTRA.REPUL>
0

>  <SCORE.INTRA.REPUL.0>
0

>  <SCORE.INTRA.SOLV>
-2.42225

>  <SCORE.INTRA.SOLV.lig_0>
-116.606

>  <SCORE.INTRA.VDW>
1.53955

>  <SCORE.INTRA.VDW.0>
-6.01229

>  <SCORE.INTRA.norm>
-0.121384

>  <SCORE.RESTR>
0.000300249

>  <SCORE.RESTR.CAVITY>
0.000300249

>  <SCORE.RESTR.norm>
7.14879e-06

>  <SCORE.SYSTEM>
0

>  <SCORE.SYSTEM.CONST>
0

>  <SCORE.SYSTEM.DIHEDRAL>
0

>  <SCORE.SYSTEM.SOLV>
0

>  <SCORE.SYSTEM.norm>
0

>  <SCORE.heavy>
42

>  <SCORE.norm>
-0.436334

>  <RMSD>
1.661

$$$$
2et4_lig
 OpenBabel11021811423D
libRbt.so/2013.1/901 2013/11/27
 42 45  0  0  0  0  0  0  0  0999 V2000
   13.8270    9.2609    5.0492 C   0  0  2  0  0  0  0  0  0  0  0  0
   14.8447    8.3536    4.6209 O   0  0  0  0  0  0  0  0  0  0  0  0
   12.6204    9.0785    4.0934 C   0  0  2  0  0  0  0  0  0  0  0  0
   12.1551    7.7150    4.0893 N   0  0  0  0  0  0  0  0  0  0  0  0
   13.0253    9.5360    2.6624 C   0  0  1  0  0  0  0  0  0  0  0  0
   11.9341    9.3861    1.8089 O   0  0  0  0  0  0  0  0  0  0  0  0
   13.5156   11.0202    2.7436 C   0  0  2  0  0  0  0  0  0  0  0  0
   13.9013   11.4756    1.4640 O   0  0  0  0  0  0  0  0  0  0  0  0
   14.7209   11.1539    3.7231 C   0  0  2  0  0  0  0  0  0  0  0  0
   14.3151   10.6686    5.0062 O   0  0  0  0  0  0  0  0  0  0  0  0
   15.2114   12.6323    3.8612 C   0  0  0  0  0  0  0  0  0  0  0  0
   15.8611   13.0944    2.6841 N   0  0  0  0  0  0  0  0  0  0  0  0
   17.6393    5.8427    6.7517 C   0  0  2  0  0  0  0  0  0  0  0  0
   18.7617    5.4424    7.6094 N   0  0  0  0  0  0  0  0  0  0  0  0
   18.1940    6.7287    5.5108 C   0  0  0  0  0  0  0  0  0  0  0  0
   16.9779    7.1695    4.5975 C   0  0  2  0  0  0  0  0  0  0  0  0
   17.4340    8.0002    3.4689 N   0  0  0  0  0  0  0  0  0  0  0  0
   15.9463    7.9749    5.4576 C   0  0  2  0  0  0  0  0  0  0  0  0
   15.4420    7.1192    6.6664 C   0  0  2  0  0  0  0  0  0  0  0  0
   14.5121    7.9532    7.4004 O   0  0  0  0  0  0  0  0  0  0  0  0
   16.6520    6.6992    7.5613 C   0  0  1  0  0  0  0  0  0  0  0  0
   16.1771    5.9314    8.6151 O   0  0  0  0  0  0  0  0  0  0  0  0
   13.6027    7.5103    8.3021 C   0  0  1  0  0  0  0  0  0  0  0  0
   13.1454    8.6579    9.2399 C   0  0  2  0  0  0  0  0  0  0  0  0
   14.0085    8.8600   10.3212 O   0  0  0  0  0  0  0  0  0  0  0  0
   11.7251    8.2003    9.5155 C   0  0  1  0  0  0  0  0  0  0  0  0
   11.1958    7.5904    8.2098 C   0  0  2  0  0  0  0  0  0  0  0  0
   12.3849    6.9673    7.7244 O   0  0  0  0  0  0  0  0  0  0  0  0
   10.6092    8.6116    7.1766 C   0  0  0  0  0  0  0  0  0  0  0  0
   11.6713    9.5407    6.8330 O   0  0  0  0  0  0  0  0  0  0  0  0
   10.6631    6.3779   10.8088 C   0  0  2  0  0  0  0  0  0  0  0  0
   11.7832    7.1962   10.6097 O   0  0  0  0  0  0  0  0  0  0  0  0
    9.5620    7.1088   11.6936 C   0  0  1  0  0  0  0  0  0  0  0  0
    9.6378    1.6057   12.4825 N   0  0  0  0  0  0  0  0  0  0  0  0
    8.3344    6.0713   11.8758 C   0  0  1  0  0  0  0  0  0  0  0  0
    7.8202    5.7032   10.4983 O   0  0  0  0  0  0  0  0  0  0  0  0
    8.8431    4.7469   12.6592 C   0  0  2  0  0  0  0  0  0  0  0  0
    9.3198    5.1228   13.9736 O   0  0  0  0  0  0  0  0  0  0  0  0
    9.9950    4.0472   11.7410 C   0  0  1  0  0  0  0  0  0  0  0  0
   11.0941    5.0392   11.4767 O   0  0  0  0  0  0  0  0  0  0  0  0
   10.5884    2.7574   12.4087 C   0  0  0  0  0  0  0  0  0  0  0  0
   10.1597    7.5492   12.9973 N   0  0  0  0  0  0  0  0  0  0  0  0
  1  2  1  6  0  0  0
  1  3  1  0  0  0  0
  1 10  1  0  0  0  0
  3  4  1  6  0  0  0
  3  5  1  0  0  0  0
  5  6  1  6  0  0  0
  5  7  1  0  0  0  0
  7  8  1  6  0  0  0
  7  9  1  0  0  0  0
  9 10  1  0  0  0  0
  9 11  1  1  0  0  0
 11 12  1  0  0  0  0
 13 14  1  1  0  0  0
 13 15  1  0  0  0  0
 13 21  1  0  0  0  0
 16 15  1  0  0  0  0
 16 17  1  6  0  0  0
 18  2  1  6  0  0  0
 18 16  1  0  0  0  0
 19 18  1  0  0  0  0
 19 20  1  1  0  0  0
 21 19  1  0  0  0  0
 21 22  1  1  0  0  0
 23 20  1  6  0  0  0
 23 24  1  0  0  0  0
 23 28  1  0  0  0  0
 24 25  1  1  0  0  0
 24 26  1  0  0  0  0
 26 27  1  0  0  0  0
 26 32  1  1  0  0  0
 27 28  1  0  0  0  0
 27 29  1  6  0  0  0
 29 30  1  0  0  0  0
 31 32  1  1  0  0  0
 31 40  1  0  0  0  0
 33 31  1  0  0  0  0
 33 42  1  1  0  0  0
 35 33  1  0  0  0  0
 35 36  1  6  0  0  0
 37 35  1  0  0  0  0
 37 38  1  1  0  0  0
 37 39  1  0  0  0  0
 39 40  1  0  0  0  0
 39 41  1  1  0  0  0
 41 34  1  0  0  0  0
M  END
>  <CHROM.1>
-162.55638835,-70.77282929,-170.71024168,162.41532747,159.76081123,-163.76600299
59.72755953,-83.14529668,68.85503567,13.07151835,7.66422490,7.53145064,1.04600005
0.30580613,-0.88859724

>  <Name>
2et4_lig

>  <RI>
0

>  <Rbt.Current_Directory>
/home/itssahil/PROJECTS/Mol_Feturizer/New_Systems/rnas/2et4

>  <Rbt.Executable>
rbdock ($Id: //depot/dev/client3/rdock/2013.1/src/exe/rbdock.cxx#4 $)

>  <Rbt.Library>
libRbt.so (2013.1, Build901 2013/11/27)

>  <Rbt.Parameter_File>
/export/apps/rDock/src/rDock_2013.1_src/data/scripts/dock_solv.prm

>  <Rbt.Receptor>
prm/pocket_docking_2.prm

>  <SCORE>
-19.7091

>  <SCORE.INTER>
-15.0231

>  <SCORE.INTER.CONST>
1

>  <SCORE.INTER.POLAR>
-1.35599

>  <SCORE.INTER.ROT>
9

>  <SCORE.INTER.SOLV>
19.2799

>  <SCORE.INTER.VDW>
-21.522

>  <SCORE.INTER.norm>
-0.357692

>  <SCORE.INTRA>
-5.15617

>  <SCORE.INTRA.DIHEDRAL>
-12.2234

>  <SCORE.INTRA.DIHEDRAL.0>
21.6909

>  <SCORE.INTRA.POLAR>
0

>  <SCORE.INTRA.POLAR.0>
0

>  <SCORE.INTRA.REPUL>
0

>  <SCORE.INTRA.REPUL.0>
0

>  <SCORE.INTRA.SOLV>
-0.701201

>  <SCORE.INTRA.SOLV.lig_0>
-116.606

>  <SCORE.INTRA.VDW>
1.30614

>  <SCORE.INTRA.VDW.0>
-6.01229

>  <SCORE.INTRA.norm>
-0.122766

>  <SCORE.RESTR>
0.470156

>  <SCORE.RESTR.CAVITY>
0.470156

>  <SCORE.RESTR.norm>
0.0111942

>  <SCORE.SYSTEM>
0

>  <SCORE.SYSTEM.CONST>
0

>  <SCORE.SYSTEM.DIHEDRAL>
0

>  <SCORE.SYSTEM.SOLV>
0

>  <SCORE.SYSTEM.norm>
0

>  <SCORE.heavy>
42

>  <SCORE.norm>
-0.469264

>  <RMSD>
1.680

$$$$
2et4_lig
 OpenBabel11021811423D
libRbt.so/2013.1/901 2013/11/27
 42 45  0  0  0  0  0  0  0  0999 V2000
   13.6932    9.4159    5.1605 C   0  0  2  0  0  0  0  0  0  0  0  0
   14.6508    8.4593    4.7023 O   0  0  0  0  0  0  0  0  0  0  0  0
   12.4042    9.2086    4.3249 C   0  0  2  0  0  0  0  0  0  0  0  0
   11.9126    7.8595    4.4436 N   0  0  0  0  0  0  0  0  0  0  0  0
   12.6919    9.5707    2.8392 C   0  0  1  0  0  0  0  0  0  0  0  0
   11.5274    9.3989    2.0933 O   0  0  0  0  0  0  0  0  0  0  0  0
   13.2175   11.0441    2.7877 C   0  0  2  0  0  0  0  0  0  0  0  0
   13.4991   11.4136    1.4544 O   0  0  0  0  0  0  0  0  0  0  0  0
   14.5062   11.2043    3.6499 C   0  0  2  0  0  0  0  0  0  0  0  0
   14.2042   10.8057    4.9903 O   0  0  0  0  0  0  0  0  0  0  0  0
   15.0370   12.6753    3.6553 C   0  0  0  0  0  0  0  0  0  0  0  0
   16.4568   12.7336    3.6135 N   0  0  0  0  0  0  0  0  0  0  0  0
   17.5745    5.9638    6.6718 C   0  0  2  0  0  0  0  0  0  0  0  0
   18.7479    5.5697    7.4614 N   0  0  0  0  0  0  0  0  0  0  0  0
   18.0508    6.8434    5.3945 C   0  0  0  0  0  0  0  0  0  0  0  0
   16.7805    7.2777    4.5548 C   0  0  2  0  0  0  0  0  0  0  0  0
   17.1653    8.1025    3.3959 N   0  0  0  0  0  0  0  0  0  0  0  0
   15.8022    8.0867    5.4720 C   0  0  2  0  0  0  0  0  0  0  0  0
   15.3742    7.2372    6.7142 C   0  0  2  0  0  0  0  0  0  0  0  0
   14.4896    8.0743    7.4991 O   0  0  0  0  0  0  0  0  0  0  0  0
   16.6374    6.8237    7.5356 C   0  0  1  0  0  0  0  0  0  0  0  0
   16.2290    6.0613    8.6208 O   0  0  0  0  0  0  0  0  0  0  0  0
   13.6795    7.6430    8.4960 C   0  0  1  0  0  0  0  0  0  0  0  0
   13.2585    8.8174    9.4174 C   0  0  2  0  0  0  0  0  0  0  0  0
   14.2023    9.1028   10.4088 O   0  0  0  0  0  0  0  0  0  0  0  0
   11.8865    8.3226    9.8366 C   0  0  1  0  0  0  0  0  0  0  0  0
   11.2723    7.6314    8.6112 C   0  0  2  0  0  0  0  0  0  0  0  0
   12.4394    7.0289    8.0522 O   0  0  0  0  0  0  0  0  0  0  0  0
   10.5587    8.5794    7.5882 C   0  0  0  0  0  0  0  0  0  0  0  0
   11.5420    9.5463    7.1327 O   0  0  0  0  0  0  0  0  0  0  0  0
   10.9355    6.8346   11.5695 C   0  0  2  0  0  0  0  0  0  0  0  0
   12.0787    7.3756   10.9658 O   0  0  0  0  0  0  0  0  0  0  0  0
   10.3258    7.8293   12.6506 C   0  0  1  0  0  0  0  0  0  0  0  0
    9.5580    2.5150   14.0405 N   0  0  0  0  0  0  0  0  0  0  0  0
    9.0341    7.0977   13.2933 C   0  0  1  0  0  0  0  0  0  0  0  0
    8.0601    6.7916   12.1730 O   0  0  0  0  0  0  0  0  0  0  0  0
    9.4871    5.7298   14.0349 C   0  0  2  0  0  0  0  0  0  0  0  0
   10.4084    6.0490   15.1051 O   0  0  0  0  0  0  0  0  0  0  0  0
   10.1399    4.7528   12.9039 C   0  0  1  0  0  0  0  0  0  0  0  0
   11.2778    5.4647   12.2254 O   0  0  0  0  0  0  0  0  0  0  0  0
   10.6430    3.3948   13.5072 C   0  0  0  0  0  0  0  0  0  0  0  0
   11.3693    8.1841   13.6684 N   0  0  0  0  0  0  0  0  0  0  0  0
  1  2  1  6  0  0  0
  1  3  1  0  0  0  0
  1 10  1  0  0  0  0
  3  4  1  6  0  0  0
  3  5  1  0  0  0  0
  5  6  1  6  0  0  0
  5  7  1  0  0  0  0
  7  8  1  6  0  0  0
  7  9  1  0  0  0  0
  9 10  1  0  0  0  0
  9 11  1  1  0  0  0
 11 12  1  0  0  0  0
 13 14  1  1  0  0  0
 13 15  1  0  0  0  0
 13 21  1  0  0  0  0
 16 15  1  0  0  0  0
 16 17  1  6  0  0  0
 18  2  1  6  0  0  0
 18 16  1  0  0  0  0
 19 18  1  0  0  0  0
 19 20  1  1  0  0  0
 21 19  1  0  0  0  0
 21 22  1  1  0  0  0
 23 20  1  6  0  0  0
 23 24  1  0  0  0  0
 23 28  1  0  0  0  0
 24 25  1  1  0  0  0
 24 26  1  0  0  0  0
 26 27  1  0  0  0  0
 26 32  1  1  0  0  0
 27 28  1  0  0  0  0
 27 29  1  6  0  0  0
 29 30  1  0  0  0  0
 31 32  1  1  0  0  0
 31 40  1  0  0  0  0
 33 31  1  0  0  0  0
 33 42  1  1  0  0  0
 35 33  1  0  0  0  0
 35 36  1  6  0  0  0
 37 35  1  0  0  0  0
 37 38  1  1  0  0  0
 37 39  1  0  0  0  0
 39 40  1  0  0  0  0
 39 41  1  1  0  0  0
 41 34  1  0  0  0  0
M  END
>  <CHROM.1>
-161.53789287,-141.48587519,-167.65242990,165.39356143,160.54845687,176.88149960
58.54356348,-82.88853706,65.98710008,13.14271626,7.92591012,7.92989988,1.10744063
0.37401811,-0.99374000

>  <Name>
2et4_lig

>  <RI>
0

>  <Rbt.Current_Directory>
/home/itssahil/PROJECTS/Mol_Feturizer/New_Systems/rnas/2et4

>  <Rbt.Executable>
rbdock ($Id: //depot/dev/client3/rdock/2013.1/src/exe/rbdock.cxx#4 $)

>  <Rbt.Library>
libRbt.so (2013.1, Build901 2013/11/27)

>  <Rbt.Parameter_File>
/export/apps/rDock/src/rDock_2013.1_src/data/scripts/dock_solv.prm

>  <Rbt.Receptor>
prm/pocket_docking_3.prm

>  <SCORE>
-23.0363

>  <SCORE.INTER>
-18.0213

>  <SCORE.INTER.CONST>
1

>  <SCORE.INTER.POLAR>
-1.42633

>  <SCORE.INTER.ROT>
9

>  <SCORE.INTER.SOLV>
22.8637

>  <SCORE.INTER.VDW>
-24.481

>  <SCORE.INTER.norm>
-0.429079

>  <SCORE.INTRA>
-5.10156

>  <SCORE.INTRA.DIHEDRAL>
-10.2837

>  <SCORE.INTRA.DIHEDRAL.0>
21.6909

>  <SCORE.INTRA.POLAR>
0

>  <SCORE.INTRA.POLAR.0>
0

>  <SCORE.INTRA.REPUL>
0

>  <SCORE.INTRA.REPUL.0>
0

>  <SCORE.INTRA.SOLV>
-1.57248

>  <SCORE.INTRA.SOLV.lig_0>
-116.606

>  <SCORE.INTRA.VDW>
0.826501

>  <SCORE.INTRA.VDW.0>
-6.01229

>  <SCORE.INTRA.norm>
-0.121466

>  <SCORE.RESTR>
0.0866123

>  <SCORE.RESTR.CAVITY>
0.0866123

>  <SCORE.RESTR.norm>
0.0020622

>  <SCORE.SYSTEM>
0

>  <SCORE.SYSTEM.CONST>
0

>  <SCORE.SYSTEM.DIHEDRAL>
0

>  <SCORE.SYSTEM.SOLV>
0

>  <SCORE.SYSTEM.norm>
0

>  <SCORE.heavy>
42

>  <SCORE.norm>
-0.548483

>  <RMSD>
1.821

$$$$
2et4_lig
 OpenBabel11021811423D
libRbt.so/2013.1/901 2013/11/27
 42 45  0  0  0  0  0  0  0  0999 V2000
   13.9798    9.1121    5.2183 C   0  0  2  0  0  0  0  0  0  0  0  0
   14.8386    8.0721    4.7461 O   0  0  0  0  0  0  0  0  0  0  0  0
   12.6582    9.0137    4.4144 C   0  0  2  0  0  0  0  0  0  0  0  0
   12.0530    7.7139    4.5556 N   0  0  0  0  0  0  0  0  0  0  0  0
   12.9412    9.3398    2.9195 C   0  0  1  0  0  0  0  0  0  0  0  0
   11.7488    9.2665    2.2021 O   0  0  0  0  0  0  0  0  0  0  0  0
   13.5927   10.7609    2.8436 C   0  0  2  0  0  0  0  0  0  0  0  0
   13.8740   11.0959    1.5011 O   0  0  0  0  0  0  0  0  0  0  0  0
   14.9106   10.8126    3.6745 C   0  0  2  0  0  0  0  0  0  0  0  0
   14.6066   10.4505    5.0248 O   0  0  0  0  0  0  0  0  0  0  0  0
   15.5684   12.2312    3.6554 C   0  0  0  0  0  0  0  0  0  0  0  0
   14.7817   13.1968    4.3409 N   0  0  0  0  0  0  0  0  0  0  0  0
   17.7745    5.3776    6.4118 C   0  0  2  0  0  0  0  0  0  0  0  0
   18.9379    4.8972    7.1677 N   0  0  0  0  0  0  0  0  0  0  0  0
   18.2597    6.4440    5.2894 C   0  0  0  0  0  0  0  0  0  0  0  0
   16.9998    6.9695    4.4872 C   0  0  2  0  0  0  0  0  0  0  0  0
   17.3921    7.9625    3.4715 N   0  0  0  0  0  0  0  0  0  0  0  0
   15.9799    7.6153    5.4848 C   0  0  2  0  0  0  0  0  0  0  0  0
   15.5430    6.5849    6.5781 C   0  0  2  0  0  0  0  0  0  0  0  0
   14.6194    7.2798    7.4517 O   0  0  0  0  0  0  0  0  0  0  0  0
   16.7958    6.0825    7.3652 C   0  0  1  0  0  0  0  0  0  0  0  0
   16.3802    5.1615    8.3164 O   0  0  0  0  0  0  0  0  0  0  0  0
   13.4796    6.7569    7.9653 C   0  0  1  0  0  0  0  0  0  0  0  0
   13.2056    7.3111    9.3878 C   0  0  2  0  0  0  0  0  0  0  0  0
   13.8884    6.6142   10.3894 O   0  0  0  0  0  0  0  0  0  0  0  0
   11.6885    7.2756    9.3784 C   0  0  1  0  0  0  0  0  0  0  0  0
   11.2459    7.6616    7.9600 C   0  0  2  0  0  0  0  0  0  0  0  0
   12.2787    7.0381    7.1969 O   0  0  0  0  0  0  0  0  0  0  0  0
   11.1582    9.1997    7.6751 C   0  0  0  0  0  0  0  0  0  0  0  0
   10.1254    9.7436    8.5393 O   0  0  0  0  0  0  0  0  0  0  0  0
   11.4855    5.4576   11.0443 C   0  0  2  0  0  0  0  0  0  0  0  0
   11.2716    5.8929    9.7295 O   0  0  0  0  0  0  0  0  0  0  0  0
   11.3510    3.8770   11.1600 C   0  0  1  0  0  0  0  0  0  0  0  0
    9.5006    8.0596   14.0306 N   0  0  0  0  0  0  0  0  0  0  0  0
   11.5934    3.4926   12.7124 C   0  0  1  0  0  0  0  0  0  0  0  0
   12.9693    3.9878   13.1111 O   0  0  0  0  0  0  0  0  0  0  0  0
   10.4562    4.1852   13.6363 C   0  0  2  0  0  0  0  0  0  0  0  0
    9.1539    3.6897   13.2430 O   0  0  0  0  0  0  0  0  0  0  0  0
   10.6012    5.8003   13.4626 C   0  0  1  0  0  0  0  0  0  0  0  0
   10.4825    6.1588   12.0068 O   0  0  0  0  0  0  0  0  0  0  0  0
    9.5308    6.5884   14.2960 C   0  0  0  0  0  0  0  0  0  0  0  0
   10.0122    3.4363   10.6459 N   0  0  0  0  0  0  0  0  0  0  0  0
  1  2  1  6  0  0  0
  1  3  1  0  0  0  0
  1 10  1  0  0  0  0
  3  4  1  6  0  0  0
  3  5  1  0  0  0  0
  5  6  1  6  0  0  0
  5  7  1  0  0  0  0
  7  8  1  6  0  0  0
  7  9  1  0  0  0  0
  9 10  1  0  0  0  0
  9 11  1  1  0  0  0
 11 12  1  0  0  0  0
 13 14  1  1  0  0  0
 13 15  1  0  0  0  0
 13 21  1  0  0  0  0
 16 15  1  0  0  0  0
 16 17  1  6  0  0  0
 18  2  1  6  0  0  0
 18 16  1  0  0  0  0
 19 18  1  0  0  0  0
 19 20  1  1  0  0  0
 21 19  1  0  0  0  0
 21 22  1  1  0  0  0
 23 20  1  6  0  0  0
 23 24  1  0  0  0  0
 23 28  1  0  0  0  0
 24 25  1  1  0  0  0
 24 26  1  0  0  0  0
 26 27  1  0  0  0  0
 26 32  1  6  0  0  0
 27 28  1  0  0  0  0
 27 29  1  1  0  0  0
 29 30  1  0  0  0  0
 31 32  1  6  0  0  0
 31 40  1  0  0  0  0
 33 31  1  0  0  0  0
 33 42  1  1  0  0  0
 35 33  1  0  0  0  0
 35 36  1  1  0  0  0
 37 35  1  0  0  0  0
 37 38  1  6  0  0  0
 37 39  1  0  0  0  0
 39 40  1  0  0  0  0
 39 41  1  1  0  0  0
 41 34  1  0  0  0  0
M  END
>  <CHROM.1>
-162.29141868,67.24813299,-156.05425383,138.97695223,145.80750592,69.74852782
-63.84590791,-164.99691376,-172.18179911,13.29802052,7.33244062,7.74193240
1.10401261,0.46734296,-0.88446969

>  <Name>
2et4_lig

>  <RI>
0

>  <Rbt.Current_Directory>
/home/itssahil/PROJECTS/Mol_Feturizer/New_Systems/rnas/2et4

>  <Rbt.Executable>
rbdock ($Id: //depot/dev/client3/rdock/2013.1/src/exe/rbdock.cxx#4 $)

>  <Rbt.Library>
libRbt.so (2013.1, Build901 2013/11/27)

>  <Rbt.Parameter_File>
/export/apps/rDock/src/rDock_2013.1_src/data/scripts/dock_solv.prm

>  <Rbt.Receptor>
prm/pocket_docking_2.prm

>  <SCORE>
-12.7816

>  <SCORE.INTER>
-10.9391

>  <SCORE.INTER.CONST>
1

>  <SCORE.INTER.POLAR>
-1.01689

>  <SCORE.INTER.ROT>
9

>  <SCORE.INTER.SOLV>
21.6761

>  <SCORE.INTER.VDW>
-20.7284

>  <SCORE.INTER.norm>
-0.260454

>  <SCORE.INTRA>
-2.3099

>  <SCORE.INTRA.DIHEDRAL>
-5.69306

>  <SCORE.INTRA.DIHEDRAL.0>
21.6909

>  <SCORE.INTRA.POLAR>
0

>  <SCORE.INTRA.POLAR.0>
0

>  <SCORE.INTRA.REPUL>
0

>  <SCORE.INTRA.REPUL.0>
0

>  <SCORE.INTRA.SOLV>
-0.243962

>  <SCORE.INTRA.SOLV.lig_0>
-116.606

>  <SCORE.INTRA.VDW>
0.658614

>  <SCORE.INTRA.VDW.0>
-6.01229

>  <SCORE.INTRA.norm>
-0.0549976

>  <SCORE.RESTR>
0.467308

>  <SCORE.RESTR.CAVITY>
0.467308

>  <SCORE.RESTR.norm>
0.0111264

>  <SCORE.SYSTEM>
0

>  <SCORE.SYSTEM.CONST>
0

>  <SCORE.SYSTEM.DIHEDRAL>
0

>  <SCORE.SYSTEM.SOLV>
0

>  <SCORE.SYSTEM.norm>
0

>  <SCORE.heavy>
42

>  <SCORE.norm>
-0.304325

>  <RMSD>
1.827

$$$$
2et4_lig
 OpenBabel11021811423D
libRbt.so/2013.1/901 2013/11/27
 42 45  0  0  0  0  0  0  0  0999 V2000
   13.9176    9.2002    5.4223 C   0  0  2  0  0  0  0  0  0  0  0  0
   14.6551    8.0410    5.0294 O   0  0  0  0  0  0  0  0  0  0  0  0
   12.5630    9.1568    4.6700 C   0  0  2  0  0  0  0  0  0  0  0  0
   11.8428    7.9419    4.9547 N   0  0  0  0  0  0  0  0  0  0  0  0
   12.8188    9.3110    3.1429 C   0  0  1  0  0  0  0  0  0  0  0  0
   11.5985    9.2879    2.4706 O   0  0  0  0  0  0  0  0  0  0  0  0
   13.5992   10.6477    2.9101 C   0  0  2  0  0  0  0  0  0  0  0  0
   13.8599   10.8253    1.5339 O   0  0  0  0  0  0  0  0  0  0  0  0
   14.9466   10.6478    3.6940 C   0  0  2  0  0  0  0  0  0  0  0  0
   14.6610   10.4462    5.0813 O   0  0  0  0  0  0  0  0  0  0  0  0
   15.7350   11.9867    3.5178 C   0  0  0  0  0  0  0  0  0  0  0  0
   15.0143   13.1041    4.0209 N   0  0  0  0  0  0  0  0  0  0  0  0
   17.5853    5.3390    6.6933 C   0  0  2  0  0  0  0  0  0  0  0  0
   18.7679    4.8593    7.4192 N   0  0  0  0  0  0  0  0  0  0  0  0
   18.0489    6.3345    5.4989 C   0  0  0  0  0  0  0  0  0  0  0  0
   16.7690    6.8600    4.7289 C   0  0  2  0  0  0  0  0  0  0  0  0
   17.1426    7.7902    3.6487 N   0  0  0  0  0  0  0  0  0  0  0  0
   15.8156    7.5847    5.7380 C   0  0  2  0  0  0  0  0  0  0  0  0
   15.3999    6.6223    6.8994 C   0  0  2  0  0  0  0  0  0  0  0  0
   14.5383    7.3870    7.7780 O   0  0  0  0  0  0  0  0  0  0  0  0
   16.6726    6.1192    7.6535 C   0  0  1  0  0  0  0  0  0  0  0  0
   16.2749    5.2586    8.6668 O   0  0  0  0  0  0  0  0  0  0  0  0
   13.4576    6.9016    8.4360 C   0  0  1  0  0  0  0  0  0  0  0  0
   13.1345    7.7625    9.6850 C   0  0  2  0  0  0  0  0  0  0  0  0
   13.8862    7.4042   10.8081 O   0  0  0  0  0  0  0  0  0  0  0  0
   11.6284    7.5814    9.7266 C   0  0  1  0  0  0  0  0  0  0  0  0
   11.1452    7.5596    8.2696 C   0  0  2  0  0  0  0  0  0  0  0  0
   12.2323    6.8677    7.6555 O   0  0  0  0  0  0  0  0  0  0  0  0
   10.9045    8.9634    7.6170 C   0  0  0  0  0  0  0  0  0  0  0  0
   12.1346    9.7231    7.7540 O   0  0  0  0  0  0  0  0  0  0  0  0
   10.1270    5.6642   10.1642 C   0  0  2  0  0  0  0  0  0  0  0  0
   11.3518    6.2957   10.4190 O   0  0  0  0  0  0  0  0  0  0  0  0
    8.9178    6.4573   10.8265 C   0  0  1  0  0  0  0  0  0  0  0  0
    9.4668    1.8945   12.4992 N   0  0  0  0  0  0  0  0  0  0  0  0
    7.5679    5.6323   10.4893 C   0  0  1  0  0  0  0  0  0  0  0  0
    7.4400    5.5337    8.9822 O   0  0  0  0  0  0  0  0  0  0  0  0
    7.6473    4.1526   11.1456 C   0  0  2  0  0  0  0  0  0  0  0  0
    7.7593    4.2732   12.5840 O   0  0  0  0  0  0  0  0  0  0  0  0
    8.9184    3.3854   10.4708 C   0  0  1  0  0  0  0  0  0  0  0  0
   10.1651    4.1984   10.6875 O   0  0  0  0  0  0  0  0  0  0  0  0
    9.1166    1.9395   11.0463 C   0  0  0  0  0  0  0  0  0  0  0  0
    9.1559    6.6215   12.2986 N   0  0  0  0  0  0  0  0  0  0  0  0
  1  2  1  6  0  0  0
  1  3  1  0  0  0  0
  1 10  1  0  0  0  0
  3  4  1  6  0  0  0
  3  5  1  0  0  0  0
  5  6  1  6  0  0  0
  5  7  1  0  0  0  0
  7  8  1  6  0  0  0
  7  9  1  0  0  0  0
  9 10  1  0  0  0  0
  9 11  1  1  0  0  0
 11 12  1  0  0  0  0
 13 14  1  1  0  0  0
 13 15  1  0  0  0  0
 13 21  1  0  0  0  0
 16 15  1  0  0  0  0
 16 17  1  6  0  0  0
 18  2  1  6  0  0  0
 18 16  1  0  0  0  0
 19 18  1  0  0  0  0
 19 20  1  1  0  0  0
 21 19  1  0  0  0  0
 21 22  1  1  0  0  0
 23 20  1  6  0  0  0
 23 24  1  0  0  0  0
 23 28  1  0  0  0  0
 24 25  1  1  0  0  0
 24 26  1  0  0  0  0
 26 27  1  0  0  0  0
 26 32  1  6  0  0  0
 27 28  1  0  0  0  0
 27 29  1  6  0  0  0
 29 30  1  0  0  0  0
 31 32  1  1  0  0  0
 31 40  1  0  0  0  0
 33 31  1  0  0  0  0
 33 42  1  1  0  0  0
 35 33  1  0  0  0  0
 35 36  1  6  0  0  0
 37 35  1  0  0  0  0
 37 38  1  1  0  0  0
 37 39  1  0  0  0  0
 39 40  1  0  0  0  0
 39 41  1  1  0  0  0
 41 34  1  0  0  0  0
M  END
>  <CHROM.1>
-165.51250695,61.91811295,-150.42479957,143.51796206,156.46976314,-156.93356894
55.10418464,-71.13569898,-64.48183090,12.79991535,7.23422232,7.45611592,0.92450296
0.23423465,-0.79621616

>  <Name>
2et4_lig

>  <RI>
0

>  <Rbt.Current_Directory>
/home/itssahil/PROJECTS/Mol_Feturizer/New_Systems/rnas/2et4

>  <Rbt.Executable>
rbdock ($Id: //depot/dev/client3/rdock/2013.1/src/exe/rbdock.cxx#4 $)

>  <Rbt.Library>
libRbt.so (2013.1, Build901 2013/11/27)

>  <Rbt.Parameter_File>
/export/apps/rDock/src/rDock_2013.1_src/data/scripts/dock_solv.prm

>  <Rbt.Receptor>
prm/pocket_docking_2.prm

>  <SCORE>
-8.40672

>  <SCORE.INTER>
-7.22341

>  <SCORE.INTER.CONST>
1

>  <SCORE.INTER.POLAR>
-0.916515

>  <SCORE.INTER.ROT>
9

>  <SCORE.INTER.SOLV>
20.415

>  <SCORE.INTER.VDW>
-18.1656

>  <SCORE.INTER.norm>
-0.171986

>  <SCORE.INTRA>
-1.26887

>  <SCORE.INTRA.DIHEDRAL>
-6.74195

>  <SCORE.INTRA.DIHEDRAL.0>
21.6909

>  <SCORE.INTRA.POLAR>
0

>  <SCORE.INTRA.POLAR.0>
0

>  <SCORE.INTRA.REPUL>
0

>  <SCORE.INTRA.REPUL.0>
0

>  <SCORE.INTRA.SOLV>
3.51571

>  <SCORE.INTRA.SOLV.lig_0>
-116.606

>  <SCORE.INTRA.VDW>
0.344249

>  <SCORE.INTRA.VDW.0>
-6.01229

>  <SCORE.INTRA.norm>
-0.0302111

>  <SCORE.RESTR>
0.0855561

>  <SCORE.RESTR.CAVITY>
0.0855561

>  <SCORE.RESTR.norm>
0.00203705

>  <SCORE.SYSTEM>
0

>  <SCORE.SYSTEM.CONST>
0

>  <SCORE.SYSTEM.DIHEDRAL>
0

>  <SCORE.SYSTEM.SOLV>
0

>  <SCORE.SYSTEM.norm>
0

>  <SCORE.heavy>
42

>  <SCORE.norm>
-0.20016

>  <RMSD>
1.832

$$$$
2et4_lig
 OpenBabel11021811423D
libRbt.so/2013.1/901 2013/11/27
 42 45  0  0  0  0  0  0  0  0999 V2000
   14.6296    9.3723    4.2248 C   0  0  2  0  0  0  0  0  0  0  0  0
   14.9512    7.9932    4.4164 O   0  0  0  0  0  0  0  0  0  0  0  0
   13.6469    9.7736    5.3543 C   0  0  2  0  0  0  0  0  0  0  0  0
   14.2156    9.5320    6.6558 N   0  0  0  0  0  0  0  0  0  0  0  0
   12.3118    8.9950    5.1737 C   0  0  1  0  0  0  0  0  0  0  0  0
   11.4245    9.3697    6.1808 O   0  0  0  0  0  0  0  0  0  0  0  0
   11.7533    9.3063    3.7450 C   0  0  2  0  0  0  0  0  0  0  0  0
   10.5418    8.6124    3.5346 O   0  0  0  0  0  0  0  0  0  0  0  0
   12.7798    8.8958    2.6461 C   0  0  2  0  0  0  0  0  0  0  0  0
   14.0046    9.5938    2.8900 O   0  0  0  0  0  0  0  0  0  0  0  0
   12.2720    9.2309    1.2055 C   0  0  0  0  0  0  0  0  0  0  0  0
   12.3900   10.6150    0.9033 N   0  0  0  0  0  0  0  0  0  0  0  0
   17.6483    5.3486    6.5108 C   0  0  2  0  0  0  0  0  0  0  0  0
   18.6894    4.8871    7.4375 N   0  0  0  0  0  0  0  0  0  0  0  0
   18.2797    6.4326    5.4820 C   0  0  0  0  0  0  0  0  0  0  0  0
   17.1495    6.9374    4.4945 C   0  0  2  0  0  0  0  0  0  0  0  0
   17.6742    7.9454    3.5562 N   0  0  0  0  0  0  0  0  0  0  0  0
   15.9726    7.5550    5.3228 C   0  0  2  0  0  0  0  0  0  0  0  0
   15.3927    6.5081    6.3306 C   0  0  2  0  0  0  0  0  0  0  0  0
   14.3291    7.1776    7.0515 O   0  0  0  0  0  0  0  0  0  0  0  0
   16.5177    6.0263    7.3020 C   0  0  1  0  0  0  0  0  0  0  0  0
   15.9786    5.0903    8.1732 O   0  0  0  0  0  0  0  0  0  0  0  0
   13.7217    6.7095    8.1687 C   0  0  1  0  0  0  0  0  0  0  0  0
   13.2445    7.8762    9.0723 C   0  0  2  0  0  0  0  0  0  0  0  0
   14.2487    8.3654    9.9133 O   0  0  0  0  0  0  0  0  0  0  0  0
   12.0247    7.2229    9.6954 C   0  0  1  0  0  0  0  0  0  0  0  0
   11.3763    6.3630    8.6013 C   0  0  2  0  0  0  0  0  0  0  0  0
   12.5435    5.8939    7.9267 O   0  0  0  0  0  0  0  0  0  0  0  0
   10.4078    7.1220    7.6314 C   0  0  0  0  0  0  0  0  0  0  0  0
    9.5126    7.9216    8.4489 O   0  0  0  0  0  0  0  0  0  0  0  0
   11.5304    5.8868   11.7182 C   0  0  2  0  0  0  0  0  0  0  0  0
   12.4945    6.3984   10.8392 O   0  0  0  0  0  0  0  0  0  0  0  0
   12.1800    4.8895   12.7734 C   0  0  1  0  0  0  0  0  0  0  0  0
    7.5697    4.8361    9.8238 N   0  0  0  0  0  0  0  0  0  0  0  0
   10.9811    4.3477   13.7146 C   0  0  1  0  0  0  0  0  0  0  0  0
   10.3239    5.5431   14.3753 O   0  0  0  0  0  0  0  0  0  0  0  0
    9.9016    3.5351   12.8197 C   0  0  2  0  0  0  0  0  0  0  0  0
   10.5502    2.3945   12.2076 O   0  0  0  0  0  0  0  0  0  0  0  0
    9.2863    4.5785   11.7278 C   0  0  1  0  0  0  0  0  0  0  0  0
   10.4057    5.1694   10.9155 O   0  0  0  0  0  0  0  0  0  0  0  0
    8.2380    3.8994   10.7785 C   0  0  0  0  0  0  0  0  0  0  0  0
   12.9111    3.7910   12.0596 N   0  0  0  0  0  0  0  0  0  0  0  0
  1  2  1  1  0  0  0
  1  3  1  0  0  0  0
  1 10  1  0  0  0  0
  3  4  1  1  0  0  0
  3  5  1  0  0  0  0
  5  6  1  1  0  0  0
  5  7  1  0  0  0  0
  7  8  1  6  0  0  0
  7  9  1  0  0  0  0
  9 10  1  0  0  0  0
  9 11  1  6  0  0  0
 11 12  1  0  0  0  0
 13 14  1  1  0  0  0
 13 15  1  0  0  0  0
 13 21  1  0  0  0  0
 16 15  1  0  0  0  0
 16 17  1  6  0  0  0
 18  2  1  6  0  0  0
 18 16  1  0  0  0  0
 19 18  1  0  0  0  0
 19 20  1  1  0  0  0
 21 19  1  0  0  0  0
 21 22  1  1  0  0  0
 23 20  1  6  0  0  0
 23 24  1  0  0  0  0
 23 28  1  0  0  0  0
 24 25  1  1  0  0  0
 24 26  1  0  0  0  0
 26 27  1  0  0  0  0
 26 32  1  1  0  0  0
 27 28  1  0  0  0  0
 27 29  1  6  0  0  0
 29 30  1  0  0  0  0
 31 32  1  6  0  0  0
 31 40  1  0  0  0  0
 33 31  1  0  0  0  0
 33 42  1  6  0  0  0
 35 33  1  0  0  0  0
 35 36  1  6  0  0  0
 37 35  1  0  0  0  0
 37 38  1  6  0  0  0
 37 39  1  0  0  0  0
 39 40  1  0  0  0  0
 39 41  1  6  0  0  0
 41 34  1  0  0  0  0
M  END
>  <CHROM.1>
-83.64237262,76.84786316,-112.51841160,-167.89350161,149.52351081,168.84263442
-47.81784629,173.07999674,175.73640877,12.96592068,6.85729740,7.67977208
1.14398202,0.18025358,-1.04626409

>  <Name>
2et4_lig

>  <RI>
0

>  <Rbt.Current_Directory>
/home/itssahil/PROJECTS/Mol_Feturizer/New_Systems/rnas/2et4

>  <Rbt.Executable>
rbdock ($Id: //depot/dev/client3/rdock/2013.1/src/exe/rbdock.cxx#4 $)

>  <Rbt.Library>
libRbt.so (2013.1, Build901 2013/11/27)

>  <Rbt.Parameter_File>
/export/apps/rDock/src/rDock_2013.1_src/data/scripts/dock_solv.prm

>  <Rbt.Receptor>
prm/pocket_docking_2.prm

>  <SCORE>
-3.55679

>  <SCORE.INTER>
-4.41975

>  <SCORE.INTER.CONST>
1

>  <SCORE.INTER.POLAR>
-1.07284

>  <SCORE.INTER.ROT>
9

>  <SCORE.INTER.SOLV>
22.8785

>  <SCORE.INTER.VDW>
-16.5965

>  <SCORE.INTER.norm>
-0.105232

>  <SCORE.INTRA>
0.605445

>  <SCORE.INTRA.DIHEDRAL>
-5.46148

>  <SCORE.INTRA.DIHEDRAL.0>
21.6909

>  <SCORE.INTRA.POLAR>
0

>  <SCORE.INTRA.POLAR.0>
0

>  <SCORE.INTRA.REPUL>
0

>  <SCORE.INTRA.REPUL.0>
0

>  <SCORE.INTRA.SOLV>
2.83248

>  <SCORE.INTRA.SOLV.lig_0>
-116.606

>  <SCORE.INTRA.VDW>
1.91994

>  <SCORE.INTRA.VDW.0>
-6.01229

>  <SCORE.INTRA.norm>
0.0144154

>  <SCORE.RESTR>
0.257519

>  <SCORE.RESTR.CAVITY>
0.257519

>  <SCORE.RESTR.norm>
0.00613141

>  <SCORE.SYSTEM>
0

>  <SCORE.SYSTEM.CONST>
0

>  <SCORE.SYSTEM.DIHEDRAL>
0

>  <SCORE.SYSTEM.SOLV>
0

>  <SCORE.SYSTEM.norm>
0

>  <SCORE.heavy>
42

>  <SCORE.norm>
-0.0846854

>  <RMSD>
1.862

$$$$
2et4_lig
 OpenBabel11021811423D
libRbt.so/2013.1/901 2013/11/27
 42 45  0  0  0  0  0  0  0  0999 V2000
   13.6655    9.3429    5.3688 C   0  0  2  0  0  0  0  0  0  0  0  0
   14.5127    8.3180    4.8453 O   0  0  0  0  0  0  0  0  0  0  0  0
   12.2624    9.1406    4.7419 C   0  0  2  0  0  0  0  0  0  0  0  0
   11.7468    7.8248    5.0217 N   0  0  0  0  0  0  0  0  0  0  0  0
   12.3435    9.3956    3.2090 C   0  0  1  0  0  0  0  0  0  0  0  0
   11.0778    9.2290    2.6505 O   0  0  0  0  0  0  0  0  0  0  0  0
   12.9069   10.8382    2.9822 C   0  0  2  0  0  0  0  0  0  0  0  0
   13.0044   11.1104    1.6002 O   0  0  0  0  0  0  0  0  0  0  0  0
   14.3119   10.9952    3.6387 C   0  0  2  0  0  0  0  0  0  0  0  0
   14.1943   10.6953    5.0326 O   0  0  0  0  0  0  0  0  0  0  0  0
   14.8885   12.4386    3.4675 C   0  0  0  0  0  0  0  0  0  0  0  0
   16.2890   12.4890    3.7069 N   0  0  0  0  0  0  0  0  0  0  0  0
   18.1608    6.2194    5.8157 C   0  0  2  0  0  0  0  0  0  0  0  0
   19.5146    5.9628    6.3226 N   0  0  0  0  0  0  0  0  0  0  0  0
   18.2178    7.3729    4.6762 C   0  0  0  0  0  0  0  0  0  0  0  0
   16.7537    7.6555    4.1436 C   0  0  2  0  0  0  0  0  0  0  0  0
   16.7550    8.7179    3.1222 N   0  0  0  0  0  0  0  0  0  0  0  0
   15.8376    8.0806    5.3405 C   0  0  2  0  0  0  0  0  0  0  0  0
   15.8149    6.9720    6.4444 C   0  0  2  0  0  0  0  0  0  0  0  0
   14.9590    7.4652    7.5042 O   0  0  0  0  0  0  0  0  0  0  0  0
   17.2650    6.7107    6.9645 C   0  0  1  0  0  0  0  0  0  0  0  0
   17.2156    5.7154    7.9302 O   0  0  0  0  0  0  0  0  0  0  0  0
   14.5270    6.7421    8.5657 C   0  0  1  0  0  0  0  0  0  0  0  0
   13.5794    7.5817    9.4616 C   0  0  2  0  0  0  0  0  0  0  0  0
   14.2614    8.3846   10.3809 O   0  0  0  0  0  0  0  0  0  0  0  0
   12.6859    6.4718    9.9838 C   0  0  1  0  0  0  0  0  0  0  0  0
   12.4903    5.4807    8.8278 C   0  0  2  0  0  0  0  0  0  0  0  0
   13.7825    5.5418    8.2241 O   0  0  0  0  0  0  0  0  0  0  0  0
   11.3544    5.8440    7.8117 C   0  0  0  0  0  0  0  0  0  0  0  0
   10.1268    6.0035    8.5711 O   0  0  0  0  0  0  0  0  0  0  0  0
   12.5991    5.4044   12.2142 C   0  0  2  0  0  0  0  0  0  0  0  0
   13.3812    5.8437   11.1374 O   0  0  0  0  0  0  0  0  0  0  0  0
   11.7712    4.1005   11.8344 C   0  0  1  0  0  0  0  0  0  0  0  0
    8.9214    7.8779   13.0792 N   0  0  0  0  0  0  0  0  0  0  0  0
   10.8953    3.6993   13.1338 C   0  0  1  0  0  0  0  0  0  0  0  0
   11.8474    3.4652   14.2897 O   0  0  0  0  0  0  0  0  0  0  0  0
    9.8594    4.8934   13.4908 C   0  0  2  0  0  0  0  0  0  0  0  0
    8.9561    5.0913   12.3768 O   0  0  0  0  0  0  0  0  0  0  0  0
   10.7423    6.2202   13.8372 C   0  0  1  0  0  0  0  0  0  0  0  0
   11.6394    6.5411   12.6735 O   0  0  0  0  0  0  0  0  0  0  0  0
    9.8453    7.4613   14.1784 C   0  0  0  0  0  0  0  0  0  0  0  0
   10.9342    4.3598   10.6167 N   0  0  0  0  0  0  0  0  0  0  0  0
  1  2  1  6  0  0  0
  1  3  1  0  0  0  0
  1 10  1  0  0  0  0
  3  4  1  6  0  0  0
  3  5  1  0  0  0  0
  5  6  1  1  0  0  0
  5  7  1  0  0  0  0
  7  8  1  6  0  0  0
  7  9  1  0  0  0  0
  9 10  1  0  0  0  0
  9 11  1  1  0  0  0
 11 12  1  0  0  0  0
 13 14  1  1  0  0  0
 13 15  1  0  0  0  0
 13 21  1  0  0  0  0
 16 15  1  0  0  0  0
 16 17  1  6  0  0  0
 18  2  1  6  0  0  0
 18 16  1  0  0  0  0
 19 18  1  0  0  0  0
 19 20  1  1  0  0  0
 21 19  1  0  0  0  0
 21 22  1  1  0  0  0
 23 20  1  6  0  0  0
 23 24  1  0  0  0  0
 23 28  1  0  0  0  0
 24 25  1  1  0  0  0
 24 26  1  0  0  0  0
 26 27  1  0  0  0  0
 26 32  1  1  0  0  0
 27 28  1  0  0  0  0
 27 29  1  6  0  0  0
 29 30  1  0  0  0  0
 31 32  1  6  0  0  0
 31 40  1  0  0  0  0
 33 31  1  0  0  0  0
 33 42  1  6  0  0  0
 35 33  1  0  0  0  0
 35 36  1  1  0  0  0
 37 35  1  0  0  0  0
 37 38  1  6  0  0  0
 37 39  1  0  0  0  0
 39 40  1  0  0  0  0
 39 41  1  6  0  0  0
 41 34  1  0  0  0  0
M  END
>  <CHROM.1>
-171.30098613,-162.96916118,-144.37339731,170.66275580,-177.56114126,143.95630198
-55.64410160,72.12482140,-59.97612679,13.44891920,7.37257587,7.85450406,1.14856973
0.30741294,-0.99037588

>  <Name>
2et4_lig

>  <RI>
0

>  <Rbt.Current_Directory>
/home/itssahil/PROJECTS/Mol_Feturizer/New_Systems/rnas/2et4

>  <Rbt.Executable>
rbdock ($Id: //depot/dev/client3/rdock/2013.1/src/exe/rbdock.cxx#4 $)

>  <Rbt.Library>
libRbt.so (2013.1, Build901 2013/11/27)

>  <Rbt.Parameter_File>
/export/apps/rDock/src/rDock_2013.1_src/data/scripts/dock_solv.prm

>  <Rbt.Receptor>
prm/pocket_docking_3.prm

>  <SCORE>
-20.3667

>  <SCORE.INTER>
-19.4822

>  <SCORE.INTER.CONST>
1

>  <SCORE.INTER.POLAR>
-1.74114

>  <SCORE.INTER.ROT>
9

>  <SCORE.INTER.SOLV>
20.9705

>  <SCORE.INTER.VDW>
-23.7745

>  <SCORE.INTER.norm>
-0.463861

>  <SCORE.INTRA>
-1.22926

>  <SCORE.INTRA.DIHEDRAL>
-9.6487

>  <SCORE.INTRA.DIHEDRAL.0>
21.6909

>  <SCORE.INTRA.POLAR>
0

>  <SCORE.INTRA.POLAR.0>
0

>  <SCORE.INTRA.REPUL>
0.0283754

>  <SCORE.INTRA.REPUL.0>
0

>  <SCORE.INTRA.SOLV>
3.31438

>  <SCORE.INTRA.SOLV.lig_0>
-116.606

>  <SCORE.INTRA.VDW>
1.79602

>  <SCORE.INTRA.VDW.0>
-6.01229

>  <SCORE.INTRA.norm>
-0.0292681

>  <SCORE.RESTR>
0.344717

>  <SCORE.RESTR.CAVITY>
0.344717

>  <SCORE.RESTR.norm>
0.00820754

>  <SCORE.SYSTEM>
0

>  <SCORE.SYSTEM.CONST>
0

>  <SCORE.SYSTEM.DIHEDRAL>
0

>  <SCORE.SYSTEM.SOLV>
0

>  <SCORE.SYSTEM.norm>
0

>  <SCORE.heavy>
42

>  <SCORE.norm>
-0.484922

>  <RMSD>
1.921

$$$$
2et4_lig
 OpenBabel11021811423D
libRbt.so/2013.1/901 2013/11/27
 42 45  0  0  0  0  0  0  0  0999 V2000
   13.3789    9.5889    5.0242 C   0  0  2  0  0  0  0  0  0  0  0  0
   14.3751    8.5918    4.7884 O   0  0  0  0  0  0  0  0  0  0  0  0
   12.3253    9.4583    3.8949 C   0  0  2  0  0  0  0  0  0  0  0  0
   11.7589    8.1341    3.8556 N   0  0  0  0  0  0  0  0  0  0  0  0
   12.9834    9.8261    2.5337 C   0  0  1  0  0  0  0  0  0  0  0  0
   12.0299    9.7234    1.5227 O   0  0  0  0  0  0  0  0  0  0  0  0
   13.5719   11.2718    2.6496 C   0  0  2  0  0  0  0  0  0  0  0  0
   14.1873   11.6451    1.4350 O   0  0  0  0  0  0  0  0  0  0  0  0
   14.6167   11.3550    3.8035 C   0  0  2  0  0  0  0  0  0  0  0  0
   13.9785   10.9535    5.0193 O   0  0  0  0  0  0  0  0  0  0  0  0
   15.1962   12.7972    3.9758 C   0  0  0  0  0  0  0  0  0  0  0  0
   15.9967   13.1897    2.8684 N   0  0  0  0  0  0  0  0  0  0  0  0
   16.6468    6.1327    7.5173 C   0  0  2  0  0  0  0  0  0  0  0  0
   17.6366    5.7423    8.5290 N   0  0  0  0  0  0  0  0  0  0  0  0
   17.4076    6.7498    6.2240 C   0  0  0  0  0  0  0  0  0  0  0  0
   16.3350    7.1822    5.1425 C   0  0  2  0  0  0  0  0  0  0  0  0
   16.9823    7.7735    3.9580 N   0  0  0  0  0  0  0  0  0  0  0  0
   15.3488    8.2218    5.7743 C   0  0  2  0  0  0  0  0  0  0  0  0
   14.6442    7.6238    7.0367 C   0  0  2  0  0  0  0  0  0  0  0  0
   13.7723    8.6607    7.5503 O   0  0  0  0  0  0  0  0  0  0  0  0
   15.7150    7.2097    8.0965 C   0  0  1  0  0  0  0  0  0  0  0  0
   15.0631    6.6710    9.1967 O   0  0  0  0  0  0  0  0  0  0  0  0
   12.7763    8.4751    8.4502 C   0  0  1  0  0  0  0  0  0  0  0  0
   11.8802    9.7366    8.5555 C   0  0  2  0  0  0  0  0  0  0  0  0
   12.3901   10.7006    9.4305 O   0  0  0  0  0  0  0  0  0  0  0  0
   10.5577    9.0725    8.8916 C   0  0  1  0  0  0  0  0  0  0  0  0
   10.5017    7.7663    8.0869 C   0  0  2  0  0  0  0  0  0  0  0  0
   11.8741    7.3777    8.1443 O   0  0  0  0  0  0  0  0  0  0  0  0
    9.9961    7.9039    6.6104 C   0  0  0  0  0  0  0  0  0  0  0  0
    8.5983    8.2942    6.6643 O   0  0  0  0  0  0  0  0  0  0  0  0
    9.3622    8.3259   10.9250 C   0  0  2  0  0  0  0  0  0  0  0  0
   10.5440    8.8195   10.3560 O   0  0  0  0  0  0  0  0  0  0  0  0
    9.4397    8.3276   12.5136 C   0  0  1  0  0  0  0  0  0  0  0  0
    7.6608    4.7745    8.7932 N   0  0  0  0  0  0  0  0  0  0  0  0
    8.0418    7.7220   13.0575 C   0  0  1  0  0  0  0  0  0  0  0  0
    6.9160    8.5897   12.5313 O   0  0  0  0  0  0  0  0  0  0  0  0
    7.8643    6.1958   12.5422 C   0  0  2  0  0  0  0  0  0  0  0  0
    8.9447    5.3862   13.0650 O   0  0  0  0  0  0  0  0  0  0  0  0
    7.8269    6.2307   10.9122 C   0  0  1  0  0  0  0  0  0  0  0  0
    9.0775    6.8889   10.3978 O   0  0  0  0  0  0  0  0  0  0  0  0
    7.6812    4.7987   10.2880 C   0  0  0  0  0  0  0  0  0  0  0  0
   10.6372    7.5478   12.9705 N   0  0  0  0  0  0  0  0  0  0  0  0
  1  2  1  6  0  0  0
  1  3  1  0  0  0  0
  1 10  1  0  0  0  0
  3  4  1  6  0  0  0
  3  5  1  0  0  0  0
  5  6  1  6  0  0  0
  5  7  1  0  0  0  0
  7  8  1  6  0  0  0
  7  9  1  0  0  0  0
  9 10  1  0  0  0  0
  9 11  1  1  0  0  0
 11 12  1  0  0  0  0
 13 14  1  1  0  0  0
 13 15  1  0  0  0  0
 13 21  1  0  0  0  0
 16 15  1  0  0  0  0
 16 17  1  6  0  0  0
 18  2  1  6  0  0  0
 18 16  1  0  0  0  0
 19 18  1  0  0  0  0
 19 20  1  1  0  0  0
 21 19  1  0  0  0  0
 21 22  1  1  0  0  0
 23 20  1  6  0  0  0
 23 24  1  0  0  0  0
 23 28  1  0  0  0  0
 24 25  1  1  0  0  0
 24 26  1  0  0  0  0
 26 27  1  0  0  0  0
 26 32  1  1  0  0  0
 27 28  1  0  0  0  0
 27 29  1  6  0  0  0
 29 30  1  0  0  0  0
 31 32  1  6  0  0  0
 31 40  1  0  0  0  0
 33 31  1  0  0  0  0
 33 42  1  6  0  0  0
 35 33  1  0  0  0  0
 35 36  1  6  0  0  0
 37 35  1  0  0  0  0
 37 38  1  6  0  0  0
 37 39  1  0  0  0  0
 39 40  1  0  0  0  0
 39 41  1  6  0  0  0
 41 34  1  0  0  0  0
M  END
>  <CHROM.1>
-166.28175668,-67.52271033,-176.04848953,165.02896778,-168.76583313,173.95726363
-66.60025065,-171.09048197,-179.20464426,12.27071734,8.37807203,7.47044847
0.90331139,0.23518008,-1.02020123

>  <Name>
2et4_lig

>  <RI>
3.65815e+07

>  <Rbt.Current_Directory>
/home/itssahil/PROJECTS/Mol_Feturizer/New_Systems/rnas/2et4

>  <Rbt.Executable>
rbdock ($Id: //depot/dev/client3/rdock/2013.1/src/exe/rbdock.cxx#4 $)

>  <Rbt.Library>
libRbt.so (2013.1, Build901 2013/11/27)

>  <Rbt.Parameter_File>
/export/apps/rDock/src/rDock_2013.1_src/data/scripts/dock_solv.prm

>  <Rbt.Receptor>
prm/pocket_docking_4.prm

>  <SCORE>
-26.3897

>  <SCORE.INTER>
-17.2582

>  <SCORE.INTER.CONST>
1

>  <SCORE.INTER.POLAR>
-0.914092

>  <SCORE.INTER.ROT>
9

>  <SCORE.INTER.SOLV>
18.971

>  <SCORE.INTER.VDW>
-24.3822

>  <SCORE.INTER.norm>
-0.410909

>  <SCORE.INTRA>
-9.13154

>  <SCORE.INTRA.DIHEDRAL>
-17.9661

>  <SCORE.INTRA.DIHEDRAL.0>
21.6909

>  <SCORE.INTRA.POLAR>
0

>  <SCORE.INTRA.POLAR.0>
0

>  <SCORE.INTRA.REPUL>
0

>  <SCORE.INTRA.REPUL.0>
0

>  <SCORE.INTRA.SOLV>
-2.79326

>  <SCORE.INTRA.SOLV.lig_0>
-116.606

>  <SCORE.INTRA.VDW>
1.24813

>  <SCORE.INTRA.VDW.0>
-6.01229

>  <SCORE.INTRA.norm>
-0.217418

>  <SCORE.RESTR>
0

>  <SCORE.RESTR.CAVITY>
0

>  <SCORE.RESTR.norm>
0

>  <SCORE.SYSTEM>
0

>  <SCORE.SYSTEM.CONST>
0

>  <SCORE.SYSTEM.DIHEDRAL>
0

>  <SCORE.SYSTEM.SOLV>
0

>  <SCORE.SYSTEM.norm>
0

>  <SCORE.heavy>
42

>  <SCORE.norm>
-0.628327

>  <RMSD>
1.959

$$$$
2et4_lig
 OpenBabel11021811423D
libRbt.so/2013.1/901 2013/11/27
 42 45  0  0  0  0  0  0  0  0999 V2000
   13.8544    9.2128    5.1346 C   0  0  2  0  0  0  0  0  0  0  0  0
   14.7607    8.1970    4.6999 O   0  0  0  0  0  0  0  0  0  0  0  0
   12.5862    9.1028    4.2502 C   0  0  2  0  0  0  0  0  0  0  0  0
   11.9993    7.7897    4.3346 N   0  0  0  0  0  0  0  0  0  0  0  0
   12.9529    9.4585    2.7804 C   0  0  1  0  0  0  0  0  0  0  0  0
   11.8080    9.3745    1.9906 O   0  0  0  0  0  0  0  0  0  0  0  0
   13.5798   10.8926    2.7659 C   0  0  2  0  0  0  0  0  0  0  0  0
   13.9353   11.2546    1.4483 O   0  0  0  0  0  0  0  0  0  0  0  0
   14.8435   10.9554    3.6764 C   0  0  2  0  0  0  0  0  0  0  0  0
   14.4654   10.5657    4.9999 O   0  0  0  0  0  0  0  0  0  0  0  0
   15.4732   12.3862    3.7189 C   0  0  0  0  0  0  0  0  0  0  0  0
   14.7569   13.2624    4.5792 N   0  0  0  0  0  0  0  0  0  0  0  0
   17.8453    5.8373    6.5899 C   0  0  2  0  0  0  0  0  0  0  0  0
   19.0722    5.4970    7.3209 N   0  0  0  0  0  0  0  0  0  0  0  0
   18.2256    6.6660    5.2479 C   0  0  0  0  0  0  0  0  0  0  0  0
   16.8981    7.0426    4.4713 C   0  0  2  0  0  0  0  0  0  0  0  0
   17.1956    7.8205    3.2555 N   0  0  0  0  0  0  0  0  0  0  0  0
   15.9640    7.8768    5.4116 C   0  0  2  0  0  0  0  0  0  0  0  0
   15.6291    7.0775    6.7141 C   0  0  2  0  0  0  0  0  0  0  0  0
   14.7799    7.9353    7.5155 O   0  0  0  0  0  0  0  0  0  0  0  0
   16.9480    6.7206    7.4722 C   0  0  1  0  0  0  0  0  0  0  0  0
   16.6214    6.0015    8.6131 O   0  0  0  0  0  0  0  0  0  0  0  0
   13.8572    7.5106    8.4125 C   0  0  1  0  0  0  0  0  0  0  0  0
   13.2980    8.6979    9.2390 C   0  0  2  0  0  0  0  0  0  0  0  0
   14.1007    9.0305   10.3344 O   0  0  0  0  0  0  0  0  0  0  0  0
   11.8937    8.1818    9.4932 C   0  0  1  0  0  0  0  0  0  0  0  0
   11.4559    7.4454    8.2193 C   0  0  2  0  0  0  0  0  0  0  0  0
   12.6970    6.8565    7.8313 O   0  0  0  0  0  0  0  0  0  0  0  0
   10.8607    8.3501    7.0871 C   0  0  0  0  0  0  0  0  0  0  0  0
    9.6576    8.9702    7.6137 O   0  0  0  0  0  0  0  0  0  0  0  0
   10.8184    6.5125   10.9692 C   0  0  2  0  0  0  0  0  0  0  0  0
   11.9582    7.2686   10.6640 O   0  0  0  0  0  0  0  0  0  0  0  0
    9.5675    7.4472   11.2717 C   0  0  1  0  0  0  0  0  0  0  0  0
   10.5838    4.5833   15.1222 N   0  0  0  0  0  0  0  0  0  0  0  0
    8.3249    6.4756   11.6303 C   0  0  1  0  0  0  0  0  0  0  0  0
    8.0892    5.5564   10.4484 O   0  0  0  0  0  0  0  0  0  0  0  0
    8.6666    5.6101   12.9572 C   0  0  2  0  0  0  0  0  0  0  0  0
    8.8779    6.5088   14.0725 O   0  0  0  0  0  0  0  0  0  0  0  0
    9.9739    4.6947   12.6214 C   0  0  1  0  0  0  0  0  0  0  0  0
   11.1064    5.5825   12.1841 O   0  0  0  0  0  0  0  0  0  0  0  0
   10.4213    3.8218   13.8458 C   0  0  0  0  0  0  0  0  0  0  0  0
    9.8999    8.4099   12.3733 N   0  0  0  0  0  0  0  0  0  0  0  0
  1  2  1  6  0  0  0
  1  3  1  0  0  0  0
  1 10  1  0  0  0  0
  3  4  1  6  0  0  0
  3  5  1  0  0  0  0
  5  6  1  6  0  0  0
  5  7  1  0  0  0  0
  7  8  1  6  0  0  0
  7  9  1  0  0  0  0
  9 10  1  0  0  0  0
  9 11  1  1  0  0  0
 11 12  1  0  0  0  0
 13 14  1  1  0  0  0
 13 15  1  0  0  0  0
 13 21  1  0  0  0  0
 16 15  1  0  0  0  0
 16 17  1  6  0  0  0
 18  2  1  6  0  0  0
 18 16  1  0  0  0  0
 19 18  1  0  0  0  0
 19 20  1  1  0  0  0
 21 19  1  0  0  0  0
 21 22  1  1  0  0  0
 23 20  1  6  0  0  0
 23 24  1  0  0  0  0
 23 28  1  0  0  0  0
 24 25  1  1  0  0  0
 24 26  1  0  0  0  0
 26 27  1  0  0  0  0
 26 32  1  1  0  0  0
 27 28  1  0  0  0  0
 27 29  1  6  0  0  0
 29 30  1  0  0  0  0
 31 32  1  1  0  0  0
 31 40  1  0  0  0  0
 33 31  1  0  0  0  0
 33 42  1  1  0  0  0
 35 33  1  0  0  0  0
 35 36  1  6  0  0  0
 37 35  1  0  0  0  0
 37 38  1  1  0  0  0
 37 39  1  0  0  0  0
 39 40  1  0  0  0  0
 39 41  1  1  0  0  0
 41 34  1  0  0  0  0
M  END
>  <CHROM.1>
-171.05552830,78.32985662,-163.94465144,152.42527424,171.10400985,-170.71686309
-62.43909225,-59.67021493,-50.82145563,13.07752321,7.82789260,7.71096681
1.02147964,0.32052289,-0.99762893

>  <Name>
2et4_lig

>  <RI>
0

>  <Rbt.Current_Directory>
/home/itssahil/PROJECTS/Mol_Feturizer/New_Systems/rnas/2et4

>  <Rbt.Executable>
rbdock ($Id: //depot/dev/client3/rdock/2013.1/src/exe/rbdock.cxx#4 $)

>  <Rbt.Library>
libRbt.so (2013.1, Build901 2013/11/27)

>  <Rbt.Parameter_File>
/export/apps/rDock/src/rDock_2013.1_src/data/scripts/dock_solv.prm

>  <Rbt.Receptor>
prm/pocket_docking_3.prm

>  <SCORE>
-19.158

>  <SCORE.INTER>
-12.9236

>  <SCORE.INTER.CONST>
1

>  <SCORE.INTER.POLAR>
-1.64094

>  <SCORE.INTER.ROT>
9

>  <SCORE.INTER.SOLV>
27.0517

>  <SCORE.INTER.VDW>
-21.7632

>  <SCORE.INTER.norm>
-0.307706

>  <SCORE.INTRA>
-6.23439

>  <SCORE.INTRA.DIHEDRAL>
-14.5449

>  <SCORE.INTRA.DIHEDRAL.0>
21.6909

>  <SCORE.INTRA.POLAR>
0

>  <SCORE.INTRA.POLAR.0>
0

>  <SCORE.INTRA.REPUL>
0

>  <SCORE.INTRA.REPUL.0>
0

>  <SCORE.INTRA.SOLV>
0.00332597

>  <SCORE.INTRA.SOLV.lig_0>
-116.606

>  <SCORE.INTRA.VDW>
1.03639

>  <SCORE.INTRA.VDW.0>
-6.01229

>  <SCORE.INTRA.norm>
-0.148438

>  <SCORE.RESTR>
0

>  <SCORE.RESTR.CAVITY>
0

>  <SCORE.RESTR.norm>
0

>  <SCORE.SYSTEM>
0

>  <SCORE.SYSTEM.CONST>
0

>  <SCORE.SYSTEM.DIHEDRAL>
0

>  <SCORE.SYSTEM.SOLV>
0

>  <SCORE.SYSTEM.norm>
0

>  <SCORE.heavy>
42

>  <SCORE.norm>
-0.456144

>  <RMSD>
1.984

$$$$
2et4_lig
 OpenBabel11021811423D
libRbt.so/2013.1/901 2013/11/27
 42 45  0  0  0  0  0  0  0  0999 V2000
   13.4421    9.5999    5.0237 C   0  0  2  0  0  0  0  0  0  0  0  0
   14.4372    8.6043    4.7774 O   0  0  0  0  0  0  0  0  0  0  0  0
   12.3684    9.4569    3.9149 C   0  0  2  0  0  0  0  0  0  0  0  0
   11.8060    8.1307    3.8962 N   0  0  0  0  0  0  0  0  0  0  0  0
   13.0003    9.8164    2.5391 C   0  0  1  0  0  0  0  0  0  0  0  0
   12.0289    9.7027    1.5465 O   0  0  0  0  0  0  0  0  0  0  0  0
   13.5858   11.2649    2.6331 C   0  0  2  0  0  0  0  0  0  0  0  0
   14.1776   11.6308    1.4045 O   0  0  0  0  0  0  0  0  0  0  0  0
   14.6512   11.3605    3.7670 C   0  0  2  0  0  0  0  0  0  0  0  0
   14.0368   10.9663    4.9974 O   0  0  0  0  0  0  0  0  0  0  0  0
   15.2288   12.8059    3.9175 C   0  0  0  0  0  0  0  0  0  0  0  0
   16.0326   13.1810    2.8066 N   0  0  0  0  0  0  0  0  0  0  0  0
   16.6523    6.1089    7.5199 C   0  0  2  0  0  0  0  0  0  0  0  0
   17.6357    5.7008    8.5309 N   0  0  0  0  0  0  0  0  0  0  0  0
   17.4238    6.6916    6.2170 C   0  0  0  0  0  0  0  0  0  0  0  0
   16.3583    7.1435    5.1363 C   0  0  2  0  0  0  0  0  0  0  0  0
   17.0161    7.7045    3.9429 N   0  0  0  0  0  0  0  0  0  0  0  0
   15.4050    8.2167    5.7624 C   0  0  2  0  0  0  0  0  0  0  0  0
   14.6901    7.6512    7.0340 C   0  0  2  0  0  0  0  0  0  0  0  0
   13.8504    8.7173    7.5413 O   0  0  0  0  0  0  0  0  0  0  0  0
   15.7542    7.2175    8.0928 C   0  0  1  0  0  0  0  0  0  0  0  0
   15.0928    6.7083    9.2013 O   0  0  0  0  0  0  0  0  0  0  0  0
   12.8506    8.5680    8.4437 C   0  0  1  0  0  0  0  0  0  0  0  0
   11.9922    9.8561    8.5406 C   0  0  2  0  0  0  0  0  0  0  0  0
   12.5315   10.8112    9.4077 O   0  0  0  0  0  0  0  0  0  0  0  0
   10.6512    9.2339    8.8831 C   0  0  1  0  0  0  0  0  0  0  0  0
   10.5556    7.9239    8.0884 C   0  0  2  0  0  0  0  0  0  0  0  0
   11.9160    7.4954    8.1472 O   0  0  0  0  0  0  0  0  0  0  0  0
   10.0523    8.0653    6.6115 C   0  0  0  0  0  0  0  0  0  0  0  0
    9.7669    6.7289    6.1198 O   0  0  0  0  0  0  0  0  0  0  0  0
    9.4361    8.5410   10.9239 C   0  0  2  0  0  0  0  0  0  0  0  0
   10.6321    8.9923   10.3494 O   0  0  0  0  0  0  0  0  0  0  0  0
    9.4768    8.6542   12.5099 C   0  0  1  0  0  0  0  0  0  0  0  0
    7.7212    4.8552    9.0075 N   0  0  0  0  0  0  0  0  0  0  0  0
    8.0651    8.0895   13.0622 C   0  0  1  0  0  0  0  0  0  0  0  0
    6.9540    8.9192   12.4503 O   0  0  0  0  0  0  0  0  0  0  0  0
    7.8956    6.5311   12.6513 C   0  0  2  0  0  0  0  0  0  0  0  0
    8.9616    5.7592   13.2546 O   0  0  0  0  0  0  0  0  0  0  0  0
    7.8961    6.4515   11.0223 C   0  0  1  0  0  0  0  0  0  0  0  0
    9.1600    7.0709   10.4923 O   0  0  0  0  0  0  0  0  0  0  0  0
    7.7613    4.9794   10.4970 C   0  0  0  0  0  0  0  0  0  0  0  0
   10.6614    7.9072   13.0481 N   0  0  0  0  0  0  0  0  0  0  0  0
  1  2  1  6  0  0  0
  1  3  1  0  0  0  0
  1 10  1  0  0  0  0
  3  4  1  6  0  0  0
  3  5  1  0  0  0  0
  5  6  1  6  0  0  0
  5  7  1  0  0  0  0
  7  8  1  6  0  0  0
  7  9  1  0  0  0  0
  9 10  1  0  0  0  0
  9 11  1  1  0  0  0
 11 12  1  0  0  0  0
 13 14  1  1  0  0  0
 13 15  1  0  0  0  0
 13 21  1  0  0  0  0
 16 15  1  0  0  0  0
 16 17  1  6  0  0  0
 18  2  1  6  0  0  0
 18 16  1  0  0  0  0
 19 18  1  0  0  0  0
 19 20  1  1  0  0  0
 21 19  1  0  0  0  0
 21 22  1  1  0  0  0
 23 20  1  6  0  0  0
 23 24  1  0  0  0  0
 23 28  1  0  0  0  0
 24 25  1  1  0  0  0
 24 26  1  0  0  0  0
 26 27  1  0  0  0  0
 26 32  1  1  0  0  0
 27 28  1  0  0  0  0
 27 29  1  6  0  0  0
 29 30  1  0  0  0  0
 31 32  1  6  0  0  0
 31 40  1  0  0  0  0
 33 31  1  0  0  0  0
 33 42  1  1  0  0  0
 35 33  1  0  0  0  0
 35 36  1  6  0  0  0
 37 35  1  0  0  0  0
 37 38  1  1  0  0  0
 37 39  1  0  0  0  0
 39 40  1  0  0  0  0
 39 41  1  1  0  0  0
 41 34  1  0  0  0  0
M  END
>  <CHROM.1>
-164.35846971,-68.86915714,-178.21272183,164.75088346,-168.72954861,173.81614177
-168.50901504,-166.85276768,178.50115070,12.34792538,8.43008911,7.47192456
0.90192911,0.27343813,-1.02445838

>  <Name>
2et4_lig

>  <RI>
3.65815e+07

>  <Rbt.Current_Directory>
/home/itssahil/PROJECTS/Mol_Feturizer/New_Systems/rnas/2et4

>  <Rbt.Executable>
rbdock ($Id: //depot/dev/client3/rdock/2013.1/src/exe/rbdock.cxx#4 $)

>  <Rbt.Library>
libRbt.so (2013.1, Build901 2013/11/27)

>  <Rbt.Parameter_File>
/export/apps/rDock/src/rDock_2013.1_src/data/scripts/dock_solv.prm

>  <Rbt.Receptor>
prm/pocket_docking_4.prm

>  <SCORE>
-25.5367

>  <SCORE.INTER>
-17.1064

>  <SCORE.INTER.CONST>
1

>  <SCORE.INTER.POLAR>
-0.943617

>  <SCORE.INTER.ROT>
9

>  <SCORE.INTER.SOLV>
18.1998

>  <SCORE.INTER.VDW>
-23.9255

>  <SCORE.INTER.norm>
-0.407295

>  <SCORE.INTRA>
-8.43035

>  <SCORE.INTRA.DIHEDRAL>
-16.9483

>  <SCORE.INTRA.DIHEDRAL.0>
21.6909

>  <SCORE.INTRA.POLAR>
0

>  <SCORE.INTRA.POLAR.0>
0

>  <SCORE.INTRA.REPUL>
0

>  <SCORE.INTRA.REPUL.0>
0

>  <SCORE.INTRA.SOLV>
-2.32169

>  <SCORE.INTRA.SOLV.lig_0>
-116.606

>  <SCORE.INTRA.VDW>
1.20462

>  <SCORE.INTRA.VDW.0>
-6.01229

>  <SCORE.INTRA.norm>
-0.200723

>  <SCORE.RESTR>
0

>  <SCORE.RESTR.CAVITY>
0

>  <SCORE.RESTR.norm>
0

>  <SCORE.SYSTEM>
0

>  <SCORE.SYSTEM.CONST>
0

>  <SCORE.SYSTEM.DIHEDRAL>
0

>  <SCORE.SYSTEM.SOLV>
0

>  <SCORE.SYSTEM.norm>
0

>  <SCORE.heavy>
42

>  <SCORE.norm>
-0.608018

>  <RMSD>
2.049

$$$$
2et4_lig
 OpenBabel11021811423D
libRbt.so/2013.1/901 2013/11/27
 42 45  0  0  0  0  0  0  0  0999 V2000
   13.8005    9.2207    5.0943 C   0  0  2  0  0  0  0  0  0  0  0  0
   14.7096    8.1792    4.7321 O   0  0  0  0  0  0  0  0  0  0  0  0
   12.5944    9.1323    4.1247 C   0  0  2  0  0  0  0  0  0  0  0  0
   11.9711    7.8345    4.1787 N   0  0  0  0  0  0  0  0  0  0  0  0
   13.0709    9.4646    2.6811 C   0  0  1  0  0  0  0  0  0  0  0  0
   11.9817    9.4003    1.8143 O   0  0  0  0  0  0  0  0  0  0  0  0
   13.7322   10.8832    2.6986 C   0  0  2  0  0  0  0  0  0  0  0  0
   14.1871   11.2236    1.4061 O   0  0  0  0  0  0  0  0  0  0  0  0
   14.9308   10.9247    3.6943 C   0  0  2  0  0  0  0  0  0  0  0  0
   14.4523   10.5572    4.9915 O   0  0  0  0  0  0  0  0  0  0  0  0
   15.5909   12.3404    3.7689 C   0  0  0  0  0  0  0  0  0  0  0  0
   14.7387   13.2982    4.3833 N   0  0  0  0  0  0  0  0  0  0  0  0
   17.4901    5.6227    6.8266 C   0  0  2  0  0  0  0  0  0  0  0  0
   18.6064    5.2039    7.6835 N   0  0  0  0  0  0  0  0  0  0  0  0
   18.0533    6.5366    5.6102 C   0  0  0  0  0  0  0  0  0  0  0  0
   16.8438    6.9972    4.6979 C   0  0  2  0  0  0  0  0  0  0  0  0
   17.3076    7.8532    3.5917 N   0  0  0  0  0  0  0  0  0  0  0  0
   15.8053    7.7825    5.5682 C   0  0  2  0  0  0  0  0  0  0  0  0
   15.2926    6.8996    6.7537 C   0  0  2  0  0  0  0  0  0  0  0  0
   14.3567    7.7164    7.4993 O   0  0  0  0  0  0  0  0  0  0  0  0
   16.4963    6.4603    7.6479 C   0  0  1  0  0  0  0  0  0  0  0  0
   16.0141    5.6688    8.6807 O   0  0  0  0  0  0  0  0  0  0  0  0
   13.0629    7.3998    7.7486 C   0  0  1  0  0  0  0  0  0  0  0  0
   12.8278    7.1755    9.2651 C   0  0  2  0  0  0  0  0  0  0  0  0
   13.1477    5.8806    9.6845 O   0  0  0  0  0  0  0  0  0  0  0  0
   11.3861    7.6389    9.3626 C   0  0  1  0  0  0  0  0  0  0  0  0
   11.2393    8.8313    8.4069 C   0  0  2  0  0  0  0  0  0  0  0  0
   12.0990    8.4108    7.3477 O   0  0  0  0  0  0  0  0  0  0  0  0
   11.6691   10.2207    8.9897 C   0  0  0  0  0  0  0  0  0  0  0  0
   13.1158   10.2100    9.1167 O   0  0  0  0  0  0  0  0  0  0  0  0
    9.9187    5.7428    9.9734 C   0  0  2  0  0  0  0  0  0  0  0  0
   10.5219    6.4990    8.9593 O   0  0  0  0  0  0  0  0  0  0  0  0
    8.9163    6.6264   10.8361 C   0  0  1  0  0  0  0  0  0  0  0  0
   12.8656    4.6504   12.9892 N   0  0  0  0  0  0  0  0  0  0  0  0
    8.3003    5.6639   11.9810 C   0  0  1  0  0  0  0  0  0  0  0  0
    7.6073    4.5022   11.2971 O   0  0  0  0  0  0  0  0  0  0  0  0
    9.4863    5.1237   12.9443 C   0  0  2  0  0  0  0  0  0  0  0  0
   10.1256    6.2496   13.5923 O   0  0  0  0  0  0  0  0  0  0  0  0
   10.5115    4.2560   12.0193 C   0  0  1  0  0  0  0  0  0  0  0  0
   11.0098    5.1123   10.8877 O   0  0  0  0  0  0  0  0  0  0  0  0
   11.7255    3.6948   12.8394 C   0  0  0  0  0  0  0  0  0  0  0  0
    9.6333    7.8207   11.3934 N   0  0  0  0  0  0  0  0  0  0  0  0
  1  2  1  6  0  0  0
  1  3  1  0  0  0  0
  1 10  1  0  0  0  0
  3  4  1  6  0  0  0
  3  5  1  0  0  0  0
  5  6  1  6  0  0  0
  5  7  1  0  0  0  0
  7  8  1  6  0  0  0
  7  9  1  0  0  0  0
  9 10  1  0  0  0  0
  9 11  1  1  0  0  0
 11 12  1  0  0  0  0
 13 14  1  1  0  0  0
 13 15  1  0  0  0  0
 13 21  1  0  0  0  0
 16 15  1  0  0  0  0
 16 17  1  6  0  0  0
 18  2  1  6  0  0  0
 18 16  1  0  0  0  0
 19 18  1  0  0  0  0
 19 20  1  1  0  0  0
 21 19  1  0  0  0  0
 21 22  1  1  0  0  0
 23 20  1  1  0  0  0
 23 24  1  0  0  0  0
 23 28  1  0  0  0  0
 24 25  1  6  0  0  0
 24 26  1  0  0  0  0
 26 27  1  0  0  0  0
 26 32  1  6  0  0  0
 27 28  1  0  0  0  0
 27 29  1  1  0  0  0
 29 30  1  0  0  0  0
 31 32  1  6  0  0  0
 31 40  1  0  0  0  0
 33 31  1  0  0  0  0
 33 42  1  1  0  0  0
 35 33  1  0  0  0  0
 35 36  1  6  0  0  0
 37 35  1  0  0  0  0
 37 38  1  6  0  0  0
 37 39  1  0  0  0  0
 39 40  1  0  0  0  0
 39 41  1  1  0  0  0
 41 34  1  0  0  0  0
M  END
>  <CHROM.1>
-167.13224689,68.78591683,-161.20776481,122.49121791,114.19722199,100.24577060
70.71526440,62.73752616,-84.89995334,13.10556102,7.64723399,7.57369231,1.05028617
0.35475199,-0.89122319

>  <Name>
2et4_lig

>  <RI>
0

>  <Rbt.Current_Directory>
/home/itssahil/PROJECTS/Mol_Feturizer/New_Systems/rnas/2et4

>  <Rbt.Executable>
rbdock ($Id: //depot/dev/client3/rdock/2013.1/src/exe/rbdock.cxx#4 $)

>  <Rbt.Library>
libRbt.so (2013.1, Build901 2013/11/27)

>  <Rbt.Parameter_File>
/export/apps/rDock/src/rDock_2013.1_src/data/scripts/dock_solv.prm

>  <Rbt.Receptor>
prm/pocket_docking_2.prm

>  <SCORE>
-3.26648

>  <SCORE.INTER>
-9.32121

>  <SCORE.INTER.CONST>
1

>  <SCORE.INTER.POLAR>
-1.45663

>  <SCORE.INTER.ROT>
9

>  <SCORE.INTER.SOLV>
23.9441

>  <SCORE.INTER.VDW>
-18.9401

>  <SCORE.INTER.norm>
-0.221934

>  <SCORE.INTRA>
4.08909

>  <SCORE.INTRA.DIHEDRAL>
3.09763

>  <SCORE.INTRA.DIHEDRAL.0>
21.6909

>  <SCORE.INTRA.POLAR>
0

>  <SCORE.INTRA.POLAR.0>
0

>  <SCORE.INTRA.REPUL>
0

>  <SCORE.INTRA.REPUL.0>
0

>  <SCORE.INTRA.SOLV>
3.64751

>  <SCORE.INTRA.SOLV.lig_0>
-116.606

>  <SCORE.INTRA.VDW>
0.716518

>  <SCORE.INTRA.VDW.0>
-6.01229

>  <SCORE.INTRA.norm>
0.0973593

>  <SCORE.RESTR>
1.96564

>  <SCORE.RESTR.CAVITY>
1.96564

>  <SCORE.RESTR.norm>
0.046801

>  <SCORE.SYSTEM>
0

>  <SCORE.SYSTEM.CONST>
0

>  <SCORE.SYSTEM.DIHEDRAL>
0

>  <SCORE.SYSTEM.SOLV>
0

>  <SCORE.SYSTEM.norm>
0

>  <SCORE.heavy>
42

>  <SCORE.norm>
-0.0777733

>  <RMSD>
2.130

$$$$
2et4_lig
 OpenBabel11021811423D
libRbt.so/2013.1/901 2013/11/27
 42 45  0  0  0  0  0  0  0  0999 V2000
   14.3943    8.9708    5.8611 C   0  0  2  0  0  0  0  0  0  0  0  0
   15.1635    7.9306    5.2539 O   0  0  0  0  0  0  0  0  0  0  0  0
   12.9287    8.7899    5.3899 C   0  0  2  0  0  0  0  0  0  0  0  0
   12.4252    7.4835    5.7296 N   0  0  0  0  0  0  0  0  0  0  0  0
   12.8482    9.0394    3.8561 C   0  0  1  0  0  0  0  0  0  0  0  0
   11.5271    8.8921    3.4380 O   0  0  0  0  0  0  0  0  0  0  0  0
   13.4069   10.4719    3.5634 C   0  0  2  0  0  0  0  0  0  0  0  0
   13.3593   10.7386    2.1777 O   0  0  0  0  0  0  0  0  0  0  0  0
   14.8769   10.6074    4.0640 C   0  0  2  0  0  0  0  0  0  0  0  0
   14.9054   10.3134    5.4638 O   0  0  0  0  0  0  0  0  0  0  0  0
   15.4548   12.0408    3.8251 C   0  0  0  0  0  0  0  0  0  0  0  0
   14.7744   13.0279    4.5891 N   0  0  0  0  0  0  0  0  0  0  0  0
   18.8946    5.8487    5.8856 C   0  0  2  0  0  0  0  0  0  0  0  0
   20.3090    5.6118    6.2003 N   0  0  0  0  0  0  0  0  0  0  0  0
   18.7821    6.8570    4.6195 C   0  0  0  0  0  0  0  0  0  0  0  0
   17.2551    7.1202    4.2938 C   0  0  2  0  0  0  0  0  0  0  0  0
   17.1054    8.0536    3.1634 N   0  0  0  0  0  0  0  0  0  0  0  0
   16.5477    7.7123    5.5594 C   0  0  2  0  0  0  0  0  0  0  0  0
   16.6889    6.7434    6.7797 C   0  0  2  0  0  0  0  0  0  0  0  0
   16.0198    7.3850    7.8931 O   0  0  0  0  0  0  0  0  0  0  0  0
   18.2003    6.5003    7.0927 C   0  0  1  0  0  0  0  0  0  0  0  0
   18.2944    5.6283    8.1681 O   0  0  0  0  0  0  0  0  0  0  0  0
   14.8031    7.0424    8.3816 C   0  0  1  0  0  0  0  0  0  0  0  0
   14.7719    5.5488    8.7983 C   0  0  2  0  0  0  0  0  0  0  0  0
   14.5035    4.6865    7.7308 O   0  0  0  0  0  0  0  0  0  0  0  0
   13.7739    5.6314    9.9384 C   0  0  1  0  0  0  0  0  0  0  0  0
   14.0437    6.9555   10.6671 C   0  0  2  0  0  0  0  0  0  0  0  0
   14.3861    7.7865    9.5581 O   0  0  0  0  0  0  0  0  0  0  0  0
   15.1847    6.9156   11.7399 C   0  0  0  0  0  0  0  0  0  0  0  0
   15.0625    8.1153   12.5492 O   0  0  0  0  0  0  0  0  0  0  0  0
   11.3160    5.7125   10.2093 C   0  0  2  0  0  0  0  0  0  0  0  0
   12.4123    5.5962    9.3440 O   0  0  0  0  0  0  0  0  0  0  0  0
   11.3517    4.5969   11.3423 C   0  0  1  0  0  0  0  0  0  0  0  0
    7.5216    6.5573    8.0654 N   0  0  0  0  0  0  0  0  0  0  0  0
   10.0382    4.8120   12.2617 C   0  0  1  0  0  0  0  0  0  0  0  0
   10.0856    6.2166   12.8296 O   0  0  0  0  0  0  0  0  0  0  0  0
    8.7009    4.6107   11.3687 C   0  0  2  0  0  0  0  0  0  0  0  0
    8.6741    3.2608   10.8460 O   0  0  0  0  0  0  0  0  0  0  0  0
    8.7186    5.7458   10.1978 C   0  0  1  0  0  0  0  0  0  0  0  0
    9.9883    5.6220    9.4012 O   0  0  0  0  0  0  0  0  0  0  0  0
    7.4772    5.6390    9.2445 C   0  0  0  0  0  0  0  0  0  0  0  0
   11.4180    3.2337   10.7193 N   0  0  0  0  0  0  0  0  0  0  0  0
  1  2  1  6  0  0  0
  1  3  1  0  0  0  0
  1 10  1  0  0  0  0
  3  4  1  6  0  0  0
  3  5  1  0  0  0  0
  5  6  1  1  0  0  0
  5  7  1  0  0  0  0
  7  8  1  6  0  0  0
  7  9  1  0  0  0  0
  9 10  1  0  0  0  0
  9 11  1  1  0  0  0
 11 12  1  0  0  0  0
 13 14  1  1  0  0  0
 13 15  1  0  0  0  0
 13 21  1  0  0  0  0
 16 15  1  0  0  0  0
 16 17  1  6  0  0  0
 18  2  1  6  0  0  0
 18 16  1  0  0  0  0
 19 18  1  0  0  0  0
 19 20  1  1  0  0  0
 21 19  1  0  0  0  0
 21 22  1  1  0  0  0
 23 20  1  1  0  0  0
 23 24  1  0  0  0  0
 23 28  1  0  0  0  0
 24 25  1  6  0  0  0
 24 26  1  0  0  0  0
 26 27  1  0  0  0  0
 26 32  1  6  0  0  0
 27 28  1  0  0  0  0
 27 29  1  1  0  0  0
 29 30  1  0  0  0  0
 31 32  1  6  0  0  0
 31 40  1  0  0  0  0
 33 31  1  0  0  0  0
 33 42  1  6  0  0  0
 35 33  1  0  0  0  0
 35 36  1  6  0  0  0
 37 35  1  0  0  0  0
 37 38  1  6  0  0  0
 37 39  1  0  0  0  0
 39 40  1  0  0  0  0
 39 41  1  6  0  0  0
 41 34  1  0  0  0  0
M  END
>  <CHROM.1>
-174.26909118,65.04579563,-149.68662010,104.24952902,56.62677495,-177.59121950
-165.39849475,-56.09810509,-173.53382437,13.75264344,7.14728589,7.59090758
0.87598885,0.11058684,-0.94643182

>  <Name>
2et4_lig

>  <RI>
0

>  <Rbt.Current_Directory>
/home/itssahil/PROJECTS/Mol_Feturizer/New_Systems/rnas/2et4

>  <Rbt.Executable>
rbdock ($Id: //depot/dev/client3/rdock/2013.1/src/exe/rbdock.cxx#4 $)

>  <Rbt.Library>
libRbt.so (2013.1, Build901 2013/11/27)

>  <Rbt.Parameter_File>
/export/apps/rDock/src/rDock_2013.1_src/data/scripts/dock_solv.prm

>  <Rbt.Receptor>
prm/pocket_docking_3.prm

>  <SCORE>
-17.4675

>  <SCORE.INTER>
-13.2318

>  <SCORE.INTER.CONST>
1

>  <SCORE.INTER.POLAR>
-1.8645

>  <SCORE.INTER.ROT>
9

>  <SCORE.INTER.SOLV>
26.1678

>  <SCORE.INTER.VDW>
-20.9288

>  <SCORE.INTER.norm>
-0.315043

>  <SCORE.INTRA>
-4.23572

>  <SCORE.INTRA.DIHEDRAL>
-10.5847

>  <SCORE.INTRA.DIHEDRAL.0>
21.6909

>  <SCORE.INTRA.POLAR>
0

>  <SCORE.INTRA.POLAR.0>
0

>  <SCORE.INTRA.REPUL>
0.110364

>  <SCORE.INTRA.REPUL.0>
0

>  <SCORE.INTRA.SOLV>
-1.33494

>  <SCORE.INTRA.SOLV.lig_0>
-116.606

>  <SCORE.INTRA.VDW>
1.17228

>  <SCORE.INTRA.VDW.0>
-6.01229

>  <SCORE.INTRA.norm>
-0.100851

>  <SCORE.RESTR>
0

>  <SCORE.RESTR.CAVITY>
0

>  <SCORE.RESTR.norm>
0

>  <SCORE.SYSTEM>
0

>  <SCORE.SYSTEM.CONST>
0

>  <SCORE.SYSTEM.DIHEDRAL>
0

>  <SCORE.SYSTEM.SOLV>
0

>  <SCORE.SYSTEM.norm>
0

>  <SCORE.heavy>
42

>  <SCORE.norm>
-0.415893

>  <RMSD>
2.137

$$$$
2et4_lig
 OpenBabel11021811423D
libRbt.so/2013.1/901 2013/11/27
 42 45  0  0  0  0  0  0  0  0999 V2000
   13.5472    9.2933    5.2900 C   0  0  2  0  0  0  0  0  0  0  0  0
   14.4155    8.2099    4.9517 O   0  0  0  0  0  0  0  0  0  0  0  0
   12.2972    9.1782    4.3807 C   0  0  2  0  0  0  0  0  0  0  0  0
   11.6480    7.9018    4.5394 N   0  0  0  0  0  0  0  0  0  0  0  0
   12.7158    9.4130    2.9005 C   0  0  1  0  0  0  0  0  0  0  0  0
   11.5877    9.3250    2.0872 O   0  0  0  0  0  0  0  0  0  0  0  0
   13.4088   10.8131    2.8043 C   0  0  2  0  0  0  0  0  0  0  0  0
   13.8128   11.0654    1.4751 O   0  0  0  0  0  0  0  0  0  0  0  0
   14.6515   10.8832    3.7427 C   0  0  2  0  0  0  0  0  0  0  0  0
   14.2235   10.6047    5.0791 O   0  0  0  0  0  0  0  0  0  0  0  0
   15.3458   12.2838    3.7037 C   0  0  0  0  0  0  0  0  0  0  0  0
   14.7221   13.2165    4.5767 N   0  0  0  0  0  0  0  0  0  0  0  0
   17.2778    5.8100    7.1202 C   0  0  2  0  0  0  0  0  0  0  0  0
   18.4535    5.4498    7.9225 N   0  0  0  0  0  0  0  0  0  0  0  0
   17.7580    6.5213    5.7433 C   0  0  0  0  0  0  0  0  0  0  0  0
   16.4859    6.9204    4.8889 C   0  0  2  0  0  0  0  0  0  0  0  0
   16.8755    7.5945    3.6378 N   0  0  0  0  0  0  0  0  0  0  0  0
   15.5696    7.8699    5.7324 C   0  0  2  0  0  0  0  0  0  0  0  0
   15.1380    7.1825    7.0699 C   0  0  2  0  0  0  0  0  0  0  0  0
   14.3130    8.1411    7.7768 O   0  0  0  0  0  0  0  0  0  0  0  0
   16.4034    6.8023    7.9040 C   0  0  1  0  0  0  0  0  0  0  0  0
   15.9911    6.1833    9.0755 O   0  0  0  0  0  0  0  0  0  0  0  0
   13.4931    7.8555    8.8172 C   0  0  1  0  0  0  0  0  0  0  0  0
   13.2002    9.1249    9.6587 C   0  0  2  0  0  0  0  0  0  0  0  0
   14.1898    9.3940   10.6091 O   0  0  0  0  0  0  0  0  0  0  0  0
   11.8009    8.7858   10.1380 C   0  0  1  0  0  0  0  0  0  0  0  0
   11.0979    8.0676    8.9775 C   0  0  2  0  0  0  0  0  0  0  0  0
   12.1932    7.3251    8.4421 O   0  0  0  0  0  0  0  0  0  0  0  0
   10.4452    9.0011    7.9018 C   0  0  0  0  0  0  0  0  0  0  0  0
    9.6403    8.1635    7.0302 O   0  0  0  0  0  0  0  0  0  0  0  0
   10.7639    7.4320   11.9306 C   0  0  2  0  0  0  0  0  0  0  0  0
   11.9370    7.9074   11.3291 O   0  0  0  0  0  0  0  0  0  0  0  0
   10.0462    8.5698   12.7792 C   0  0  1  0  0  0  0  0  0  0  0  0
   11.1421    3.3087   13.6261 N   0  0  0  0  0  0  0  0  0  0  0  0
    8.7269    7.9075   13.4406 C   0  0  1  0  0  0  0  0  0  0  0  0
    7.8520    7.3810   12.3204 O   0  0  0  0  0  0  0  0  0  0  0  0
    9.1545    6.7016   14.4352 C   0  0  2  0  0  0  0  0  0  0  0  0
    9.9804    7.2305   15.5001 O   0  0  0  0  0  0  0  0  0  0  0  0
    9.9187    5.5745   13.5377 C   0  0  1  0  0  0  0  0  0  0  0  0
   11.0881    6.2055   12.8332 O   0  0  0  0  0  0  0  0  0  0  0  0
   10.4069    4.3570   14.3983 C   0  0  0  0  0  0  0  0  0  0  0  0
   10.9971    9.1298   13.7956 N   0  0  0  0  0  0  0  0  0  0  0  0
  1  2  1  6  0  0  0
  1  3  1  0  0  0  0
  1 10  1  0  0  0  0
  3  4  1  6  0  0  0
  3  5  1  0  0  0  0
  5  6  1  6  0  0  0
  5  7  1  0  0  0  0
  7  8  1  6  0  0  0
  7  9  1  0  0  0  0
  9 10  1  0  0  0  0
  9 11  1  1  0  0  0
 11 12  1  0  0  0  0
 13 14  1  1  0  0  0
 13 15  1  0  0  0  0
 13 21  1  0  0  0  0
 16 15  1  0  0  0  0
 16 17  1  6  0  0  0
 18  2  1  6  0  0  0
 18 16  1  0  0  0  0
 19 18  1  0  0  0  0
 19 20  1  1  0  0  0
 21 19  1  0  0  0  0
 21 22  1  1  0  0  0
 23 20  1  6  0  0  0
 23 24  1  0  0  0  0
 23 28  1  0  0  0  0
 24 25  1  1  0  0  0
 24 26  1  0  0  0  0
 26 27  1  0  0  0  0
 26 32  1  1  0  0  0
 27 28  1  0  0  0  0
 27 29  1  6  0  0  0
 29 30  1  0  0  0  0
 31 32  1  1  0  0  0
 31 40  1  0  0  0  0
 33 31  1  0  0  0  0
 33 42  1  1  0  0  0
 35 33  1  0  0  0  0
 35 36  1  6  0  0  0
 37 35  1  0  0  0  0
 37 38  1  1  0  0  0
 37 39  1  0  0  0  0
 39 40  1  0  0  0  0
 39 41  1  1  0  0  0
 41 34  1  0  0  0  0
M  END
>  <CHROM.1>
-169.73141834,83.72026854,-164.78491467,164.11106950,158.14665071,-178.35804724
-170.15487247,-75.45150926,-178.68085248,12.94600540,8.10297274,8.19507800
1.09217595,0.44167604,-1.07022042

>  <Name>
2et4_lig

>  <RI>
3.65815e+07

>  <Rbt.Current_Directory>
/home/itssahil/PROJECTS/Mol_Feturizer/New_Systems/rnas/2et4

>  <Rbt.Executable>
rbdock ($Id: //depot/dev/client3/rdock/2013.1/src/exe/rbdock.cxx#4 $)

>  <Rbt.Library>
libRbt.so (2013.1, Build901 2013/11/27)

>  <Rbt.Parameter_File>
/export/apps/rDock/src/rDock_2013.1_src/data/scripts/dock_solv.prm

>  <Rbt.Receptor>
prm/pocket_docking_4.prm

>  <SCORE>
-20.7575

>  <SCORE.INTER>
-13.9253

>  <SCORE.INTER.CONST>
1

>  <SCORE.INTER.POLAR>
-1.55033

>  <SCORE.INTER.ROT>
9

>  <SCORE.INTER.SOLV>
27.5298

>  <SCORE.INTER.VDW>
-22.8924

>  <SCORE.INTER.norm>
-0.331555

>  <SCORE.INTRA>
-6.86193

>  <SCORE.INTRA.DIHEDRAL>
-13.4128

>  <SCORE.INTRA.DIHEDRAL.0>
21.6909

>  <SCORE.INTRA.POLAR>
0

>  <SCORE.INTRA.POLAR.0>
0

>  <SCORE.INTRA.REPUL>
0

>  <SCORE.INTRA.REPUL.0>
0

>  <SCORE.INTRA.SOLV>
-2.4758

>  <SCORE.INTRA.SOLV.lig_0>
-116.606

>  <SCORE.INTRA.VDW>
1.08237

>  <SCORE.INTRA.VDW.0>
-6.01229

>  <SCORE.INTRA.norm>
-0.163379

>  <SCORE.RESTR>
0.0297596

>  <SCORE.RESTR.CAVITY>
0.0297596

>  <SCORE.RESTR.norm>
0.000708561

>  <SCORE.SYSTEM>
0

>  <SCORE.SYSTEM.CONST>
0

>  <SCORE.SYSTEM.DIHEDRAL>
0

>  <SCORE.SYSTEM.SOLV>
0

>  <SCORE.SYSTEM.norm>
0

>  <SCORE.heavy>
42

>  <SCORE.norm>
-0.494226

>  <RMSD>
2.162

$$$$
2et4_lig
 OpenBabel11021811423D
libRbt.so/2013.1/901 2013/11/27
 42 45  0  0  0  0  0  0  0  0999 V2000
   13.6387    9.2709    5.3224 C   0  0  2  0  0  0  0  0  0  0  0  0
   14.5012    8.1930    4.9527 O   0  0  0  0  0  0  0  0  0  0  0  0
   12.3711    9.1663    4.4365 C   0  0  2  0  0  0  0  0  0  0  0  0
   11.7263    7.8872    4.5911 N   0  0  0  0  0  0  0  0  0  0  0  0
   12.7601    9.4210    2.9516 C   0  0  1  0  0  0  0  0  0  0  0  0
   11.6163    9.3424    2.1596 O   0  0  0  0  0  0  0  0  0  0  0  0
   13.4499   10.8231    2.8601 C   0  0  2  0  0  0  0  0  0  0  0  0
   13.8273   11.0933    1.5267 O   0  0  0  0  0  0  0  0  0  0  0  0
   14.7108   10.8822    3.7747 C   0  0  2  0  0  0  0  0  0  0  0  0
   14.3095   10.5857    5.1155 O   0  0  0  0  0  0  0  0  0  0  0  0
   15.4030   12.2840    3.7404 C   0  0  0  0  0  0  0  0  0  0  0  0
   14.7353   13.2325    4.5625 N   0  0  0  0  0  0  0  0  0  0  0  0
   17.4254    5.7763    7.0174 C   0  0  2  0  0  0  0  0  0  0  0  0
   18.6204    5.4107    7.7881 N   0  0  0  0  0  0  0  0  0  0  0  0
   17.8712    6.5149    5.6434 C   0  0  0  0  0  0  0  0  0  0  0  0
   16.5785    6.9197    4.8234 C   0  0  2  0  0  0  0  0  0  0  0  0
   16.9367    7.6184    3.5763 N   0  0  0  0  0  0  0  0  0  0  0  0
   15.6740    7.8478    5.7026 C   0  0  2  0  0  0  0  0  0  0  0  0
   15.2757    7.1340    7.0367 C   0  0  2  0  0  0  0  0  0  0  0  0
   14.4595    8.0741    7.7777 O   0  0  0  0  0  0  0  0  0  0  0  0
   16.5612    6.7485    7.8370 C   0  0  1  0  0  0  0  0  0  0  0  0
   16.1782    6.1061    9.0059 O   0  0  0  0  0  0  0  0  0  0  0  0
   13.6663    7.7651    8.8320 C   0  0  1  0  0  0  0  0  0  0  0  0
   13.3388    9.0282    9.6703 C   0  0  2  0  0  0  0  0  0  0  0  0
   14.3317    9.3400   10.6040 O   0  0  0  0  0  0  0  0  0  0  0  0
   11.9604    8.6404   10.1726 C   0  0  1  0  0  0  0  0  0  0  0  0
   11.2675    7.8891    9.0272 C   0  0  2  0  0  0  0  0  0  0  0  0
   12.3816    7.1843    8.4797 O   0  0  0  0  0  0  0  0  0  0  0  0
   10.5646    8.7907    7.9559 C   0  0  0  0  0  0  0  0  0  0  0  0
    9.8937    7.9082    7.0177 O   0  0  0  0  0  0  0  0  0  0  0  0
   11.0234    7.4989   12.1577 C   0  0  2  0  0  0  0  0  0  0  0  0
   12.1468    7.7755   11.3667 O   0  0  0  0  0  0  0  0  0  0  0  0
   10.7142    8.6929   13.1619 C   0  0  1  0  0  0  0  0  0  0  0  0
   10.7556    3.2516   13.6138 N   0  0  0  0  0  0  0  0  0  0  0  0
    9.4219    8.2581   14.0323 C   0  0  1  0  0  0  0  0  0  0  0  0
    8.2764    7.9942   13.0754 O   0  0  0  0  0  0  0  0  0  0  0  0
    9.7576    6.9245   14.8898 C   0  0  2  0  0  0  0  0  0  0  0  0
   10.8469    7.2043   15.8016 O   0  0  0  0  0  0  0  0  0  0  0  0
   10.1054    5.7353   13.8294 C   0  0  1  0  0  0  0  0  0  0  0  0
   11.2394    6.1721   12.9432 O   0  0  0  0  0  0  0  0  0  0  0  0
   10.4739    4.3880   14.5437 C   0  0  0  0  0  0  0  0  0  0  0  0
   11.9217    8.9819   14.0040 N   0  0  0  0  0  0  0  0  0  0  0  0
  1  2  1  6  0  0  0
  1  3  1  0  0  0  0
  1 10  1  0  0  0  0
  3  4  1  6  0  0  0
  3  5  1  0  0  0  0
  5  6  1  6  0  0  0
  5  7  1  0  0  0  0
  7  8  1  6  0  0  0
  7  9  1  0  0  0  0
  9 10  1  0  0  0  0
  9 11  1  1  0  0  0
 11 12  1  0  0  0  0
 13 14  1  1  0  0  0
 13 15  1  0  0  0  0
 13 21  1  0  0  0  0
 16 15  1  0  0  0  0
 16 17  1  6  0  0  0
 18  2  1  6  0  0  0
 18 16  1  0  0  0  0
 19 18  1  0  0  0  0
 19 20  1  1  0  0  0
 21 19  1  0  0  0  0
 21 22  1  1  0  0  0
 23 20  1  6  0  0  0
 23 24  1  0  0  0  0
 23 28  1  0  0  0  0
 24 25  1  1  0  0  0
 24 26  1  0  0  0  0
 26 27  1  0  0  0  0
 26 32  1  1  0  0  0
 27 28  1  0  0  0  0
 27 29  1  6  0  0  0
 29 30  1  0  0  0  0
 31 32  1  1  0  0  0
 31 40  1  0  0  0  0
 33 31  1  0  0  0  0
 33 42  1  1  0  0  0
 35 33  1  0  0  0  0
 35 36  1  6  0  0  0
 37 35  1  0  0  0  0
 37 38  1  1  0  0  0
 37 39  1  0  0  0  0
 39 40  1  0  0  0  0
 39 41  1  1  0  0  0
 41 34  1  0  0  0  0
M  END
>  <CHROM.1>
-170.01010918,79.34433523,-164.26971058,164.27216133,160.27981755,168.06361320
-176.05630376,-81.31893584,177.99135204,13.13690656,8.09426444,8.27800560
1.12534827,0.47537914,-1.09086058

>  <Name>
2et4_lig

>  <RI>
3.65815e+07

>  <Rbt.Current_Directory>
/home/itssahil/PROJECTS/Mol_Feturizer/New_Systems/rnas/2et4

>  <Rbt.Executable>
rbdock ($Id: //depot/dev/client3/rdock/2013.1/src/exe/rbdock.cxx#4 $)

>  <Rbt.Library>
libRbt.so (2013.1, Build901 2013/11/27)

>  <Rbt.Parameter_File>
/export/apps/rDock/src/rDock_2013.1_src/data/scripts/dock_solv.prm

>  <Rbt.Receptor>
prm/pocket_docking_4.prm

>  <SCORE>
-20.7205

>  <SCORE.INTER>
-14.0027

>  <SCORE.INTER.CONST>
1

>  <SCORE.INTER.POLAR>
-1.57536

>  <SCORE.INTER.ROT>
9

>  <SCORE.INTER.SOLV>
27.9248

>  <SCORE.INTER.VDW>
-22.9922

>  <SCORE.INTER.norm>
-0.333397

>  <SCORE.INTRA>
-6.71779

>  <SCORE.INTRA.DIHEDRAL>
-12.988

>  <SCORE.INTRA.DIHEDRAL.0>
21.6909

>  <SCORE.INTRA.POLAR>
0

>  <SCORE.INTRA.POLAR.0>
0

>  <SCORE.INTRA.REPUL>
0

>  <SCORE.INTRA.REPUL.0>
0

>  <SCORE.INTRA.SOLV>
-2.22836

>  <SCORE.INTRA.SOLV.lig_0>
-116.606

>  <SCORE.INTRA.VDW>
0.890386

>  <SCORE.INTRA.VDW.0>
-6.01229

>  <SCORE.INTRA.norm>
-0.159947

>  <SCORE.RESTR>
0

>  <SCORE.RESTR.CAVITY>
0

>  <SCORE.RESTR.norm>
0

>  <SCORE.SYSTEM>
0

>  <SCORE.SYSTEM.CONST>
0

>  <SCORE.SYSTEM.DIHEDRAL>
0

>  <SCORE.SYSTEM.SOLV>
0

>  <SCORE.SYSTEM.norm>
0

>  <SCORE.heavy>
42

>  <SCORE.norm>
-0.493344

>  <RMSD>
2.180

$$$$
2et4_lig
 OpenBabel11021811423D
libRbt.so/2013.1/901 2013/11/27
 42 45  0  0  0  0  0  0  0  0999 V2000
   13.7516    9.4177    5.3370 C   0  0  2  0  0  0  0  0  0  0  0  0
   14.6268    8.4018    4.8430 O   0  0  0  0  0  0  0  0  0  0  0  0
   12.3592    9.1694    4.7029 C   0  0  2  0  0  0  0  0  0  0  0  0
   11.8716    7.8482    5.0069 N   0  0  0  0  0  0  0  0  0  0  0  0
   12.4480    9.3933    3.1656 C   0  0  1  0  0  0  0  0  0  0  0  0
   11.1914    9.1853    2.6003 O   0  0  0  0  0  0  0  0  0  0  0  0
   12.9799   10.8434    2.9123 C   0  0  2  0  0  0  0  0  0  0  0  0
   13.0833   11.0880    1.5256 O   0  0  0  0  0  0  0  0  0  0  0  0
   14.3751   11.0470    3.5770 C   0  0  2  0  0  0  0  0  0  0  0  0
   14.2520   10.7745    4.9760 O   0  0  0  0  0  0  0  0  0  0  0  0
   14.9197   12.4995    3.3793 C   0  0  0  0  0  0  0  0  0  0  0  0
   16.3160   12.5881    3.6315 N   0  0  0  0  0  0  0  0  0  0  0  0
   17.8486    6.0371    6.4811 C   0  0  2  0  0  0  0  0  0  0  0  0
   19.1207    5.6951    7.1295 N   0  0  0  0  0  0  0  0  0  0  0  0
   18.1385    6.9094    5.1442 C   0  0  0  0  0  0  0  0  0  0  0  0
   16.7629    7.2875    4.4571 C   0  0  2  0  0  0  0  0  0  0  0  0
   16.9782    8.1042    3.2495 N   0  0  0  0  0  0  0  0  0  0  0  0
   15.8739    8.0801    5.4740 C   0  0  2  0  0  0  0  0  0  0  0  0
   15.6266    7.2390    6.7698 C   0  0  2  0  0  0  0  0  0  0  0  0
   14.8139    8.0603    7.6438 O   0  0  0  0  0  0  0  0  0  0  0  0
   16.9922    6.8810    7.4394 C   0  0  1  0  0  0  0  0  0  0  0  0
   16.7427    6.1247    8.5758 O   0  0  0  0  0  0  0  0  0  0  0  0
   13.7012    7.6484    8.2985 C   0  0  1  0  0  0  0  0  0  0  0  0
   14.0588    6.6426    9.4236 C   0  0  2  0  0  0  0  0  0  0  0  0
   14.1851    5.3278    8.9649 O   0  0  0  0  0  0  0  0  0  0  0  0
   12.9506    6.9689   10.4076 C   0  0  1  0  0  0  0  0  0  0  0  0
   12.7311    8.4867   10.3391 C   0  0  2  0  0  0  0  0  0  0  0  0
   12.9462    8.7082    8.9454 O   0  0  0  0  0  0  0  0  0  0  0  0
   13.6960    9.3491   11.2222 C   0  0  0  0  0  0  0  0  0  0  0  0
   14.0246   10.5448   10.4664 O   0  0  0  0  0  0  0  0  0  0  0  0
   10.8301    5.8275   10.9755 C   0  0  2  0  0  0  0  0  0  0  0  0
   11.7408    6.2167    9.9840 O   0  0  0  0  0  0  0  0  0  0  0  0
    9.7351    4.8298   10.3965 C   0  0  1  0  0  0  0  0  0  0  0  0
    9.5260    9.0293   13.9629 N   0  0  0  0  0  0  0  0  0  0  0  0
    8.7325    4.4677   11.6133 C   0  0  1  0  0  0  0  0  0  0  0  0
    9.5501    3.8471   12.7285 O   0  0  0  0  0  0  0  0  0  0  0  0
    7.9936    5.8114   12.1376 C   0  0  2  0  0  0  0  0  0  0  0  0
    7.2129    6.3794   11.0588 O   0  0  0  0  0  0  0  0  0  0  0  0
    9.1490    6.8226   12.6875 C   0  0  1  0  0  0  0  0  0  0  0  0
   10.1471    7.0829   11.5930 O   0  0  0  0  0  0  0  0  0  0  0  0
    8.5567    8.1803   13.2046 C   0  0  0  0  0  0  0  0  0  0  0  0
    9.0378    5.4559    9.2249 N   0  0  0  0  0  0  0  0  0  0  0  0
  1  2  1  6  0  0  0
  1  3  1  0  0  0  0
  1 10  1  0  0  0  0
  3  4  1  6  0  0  0
  3  5  1  0  0  0  0
  5  6  1  6  0  0  0
  5  7  1  0  0  0  0
  7  8  1  6  0  0  0
  7  9  1  0  0  0  0
  9 10  1  0  0  0  0
  9 11  1  1  0  0  0
 11 12  1  0  0  0  0
 13 14  1  1  0  0  0
 13 15  1  0  0  0  0
 13 21  1  0  0  0  0
 16 15  1  0  0  0  0
 16 17  1  6  0  0  0
 18  2  1  6  0  0  0
 18 16  1  0  0  0  0
 19 18  1  0  0  0  0
 19 20  1  1  0  0  0
 21 19  1  0  0  0  0
 21 22  1  1  0  0  0
 23 20  1  1  0  0  0
 23 24  1  0  0  0  0
 23 28  1  0  0  0  0
 24 25  1  6  0  0  0
 24 26  1  0  0  0  0
 26 27  1  0  0  0  0
 26 32  1  6  0  0  0
 27 28  1  0  0  0  0
 27 29  1  1  0  0  0
 29 30  1  0  0  0  0
 31 32  1  6  0  0  0
 31 40  1  0  0  0  0
 33 31  1  0  0  0  0
 33 42  1  6  0  0  0
 35 33  1  0  0  0  0
 35 36  1  1  0  0  0
 37 35  1  0  0  0  0
 37 38  1  6  0  0  0
 37 39  1  0  0  0  0
 39 40  1  0  0  0  0
 39 41  1  6  0  0  0
 41 34  1  0  0  0  0
M  END
>  <CHROM.1>
-162.24733525,-163.06750816,-162.08007817,132.61431533,69.44262988,150.40420686
141.72971169,-170.28159042,168.48371129,13.11315340,7.87368138,7.76539250
0.94721966,0.27792435,-0.99645115

>  <Name>
2et4_lig

>  <RI>
0

>  <Rbt.Current_Directory>
/home/itssahil/PROJECTS/Mol_Feturizer/New_Systems/rnas/2et4

>  <Rbt.Executable>
rbdock ($Id: //depot/dev/client3/rdock/2013.1/src/exe/rbdock.cxx#4 $)

>  <Rbt.Library>
libRbt.so (2013.1, Build901 2013/11/27)

>  <Rbt.Parameter_File>
/export/apps/rDock/src/rDock_2013.1_src/data/scripts/dock_solv.prm

>  <Rbt.Receptor>
prm/pocket_docking_3.prm

>  <SCORE>
-20.3759

>  <SCORE.INTER>
-18.3085

>  <SCORE.INTER.CONST>
1

>  <SCORE.INTER.POLAR>
-1.87319

>  <SCORE.INTER.ROT>
9

>  <SCORE.INTER.SOLV>
21.0369

>  <SCORE.INTER.VDW>
-22.574

>  <SCORE.INTER.norm>
-0.435916

>  <SCORE.INTRA>
-2.06738

>  <SCORE.INTRA.DIHEDRAL>
-2.69472

>  <SCORE.INTRA.DIHEDRAL.0>
21.6909

>  <SCORE.INTRA.POLAR>
0

>  <SCORE.INTRA.POLAR.0>
0

>  <SCORE.INTRA.REPUL>
0

>  <SCORE.INTRA.REPUL.0>
0

>  <SCORE.INTRA.SOLV>
-3.77809

>  <SCORE.INTRA.SOLV.lig_0>
-116.606

>  <SCORE.INTRA.VDW>
1.16902

>  <SCORE.INTRA.VDW.0>
-6.01229

>  <SCORE.INTRA.norm>
-0.0492234

>  <SCORE.RESTR>
0

>  <SCORE.RESTR.CAVITY>
0

>  <SCORE.RESTR.norm>
0

>  <SCORE.SYSTEM>
0

>  <SCORE.SYSTEM.CONST>
0

>  <SCORE.SYSTEM.DIHEDRAL>
0

>  <SCORE.SYSTEM.SOLV>
0

>  <SCORE.SYSTEM.norm>
0

>  <SCORE.heavy>
42

>  <SCORE.norm>
-0.485139

>  <RMSD>
2.240

$$$$
2et4_lig
 OpenBabel11021811423D
libRbt.so/2013.1/901 2013/11/27
 42 45  0  0  0  0  0  0  0  0999 V2000
   15.2842    8.1535    3.9925 C   0  0  2  0  0  0  0  0  0  0  0  0
   15.8510    8.5101    5.2549 O   0  0  0  0  0  0  0  0  0  0  0  0
   14.6524    9.4372    3.3962 C   0  0  2  0  0  0  0  0  0  0  0  0
   15.6264   10.4910    3.2675 N   0  0  0  0  0  0  0  0  0  0  0  0
   13.4589    9.8842    4.2889 C   0  0  1  0  0  0  0  0  0  0  0  0
   12.8827   11.0289    3.7418 O   0  0  0  0  0  0  0  0  0  0  0  0
   12.4447    8.6955    4.3810 C   0  0  2  0  0  0  0  0  0  0  0  0
   11.3453    9.0559    5.1904 O   0  0  0  0  0  0  0  0  0  0  0  0
   13.1284    7.4271    4.9755 C   0  0  2  0  0  0  0  0  0  0  0  0
   14.2500    7.0922    4.1529 O   0  0  0  0  0  0  0  0  0  0  0  0
   12.1546    6.2055    5.0439 C   0  0  0  0  0  0  0  0  0  0  0  0
   11.4941    5.9758    3.8061 N   0  0  0  0  0  0  0  0  0  0  0  0
   17.5157    4.8173    6.7538 C   0  0  2  0  0  0  0  0  0  0  0  0
   18.3548    3.8925    7.5261 N   0  0  0  0  0  0  0  0  0  0  0  0
   18.4581    5.7691    5.8383 C   0  0  0  0  0  0  0  0  0  0  0  0
   17.5488    6.7736    5.0189 C   0  0  2  0  0  0  0  0  0  0  0  0
   18.3669    7.6770    4.1905 N   0  0  0  0  0  0  0  0  0  0  0  0
   16.6794    7.6168    6.0118 C   0  0  2  0  0  0  0  0  0  0  0  0
   15.7976    6.6853    6.9077 C   0  0  2  0  0  0  0  0  0  0  0  0
   15.0498    7.5548    7.7930 O   0  0  0  0  0  0  0  0  0  0  0  0
   16.7095    5.7063    7.7148 C   0  0  1  0  0  0  0  0  0  0  0  0
   15.9012    4.8851    8.4880 O   0  0  0  0  0  0  0  0  0  0  0  0
   14.1996    7.1433    8.7647 C   0  0  1  0  0  0  0  0  0  0  0  0
   13.6046    8.3530    9.5315 C   0  0  2  0  0  0  0  0  0  0  0  0
   14.4349    8.8150   10.5572 O   0  0  0  0  0  0  0  0  0  0  0  0
   12.2501    7.7730    9.8944 C   0  0  1  0  0  0  0  0  0  0  0  0
   11.8011    6.9179    8.7011 C   0  0  2  0  0  0  0  0  0  0  0  0
   13.0579    6.3781    8.2928 O   0  0  0  0  0  0  0  0  0  0  0  0
   11.0962    7.6974    7.5391 C   0  0  0  0  0  0  0  0  0  0  0  0
   10.0416    8.5009    8.1318 O   0  0  0  0  0  0  0  0  0  0  0  0
   11.2773    6.5207   11.7936 C   0  0  2  0  0  0  0  0  0  0  0  0
   12.4283    6.9558   11.1229 O   0  0  0  0  0  0  0  0  0  0  0  0
   11.6461    5.6307   13.0591 C   0  0  1  0  0  0  0  0  0  0  0  0
    7.9999    5.2226    9.0538 N   0  0  0  0  0  0  0  0  0  0  0  0
   10.2519    5.1696   13.7375 C   0  0  1  0  0  0  0  0  0  0  0  0
    9.4753    6.4162   14.1122 O   0  0  0  0  0  0  0  0  0  0  0  0
    9.4012    4.2692   12.6925 C   0  0  2  0  0  0  0  0  0  0  0  0
   10.1588    3.0817   12.3579 O   0  0  0  0  0  0  0  0  0  0  0  0
    9.0750    5.2021   11.3951 C   0  0  1  0  0  0  0  0  0  0  0  0
   10.3624    5.7234   10.8183 O   0  0  0  0  0  0  0  0  0  0  0  0
    8.2693    4.4298   10.2925 C   0  0  0  0  0  0  0  0  0  0  0  0
   12.5085    4.4762   12.6416 N   0  0  0  0  0  0  0  0  0  0  0  0
  1  2  1  1  0  0  0
  1  3  1  0  0  0  0
  1 10  1  0  0  0  0
  3  4  1  1  0  0  0
  3  5  1  0  0  0  0
  5  6  1  6  0  0  0
  5  7  1  0  0  0  0
  7  8  1  1  0  0  0
  7  9  1  0  0  0  0
  9 10  1  0  0  0  0
  9 11  1  6  0  0  0
 11 12  1  0  0  0  0
 13 14  1  1  0  0  0
 13 15  1  0  0  0  0
 13 21  1  0  0  0  0
 16 15  1  0  0  0  0
 16 17  1  1  0  0  0
 18  2  1  6  0  0  0
 18 16  1  0  0  0  0
 19 18  1  0  0  0  0
 19 20  1  1  0  0  0
 21 19  1  0  0  0  0
 21 22  1  1  0  0  0
 23 20  1  6  0  0  0
 23 24  1  0  0  0  0
 23 28  1  0  0  0  0
 24 25  1  1  0  0  0
 24 26  1  0  0  0  0
 26 27  1  0  0  0  0
 26 32  1  1  0  0  0
 27 28  1  0  0  0  0
 27 29  1  6  0  0  0
 29 30  1  0  0  0  0
 31 32  1  6  0  0  0
 31 40  1  0  0  0  0
 33 31  1  0  0  0  0
 33 42  1  6  0  0  0
 35 33  1  0  0  0  0
 35 36  1  6  0  0  0
 37 35  1  0  0  0  0
 37 38  1  6  0  0  0
 37 39  1  0  0  0  0
 39 40  1  0  0  0  0
 39 41  1  6  0  0  0
 41 34  1  0  0  0  0
M  END
>  <CHROM.1>
-171.29705765,50.28829918,35.65158128,-177.51595451,178.71434706,168.33878595
-50.98434291,178.50420477,-177.28613371,13.21334813,6.87041273,7.92952410
0.93766023,0.23751915,-1.05958786

>  <Name>
2et4_lig

>  <RI>
0

>  <Rbt.Current_Directory>
/home/itssahil/PROJECTS/Mol_Feturizer/New_Systems/rnas/2et4

>  <Rbt.Executable>
rbdock ($Id: //depot/dev/client3/rdock/2013.1/src/exe/rbdock.cxx#4 $)

>  <Rbt.Library>
libRbt.so (2013.1, Build901 2013/11/27)

>  <Rbt.Parameter_File>
/export/apps/rDock/src/rDock_2013.1_src/data/scripts/dock_solv.prm

>  <Rbt.Receptor>
prm/pocket_docking_2.prm

>  <SCORE>
-2.39669

>  <SCORE.INTER>
3.54982

>  <SCORE.INTER.CONST>
1

>  <SCORE.INTER.POLAR>
-0.428652

>  <SCORE.INTER.ROT>
9

>  <SCORE.INTER.SOLV>
14.6994

>  <SCORE.INTER.VDW>
-10.7044

>  <SCORE.INTER.norm>
0.0845194

>  <SCORE.INTRA>
-6.72889

>  <SCORE.INTRA.DIHEDRAL>
-17.291

>  <SCORE.INTRA.DIHEDRAL.0>
21.6909

>  <SCORE.INTRA.POLAR>
0

>  <SCORE.INTRA.POLAR.0>
0

>  <SCORE.INTRA.REPUL>
0

>  <SCORE.INTRA.REPUL.0>
0

>  <SCORE.INTRA.SOLV>
-0.386103

>  <SCORE.INTRA.SOLV.lig_0>
-116.606

>  <SCORE.INTRA.VDW>
2.10964

>  <SCORE.INTRA.VDW.0>
-6.01229

>  <SCORE.INTRA.norm>
-0.160212

>  <SCORE.RESTR>
0.782383

>  <SCORE.RESTR.CAVITY>
0.782383

>  <SCORE.RESTR.norm>
0.0186282

>  <SCORE.SYSTEM>
0

>  <SCORE.SYSTEM.CONST>
0

>  <SCORE.SYSTEM.DIHEDRAL>
0

>  <SCORE.SYSTEM.SOLV>
0

>  <SCORE.SYSTEM.norm>
0

>  <SCORE.heavy>
42

>  <SCORE.norm>
-0.057064

>  <RMSD>
2.418

$$$$
2et4_lig
 OpenBabel11021811423D
libRbt.so/2013.1/901 2013/11/27
 42 45  0  0  0  0  0  0  0  0999 V2000
   13.8577    9.1691    5.3500 C   0  0  2  0  0  0  0  0  0  0  0  0
   14.7328    8.1269    4.9136 O   0  0  0  0  0  0  0  0  0  0  0  0
   12.5389    9.0239    4.5487 C   0  0  2  0  0  0  0  0  0  0  0  0
   11.9531    7.7206    4.7328 N   0  0  0  0  0  0  0  0  0  0  0  0
   12.8190    9.3041    3.0439 C   0  0  1  0  0  0  0  0  0  0  0  0
   11.6288    9.1888    2.3284 O   0  0  0  0  0  0  0  0  0  0  0  0
   13.4492   10.7315    2.9211 C   0  0  2  0  0  0  0  0  0  0  0  0
   13.7273   11.0256    1.5684 O   0  0  0  0  0  0  0  0  0  0  0  0
   14.7650   10.8308    3.7510 C   0  0  2  0  0  0  0  0  0  0  0  0
   14.4647   10.5095    5.1124 O   0  0  0  0  0  0  0  0  0  0  0  0
   15.4015   12.2577    3.6850 C   0  0  0  0  0  0  0  0  0  0  0  0
   14.7111   13.1917    4.5049 N   0  0  0  0  0  0  0  0  0  0  0  0
   17.8308    5.8141    6.8391 C   0  0  2  0  0  0  0  0  0  0  0  0
   19.0861    5.4872    7.5269 N   0  0  0  0  0  0  0  0  0  0  0  0
   18.1602    6.4954    5.4039 C   0  0  0  0  0  0  0  0  0  0  0  0
   16.8034    6.8588    4.6731 C   0  0  2  0  0  0  0  0  0  0  0  0
   17.0559    7.5052    3.3731 N   0  0  0  0  0  0  0  0  0  0  0  0
   15.9641    7.8194    5.5816 C   0  0  2  0  0  0  0  0  0  0  0  0
   15.6787    7.1615    6.9722 C   0  0  2  0  0  0  0  0  0  0  0  0
   14.9164    8.1287    7.7354 O   0  0  0  0  0  0  0  0  0  0  0  0
   17.0266    6.8164    7.6831 C   0  0  1  0  0  0  0  0  0  0  0  0
   16.7428    6.2228    8.9049 O   0  0  0  0  0  0  0  0  0  0  0  0
   13.6992    7.9091    8.2891 C   0  0  1  0  0  0  0  0  0  0  0  0
   13.7926    6.8819    9.4474 C   0  0  2  0  0  0  0  0  0  0  0  0
   13.7499    5.5549    9.0090 O   0  0  0  0  0  0  0  0  0  0  0  0
   12.6672    7.3970   10.3254 C   0  0  1  0  0  0  0  0  0  0  0  0
   12.6969    8.9289   10.2290 C   0  0  2  0  0  0  0  0  0  0  0  0
   13.0667    9.0866    8.8593 O   0  0  0  0  0  0  0  0  0  0  0  0
   13.7040    9.6466   11.1911 C   0  0  0  0  0  0  0  0  0  0  0  0
   13.3823    9.2316   12.5451 O   0  0  0  0  0  0  0  0  0  0  0  0
   11.1002    5.4970   10.0891 C   0  0  2  0  0  0  0  0  0  0  0  0
   11.3962    6.8356    9.7982 O   0  0  0  0  0  0  0  0  0  0  0  0
    9.6706    5.0847    9.5270 C   0  0  1  0  0  0  0  0  0  0  0  0
   10.0809    4.7107   14.3862 N   0  0  0  0  0  0  0  0  0  0  0  0
    9.4274    3.5389    9.9370 C   0  0  1  0  0  0  0  0  0  0  0  0
   10.5466    2.7108    9.3377 O   0  0  0  0  0  0  0  0  0  0  0  0
    9.4196    3.3909   11.5508 C   0  0  2  0  0  0  0  0  0  0  0  0
    8.3377    4.1822   12.0980 O   0  0  0  0  0  0  0  0  0  0  0  0
   10.8856    3.8572   12.0922 C   0  0  1  0  0  0  0  0  0  0  0  0
   11.1675    5.2591   11.6263 O   0  0  0  0  0  0  0  0  0  0  0  0
   10.9961    3.7812   13.6554 C   0  0  0  0  0  0  0  0  0  0  0  0
    8.6200    6.0097   10.0666 N   0  0  0  0  0  0  0  0  0  0  0  0
  1  2  1  6  0  0  0
  1  3  1  0  0  0  0
  1 10  1  0  0  0  0
  3  4  1  6  0  0  0
  3  5  1  0  0  0  0
  5  6  1  6  0  0  0
  5  7  1  0  0  0  0
  7  8  1  6  0  0  0
  7  9  1  0  0  0  0
  9 10  1  0  0  0  0
  9 11  1  1  0  0  0
 11 12  1  0  0  0  0
 13 14  1  1  0  0  0
 13 15  1  0  0  0  0
 13 21  1  0  0  0  0
 16 15  1  0  0  0  0
 16 17  1  6  0  0  0
 18  2  1  6  0  0  0
 18 16  1  0  0  0  0
 19 18  1  0  0  0  0
 19 20  1  1  0  0  0
 21 19  1  0  0  0  0
 21 22  1  1  0  0  0
 23 20  1  1  0  0  0
 23 24  1  0  0  0  0
 23 28  1  0  0  0  0
 24 25  1  6  0  0  0
 24 26  1  0  0  0  0
 26 27  1  0  0  0  0
 26 32  1  6  0  0  0
 27 28  1  0  0  0  0
 27 29  1  1  0  0  0
 29 30  1  0  0  0  0
 31 32  1  1  0  0  0
 31 40  1  0  0  0  0
 33 31  1  0  0  0  0
 33 42  1  1  0  0  0
 35 33  1  0  0  0  0
 35 36  1  6  0  0  0
 37 35  1  0  0  0  0
 37 38  1  1  0  0  0
 37 39  1  0  0  0  0
 39 40  1  0  0  0  0
 39 41  1  1  0  0  0
 41 34  1  0  0  0  0
M  END
>  <CHROM.1>
-169.96265132,76.21569871,-167.80265698,123.45615946,67.74424699,77.09615506
-56.36467676,176.58107269,-64.11936991,13.35440821,7.36216456,7.76098708
1.10180931,0.12677925,-0.94739575

>  <Name>
2et4_lig

>  <RI>
0

>  <Rbt.Current_Directory>
/home/itssahil/PROJECTS/Mol_Feturizer/New_Systems/rnas/2et4

>  <Rbt.Executable>
rbdock ($Id: //depot/dev/client3/rdock/2013.1/src/exe/rbdock.cxx#4 $)

>  <Rbt.Library>
libRbt.so (2013.1, Build901 2013/11/27)

>  <Rbt.Parameter_File>
/export/apps/rDock/src/rDock_2013.1_src/data/scripts/dock_solv.prm

>  <Rbt.Receptor>
prm/pocket_docking_3.prm

>  <SCORE>
-15.8662

>  <SCORE.INTER>
-11.3297

>  <SCORE.INTER.CONST>
1

>  <SCORE.INTER.POLAR>
-1.10991

>  <SCORE.INTER.ROT>
9

>  <SCORE.INTER.SOLV>
24.3446

>  <SCORE.INTER.VDW>
-21.5683

>  <SCORE.INTER.norm>
-0.269754

>  <SCORE.INTRA>
-4.53653

>  <SCORE.INTRA.DIHEDRAL>
-10.495

>  <SCORE.INTRA.DIHEDRAL.0>
21.6909

>  <SCORE.INTRA.POLAR>
0

>  <SCORE.INTRA.POLAR.0>
0

>  <SCORE.INTRA.REPUL>
0

>  <SCORE.INTRA.REPUL.0>
0

>  <SCORE.INTRA.SOLV>
-1.48839

>  <SCORE.INTRA.SOLV.lig_0>
-116.606

>  <SCORE.INTRA.VDW>
1.45515

>  <SCORE.INTRA.VDW.0>
-6.01229

>  <SCORE.INTRA.norm>
-0.108013

>  <SCORE.RESTR>
0

>  <SCORE.RESTR.CAVITY>
0

>  <SCORE.RESTR.norm>
0

>  <SCORE.SYSTEM>
0

>  <SCORE.SYSTEM.CONST>
0

>  <SCORE.SYSTEM.DIHEDRAL>
0

>  <SCORE.SYSTEM.SOLV>
0

>  <SCORE.SYSTEM.norm>
0

>  <SCORE.heavy>
42

>  <SCORE.norm>
-0.377766

>  <RMSD>
2.427

$$$$
2et4_lig
 OpenBabel11021811423D
libRbt.so/2013.1/901 2013/11/27
 42 45  0  0  0  0  0  0  0  0999 V2000
   13.4313    8.8256    6.6198 C   0  0  2  0  0  0  0  0  0  0  0  0
   14.1998    7.6625    6.3058 O   0  0  0  0  0  0  0  0  0  0  0  0
   12.0014    8.5910    6.0694 C   0  0  2  0  0  0  0  0  0  0  0  0
   11.4153    7.3965    6.6221 N   0  0  0  0  0  0  0  0  0  0  0  0
   12.0544    8.5212    4.5159 C   0  0  1  0  0  0  0  0  0  0  0  0
   10.7657    8.3264    4.0230 O   0  0  0  0  0  0  0  0  0  0  0  0
   12.6973    9.8472    3.9882 C   0  0  2  0  0  0  0  0  0  0  0  0
   12.7721    9.8240    2.5785 O   0  0  0  0  0  0  0  0  0  0  0  0
   14.1273   10.0435    4.5769 C   0  0  2  0  0  0  0  0  0  0  0  0
   14.0311   10.0434    6.0043 O   0  0  0  0  0  0  0  0  0  0  0  0
   14.7850   11.3809    4.1033 C   0  0  0  0  0  0  0  0  0  0  0  0
   15.1328   11.3493    2.7252 N   0  0  0  0  0  0  0  0  0  0  0  0
   17.5803    5.5310    7.9440 C   0  0  2  0  0  0  0  0  0  0  0  0
   18.9109    5.2754    8.5097 N   0  0  0  0  0  0  0  0  0  0  0  0
   17.7351    6.2056    6.4767 C   0  0  0  0  0  0  0  0  0  0  0  0
   16.2976    6.4922    5.8778 C   0  0  2  0  0  0  0  0  0  0  0  0
   16.3908    7.1303    4.5527 N   0  0  0  0  0  0  0  0  0  0  0  0
   15.5037    7.4248    6.8538 C   0  0  2  0  0  0  0  0  0  0  0  0
   15.3872    6.7750    8.2722 C   0  0  2  0  0  0  0  0  0  0  0  0
   14.6554    7.7156    9.0961 O   0  0  0  0  0  0  0  0  0  0  0  0
   16.8130    6.5060    8.8520 C   0  0  1  0  0  0  0  0  0  0  0  0
   16.6784    5.9179   10.1017 O   0  0  0  0  0  0  0  0  0  0  0  0
   13.6547    7.3970    9.9525 C   0  0  1  0  0  0  0  0  0  0  0  0
   14.2002    6.6252   11.1822 C   0  0  2  0  0  0  0  0  0  0  0  0
   14.3392    5.2532   10.9517 O   0  0  0  0  0  0  0  0  0  0  0  0
   13.2050    7.0924   12.2281 C   0  0  1  0  0  0  0  0  0  0  0  0
   12.8983    8.5648   11.9202 C   0  0  2  0  0  0  0  0  0  0  0  0
   12.9293    8.5341   10.4934 O   0  0  0  0  0  0  0  0  0  0  0  0
   13.9168    9.6029   12.5032 C   0  0  0  0  0  0  0  0  0  0  0  0
   13.5211   10.9157   12.0246 O   0  0  0  0  0  0  0  0  0  0  0  0
   11.0097    6.3522   13.0966 C   0  0  2  0  0  0  0  0  0  0  0  0
   11.9942    6.2393   12.1056 O   0  0  0  0  0  0  0  0  0  0  0  0
   10.7426    4.9556   13.8092 C   0  0  1  0  0  0  0  0  0  0  0  0
    7.5458    8.9505   11.9442 N   0  0  0  0  0  0  0  0  0  0  0  0
    9.5823    5.1986   14.9098 C   0  0  1  0  0  0  0  0  0  0  0  0
   10.0660    6.2600   15.8777 O   0  0  0  0  0  0  0  0  0  0  0  0
    8.2202    5.6832   14.1774 C   0  0  2  0  0  0  0  0  0  0  0  0
    7.7739    4.6502   13.2665 O   0  0  0  0  0  0  0  0  0  0  0  0
    8.5430    7.0956   13.4284 C   0  0  1  0  0  0  0  0  0  0  0  0
    9.6926    6.9055   12.4776 O   0  0  0  0  0  0  0  0  0  0  0  0
    7.2989    7.6595   12.6567 C   0  0  0  0  0  0  0  0  0  0  0  0
   10.3782    3.9189   12.7878 N   0  0  0  0  0  0  0  0  0  0  0  0
  1  2  1  6  0  0  0
  1  3  1  0  0  0  0
  1 10  1  0  0  0  0
  3  4  1  1  0  0  0
  3  5  1  0  0  0  0
  5  6  1  6  0  0  0
  5  7  1  0  0  0  0
  7  8  1  6  0  0  0
  7  9  1  0  0  0  0
  9 10  1  0  0  0  0
  9 11  1  6  0  0  0
 11 12  1  0  0  0  0
 13 14  1  1  0  0  0
 13 15  1  0  0  0  0
 13 21  1  0  0  0  0
 16 15  1  0  0  0  0
 16 17  1  6  0  0  0
 18  2  1  6  0  0  0
 18 16  1  0  0  0  0
 19 18  1  0  0  0  0
 19 20  1  1  0  0  0
 21 19  1  0  0  0  0
 21 22  1  1  0  0  0
 23 20  1  6  0  0  0
 23 24  1  0  0  0  0
 23 28  1  0  0  0  0
 24 25  1  6  0  0  0
 24 26  1  0  0  0  0
 26 27  1  0  0  0  0
 26 32  1  6  0  0  0
 27 28  1  0  0  0  0
 27 29  1  1  0  0  0
 29 30  1  0  0  0  0
 31 32  1  6  0  0  0
 31 40  1  0  0  0  0
 33 31  1  0  0  0  0
 33 42  1  6  0  0  0
 35 33  1  0  0  0  0
 35 36  1  1  0  0  0
 37 35  1  0  0  0  0
 37 38  1  6  0  0  0
 37 39  1  0  0  0  0
 39 40  1  0  0  0  0
 39 41  1  6  0  0  0
 41 34  1  0  0  0  0
M  END
>  <CHROM.1>
-169.19787908,-70.38998143,-154.72322181,135.91609751,70.20357717,170.86257226
175.67522156,-121.78616959,-179.60746358,12.95341582,7.50244843,9.21476782
1.03323553,0.27881692,-1.13675839

>  <Name>
2et4_lig

>  <RI>
3.65815e+07

>  <Rbt.Current_Directory>
/home/itssahil/PROJECTS/Mol_Feturizer/New_Systems/rnas/2et4

>  <Rbt.Executable>
rbdock ($Id: //depot/dev/client3/rdock/2013.1/src/exe/rbdock.cxx#4 $)

>  <Rbt.Library>
libRbt.so (2013.1, Build901 2013/11/27)

>  <Rbt.Parameter_File>
/export/apps/rDock/src/rDock_2013.1_src/data/scripts/dock_solv.prm

>  <Rbt.Receptor>
prm/pocket_docking_4.prm

>  <SCORE>
-18.8784

>  <SCORE.INTER>
-17.0976

>  <SCORE.INTER.CONST>
1

>  <SCORE.INTER.POLAR>
-1.52195

>  <SCORE.INTER.ROT>
9

>  <SCORE.INTER.SOLV>
14.8113

>  <SCORE.INTER.VDW>
-20.8624

>  <SCORE.INTER.norm>
-0.407087

>  <SCORE.INTRA>
-1.78364

>  <SCORE.INTRA.DIHEDRAL>
-3.72794

>  <SCORE.INTRA.DIHEDRAL.0>
21.6909

>  <SCORE.INTRA.POLAR>
0

>  <SCORE.INTRA.POLAR.0>
0

>  <SCORE.INTRA.REPUL>
0

>  <SCORE.INTRA.REPUL.0>
0

>  <SCORE.INTRA.SOLV>
-2.8968

>  <SCORE.INTRA.SOLV.lig_0>
-116.606

>  <SCORE.INTRA.VDW>
1.52873

>  <SCORE.INTRA.VDW.0>
-6.01229

>  <SCORE.INTRA.norm>
-0.0424676

>  <SCORE.RESTR>
0.00289281

>  <SCORE.RESTR.CAVITY>
0.00289281

>  <SCORE.RESTR.norm>
6.88763e-05

>  <SCORE.SYSTEM>
0

>  <SCORE.SYSTEM.CONST>
0

>  <SCORE.SYSTEM.DIHEDRAL>
0

>  <SCORE.SYSTEM.SOLV>
0

>  <SCORE.SYSTEM.norm>
0

>  <SCORE.heavy>
42

>  <SCORE.norm>
-0.449485

>  <RMSD>
2.489

$$$$
2et4_lig
 OpenBabel11021811423D
libRbt.so/2013.1/901 2013/11/27
 42 45  0  0  0  0  0  0  0  0999 V2000
   13.9730    9.6880    5.0730 C   0  0  2  0  0  0  0  0  0  0  0  0
   14.8377    8.6525    4.6017 O   0  0  0  0  0  0  0  0  0  0  0  0
   12.6586    9.5925    4.2571 C   0  0  2  0  0  0  0  0  0  0  0  0
   12.0545    8.2908    4.3848 N   0  0  0  0  0  0  0  0  0  0  0  0
   12.9539    9.9286    2.7668 C   0  0  1  0  0  0  0  0  0  0  0  0
   11.7679    9.8577    2.0387 O   0  0  0  0  0  0  0  0  0  0  0  0
   13.6036   11.3513    2.7055 C   0  0  2  0  0  0  0  0  0  0  0  0
   13.8959   11.6952    1.3677 O   0  0  0  0  0  0  0  0  0  0  0  0
   14.9141   11.3998    3.5482 C   0  0  2  0  0  0  0  0  0  0  0  0
   14.5991   11.0287    4.8934 O   0  0  0  0  0  0  0  0  0  0  0  0
   15.5696   12.8196    3.5437 C   0  0  0  0  0  0  0  0  0  0  0  0
   16.1528   13.1376    2.2868 N   0  0  0  0  0  0  0  0  0  0  0  0
   17.7527    6.1092    6.5223 C   0  0  2  0  0  0  0  0  0  0  0  0
   18.9627    5.6925    7.2421 N   0  0  0  0  0  0  0  0  0  0  0  0
   18.1715    6.8513    5.1417 C   0  0  0  0  0  0  0  0  0  0  0  0
   16.8635    7.3112    4.3769 C   0  0  2  0  0  0  0  0  0  0  0  0
   17.1982    8.0146    3.1259 N   0  0  0  0  0  0  0  0  0  0  0  0
   16.0254    8.2572    5.3017 C   0  0  2  0  0  0  0  0  0  0  0  0
   15.6535    7.5389    6.6410 C   0  0  2  0  0  0  0  0  0  0  0  0
   14.8987    8.4958    7.4244 O   0  0  0  0  0  0  0  0  0  0  0  0
   16.9541    7.0987    7.3866 C   0  0  1  0  0  0  0  0  0  0  0  0
   16.5937    6.4536    8.5611 O   0  0  0  0  0  0  0  0  0  0  0  0
   13.9191    8.1885    8.3088 C   0  0  1  0  0  0  0  0  0  0  0  0
   12.6119    7.7916    7.5745 C   0  0  2  0  0  0  0  0  0  0  0  0
   11.8324    8.8929    7.2076 O   0  0  0  0  0  0  0  0  0  0  0  0
   12.0524    6.8049    8.5826 C   0  0  1  0  0  0  0  0  0  0  0  0
   13.2491    6.0353    9.1591 C   0  0  2  0  0  0  0  0  0  0  0  0
   14.2235    7.0779    9.1952 O   0  0  0  0  0  0  0  0  0  0  0  0
   13.7364    4.8110    8.3116 C   0  0  0  0  0  0  0  0  0  0  0  0
   14.8548    4.2112    9.0177 O   0  0  0  0  0  0  0  0  0  0  0  0
   10.4857    6.8975   10.4952 C   0  0  2  0  0  0  0  0  0  0  0  0
   11.3440    7.5877    9.6286 O   0  0  0  0  0  0  0  0  0  0  0  0
    9.8661    7.8691   11.5915 C   0  0  1  0  0  0  0  0  0  0  0  0
   12.6672    4.2227   13.2662 N   0  0  0  0  0  0  0  0  0  0  0  0
    8.9172    6.9679   12.5423 C   0  0  1  0  0  0  0  0  0  0  0  0
    7.8559    6.3229   11.6733 O   0  0  0  0  0  0  0  0  0  0  0  0
    9.8016    5.8322   13.2869 C   0  0  2  0  0  0  0  0  0  0  0  0
   10.8004    6.4724   14.1168 O   0  0  0  0  0  0  0  0  0  0  0  0
   10.4494    4.8806   12.1317 C   0  0  1  0  0  0  0  0  0  0  0  0
   11.2494    5.7257   11.1790 O   0  0  0  0  0  0  0  0  0  0  0  0
   11.3546    3.7477   12.7304 C   0  0  0  0  0  0  0  0  0  0  0  0
   10.9639    8.5631   12.3425 N   0  0  0  0  0  0  0  0  0  0  0  0
  1  2  1  6  0  0  0
  1  3  1  0  0  0  0
  1 10  1  0  0  0  0
  3  4  1  6  0  0  0
  3  5  1  0  0  0  0
  5  6  1  6  0  0  0
  5  7  1  0  0  0  0
  7  8  1  6  0  0  0
  7  9  1  0  0  0  0
  9 10  1  0  0  0  0
  9 11  1  1  0  0  0
 11 12  1  0  0  0  0
 13 14  1  1  0  0  0
 13 15  1  0  0  0  0
 13 21  1  0  0  0  0
 16 15  1  0  0  0  0
 16 17  1  6  0  0  0
 18  2  1  6  0  0  0
 18 16  1  0  0  0  0
 19 18  1  0  0  0  0
 19 20  1  1  0  0  0
 21 19  1  0  0  0  0
 21 22  1  1  0  0  0
 23 20  1  6  0  0  0
 23 24  1  0  0  0  0
 23 28  1  0  0  0  0
 24 25  1  1  0  0  0
 24 26  1  0  0  0  0
 26 27  1  0  0  0  0
 26 32  1  1  0  0  0
 27 28  1  0  0  0  0
 27 29  1  6  0  0  0
 29 30  1  0  0  0  0
 31 32  1  6  0  0  0
 31 40  1  0  0  0  0
 33 31  1  0  0  0  0
 33 42  1  1  0  0  0
 35 33  1  0  0  0  0
 35 36  1  6  0  0  0
 37 35  1  0  0  0  0
 37 38  1  6  0  0  0
 37 39  1  0  0  0  0
 39 40  1  0  0  0  0
 39 41  1  1  0  0  0
 41 34  1  0  0  0  0
M  END
>  <CHROM.1>
-166.77393335,-71.68901585,-169.12341966,149.07182349,-75.24993047,165.50507528
-179.46957870,177.28493217,-72.87913759,13.51421717,7.81463197,7.52431889
1.10461859,0.40216255,-0.92178512

>  <Name>
2et4_lig

>  <RI>
0

>  <Rbt.Current_Directory>
/home/itssahil/PROJECTS/Mol_Feturizer/New_Systems/rnas/2et4

>  <Rbt.Executable>
rbdock ($Id: //depot/dev/client3/rdock/2013.1/src/exe/rbdock.cxx#4 $)

>  <Rbt.Library>
libRbt.so (2013.1, Build901 2013/11/27)

>  <Rbt.Parameter_File>
/export/apps/rDock/src/rDock_2013.1_src/data/scripts/dock_solv.prm

>  <Rbt.Receptor>
prm/pocket_docking_3.prm

>  <SCORE>
-19.7186

>  <SCORE.INTER>
-13.7434

>  <SCORE.INTER.CONST>
1

>  <SCORE.INTER.POLAR>
-0.916515

>  <SCORE.INTER.ROT>
9

>  <SCORE.INTER.SOLV>
20.9675

>  <SCORE.INTER.VDW>
-22.6964

>  <SCORE.INTER.norm>
-0.327223

>  <SCORE.INTRA>
-5.97524

>  <SCORE.INTRA.DIHEDRAL>
-13.1785

>  <SCORE.INTRA.DIHEDRAL.0>
21.6909

>  <SCORE.INTRA.POLAR>
0

>  <SCORE.INTRA.POLAR.0>
0

>  <SCORE.INTRA.REPUL>
0

>  <SCORE.INTRA.REPUL.0>
0

>  <SCORE.INTRA.SOLV>
0.869148

>  <SCORE.INTRA.SOLV.lig_0>
-116.606

>  <SCORE.INTRA.VDW>
0.179422

>  <SCORE.INTRA.VDW.0>
-6.01229

>  <SCORE.INTRA.norm>
-0.142268

>  <SCORE.RESTR>
0

>  <SCORE.RESTR.CAVITY>
0

>  <SCORE.RESTR.norm>
0

>  <SCORE.SYSTEM>
0

>  <SCORE.SYSTEM.CONST>
0

>  <SCORE.SYSTEM.DIHEDRAL>
0

>  <SCORE.SYSTEM.SOLV>
0

>  <SCORE.SYSTEM.norm>
0

>  <SCORE.heavy>
42

>  <SCORE.norm>
-0.469491

>  <RMSD>
2.504

$$$$
2et4_lig
 OpenBabel11021811423D
libRbt.so/2013.1/901 2013/11/27
 42 45  0  0  0  0  0  0  0  0999 V2000
   13.9454    9.6463    5.2446 C   0  0  2  0  0  0  0  0  0  0  0  0
   14.7723    8.5686    4.8008 O   0  0  0  0  0  0  0  0  0  0  0  0
   12.6096    9.5486    4.4643 C   0  0  2  0  0  0  0  0  0  0  0  0
   11.9764    8.2701    4.6647 N   0  0  0  0  0  0  0  0  0  0  0  0
   12.8772    9.8100    2.9539 C   0  0  1  0  0  0  0  0  0  0  0  0
   11.6725    9.7377    2.2573 O   0  0  0  0  0  0  0  0  0  0  0  0
   13.5606   11.2112    2.8134 C   0  0  2  0  0  0  0  0  0  0  0  0
   13.8290   11.4873    1.4550 O   0  0  0  0  0  0  0  0  0  0  0  0
   14.8919   11.2632    3.6226 C   0  0  2  0  0  0  0  0  0  0  0  0
   14.6003   10.9607    4.9902 O   0  0  0  0  0  0  0  0  0  0  0  0
   15.5823   12.6638    3.5389 C   0  0  0  0  0  0  0  0  0  0  0  0
   16.1067   12.9270    2.2440 N   0  0  0  0  0  0  0  0  0  0  0  0
   17.4494    5.9590    6.9637 C   0  0  2  0  0  0  0  0  0  0  0  0
   18.6255    5.4986    7.7124 N   0  0  0  0  0  0  0  0  0  0  0  0
   17.9114    6.4943    5.5035 C   0  0  0  0  0  0  0  0  0  0  0  0
   16.6412    7.0028    4.7063 C   0  0  2  0  0  0  0  0  0  0  0  0
   17.0185    7.5231    3.3802 N   0  0  0  0  0  0  0  0  0  0  0  0
   15.9281    8.1294    5.5277 C   0  0  2  0  0  0  0  0  0  0  0  0
   15.5142    7.6081    6.9436 C   0  0  2  0  0  0  0  0  0  0  0  0
   14.8818    8.7210    7.6224 O   0  0  0  0  0  0  0  0  0  0  0  0
   16.7787    7.1177    7.7195 C   0  0  1  0  0  0  0  0  0  0  0  0
   16.3801    6.6492    8.9634 O   0  0  0  0  0  0  0  0  0  0  0  0
   13.6368    8.7100    8.1572 C   0  0  1  0  0  0  0  0  0  0  0  0
   13.4568    7.5089    9.1219 C   0  0  2  0  0  0  0  0  0  0  0  0
   13.1045    6.3257    8.4655 O   0  0  0  0  0  0  0  0  0  0  0  0
   12.4714    8.1228   10.0990 C   0  0  1  0  0  0  0  0  0  0  0  0
   12.8712    9.5958   10.2637 C   0  0  2  0  0  0  0  0  0  0  0  0
   13.2953    9.8905    8.9329 O   0  0  0  0  0  0  0  0  0  0  0  0
   14.0020    9.8755   11.3114 C   0  0  0  0  0  0  0  0  0  0  0  0
   13.5374    9.3799   12.5950 O   0  0  0  0  0  0  0  0  0  0  0  0
   10.5497    6.6997    9.4639 C   0  0  2  0  0  0  0  0  0  0  0  0
   11.1133    7.9819    9.5121 O   0  0  0  0  0  0  0  0  0  0  0  0
    9.1082    6.7257    8.7921 C   0  0  1  0  0  0  0  0  0  0  0  0
    9.1126    5.1468   13.4210 N   0  0  0  0  0  0  0  0  0  0  0  0
    8.5489    5.2080    8.8100 C   0  0  1  0  0  0  0  0  0  0  0  0
    9.5276    4.3362    8.0485 O   0  0  0  0  0  0  0  0  0  0  0  0
    8.4062    4.6907   10.3392 C   0  0  2  0  0  0  0  0  0  0  0  0
    7.4606    5.5322   11.0419 O   0  0  0  0  0  0  0  0  0  0  0  0
    9.8949    4.7136   11.0047 C   0  0  1  0  0  0  0  0  0  0  0  0
   10.4684    6.0999   10.8983 O   0  0  0  0  0  0  0  0  0  0  0  0
    9.8851    4.2531   12.5044 C   0  0  0  0  0  0  0  0  0  0  0  0
    8.2192    7.6900    9.5205 N   0  0  0  0  0  0  0  0  0  0  0  0
  1  2  1  6  0  0  0
  1  3  1  0  0  0  0
  1 10  1  0  0  0  0
  3  4  1  6  0  0  0
  3  5  1  0  0  0  0
  5  6  1  6  0  0  0
  5  7  1  0  0  0  0
  7  8  1  6  0  0  0
  7  9  1  0  0  0  0
  9 10  1  0  0  0  0
  9 11  1  1  0  0  0
 11 12  1  0  0  0  0
 13 14  1  1  0  0  0
 13 15  1  0  0  0  0
 13 21  1  0  0  0  0
 16 15  1  0  0  0  0
 16 17  1  6  0  0  0
 18  2  1  6  0  0  0
 18 16  1  0  0  0  0
 19 18  1  0  0  0  0
 19 20  1  1  0  0  0
 21 19  1  0  0  0  0
 21 22  1  1  0  0  0
 23 20  1  1  0  0  0
 23 24  1  0  0  0  0
 23 28  1  0  0  0  0
 24 25  1  6  0  0  0
 24 26  1  0  0  0  0
 26 27  1  0  0  0  0
 26 32  1  6  0  0  0
 27 28  1  0  0  0  0
 27 29  1  1  0  0  0
 29 30  1  0  0  0  0
 31 32  1  1  0  0  0
 31 40  1  0  0  0  0
 33 31  1  0  0  0  0
 33 42  1  1  0  0  0
 35 33  1  0  0  0  0
 35 36  1  6  0  0  0
 37 35  1  0  0  0  0
 37 38  1  1  0  0  0
 37 39  1  0  0  0  0
 39 40  1  0  0  0  0
 39 41  1  1  0  0  0
 41 34  1  0  0  0  0
M  END
>  <CHROM.1>
-163.47411177,-69.87785051,-176.24851620,124.14504478,52.73828910,71.19133828
-58.88561901,-179.27498081,-63.90034309,13.12842433,7.99333296,7.40788027
0.98025687,0.04484895,-1.02168853

>  <Name>
2et4_lig

>  <RI>
0

>  <Rbt.Current_Directory>
/home/itssahil/PROJECTS/Mol_Feturizer/New_Systems/rnas/2et4

>  <Rbt.Executable>
rbdock ($Id: //depot/dev/client3/rdock/2013.1/src/exe/rbdock.cxx#4 $)

>  <Rbt.Library>
libRbt.so (2013.1, Build901 2013/11/27)

>  <Rbt.Parameter_File>
/export/apps/rDock/src/rDock_2013.1_src/data/scripts/dock_solv.prm

>  <Rbt.Receptor>
prm/pocket_docking_3.prm

>  <SCORE>
-20.2405

>  <SCORE.INTER>
-15.8918

>  <SCORE.INTER.CONST>
1

>  <SCORE.INTER.POLAR>
-1.18974

>  <SCORE.INTER.ROT>
9

>  <SCORE.INTER.SOLV>
17.3967

>  <SCORE.INTER.VDW>
-22.0276

>  <SCORE.INTER.norm>
-0.378376

>  <SCORE.INTRA>
-4.39701

>  <SCORE.INTRA.DIHEDRAL>
-11.8056

>  <SCORE.INTRA.DIHEDRAL.0>
21.6909

>  <SCORE.INTRA.POLAR>
0

>  <SCORE.INTRA.POLAR.0>
0

>  <SCORE.INTRA.REPUL>
0

>  <SCORE.INTRA.REPUL.0>
0

>  <SCORE.INTRA.SOLV>
-1.58244

>  <SCORE.INTRA.SOLV.lig_0>
-116.606

>  <SCORE.INTRA.VDW>
2.29702

>  <SCORE.INTRA.VDW.0>
-6.01229

>  <SCORE.INTRA.norm>
-0.104691

>  <SCORE.RESTR>
0.0483297

>  <SCORE.RESTR.CAVITY>
0.0483297

>  <SCORE.RESTR.norm>
0.00115071

>  <SCORE.SYSTEM>
0

>  <SCORE.SYSTEM.CONST>
0

>  <SCORE.SYSTEM.DIHEDRAL>
0

>  <SCORE.SYSTEM.SOLV>
0

>  <SCORE.SYSTEM.norm>
0

>  <SCORE.heavy>
42

>  <SCORE.norm>
-0.481916

>  <RMSD>
2.595

$$$$
2et4_lig
 OpenBabel11021811423D
libRbt.so/2013.1/901 2013/11/27
 42 45  0  0  0  0  0  0  0  0999 V2000
   13.4196    8.9237    6.2969 C   0  0  2  0  0  0  0  0  0  0  0  0
   14.1370    7.7258    5.9926 O   0  0  0  0  0  0  0  0  0  0  0  0
   12.0222    8.7994    5.6378 C   0  0  2  0  0  0  0  0  0  0  0  0
   11.3258    7.6261    6.1002 N   0  0  0  0  0  0  0  0  0  0  0  0
   12.1844    8.7805    4.0904 C   0  0  1  0  0  0  0  0  0  0  0  0
   10.9257    8.6851    3.5002 O   0  0  0  0  0  0  0  0  0  0  0  0
   12.9435   10.0806    3.6621 C   0  0  2  0  0  0  0  0  0  0  0  0
   13.1196   10.1018    2.2613 O   0  0  0  0  0  0  0  0  0  0  0  0
   14.3358   10.1653    4.3578 C   0  0  2  0  0  0  0  0  0  0  0  0
   14.1357   10.1216    5.7737 O   0  0  0  0  0  0  0  0  0  0  0  0
   15.1064   11.4739    3.9848 C   0  0  0  0  0  0  0  0  0  0  0  0
   15.4088   11.5417    2.5974 N   0  0  0  0  0  0  0  0  0  0  0  0
   17.2385    5.4668    7.9756 C   0  0  2  0  0  0  0  0  0  0  0  0
   18.5328    5.1360    8.5847 N   0  0  0  0  0  0  0  0  0  0  0  0
   17.4589    5.8732    6.4205 C   0  0  0  0  0  0  0  0  0  0  0  0
   16.0620    6.2427    5.7729 C   0  0  2  0  0  0  0  0  0  0  0  0
   16.2185    6.6441    4.3636 N   0  0  0  0  0  0  0  0  0  0  0  0
   15.4069    7.4132    6.5813 C   0  0  2  0  0  0  0  0  0  0  0  0
   15.2270    7.0182    8.0845 C   0  0  2  0  0  0  0  0  0  0  0  0
   14.6326    8.1643    8.7419 O   0  0  0  0  0  0  0  0  0  0  0  0
   16.6143    6.6644    8.7103 C   0  0  1  0  0  0  0  0  0  0  0  0
   16.4222    6.3053   10.0369 O   0  0  0  0  0  0  0  0  0  0  0  0
   13.5727    8.1238    9.5853 C   0  0  1  0  0  0  0  0  0  0  0  0
   13.9554    7.4460   10.9268 C   0  0  2  0  0  0  0  0  0  0  0  0
   13.8759    6.0508   10.8792 O   0  0  0  0  0  0  0  0  0  0  0  0
   13.0235    8.1987   11.8583 C   0  0  1  0  0  0  0  0  0  0  0  0
   12.9671    9.6469   11.3520 C   0  0  2  0  0  0  0  0  0  0  0  0
   13.0278    9.4225    9.9436 O   0  0  0  0  0  0  0  0  0  0  0  0
   14.1256   10.5799   11.8441 C   0  0  0  0  0  0  0  0  0  0  0  0
   14.4802   11.4524   10.7387 O   0  0  0  0  0  0  0  0  0  0  0  0
   10.7233    7.9201   12.7261 C   0  0  2  0  0  0  0  0  0  0  0  0
   11.6939    7.5382   11.7900 O   0  0  0  0  0  0  0  0  0  0  0  0
   10.6173    6.8664   13.9128 C   0  0  1  0  0  0  0  0  0  0  0  0
    7.0083    9.5343   10.8624 N   0  0  0  0  0  0  0  0  0  0  0  0
    9.4606    7.3935   14.9134 C   0  0  1  0  0  0  0  0  0  0  0  0
    9.8511    8.7754   15.3985 O   0  0  0  0  0  0  0  0  0  0  0  0
    8.0410    7.4508   14.1338 C   0  0  2  0  0  0  0  0  0  0  0  0
    7.6858    6.1195   13.6892 O   0  0  0  0  0  0  0  0  0  0  0  0
    8.2000    8.5106   12.9044 C   0  0  1  0  0  0  0  0  0  0  0  0
    9.3436    8.0867   12.0243 O   0  0  0  0  0  0  0  0  0  0  0  0
    6.8887    8.6373   12.0526 C   0  0  0  0  0  0  0  0  0  0  0  0
   10.3416    5.4983   13.3622 N   0  0  0  0  0  0  0  0  0  0  0  0
  1  2  1  6  0  0  0
  1  3  1  0  0  0  0
  1 10  1  0  0  0  0
  3  4  1  1  0  0  0
  3  5  1  0  0  0  0
  5  6  1  6  0  0  0
  5  7  1  0  0  0  0
  7  8  1  6  0  0  0
  7  9  1  0  0  0  0
  9 10  1  0  0  0  0
  9 11  1  1  0  0  0
 11 12  1  0  0  0  0
 13 14  1  1  0  0  0
 13 15  1  0  0  0  0
 13 21  1  0  0  0  0
 16 15  1  0  0  0  0
 16 17  1  6  0  0  0
 18  2  1  6  0  0  0
 18 16  1  0  0  0  0
 19 18  1  0  0  0  0
 19 20  1  1  0  0  0
 21 19  1  0  0  0  0
 21 22  1  1  0  0  0
 23 20  1  6  0  0  0
 23 24  1  0  0  0  0
 23 28  1  0  0  0  0
 24 25  1  6  0  0  0
 24 26  1  0  0  0  0
 26 27  1  0  0  0  0
 26 32  1  6  0  0  0
 27 28  1  0  0  0  0
 27 29  1  1  0  0  0
 29 30  1  0  0  0  0
 31 32  1  6  0  0  0
 31 40  1  0  0  0  0
 33 31  1  0  0  0  0
 33 42  1  6  0  0  0
 35 33  1  0  0  0  0
 35 36  1  6  0  0  0
 37 35  1  0  0  0  0
 37 38  1  6  0  0  0
 37 39  1  0  0  0  0
 39 40  1  0  0  0  0
 39 41  1  6  0  0  0
 41 34  1  0  0  0  0
M  END
>  <CHROM.1>
-171.81210978,-63.21533429,-165.83138231,132.81788998,69.83701072,169.87065044
142.14868958,-100.46733648,-176.44429491,12.88302449,8.16282266,8.92434925
0.96459072,0.35874913,-1.23016231

>  <Name>
2et4_lig

>  <RI>
0

>  <Rbt.Current_Directory>
/home/itssahil/PROJECTS/Mol_Feturizer/New_Systems/rnas/2et4

>  <Rbt.Executable>
rbdock ($Id: //depot/dev/client3/rdock/2013.1/src/exe/rbdock.cxx#4 $)

>  <Rbt.Library>
libRbt.so (2013.1, Build901 2013/11/27)

>  <Rbt.Parameter_File>
/export/apps/rDock/src/rDock_2013.1_src/data/scripts/dock_solv.prm

>  <Rbt.Receptor>
prm/pocket_docking_8.prm

>  <SCORE>
-23.5237

>  <SCORE.INTER>
-21.8058

>  <SCORE.INTER.CONST>
1

>  <SCORE.INTER.POLAR>
-2.25567

>  <SCORE.INTER.ROT>
9

>  <SCORE.INTER.SOLV>
18.3088

>  <SCORE.INTER.VDW>
-22.7212

>  <SCORE.INTER.norm>
-0.519186

>  <SCORE.INTRA>
-1.71785

>  <SCORE.INTRA.DIHEDRAL>
-3.75595

>  <SCORE.INTRA.DIHEDRAL.0>
21.6909

>  <SCORE.INTRA.POLAR>
0

>  <SCORE.INTRA.POLAR.0>
0

>  <SCORE.INTRA.REPUL>
0

>  <SCORE.INTRA.REPUL.0>
0

>  <SCORE.INTRA.SOLV>
-3.12677

>  <SCORE.INTRA.SOLV.lig_0>
-116.606

>  <SCORE.INTRA.VDW>
1.72351

>  <SCORE.INTRA.VDW.0>
-6.01229

>  <SCORE.INTRA.norm>
-0.0409011

>  <SCORE.RESTR>
0

>  <SCORE.RESTR.CAVITY>
0

>  <SCORE.RESTR.norm>
0

>  <SCORE.SYSTEM>
0

>  <SCORE.SYSTEM.CONST>
0

>  <SCORE.SYSTEM.DIHEDRAL>
0

>  <SCORE.SYSTEM.SOLV>
0

>  <SCORE.SYSTEM.norm>
0

>  <SCORE.heavy>
42

>  <SCORE.norm>
-0.560087

>  <RMSD>
2.603

$$$$
2et4_lig
 OpenBabel11021811423D
libRbt.so/2013.1/901 2013/11/27
 42 45  0  0  0  0  0  0  0  0999 V2000
   13.3215    8.7228    6.1074 C   0  0  2  0  0  0  0  0  0  0  0  0
   14.1333    7.6192    5.7010 O   0  0  0  0  0  0  0  0  0  0  0  0
   11.9266    8.5268    5.4603 C   0  0  2  0  0  0  0  0  0  0  0  0
   11.3441    7.2650    5.8400 N   0  0  0  0  0  0  0  0  0  0  0  0
   12.0577    8.6400    3.9140 C   0  0  1  0  0  0  0  0  0  0  0  0
   10.8000    8.4796    3.3359 O   0  0  0  0  0  0  0  0  0  0  0  0
   12.6924   10.0306    3.5772 C   0  0  2  0  0  0  0  0  0  0  0  0
   12.8369   10.1736    2.1800 O   0  0  0  0  0  0  0  0  0  0  0  0
   14.0864   10.1840    4.2578 C   0  0  2  0  0  0  0  0  0  0  0  0
   13.9202   10.0154    5.6687 O   0  0  0  0  0  0  0  0  0  0  0  0
   14.7330   11.5798    3.9768 C   0  0  0  0  0  0  0  0  0  0  0  0
   16.1481   11.5029    3.8645 N   0  0  0  0  0  0  0  0  0  0  0  0
   17.6874    5.7102    7.2434 C   0  0  2  0  0  0  0  0  0  0  0  0
   19.0711    5.5276    7.6990 N   0  0  0  0  0  0  0  0  0  0  0  0
   17.6856    6.1939    5.6948 C   0  0  0  0  0  0  0  0  0  0  0  0
   16.1916    6.4032    5.2134 C   0  0  2  0  0  0  0  0  0  0  0  0
   16.1433    6.8686    3.8160 N   0  0  0  0  0  0  0  0  0  0  0  0
   15.4885    7.4521    6.1397 C   0  0  2  0  0  0  0  0  0  0  0  0
   15.5232    6.9868    7.6330 C   0  0  2  0  0  0  0  0  0  0  0  0
   14.8664    8.0244    8.4019 O   0  0  0  0  0  0  0  0  0  0  0  0
   17.0033    6.7925    8.0946 C   0  0  1  0  0  0  0  0  0  0  0  0
   17.0023    6.3672    9.4154 O   0  0  0  0  0  0  0  0  0  0  0  0
   14.0254    7.8168    9.4439 C   0  0  1  0  0  0  0  0  0  0  0  0
   13.0221    6.6764    9.1298 C   0  0  2  0  0  0  0  0  0  0  0  0
   11.9045    7.1111    8.4108 O   0  0  0  0  0  0  0  0  0  0  0  0
   12.8214    6.1313   10.5317 C   0  0  1  0  0  0  0  0  0  0  0  0
   14.1819    6.2151   11.2378 C   0  0  2  0  0  0  0  0  0  0  0  0
   14.6755    7.4358   10.6864 O   0  0  0  0  0  0  0  0  0  0  0  0
   15.1567    5.0182   10.9698 C   0  0  0  0  0  0  0  0  0  0  0  0
   15.0829    4.7064    9.5533 O   0  0  0  0  0  0  0  0  0  0  0  0
   10.4576    6.7924   10.8430 C   0  0  2  0  0  0  0  0  0  0  0  0
   11.8000    6.9798   11.1992 O   0  0  0  0  0  0  0  0  0  0  0  0
    9.5275    7.9143   11.4803 C   0  0  1  0  0  0  0  0  0  0  0  0
    8.2104    3.4296   12.9501 N   0  0  0  0  0  0  0  0  0  0  0  0
    8.0101    7.5878   11.0245 C   0  0  1  0  0  0  0  0  0  0  0  0
    7.9630    7.5877    9.5095 O   0  0  0  0  0  0  0  0  0  0  0  0
    7.5597    6.1421   11.6019 C   0  0  2  0  0  0  0  0  0  0  0  0
    7.6038    6.1705   13.0487 O   0  0  0  0  0  0  0  0  0  0  0  0
    8.5575    5.0249   10.9570 C   0  0  1  0  0  0  0  0  0  0  0  0
    9.9819    5.3778   11.2863 O   0  0  0  0  0  0  0  0  0  0  0  0
    8.2357    3.5749   11.4623 C   0  0  0  0  0  0  0  0  0  0  0  0
    9.7023    7.9414   12.9701 N   0  0  0  0  0  0  0  0  0  0  0  0
  1  2  1  6  0  0  0
  1  3  1  0  0  0  0
  1 10  1  0  0  0  0
  3  4  1  6  0  0  0
  3  5  1  0  0  0  0
  5  6  1  6  0  0  0
  5  7  1  0  0  0  0
  7  8  1  6  0  0  0
  7  9  1  0  0  0  0
  9 10  1  0  0  0  0
  9 11  1  1  0  0  0
 11 12  1  0  0  0  0
 13 14  1  1  0  0  0
 13 15  1  0  0  0  0
 13 21  1  0  0  0  0
 16 15  1  0  0  0  0
 16 17  1  6  0  0  0
 18  2  1  6  0  0  0
 18 16  1  0  0  0  0
 19 18  1  0  0  0  0
 19 20  1  1  0  0  0
 21 19  1  0  0  0  0
 21 22  1  1  0  0  0
 23 20  1  6  0  0  0
 23 24  1  0  0  0  0
 23 28  1  0  0  0  0
 24 25  1  1  0  0  0
 24 26  1  0  0  0  0
 26 27  1  0  0  0  0
 26 32  1  1  0  0  0
 27 28  1  0  0  0  0
 27 29  1  6  0  0  0
 29 30  1  0  0  0  0
 31 32  1  1  0  0  0
 31 40  1  0  0  0  0
 33 31  1  0  0  0  0
 33 42  1  1  0  0  0
 35 33  1  0  0  0  0
 35 36  1  6  0  0  0
 37 35  1  0  0  0  0
 37 38  1  1  0  0  0
 37 39  1  0  0  0  0
 39 40  1  0  0  0  0
 39 41  1  1  0  0  0
 41 34  1  0  0  0  0
M  END
>  <CHROM.1>
-178.48219254,-145.62286235,-164.19785540,140.32555752,-43.85187433,76.22414384
42.54147575,-171.54753321,-54.02127092,12.91615541,7.25733181,8.14168489
0.86571521,0.18606340,-1.04507458

>  <Name>
2et4_lig

>  <RI>
0

>  <Rbt.Current_Directory>
/home/itssahil/PROJECTS/Mol_Feturizer/New_Systems/rnas/2et4

>  <Rbt.Executable>
rbdock ($Id: //depot/dev/client3/rdock/2013.1/src/exe/rbdock.cxx#4 $)

>  <Rbt.Library>
libRbt.so (2013.1, Build901 2013/11/27)

>  <Rbt.Parameter_File>
/export/apps/rDock/src/rDock_2013.1_src/data/scripts/dock_solv.prm

>  <Rbt.Receptor>
prm/pocket_docking_3.prm

>  <SCORE>
-14.9625

>  <SCORE.INTER>
-13.0525

>  <SCORE.INTER.CONST>
1

>  <SCORE.INTER.POLAR>
-1.84618

>  <SCORE.INTER.ROT>
9

>  <SCORE.INTER.SOLV>
15.6467

>  <SCORE.INTER.VDW>
-17.3633

>  <SCORE.INTER.norm>
-0.310774

>  <SCORE.INTRA>
-1.91985

>  <SCORE.INTRA.DIHEDRAL>
-7.84159

>  <SCORE.INTRA.DIHEDRAL.0>
21.6909

>  <SCORE.INTRA.POLAR>
0

>  <SCORE.INTRA.POLAR.0>
0

>  <SCORE.INTRA.REPUL>
0

>  <SCORE.INTRA.REPUL.0>
0

>  <SCORE.INTRA.SOLV>
0.853577

>  <SCORE.INTRA.SOLV.lig_0>
-116.606

>  <SCORE.INTRA.VDW>
1.57416

>  <SCORE.INTRA.VDW.0>
-6.01229

>  <SCORE.INTRA.norm>
-0.0457107

>  <SCORE.RESTR>
0.00982052

>  <SCORE.RESTR.CAVITY>
0.00982052

>  <SCORE.RESTR.norm>
0.000233822

>  <SCORE.SYSTEM>
0

>  <SCORE.SYSTEM.CONST>
0

>  <SCORE.SYSTEM.DIHEDRAL>
0

>  <SCORE.SYSTEM.SOLV>
0

>  <SCORE.SYSTEM.norm>
0

>  <SCORE.heavy>
42

>  <SCORE.norm>
-0.356251

>  <RMSD>
2.619

$$$$
2et4_lig
 OpenBabel11021811423D
libRbt.so/2013.1/901 2013/11/27
 42 45  0  0  0  0  0  0  0  0999 V2000
   14.4094    8.9990    5.7818 C   0  0  2  0  0  0  0  0  0  0  0  0
   15.1828    7.9603    5.1776 O   0  0  0  0  0  0  0  0  0  0  0  0
   12.9481    8.8224    5.2958 C   0  0  2  0  0  0  0  0  0  0  0  0
   12.4394    7.5153    5.6250 N   0  0  0  0  0  0  0  0  0  0  0  0
   12.8826    9.0786    3.7624 C   0  0  1  0  0  0  0  0  0  0  0  0
   11.5654    8.9351    3.3310 O   0  0  0  0  0  0  0  0  0  0  0  0
   13.4463   10.5115    3.4813 C   0  0  2  0  0  0  0  0  0  0  0  0
   13.4123   10.7843    2.0964 O   0  0  0  0  0  0  0  0  0  0  0  0
   14.9116   10.6426    3.9966 C   0  0  2  0  0  0  0  0  0  0  0  0
   14.9262   10.3424    5.3953 O   0  0  0  0  0  0  0  0  0  0  0  0
   15.4939   12.0761    3.7695 C   0  0  0  0  0  0  0  0  0  0  0  0
   14.7924   13.0643    4.5127 N   0  0  0  0  0  0  0  0  0  0  0  0
   18.8376    5.7983    5.9665 C   0  0  2  0  0  0  0  0  0  0  0  0
   20.2371    5.5330    6.3228 N   0  0  0  0  0  0  0  0  0  0  0  0
   18.7833    6.7668    4.6660 C   0  0  0  0  0  0  0  0  0  0  0  0
   17.2723    7.0611    4.2952 C   0  0  2  0  0  0  0  0  0  0  0  0
   17.1755    7.9604    3.1317 N   0  0  0  0  0  0  0  0  0  0  0  0
   16.5527    7.7140    5.5234 C   0  0  2  0  0  0  0  0  0  0  0  0
   16.6380    6.7825    6.7775 C   0  0  2  0  0  0  0  0  0  0  0  0
   15.9616    7.4788    7.8530 O   0  0  0  0  0  0  0  0  0  0  0  0
   18.1342    6.5083    7.1347 C   0  0  1  0  0  0  0  0  0  0  0  0
   18.1785    5.6701    8.2397 O   0  0  0  0  0  0  0  0  0  0  0  0
   14.7541    7.1438    8.3687 C   0  0  1  0  0  0  0  0  0  0  0  0
   14.7001    5.6346    8.7222 C   0  0  2  0  0  0  0  0  0  0  0  0
   14.3742    4.8261    7.6290 O   0  0  0  0  0  0  0  0  0  0  0  0
   13.7438    5.6909    9.8991 C   0  0  1  0  0  0  0  0  0  0  0  0
   14.0709    6.9753   10.6737 C   0  0  2  0  0  0  0  0  0  0  0  0
   14.3960    7.8455    9.5898 O   0  0  0  0  0  0  0  0  0  0  0  0
   15.2465    6.8621   11.7032 C   0  0  0  0  0  0  0  0  0  0  0  0
   16.4602    6.6004   10.9499 O   0  0  0  0  0  0  0  0  0  0  0  0
   11.3247    5.2491   10.1717 C   0  0  2  0  0  0  0  0  0  0  0  0
   12.3622    5.7133    9.3518 O   0  0  0  0  0  0  0  0  0  0  0  0
   10.4105    4.1953    9.4077 C   0  0  1  0  0  0  0  0  0  0  0  0
    7.4696    7.2009   13.0030 N   0  0  0  0  0  0  0  0  0  0  0  0
    9.2428    3.7482   10.4341 C   0  0  1  0  0  0  0  0  0  0  0  0
    9.8993    3.1596   11.6670 O   0  0  0  0  0  0  0  0  0  0  0  0
    8.3400    5.0326   10.8359 C   0  0  2  0  0  0  0  0  0  0  0  0
    7.7170    5.5703    9.6447 O   0  0  0  0  0  0  0  0  0  0  0  0
    9.3175    6.1042   11.5815 C   0  0  1  0  0  0  0  0  0  0  0  0
   10.4669    6.4473   10.6741 O   0  0  0  0  0  0  0  0  0  0  0  0
    8.5592    7.4119   12.0011 C   0  0  0  0  0  0  0  0  0  0  0  0
    9.8814    4.7980    8.1398 N   0  0  0  0  0  0  0  0  0  0  0  0
  1  2  1  6  0  0  0
  1  3  1  0  0  0  0
  1 10  1  0  0  0  0
  3  4  1  6  0  0  0
  3  5  1  0  0  0  0
  5  6  1  1  0  0  0
  5  7  1  0  0  0  0
  7  8  1  6  0  0  0
  7  9  1  0  0  0  0
  9 10  1  0  0  0  0
  9 11  1  1  0  0  0
 11 12  1  0  0  0  0
 13 14  1  1  0  0  0
 13 15  1  0  0  0  0
 13 21  1  0  0  0  0
 16 15  1  0  0  0  0
 16 17  1  6  0  0  0
 18  2  1  6  0  0  0
 18 16  1  0  0  0  0
 19 18  1  0  0  0  0
 19 20  1  1  0  0  0
 21 19  1  0  0  0  0
 21 22  1  1  0  0  0
 23 20  1  1  0  0  0
 23 24  1  0  0  0  0
 23 28  1  0  0  0  0
 24 25  1  6  0  0  0
 24 26  1  0  0  0  0
 26 27  1  0  0  0  0
 26 32  1  6  0  0  0
 27 28  1  0  0  0  0
 27 29  1  1  0  0  0
 29 30  1  0  0  0  0
 31 32  1  6  0  0  0
 31 40  1  0  0  0  0
 33 31  1  0  0  0  0
 33 42  1  6  0  0  0
 35 33  1  0  0  0  0
 35 36  1  1  0  0  0
 37 35  1  0  0  0  0
 37 38  1  6  0  0  0
 37 39  1  0  0  0  0
 39 40  1  0  0  0  0
 39 41  1  6  0  0  0
 41 34  1  0  0  0  0
M  END
>  <CHROM.1>
-172.43037125,63.99512892,-152.93321430,107.84081462,49.90256657,155.53685708
65.03364376,-130.16275603,63.12421390,13.72240531,7.19666288,7.55170242,0.81598420
0.18966385,-0.91046003

>  <Name>
2et4_lig

>  <RI>
0

>  <Rbt.Current_Directory>
/home/itssahil/PROJECTS/Mol_Feturizer/New_Systems/rnas/2et4

>  <Rbt.Executable>
rbdock ($Id: //depot/dev/client3/rdock/2013.1/src/exe/rbdock.cxx#4 $)

>  <Rbt.Library>
libRbt.so (2013.1, Build901 2013/11/27)

>  <Rbt.Parameter_File>
/export/apps/rDock/src/rDock_2013.1_src/data/scripts/dock_solv.prm

>  <Rbt.Receptor>
prm/pocket_docking_3.prm

>  <SCORE>
-14.0691

>  <SCORE.INTER>
-13.6385

>  <SCORE.INTER.CONST>
1

>  <SCORE.INTER.POLAR>
-1.86219

>  <SCORE.INTER.ROT>
9

>  <SCORE.INTER.SOLV>
25.4264

>  <SCORE.INTER.VDW>
-20.9605

>  <SCORE.INTER.norm>
-0.324727

>  <SCORE.INTRA>
-0.430583

>  <SCORE.INTRA.DIHEDRAL>
-1.83357

>  <SCORE.INTRA.DIHEDRAL.0>
21.6909

>  <SCORE.INTRA.POLAR>
0

>  <SCORE.INTRA.POLAR.0>
0

>  <SCORE.INTRA.REPUL>
0.0896331

>  <SCORE.INTRA.REPUL.0>
0

>  <SCORE.INTRA.SOLV>
-0.700257

>  <SCORE.INTRA.SOLV.lig_0>
-116.606

>  <SCORE.INTRA.VDW>
0.388164

>  <SCORE.INTRA.VDW.0>
-6.01229

>  <SCORE.INTRA.norm>
-0.010252

>  <SCORE.RESTR>
0

>  <SCORE.RESTR.CAVITY>
0

>  <SCORE.RESTR.norm>
0

>  <SCORE.SYSTEM>
0

>  <SCORE.SYSTEM.CONST>
0

>  <SCORE.SYSTEM.DIHEDRAL>
0

>  <SCORE.SYSTEM.SOLV>
0

>  <SCORE.SYSTEM.norm>
0

>  <SCORE.heavy>
42

>  <SCORE.norm>
-0.334979

>  <RMSD>
2.632

$$$$
2et4_lig
 OpenBabel11021811423D
libRbt.so/2013.1/901 2013/11/27
 42 45  0  0  0  0  0  0  0  0999 V2000
   13.8715    9.4083    5.2831 C   0  0  2  0  0  0  0  0  0  0  0  0
   14.7483    8.3938    4.7891 O   0  0  0  0  0  0  0  0  0  0  0  0
   12.5297    9.2636    4.5207 C   0  0  2  0  0  0  0  0  0  0  0  0
   11.9711    7.9459    4.6860 N   0  0  0  0  0  0  0  0  0  0  0  0
   12.7561    9.5908    3.0164 C   0  0  1  0  0  0  0  0  0  0  0  0
   11.5453    9.4757    2.3365 O   0  0  0  0  0  0  0  0  0  0  0  0
   13.3592   11.0315    2.9145 C   0  0  2  0  0  0  0  0  0  0  0  0
   13.5883   11.3683    1.5626 O   0  0  0  0  0  0  0  0  0  0  0  0
   14.6996   11.1295    3.7043 C   0  0  2  0  0  0  0  0  0  0  0  0
   14.4489   10.7649    5.0648 O   0  0  0  0  0  0  0  0  0  0  0  0
   15.3107   12.5682    3.6589 C   0  0  0  0  0  0  0  0  0  0  0  0
   15.7866   12.9085    2.3632 N   0  0  0  0  0  0  0  0  0  0  0  0
   17.6846    5.8934    6.7335 C   0  0  2  0  0  0  0  0  0  0  0  0
   18.9102    5.4903    7.4343 N   0  0  0  0  0  0  0  0  0  0  0  0
   18.0709    6.5660    5.3085 C   0  0  0  0  0  0  0  0  0  0  0  0
   16.7465    7.0117    4.5638 C   0  0  2  0  0  0  0  0  0  0  0  0
   17.0522    7.6528    3.2726 N   0  0  0  0  0  0  0  0  0  0  0  0
   15.9514    8.0115    5.4699 C   0  0  2  0  0  0  0  0  0  0  0  0
   15.6110    7.3601    6.8510 C   0  0  2  0  0  0  0  0  0  0  0  0
   14.8950    8.3631    7.6129 O   0  0  0  0  0  0  0  0  0  0  0  0
   16.9278    6.9333    7.5759 C   0  0  1  0  0  0  0  0  0  0  0  0
   16.5948    6.3473    8.7889 O   0  0  0  0  0  0  0  0  0  0  0  0
   13.8358    8.1256    8.4240 C   0  0  1  0  0  0  0  0  0  0  0  0
   13.4058    6.6370    8.3552 C   0  0  2  0  0  0  0  0  0  0  0  0
   12.5517    6.3613    7.2831 O   0  0  0  0  0  0  0  0  0  0  0  0
   12.8814    6.4661    9.7689 C   0  0  1  0  0  0  0  0  0  0  0  0
   13.7996    7.2888   10.6837 C   0  0  2  0  0  0  0  0  0  0  0  0
   14.0709    8.4012    9.8313 O   0  0  0  0  0  0  0  0  0  0  0  0
   15.1147    6.5712   11.1422 C   0  0  0  0  0  0  0  0  0  0  0  0
   15.7435    7.4146   12.1434 O   0  0  0  0  0  0  0  0  0  0  0  0
   10.4627    6.0919    9.4066 C   0  0  2  0  0  0  0  0  0  0  0  0
   11.4838    6.9712    9.7913 O   0  0  0  0  0  0  0  0  0  0  0  0
    9.0675    6.8449    9.2796 C   0  0  1  0  0  0  0  0  0  0  0  0
    8.4145    1.6216   10.9897 N   0  0  0  0  0  0  0  0  0  0  0  0
    7.9673    5.7373    8.8558 C   0  0  1  0  0  0  0  0  0  0  0  0
    8.4090    5.1109    7.5481 O   0  0  0  0  0  0  0  0  0  0  0  0
    7.8502    4.6063   10.0105 C   0  0  2  0  0  0  0  0  0  0  0  0
    7.4184    5.2270   11.2452 O   0  0  0  0  0  0  0  0  0  0  0  0
    9.3066    3.8835   10.1374 C   0  0  1  0  0  0  0  0  0  0  0  0
   10.3558    4.9213   10.4275 O   0  0  0  0  0  0  0  0  0  0  0  0
    9.3284    2.7764   11.2487 C   0  0  0  0  0  0  0  0  0  0  0  0
    8.7388    7.5388   10.5685 N   0  0  0  0  0  0  0  0  0  0  0  0
  1  2  1  6  0  0  0
  1  3  1  0  0  0  0
  1 10  1  0  0  0  0
  3  4  1  6  0  0  0
  3  5  1  0  0  0  0
  5  6  1  6  0  0  0
  5  7  1  0  0  0  0
  7  8  1  6  0  0  0
  7  9  1  0  0  0  0
  9 10  1  0  0  0  0
  9 11  1  1  0  0  0
 11 12  1  0  0  0  0
 13 14  1  1  0  0  0
 13 15  1  0  0  0  0
 13 21  1  0  0  0  0
 16 15  1  0  0  0  0
 16 17  1  6  0  0  0
 18  2  1  6  0  0  0
 18 16  1  0  0  0  0
 19 18  1  0  0  0  0
 19 20  1  1  0  0  0
 21 19  1  0  0  0  0
 21 22  1  1  0  0  0
 23 20  1  6  0  0  0
 23 24  1  0  0  0  0
 23 28  1  0  0  0  0
 24 25  1  6  0  0  0
 24 26  1  0  0  0  0
 26 27  1  0  0  0  0
 26 32  1  6  0  0  0
 27 28  1  0  0  0  0
 27 29  1  6  0  0  0
 29 30  1  0  0  0  0
 31 32  1  1  0  0  0
 31 40  1  0  0  0  0
 33 31  1  0  0  0  0
 33 42  1  1  0  0  0
 35 33  1  0  0  0  0
 35 36  1  6  0  0  0
 37 35  1  0  0  0  0
 37 38  1  1  0  0  0
 37 39  1  0  0  0  0
 39 40  1  0  0  0  0
 39 41  1  1  0  0  0
 41 34  1  0  0  0  0
M  END
>  <CHROM.1>
-164.62227097,-69.36609415,-173.03160850,140.98421509,-4.35166894,84.96915969
-171.71859988,-171.56155409,63.60397300,13.15772760,7.43853952,7.27127900
0.95100231,-0.03653353,-0.95187742

>  <Name>
2et4_lig

>  <RI>
0

>  <Rbt.Current_Directory>
/home/itssahil/PROJECTS/Mol_Feturizer/New_Systems/rnas/2et4

>  <Rbt.Executable>
rbdock ($Id: //depot/dev/client3/rdock/2013.1/src/exe/rbdock.cxx#4 $)

>  <Rbt.Library>
libRbt.so (2013.1, Build901 2013/11/27)

>  <Rbt.Parameter_File>
/export/apps/rDock/src/rDock_2013.1_src/data/scripts/dock_solv.prm

>  <Rbt.Receptor>
prm/pocket_docking_3.prm

>  <SCORE>
-18.849

>  <SCORE.INTER>
-18.5802

>  <SCORE.INTER.CONST>
1

>  <SCORE.INTER.POLAR>
-1.71696

>  <SCORE.INTER.ROT>
9

>  <SCORE.INTER.SOLV>
17.3831

>  <SCORE.INTER.VDW>
-22.0579

>  <SCORE.INTER.norm>
-0.442385

>  <SCORE.INTRA>
-0.268863

>  <SCORE.INTRA.DIHEDRAL>
-4.27401

>  <SCORE.INTRA.DIHEDRAL.0>
21.6909

>  <SCORE.INTRA.POLAR>
0

>  <SCORE.INTRA.POLAR.0>
0

>  <SCORE.INTRA.REPUL>
0

>  <SCORE.INTRA.REPUL.0>
0

>  <SCORE.INTRA.SOLV>
-1.60693

>  <SCORE.INTRA.SOLV.lig_0>
-116.606

>  <SCORE.INTRA.VDW>
2.67161

>  <SCORE.INTRA.VDW.0>
-6.01229

>  <SCORE.INTRA.norm>
-0.0064015

>  <SCORE.RESTR>
0

>  <SCORE.RESTR.CAVITY>
0

>  <SCORE.RESTR.norm>
0

>  <SCORE.SYSTEM>
0

>  <SCORE.SYSTEM.CONST>
0

>  <SCORE.SYSTEM.DIHEDRAL>
0

>  <SCORE.SYSTEM.SOLV>
0

>  <SCORE.SYSTEM.norm>
0

>  <SCORE.heavy>
42

>  <SCORE.norm>
-0.448787

>  <RMSD>
2.683

$$$$
2et4_lig
 OpenBabel11021811423D
libRbt.so/2013.1/901 2013/11/27
 42 45  0  0  0  0  0  0  0  0999 V2000
   13.5559    9.1975    5.6866 C   0  0  2  0  0  0  0  0  0  0  0  0
   14.3053    8.0322    5.3364 O   0  0  0  0  0  0  0  0  0  0  0  0
   12.2328    9.1493    4.8804 C   0  0  2  0  0  0  0  0  0  0  0  0
   11.4981    7.9393    5.1486 N   0  0  0  0  0  0  0  0  0  0  0  0
   12.5508    9.2863    3.3634 C   0  0  1  0  0  0  0  0  0  0  0  0
   11.3587    9.2589    2.6424 O   0  0  0  0  0  0  0  0  0  0  0  0
   13.3439   10.6185    3.1481 C   0  0  2  0  0  0  0  0  0  0  0  0
   13.6607   10.7804    1.7818 O   0  0  0  0  0  0  0  0  0  0  0  0
   14.6583   10.6236    3.9860 C   0  0  2  0  0  0  0  0  0  0  0  0
   14.3161   10.4379    5.3627 O   0  0  0  0  0  0  0  0  0  0  0  0
   15.4572   11.9586    3.8276 C   0  0  0  0  0  0  0  0  0  0  0  0
   14.7459   13.0746    4.3468 N   0  0  0  0  0  0  0  0  0  0  0  0
   17.2255    5.5992    7.3877 C   0  0  2  0  0  0  0  0  0  0  0  0
   18.4634    5.2112    8.0753 N   0  0  0  0  0  0  0  0  0  0  0  0
   17.5770    6.1254    5.8938 C   0  0  0  0  0  0  0  0  0  0  0  0
   16.2402    6.5559    5.1623 C   0  0  2  0  0  0  0  0  0  0  0  0
   16.5156    7.0660    3.8075 N   0  0  0  0  0  0  0  0  0  0  0  0
   15.5206    7.6641    6.0031 C   0  0  2  0  0  0  0  0  0  0  0  0
   15.2140    7.1532    7.4497 C   0  0  2  0  0  0  0  0  0  0  0  0
   14.5675    8.2485    8.1437 O   0  0  0  0  0  0  0  0  0  0  0  0
   16.5430    6.7401    8.1600 C   0  0  1  0  0  0  0  0  0  0  0  0
   16.2391    6.2790    9.4330 O   0  0  0  0  0  0  0  0  0  0  0  0
   13.6449    8.1196    9.1278 C   0  0  1  0  0  0  0  0  0  0  0  0
   13.3216    6.6263    9.3944 C   0  0  2  0  0  0  0  0  0  0  0  0
   12.3566    6.1097    8.5244 O   0  0  0  0  0  0  0  0  0  0  0  0
   13.0020    6.7037   10.8758 C   0  0  1  0  0  0  0  0  0  0  0  0
   13.9688    7.7295   11.4838 C   0  0  2  0  0  0  0  0  0  0  0  0
   14.0421    8.6702   10.4126 O   0  0  0  0  0  0  0  0  0  0  0  0
   15.3826    7.1773   11.8725 C   0  0  0  0  0  0  0  0  0  0  0  0
   15.1774    6.0050   12.7048 O   0  0  0  0  0  0  0  0  0  0  0  0
   10.5867    6.1696   10.8262 C   0  0  2  0  0  0  0  0  0  0  0  0
   11.5859    7.1357   11.0056 O   0  0  0  0  0  0  0  0  0  0  0  0
    9.1355    6.8154   10.9078 C   0  0  1  0  0  0  0  0  0  0  0  0
    9.8677    3.3966   14.3327 N   0  0  0  0  0  0  0  0  0  0  0  0
    8.0699    5.6145   10.7107 C   0  0  1  0  0  0  0  0  0  0  0  0
    8.3390    4.9612    9.3697 O   0  0  0  0  0  0  0  0  0  0  0  0
    8.2309    4.5325   11.9064 C   0  0  2  0  0  0  0  0  0  0  0  0
    7.9601    5.1773   13.1741 O   0  0  0  0  0  0  0  0  0  0  0  0
    9.7400    3.9210   11.8134 C   0  0  1  0  0  0  0  0  0  0  0  0
   10.7390    5.0427   11.8896 O   0  0  0  0  0  0  0  0  0  0  0  0
   10.0287    2.8706   12.9424 C   0  0  0  0  0  0  0  0  0  0  0  0
    8.9693    7.5430   12.2092 N   0  0  0  0  0  0  0  0  0  0  0  0
  1  2  1  6  0  0  0
  1  3  1  0  0  0  0
  1 10  1  0  0  0  0
  3  4  1  6  0  0  0
  3  5  1  0  0  0  0
  5  6  1  6  0  0  0
  5  7  1  0  0  0  0
  7  8  1  6  0  0  0
  7  9  1  0  0  0  0
  9 10  1  0  0  0  0
  9 11  1  1  0  0  0
 11 12  1  0  0  0  0
 13 14  1  1  0  0  0
 13 15  1  0  0  0  0
 13 21  1  0  0  0  0
 16 15  1  0  0  0  0
 16 17  1  6  0  0  0
 18  2  1  6  0  0  0
 18 16  1  0  0  0  0
 19 18  1  0  0  0  0
 19 20  1  1  0  0  0
 21 19  1  0  0  0  0
 21 22  1  1  0  0  0
 23 20  1  6  0  0  0
 23 24  1  0  0  0  0
 23 28  1  0  0  0  0
 24 25  1  6  0  0  0
 24 26  1  0  0  0  0
 26 27  1  0  0  0  0
 26 32  1  6  0  0  0
 27 28  1  0  0  0  0
 27 29  1  6  0  0  0
 29 30  1  0  0  0  0
 31 32  1  1  0  0  0
 31 40  1  0  0  0  0
 33 31  1  0  0  0  0
 33 42  1  1  0  0  0
 35 33  1  0  0  0  0
 35 36  1  6  0  0  0
 37 35  1  0  0  0  0
 37 38  1  1  0  0  0
 37 39  1  0  0  0  0
 39 40  1  0  0  0  0
 39 41  1  1  0  0  0
 41 34  1  0  0  0  0
M  END
>  <CHROM.1>
-172.72026430,64.70351589,-166.78021882,149.27191203,-1.97374619,79.70286057
-51.97908272,-176.41561082,-58.34198461,13.07863892,7.32087164,8.21915378
1.09613793,0.08061734,-1.02684914

>  <Name>
2et4_lig

>  <RI>
0

>  <Rbt.Current_Directory>
/home/itssahil/PROJECTS/Mol_Feturizer/New_Systems/rnas/2et4

>  <Rbt.Executable>
rbdock ($Id: //depot/dev/client3/rdock/2013.1/src/exe/rbdock.cxx#4 $)

>  <Rbt.Library>
libRbt.so (2013.1, Build901 2013/11/27)

>  <Rbt.Parameter_File>
/export/apps/rDock/src/rDock_2013.1_src/data/scripts/dock_solv.prm

>  <Rbt.Receptor>
prm/pocket_docking_3.prm

>  <SCORE>
-15.0754

>  <SCORE.INTER>
-14.0362

>  <SCORE.INTER.CONST>
1

>  <SCORE.INTER.POLAR>
-1.64296

>  <SCORE.INTER.ROT>
9

>  <SCORE.INTER.SOLV>
22.281

>  <SCORE.INTER.VDW>
-20.9079

>  <SCORE.INTER.norm>
-0.334194

>  <SCORE.INTRA>
-1.14405

>  <SCORE.INTRA.DIHEDRAL>
-7.41932

>  <SCORE.INTRA.DIHEDRAL.0>
21.6909

>  <SCORE.INTRA.POLAR>
0

>  <SCORE.INTRA.POLAR.0>
0

>  <SCORE.INTRA.REPUL>
0

>  <SCORE.INTRA.REPUL.0>
0

>  <SCORE.INTRA.SOLV>
-0.798768

>  <SCORE.INTRA.SOLV.lig_0>
-116.606

>  <SCORE.INTRA.VDW>
2.965

>  <SCORE.INTRA.VDW.0>
-6.01229

>  <SCORE.INTRA.norm>
-0.0272393

>  <SCORE.RESTR>
0.104774

>  <SCORE.RESTR.CAVITY>
0.104774

>  <SCORE.RESTR.norm>
0.00249462

>  <SCORE.SYSTEM>
0

>  <SCORE.SYSTEM.CONST>
0

>  <SCORE.SYSTEM.DIHEDRAL>
0

>  <SCORE.SYSTEM.SOLV>
0

>  <SCORE.SYSTEM.norm>
0

>  <SCORE.heavy>
42

>  <SCORE.norm>
-0.358939

>  <RMSD>
2.690

$$$$
2et4_lig
 OpenBabel11021811423D
libRbt.so/2013.1/901 2013/11/27
 42 45  0  0  0  0  0  0  0  0999 V2000
   12.2256    7.8226    6.1444 C   0  0  2  0  0  0  0  0  0  0  0  0
   12.9716    6.6837    5.7100 O   0  0  0  0  0  0  0  0  0  0  0  0
   10.8138    7.7117    5.5143 C   0  0  2  0  0  0  0  0  0  0  0  0
   10.1695    6.4769    5.8832 N   0  0  0  0  0  0  0  0  0  0  0  0
   10.9300    7.8422    3.9681 C   0  0  1  0  0  0  0  0  0  0  0  0
    9.6579    7.7583    3.4056 O   0  0  0  0  0  0  0  0  0  0  0  0
   11.6339    9.2020    3.6435 C   0  0  2  0  0  0  0  0  0  0  0  0
   11.7671    9.3592    2.2467 O   0  0  0  0  0  0  0  0  0  0  0  0
   13.0430    9.2699    4.3065 C   0  0  2  0  0  0  0  0  0  0  0  0
   12.8869    9.0881    5.7169 O   0  0  0  0  0  0  0  0  0  0  0  0
   13.7598   10.6335    4.0374 C   0  0  0  0  0  0  0  0  0  0  0  0
   14.8963   10.8162    4.8716 N   0  0  0  0  0  0  0  0  0  0  0  0
   16.3812    4.5459    7.2779 C   0  0  2  0  0  0  0  0  0  0  0  0
   17.7501    4.2693    7.7313 N   0  0  0  0  0  0  0  0  0  0  0  0
   16.4066    4.9954    5.7191 C   0  0  0  0  0  0  0  0  0  0  0  0
   14.9298    5.3062    5.2398 C   0  0  2  0  0  0  0  0  0  0  0  0
   14.9082    5.7442    3.8329 N   0  0  0  0  0  0  0  0  0  0  0  0
   14.3130    6.4244    6.1463 C   0  0  2  0  0  0  0  0  0  0  0  0
   14.3215    5.9896    7.6492 C   0  0  2  0  0  0  0  0  0  0  0  0
   13.7491    7.0898    8.3982 O   0  0  0  0  0  0  0  0  0  0  0  0
   15.7855    5.6944    8.1084 C   0  0  1  0  0  0  0  0  0  0  0  0
   15.7604    5.2985    9.4381 O   0  0  0  0  0  0  0  0  0  0  0  0
   12.9211    6.9679    9.4640 C   0  0  1  0  0  0  0  0  0  0  0  0
   12.9339    8.2558   10.3280 C   0  0  2  0  0  0  0  0  0  0  0  0
   13.9883    8.2907   11.2456 O   0  0  0  0  0  0  0  0  0  0  0  0
   11.5107    8.2150   10.8529 C   0  0  1  0  0  0  0  0  0  0  0  0
   10.6332    7.6838    9.7107 C   0  0  2  0  0  0  0  0  0  0  0  0
   11.5264    6.7339    9.1296 O   0  0  0  0  0  0  0  0  0  0  0  0
   10.1611    8.7538    8.6681 C   0  0  0  0  0  0  0  0  0  0  0  0
    9.3133    9.7007    9.3708 O   0  0  0  0  0  0  0  0  0  0  0  0
   10.2485    6.9399   12.5565 C   0  0  2  0  0  0  0  0  0  0  0  0
   11.4940    7.3073   12.0295 O   0  0  0  0  0  0  0  0  0  0  0  0
    9.6140    8.1173   13.4173 C   0  0  1  0  0  0  0  0  0  0  0  0
    9.9135    2.6730   14.0610 N   0  0  0  0  0  0  0  0  0  0  0  0
    8.2004    7.5779   13.9897 C   0  0  1  0  0  0  0  0  0  0  0  0
    7.3318    7.1894   12.8099 O   0  0  0  0  0  0  0  0  0  0  0  0
    8.4474    6.2979   14.9525 C   0  0  2  0  0  0  0  0  0  0  0  0
    9.2705    6.6961   16.0751 O   0  0  0  0  0  0  0  0  0  0  0  0
    9.1318    5.1279   14.0455 C   0  0  1  0  0  0  0  0  0  0  0  0
   10.3952    5.6540   13.4219 O   0  0  0  0  0  0  0  0  0  0  0  0
    9.4445    3.8348   14.8769 C   0  0  0  0  0  0  0  0  0  0  0  0
   10.5668    8.5345   14.4984 N   0  0  0  0  0  0  0  0  0  0  0  0
  1  2  1  6  0  0  0
  1  3  1  0  0  0  0
  1 10  1  0  0  0  0
  3  4  1  6  0  0  0
  3  5  1  0  0  0  0
  5  6  1  6  0  0  0
  5  7  1  0  0  0  0
  7  8  1  6  0  0  0
  7  9  1  0  0  0  0
  9 10  1  0  0  0  0
  9 11  1  1  0  0  0
 11 12  1  0  0  0  0
 13 14  1  1  0  0  0
 13 15  1  0  0  0  0
 13 21  1  0  0  0  0
 16 15  1  0  0  0  0
 16 17  1  6  0  0  0
 18  2  1  6  0  0  0
 18 16  1  0  0  0  0
 19 18  1  0  0  0  0
 19 20  1  1  0  0  0
 21 19  1  0  0  0  0
 21 22  1  1  0  0  0
 23 20  1  6  0  0  0
 23 24  1  0  0  0  0
 23 28  1  0  0  0  0
 24 25  1  1  0  0  0
 24 26  1  0  0  0  0
 26 27  1  0  0  0  0
 26 32  1  1  0  0  0
 27 28  1  0  0  0  0
 27 29  1  6  0  0  0
 29 30  1  0  0  0  0
 31 32  1  1  0  0  0
 31 40  1  0  0  0  0
 33 31  1  0  0  0  0
 33 42  1  1  0  0  0
 35 33  1  0  0  0  0
 35 36  1  6  0  0  0
 37 35  1  0  0  0  0
 37 38  1  1  0  0  0
 37 39  1  0  0  0  0
 39 40  1  0  0  0  0
 39 41  1  1  0  0  0
 41 34  1  0  0  0  0
M  END
>  <CHROM.1>
-177.29560396,166.95671756,-167.13307286,141.65257489,158.46218547,-169.94410936
-63.74443119,-76.69469155,172.72989556,12.02989247,7.12385133,8.83614262
1.09695558,0.51072943,-1.18630987

>  <Name>
2et4_lig

>  <RI>
0

>  <Rbt.Current_Directory>
/home/itssahil/PROJECTS/Mol_Feturizer/New_Systems/rnas/2et4

>  <Rbt.Executable>
rbdock ($Id: //depot/dev/client3/rdock/2013.1/src/exe/rbdock.cxx#4 $)

>  <Rbt.Library>
libRbt.so (2013.1, Build901 2013/11/27)

>  <Rbt.Parameter_File>
/export/apps/rDock/src/rDock_2013.1_src/data/scripts/dock_solv.prm

>  <Rbt.Receptor>
prm/pocket_docking_3.prm

>  <SCORE>
-12.2881

>  <SCORE.INTER>
-5.90824

>  <SCORE.INTER.CONST>
1

>  <SCORE.INTER.POLAR>
-0.88547

>  <SCORE.INTER.ROT>
9

>  <SCORE.INTER.SOLV>
14.7517

>  <SCORE.INTER.VDW>
-15.5045

>  <SCORE.INTER.norm>
-0.140672

>  <SCORE.INTRA>
-6.44895

>  <SCORE.INTRA.DIHEDRAL>
-10.908

>  <SCORE.INTRA.DIHEDRAL.0>
21.6909

>  <SCORE.INTRA.POLAR>
0

>  <SCORE.INTRA.POLAR.0>
0

>  <SCORE.INTRA.REPUL>
0

>  <SCORE.INTRA.REPUL.0>
0

>  <SCORE.INTRA.SOLV>
-3.5098

>  <SCORE.INTRA.SOLV.lig_0>
-116.606

>  <SCORE.INTRA.VDW>
0.759969

>  <SCORE.INTRA.VDW.0>
-6.01229

>  <SCORE.INTRA.norm>
-0.153547

>  <SCORE.RESTR>
0.0690894

>  <SCORE.RESTR.CAVITY>
0.0690894

>  <SCORE.RESTR.norm>
0.00164499

>  <SCORE.SYSTEM>
0

>  <SCORE.SYSTEM.CONST>
0

>  <SCORE.SYSTEM.DIHEDRAL>
0

>  <SCORE.SYSTEM.SOLV>
0

>  <SCORE.SYSTEM.norm>
0

>  <SCORE.heavy>
42

>  <SCORE.norm>
-0.292574

>  <RMSD>
2.778

$$$$
2et4_lig
 OpenBabel11021811423D
libRbt.so/2013.1/901 2013/11/27
 42 45  0  0  0  0  0  0  0  0999 V2000
   13.2091    9.4814    5.1655 C   0  0  2  0  0  0  0  0  0  0  0  0
   14.0459    8.3382    4.9786 O   0  0  0  0  0  0  0  0  0  0  0  0
   12.1183    9.4342    4.0652 C   0  0  2  0  0  0  0  0  0  0  0  0
   11.3675    8.2059    4.1224 N   0  0  0  0  0  0  0  0  0  0  0  0
   12.7864    9.6175    2.6719 C   0  0  1  0  0  0  0  0  0  0  0  0
   11.8019    9.5908    1.6861 O   0  0  0  0  0  0  0  0  0  0  0  0
   13.5786   10.9674    2.6830 C   0  0  2  0  0  0  0  0  0  0  0  0
   14.2090   11.1715    1.4362 O   0  0  0  0  0  0  0  0  0  0  0  0
   14.6544   10.9706    3.8110 C   0  0  2  0  0  0  0  0  0  0  0  0
   13.9974   10.7421    5.0612 O   0  0  0  0  0  0  0  0  0  0  0  0
   15.4386   12.3218    3.8786 C   0  0  0  0  0  0  0  0  0  0  0  0
   14.7055   13.3970    3.3063 N   0  0  0  0  0  0  0  0  0  0  0  0
   16.2033    5.8773    7.7972 C   0  0  2  0  0  0  0  0  0  0  0  0
   17.2123    5.4609    8.7792 N   0  0  0  0  0  0  0  0  0  0  0  0
   16.9332    6.2674    6.4017 C   0  0  0  0  0  0  0  0  0  0  0  0
   15.8420    6.7293    5.3514 C   0  0  2  0  0  0  0  0  0  0  0  0
   16.4647    7.1186    4.0737 N   0  0  0  0  0  0  0  0  0  0  0  0
   15.0394    7.9414    5.9339 C   0  0  2  0  0  0  0  0  0  0  0  0
   14.3651    7.5601    7.2932 C   0  0  2  0  0  0  0  0  0  0  0  0
   13.6664    8.7437    7.7513 O   0  0  0  0  0  0  0  0  0  0  0  0
   15.4551    7.1144    8.3201 C   0  0  1  0  0  0  0  0  0  0  0  0
   14.8279    6.7696    9.5090 O   0  0  0  0  0  0  0  0  0  0  0  0
   12.9927    8.8545    8.9218 C   0  0  1  0  0  0  0  0  0  0  0  0
   12.1904   10.1807    8.9780 C   0  0  2  0  0  0  0  0  0  0  0  0
   12.9583   11.2692    9.4030 O   0  0  0  0  0  0  0  0  0  0  0  0
   11.0260    9.7284    9.8395 C   0  0  1  0  0  0  0  0  0  0  0  0
   10.7067    8.2841    9.4286 C   0  0  2  0  0  0  0  0  0  0  0  0
   12.0245    7.7998    9.1709 O   0  0  0  0  0  0  0  0  0  0  0  0
    9.7737    8.1280    8.1796 C   0  0  0  0  0  0  0  0  0  0  0  0
    8.5181    8.7887    8.4898 O   0  0  0  0  0  0  0  0  0  0  0  0
   10.4666    9.8309   12.2475 C   0  0  2  0  0  0  0  0  0  0  0  0
   11.4594    9.8153   11.2585 O   0  0  0  0  0  0  0  0  0  0  0  0
   11.0870   10.1040   13.6863 C   0  0  1  0  0  0  0  0  0  0  0  0
    7.2773    6.6897   11.7682 N   0  0  0  0  0  0  0  0  0  0  0  0
    9.8629   10.0781   14.7435 C   0  0  1  0  0  0  0  0  0  0  0  0
    8.8628   11.1403   14.3324 O   0  0  0  0  0  0  0  0  0  0  0  0
    9.1637    8.6161   14.7421 C   0  0  2  0  0  0  0  0  0  0  0  0
   10.1350    7.6215   15.1465 O   0  0  0  0  0  0  0  0  0  0  0  0
    8.5741    8.3568   13.2438 C   0  0  1  0  0  0  0  0  0  0  0  0
    9.6870    8.4833   12.2402 O   0  0  0  0  0  0  0  0  0  0  0  0
    7.8885    6.9523   13.1073 C   0  0  0  0  0  0  0  0  0  0  0  0
   12.1488    9.0883   13.9893 N   0  0  0  0  0  0  0  0  0  0  0  0
  1  2  1  6  0  0  0
  1  3  1  0  0  0  0
  1 10  1  0  0  0  0
  3  4  1  6  0  0  0
  3  5  1  0  0  0  0
  5  6  1  6  0  0  0
  5  7  1  0  0  0  0
  7  8  1  6  0  0  0
  7  9  1  0  0  0  0
  9 10  1  0  0  0  0
  9 11  1  1  0  0  0
 11 12  1  0  0  0  0
 13 14  1  1  0  0  0
 13 15  1  0  0  0  0
 13 21  1  0  0  0  0
 16 15  1  0  0  0  0
 16 17  1  6  0  0  0
 18  2  1  6  0  0  0
 18 16  1  0  0  0  0
 19 18  1  0  0  0  0
 19 20  1  1  0  0  0
 21 19  1  0  0  0  0
 21 22  1  1  0  0  0
 23 20  1  6  0  0  0
 23 24  1  0  0  0  0
 23 28  1  0  0  0  0
 24 25  1  1  0  0  0
 24 26  1  0  0  0  0
 26 27  1  0  0  0  0
 26 32  1  1  0  0  0
 27 28  1  0  0  0  0
 27 29  1  6  0  0  0
 29 30  1  0  0  0  0
 31 32  1  6  0  0  0
 31 40  1  0  0  0  0
 33 31  1  0  0  0  0
 33 42  1  1  0  0  0
 35 33  1  0  0  0  0
 35 36  1  6  0  0  0
 37 35  1  0  0  0  0
 37 38  1  6  0  0  0
 37 39  1  0  0  0  0
 39 40  1  0  0  0  0
 39 41  1  1  0  0  0
 41 34  1  0  0  0  0
M  END
>  <CHROM.1>
-170.21837181,22.98675992,-175.28146821,-177.24399534,-171.18828064,161.69087299
-59.70630513,-173.08827423,177.42406010,12.46942111,8.91023752,8.26870491
1.00801931,0.56274084,-1.16570336

>  <Name>
2et4_lig

>  <RI>
0

>  <Rbt.Current_Directory>
/home/itssahil/PROJECTS/Mol_Feturizer/New_Systems/rnas/2et4

>  <Rbt.Executable>
rbdock ($Id: //depot/dev/client3/rdock/2013.1/src/exe/rbdock.cxx#4 $)

>  <Rbt.Library>
libRbt.so (2013.1, Build901 2013/11/27)

>  <Rbt.Parameter_File>
/export/apps/rDock/src/rDock_2013.1_src/data/scripts/dock_solv.prm

>  <Rbt.Receptor>
prm/pocket_docking_6.prm

>  <SCORE>
-19.5039

>  <SCORE.INTER>
-12.4196

>  <SCORE.INTER.CONST>
1

>  <SCORE.INTER.POLAR>
-1.31602

>  <SCORE.INTER.ROT>
9

>  <SCORE.INTER.SOLV>
22.158

>  <SCORE.INTER.VDW>
-20.879

>  <SCORE.INTER.norm>
-0.295704

>  <SCORE.INTRA>
-7.08433

>  <SCORE.INTRA.DIHEDRAL>
-15.1684

>  <SCORE.INTRA.DIHEDRAL.0>
21.6909

>  <SCORE.INTRA.POLAR>
0

>  <SCORE.INTRA.POLAR.0>
0

>  <SCORE.INTRA.REPUL>
0

>  <SCORE.INTRA.REPUL.0>
0

>  <SCORE.INTRA.SOLV>
-3.30567

>  <SCORE.INTRA.SOLV.lig_0>
-116.606

>  <SCORE.INTRA.VDW>
2.1527

>  <SCORE.INTRA.VDW.0>
-6.01229

>  <SCORE.INTRA.norm>
-0.168674

>  <SCORE.RESTR>
0

>  <SCORE.RESTR.CAVITY>
0

>  <SCORE.RESTR.norm>
0

>  <SCORE.SYSTEM>
0

>  <SCORE.SYSTEM.CONST>
0

>  <SCORE.SYSTEM.DIHEDRAL>
0

>  <SCORE.SYSTEM.SOLV>
0

>  <SCORE.SYSTEM.norm>
0

>  <SCORE.heavy>
42

>  <SCORE.norm>
-0.464379

>  <RMSD>
2.795

$$$$
2et4_lig
 OpenBabel11021811423D
libRbt.so/2013.1/901 2013/11/27
 42 45  0  0  0  0  0  0  0  0999 V2000
   13.8368    9.6217    5.0599 C   0  0  2  0  0  0  0  0  0  0  0  0
   14.7534    8.6057    4.6480 O   0  0  0  0  0  0  0  0  0  0  0  0
   12.5854    9.5033    4.1530 C   0  0  2  0  0  0  0  0  0  0  0  0
   12.0003    8.1893    4.2342 N   0  0  0  0  0  0  0  0  0  0  0  0
   12.9782    9.8515    2.6882 C   0  0  1  0  0  0  0  0  0  0  0  0
   11.8482    9.7600    1.8780 O   0  0  0  0  0  0  0  0  0  0  0  0
   13.6017   11.2871    2.6769 C   0  0  2  0  0  0  0  0  0  0  0  0
   13.9805   11.6424    1.3640 O   0  0  0  0  0  0  0  0  0  0  0  0
   14.8482   11.3584    3.6101 C   0  0  2  0  0  0  0  0  0  0  0  0
   14.4467   10.9754    4.9287 O   0  0  0  0  0  0  0  0  0  0  0  0
   15.4735   12.7910    3.6559 C   0  0  0  0  0  0  0  0  0  0  0  0
   16.0958   13.1445    2.4275 N   0  0  0  0  0  0  0  0  0  0  0  0
   17.4684    6.0743    6.8559 C   0  0  2  0  0  0  0  0  0  0  0  0
   18.6159    5.6590    7.6723 N   0  0  0  0  0  0  0  0  0  0  0  0
   17.9984    6.7551    5.4819 C   0  0  0  0  0  0  0  0  0  0  0  0
   16.7571    7.2139    4.6123 C   0  0  2  0  0  0  0  0  0  0  0  0
   17.1934    7.8627    3.3632 N   0  0  0  0  0  0  0  0  0  0  0  0
   15.8806    8.2115    5.4424 C   0  0  2  0  0  0  0  0  0  0  0  0
   15.4008    7.5520    6.7775 C   0  0  2  0  0  0  0  0  0  0  0  0
   14.6173    8.5534    7.4720 O   0  0  0  0  0  0  0  0  0  0  0  0
   16.6364    7.1123    7.6267 C   0  0  1  0  0  0  0  0  0  0  0  0
   16.1811    6.5194    8.7958 O   0  0  0  0  0  0  0  0  0  0  0  0
   13.2943    8.4616    7.7507 C   0  0  1  0  0  0  0  0  0  0  0  0
   12.9865    7.1813    8.5702 C   0  0  2  0  0  0  0  0  0  0  0  0
   12.8212    6.0452    7.7720 O   0  0  0  0  0  0  0  0  0  0  0  0
   11.8045    7.6838    9.3783 C   0  0  1  0  0  0  0  0  0  0  0  0
   12.0980    9.1499    9.7263 C   0  0  2  0  0  0  0  0  0  0  0  0
   12.7567    9.5643    8.5296 O   0  0  0  0  0  0  0  0  0  0  0  0
   12.9920    9.3775   10.9926 C   0  0  0  0  0  0  0  0  0  0  0  0
   14.3240    8.8925   10.6771 O   0  0  0  0  0  0  0  0  0  0  0  0
   10.0175    6.2786    8.4019 C   0  0  2  0  0  0  0  0  0  0  0  0
   10.5927    7.5503    8.5283 O   0  0  0  0  0  0  0  0  0  0  0  0
    8.7729    6.3020    7.4118 C   0  0  1  0  0  0  0  0  0  0  0  0
    9.7619    3.8736   12.2233 N   0  0  0  0  0  0  0  0  0  0  0  0
    8.1794    4.7981    7.3601 C   0  0  1  0  0  0  0  0  0  0  0  0
    9.2815    3.8728    6.8839 O   0  0  0  0  0  0  0  0  0  0  0  0
    7.6699    4.3552    8.8334 C   0  0  2  0  0  0  0  0  0  0  0  0
    6.6127    5.2469    9.2614 O   0  0  0  0  0  0  0  0  0  0  0  0
    8.9634    4.3794    9.8265 C   0  0  1  0  0  0  0  0  0  0  0  0
    9.5873    5.7477    9.8008 O   0  0  0  0  0  0  0  0  0  0  0  0
    8.5916    3.9892   11.2999 C   0  0  0  0  0  0  0  0  0  0  0  0
    7.7684    7.3164    7.8730 N   0  0  0  0  0  0  0  0  0  0  0  0
  1  2  1  6  0  0  0
  1  3  1  0  0  0  0
  1 10  1  0  0  0  0
  3  4  1  6  0  0  0
  3  5  1  0  0  0  0
  5  6  1  6  0  0  0
  5  7  1  0  0  0  0
  7  8  1  6  0  0  0
  7  9  1  0  0  0  0
  9 10  1  0  0  0  0
  9 11  1  1  0  0  0
 11 12  1  0  0  0  0
 13 14  1  1  0  0  0
 13 15  1  0  0  0  0
 13 21  1  0  0  0  0
 16 15  1  0  0  0  0
 16 17  1  6  0  0  0
 18  2  1  6  0  0  0
 18 16  1  0  0  0  0
 19 18  1  0  0  0  0
 19 20  1  1  0  0  0
 21 19  1  0  0  0  0
 21 22  1  1  0  0  0
 23 20  1  1  0  0  0
 23 24  1  0  0  0  0
 23 28  1  0  0  0  0
 24 25  1  6  0  0  0
 24 26  1  0  0  0  0
 26 27  1  0  0  0  0
 26 32  1  6  0  0  0
 27 28  1  0  0  0  0
 27 29  1  1  0  0  0
 29 30  1  0  0  0  0
 31 32  1  1  0  0  0
 31 40  1  0  0  0  0
 33 31  1  0  0  0  0
 33 42  1  1  0  0  0
 35 33  1  0  0  0  0
 35 36  1  1  0  0  0
 37 35  1  0  0  0  0
 37 38  1  1  0  0  0
 37 39  1  0  0  0  0
 39 40  1  0  0  0  0
 39 41  1  1  0  0  0
 41 34  1  0  0  0  0
M  END
>  <CHROM.1>
-165.41311458,-69.58262736,-173.02065183,115.72372434,56.68797445,78.39809263
68.05133463,-177.52743769,174.64682021,12.88903008,7.82506064,6.83311650
0.85912348,-0.07966309,-0.94584990

>  <Name>
2et4_lig

>  <RI>
0

>  <Rbt.Current_Directory>
/home/itssahil/PROJECTS/Mol_Feturizer/New_Systems/rnas/2et4

>  <Rbt.Executable>
rbdock ($Id: //depot/dev/client3/rdock/2013.1/src/exe/rbdock.cxx#4 $)

>  <Rbt.Library>
libRbt.so (2013.1, Build901 2013/11/27)

>  <Rbt.Parameter_File>
/export/apps/rDock/src/rDock_2013.1_src/data/scripts/dock_solv.prm

>  <Rbt.Receptor>
prm/pocket_docking_3.prm

>  <SCORE>
-23.585

>  <SCORE.INTER>
-18.5616

>  <SCORE.INTER.CONST>
1

>  <SCORE.INTER.POLAR>
-1.67286

>  <SCORE.INTER.ROT>
9

>  <SCORE.INTER.SOLV>
19.6758

>  <SCORE.INTER.VDW>
-22.9568

>  <SCORE.INTER.norm>
-0.441943

>  <SCORE.INTRA>
-5.0916

>  <SCORE.INTRA.DIHEDRAL>
-10.915

>  <SCORE.INTRA.DIHEDRAL.0>
21.6909

>  <SCORE.INTRA.POLAR>
0

>  <SCORE.INTRA.POLAR.0>
0

>  <SCORE.INTRA.REPUL>
0

>  <SCORE.INTRA.REPUL.0>
0

>  <SCORE.INTRA.SOLV>
-2.49501

>  <SCORE.INTRA.SOLV.lig_0>
-116.606

>  <SCORE.INTRA.VDW>
1.61343

>  <SCORE.INTRA.VDW.0>
-6.01229

>  <SCORE.INTRA.norm>
-0.121229

>  <SCORE.RESTR>
0.0681703

>  <SCORE.RESTR.CAVITY>
0.0681703

>  <SCORE.RESTR.norm>
0.0016231

>  <SCORE.SYSTEM>
0

>  <SCORE.SYSTEM.CONST>
0

>  <SCORE.SYSTEM.DIHEDRAL>
0

>  <SCORE.SYSTEM.SOLV>
0

>  <SCORE.SYSTEM.norm>
0

>  <SCORE.heavy>
42

>  <SCORE.norm>
-0.561548

>  <RMSD>
2.842

$$$$
2et4_lig
 OpenBabel11021811423D
libRbt.so/2013.1/901 2013/11/27
 42 45  0  0  0  0  0  0  0  0999 V2000
   13.4810    9.1224    6.0136 C   0  0  2  0  0  0  0  0  0  0  0  0
   14.1114    7.8692    5.7409 O   0  0  0  0  0  0  0  0  0  0  0  0
   12.0953    9.0975    5.3194 C   0  0  2  0  0  0  0  0  0  0  0  0
   11.2990    7.9869    5.7757 N   0  0  0  0  0  0  0  0  0  0  0  0
   12.2947    9.0469    3.7771 C   0  0  1  0  0  0  0  0  0  0  0  0
   11.0477    9.0410    3.1551 O   0  0  0  0  0  0  0  0  0  0  0  0
   13.1623   10.2794    3.3552 C   0  0  2  0  0  0  0  0  0  0  0  0
   13.3749   10.2695    1.9594 O   0  0  0  0  0  0  0  0  0  0  0  0
   14.5390   10.2657    4.0863 C   0  0  2  0  0  0  0  0  0  0  0  0
   14.3002   10.2552    5.4968 O   0  0  0  0  0  0  0  0  0  0  0  0
   15.4173   11.5065    3.7199 C   0  0  0  0  0  0  0  0  0  0  0  0
   14.7941   12.7314    4.0837 N   0  0  0  0  0  0  0  0  0  0  0  0
   17.2281    5.5835    7.6686 C   0  0  2  0  0  0  0  0  0  0  0  0
   18.5462    5.2211    8.2043 N   0  0  0  0  0  0  0  0  0  0  0  0
   17.3458    5.8497    6.0725 C   0  0  0  0  0  0  0  0  0  0  0  0
   15.9248    6.2542    5.5030 C   0  0  2  0  0  0  0  0  0  0  0  0
   15.9902    6.5309    4.0570 N   0  0  0  0  0  0  0  0  0  0  0  0
   15.4046    7.5247    6.2565 C   0  0  2  0  0  0  0  0  0  0  0  0
   15.3237    7.2633    7.7970 C   0  0  2  0  0  0  0  0  0  0  0  0
   14.8503    8.4937    8.3980 O   0  0  0  0  0  0  0  0  0  0  0  0
   16.7343    6.8733    8.3443 C   0  0  1  0  0  0  0  0  0  0  0  0
   16.6292    6.6343    9.7072 O   0  0  0  0  0  0  0  0  0  0  0  0
   13.5877    8.7193    8.8353 C   0  0  1  0  0  0  0  0  0  0  0  0
   13.1949    7.7093    9.9449 C   0  0  2  0  0  0  0  0  0  0  0  0
   12.7230    6.4942    9.4391 O   0  0  0  0  0  0  0  0  0  0  0  0
   12.2490    8.5818   10.7491 C   0  0  1  0  0  0  0  0  0  0  0  0
   12.8340   10.0011   10.7318 C   0  0  2  0  0  0  0  0  0  0  0  0
   13.3663   10.0365    9.4078 O   0  0  0  0  0  0  0  0  0  0  0  0
   13.9330   10.2917   11.8099 C   0  0  0  0  0  0  0  0  0  0  0  0
   14.4663   11.6154   11.5409 O   0  0  0  0  0  0  0  0  0  0  0  0
   10.1297    7.3865   10.3009 C   0  0  2  0  0  0  0  0  0  0  0  0
   10.9186    8.5252   10.0892 O   0  0  0  0  0  0  0  0  0  0  0  0
    8.6687    7.5746    9.7011 C   0  0  1  0  0  0  0  0  0  0  0  0
    8.6935    6.8116   14.5332 N   0  0  0  0  0  0  0  0  0  0  0  0
    7.8464    6.2187   10.0205 C   0  0  1  0  0  0  0  0  0  0  0  0
    8.5877    5.0580    9.3874 O   0  0  0  0  0  0  0  0  0  0  0  0
    7.7328    6.0070   11.6232 C   0  0  2  0  0  0  0  0  0  0  0  0
    7.0137    7.1221   12.2026 O   0  0  0  0  0  0  0  0  0  0  0  0
    9.2485    5.8560   12.2057 C   0  0  1  0  0  0  0  0  0  0  0  0
   10.0539    7.0670   11.8227 O   0  0  0  0  0  0  0  0  0  0  0  0
    9.2732    5.6685   13.7632 C   0  0  0  0  0  0  0  0  0  0  0  0
    8.0293    8.8018   10.2809 N   0  0  0  0  0  0  0  0  0  0  0  0
  1  2  1  6  0  0  0
  1  3  1  0  0  0  0
  1 10  1  0  0  0  0
  3  4  1  1  0  0  0
  3  5  1  0  0  0  0
  5  6  1  6  0  0  0
  5  7  1  0  0  0  0
  7  8  1  6  0  0  0
  7  9  1  0  0  0  0
  9 10  1  0  0  0  0
  9 11  1  1  0  0  0
 11 12  1  0  0  0  0
 13 14  1  1  0  0  0
 13 15  1  0  0  0  0
 13 21  1  0  0  0  0
 16 15  1  0  0  0  0
 16 17  1  6  0  0  0
 18  2  1  6  0  0  0
 18 16  1  0  0  0  0
 19 18  1  0  0  0  0
 19 20  1  1  0  0  0
 21 19  1  0  0  0  0
 21 22  1  1  0  0  0
 23 20  1  1  0  0  0
 23 24  1  0  0  0  0
 23 28  1  0  0  0  0
 24 25  1  6  0  0  0
 24 26  1  0  0  0  0
 26 27  1  0  0  0  0
 26 32  1  6  0  0  0
 27 28  1  0  0  0  0
 27 29  1  1  0  0  0
 29 30  1  0  0  0  0
 31 32  1  1  0  0  0
 31 40  1  0  0  0  0
 33 31  1  0  0  0  0
 33 42  1  1  0  0  0
 35 33  1  0  0  0  0
 35 36  1  6  0  0  0
 37 35  1  0  0  0  0
 37 38  1  1  0  0  0
 37 39  1  0  0  0  0
 39 40  1  0  0  0  0
 39 41  1  1  0  0  0
 41 34  1  0  0  0  0
M  END
>  <CHROM.1>
-178.46880679,60.81173503,-166.86582815,102.84454681,59.92622952,77.88192981
173.65073037,171.89210619,-61.28636555,12.75891337,8.09577444,8.17611429
0.87946723,0.15295116,-1.17626702

>  <Name>
2et4_lig

>  <RI>
3.65815e+07

>  <Rbt.Current_Directory>
/home/itssahil/PROJECTS/Mol_Feturizer/New_Systems/rnas/2et4

>  <Rbt.Executable>
rbdock ($Id: //depot/dev/client3/rdock/2013.1/src/exe/rbdock.cxx#4 $)

>  <Rbt.Library>
libRbt.so (2013.1, Build901 2013/11/27)

>  <Rbt.Parameter_File>
/export/apps/rDock/src/rDock_2013.1_src/data/scripts/dock_solv.prm

>  <Rbt.Receptor>
prm/pocket_docking_4.prm

>  <SCORE>
-20.2108

>  <SCORE.INTER>
-15.7442

>  <SCORE.INTER.CONST>
1

>  <SCORE.INTER.POLAR>
-1.65893

>  <SCORE.INTER.ROT>
9

>  <SCORE.INTER.SOLV>
21.9623

>  <SCORE.INTER.VDW>
-21.8872

>  <SCORE.INTER.norm>
-0.374863

>  <SCORE.INTRA>
-5.16828

>  <SCORE.INTRA.DIHEDRAL>
-12.9122

>  <SCORE.INTRA.DIHEDRAL.0>
21.6909

>  <SCORE.INTRA.POLAR>
0

>  <SCORE.INTRA.POLAR.0>
0

>  <SCORE.INTRA.REPUL>
0

>  <SCORE.INTRA.REPUL.0>
0

>  <SCORE.INTRA.SOLV>
-1.3335

>  <SCORE.INTRA.SOLV.lig_0>
-116.606

>  <SCORE.INTRA.VDW>
1.95459

>  <SCORE.INTRA.VDW.0>
-6.01229

>  <SCORE.INTRA.norm>
-0.123054

>  <SCORE.RESTR>
0.701679

>  <SCORE.RESTR.CAVITY>
0.701679

>  <SCORE.RESTR.norm>
0.0167066

>  <SCORE.SYSTEM>
0

>  <SCORE.SYSTEM.CONST>
0

>  <SCORE.SYSTEM.DIHEDRAL>
0

>  <SCORE.SYSTEM.SOLV>
0

>  <SCORE.SYSTEM.norm>
0

>  <SCORE.heavy>
42

>  <SCORE.norm>
-0.481211

>  <RMSD>
2.848

$$$$
2et4_lig
 OpenBabel11021811423D
libRbt.so/2013.1/901 2013/11/27
 42 45  0  0  0  0  0  0  0  0999 V2000
   14.3183    9.1348    5.7898 C   0  0  2  0  0  0  0  0  0  0  0  0
   15.0896    8.0919    5.1902 O   0  0  0  0  0  0  0  0  0  0  0  0
   12.8483    8.9310    5.3424 C   0  0  2  0  0  0  0  0  0  0  0  0
   12.3629    7.6257    5.7118 N   0  0  0  0  0  0  0  0  0  0  0  0
   12.7440    9.1526    3.8057 C   0  0  1  0  0  0  0  0  0  0  0  0
   11.4188    8.9846    3.4088 O   0  0  0  0  0  0  0  0  0  0  0  0
   13.2838   10.5852    3.4803 C   0  0  2  0  0  0  0  0  0  0  0  0
   13.2143   10.8271    2.0909 O   0  0  0  0  0  0  0  0  0  0  0  0
   14.7591   10.7443    3.9578 C   0  0  2  0  0  0  0  0  0  0  0  0
   14.8099   10.4752    5.3620 O   0  0  0  0  0  0  0  0  0  0  0  0
   15.3189   12.1790    3.6859 C   0  0  0  0  0  0  0  0  0  0  0  0
   15.4734   12.4404    2.2971 N   0  0  0  0  0  0  0  0  0  0  0  0
   18.7358    5.9052    5.9509 C   0  0  2  0  0  0  0  0  0  0  0  0
   20.1294    5.6276    6.3202 N   0  0  0  0  0  0  0  0  0  0  0  0
   18.7017    6.9278    4.6918 C   0  0  0  0  0  0  0  0  0  0  0  0
   17.1966    7.2348    4.3073 C   0  0  2  0  0  0  0  0  0  0  0  0
   17.1178    8.1824    3.1815 N   0  0  0  0  0  0  0  0  0  0  0  0
   16.4540    7.8337    5.5492 C   0  0  2  0  0  0  0  0  0  0  0  0
   16.5197    6.8501    6.7641 C   0  0  2  0  0  0  0  0  0  0  0  0
   15.8229    7.4990    7.8561 O   0  0  0  0  0  0  0  0  0  0  0  0
   18.0102    6.5638    7.1356 C   0  0  1  0  0  0  0  0  0  0  0  0
   18.0374    5.6796    8.2047 O   0  0  0  0  0  0  0  0  0  0  0  0
   14.7337    7.0076    8.4952 C   0  0  1  0  0  0  0  0  0  0  0  0
   14.8993    5.4944    8.7924 C   0  0  2  0  0  0  0  0  0  0  0  0
   14.5408    4.6806    7.7134 O   0  0  0  0  0  0  0  0  0  0  0  0
   14.0916    5.4048   10.0740 C   0  0  1  0  0  0  0  0  0  0  0  0
   14.3573    6.6991   10.8556 C   0  0  2  0  0  0  0  0  0  0  0  0
   14.4457    7.6296    9.7766 O   0  0  0  0  0  0  0  0  0  0  0  0
   15.6534    6.7024   11.7358 C   0  0  0  0  0  0  0  0  0  0  0  0
   15.4984    5.6661   12.7414 O   0  0  0  0  0  0  0  0  0  0  0  0
   11.7323    5.0167   10.7100 C   0  0  2  0  0  0  0  0  0  0  0  0
   12.6611    5.2742    9.6927 O   0  0  0  0  0  0  0  0  0  0  0  0
   10.3230    4.5858   10.1118 C   0  0  1  0  0  0  0  0  0  0  0  0
   11.8993    7.9233   14.1161 N   0  0  0  0  0  0  0  0  0  0  0  0
    9.3313    4.3374   11.3655 C   0  0  1  0  0  0  0  0  0  0  0  0
    9.9415    3.2627   12.2430 O   0  0  0  0  0  0  0  0  0  0  0  0
    9.1476    5.7119   12.2042 C   0  0  2  0  0  0  0  0  0  0  0  0
    8.5554    6.7184   11.3484 O   0  0  0  0  0  0  0  0  0  0  0  0
   10.6163    6.1410   12.7686 C   0  0  1  0  0  0  0  0  0  0  0  0
   11.5751    6.2721   11.6173 O   0  0  0  0  0  0  0  0  0  0  0  0
   10.5740    7.4807   13.5840 C   0  0  0  0  0  0  0  0  0  0  0  0
    9.8237    5.6369    9.1648 N   0  0  0  0  0  0  0  0  0  0  0  0
  1  2  1  6  0  0  0
  1  3  1  0  0  0  0
  1 10  1  0  0  0  0
  3  4  1  6  0  0  0
  3  5  1  0  0  0  0
  5  6  1  1  0  0  0
  5  7  1  0  0  0  0
  7  8  1  6  0  0  0
  7  9  1  0  0  0  0
  9 10  1  0  0  0  0
  9 11  1  1  0  0  0
 11 12  1  0  0  0  0
 13 14  1  1  0  0  0
 13 15  1  0  0  0  0
 13 21  1  0  0  0  0
 16 15  1  0  0  0  0
 16 17  1  6  0  0  0
 18  2  1  6  0  0  0
 18 16  1  0  0  0  0
 19 18  1  0  0  0  0
 19 20  1  1  0  0  0
 21 19  1  0  0  0  0
 21 22  1  1  0  0  0
 23 20  1  1  0  0  0
 23 24  1  0  0  0  0
 23 28  1  0  0  0  0
 24 25  1  6  0  0  0
 24 26  1  0  0  0  0
 26 27  1  0  0  0  0
 26 32  1  6  0  0  0
 27 28  1  0  0  0  0
 27 29  1  6  0  0  0
 29 30  1  0  0  0  0
 31 32  1  6  0  0  0
 31 40  1  0  0  0  0
 33 31  1  0  0  0  0
 33 42  1  6  0  0  0
 35 33  1  0  0  0  0
 35 36  1  1  0  0  0
 37 35  1  0  0  0  0
 37 38  1  6  0  0  0
 37 39  1  0  0  0  0
 39 40  1  0  0  0  0
 39 41  1  6  0  0  0
 41 34  1  0  0  0  0
M  END
>  <CHROM.1>
-169.77491616,-68.01551892,-150.57625740,120.45993483,43.52014518,172.64111154
-62.57393820,-167.24950107,-179.60479891,13.95292310,7.26141601,7.85839323
1.06070152,0.24108976,-1.00972319

>  <Name>
2et4_lig

>  <RI>
3.65815e+07

>  <Rbt.Current_Directory>
/home/itssahil/PROJECTS/Mol_Feturizer/New_Systems/rnas/2et4

>  <Rbt.Executable>
rbdock ($Id: //depot/dev/client3/rdock/2013.1/src/exe/rbdock.cxx#4 $)

>  <Rbt.Library>
libRbt.so (2013.1, Build901 2013/11/27)

>  <Rbt.Parameter_File>
/export/apps/rDock/src/rDock_2013.1_src/data/scripts/dock_solv.prm

>  <Rbt.Receptor>
prm/pocket_docking_4.prm

>  <SCORE>
-21.3618

>  <SCORE.INTER>
-17.349

>  <SCORE.INTER.CONST>
1

>  <SCORE.INTER.POLAR>
-1.74114

>  <SCORE.INTER.ROT>
9

>  <SCORE.INTER.SOLV>
16.8873

>  <SCORE.INTER.VDW>
-20.9913

>  <SCORE.INTER.norm>
-0.413071

>  <SCORE.INTRA>
-4.01279

>  <SCORE.INTRA.DIHEDRAL>
-7.7843

>  <SCORE.INTRA.DIHEDRAL.0>
21.6909

>  <SCORE.INTRA.POLAR>
0

>  <SCORE.INTRA.POLAR.0>
0

>  <SCORE.INTRA.REPUL>
0

>  <SCORE.INTRA.REPUL.0>
0

>  <SCORE.INTRA.SOLV>
-1.99466

>  <SCORE.INTRA.SOLV.lig_0>
-116.606

>  <SCORE.INTRA.VDW>
0.876688

>  <SCORE.INTRA.VDW.0>
-6.01229

>  <SCORE.INTRA.norm>
-0.0955426

>  <SCORE.RESTR>
0

>  <SCORE.RESTR.CAVITY>
0

>  <SCORE.RESTR.norm>
0

>  <SCORE.SYSTEM>
0

>  <SCORE.SYSTEM.CONST>
0

>  <SCORE.SYSTEM.DIHEDRAL>
0

>  <SCORE.SYSTEM.SOLV>
0

>  <SCORE.SYSTEM.norm>
0

>  <SCORE.heavy>
42

>  <SCORE.norm>
-0.508613

>  <RMSD>
2.848

$$$$
2et4_lig
 OpenBabel11021811423D
libRbt.so/2013.1/901 2013/11/27
 42 45  0  0  0  0  0  0  0  0999 V2000
   13.6880    8.4682    6.7250 C   0  0  2  0  0  0  0  0  0  0  0  0
   14.2539    7.2301    6.2902 O   0  0  0  0  0  0  0  0  0  0  0  0
   12.1954    8.4602    6.3068 C   0  0  2  0  0  0  0  0  0  0  0  0
   11.4998    7.3284    6.8642 N   0  0  0  0  0  0  0  0  0  0  0  0
   12.0974    8.4682    4.7539 C   0  0  1  0  0  0  0  0  0  0  0  0
   10.7548    8.4774    4.3809 O   0  0  0  0  0  0  0  0  0  0  0  0
   12.8697    9.7211    4.2213 C   0  0  2  0  0  0  0  0  0  0  0  0
   12.8126    9.7644    2.8112 O   0  0  0  0  0  0  0  0  0  0  0  0
   14.3604    9.6891    4.6760 C   0  0  2  0  0  0  0  0  0  0  0  0
   14.3946    9.6247    6.1048 O   0  0  0  0  0  0  0  0  0  0  0  0
   15.1538   10.9483    4.1962 C   0  0  0  0  0  0  0  0  0  0  0  0
   15.3071   10.9797    2.7832 N   0  0  0  0  0  0  0  0  0  0  0  0
   17.7485    4.8429    7.1526 C   0  0  2  0  0  0  0  0  0  0  0  0
   19.1527    4.4813    7.3835 N   0  0  0  0  0  0  0  0  0  0  0  0
   17.5841    5.4524    5.6580 C   0  0  0  0  0  0  0  0  0  0  0  0
   16.0710    5.8539    5.4199 C   0  0  2  0  0  0  0  0  0  0  0  0
   15.8800    6.4373    4.0802 N   0  0  0  0  0  0  0  0  0  0  0  0
   15.6294    6.8882    6.5097 C   0  0  2  0  0  0  0  0  0  0  0  0
   15.8205    6.2983    7.9461 C   0  0  2  0  0  0  0  0  0  0  0  0
   15.4011    7.3299    8.8729 O   0  0  0  0  0  0  0  0  0  0  0  0
   17.3189    5.9147    8.1677 C   0  0  1  0  0  0  0  0  0  0  0  0
   17.4553    5.3825    9.4420 O   0  0  0  0  0  0  0  0  0  0  0  0
   14.2052    7.3757    9.5086 C   0  0  1  0  0  0  0  0  0  0  0  0
   13.8467    5.9956   10.1186 C   0  0  2  0  0  0  0  0  0  0  0  0
   13.2418    5.1306    9.2016 O   0  0  0  0  0  0  0  0  0  0  0  0
   13.0470    6.4581   11.3225 C   0  0  1  0  0  0  0  0  0  0  0  0
   13.7295    7.7304   11.8444 C   0  0  2  0  0  0  0  0  0  0  0  0
   14.1354    8.3212   10.6100 O   0  0  0  0  0  0  0  0  0  0  0  0
   14.9437    7.4990   12.8071 C   0  0  0  0  0  0  0  0  0  0  0  0
   16.0061    6.8884   12.0276 O   0  0  0  0  0  0  0  0  0  0  0  0
   10.7071    7.0859   11.8244 C   0  0  2  0  0  0  0  0  0  0  0  0
   11.6596    6.7255   10.8617 O   0  0  0  0  0  0  0  0  0  0  0  0
   10.0324    5.8033   12.4799 C   0  0  1  0  0  0  0  0  0  0  0  0
    8.1595   10.5640   10.6320 N   0  0  0  0  0  0  0  0  0  0  0  0
    8.9431    6.3353   13.5509 C   0  0  1  0  0  0  0  0  0  0  0  0
    9.6649    7.1949   14.5696 O   0  0  0  0  0  0  0  0  0  0  0  0
    7.8010    7.1999   12.7931 C   0  0  2  0  0  0  0  0  0  0  0  0
    7.1206    6.3557   11.8336 O   0  0  0  0  0  0  0  0  0  0  0  0
    8.5349    8.4828   12.1036 C   0  0  1  0  0  0  0  0  0  0  0  0
    9.6227    8.0010   11.1835 O   0  0  0  0  0  0  0  0  0  0  0  0
    7.5297    9.3913   11.3129 C   0  0  0  0  0  0  0  0  0  0  0  0
    9.4339    4.9354   11.4124 N   0  0  0  0  0  0  0  0  0  0  0  0
  1  2  1  6  0  0  0
  1  3  1  0  0  0  0
  1 10  1  0  0  0  0
  3  4  1  6  0  0  0
  3  5  1  0  0  0  0
  5  6  1  1  0  0  0
  5  7  1  0  0  0  0
  7  8  1  6  0  0  0
  7  9  1  0  0  0  0
  9 10  1  0  0  0  0
  9 11  1  1  0  0  0
 11 12  1  0  0  0  0
 13 14  1  1  0  0  0
 13 15  1  0  0  0  0
 13 21  1  0  0  0  0
 16 15  1  0  0  0  0
 16 17  1  6  0  0  0
 18  2  1  6  0  0  0
 18 16  1  0  0  0  0
 19 18  1  0  0  0  0
 19 20  1  1  0  0  0
 21 19  1  0  0  0  0
 21 22  1  1  0  0  0
 23 20  1  1  0  0  0
 23 24  1  0  0  0  0
 23 28  1  0  0  0  0
 24 25  1  6  0  0  0
 24 26  1  0  0  0  0
 26 27  1  0  0  0  0
 26 32  1  6  0  0  0
 27 28  1  0  0  0  0
 27 29  1  1  0  0  0
 29 30  1  0  0  0  0
 31 32  1  6  0  0  0
 31 40  1  0  0  0  0
 33 31  1  0  0  0  0
 33 42  1  6  0  0  0
 35 33  1  0  0  0  0
 35 36  1  1  0  0  0
 37 35  1  0  0  0  0
 37 38  1  6  0  0  0
 37 39  1  0  0  0  0
 39 40  1  0  0  0  0
 39 41  1  6  0  0  0
 41 34  1  0  0  0  0
M  END
>  <CHROM.1>
-179.95542979,-67.32386581,-154.94377053,100.75400832,46.58308742,175.98026967
67.12611392,-86.71884702,-178.51888173,13.07879422,7.42355702,8.65101457
0.77821367,0.36655635,-1.16220400

>  <Name>
2et4_lig

>  <RI>
0

>  <Rbt.Current_Directory>
/home/itssahil/PROJECTS/Mol_Feturizer/New_Systems/rnas/2et4

>  <Rbt.Executable>
rbdock ($Id: //depot/dev/client3/rdock/2013.1/src/exe/rbdock.cxx#4 $)

>  <Rbt.Library>
libRbt.so (2013.1, Build901 2013/11/27)

>  <Rbt.Parameter_File>
/export/apps/rDock/src/rDock_2013.1_src/data/scripts/dock_solv.prm

>  <Rbt.Receptor>
prm/pocket_docking_5.prm

>  <SCORE>
-19.3693

>  <SCORE.INTER>
-15.2208

>  <SCORE.INTER.CONST>
1

>  <SCORE.INTER.POLAR>
-2.06866

>  <SCORE.INTER.ROT>
9

>  <SCORE.INTER.SOLV>
13.5582

>  <SCORE.INTER.VDW>
-17.371

>  <SCORE.INTER.norm>
-0.3624

>  <SCORE.INTRA>
-4.1485

>  <SCORE.INTRA.DIHEDRAL>
-9.06644

>  <SCORE.INTRA.DIHEDRAL.0>
21.6909

>  <SCORE.INTRA.POLAR>
0

>  <SCORE.INTRA.POLAR.0>
0

>  <SCORE.INTRA.REPUL>
0

>  <SCORE.INTRA.REPUL.0>
0

>  <SCORE.INTRA.SOLV>
-1.06914

>  <SCORE.INTRA.SOLV.lig_0>
-116.606

>  <SCORE.INTRA.VDW>
0.919287

>  <SCORE.INTRA.VDW.0>
-6.01229

>  <SCORE.INTRA.norm>
-0.0987739

>  <SCORE.RESTR>
0

>  <SCORE.RESTR.CAVITY>
0

>  <SCORE.RESTR.norm>
0

>  <SCORE.SYSTEM>
0

>  <SCORE.SYSTEM.CONST>
0

>  <SCORE.SYSTEM.DIHEDRAL>
0

>  <SCORE.SYSTEM.SOLV>
0

>  <SCORE.SYSTEM.norm>
0

>  <SCORE.heavy>
42

>  <SCORE.norm>
-0.461173

>  <RMSD>
2.854

$$$$
2et4_lig
 OpenBabel11021811423D
libRbt.so/2013.1/901 2013/11/27
 42 45  0  0  0  0  0  0  0  0999 V2000
   13.2210    9.5895    5.1111 C   0  0  2  0  0  0  0  0  0  0  0  0
   14.2415    8.5972    4.9842 O   0  0  0  0  0  0  0  0  0  0  0  0
   12.2516    9.4035    3.9160 C   0  0  2  0  0  0  0  0  0  0  0  0
   11.7029    8.0717    3.8871 N   0  0  0  0  0  0  0  0  0  0  0  0
   13.0010    9.7289    2.5917 C   0  0  1  0  0  0  0  0  0  0  0  0
   12.1229    9.5766    1.5205 O   0  0  0  0  0  0  0  0  0  0  0  0
   13.5652   11.1853    2.6939 C   0  0  2  0  0  0  0  0  0  0  0  0
   14.2615   11.5211    1.5124 O   0  0  0  0  0  0  0  0  0  0  0  0
   14.5244   11.3247    3.9146 C   0  0  2  0  0  0  0  0  0  0  0  0
   13.8056   10.9605    5.0967 O   0  0  0  0  0  0  0  0  0  0  0  0
   15.0756   12.7796    4.0725 C   0  0  0  0  0  0  0  0  0  0  0  0
   15.9086   13.1589    2.9847 N   0  0  0  0  0  0  0  0  0  0  0  0
   16.2270    6.0376    7.8409 C   0  0  2  0  0  0  0  0  0  0  0  0
   17.0715    5.6155    8.9654 N   0  0  0  0  0  0  0  0  0  0  0  0
   17.1351    6.8107    6.7409 C   0  0  0  0  0  0  0  0  0  0  0  0
   16.2168    7.2761    5.5378 C   0  0  2  0  0  0  0  0  0  0  0  0
   16.9978    8.0073    4.5244 N   0  0  0  0  0  0  0  0  0  0  0  0
   15.0728    8.1967    6.0822 C   0  0  2  0  0  0  0  0  0  0  0  0
   14.2236    7.4486    7.1625 C   0  0  2  0  0  0  0  0  0  0  0  0
   13.2109    8.3836    7.6088 O   0  0  0  0  0  0  0  0  0  0  0  0
   15.1422    7.0032    8.3454 C   0  0  1  0  0  0  0  0  0  0  0  0
   14.3661    6.3316    9.2793 O   0  0  0  0  0  0  0  0  0  0  0  0
   12.1746    8.0865    8.4298 C   0  0  1  0  0  0  0  0  0  0  0  0
   10.9693    9.0263    8.1659 C   0  0  2  0  0  0  0  0  0  0  0  0
   11.0629   10.2437    8.8472 O   0  0  0  0  0  0  0  0  0  0  0  0
    9.8366    8.0791    8.5162 C   0  0  1  0  0  0  0  0  0  0  0  0
   10.2553    6.6872    8.0223 C   0  0  2  0  0  0  0  0  0  0  0  0
   11.6559    6.7359    8.2937 O   0  0  0  0  0  0  0  0  0  0  0  0
    9.9642    6.3909    6.5116 C   0  0  0  0  0  0  0  0  0  0  0  0
    8.5822    5.9559    6.4125 O   0  0  0  0  0  0  0  0  0  0  0  0
   10.4427    7.2359   10.7619 C   0  0  2  0  0  0  0  0  0  0  0  0
    9.6662    8.1127    9.9922 O   0  0  0  0  0  0  0  0  0  0  0  0
    9.6422    6.7199   12.0358 C   0  0  1  0  0  0  0  0  0  0  0  0
   14.6252    8.6276   11.2061 N   0  0  0  0  0  0  0  0  0  0  0  0
   10.6352    5.7407   12.8555 C   0  0  1  0  0  0  0  0  0  0  0  0
   11.0489    4.6106   11.9341 O   0  0  0  0  0  0  0  0  0  0  0  0
   11.9377    6.5669   13.3530 C   0  0  2  0  0  0  0  0  0  0  0  0
   11.5179    7.6332   14.2378 O   0  0  0  0  0  0  0  0  0  0  0  0
   12.7099    7.1105   12.0234 C   0  0  1  0  0  0  0  0  0  0  0  0
   11.7623    7.9373   11.1984 O   0  0  0  0  0  0  0  0  0  0  0  0
   13.9853    7.9530   12.3769 C   0  0  0  0  0  0  0  0  0  0  0  0
    9.1619    7.8863   12.8480 N   0  0  0  0  0  0  0  0  0  0  0  0
  1  2  1  6  0  0  0
  1  3  1  0  0  0  0
  1 10  1  0  0  0  0
  3  4  1  6  0  0  0
  3  5  1  0  0  0  0
  5  6  1  6  0  0  0
  5  7  1  0  0  0  0
  7  8  1  6  0  0  0
  7  9  1  0  0  0  0
  9 10  1  0  0  0  0
  9 11  1  1  0  0  0
 11 12  1  0  0  0  0
 13 14  1  1  0  0  0
 13 15  1  0  0  0  0
 13 21  1  0  0  0  0
 16 15  1  0  0  0  0
 16 17  1  6  0  0  0
 18  2  1  6  0  0  0
 18 16  1  0  0  0  0
 19 18  1  0  0  0  0
 19 20  1  1  0  0  0
 21 19  1  0  0  0  0
 21 22  1  1  0  0  0
 23 20  1  6  0  0  0
 23 24  1  0  0  0  0
 23 28  1  0  0  0  0
 24 25  1  1  0  0  0
 24 26  1  0  0  0  0
 26 27  1  0  0  0  0
 26 32  1  1  0  0  0
 27 28  1  0  0  0  0
 27 29  1  6  0  0  0
 29 30  1  0  0  0  0
 31 32  1  1  0  0  0
 31 40  1  0  0  0  0
 33 31  1  0  0  0  0
 33 42  1  1  0  0  0
 35 33  1  0  0  0  0
 35 36  1  6  0  0  0
 37 35  1  0  0  0  0
 37 38  1  1  0  0  0
 37 39  1  0  0  0  0
 39 40  1  0  0  0  0
 39 41  1  1  0  0  0
 41 34  1  0  0  0  0
M  END
>  <CHROM.1>
-160.90094714,-65.31095727,-170.94668622,172.06775361,-152.38819572,-87.48554822
-83.66619395,-145.14697874,-172.18010389,12.85118536,8.20439542,7.67730895
1.24443629,0.06384443,-1.16116821

>  <Name>
2et4_lig

>  <RI>
0

>  <Rbt.Current_Directory>
/home/itssahil/PROJECTS/Mol_Feturizer/New_Systems/rnas/2et4

>  <Rbt.Executable>
rbdock ($Id: //depot/dev/client3/rdock/2013.1/src/exe/rbdock.cxx#4 $)

>  <Rbt.Library>
libRbt.so (2013.1, Build901 2013/11/27)

>  <Rbt.Parameter_File>
/export/apps/rDock/src/rDock_2013.1_src/data/scripts/dock_solv.prm

>  <Rbt.Receptor>
prm/pocket_docking_3.prm

>  <SCORE>
-17.543

>  <SCORE.INTER>
-16.4047

>  <SCORE.INTER.CONST>
1

>  <SCORE.INTER.POLAR>
-1.7302

>  <SCORE.INTER.ROT>
9

>  <SCORE.INTER.SOLV>
19.8964

>  <SCORE.INTER.VDW>
-21.4012

>  <SCORE.INTER.norm>
-0.390587

>  <SCORE.INTRA>
-1.27959

>  <SCORE.INTRA.DIHEDRAL>
-6.36774

>  <SCORE.INTRA.DIHEDRAL.0>
21.6909

>  <SCORE.INTRA.POLAR>
0

>  <SCORE.INTRA.POLAR.0>
0

>  <SCORE.INTRA.REPUL>
0

>  <SCORE.INTRA.REPUL.0>
0

>  <SCORE.INTRA.SOLV>
0.895215

>  <SCORE.INTRA.SOLV.lig_0>
-116.606

>  <SCORE.INTRA.VDW>
1.45667

>  <SCORE.INTRA.VDW.0>
-6.01229

>  <SCORE.INTRA.norm>
-0.0304664

>  <SCORE.RESTR>
0.141265

>  <SCORE.RESTR.CAVITY>
0.141265

>  <SCORE.RESTR.norm>
0.00336345

>  <SCORE.SYSTEM>
0

>  <SCORE.SYSTEM.CONST>
0

>  <SCORE.SYSTEM.DIHEDRAL>
0

>  <SCORE.SYSTEM.SOLV>
0

>  <SCORE.SYSTEM.norm>
0

>  <SCORE.heavy>
42

>  <SCORE.norm>
-0.41769

>  <RMSD>
2.950

$$$$
2et4_lig
 OpenBabel11021811423D
libRbt.so/2013.1/901 2013/11/27
 42 45  0  0  0  0  0  0  0  0999 V2000
   14.2817    9.2004    5.7148 C   0  0  2  0  0  0  0  0  0  0  0  0
   15.0507    8.1598    5.1082 O   0  0  0  0  0  0  0  0  0  0  0  0
   12.8217    9.0374    5.2203 C   0  0  2  0  0  0  0  0  0  0  0  0
   12.3019    7.7321    5.5388 N   0  0  0  0  0  0  0  0  0  0  0  0
   12.7660    9.3034    3.6881 C   0  0  1  0  0  0  0  0  0  0  0  0
   11.4500    9.1721    3.2491 O   0  0  0  0  0  0  0  0  0  0  0  0
   13.3415   10.7338    3.4186 C   0  0  2  0  0  0  0  0  0  0  0  0
   13.3166   11.0153    2.0353 O   0  0  0  0  0  0  0  0  0  0  0  0
   14.8050   10.8512    3.9422 C   0  0  2  0  0  0  0  0  0  0  0  0
   14.8102   10.5424    5.3391 O   0  0  0  0  0  0  0  0  0  0  0  0
   15.3988   12.2817    3.7269 C   0  0  0  0  0  0  0  0  0  0  0  0
   15.6504   12.5575    2.3551 N   0  0  0  0  0  0  0  0  0  0  0  0
   18.5692    5.8468    6.0697 C   0  0  2  0  0  0  0  0  0  0  0  0
   19.9414    5.5241    6.4805 N   0  0  0  0  0  0  0  0  0  0  0  0
   18.6056    6.7877    4.7485 C   0  0  0  0  0  0  0  0  0  0  0  0
   17.1240    7.1442    4.3186 C   0  0  2  0  0  0  0  0  0  0  0  0
   17.1100    8.0210    3.1343 N   0  0  0  0  0  0  0  0  0  0  0  0
   16.3947    7.8573    5.5070 C   0  0  2  0  0  0  0  0  0  0  0  0
   16.3925    6.9509    6.7823 C   0  0  2  0  0  0  0  0  0  0  0  0
   15.7136    7.7019    7.8187 O   0  0  0  0  0  0  0  0  0  0  0  0
   17.8608    6.6149    7.1976 C   0  0  1  0  0  0  0  0  0  0  0  0
   17.8273    5.8003    8.3205 O   0  0  0  0  0  0  0  0  0  0  0  0
   14.5318    7.3628    8.3885 C   0  0  1  0  0  0  0  0  0  0  0  0
   14.4348    5.8289    8.5964 C   0  0  2  0  0  0  0  0  0  0  0  0
   13.9961    5.1472    7.4572 O   0  0  0  0  0  0  0  0  0  0  0  0
   13.5679    5.8030    9.8416 C   0  0  1  0  0  0  0  0  0  0  0  0
   14.0067    6.9898   10.7108 C   0  0  2  0  0  0  0  0  0  0  0  0
   14.2932    7.9515    9.6955 O   0  0  0  0  0  0  0  0  0  0  0  0
   15.2460    6.7294   11.6333 C   0  0  0  0  0  0  0  0  0  0  0  0
   14.8479    5.7508   12.6298 O   0  0  0  0  0  0  0  0  0  0  0  0
   11.5179    4.7925    8.8940 C   0  0  2  0  0  0  0  0  0  0  0  0
   12.1534    5.9326    9.4042 O   0  0  0  0  0  0  0  0  0  0  0  0
   10.0598    5.1335    8.3578 C   0  0  1  0  0  0  0  0  0  0  0  0
   10.2912    0.0244   10.4600 N   0  0  0  0  0  0  0  0  0  0  0  0
    9.4175    3.7507    7.8175 C   0  0  1  0  0  0  0  0  0  0  0  0
   10.3217    3.2043    6.7305 O   0  0  0  0  0  0  0  0  0  0  0  0
    9.2940    2.6874    9.0342 C   0  0  2  0  0  0  0  0  0  0  0  0
    8.4193    3.2274   10.0537 O   0  0  0  0  0  0  0  0  0  0  0  0
   10.8018    2.3920    9.5812 C   0  0  1  0  0  0  0  0  0  0  0  0
   11.4482    3.6874    9.9885 O   0  0  0  0  0  0  0  0  0  0  0  0
   10.8131    1.3871   10.7859 C   0  0  0  0  0  0  0  0  0  0  0  0
    9.2492    5.7744    9.4454 N   0  0  0  0  0  0  0  0  0  0  0  0
  1  2  1  6  0  0  0
  1  3  1  0  0  0  0
  1 10  1  0  0  0  0
  3  4  1  6  0  0  0
  3  5  1  0  0  0  0
  5  6  1  1  0  0  0
  5  7  1  0  0  0  0
  7  8  1  6  0  0  0
  7  9  1  0  0  0  0
  9 10  1  0  0  0  0
  9 11  1  1  0  0  0
 11 12  1  0  0  0  0
 13 14  1  1  0  0  0
 13 15  1  0  0  0  0
 13 21  1  0  0  0  0
 16 15  1  0  0  0  0
 16 17  1  6  0  0  0
 18  2  1  6  0  0  0
 18 16  1  0  0  0  0
 19 18  1  0  0  0  0
 19 20  1  1  0  0  0
 21 19  1  0  0  0  0
 21 22  1  1  0  0  0
 23 20  1  1  0  0  0
 23 24  1  0  0  0  0
 23 28  1  0  0  0  0
 24 25  1  6  0  0  0
 24 26  1  0  0  0  0
 26 27  1  0  0  0  0
 26 32  1  6  0  0  0
 27 28  1  0  0  0  0
 27 29  1  6  0  0  0
 29 30  1  0  0  0  0
 31 32  1  1  0  0  0
 31 40  1  0  0  0  0
 33 31  1  0  0  0  0
 33 42  1  1  0  0  0
 35 33  1  0  0  0  0
 35 36  1  6  0  0  0
 37 35  1  0  0  0  0
 37 38  1  1  0  0  0
 37 39  1  0  0  0  0
 39 40  1  0  0  0  0
 39 41  1  1  0  0  0
 41 34  1  0  0  0  0
M  END
>  <CHROM.1>
-169.17140861,-70.46736040,-156.45516777,114.54304449,38.51545917,78.61255442
-66.75835325,-175.02002188,62.55168191,13.79643689,6.72238853,7.14561057
1.05555020,-0.12684100,-0.81689051

>  <Name>
2et4_lig

>  <RI>
3.65815e+07

>  <Rbt.Current_Directory>
/home/itssahil/PROJECTS/Mol_Feturizer/New_Systems/rnas/2et4

>  <Rbt.Executable>
rbdock ($Id: //depot/dev/client3/rdock/2013.1/src/exe/rbdock.cxx#4 $)

>  <Rbt.Library>
libRbt.so (2013.1, Build901 2013/11/27)

>  <Rbt.Parameter_File>
/export/apps/rDock/src/rDock_2013.1_src/data/scripts/dock_solv.prm

>  <Rbt.Receptor>
prm/pocket_docking_4.prm

>  <SCORE>
-20.6476

>  <SCORE.INTER>
-17.5429

>  <SCORE.INTER.CONST>
1

>  <SCORE.INTER.POLAR>
-1.74093

>  <SCORE.INTER.ROT>
9

>  <SCORE.INTER.SOLV>
17.7428

>  <SCORE.INTER.VDW>
-21.4064

>  <SCORE.INTER.norm>
-0.417687

>  <SCORE.INTRA>
-3.10732

>  <SCORE.INTRA.DIHEDRAL>
-7.18637

>  <SCORE.INTRA.DIHEDRAL.0>
21.6909

>  <SCORE.INTRA.POLAR>
0

>  <SCORE.INTRA.POLAR.0>
0

>  <SCORE.INTRA.REPUL>
0

>  <SCORE.INTRA.REPUL.0>
0

>  <SCORE.INTRA.SOLV>
-1.64981

>  <SCORE.INTRA.SOLV.lig_0>
-116.606

>  <SCORE.INTRA.VDW>
1.31077

>  <SCORE.INTRA.VDW.0>
-6.01229

>  <SCORE.INTRA.norm>
-0.0739839

>  <SCORE.RESTR>
0.00253507

>  <SCORE.RESTR.CAVITY>
0.00253507

>  <SCORE.RESTR.norm>
6.03588e-05

>  <SCORE.SYSTEM>
0

>  <SCORE.SYSTEM.CONST>
0

>  <SCORE.SYSTEM.DIHEDRAL>
0

>  <SCORE.SYSTEM.SOLV>
0

>  <SCORE.SYSTEM.norm>
0

>  <SCORE.heavy>
42

>  <SCORE.norm>
-0.491611

>  <RMSD>
3.060

$$$$
2et4_lig
 OpenBabel11021811423D
libRbt.so/2013.1/901 2013/11/27
 42 45  0  0  0  0  0  0  0  0999 V2000
   15.4651    8.4926    4.2490 C   0  0  2  0  0  0  0  0  0  0  0  0
   15.5524    8.7668    5.6488 O   0  0  0  0  0  0  0  0  0  0  0  0
   15.0125    9.8021    3.5541 C   0  0  2  0  0  0  0  0  0  0  0  0
   15.9210   10.8852    3.8319 N   0  0  0  0  0  0  0  0  0  0  0  0
   13.5671   10.1527    4.0113 C   0  0  1  0  0  0  0  0  0  0  0  0
   13.1568   11.3214    3.3727 O   0  0  0  0  0  0  0  0  0  0  0  0
   12.6397    8.9370    3.6769 C   0  0  2  0  0  0  0  0  0  0  0  0
   11.3152    9.2097    4.0827 O   0  0  0  0  0  0  0  0  0  0  0  0
   13.1410    7.6440    4.3888 C   0  0  2  0  0  0  0  0  0  0  0  0
   14.4897    7.3982    3.9799 O   0  0  0  0  0  0  0  0  0  0  0  0
   12.2611    6.3981    4.0440 C   0  0  0  0  0  0  0  0  0  0  0  0
   10.9381    6.5187    4.5503 N   0  0  0  0  0  0  0  0  0  0  0  0
   16.4850    4.9291    7.3972 C   0  0  2  0  0  0  0  0  0  0  0  0
   16.9503    3.9275    8.3647 N   0  0  0  0  0  0  0  0  0  0  0  0
   17.7137    5.9116    7.0003 C   0  0  0  0  0  0  0  0  0  0  0  0
   17.2027    6.9982    5.9681 C   0  0  2  0  0  0  0  0  0  0  0  0
   18.2827    7.9303    5.5986 N   0  0  0  0  0  0  0  0  0  0  0  0
   16.0139    7.7980    6.6003 C   0  0  2  0  0  0  0  0  0  0  0  0
   14.8487    6.8352    7.0046 C   0  0  2  0  0  0  0  0  0  0  0  0
   13.8141    7.6649    7.5879 O   0  0  0  0  0  0  0  0  0  0  0  0
   15.3670    5.7749    8.0285 C   0  0  1  0  0  0  0  0  0  0  0  0
   14.3179    4.9282    8.3574 O   0  0  0  0  0  0  0  0  0  0  0  0
   12.6973    7.2096    8.2058 C   0  0  1  0  0  0  0  0  0  0  0  0
   12.6141    7.7361    9.6623 C   0  0  2  0  0  0  0  0  0  0  0  0
   13.3422    6.9598   10.5691 O   0  0  0  0  0  0  0  0  0  0  0  0
   11.1059    7.8107    9.8119 C   0  0  1  0  0  0  0  0  0  0  0  0
   10.5495    8.2732    8.4579 C   0  0  2  0  0  0  0  0  0  0  0  0
   11.4481    7.6016    7.5753 O   0  0  0  0  0  0  0  0  0  0  0  0
   10.5490    9.8220    8.2216 C   0  0  0  0  0  0  0  0  0  0  0  0
    9.8029   10.4276    9.3106 O   0  0  0  0  0  0  0  0  0  0  0  0
   11.0808    5.8901   11.3714 C   0  0  2  0  0  0  0  0  0  0  0  0
   10.6245    6.4513   10.1710 O   0  0  0  0  0  0  0  0  0  0  0  0
   10.7091    4.3466   11.4670 C   0  0  1  0  0  0  0  0  0  0  0  0
    8.7289    7.0954   14.9943 N   0  0  0  0  0  0  0  0  0  0  0  0
   11.2605    3.8130   12.8910 C   0  0  1  0  0  0  0  0  0  0  0  0
   12.7565    4.0528   12.9367 O   0  0  0  0  0  0  0  0  0  0  0  0
   10.5262    4.6056   14.0989 C   0  0  2  0  0  0  0  0  0  0  0  0
    9.1018    4.3536   14.0395 O   0  0  0  0  0  0  0  0  0  0  0  0
   10.8994    6.1859   13.9457 C   0  0  1  0  0  0  0  0  0  0  0  0
   10.4855    6.6670   12.5822 O   0  0  0  0  0  0  0  0  0  0  0  0
   10.2227    7.0687   15.0521 C   0  0  0  0  0  0  0  0  0  0  0  0
    9.2292    4.1632   11.3020 N   0  0  0  0  0  0  0  0  0  0  0  0
  1  2  1  1  0  0  0
  1  3  1  0  0  0  0
  1 10  1  0  0  0  0
  3  4  1  1  0  0  0
  3  5  1  0  0  0  0
  5  6  1  6  0  0  0
  5  7  1  0  0  0  0
  7  8  1  1  0  0  0
  7  9  1  0  0  0  0
  9 10  1  0  0  0  0
  9 11  1  6  0  0  0
 11 12  1  0  0  0  0
 13 14  1  1  0  0  0
 13 15  1  0  0  0  0
 13 21  1  0  0  0  0
 16 15  1  0  0  0  0
 16 17  1  1  0  0  0
 18  2  1  6  0  0  0
 18 16  1  0  0  0  0
 19 18  1  0  0  0  0
 19 20  1  1  0  0  0
 21 19  1  0  0  0  0
 21 22  1  6  0  0  0
 23 20  1  6  0  0  0
 23 24  1  0  0  0  0
 23 28  1  0  0  0  0
 24 25  1  1  0  0  0
 24 26  1  0  0  0  0
 26 27  1  0  0  0  0
 26 32  1  6  0  0  0
 27 28  1  0  0  0  0
 27 29  1  1  0  0  0
 29 30  1  0  0  0  0
 31 32  1  6  0  0  0
 31 40  1  0  0  0  0
 33 31  1  0  0  0  0
 33 42  1  1  0  0  0
 35 33  1  0  0  0  0
 35 36  1  6  0  0  0
 37 35  1  0  0  0  0
 37 38  1  6  0  0  0
 37 39  1  0  0  0  0
 39 40  1  0  0  0  0
 39 41  1  1  0  0  0
 41 34  1  0  0  0  0
M  END
>  <CHROM.1>
-176.59413862,-65.88700538,38.88142780,-172.09555629,121.99283520,61.70414550
-56.23528350,-168.83477394,-64.30818364,12.87396250,7.12763996,8.29765695
-1.05587443,-0.45516400,2.14836038

>  <Name>
2et4_lig

>  <RI>
0

>  <Rbt.Current_Directory>
/home/itssahil/PROJECTS/Mol_Feturizer/New_Systems/rnas/2et4

>  <Rbt.Executable>
rbdock ($Id: //depot/dev/client3/rdock/2013.1/src/exe/rbdock.cxx#4 $)

>  <Rbt.Library>
libRbt.so (2013.1, Build901 2013/11/27)

>  <Rbt.Parameter_File>
/export/apps/rDock/src/rDock_2013.1_src/data/scripts/dock_solv.prm

>  <Rbt.Receptor>
prm/pocket_docking_2.prm

>  <SCORE>
-2.15935

>  <SCORE.INTER>
-0.430097

>  <SCORE.INTER.CONST>
1

>  <SCORE.INTER.POLAR>
0

>  <SCORE.INTER.ROT>
9

>  <SCORE.INTER.SOLV>
15.904

>  <SCORE.INTER.VDW>
-15.1881

>  <SCORE.INTER.norm>
-0.0102404

>  <SCORE.INTRA>
-3.22484

>  <SCORE.INTRA.DIHEDRAL>
-11.1491

>  <SCORE.INTRA.DIHEDRAL.0>
21.6909

>  <SCORE.INTRA.POLAR>
0

>  <SCORE.INTRA.POLAR.0>
0

>  <SCORE.INTRA.REPUL>
0

>  <SCORE.INTRA.REPUL.0>
0

>  <SCORE.INTRA.SOLV>
0.54912

>  <SCORE.INTRA.SOLV.lig_0>
-116.606

>  <SCORE.INTRA.VDW>
2.07514

>  <SCORE.INTRA.VDW.0>
-6.01229

>  <SCORE.INTRA.norm>
-0.076782

>  <SCORE.RESTR>
1.4956

>  <SCORE.RESTR.CAVITY>
1.4956

>  <SCORE.RESTR.norm>
0.0356094

>  <SCORE.SYSTEM>
0

>  <SCORE.SYSTEM.CONST>
0

>  <SCORE.SYSTEM.DIHEDRAL>
0

>  <SCORE.SYSTEM.SOLV>
0

>  <SCORE.SYSTEM.norm>
0

>  <SCORE.heavy>
42

>  <SCORE.norm>
-0.051413

>  <RMSD>
3.123

$$$$
2et4_lig
 OpenBabel11021811423D
libRbt.so/2013.1/901 2013/11/27
 42 45  0  0  0  0  0  0  0  0999 V2000
   12.2468    7.4406    6.3602 C   0  0  2  0  0  0  0  0  0  0  0  0
   12.7438    6.1729    5.9264 O   0  0  0  0  0  0  0  0  0  0  0  0
   10.8188    7.5953    5.7775 C   0  0  2  0  0  0  0  0  0  0  0  0
    9.9622    6.5137    6.1923 N   0  0  0  0  0  0  0  0  0  0  0  0
   10.9037    7.6784    4.2260 C   0  0  1  0  0  0  0  0  0  0  0  0
    9.6204    7.8337    3.7058 O   0  0  0  0  0  0  0  0  0  0  0  0
   11.8444    8.8718    3.8508 C   0  0  2  0  0  0  0  0  0  0  0  0
   11.9564    8.9801    2.4475 O   0  0  0  0  0  0  0  0  0  0  0  0
   13.2626    8.6760    4.4674 C   0  0  2  0  0  0  0  0  0  0  0  0
   13.1239    8.5482    5.8855 O   0  0  0  0  0  0  0  0  0  0  0  0
   14.2186    9.8714    4.1472 C   0  0  0  0  0  0  0  0  0  0  0  0
   13.9671   10.9971    4.9782 N   0  0  0  0  0  0  0  0  0  0  0  0
   15.8901    3.4604    7.1085 C   0  0  2  0  0  0  0  0  0  0  0  0
   17.2254    2.9626    7.4621 N   0  0  0  0  0  0  0  0  0  0  0  0
   15.9151    4.0550    5.5992 C   0  0  0  0  0  0  0  0  0  0  0  0
   14.4766    4.6033    5.2286 C   0  0  2  0  0  0  0  0  0  0  0  0
   14.4596    5.1777    3.8716 N   0  0  0  0  0  0  0  0  0  0  0  0
   14.0536    5.6975    6.2661 C   0  0  2  0  0  0  0  0  0  0  0  0
   14.0619    5.1185    7.7195 C   0  0  2  0  0  0  0  0  0  0  0  0
   13.6743    6.2046    8.5965 O   0  0  0  0  0  0  0  0  0  0  0  0
   15.4891    4.5892    8.0722 C   0  0  1  0  0  0  0  0  0  0  0  0
   15.4627    4.0701    9.3588 O   0  0  0  0  0  0  0  0  0  0  0  0
   12.8355    6.0980    9.6555 C   0  0  1  0  0  0  0  0  0  0  0  0
   13.4923    5.2911   10.8058 C   0  0  2  0  0  0  0  0  0  0  0  0
   13.3559    3.9079   10.6536 O   0  0  0  0  0  0  0  0  0  0  0  0
   12.8256    5.9642   11.9912 C   0  0  1  0  0  0  0  0  0  0  0  0
   12.7045    7.4545   11.6431 C   0  0  2  0  0  0  0  0  0  0  0  0
   12.4326    7.3638   10.2447 O   0  0  0  0  0  0  0  0  0  0  0  0
   13.9766    8.3215   11.9347 C   0  0  0  0  0  0  0  0  0  0  0  0
   14.9313    8.0635   10.8712 O   0  0  0  0  0  0  0  0  0  0  0  0
   10.6565    5.8416   13.1751 C   0  0  2  0  0  0  0  0  0  0  0  0
   11.4938    5.3304   12.1743 O   0  0  0  0  0  0  0  0  0  0  0  0
   10.2751    4.7222   14.2386 C   0  0  1  0  0  0  0  0  0  0  0  0
    7.4994    8.5815   11.6175 N   0  0  0  0  0  0  0  0  0  0  0  0
    9.2963    5.4137   15.3251 C   0  0  1  0  0  0  0  0  0  0  0  0
   10.0358    6.5796   15.9507 O   0  0  0  0  0  0  0  0  0  0  0  0
    7.9430    5.9302   14.5983 C   0  0  2  0  0  0  0  0  0  0  0  0
    7.2508    4.7989   14.0176 O   0  0  0  0  0  0  0  0  0  0  0  0
    8.3772    7.0466   13.4915 C   0  0  1  0  0  0  0  0  0  0  0  0
    9.3703    6.4434   12.5367 O   0  0  0  0  0  0  0  0  0  0  0  0
    7.1467    7.6097   12.6977 C   0  0  0  0  0  0  0  0  0  0  0  0
    9.6501    3.5471   13.5461 N   0  0  0  0  0  0  0  0  0  0  0  0
  1  2  1  6  0  0  0
  1  3  1  0  0  0  0
  1 10  1  0  0  0  0
  3  4  1  6  0  0  0
  3  5  1  0  0  0  0
  5  6  1  6  0  0  0
  5  7  1  0  0  0  0
  7  8  1  6  0  0  0
  7  9  1  0  0  0  0
  9 10  1  0  0  0  0
  9 11  1  1  0  0  0
 11 12  1  0  0  0  0
 13 14  1  1  0  0  0
 13 15  1  0  0  0  0
 13 21  1  0  0  0  0
 16 15  1  0  0  0  0
 16 17  1  6  0  0  0
 18  2  1  6  0  0  0
 18 16  1  0  0  0  0
 19 18  1  0  0  0  0
 19 20  1  1  0  0  0
 21 19  1  0  0  0  0
 21 22  1  1  0  0  0
 23 20  1  6  0  0  0
 23 24  1  0  0  0  0
 23 28  1  0  0  0  0
 24 25  1  6  0  0  0
 24 26  1  0  0  0  0
 26 27  1  0  0  0  0
 26 32  1  6  0  0  0
 27 28  1  0  0  0  0
 27 29  1  6  0  0  0
 29 30  1  0  0  0  0
 31 32  1  6  0  0  0
 31 40  1  0  0  0  0
 33 31  1  0  0  0  0
 33 42  1  6  0  0  0
 35 33  1  0  0  0  0
 35 36  1  6  0  0  0
 37 35  1  0  0  0  0
 37 38  1  6  0  0  0
 37 39  1  0  0  0  0
 39 40  1  0  0  0  0
 39 41  1  6  0  0  0
 41 34  1  0  0  0  0
M  END
>  <CHROM.1>
179.22478120,78.39552599,-158.43431180,138.74370865,69.84758129,-176.61789826
77.44449505,-121.25599812,-176.75733395,12.15545548,6.42539243,9.02273547
1.08430102,0.52717583,-1.17787999

>  <Name>
2et4_lig

>  <RI>
3.65815e+07

>  <Rbt.Current_Directory>
/home/itssahil/PROJECTS/Mol_Feturizer/New_Systems/rnas/2et4

>  <Rbt.Executable>
rbdock ($Id: //depot/dev/client3/rdock/2013.1/src/exe/rbdock.cxx#4 $)

>  <Rbt.Library>
libRbt.so (2013.1, Build901 2013/11/27)

>  <Rbt.Parameter_File>
/export/apps/rDock/src/rDock_2013.1_src/data/scripts/dock_solv.prm

>  <Rbt.Receptor>
prm/pocket_docking_4.prm

>  <SCORE>
-10.853

>  <SCORE.INTER>
-9.66105

>  <SCORE.INTER.CONST>
1

>  <SCORE.INTER.POLAR>
-1.74114

>  <SCORE.INTER.ROT>
9

>  <SCORE.INTER.SOLV>
14.2424

>  <SCORE.INTER.VDW>
-14.9844

>  <SCORE.INTER.norm>
-0.230025

>  <SCORE.INTRA>
-1.19191

>  <SCORE.INTRA.DIHEDRAL>
-4.05806

>  <SCORE.INTRA.DIHEDRAL.0>
21.6909

>  <SCORE.INTRA.POLAR>
0

>  <SCORE.INTRA.POLAR.0>
0

>  <SCORE.INTRA.REPUL>
0

>  <SCORE.INTRA.REPUL.0>
0

>  <SCORE.INTRA.SOLV>
-2.60626

>  <SCORE.INTRA.SOLV.lig_0>
-116.606

>  <SCORE.INTRA.VDW>
2.14025

>  <SCORE.INTRA.VDW.0>
-6.01229

>  <SCORE.INTRA.norm>
-0.0283789

>  <SCORE.RESTR>
0

>  <SCORE.RESTR.CAVITY>
0

>  <SCORE.RESTR.norm>
0

>  <SCORE.SYSTEM>
0

>  <SCORE.SYSTEM.CONST>
0

>  <SCORE.SYSTEM.DIHEDRAL>
0

>  <SCORE.SYSTEM.SOLV>
0

>  <SCORE.SYSTEM.norm>
0

>  <SCORE.heavy>
42

>  <SCORE.norm>
-0.258404

>  <RMSD>
3.142

$$$$
2et4_lig
 OpenBabel11021811423D
libRbt.so/2013.1/901 2013/11/27
 42 45  0  0  0  0  0  0  0  0999 V2000
   13.4129    8.7813    7.1297 C   0  0  2  0  0  0  0  0  0  0  0  0
   13.9610    7.4717    6.9659 O   0  0  0  0  0  0  0  0  0  0  0  0
   11.9078    8.6951    6.7696 C   0  0  2  0  0  0  0  0  0  0  0  0
   11.2269    7.7234    7.5869 N   0  0  0  0  0  0  0  0  0  0  0  0
   11.7602    8.3568    5.2580 C   0  0  1  0  0  0  0  0  0  0  0  0
   10.4064    8.2959    4.9334 O   0  0  0  0  0  0  0  0  0  0  0  0
   12.5189    9.4512    4.4354 C   0  0  2  0  0  0  0  0  0  0  0  0
   12.4169    9.1788    3.0537 O   0  0  0  0  0  0  0  0  0  0  0  0
   14.0232    9.5065    4.8401 C   0  0  2  0  0  0  0  0  0  0  0  0
   14.1029    9.7627    6.2453 O   0  0  0  0  0  0  0  0  0  0  0  0
   14.8047   10.6186    4.0668 C   0  0  0  0  0  0  0  0  0  0  0  0
   16.2101   10.5166    4.2552 N   0  0  0  0  0  0  0  0  0  0  0  0
   16.5487    4.9236    9.3037 C   0  0  2  0  0  0  0  0  0  0  0  0
   17.7300    4.4555   10.0393 N   0  0  0  0  0  0  0  0  0  0  0  0
   16.9532    5.2212    7.7610 C   0  0  0  0  0  0  0  0  0  0  0  0
   15.6791    5.7393    6.9763 C   0  0  2  0  0  0  0  0  0  0  0  0
   16.0075    6.0473    5.5731 N   0  0  0  0  0  0  0  0  0  0  0  0
   15.1224    7.0238    7.6783 C   0  0  2  0  0  0  0  0  0  0  0  0
   14.7639    6.7297    9.1725 C   0  0  2  0  0  0  0  0  0  0  0  0
   14.2764    7.9747    9.7306 O   0  0  0  0  0  0  0  0  0  0  0  0
   16.0323    6.2273    9.9341 C   0  0  1  0  0  0  0  0  0  0  0  0
   15.6816    5.9618   11.2502 O   0  0  0  0  0  0  0  0  0  0  0  0
   13.5139    8.0909   10.8448 C   0  0  1  0  0  0  0  0  0  0  0  0
   14.2649    8.8741   11.9530 C   0  0  2  0  0  0  0  0  0  0  0  0
   15.1191    8.0683   12.7119 O   0  0  0  0  0  0  0  0  0  0  0  0
   13.0800    9.5296   12.6380 C   0  0  1  0  0  0  0  0  0  0  0  0
   12.0812    9.9023   11.5333 C   0  0  2  0  0  0  0  0  0  0  0  0
   12.2558    8.7924   10.6529 O   0  0  0  0  0  0  0  0  0  0  0  0
   12.3505   11.2667   10.8118 C   0  0  0  0  0  0  0  0  0  0  0  0
   13.6518   11.1717   10.1742 O   0  0  0  0  0  0  0  0  0  0  0  0
   11.3769    7.8190   13.1813 C   0  0  2  0  0  0  0  0  0  0  0  0
   12.5085    8.5392   13.5874 O   0  0  0  0  0  0  0  0  0  0  0  0
   10.0539    8.6900   13.3253 C   0  0  1  0  0  0  0  0  0  0  0  0
    9.1811    3.2549   14.1550 N   0  0  0  0  0  0  0  0  0  0  0  0
    8.8187    7.7581   12.8534 C   0  0  1  0  0  0  0  0  0  0  0  0
    9.0747    7.3251   11.4236 O   0  0  0  0  0  0  0  0  0  0  0  0
    8.7031    6.4636   13.8215 C   0  0  2  0  0  0  0  0  0  0  0  0
    8.4495    6.9023   15.1777 O   0  0  0  0  0  0  0  0  0  0  0  0
   10.0897    5.6176   13.6754 C   0  0  1  0  0  0  0  0  0  0  0  0
   11.2552    6.5071   14.0107 O   0  0  0  0  0  0  0  0  0  0  0  0
   10.1099    4.3429   14.5898 C   0  0  0  0  0  0  0  0  0  0  0  0
    9.9146    9.1835   14.7352 N   0  0  0  0  0  0  0  0  0  0  0  0
  1  2  1  6  0  0  0
  1  3  1  0  0  0  0
  1 10  1  0  0  0  0
  3  4  1  1  0  0  0
  3  5  1  0  0  0  0
  5  6  1  6  0  0  0
  5  7  1  0  0  0  0
  7  8  1  6  0  0  0
  7  9  1  0  0  0  0
  9 10  1  0  0  0  0
  9 11  1  6  0  0  0
 11 12  1  0  0  0  0
 13 14  1  1  0  0  0
 13 15  1  0  0  0  0
 13 21  1  0  0  0  0
 16 15  1  0  0  0  0
 16 17  1  6  0  0  0
 18  2  1  6  0  0  0
 18 16  1  0  0  0  0
 19 18  1  0  0  0  0
 19 20  1  1  0  0  0
 21 19  1  0  0  0  0
 21 22  1  1  0  0  0
 23 20  1  6  0  0  0
 23 24  1  0  0  0  0
 23 28  1  0  0  0  0
 24 25  1  1  0  0  0
 24 26  1  0  0  0  0
 26 27  1  0  0  0  0
 26 32  1  1  0  0  0
 27 28  1  0  0  0  0
 27 29  1  6  0  0  0
 29 30  1  0  0  0  0
 31 32  1  1  0  0  0
 31 40  1  0  0  0  0
 33 31  1  0  0  0  0
 33 42  1  1  0  0  0
 35 33  1  0  0  0  0
 35 36  1  6  0  0  0
 37 35  1  0  0  0  0
 37 38  1  1  0  0  0
 37 39  1  0  0  0  0
 39 40  1  0  0  0  0
 39 41  1  1  0  0  0
 41 34  1  0  0  0  0
M  END
>  <CHROM.1>
-154.36849615,-169.59098522,-163.89938252,159.89040395,116.42441265,-99.35268522
61.42069627,-78.97206068,70.43379125,12.87772168,7.79557469,9.74432017,1.07248870
0.45597738,-1.15291267

>  <Name>
2et4_lig

>  <RI>
0

>  <Rbt.Current_Directory>
/home/itssahil/PROJECTS/Mol_Feturizer/New_Systems/rnas/2et4

>  <Rbt.Executable>
rbdock ($Id: //depot/dev/client3/rdock/2013.1/src/exe/rbdock.cxx#4 $)

>  <Rbt.Library>
libRbt.so (2013.1, Build901 2013/11/27)

>  <Rbt.Parameter_File>
/export/apps/rDock/src/rDock_2013.1_src/data/scripts/dock_solv.prm

>  <Rbt.Receptor>
prm/pocket_docking_5.prm

>  <SCORE>
-16.0383

>  <SCORE.INTER>
-17.6132

>  <SCORE.INTER.CONST>
1

>  <SCORE.INTER.POLAR>
-2.69149

>  <SCORE.INTER.ROT>
9

>  <SCORE.INTER.SOLV>
15.5382

>  <SCORE.INTER.VDW>
-17.5499

>  <SCORE.INTER.norm>
-0.419362

>  <SCORE.INTRA>
1.57491

>  <SCORE.INTRA.DIHEDRAL>
-0.941371

>  <SCORE.INTRA.DIHEDRAL.0>
21.6909

>  <SCORE.INTRA.POLAR>
0

>  <SCORE.INTRA.POLAR.0>
0

>  <SCORE.INTRA.REPUL>
0.0289594

>  <SCORE.INTRA.REPUL.0>
0

>  <SCORE.INTRA.SOLV>
-1.2964

>  <SCORE.INTRA.SOLV.lig_0>
-116.606

>  <SCORE.INTRA.VDW>
2.54899

>  <SCORE.INTRA.VDW.0>
-6.01229

>  <SCORE.INTRA.norm>
0.0374978

>  <SCORE.RESTR>
0

>  <SCORE.RESTR.CAVITY>
0

>  <SCORE.RESTR.norm>
0

>  <SCORE.SYSTEM>
0

>  <SCORE.SYSTEM.CONST>
0

>  <SCORE.SYSTEM.DIHEDRAL>
0

>  <SCORE.SYSTEM.SOLV>
0

>  <SCORE.SYSTEM.norm>
0

>  <SCORE.heavy>
42

>  <SCORE.norm>
-0.381864

>  <RMSD>
3.259

$$$$
2et4_lig
 OpenBabel11021811423D
libRbt.so/2013.1/901 2013/11/27
 42 45  0  0  0  0  0  0  0  0999 V2000
   14.7651    7.4167    4.7471 C   0  0  2  0  0  0  0  0  0  0  0  0
   14.8132    7.8878    6.0953 O   0  0  0  0  0  0  0  0  0  0  0  0
   15.6633    8.3560    3.9024 C   0  0  2  0  0  0  0  0  0  0  0  0
   17.0112    8.3903    4.4099 N   0  0  0  0  0  0  0  0  0  0  0  0
   15.0376    9.7805    3.8792 C   0  0  1  0  0  0  0  0  0  0  0  0
   15.8384   10.6188    3.1060 O   0  0  0  0  0  0  0  0  0  0  0  0
   13.5815    9.6662    3.3166 C   0  0  2  0  0  0  0  0  0  0  0  0
   12.9712   10.9391    3.2846 O   0  0  0  0  0  0  0  0  0  0  0  0
   12.7220    8.7045    4.1919 C   0  0  2  0  0  0  0  0  0  0  0  0
   13.3682    7.4286    4.2275 O   0  0  0  0  0  0  0  0  0  0  0  0
   11.2708    8.5335    3.6349 C   0  0  0  0  0  0  0  0  0  0  0  0
   10.5105    7.6030    4.3947 N   0  0  0  0  0  0  0  0  0  0  0  0
   15.5881    4.2714    8.3259 C   0  0  2  0  0  0  0  0  0  0  0  0
   15.8772    3.3798    9.4560 N   0  0  0  0  0  0  0  0  0  0  0  0
   16.7933    5.3449    8.1600 C   0  0  0  0  0  0  0  0  0  0  0  0
   16.4694    6.3126    6.9493 C   0  0  2  0  0  0  0  0  0  0  0  0
   17.5283    7.3230    6.7778 N   0  0  0  0  0  0  0  0  0  0  0  0
   15.0999    7.0274    7.2064 C   0  0  2  0  0  0  0  0  0  0  0  0
   13.9526    5.9802    7.3933 C   0  0  2  0  0  0  0  0  0  0  0  0
   12.7416    6.7370    7.6382 O   0  0  0  0  0  0  0  0  0  0  0  0
   14.2835    5.0388    8.5956 C   0  0  1  0  0  0  0  0  0  0  0  0
   13.2575    4.1138    8.7283 O   0  0  0  0  0  0  0  0  0  0  0  0
   12.3162    7.1679    8.8505 C   0  0  1  0  0  0  0  0  0  0  0  0
   13.1406    8.3926    9.3258 C   0  0  2  0  0  0  0  0  0  0  0  0
   14.3378    8.0377    9.9551 O   0  0  0  0  0  0  0  0  0  0  0  0
   12.0750    9.1083   10.1351 C   0  0  1  0  0  0  0  0  0  0  0  0
   10.7486    8.9183    9.3859 C   0  0  2  0  0  0  0  0  0  0  0  0
   10.9263    7.5897    8.8950 O   0  0  0  0  0  0  0  0  0  0  0  0
   10.4760    9.9364    8.2267 C   0  0  0  0  0  0  0  0  0  0  0  0
   11.3314    9.5662    7.1130 O   0  0  0  0  0  0  0  0  0  0  0  0
   11.3777    7.2565   11.6204 C   0  0  2  0  0  0  0  0  0  0  0  0
   12.0419    8.4828   11.4829 O   0  0  0  0  0  0  0  0  0  0  0  0
    9.9530    7.4430   12.3024 C   0  0  1  0  0  0  0  0  0  0  0  0
   14.0617    3.9870   12.9760 N   0  0  0  0  0  0  0  0  0  0  0  0
    9.2918    5.9722   12.4298 C   0  0  1  0  0  0  0  0  0  0  0  0
    9.1952    5.3770   11.0392 O   0  0  0  0  0  0  0  0  0  0  0  0
   10.2104    5.0350   13.3807 C   0  0  2  0  0  0  0  0  0  0  0  0
   10.2794    5.6188   14.7038 O   0  0  0  0  0  0  0  0  0  0  0  0
   11.6714    4.8981   12.6689 C   0  0  1  0  0  0  0  0  0  0  0  0
   12.2503    6.2687   12.4492 O   0  0  0  0  0  0  0  0  0  0  0  0
   12.6666    4.0266   13.5123 C   0  0  0  0  0  0  0  0  0  0  0  0
   10.1027    8.1382   13.6234 N   0  0  0  0  0  0  0  0  0  0  0  0
  1  2  1  1  0  0  0
  1  3  1  0  0  0  0
  1 10  1  0  0  0  0
  3  4  1  1  0  0  0
  3  5  1  0  0  0  0
  5  6  1  6  0  0  0
  5  7  1  0  0  0  0
  7  8  1  1  0  0  0
  7  9  1  0  0  0  0
  9 10  1  0  0  0  0
  9 11  1  6  0  0  0
 11 12  1  0  0  0  0
 13 14  1  1  0  0  0
 13 15  1  0  0  0  0
 13 21  1  0  0  0  0
 16 15  1  0  0  0  0
 16 17  1  1  0  0  0
 18  2  1  6  0  0  0
 18 16  1  0  0  0  0
 19 18  1  0  0  0  0
 19 20  1  1  0  0  0
 21 19  1  0  0  0  0
 21 22  1  6  0  0  0
 23 20  1  6  0  0  0
 23 24  1  0  0  0  0
 23 28  1  0  0  0  0
 24 25  1  1  0  0  0
 24 26  1  0  0  0  0
 26 27  1  0  0  0  0
 26 32  1  1  0  0  0
 27 28  1  0  0  0  0
 27 29  1  6  0  0  0
 29 30  1  0  0  0  0
 31 32  1  1  0  0  0
 31 40  1  0  0  0  0
 33 31  1  0  0  0  0
 33 42  1  1  0  0  0
 35 33  1  0  0  0  0
 35 36  1  6  0  0  0
 37 35  1  0  0  0  0
 37 38  1  1  0  0  0
 37 39  1  0  0  0  0
 39 40  1  0  0  0  0
 39 41  1  1  0  0  0
 41 34  1  0  0  0  0
M  END
>  <CHROM.1>
-129.41787483,176.95165802,55.67752523,-87.06192911,75.71109639,-78.48376415
74.36661657,-103.28371639,-173.94426856,13.01709600,7.20935834,8.39290472
-1.15316880,-0.51836762,2.11744922

>  <Name>
2et4_lig

>  <RI>
0

>  <Rbt.Current_Directory>
/home/itssahil/PROJECTS/Mol_Feturizer/New_Systems/rnas/2et4

>  <Rbt.Executable>
rbdock ($Id: //depot/dev/client3/rdock/2013.1/src/exe/rbdock.cxx#4 $)

>  <Rbt.Library>
libRbt.so (2013.1, Build901 2013/11/27)

>  <Rbt.Parameter_File>
/export/apps/rDock/src/rDock_2013.1_src/data/scripts/dock_solv.prm

>  <Rbt.Receptor>
prm/pocket_docking_3.prm

>  <SCORE>
0.153159

>  <SCORE.INTER>
-2.70364

>  <SCORE.INTER.CONST>
1

>  <SCORE.INTER.POLAR>
-0.78993

>  <SCORE.INTER.ROT>
9

>  <SCORE.INTER.SOLV>
18.6863

>  <SCORE.INTER.VDW>
-14.9981

>  <SCORE.INTER.norm>
-0.0643724

>  <SCORE.INTRA>
2.47824

>  <SCORE.INTRA.DIHEDRAL>
-2.22202

>  <SCORE.INTRA.DIHEDRAL.0>
21.6909

>  <SCORE.INTRA.POLAR>
0

>  <SCORE.INTRA.POLAR.0>
0

>  <SCORE.INTRA.REPUL>
0.0913733

>  <SCORE.INTRA.REPUL.0>
0

>  <SCORE.INTRA.SOLV>
2.46148

>  <SCORE.INTRA.SOLV.lig_0>
-116.606

>  <SCORE.INTRA.VDW>
1.90165

>  <SCORE.INTRA.VDW.0>
-6.01229

>  <SCORE.INTRA.norm>
0.0590058

>  <SCORE.RESTR>
0.378553

>  <SCORE.RESTR.CAVITY>
0.378553

>  <SCORE.RESTR.norm>
0.00901317

>  <SCORE.SYSTEM>
0

>  <SCORE.SYSTEM.CONST>
0

>  <SCORE.SYSTEM.DIHEDRAL>
0

>  <SCORE.SYSTEM.SOLV>
0

>  <SCORE.SYSTEM.norm>
0

>  <SCORE.heavy>
42

>  <SCORE.norm>
0.00364664

>  <RMSD>
3.384

$$$$
2et4_lig
 OpenBabel11021811423D
libRbt.so/2013.1/901 2013/11/27
 42 45  0  0  0  0  0  0  0  0999 V2000
   14.9225    7.8924    5.0327 C   0  0  2  0  0  0  0  0  0  0  0  0
   14.8652    6.5034    5.3636 O   0  0  0  0  0  0  0  0  0  0  0  0
   14.7314    8.6846    6.3512 C   0  0  2  0  0  0  0  0  0  0  0  0
   15.7270    8.3254    7.3287 N   0  0  0  0  0  0  0  0  0  0  0  0
   13.2957    8.4347    6.8967 C   0  0  1  0  0  0  0  0  0  0  0  0
   13.1212    9.1607    8.0733 O   0  0  0  0  0  0  0  0  0  0  0  0
   12.2720    8.8480    5.7872 C   0  0  2  0  0  0  0  0  0  0  0  0
   10.9518    8.6304    6.2382 O   0  0  0  0  0  0  0  0  0  0  0  0
   12.5109    8.0331    4.4800 C   0  0  2  0  0  0  0  0  0  0  0  0
   13.8586    8.2515    4.0525 O   0  0  0  0  0  0  0  0  0  0  0  0
   11.5313    8.4494    3.3343 C   0  0  0  0  0  0  0  0  0  0  0  0
   11.8321    9.7373    2.8127 N   0  0  0  0  0  0  0  0  0  0  0  0
   17.4346    3.2205    6.4927 C   0  0  2  0  0  0  0  0  0  0  0  0
   18.5619    2.4871    7.0820 N   0  0  0  0  0  0  0  0  0  0  0  0
   17.9922    4.2967    5.4142 C   0  0  0  0  0  0  0  0  0  0  0  0
   16.7737    5.0944    4.7928 C   0  0  2  0  0  0  0  0  0  0  0  0
   17.2371    6.1034    3.8239 N   0  0  0  0  0  0  0  0  0  0  0  0
   15.9732    5.7985    5.9400 C   0  0  2  0  0  0  0  0  0  0  0  0
   15.4667    4.7525    6.9875 C   0  0  2  0  0  0  0  0  0  0  0  0
   14.7578    5.5010    8.0055 O   0  0  0  0  0  0  0  0  0  0  0  0
   16.6806    3.9800    7.5965 C   0  0  1  0  0  0  0  0  0  0  0  0
   16.2009    3.0518    8.5096 O   0  0  0  0  0  0  0  0  0  0  0  0
   14.1853    4.9718    9.1139 C   0  0  1  0  0  0  0  0  0  0  0  0
   13.4480    6.0628    9.9335 C   0  0  2  0  0  0  0  0  0  0  0  0
   14.2936    6.7661   10.7968 O   0  0  0  0  0  0  0  0  0  0  0  0
   12.3378    5.2164   10.5284 C   0  0  1  0  0  0  0  0  0  0  0  0
   11.9247    4.2064    9.4485 C   0  0  2  0  0  0  0  0  0  0  0  0
   13.1957    3.9394    8.8560 O   0  0  0  0  0  0  0  0  0  0  0  0
   10.8890    4.7293    8.3957 C   0  0  0  0  0  0  0  0  0  0  0  0
   10.5881    3.6280    7.4981 O   0  0  0  0  0  0  0  0  0  0  0  0
   12.1269    4.5822   12.9105 C   0  0  2  0  0  0  0  0  0  0  0  0
   12.8868    4.5421   11.7336 O   0  0  0  0  0  0  0  0  0  0  0  0
   11.0155    3.4445   12.9212 C   0  0  1  0  0  0  0  0  0  0  0  0
    9.1920    7.9777   13.1400 N   0  0  0  0  0  0  0  0  0  0  0  0
   10.1917    3.5990   14.3047 C   0  0  1  0  0  0  0  0  0  0  0  0
   11.1708    3.4634   15.4538 O   0  0  0  0  0  0  0  0  0  0  0  0
    9.4626    5.0455   14.3540 C   0  0  2  0  0  0  0  0  0  0  0  0
    8.5270    5.1468   13.2538 O   0  0  0  0  0  0  0  0  0  0  0  0
   10.6295    6.1838   14.3034 C   0  0  1  0  0  0  0  0  0  0  0  0
   11.4691    5.9841   13.0717 O   0  0  0  0  0  0  0  0  0  0  0  0
   10.0442    7.6393   14.3210 C   0  0  0  0  0  0  0  0  0  0  0  0
   10.1482    3.5619   11.7027 N   0  0  0  0  0  0  0  0  0  0  0  0
  1  2  1  1  0  0  0
  1  3  1  0  0  0  0
  1 10  1  0  0  0  0
  3  4  1  1  0  0  0
  3  5  1  0  0  0  0
  5  6  1  1  0  0  0
  5  7  1  0  0  0  0
  7  8  1  1  0  0  0
  7  9  1  0  0  0  0
  9 10  1  0  0  0  0
  9 11  1  6  0  0  0
 11 12  1  0  0  0  0
 13 14  1  1  0  0  0
 13 15  1  0  0  0  0
 13 21  1  0  0  0  0
 16 15  1  0  0  0  0
 16 17  1  6  0  0  0
 18  2  1  6  0  0  0
 18 16  1  0  0  0  0
 19 18  1  0  0  0  0
 19 20  1  1  0  0  0
 21 19  1  0  0  0  0
 21 22  1  1  0  0  0
 23 20  1  6  0  0  0
 23 24  1  0  0  0  0
 23 28  1  0  0  0  0
 24 25  1  1  0  0  0
 24 26  1  0  0  0  0
 26 27  1  0  0  0  0
 26 32  1  1  0  0  0
 27 28  1  0  0  0  0
 27 29  1  6  0  0  0
 29 30  1  0  0  0  0
 31 32  1  6  0  0  0
 31 40  1  0  0  0  0
 33 31  1  0  0  0  0
 33 42  1  6  0  0  0
 35 33  1  0  0  0  0
 35 36  1  1  0  0  0
 37 35  1  0  0  0  0
 37 38  1  6  0  0  0
 37 39  1  0  0  0  0
 39 40  1  0  0  0  0
 39 41  1  6  0  0  0
 41 34  1  0  0  0  0
M  END
>  <CHROM.1>
-78.91636777,71.16579374,-95.27869656,-178.48314311,-176.80988241,132.47605134
-177.90602221,83.13711978,-62.96767653,13.17378621,5.85558617,8.74564118
0.93887243,0.62138510,-0.97327898

>  <Name>
2et4_lig

>  <RI>
3.65815e+07

>  <Rbt.Current_Directory>
/home/itssahil/PROJECTS/Mol_Feturizer/New_Systems/rnas/2et4

>  <Rbt.Executable>
rbdock ($Id: //depot/dev/client3/rdock/2013.1/src/exe/rbdock.cxx#4 $)

>  <Rbt.Library>
libRbt.so (2013.1, Build901 2013/11/27)

>  <Rbt.Parameter_File>
/export/apps/rDock/src/rDock_2013.1_src/data/scripts/dock_solv.prm

>  <Rbt.Receptor>
prm/pocket_docking_4.prm

>  <SCORE>
0.787573

>  <SCORE.INTER>
1.40745

>  <SCORE.INTER.CONST>
1

>  <SCORE.INTER.POLAR>
-0.0786084

>  <SCORE.INTER.ROT>
9

>  <SCORE.INTER.SOLV>
16.4446

>  <SCORE.INTER.VDW>
-13.8812

>  <SCORE.INTER.norm>
0.0335108

>  <SCORE.INTRA>
-0.619882

>  <SCORE.INTRA.DIHEDRAL>
-6.05379

>  <SCORE.INTRA.DIHEDRAL.0>
21.6909

>  <SCORE.INTRA.POLAR>
0

>  <SCORE.INTRA.POLAR.0>
0

>  <SCORE.INTRA.REPUL>
0

>  <SCORE.INTRA.REPUL.0>
0

>  <SCORE.INTRA.SOLV>
3.67414

>  <SCORE.INTRA.SOLV.lig_0>
-116.606

>  <SCORE.INTRA.VDW>
0.569941

>  <SCORE.INTRA.VDW.0>
-6.01229

>  <SCORE.INTRA.norm>
-0.0147591

>  <SCORE.RESTR>
0

>  <SCORE.RESTR.CAVITY>
0

>  <SCORE.RESTR.norm>
0

>  <SCORE.SYSTEM>
0

>  <SCORE.SYSTEM.CONST>
0

>  <SCORE.SYSTEM.DIHEDRAL>
0

>  <SCORE.SYSTEM.SOLV>
0

>  <SCORE.SYSTEM.norm>
0

>  <SCORE.heavy>
42

>  <SCORE.norm>
0.0187517

>  <RMSD>
3.444

$$$$
2et4_lig
 OpenBabel11021811423D
libRbt.so/2013.1/901 2013/11/27
 42 45  0  0  0  0  0  0  0  0999 V2000
   13.4106    8.8218    7.2227 C   0  0  2  0  0  0  0  0  0  0  0  0
   14.0997    7.5880    7.0103 O   0  0  0  0  0  0  0  0  0  0  0  0
   11.9014    8.5464    7.0010 C   0  0  2  0  0  0  0  0  0  0  0  0
   11.4227    7.5079    7.8773 N   0  0  0  0  0  0  0  0  0  0  0  0
   11.6612    8.1748    5.5092 C   0  0  1  0  0  0  0  0  0  0  0  0
   10.3017    7.9436    5.3092 O   0  0  0  0  0  0  0  0  0  0  0  0
   12.2011    9.3447    4.6205 C   0  0  2  0  0  0  0  0  0  0  0  0
   12.0095    9.0456    3.2540 O   0  0  0  0  0  0  0  0  0  0  0  0
   13.7174    9.5899    4.8867 C   0  0  2  0  0  0  0  0  0  0  0  0
   13.8911    9.8704    6.2787 O   0  0  0  0  0  0  0  0  0  0  0  0
   14.2821   10.7807    4.0450 C   0  0  0  0  0  0  0  0  0  0  0  0
   15.6942   10.8976    4.1608 N   0  0  0  0  0  0  0  0  0  0  0  0
   17.7424    5.5191    8.0616 C   0  0  2  0  0  0  0  0  0  0  0  0
   19.1293    5.2916    8.4864 N   0  0  0  0  0  0  0  0  0  0  0  0
   17.7297    6.4126    6.7073 C   0  0  0  0  0  0  0  0  0  0  0  0
   16.2316    6.6668    6.2620 C   0  0  2  0  0  0  0  0  0  0  0  0
   16.1717    7.4983    5.0467 N   0  0  0  0  0  0  0  0  0  0  0  0
   15.4574    7.3785    7.4224 C   0  0  2  0  0  0  0  0  0  0  0  0
   15.5025    6.5199    8.7295 C   0  0  2  0  0  0  0  0  0  0  0  0
   14.7770    7.2669    9.7369 O   0  0  0  0  0  0  0  0  0  0  0  0
   16.9861    6.2847    9.1596 C   0  0  1  0  0  0  0  0  0  0  0  0
   16.9953    5.5103   10.3110 O   0  0  0  0  0  0  0  0  0  0  0  0
   13.8134    6.7636   10.5458 C   0  0  1  0  0  0  0  0  0  0  0  0
   14.3750    5.6264   11.4385 C   0  0  2  0  0  0  0  0  0  0  0  0
   14.3850    4.3822   10.8009 O   0  0  0  0  0  0  0  0  0  0  0  0
   13.4940    5.8136   12.6599 C   0  0  1  0  0  0  0  0  0  0  0  0
   13.2893    7.3255   12.8301 C   0  0  2  0  0  0  0  0  0  0  0  0
   13.2217    7.7248   11.4612 O   0  0  0  0  0  0  0  0  0  0  0  0
   14.4265    8.0782   13.6014 C   0  0  0  0  0  0  0  0  0  0  0  0
   15.6670    7.8444   12.8834 O   0  0  0  0  0  0  0  0  0  0  0  0
   11.3109    4.9704   13.4628 C   0  0  2  0  0  0  0  0  0  0  0  0
   12.2118    5.1091   12.3983 O   0  0  0  0  0  0  0  0  0  0  0  0
   10.0552    4.0871   13.0473 C   0  0  1  0  0  0  0  0  0  0  0  0
    8.5765    7.9949   16.6379 N   0  0  0  0  0  0  0  0  0  0  0  0
    9.0797    4.0134   14.3356 C   0  0  1  0  0  0  0  0  0  0  0  0
    9.8609    3.4063   15.4839 O   0  0  0  0  0  0  0  0  0  0  0  0
    8.5689    5.5009   14.7265 C   0  0  2  0  0  0  0  0  0  0  0  0
    7.8187    6.0549   13.6191 O   0  0  0  0  0  0  0  0  0  0  0  0
    9.8846    6.3855   15.1092 C   0  0  1  0  0  0  0  0  0  0  0  0
   10.8479    6.3733   13.9543 O   0  0  0  0  0  0  0  0  0  0  0  0
    9.5203    7.8643   15.4856 C   0  0  0  0  0  0  0  0  0  0  0  0
    9.3906    4.6756   11.8378 N   0  0  0  0  0  0  0  0  0  0  0  0
  1  2  1  6  0  0  0
  1  3  1  0  0  0  0
  1 10  1  0  0  0  0
  3  4  1  1  0  0  0
  3  5  1  0  0  0  0
  5  6  1  1  0  0  0
  5  7  1  0  0  0  0
  7  8  1  6  0  0  0
  7  9  1  0  0  0  0
  9 10  1  0  0  0  0
  9 11  1  6  0  0  0
 11 12  1  0  0  0  0
 13 14  1  1  0  0  0
 13 15  1  0  0  0  0
 13 21  1  0  0  0  0
 16 15  1  0  0  0  0
 16 17  1  6  0  0  0
 18  2  1  6  0  0  0
 18 16  1  0  0  0  0
 19 18  1  0  0  0  0
 19 20  1  1  0  0  0
 21 19  1  0  0  0  0
 21 22  1  1  0  0  0
 23 20  1  1  0  0  0
 23 24  1  0  0  0  0
 23 28  1  0  0  0  0
 24 25  1  6  0  0  0
 24 26  1  0  0  0  0
 26 27  1  0  0  0  0
 26 32  1  6  0  0  0
 27 28  1  0  0  0  0
 27 29  1  6  0  0  0
 29 30  1  0  0  0  0
 31 32  1  6  0  0  0
 31 40  1  0  0  0  0
 33 31  1  0  0  0  0
 33 42  1  6  0  0  0
 35 33  1  0  0  0  0
 35 36  1  1  0  0  0
 37 35  1  0  0  0  0
 37 38  1  6  0  0  0
 37 39  1  0  0  0  0
 39 40  1  0  0  0  0
 39 41  1  6  0  0  0
 41 34  1  0  0  0  0
M  END
>  <CHROM.1>
-165.19881025,-172.66534298,-135.37900250,131.49345854,61.16272230,170.61848311
58.00448264,-175.01465089,58.62684368,13.10787033,6.96358671,9.85848275,1.09120388
0.20678002,-1.16811547

>  <Name>
2et4_lig

>  <RI>
3.65815e+07

>  <Rbt.Current_Directory>
/home/itssahil/PROJECTS/Mol_Feturizer/New_Systems/rnas/2et4

>  <Rbt.Executable>
rbdock ($Id: //depot/dev/client3/rdock/2013.1/src/exe/rbdock.cxx#4 $)

>  <Rbt.Library>
libRbt.so (2013.1, Build901 2013/11/27)

>  <Rbt.Parameter_File>
/export/apps/rDock/src/rDock_2013.1_src/data/scripts/dock_solv.prm

>  <Rbt.Receptor>
prm/pocket_docking_4.prm

>  <SCORE>
-19.3548

>  <SCORE.INTER>
-16.6497

>  <SCORE.INTER.CONST>
1

>  <SCORE.INTER.POLAR>
-1.72225

>  <SCORE.INTER.ROT>
9

>  <SCORE.INTER.SOLV>
15.5263

>  <SCORE.INTER.VDW>
-20.1344

>  <SCORE.INTER.norm>
-0.396422

>  <SCORE.INTRA>
-2.75799

>  <SCORE.INTRA.DIHEDRAL>
-7.07267

>  <SCORE.INTRA.DIHEDRAL.0>
21.6909

>  <SCORE.INTRA.POLAR>
0

>  <SCORE.INTRA.POLAR.0>
0

>  <SCORE.INTRA.REPUL>
0

>  <SCORE.INTRA.REPUL.0>
0

>  <SCORE.INTRA.SOLV>
0.342884

>  <SCORE.INTRA.SOLV.lig_0>
-116.606

>  <SCORE.INTRA.VDW>
0.606902

>  <SCORE.INTRA.VDW.0>
-6.01229

>  <SCORE.INTRA.norm>
-0.0656664

>  <SCORE.RESTR>
0.0529074

>  <SCORE.RESTR.CAVITY>
0.0529074

>  <SCORE.RESTR.norm>
0.0012597

>  <SCORE.SYSTEM>
0

>  <SCORE.SYSTEM.CONST>
0

>  <SCORE.SYSTEM.DIHEDRAL>
0

>  <SCORE.SYSTEM.SOLV>
0

>  <SCORE.SYSTEM.norm>
0

>  <SCORE.heavy>
42

>  <SCORE.norm>
-0.460828

>  <RMSD>
3.448

$$$$
2et4_lig
 OpenBabel11021811423D
libRbt.so/2013.1/901 2013/11/27
 42 45  0  0  0  0  0  0  0  0999 V2000
   15.2771    8.4244    3.8853 C   0  0  2  0  0  0  0  0  0  0  0  0
   15.6542    8.7604    5.2221 O   0  0  0  0  0  0  0  0  0  0  0  0
   14.6245    9.6856    3.2639 C   0  0  2  0  0  0  0  0  0  0  0  0
   15.5209   10.8129    3.3001 N   0  0  0  0  0  0  0  0  0  0  0  0
   13.2986   10.0004    4.0149 C   0  0  1  0  0  0  0  0  0  0  0  0
   12.7060   11.1249    3.4439 O   0  0  0  0  0  0  0  0  0  0  0  0
   12.3776    8.7376    3.9320 C   0  0  2  0  0  0  0  0  0  0  0  0
   11.1619    8.9771    4.6091 O   0  0  0  0  0  0  0  0  0  0  0  0
   13.0806    7.4956    4.5588 C   0  0  2  0  0  0  0  0  0  0  0  0
   14.3178    7.2837    3.8725 O   0  0  0  0  0  0  0  0  0  0  0  0
   12.2049    6.2040    4.4563 C   0  0  0  0  0  0  0  0  0  0  0  0
   10.9455    6.3572    5.0978 N   0  0  0  0  0  0  0  0  0  0  0  0
   17.2610    5.1684    7.0028 C   0  0  2  0  0  0  0  0  0  0  0  0
   18.1019    4.2913    7.8269 N   0  0  0  0  0  0  0  0  0  0  0  0
   18.1939    5.9946    5.9639 C   0  0  0  0  0  0  0  0  0  0  0  0
   17.2836    6.9492    5.0879 C   0  0  2  0  0  0  0  0  0  0  0  0
   18.0946    7.7399    4.1452 N   0  0  0  0  0  0  0  0  0  0  0  0
   16.4847    7.9134    6.0284 C   0  0  2  0  0  0  0  0  0  0  0  0
   15.6121    7.1035    7.0435 C   0  0  2  0  0  0  0  0  0  0  0  0
   14.9309    8.0794    7.8696 O   0  0  0  0  0  0  0  0  0  0  0  0
   16.5253    6.1730    7.9047 C   0  0  1  0  0  0  0  0  0  0  0  0
   15.7244    5.4585    8.7842 O   0  0  0  0  0  0  0  0  0  0  0  0
   13.6772    7.9492    8.3673 C   0  0  1  0  0  0  0  0  0  0  0  0
   13.3489    6.4629    8.6649 C   0  0  2  0  0  0  0  0  0  0  0  0
   12.8951    5.7653    7.5414 O   0  0  0  0  0  0  0  0  0  0  0  0
   12.4054    6.6489    9.8388 C   0  0  1  0  0  0  0  0  0  0  0  0
   12.9495    7.8254   10.6614 C   0  0  2  0  0  0  0  0  0  0  0  0
   13.4376    8.6605    9.6116 O   0  0  0  0  0  0  0  0  0  0  0  0
   14.0742    7.4662   11.6914 C   0  0  0  0  0  0  0  0  0  0  0  0
   15.3472    7.8071   11.0811 O   0  0  0  0  0  0  0  0  0  0  0  0
   10.1337    5.8860    9.2234 C   0  0  2  0  0  0  0  0  0  0  0  0
   11.0565    6.9389    9.2865 O   0  0  0  0  0  0  0  0  0  0  0  0
    8.6423    6.4288    9.1192 C   0  0  1  0  0  0  0  0  0  0  0  0
    8.6967    1.8309   12.0820 N   0  0  0  0  0  0  0  0  0  0  0  0
    7.6693    5.1372    9.0753 C   0  0  1  0  0  0  0  0  0  0  0  0
    8.0630    4.2912    7.8808 O   0  0  0  0  0  0  0  0  0  0  0  0
    7.8230    4.2841   10.4445 C   0  0  2  0  0  0  0  0  0  0  0  0
    7.4328    5.1095   11.5682 O   0  0  0  0  0  0  0  0  0  0  0  0
    9.3707    3.7775   10.5346 C   0  0  1  0  0  0  0  0  0  0  0  0
   10.2899    4.9661   10.4697 O   0  0  0  0  0  0  0  0  0  0  0  0
    9.6537    2.9537   11.8394 C   0  0  0  0  0  0  0  0  0  0  0  0
    8.3489    7.3488   10.2673 N   0  0  0  0  0  0  0  0  0  0  0  0
  1  2  1  1  0  0  0
  1  3  1  0  0  0  0
  1 10  1  0  0  0  0
  3  4  1  1  0  0  0
  3  5  1  0  0  0  0
  5  6  1  6  0  0  0
  5  7  1  0  0  0  0
  7  8  1  1  0  0  0
  7  9  1  0  0  0  0
  9 10  1  0  0  0  0
  9 11  1  6  0  0  0
 11 12  1  0  0  0  0
 13 14  1  1  0  0  0
 13 15  1  0  0  0  0
 13 21  1  0  0  0  0
 16 15  1  0  0  0  0
 16 17  1  6  0  0  0
 18  2  1  6  0  0  0
 18 16  1  0  0  0  0
 19 18  1  0  0  0  0
 19 20  1  1  0  0  0
 21 19  1  0  0  0  0
 21 22  1  1  0  0  0
 23 20  1  1  0  0  0
 23 24  1  0  0  0  0
 23 28  1  0  0  0  0
 24 25  1  6  0  0  0
 24 26  1  0  0  0  0
 26 27  1  0  0  0  0
 26 32  1  6  0  0  0
 27 28  1  0  0  0  0
 27 29  1  1  0  0  0
 29 30  1  0  0  0  0
 31 32  1  1  0  0  0
 31 40  1  0  0  0  0
 33 31  1  0  0  0  0
 33 42  1  1  0  0  0
 35 33  1  0  0  0  0
 35 36  1  6  0  0  0
 37 35  1  0  0  0  0
 37 38  1  1  0  0  0
 37 39  1  0  0  0  0
 39 40  1  0  0  0  0
 39 41  1  1  0  0  0
 41 34  1  0  0  0  0
M  END
>  <CHROM.1>
-169.33781817,-58.55453076,20.75330178,144.94369908,32.11218981,99.68317306
99.11665184,159.63274535,51.64003899,12.94801533,6.82708405,7.55579014,0.78607464
0.00103584,-1.02653453

>  <Name>
2et4_lig

>  <RI>
0

>  <Rbt.Current_Directory>
/home/itssahil/PROJECTS/Mol_Feturizer/New_Systems/rnas/2et4

>  <Rbt.Executable>
rbdock ($Id: //depot/dev/client3/rdock/2013.1/src/exe/rbdock.cxx#4 $)

>  <Rbt.Library>
libRbt.so (2013.1, Build901 2013/11/27)

>  <Rbt.Parameter_File>
/export/apps/rDock/src/rDock_2013.1_src/data/scripts/dock_solv.prm

>  <Rbt.Receptor>
prm/pocket_docking_2.prm

>  <SCORE>
9.00028

>  <SCORE.INTER>
0.696433

>  <SCORE.INTER.CONST>
1

>  <SCORE.INTER.POLAR>
-0.821015

>  <SCORE.INTER.ROT>
9

>  <SCORE.INTER.SOLV>
13.4509

>  <SCORE.INTER.VDW>
-10.8826

>  <SCORE.INTER.norm>
0.0165817

>  <SCORE.INTRA>
5.68017

>  <SCORE.INTRA.DIHEDRAL>
3.1203

>  <SCORE.INTRA.DIHEDRAL.0>
21.6909

>  <SCORE.INTRA.POLAR>
0

>  <SCORE.INTRA.POLAR.0>
0

>  <SCORE.INTRA.REPUL>
0

>  <SCORE.INTRA.REPUL.0>
0

>  <SCORE.INTRA.SOLV>
1.3591

>  <SCORE.INTRA.SOLV.lig_0>
-116.606

>  <SCORE.INTRA.VDW>
3.44046

>  <SCORE.INTRA.VDW.0>
-6.01229

>  <SCORE.INTRA.norm>
0.135242

>  <SCORE.RESTR>
2.62368

>  <SCORE.RESTR.CAVITY>
2.62368

>  <SCORE.RESTR.norm>
0.0624685

>  <SCORE.SYSTEM>
0

>  <SCORE.SYSTEM.CONST>
0

>  <SCORE.SYSTEM.DIHEDRAL>
0

>  <SCORE.SYSTEM.SOLV>
0

>  <SCORE.SYSTEM.norm>
0

>  <SCORE.heavy>
42

>  <SCORE.norm>
0.214292

>  <RMSD>
3.456

$$$$
2et4_lig
 OpenBabel11021811423D
libRbt.so/2013.1/901 2013/11/27
 42 45  0  0  0  0  0  0  0  0999 V2000
   13.7462   10.8767    4.9283 C   0  0  2  0  0  0  0  0  0  0  0  0
   12.7403   10.1449    4.2249 O   0  0  0  0  0  0  0  0  0  0  0  0
   14.7437   11.4147    3.8708 C   0  0  2  0  0  0  0  0  0  0  0  0
   14.0775   12.2299    2.8872 N   0  0  0  0  0  0  0  0  0  0  0  0
   15.4772   10.2169    3.2011 C   0  0  1  0  0  0  0  0  0  0  0  0
   16.3848   10.7040    2.2625 O   0  0  0  0  0  0  0  0  0  0  0  0
   16.1767    9.3814    4.3247 C   0  0  2  0  0  0  0  0  0  0  0  0
   16.8509    8.2764    3.7607 O   0  0  0  0  0  0  0  0  0  0  0  0
   15.1359    8.8725    5.3676 C   0  0  2  0  0  0  0  0  0  0  0  0
   14.4511   10.0051    5.9106 O   0  0  0  0  0  0  0  0  0  0  0  0
   15.8053    8.0675    6.5291 C   0  0  0  0  0  0  0  0  0  0  0  0
   16.4538    6.8914    6.0628 N   0  0  0  0  0  0  0  0  0  0  0  0
   11.3109    6.0919    3.7949 C   0  0  2  0  0  0  0  0  0  0  0  0
   11.3197    4.6284    3.6787 N   0  0  0  0  0  0  0  0  0  0  0  0
   12.1671    6.7379    2.5776 C   0  0  0  0  0  0  0  0  0  0  0  0
   12.1663    8.3152    2.7162 C   0  0  2  0  0  0  0  0  0  0  0  0
   12.9561    8.9440    1.6426 N   0  0  0  0  0  0  0  0  0  0  0  0
   12.7619    8.7156    4.1081 C   0  0  2  0  0  0  0  0  0  0  0  0
   11.9445    8.0626    5.2714 C   0  0  2  0  0  0  0  0  0  0  0  0
   12.5803    8.4796    6.5046 O   0  0  0  0  0  0  0  0  0  0  0  0
   11.9616    6.5071    5.1246 C   0  0  1  0  0  0  0  0  0  0  0  0
   11.2188    5.9572    6.1596 O   0  0  0  0  0  0  0  0  0  0  0  0
   12.3454    7.9475    7.7285 C   0  0  1  0  0  0  0  0  0  0  0  0
   12.9151    8.8566    8.8486 C   0  0  2  0  0  0  0  0  0  0  0  0
   14.2736    8.6368    9.0960 O   0  0  0  0  0  0  0  0  0  0  0  0
   11.9143    8.5509    9.9475 C   0  0  1  0  0  0  0  0  0  0  0  0
   10.5463    8.3941    9.2687 C   0  0  2  0  0  0  0  0  0  0  0  0
   10.9414    7.7591    8.0528 O   0  0  0  0  0  0  0  0  0  0  0  0
    9.7671    9.7272    9.0037 C   0  0  0  0  0  0  0  0  0  0  0  0
   10.4025   10.3850    7.8754 O   0  0  0  0  0  0  0  0  0  0  0  0
   11.4916    6.7247   11.5623 C   0  0  2  0  0  0  0  0  0  0  0  0
   12.3486    7.2938   10.6107 O   0  0  0  0  0  0  0  0  0  0  0  0
   12.2231    5.5795   12.3888 C   0  0  1  0  0  0  0  0  0  0  0  0
    8.3456    4.0571    9.8266 N   0  0  0  0  0  0  0  0  0  0  0  0
   11.1414    4.9836   13.4336 C   0  0  1  0  0  0  0  0  0  0  0  0
   10.6631    6.1196   14.3157 O   0  0  0  0  0  0  0  0  0  0  0  0
    9.8950    4.3341   12.6267 C   0  0  2  0  0  0  0  0  0  0  0  0
   10.3754    3.2471   11.7999 O   0  0  0  0  0  0  0  0  0  0  0  0
    9.1949    5.5280   11.7640 C   0  0  1  0  0  0  0  0  0  0  0  0
   10.2199    6.1606   10.8633 O   0  0  0  0  0  0  0  0  0  0  0  0
    7.9798    5.0160   10.9139 C   0  0  0  0  0  0  0  0  0  0  0  0
   12.7730    4.5426   11.4543 N   0  0  0  0  0  0  0  0  0  0  0  0
  1  2  1  6  0  0  0
  1  3  1  0  0  0  0
  1 10  1  0  0  0  0
  3  4  1  6  0  0  0
  3  5  1  0  0  0  0
  5  6  1  6  0  0  0
  5  7  1  0  0  0  0
  7  8  1  6  0  0  0
  7  9  1  0  0  0  0
  9 10  1  0  0  0  0
  9 11  1  1  0  0  0
 11 12  1  0  0  0  0
 13 14  1  6  0  0  0
 13 15  1  0  0  0  0
 13 21  1  0  0  0  0
 16 15  1  0  0  0  0
 16 17  1  6  0  0  0
 18  2  1  1  0  0  0
 18 16  1  0  0  0  0
 19 18  1  0  0  0  0
 19 20  1  1  0  0  0
 21 19  1  0  0  0  0
 21 22  1  1  0  0  0
 23 20  1  6  0  0  0
 23 24  1  0  0  0  0
 23 28  1  0  0  0  0
 24 25  1  1  0  0  0
 24 26  1  0  0  0  0
 26 27  1  0  0  0  0
 26 32  1  6  0  0  0
 27 28  1  0  0  0  0
 27 29  1  6  0  0  0
 29 30  1  0  0  0  0
 31 32  1  6  0  0  0
 31 40  1  0  0  0  0
 33 31  1  0  0  0  0
 33 42  1  6  0  0  0
 35 33  1  0  0  0  0
 35 36  1  1  0  0  0
 37 35  1  0  0  0  0
 37 38  1  6  0  0  0
 37 39  1  0  0  0  0
 39 40  1  0  0  0  0
 39 41  1  6  0  0  0
 41 34  1  0  0  0  0
M  END
>  <CHROM.1>
98.68424650,-62.39526726,-146.23425099,-167.10153807,-165.61588022,-172.75518100
75.08887699,-167.94102783,-65.64413208,12.43756898,7.70433202,7.31195603
-0.99911764,0.72750573,1.62049299

>  <Name>
2et4_lig

>  <RI>
0

>  <Rbt.Current_Directory>
/home/itssahil/PROJECTS/Mol_Feturizer/New_Systems/rnas/2et4

>  <Rbt.Executable>
rbdock ($Id: //depot/dev/client3/rdock/2013.1/src/exe/rbdock.cxx#4 $)

>  <Rbt.Library>
libRbt.so (2013.1, Build901 2013/11/27)

>  <Rbt.Parameter_File>
/export/apps/rDock/src/rDock_2013.1_src/data/scripts/dock_solv.prm

>  <Rbt.Receptor>
prm/pocket_docking_2.prm

>  <SCORE>
-3.71683

>  <SCORE.INTER>
-9.06132

>  <SCORE.INTER.CONST>
1

>  <SCORE.INTER.POLAR>
-1.39584

>  <SCORE.INTER.ROT>
9

>  <SCORE.INTER.SOLV>
18.7919

>  <SCORE.INTER.VDW>
-17.2521

>  <SCORE.INTER.norm>
-0.215746

>  <SCORE.INTRA>
0.548369

>  <SCORE.INTRA.DIHEDRAL>
-8.47033

>  <SCORE.INTRA.DIHEDRAL.0>
21.6909

>  <SCORE.INTRA.POLAR>
0

>  <SCORE.INTRA.POLAR.0>
0

>  <SCORE.INTRA.REPUL>
0

>  <SCORE.INTRA.REPUL.0>
0

>  <SCORE.INTRA.SOLV>
2.85023

>  <SCORE.INTRA.SOLV.lig_0>
-116.606

>  <SCORE.INTRA.VDW>
3.35842

>  <SCORE.INTRA.VDW.0>
-6.01229

>  <SCORE.INTRA.norm>
0.0130564

>  <SCORE.RESTR>
4.79612

>  <SCORE.RESTR.CAVITY>
4.79612

>  <SCORE.RESTR.norm>
0.114193

>  <SCORE.SYSTEM>
0

>  <SCORE.SYSTEM.CONST>
0

>  <SCORE.SYSTEM.DIHEDRAL>
0

>  <SCORE.SYSTEM.SOLV>
0

>  <SCORE.SYSTEM.norm>
0

>  <SCORE.heavy>
42

>  <SCORE.norm>
-0.0884961

>  <RMSD>
3.664

$$$$
2et4_lig
 OpenBabel11021811423D
libRbt.so/2013.1/901 2013/11/27
 42 45  0  0  0  0  0  0  0  0999 V2000
   13.0491    9.2012    6.4532 C   0  0  2  0  0  0  0  0  0  0  0  0
   13.7172    8.0405    6.9519 O   0  0  0  0  0  0  0  0  0  0  0  0
   11.6402    9.2303    7.0989 C   0  0  2  0  0  0  0  0  0  0  0  0
   11.7216    9.2358    8.5373 N   0  0  0  0  0  0  0  0  0  0  0  0
   10.8169    8.0122    6.5895 C   0  0  1  0  0  0  0  0  0  0  0  0
    9.5455    8.0498    7.1588 O   0  0  0  0  0  0  0  0  0  0  0  0
   10.7689    8.0734    5.0262 C   0  0  2  0  0  0  0  0  0  0  0  0
   10.0351    6.9789    4.5190 O   0  0  0  0  0  0  0  0  0  0  0  0
   12.2071    8.0522    4.4254 C   0  0  2  0  0  0  0  0  0  0  0  0
   12.9384    9.1559    4.9675 O   0  0  0  0  0  0  0  0  0  0  0  0
   12.1994    8.1540    2.8649 C   0  0  0  0  0  0  0  0  0  0  0  0
   11.6683    9.3919    2.4104 N   0  0  0  0  0  0  0  0  0  0  0  0
   17.6207    6.2343    6.5584 C   0  0  2  0  0  0  0  0  0  0  0  0
   19.0814    6.0862    6.5588 N   0  0  0  0  0  0  0  0  0  0  0  0
   17.1916    7.3771    5.4897 C   0  0  0  0  0  0  0  0  0  0  0  0
   15.6169    7.5426    5.5040 C   0  0  2  0  0  0  0  0  0  0  0  0
   15.1837    8.5914    4.5639 N   0  0  0  0  0  0  0  0  0  0  0  0
   15.1454    7.9092    6.9517 C   0  0  2  0  0  0  0  0  0  0  0  0
   15.5908    6.8135    7.9758 C   0  0  2  0  0  0  0  0  0  0  0  0
   15.1227    7.2512    9.2752 O   0  0  0  0  0  0  0  0  0  0  0  0
   17.1464    6.6681    7.9551 C   0  0  1  0  0  0  0  0  0  0  0  0
   17.5104    5.6818    8.8608 O   0  0  0  0  0  0  0  0  0  0  0  0
   13.8628    7.0963    9.7494 C   0  0  1  0  0  0  0  0  0  0  0  0
   13.3985    5.6219    9.6225 C   0  0  2  0  0  0  0  0  0  0  0  0
   12.8811    5.3159    8.3601 O   0  0  0  0  0  0  0  0  0  0  0  0
   12.4773    5.5488   10.8262 C   0  0  1  0  0  0  0  0  0  0  0  0
   13.1286    6.3895   11.9333 C   0  0  2  0  0  0  0  0  0  0  0  0
   13.6911    7.4422   11.1503 O   0  0  0  0  0  0  0  0  0  0  0  0
   14.2161    5.6539   12.7884 C   0  0  0  0  0  0  0  0  0  0  0  0
   13.6191    4.4288   13.2900 O   0  0  0  0  0  0  0  0  0  0  0  0
   10.0908    5.9838   11.3131 C   0  0  2  0  0  0  0  0  0  0  0  0
   11.1605    6.1022   10.4155 O   0  0  0  0  0  0  0  0  0  0  0  0
    8.7525    6.5880   10.7019 C   0  0  1  0  0  0  0  0  0  0  0  0
    9.0015    7.2394   16.2022 N   0  0  0  0  0  0  0  0  0  0  0  0
    7.5996    6.4184   11.8239 C   0  0  1  0  0  0  0  0  0  0  0  0
    7.4735    4.9437   12.1507 O   0  0  0  0  0  0  0  0  0  0  0  0
    7.9955    7.2576   13.1526 C   0  0  2  0  0  0  0  0  0  0  0  0
    8.1006    8.6621   12.8171 O   0  0  0  0  0  0  0  0  0  0  0  0
    9.3888    6.6351   13.7278 C   0  0  1  0  0  0  0  0  0  0  0  0
   10.4414    6.6912   12.6550 O   0  0  0  0  0  0  0  0  0  0  0  0
    9.8926    7.3849   15.0105 C   0  0  0  0  0  0  0  0  0  0  0  0
    8.9723    8.0148   10.2938 N   0  0  0  0  0  0  0  0  0  0  0  0
  1  2  1  1  0  0  0
  1  3  1  0  0  0  0
  1 10  1  0  0  0  0
  3  4  1  1  0  0  0
  3  5  1  0  0  0  0
  5  6  1  1  0  0  0
  5  7  1  0  0  0  0
  7  8  1  6  0  0  0
  7  9  1  0  0  0  0
  9 10  1  0  0  0  0
  9 11  1  6  0  0  0
 11 12  1  0  0  0  0
 13 14  1  1  0  0  0
 13 15  1  0  0  0  0
 13 21  1  0  0  0  0
 16 15  1  0  0  0  0
 16 17  1  6  0  0  0
 18  2  1  6  0  0  0
 18 16  1  0  0  0  0
 19 18  1  0  0  0  0
 19 20  1  1  0  0  0
 21 19  1  0  0  0  0
 21 22  1  1  0  0  0
 23 20  1  1  0  0  0
 23 24  1  0  0  0  0
 23 28  1  0  0  0  0
 24 25  1  6  0  0  0
 24 26  1  0  0  0  0
 26 27  1  0  0  0  0
 26 32  1  6  0  0  0
 27 28  1  0  0  0  0
 27 29  1  6  0  0  0
 29 30  1  0  0  0  0
 31 32  1  6  0  0  0
 31 40  1  0  0  0  0
 33 31  1  0  0  0  0
 33 42  1  1  0  0  0
 35 33  1  0  0  0  0
 35 36  1  1  0  0  0
 37 35  1  0  0  0  0
 37 38  1  6  0  0  0
 37 39  1  0  0  0  0
 39 40  1  0  0  0  0
 39 41  1  1  0  0  0
 41 34  1  0  0  0  0
M  END
>  <CHROM.1>
-158.37125275,63.94320600,-78.04348438,81.17507118,51.68570519,172.04102332
-53.15753231,-178.37016784,65.56602153,12.40264131,7.15687155,8.94656570
0.94774617,0.19181642,-1.29902955

>  <Name>
2et4_lig

>  <RI>
3.65815e+07

>  <Rbt.Current_Directory>
/home/itssahil/PROJECTS/Mol_Feturizer/New_Systems/rnas/2et4

>  <Rbt.Executable>
rbdock ($Id: //depot/dev/client3/rdock/2013.1/src/exe/rbdock.cxx#4 $)

>  <Rbt.Library>
libRbt.so (2013.1, Build901 2013/11/27)

>  <Rbt.Parameter_File>
/export/apps/rDock/src/rDock_2013.1_src/data/scripts/dock_solv.prm

>  <Rbt.Receptor>
prm/pocket_docking_4.prm

>  <SCORE>
-11.9295

>  <SCORE.INTER>
-8.56719

>  <SCORE.INTER.CONST>
1

>  <SCORE.INTER.POLAR>
-0.589998

>  <SCORE.INTER.ROT>
9

>  <SCORE.INTER.SOLV>
15.4927

>  <SCORE.INTER.VDW>
-18.509

>  <SCORE.INTER.norm>
-0.203981

>  <SCORE.INTRA>
-3.36234

>  <SCORE.INTRA.DIHEDRAL>
-14.9951

>  <SCORE.INTRA.DIHEDRAL.0>
21.6909

>  <SCORE.INTRA.POLAR>
0

>  <SCORE.INTRA.POLAR.0>
0

>  <SCORE.INTRA.REPUL>
0

>  <SCORE.INTRA.REPUL.0>
0

>  <SCORE.INTRA.SOLV>
4.63133

>  <SCORE.INTRA.SOLV.lig_0>
-116.606

>  <SCORE.INTRA.VDW>
1.81955

>  <SCORE.INTRA.VDW.0>
-6.01229

>  <SCORE.INTRA.norm>
-0.0800558

>  <SCORE.RESTR>
0

>  <SCORE.RESTR.CAVITY>
0

>  <SCORE.RESTR.norm>
0

>  <SCORE.SYSTEM>
0

>  <SCORE.SYSTEM.CONST>
0

>  <SCORE.SYSTEM.DIHEDRAL>
0

>  <SCORE.SYSTEM.SOLV>
0

>  <SCORE.SYSTEM.norm>
0

>  <SCORE.heavy>
42

>  <SCORE.norm>
-0.284037

>  <RMSD>
3.836

$$$$
2et4_lig
 OpenBabel11021811423D
libRbt.so/2013.1/901 2013/11/27
 42 45  0  0  0  0  0  0  0  0999 V2000
   14.6863    6.7201    4.4153 C   0  0  2  0  0  0  0  0  0  0  0  0
   15.1064    6.1157    5.6403 O   0  0  0  0  0  0  0  0  0  0  0  0
   15.1873    8.1868    4.4340 C   0  0  2  0  0  0  0  0  0  0  0  0
   16.6169    8.2514    4.6004 N   0  0  0  0  0  0  0  0  0  0  0  0
   14.4563    8.9646    5.5662 C   0  0  1  0  0  0  0  0  0  0  0  0
   14.8966   10.2866    5.5703 O   0  0  0  0  0  0  0  0  0  0  0  0
   12.9146    8.8534    5.3197 C   0  0  2  0  0  0  0  0  0  0  0  0
   12.2095    9.5413    6.3312 O   0  0  0  0  0  0  0  0  0  0  0  0
   12.4618    7.3620    5.2989 C   0  0  2  0  0  0  0  0  0  0  0  0
   13.2023    6.6801    4.2824 O   0  0  0  0  0  0  0  0  0  0  0  0
   10.9318    7.2108    5.0132 C   0  0  0  0  0  0  0  0  0  0  0  0
   10.1368    7.9040    5.9664 N   0  0  0  0  0  0  0  0  0  0  0  0
   18.6702    3.9719    6.8054 C   0  0  2  0  0  0  0  0  0  0  0  0
   20.0774    3.7001    7.1244 N   0  0  0  0  0  0  0  0  0  0  0  0
   18.5519    4.4901    5.2725 C   0  0  0  0  0  0  0  0  0  0  0  0
   17.0345    4.7953    4.9387 C   0  0  2  0  0  0  0  0  0  0  0  0
   16.8830    5.2945    3.5604 N   0  0  0  0  0  0  0  0  0  0  0  0
   16.4845    5.8614    5.9454 C   0  0  2  0  0  0  0  0  0  0  0  0
   16.6314    5.3610    7.4205 C   0  0  2  0  0  0  0  0  0  0  0  0
   16.1120    6.4167    8.2660 O   0  0  0  0  0  0  0  0  0  0  0  0
   18.1341    5.0719    7.7361 C   0  0  1  0  0  0  0  0  0  0  0  0
   18.2318    4.6174    9.0436 O   0  0  0  0  0  0  0  0  0  0  0  0
   14.8065    6.6029    8.5777 C   0  0  1  0  0  0  0  0  0  0  0  0
   14.1935    5.3185    9.1940 C   0  0  2  0  0  0  0  0  0  0  0  0
   13.7562    4.4027    8.2321 O   0  0  0  0  0  0  0  0  0  0  0  0
   13.1693    5.9522   10.1172 C   0  0  1  0  0  0  0  0  0  0  0  0
   13.8123    7.2265   10.6826 C   0  0  2  0  0  0  0  0  0  0  0  0
   14.5541    7.6598    9.5426 O   0  0  0  0  0  0  0  0  0  0  0  0
   14.7330    7.0204   11.9334 C   0  0  0  0  0  0  0  0  0  0  0  0
   14.9670    8.3278   12.5209 O   0  0  0  0  0  0  0  0  0  0  0  0
   11.0754    5.2075    9.0299 C   0  0  2  0  0  0  0  0  0  0  0  0
   11.9629    6.2568    9.3045 O   0  0  0  0  0  0  0  0  0  0  0  0
    9.7496    5.7388    8.3300 C   0  0  1  0  0  0  0  0  0  0  0  0
    8.7826    1.3354   11.5617 N   0  0  0  0  0  0  0  0  0  0  0  0
    8.7969    4.4552    8.0820 C   0  0  1  0  0  0  0  0  0  0  0  0
    9.5534    3.4673    7.2164 O   0  0  0  0  0  0  0  0  0  0  0  0
    8.4058    3.7763    9.5007 C   0  0  2  0  0  0  0  0  0  0  0  0
    7.6771    4.7351   10.3044 O   0  0  0  0  0  0  0  0  0  0  0  0
    9.7907    3.2790   10.2038 C   0  0  1  0  0  0  0  0  0  0  0  0
   10.7276    4.4473   10.3433 O   0  0  0  0  0  0  0  0  0  0  0  0
    9.5447    2.6209   11.6065 C   0  0  0  0  0  0  0  0  0  0  0  0
    9.1068    6.7941    9.1809 N   0  0  0  0  0  0  0  0  0  0  0  0
  1  2  1  1  0  0  0
  1  3  1  0  0  0  0
  1 10  1  0  0  0  0
  3  4  1  1  0  0  0
  3  5  1  0  0  0  0
  5  6  1  6  0  0  0
  5  7  1  0  0  0  0
  7  8  1  1  0  0  0
  7  9  1  0  0  0  0
  9 10  1  0  0  0  0
  9 11  1  6  0  0  0
 11 12  1  0  0  0  0
 13 14  1  1  0  0  0
 13 15  1  0  0  0  0
 13 21  1  0  0  0  0
 16 15  1  0  0  0  0
 16 17  1  6  0  0  0
 18  2  1  6  0  0  0
 18 16  1  0  0  0  0
 19 18  1  0  0  0  0
 19 20  1  1  0  0  0
 21 19  1  0  0  0  0
 21 22  1  1  0  0  0
 23 20  1  1  0  0  0
 23 24  1  0  0  0  0
 23 28  1  0  0  0  0
 24 25  1  6  0  0  0
 24 26  1  0  0  0  0
 26 27  1  0  0  0  0
 26 32  1  6  0  0  0
 27 28  1  0  0  0  0
 27 29  1  1  0  0  0
 29 30  1  0  0  0  0
 31 32  1  1  0  0  0
 31 40  1  0  0  0  0
 33 31  1  0  0  0  0
 33 42  1  1  0  0  0
 35 33  1  0  0  0  0
 35 36  1  6  0  0  0
 37 35  1  0  0  0  0
 37 38  1  1  0  0  0
 37 39  1  0  0  0  0
 39 40  1  0  0  0  0
 39 41  1  1  0  0  0
 41 34  1  0  0  0  0
M  END
>  <CHROM.1>
-67.75615458,-57.84112539,-65.27215197,83.98384330,54.87959392,80.08340605
-165.79930963,172.12829668,66.10972096,13.52683601,5.97822153,7.74413273
0.50765762,0.09501026,-0.97772321

>  <Name>
2et4_lig

>  <RI>
0

>  <Rbt.Current_Directory>
/home/itssahil/PROJECTS/Mol_Feturizer/New_Systems/rnas/2et4

>  <Rbt.Executable>
rbdock ($Id: //depot/dev/client3/rdock/2013.1/src/exe/rbdock.cxx#4 $)

>  <Rbt.Library>
libRbt.so (2013.1, Build901 2013/11/27)

>  <Rbt.Parameter_File>
/export/apps/rDock/src/rDock_2013.1_src/data/scripts/dock_solv.prm

>  <Rbt.Receptor>
prm/pocket_docking_3.prm

>  <SCORE>
-8.61817

>  <SCORE.INTER>
-4.33099

>  <SCORE.INTER.CONST>
1

>  <SCORE.INTER.POLAR>
-1.7274

>  <SCORE.INTER.ROT>
9

>  <SCORE.INTER.SOLV>
10.458

>  <SCORE.INTER.VDW>
-10.2153

>  <SCORE.INTER.norm>
-0.103119

>  <SCORE.INTRA>
-4.28718

>  <SCORE.INTRA.DIHEDRAL>
-15.5845

>  <SCORE.INTRA.DIHEDRAL.0>
21.6909

>  <SCORE.INTRA.POLAR>
0

>  <SCORE.INTRA.POLAR.0>
0

>  <SCORE.INTRA.REPUL>
0

>  <SCORE.INTRA.REPUL.0>
0

>  <SCORE.INTRA.SOLV>
3.69642

>  <SCORE.INTRA.SOLV.lig_0>
-116.606

>  <SCORE.INTRA.VDW>
1.65688

>  <SCORE.INTRA.VDW.0>
-6.01229

>  <SCORE.INTRA.norm>
-0.102076

>  <SCORE.RESTR>
0

>  <SCORE.RESTR.CAVITY>
0

>  <SCORE.RESTR.norm>
0

>  <SCORE.SYSTEM>
0

>  <SCORE.SYSTEM.CONST>
0

>  <SCORE.SYSTEM.DIHEDRAL>
0

>  <SCORE.SYSTEM.SOLV>
0

>  <SCORE.SYSTEM.norm>
0

>  <SCORE.heavy>
42

>  <SCORE.norm>
-0.205195

>  <RMSD>
3.913

$$$$
2et4_lig
 OpenBabel11021811423D
libRbt.so/2013.1/901 2013/11/27
 42 45  0  0  0  0  0  0  0  0999 V2000
   13.5279    7.2672    4.4914 C   0  0  2  0  0  0  0  0  0  0  0  0
   13.9192    8.2734    5.4278 O   0  0  0  0  0  0  0  0  0  0  0  0
   12.7824    7.9831    3.3363 C   0  0  2  0  0  0  0  0  0  0  0  0
   13.6083    8.9924    2.7239 N   0  0  0  0  0  0  0  0  0  0  0  0
   11.4602    8.5965    3.8809 C   0  0  1  0  0  0  0  0  0  0  0  0
   10.7843    9.2254    2.8372 O   0  0  0  0  0  0  0  0  0  0  0  0
   10.6168    7.4467    4.5264 C   0  0  2  0  0  0  0  0  0  0  0  0
    9.4073    7.9613    5.0419 O   0  0  0  0  0  0  0  0  0  0  0  0
   11.4116    6.7519    5.6733 C   0  0  2  0  0  0  0  0  0  0  0  0
   12.6407    6.2566    5.1342 O   0  0  0  0  0  0  0  0  0  0  0  0
   10.6147    5.5690    6.3147 C   0  0  0  0  0  0  0  0  0  0  0  0
   10.4689    4.4731    5.4209 N   0  0  0  0  0  0  0  0  0  0  0  0
   16.0947    6.0407    8.4173 C   0  0  2  0  0  0  0  0  0  0  0  0
   16.9699    5.7494    9.5596 N   0  0  0  0  0  0  0  0  0  0  0  0
   16.9408    6.8141    7.2691 C   0  0  0  0  0  0  0  0  0  0  0  0
   15.9887    7.1384    6.0462 C   0  0  2  0  0  0  0  0  0  0  0  0
   16.7114    7.8655    4.9876 N   0  0  0  0  0  0  0  0  0  0  0  0
   14.7795    8.0010    6.5425 C   0  0  2  0  0  0  0  0  0  0  0  0
   13.9902    7.2558    7.6692 C   0  0  2  0  0  0  0  0  0  0  0  0
   12.9107    8.1369    8.0661 O   0  0  0  0  0  0  0  0  0  0  0  0
   14.9411    6.9503    8.8708 C   0  0  1  0  0  0  0  0  0  0  0  0
   14.2187    6.2782    9.8465 O   0  0  0  0  0  0  0  0  0  0  0  0
   12.0735    7.9319    9.1116 C   0  0  1  0  0  0  0  0  0  0  0  0
   11.5842    9.2790    9.7044 C   0  0  2  0  0  0  0  0  0  0  0  0
   12.4795    9.8308   10.6257 O   0  0  0  0  0  0  0  0  0  0  0  0
   10.2106    8.8516   10.1875 C   0  0  1  0  0  0  0  0  0  0  0  0
    9.6648    7.8615    9.1489 C   0  0  2  0  0  0  0  0  0  0  0  0
   10.8693    7.1839    8.7917 O   0  0  0  0  0  0  0  0  0  0  0  0
    8.9670    8.5060    7.9029 C   0  0  0  0  0  0  0  0  0  0  0  0
    8.1218    7.4885    7.3035 O   0  0  0  0  0  0  0  0  0  0  0  0
    9.3262    7.4419   12.0183 C   0  0  2  0  0  0  0  0  0  0  0  0
   10.3832    8.2150   11.5193 O   0  0  0  0  0  0  0  0  0  0  0  0
    8.0590    8.3423   12.3551 C   0  0  1  0  0  0  0  0  0  0  0  0
   10.5867    4.2282   14.8834 N   0  0  0  0  0  0  0  0  0  0  0  0
    6.9180    7.3558   12.9397 C   0  0  1  0  0  0  0  0  0  0  0  0
    6.6197    6.3053   11.8885 O   0  0  0  0  0  0  0  0  0  0  0  0
    7.4412    6.6546   14.3038 C   0  0  2  0  0  0  0  0  0  0  0  0
    7.7099    7.6763   15.2938 O   0  0  0  0  0  0  0  0  0  0  0  0
    8.7600    5.7725   13.9262 C   0  0  1  0  0  0  0  0  0  0  0  0
    9.7887    6.6620   13.2839 O   0  0  0  0  0  0  0  0  0  0  0  0
    9.3784    5.0579   15.1785 C   0  0  0  0  0  0  0  0  0  0  0  0
    8.4427    9.4320   13.3122 N   0  0  0  0  0  0  0  0  0  0  0  0
  1  2  1  1  0  0  0
  1  3  1  0  0  0  0
  1 10  1  0  0  0  0
  3  4  1  1  0  0  0
  3  5  1  0  0  0  0
  5  6  1  6  0  0  0
  5  7  1  0  0  0  0
  7  8  1  1  0  0  0
  7  9  1  0  0  0  0
  9 10  1  0  0  0  0
  9 11  1  6  0  0  0
 11 12  1  0  0  0  0
 13 14  1  1  0  0  0
 13 15  1  0  0  0  0
 13 21  1  0  0  0  0
 16 15  1  0  0  0  0
 16 17  1  6  0  0  0
 18  2  1  6  0  0  0
 18 16  1  0  0  0  0
 19 18  1  0  0  0  0
 19 20  1  1  0  0  0
 21 19  1  0  0  0  0
 21 22  1  1  0  0  0
 23 20  1  6  0  0  0
 23 24  1  0  0  0  0
 23 28  1  0  0  0  0
 24 25  1  1  0  0  0
 24 26  1  0  0  0  0
 26 27  1  0  0  0  0
 26 32  1  1  0  0  0
 27 28  1  0  0  0  0
 27 29  1  6  0  0  0
 29 30  1  0  0  0  0
 31 32  1  1  0  0  0
 31 40  1  0  0  0  0
 33 31  1  0  0  0  0
 33 42  1  1  0  0  0
 35 33  1  0  0  0  0
 35 36  1  6  0  0  0
 37 35  1  0  0  0  0
 37 38  1  1  0  0  0
 37 39  1  0  0  0  0
 39 40  1  0  0  0  0
 39 41  1  1  0  0  0
 41 34  1  0  0  0  0
M  END
>  <CHROM.1>
-171.87358902,68.47681722,45.61590742,-172.71570822,150.21456927,-164.11846721
-159.99354023,-67.45997699,179.63884067,11.44637317,7.36715313,8.71872014
1.02069953,0.13621484,-1.41379698

>  <Name>
2et4_lig

>  <RI>
3.65815e+07

>  <Rbt.Current_Directory>
/home/itssahil/PROJECTS/Mol_Feturizer/New_Systems/rnas/2et4

>  <Rbt.Executable>
rbdock ($Id: //depot/dev/client3/rdock/2013.1/src/exe/rbdock.cxx#4 $)

>  <Rbt.Library>
libRbt.so (2013.1, Build901 2013/11/27)

>  <Rbt.Parameter_File>
/export/apps/rDock/src/rDock_2013.1_src/data/scripts/dock_solv.prm

>  <Rbt.Receptor>
prm/pocket_docking_4.prm

>  <SCORE>
-8.48654

>  <SCORE.INTER>
-2.2717

>  <SCORE.INTER.CONST>
1

>  <SCORE.INTER.POLAR>
0

>  <SCORE.INTER.ROT>
9

>  <SCORE.INTER.SOLV>
16.5057

>  <SCORE.INTER.VDW>
-16.6164

>  <SCORE.INTER.norm>
-0.0540881

>  <SCORE.INTRA>
-6.21676

>  <SCORE.INTRA.DIHEDRAL>
-13.4756

>  <SCORE.INTRA.DIHEDRAL.0>
21.6909

>  <SCORE.INTRA.POLAR>
0

>  <SCORE.INTRA.POLAR.0>
0

>  <SCORE.INTRA.REPUL>
0

>  <SCORE.INTRA.REPUL.0>
0

>  <SCORE.INTRA.SOLV>
-1.40407

>  <SCORE.INTRA.SOLV.lig_0>
-116.606

>  <SCORE.INTRA.VDW>
1.22306

>  <SCORE.INTRA.VDW.0>
-6.01229

>  <SCORE.INTRA.norm>
-0.148018

>  <SCORE.RESTR>
0.00191759

>  <SCORE.RESTR.CAVITY>
0.00191759

>  <SCORE.RESTR.norm>
4.56569e-05

>  <SCORE.SYSTEM>
0

>  <SCORE.SYSTEM.CONST>
0

>  <SCORE.SYSTEM.DIHEDRAL>
0

>  <SCORE.SYSTEM.SOLV>
0

>  <SCORE.SYSTEM.norm>
0

>  <SCORE.heavy>
42

>  <SCORE.norm>
-0.202061

>  <RMSD>
3.942

$$$$
2et4_lig
 OpenBabel11021811423D
libRbt.so/2013.1/901 2013/11/27
 42 45  0  0  0  0  0  0  0  0999 V2000
   14.7083    7.8401    5.2504 C   0  0  2  0  0  0  0  0  0  0  0  0
   14.9615    7.2854    6.5429 O   0  0  0  0  0  0  0  0  0  0  0  0
   13.3801    8.6334    5.3457 C   0  0  2  0  0  0  0  0  0  0  0  0
   13.4487    9.6525    6.3618 N   0  0  0  0  0  0  0  0  0  0  0  0
   12.2106    7.6450    5.6224 C   0  0  1  0  0  0  0  0  0  0  0  0
   11.0158    8.3587    5.6915 O   0  0  0  0  0  0  0  0  0  0  0  0
   12.1961    6.5727    4.4823 C   0  0  2  0  0  0  0  0  0  0  0  0
   11.1513    5.6478    4.6979 O   0  0  0  0  0  0  0  0  0  0  0  0
   13.5544    5.8104    4.4197 C   0  0  2  0  0  0  0  0  0  0  0  0
   14.5995    6.7671    4.2216 O   0  0  0  0  0  0  0  0  0  0  0  0
   13.5910    4.7581    3.2636 C   0  0  0  0  0  0  0  0  0  0  0  0
   13.3470    5.3478    1.9932 N   0  0  0  0  0  0  0  0  0  0  0  0
   18.4923    5.1764    7.8620 C   0  0  2  0  0  0  0  0  0  0  0  0
   19.8456    4.9340    8.3772 N   0  0  0  0  0  0  0  0  0  0  0  0
   18.5804    6.0401    6.4914 C   0  0  0  0  0  0  0  0  0  0  0  0
   17.1178    6.3108    5.9483 C   0  0  2  0  0  0  0  0  0  0  0  0
   17.1491    7.1164    4.7147 N   0  0  0  0  0  0  0  0  0  0  0  0
   16.2868    7.0612    7.0432 C   0  0  2  0  0  0  0  0  0  0  0  0
   16.2346    6.2307    8.3681 C   0  0  2  0  0  0  0  0  0  0  0  0
   15.4623    7.0122    9.3125 O   0  0  0  0  0  0  0  0  0  0  0  0
   17.6840    5.9790    8.8946 C   0  0  1  0  0  0  0  0  0  0  0  0
   17.6071    5.2300   10.0602 O   0  0  0  0  0  0  0  0  0  0  0  0
   14.5203    6.5210   10.1537 C   0  0  1  0  0  0  0  0  0  0  0  0
   15.1523    5.5649   11.1987 C   0  0  2  0  0  0  0  0  0  0  0  0
   15.3044    4.2580   10.7256 O   0  0  0  0  0  0  0  0  0  0  0  0
   14.2114    5.8148   12.3627 C   0  0  1  0  0  0  0  0  0  0  0  0
   13.8582    7.3085   12.3331 C   0  0  2  0  0  0  0  0  0  0  0  0
   13.8057    7.5256   10.9231 O   0  0  0  0  0  0  0  0  0  0  0  0
   14.8886    8.2600   13.0313 C   0  0  0  0  0  0  0  0  0  0  0  0
   15.0333    7.8109   14.4048 O   0  0  0  0  0  0  0  0  0  0  0  0
   12.1341    4.7961   13.2394 C   0  0  2  0  0  0  0  0  0  0  0  0
   13.0125    4.9602   12.1598 O   0  0  0  0  0  0  0  0  0  0  0  0
   11.0933    3.6249   12.9661 C   0  0  1  0  0  0  0  0  0  0  0  0
    8.9469    7.6948   16.0812 N   0  0  0  0  0  0  0  0  0  0  0  0
   10.1235    3.5408   14.2581 C   0  0  1  0  0  0  0  0  0  0  0  0
   10.9848    3.2779   15.4773 O   0  0  0  0  0  0  0  0  0  0  0  0
    9.3132    4.9336   14.4311 C   0  0  2  0  0  0  0  0  0  0  0  0
    8.4920    5.1573   13.2599 O   0  0  0  0  0  0  0  0  0  0  0  0
   10.4132    6.1134   14.6714 C   0  0  1  0  0  0  0  0  0  0  0  0
   11.3854    6.1311   13.5241 O   0  0  0  0  0  0  0  0  0  0  0  0
    9.7484    7.5255   14.8304 C   0  0  0  0  0  0  0  0  0  0  0  0
   10.3513    3.8848   11.6883 N   0  0  0  0  0  0  0  0  0  0  0  0
  1  2  1  1  0  0  0
  1  3  1  0  0  0  0
  1 10  1  0  0  0  0
  3  4  1  1  0  0  0
  3  5  1  0  0  0  0
  5  6  1  6  0  0  0
  5  7  1  0  0  0  0
  7  8  1  1  0  0  0
  7  9  1  0  0  0  0
  9 10  1  0  0  0  0
  9 11  1  6  0  0  0
 11 12  1  0  0  0  0
 13 14  1  1  0  0  0
 13 15  1  0  0  0  0
 13 21  1  0  0  0  0
 16 15  1  0  0  0  0
 16 17  1  6  0  0  0
 18  2  1  6  0  0  0
 18 16  1  0  0  0  0
 19 18  1  0  0  0  0
 19 20  1  1  0  0  0
 21 19  1  0  0  0  0
 21 22  1  1  0  0  0
 23 20  1  1  0  0  0
 23 24  1  0  0  0  0
 23 28  1  0  0  0  0
 24 25  1  6  0  0  0
 24 26  1  0  0  0  0
 26 27  1  0  0  0  0
 26 32  1  6  0  0  0
 27 28  1  0  0  0  0
 27 29  1  6  0  0  0
 29 30  1  0  0  0  0
 31 32  1  6  0  0  0
 31 40  1  0  0  0  0
 33 31  1  0  0  0  0
 33 42  1  6  0  0  0
 35 33  1  0  0  0  0
 35 36  1  1  0  0  0
 37 35  1  0  0  0  0
 37 38  1  6  0  0  0
 37 39  1  0  0  0  0
 39 40  1  0  0  0  0
 39 41  1  6  0  0  0
 41 34  1  0  0  0  0
M  END
>  <CHROM.1>
-149.24626194,57.55910298,-48.72321976,137.59035605,65.26407867,166.48267525
-56.83308341,-167.75968887,68.12161721,13.67835545,6.19324573,9.47338601
1.13551076,0.01595835,-1.45204663

>  <Name>
2et4_lig

>  <RI>
0

>  <Rbt.Current_Directory>
/home/itssahil/PROJECTS/Mol_Feturizer/New_Systems/rnas/2et4

>  <Rbt.Executable>
rbdock ($Id: //depot/dev/client3/rdock/2013.1/src/exe/rbdock.cxx#4 $)

>  <Rbt.Library>
libRbt.so (2013.1, Build901 2013/11/27)

>  <Rbt.Parameter_File>
/export/apps/rDock/src/rDock_2013.1_src/data/scripts/dock_solv.prm

>  <Rbt.Receptor>
prm/pocket_docking_5.prm

>  <SCORE>
-10.8433

>  <SCORE.INTER>
-9.47617

>  <SCORE.INTER.CONST>
1

>  <SCORE.INTER.POLAR>
-1.304

>  <SCORE.INTER.ROT>
9

>  <SCORE.INTER.SOLV>
18.7224

>  <SCORE.INTER.VDW>
-17.8116

>  <SCORE.INTER.norm>
-0.225623

>  <SCORE.INTRA>
-1.36709

>  <SCORE.INTRA.DIHEDRAL>
-9.40617

>  <SCORE.INTRA.DIHEDRAL.0>
21.6909

>  <SCORE.INTRA.POLAR>
0

>  <SCORE.INTRA.POLAR.0>
0

>  <SCORE.INTRA.REPUL>
0

>  <SCORE.INTRA.REPUL.0>
0

>  <SCORE.INTRA.SOLV>
-0.764208

>  <SCORE.INTRA.SOLV.lig_0>
-116.606

>  <SCORE.INTRA.VDW>
3.7181

>  <SCORE.INTRA.VDW.0>
-6.01229

>  <SCORE.INTRA.norm>
-0.0325497

>  <SCORE.RESTR>
0

>  <SCORE.RESTR.CAVITY>
0

>  <SCORE.RESTR.norm>
0

>  <SCORE.SYSTEM>
0

>  <SCORE.SYSTEM.CONST>
0

>  <SCORE.SYSTEM.DIHEDRAL>
0

>  <SCORE.SYSTEM.SOLV>
0

>  <SCORE.SYSTEM.norm>
0

>  <SCORE.heavy>
42

>  <SCORE.norm>
-0.258173

>  <RMSD>
3.947

$$$$
2et4_lig
 OpenBabel11021811423D
libRbt.so/2013.1/901 2013/11/27
 42 45  0  0  0  0  0  0  0  0999 V2000
   14.7589    6.4676    4.4777 C   0  0  2  0  0  0  0  0  0  0  0  0
   14.7613    5.8600    5.7711 O   0  0  0  0  0  0  0  0  0  0  0  0
   15.3881    7.8756    4.6330 C   0  0  2  0  0  0  0  0  0  0  0  0
   16.7161    7.7994    5.1864 N   0  0  0  0  0  0  0  0  0  0  0  0
   14.4619    8.7567    5.5201 C   0  0  1  0  0  0  0  0  0  0  0  0
   15.0217   10.0267    5.6448 O   0  0  0  0  0  0  0  0  0  0  0  0
   13.0437    8.7958    4.8589 C   0  0  2  0  0  0  0  0  0  0  0  0
   12.1658    9.5813    5.6371 O   0  0  0  0  0  0  0  0  0  0  0  0
   12.4585    7.3582    4.7148 C   0  0  2  0  0  0  0  0  0  0  0  0
   13.3724    6.5748    3.9415 O   0  0  0  0  0  0  0  0  0  0  0  0
   11.0580    7.3551    4.0192 C   0  0  0  0  0  0  0  0  0  0  0  0
   10.4689    6.0613    4.0046 N   0  0  0  0  0  0  0  0  0  0  0  0
   17.5625    3.4618    8.0200 C   0  0  2  0  0  0  0  0  0  0  0  0
   18.7914    3.0611    8.7163 N   0  0  0  0  0  0  0  0  0  0  0  0
   17.8995    3.7815    6.4655 C   0  0  0  0  0  0  0  0  0  0  0  0
   16.5737    4.2270    5.7232 C   0  0  2  0  0  0  0  0  0  0  0  0
   16.8386    4.5528    4.3106 N   0  0  0  0  0  0  0  0  0  0  0  0
   15.9685    5.4782    6.4449 C   0  0  2  0  0  0  0  0  0  0  0  0
   15.6756    5.1646    7.9495 C   0  0  2  0  0  0  0  0  0  0  0  0
   15.1372    6.3803    8.5251 O   0  0  0  0  0  0  0  0  0  0  0  0
   16.9942    4.7346    8.6689 C   0  0  1  0  0  0  0  0  0  0  0  0
   16.7017    4.4499    9.9952 O   0  0  0  0  0  0  0  0  0  0  0  0
   14.1401    6.4414    9.4407 C   0  0  1  0  0  0  0  0  0  0  0  0
   12.7876    6.0048    8.8197 C   0  0  2  0  0  0  0  0  0  0  0  0
   12.1325    7.0409    8.1472 O   0  0  0  0  0  0  0  0  0  0  0  0
   12.1332    5.4050   10.0504 C   0  0  1  0  0  0  0  0  0  0  0  0
   13.2427    4.6970   10.8407 C   0  0  2  0  0  0  0  0  0  0  0  0
   14.3286    5.5933   10.6057 O   0  0  0  0  0  0  0  0  0  0  0  0
   13.5787    3.2393   10.3747 C   0  0  0  0  0  0  0  0  0  0  0  0
   12.3462    2.4728   10.4226 O   0  0  0  0  0  0  0  0  0  0  0  0
   10.5459    6.2054   11.7713 C   0  0  2  0  0  0  0  0  0  0  0  0
   11.5302    6.5209   10.8249 O   0  0  0  0  0  0  0  0  0  0  0  0
   10.0040    7.5110   12.5003 C   0  0  1  0  0  0  0  0  0  0  0  0
    9.9681    3.0534   15.8169 N   0  0  0  0  0  0  0  0  0  0  0  0
    8.8980    7.0284   13.5776 C   0  0  1  0  0  0  0  0  0  0  0  0
    7.8070    6.2857   12.8323 O   0  0  0  0  0  0  0  0  0  0  0  0
    9.5869    6.0598   14.6792 C   0  0  2  0  0  0  0  0  0  0  0  0
   10.6175    6.7937   15.3830 O   0  0  0  0  0  0  0  0  0  0  0  0
   10.1624    4.7533   13.8906 C   0  0  1  0  0  0  0  0  0  0  0  0
   11.1137    5.1985   12.8141 O   0  0  0  0  0  0  0  0  0  0  0  0
   10.8797    3.7435   14.8534 C   0  0  0  0  0  0  0  0  0  0  0  0
   11.1436    8.2628   13.1222 N   0  0  0  0  0  0  0  0  0  0  0  0
  1  2  1  1  0  0  0
  1  3  1  0  0  0  0
  1 10  1  0  0  0  0
  3  4  1  1  0  0  0
  3  5  1  0  0  0  0
  5  6  1  6  0  0  0
  5  7  1  0  0  0  0
  7  8  1  1  0  0  0
  7  9  1  0  0  0  0
  9 10  1  0  0  0  0
  9 11  1  6  0  0  0
 11 12  1  0  0  0  0
 13 14  1  1  0  0  0
 13 15  1  0  0  0  0
 13 21  1  0  0  0  0
 16 15  1  0  0  0  0
 16 17  1  6  0  0  0
 18  2  1  6  0  0  0
 18 16  1  0  0  0  0
 19 18  1  0  0  0  0
 19 20  1  1  0  0  0
 21 19  1  0  0  0  0
 21 22  1  1  0  0  0
 23 20  1  6  0  0  0
 23 24  1  0  0  0  0
 23 28  1  0  0  0  0
 24 25  1  1  0  0  0
 24 26  1  0  0  0  0
 26 27  1  0  0  0  0
 26 32  1  1  0  0  0
 27 28  1  0  0  0  0
 27 29  1  6  0  0  0
 29 30  1  0  0  0  0
 31 32  1  6  0  0  0
 31 40  1  0  0  0  0
 33 31  1  0  0  0  0
 33 42  1  1  0  0  0
 35 33  1  0  0  0  0
 35 36  1  6  0  0  0
 37 35  1  0  0  0  0
 37 38  1  6  0  0  0
 37 39  1  0  0  0  0
 39 40  1  0  0  0  0
 39 41  1  1  0  0  0
 41 34  1  0  0  0  0
M  END
>  <CHROM.1>
-67.63259064,-174.31883265,-71.70154479,141.81633045,-68.48929463,161.39647077
-55.95729018,-179.67362947,68.08090173,13.28145549,5.96744064,8.92500293
0.93886387,0.53467219,-1.10294856

>  <Name>
2et4_lig

>  <RI>
3.65815e+07

>  <Rbt.Current_Directory>
/home/itssahil/PROJECTS/Mol_Feturizer/New_Systems/rnas/2et4

>  <Rbt.Executable>
rbdock ($Id: //depot/dev/client3/rdock/2013.1/src/exe/rbdock.cxx#4 $)

>  <Rbt.Library>
libRbt.so (2013.1, Build901 2013/11/27)

>  <Rbt.Parameter_File>
/export/apps/rDock/src/rDock_2013.1_src/data/scripts/dock_solv.prm

>  <Rbt.Receptor>
prm/pocket_docking_4.prm

>  <SCORE>
-7.74864

>  <SCORE.INTER>
-2.08305

>  <SCORE.INTER.CONST>
1

>  <SCORE.INTER.POLAR>
-0.881488

>  <SCORE.INTER.ROT>
9

>  <SCORE.INTER.SOLV>
12.1837

>  <SCORE.INTER.VDW>
-12.1117

>  <SCORE.INTER.norm>
-0.0495964

>  <SCORE.INTRA>
-5.66559

>  <SCORE.INTRA.DIHEDRAL>
-13.1769

>  <SCORE.INTRA.DIHEDRAL.0>
21.6909

>  <SCORE.INTRA.POLAR>
0

>  <SCORE.INTRA.POLAR.0>
0

>  <SCORE.INTRA.REPUL>
0

>  <SCORE.INTRA.REPUL.0>
0

>  <SCORE.INTRA.SOLV>
0.391437

>  <SCORE.INTRA.SOLV.lig_0>
-116.606

>  <SCORE.INTRA.VDW>
0.727126

>  <SCORE.INTRA.VDW.0>
-6.01229

>  <SCORE.INTRA.norm>
-0.134895

>  <SCORE.RESTR>
0

>  <SCORE.RESTR.CAVITY>
0

>  <SCORE.RESTR.norm>
0

>  <SCORE.SYSTEM>
0

>  <SCORE.SYSTEM.CONST>
0

>  <SCORE.SYSTEM.DIHEDRAL>
0

>  <SCORE.SYSTEM.SOLV>
0

>  <SCORE.SYSTEM.norm>
0

>  <SCORE.heavy>
42

>  <SCORE.norm>
-0.184491

>  <RMSD>
4.030

$$$$
2et4_lig
 OpenBabel11021811423D
libRbt.so/2013.1/901 2013/11/27
 42 45  0  0  0  0  0  0  0  0999 V2000
   12.6952    9.3637    6.9995 C   0  0  2  0  0  0  0  0  0  0  0  0
   13.5271    8.2873    7.4373 O   0  0  0  0  0  0  0  0  0  0  0  0
   11.6325    9.5981    8.1034 C   0  0  2  0  0  0  0  0  0  0  0  0
   12.2491    9.8805    9.3745 N   0  0  0  0  0  0  0  0  0  0  0  0
   10.7049    8.3522    8.1958 C   0  0  1  0  0  0  0  0  0  0  0  0
    9.7408    8.5721    9.1776 O   0  0  0  0  0  0  0  0  0  0  0  0
   10.0709    8.1086    6.7856 C   0  0  2  0  0  0  0  0  0  0  0  0
    9.2244    6.9792    6.8216 O   0  0  0  0  0  0  0  0  0  0  0  0
   11.1774    7.8892    5.7098 C   0  0  2  0  0  0  0  0  0  0  0  0
   12.0346    9.0346    5.7046 O   0  0  0  0  0  0  0  0  0  0  0  0
   10.5808    7.6836    4.2790 C   0  0  0  0  0  0  0  0  0  0  0  0
    9.8500    6.4689    4.1717 N   0  0  0  0  0  0  0  0  0  0  0  0
   16.7911    6.7242    5.0799 C   0  0  2  0  0  0  0  0  0  0  0  0
   18.1530    6.5122    4.5740 N   0  0  0  0  0  0  0  0  0  0  0  0
   16.3736    8.2790    4.8785 C   0  0  0  0  0  0  0  0  0  0  0  0
   14.9099    8.5049    5.4388 C   0  0  2  0  0  0  0  0  0  0  0  0
   14.4982    9.9129    5.2993 N   0  0  0  0  0  0  0  0  0  0  0  0
   14.8612    8.0919    6.9487 C   0  0  2  0  0  0  0  0  0  0  0  0
   15.2939    6.5994    7.1312 C   0  0  2  0  0  0  0  0  0  0  0  0
   15.2296    6.3240    8.5521 O   0  0  0  0  0  0  0  0  0  0  0  0
   16.7420    6.3952    6.5809 C   0  0  1  0  0  0  0  0  0  0  0  0
   17.0926    5.0624    6.7429 O   0  0  0  0  0  0  0  0  0  0  0  0
   14.1722    6.5899    9.3567 C   0  0  1  0  0  0  0  0  0  0  0  0
   13.8272    5.3654   10.2440 C   0  0  2  0  0  0  0  0  0  0  0  0
   13.0074    4.4340    9.5995 O   0  0  0  0  0  0  0  0  0  0  0  0
   13.2900    6.0890   11.4650 C   0  0  1  0  0  0  0  0  0  0  0  0
   14.1457    7.3510   11.6432 C   0  0  2  0  0  0  0  0  0  0  0  0
   14.3685    7.6977   10.2765 O   0  0  0  0  0  0  0  0  0  0  0  0
   15.4912    7.1504   12.4205 C   0  0  0  0  0  0  0  0  0  0  0  0
   16.2749    6.1721   11.6872 O   0  0  0  0  0  0  0  0  0  0  0  0
   11.1519    7.0970   12.1958 C   0  0  2  0  0  0  0  0  0  0  0  0
   11.8663    6.4209   11.1974 O   0  0  0  0  0  0  0  0  0  0  0  0
   11.2969    6.3713   13.6037 C   0  0  1  0  0  0  0  0  0  0  0  0
    6.6717    6.6061   12.0263 N   0  0  0  0  0  0  0  0  0  0  0  0
   10.4207    7.2191   14.6668 C   0  0  1  0  0  0  0  0  0  0  0  0
   10.9515    8.6387   14.6891 O   0  0  0  0  0  0  0  0  0  0  0  0
    8.8604    7.2083   14.2288 C   0  0  2  0  0  0  0  0  0  0  0  0
    8.3748    5.8443   14.2242 O   0  0  0  0  0  0  0  0  0  0  0  0
    8.7572    7.9251   12.7675 C   0  0  1  0  0  0  0  0  0  0  0  0
    9.6516    7.2071   11.7946 O   0  0  0  0  0  0  0  0  0  0  0  0
    7.2872    7.9549   12.2202 C   0  0  0  0  0  0  0  0  0  0  0  0
   10.8628    4.9397   13.4910 N   0  0  0  0  0  0  0  0  0  0  0  0
  1  2  1  1  0  0  0
  1  3  1  0  0  0  0
  1 10  1  0  0  0  0
  3  4  1  1  0  0  0
  3  5  1  0  0  0  0
  5  6  1  1  0  0  0
  5  7  1  0  0  0  0
  7  8  1  1  0  0  0
  7  9  1  0  0  0  0
  9 10  1  0  0  0  0
  9 11  1  6  0  0  0
 11 12  1  0  0  0  0
 13 14  1  1  0  0  0
 13 15  1  0  0  0  0
 13 21  1  0  0  0  0
 16 15  1  0  0  0  0
 16 17  1  1  0  0  0
 18  2  1  6  0  0  0
 18 16  1  0  0  0  0
 19 18  1  0  0  0  0
 19 20  1  1  0  0  0
 21 19  1  0  0  0  0
 21 22  1  6  0  0  0
 23 20  1  1  0  0  0
 23 24  1  0  0  0  0
 23 28  1  0  0  0  0
 24 25  1  6  0  0  0
 24 26  1  0  0  0  0
 26 27  1  0  0  0  0
 26 32  1  6  0  0  0
 27 28  1  0  0  0  0
 27 29  1  6  0  0  0
 29 30  1  0  0  0  0
 31 32  1  6  0  0  0
 31 40  1  0  0  0  0
 33 31  1  0  0  0  0
 33 42  1  6  0  0  0
 35 33  1  0  0  0  0
 35 36  1  6  0  0  0
 37 35  1  0  0  0  0
 37 38  1  6  0  0  0
 37 39  1  0  0  0  0
 39 40  1  0  0  0  0
 39 41  1  6  0  0  0
 41 34  1  0  0  0  0
M  END
>  <CHROM.1>
-157.25282154,-66.93615594,-35.44869634,50.40670583,132.43595192,179.87662414
59.22114236,-50.93276178,-60.73379771,12.47096136,7.28956344,9.25637077,0.90736155
0.19482922,-1.36333701

>  <Name>
2et4_lig

>  <RI>
0

>  <Rbt.Current_Directory>
/home/itssahil/PROJECTS/Mol_Feturizer/New_Systems/rnas/2et4

>  <Rbt.Executable>
rbdock ($Id: //depot/dev/client3/rdock/2013.1/src/exe/rbdock.cxx#4 $)

>  <Rbt.Library>
libRbt.so (2013.1, Build901 2013/11/27)

>  <Rbt.Parameter_File>
/export/apps/rDock/src/rDock_2013.1_src/data/scripts/dock_solv.prm

>  <Rbt.Receptor>
prm/pocket_docking_5.prm

>  <SCORE>
-11.0723

>  <SCORE.INTER>
-12.685

>  <SCORE.INTER.CONST>
1

>  <SCORE.INTER.POLAR>
-1.71167

>  <SCORE.INTER.ROT>
9

>  <SCORE.INTER.SOLV>
14.4959

>  <SCORE.INTER.VDW>
-17.1831

>  <SCORE.INTER.norm>
-0.302024

>  <SCORE.INTRA>
1.61266

>  <SCORE.INTRA.DIHEDRAL>
-9.18775

>  <SCORE.INTRA.DIHEDRAL.0>
21.6909

>  <SCORE.INTRA.POLAR>
0

>  <SCORE.INTRA.POLAR.0>
0

>  <SCORE.INTRA.REPUL>
0.024761

>  <SCORE.INTRA.REPUL.0>
0

>  <SCORE.INTRA.SOLV>
3.87487

>  <SCORE.INTRA.SOLV.lig_0>
-116.606

>  <SCORE.INTRA.VDW>
4.14529

>  <SCORE.INTRA.VDW.0>
-6.01229

>  <SCORE.INTRA.norm>
0.0383967

>  <SCORE.RESTR>
0

>  <SCORE.RESTR.CAVITY>
0

>  <SCORE.RESTR.norm>
0

>  <SCORE.SYSTEM>
0

>  <SCORE.SYSTEM.CONST>
0

>  <SCORE.SYSTEM.DIHEDRAL>
0

>  <SCORE.SYSTEM.SOLV>
0

>  <SCORE.SYSTEM.norm>
0

>  <SCORE.heavy>
42

>  <SCORE.norm>
-0.263627

>  <RMSD>
4.065

$$$$
2et4_lig
 OpenBabel11021811423D
libRbt.so/2013.1/901 2013/11/27
 42 45  0  0  0  0  0  0  0  0999 V2000
   14.2030    7.2971    6.5154 C   0  0  2  0  0  0  0  0  0  0  0  0
   15.0416    7.7823    7.5658 O   0  0  0  0  0  0  0  0  0  0  0  0
   13.1616    8.4047    6.2134 C   0  0  2  0  0  0  0  0  0  0  0  0
   13.8022    9.6451    5.8574 N   0  0  0  0  0  0  0  0  0  0  0  0
   12.2343    8.5883    7.4494 C   0  0  1  0  0  0  0  0  0  0  0  0
   11.2891    9.5731    7.1693 O   0  0  0  0  0  0  0  0  0  0  0  0
   11.5736    7.2072    7.7748 C   0  0  2  0  0  0  0  0  0  0  0  0
   10.7265    7.3260    8.8981 O   0  0  0  0  0  0  0  0  0  0  0  0
   12.6594    6.1258    8.0603 C   0  0  2  0  0  0  0  0  0  0  0  0
   13.5177    6.0366    6.9192 O   0  0  0  0  0  0  0  0  0  0  0  0
   12.0358    4.7211    8.3491 C   0  0  0  0  0  0  0  0  0  0  0  0
   13.0256    3.7459    8.6495 N   0  0  0  0  0  0  0  0  0  0  0  0
   18.1422    4.8115    8.0294 C   0  0  2  0  0  0  0  0  0  0  0  0
   19.4478    4.2121    8.3325 N   0  0  0  0  0  0  0  0  0  0  0  0
   18.3150    5.9269    6.8639 C   0  0  0  0  0  0  0  0  0  0  0  0
   16.9067    6.5800    6.5514 C   0  0  2  0  0  0  0  0  0  0  0  0
   17.0212    7.6199    5.5136 N   0  0  0  0  0  0  0  0  0  0  0  0
   16.3226    7.2090    7.8613 C   0  0  2  0  0  0  0  0  0  0  0  0
   16.1886    6.1288    8.9851 C   0  0  2  0  0  0  0  0  0  0  0  0
   15.6583    6.8101   10.1485 O   0  0  0  0  0  0  0  0  0  0  0  0
   17.5869    5.5001    9.2868 C   0  0  1  0  0  0  0  0  0  0  0  0
   17.4351    4.5379   10.2752 O   0  0  0  0  0  0  0  0  0  0  0  0
   14.3513    6.8576   10.5032 C   0  0  1  0  0  0  0  0  0  0  0  0
   14.1975    7.0424   12.0354 C   0  0  2  0  0  0  0  0  0  0  0  0
   14.2688    5.8388   12.7434 O   0  0  0  0  0  0  0  0  0  0  0  0
   12.8993    7.8278   12.0601 C   0  0  1  0  0  0  0  0  0  0  0  0
   12.9316    8.7736   10.8513 C   0  0  2  0  0  0  0  0  0  0  0  0
   13.5942    7.9412    9.8996 O   0  0  0  0  0  0  0  0  0  0  0  0
   13.6915   10.1259   11.0720 C   0  0  0  0  0  0  0  0  0  0  0  0
   12.9581   10.8778   12.0749 O   0  0  0  0  0  0  0  0  0  0  0  0
   11.4255    6.1511   13.1268 C   0  0  2  0  0  0  0  0  0  0  0  0
   11.7836    6.8505   11.9664 O   0  0  0  0  0  0  0  0  0  0  0  0
   10.4085    4.9722   12.8017 C   0  0  1  0  0  0  0  0  0  0  0  0
    8.6133    8.3576   15.8410 N   0  0  0  0  0  0  0  0  0  0  0  0
   10.0500    4.2540   14.2061 C   0  0  1  0  0  0  0  0  0  0  0  0
   11.3410    3.7524   14.8217 O   0  0  0  0  0  0  0  0  0  0  0  0
    9.3272    5.3123   15.1981 C   0  0  2  0  0  0  0  0  0  0  0  0
    8.0938    5.7689   14.5929 O   0  0  0  0  0  0  0  0  0  0  0  0
   10.3845    6.5222   15.4776 C   0  0  1  0  0  0  0  0  0  0  0  0
   10.8065    7.1293   14.1679 O   0  0  0  0  0  0  0  0  0  0  0  0
    9.7882    7.6313   16.4133 C   0  0  0  0  0  0  0  0  0  0  0  0
    9.2028    5.5147   12.0926 N   0  0  0  0  0  0  0  0  0  0  0  0
  1  2  1  1  0  0  0
  1  3  1  0  0  0  0
  1 10  1  0  0  0  0
  3  4  1  1  0  0  0
  3  5  1  0  0  0  0
  5  6  1  6  0  0  0
  5  7  1  0  0  0  0
  7  8  1  1  0  0  0
  7  9  1  0  0  0  0
  9 10  1  0  0  0  0
  9 11  1  6  0  0  0
 11 12  1  0  0  0  0
 13 14  1  1  0  0  0
 13 15  1  0  0  0  0
 13 21  1  0  0  0  0
 16 15  1  0  0  0  0
 16 17  1  6  0  0  0
 18  2  1  6  0  0  0
 18 16  1  0  0  0  0
 19 18  1  0  0  0  0
 19 20  1  1  0  0  0
 21 19  1  0  0  0  0
 21 22  1  1  0  0  0
 23 20  1  1  0  0  0
 23 24  1  0  0  0  0
 23 28  1  0  0  0  0
 24 25  1  1  0  0  0
 24 26  1  0  0  0  0
 26 27  1  0  0  0  0
 26 32  1  6  0  0  0
 27 28  1  0  0  0  0
 27 29  1  1  0  0  0
 29 30  1  0  0  0  0
 31 32  1  6  0  0  0
 31 40  1  0  0  0  0
 33 31  1  0  0  0  0
 33 42  1  1  0  0  0
 35 33  1  0  0  0  0
 35 36  1  1  0  0  0
 37 35  1  0  0  0  0
 37 38  1  6  0  0  0
 37 39  1  0  0  0  0
 39 40  1  0  0  0  0
 39 41  1  1  0  0  0
 41 34  1  0  0  0  0
M  END
>  <CHROM.1>
-162.40560862,-178.19378365,27.69497680,96.02333670,153.01982056,78.58144716
-64.96568213,-169.74489582,-63.77516025,13.22344443,6.75787431,10.34359802
0.72918619,0.50243202,-1.03864251

>  <Name>
2et4_lig

>  <RI>
3.65815e+07

>  <Rbt.Current_Directory>
/home/itssahil/PROJECTS/Mol_Feturizer/New_Systems/rnas/2et4

>  <Rbt.Executable>
rbdock ($Id: //depot/dev/client3/rdock/2013.1/src/exe/rbdock.cxx#4 $)

>  <Rbt.Library>
libRbt.so (2013.1, Build901 2013/11/27)

>  <Rbt.Parameter_File>
/export/apps/rDock/src/rDock_2013.1_src/data/scripts/dock_solv.prm

>  <Rbt.Receptor>
prm/pocket_docking_4.prm

>  <SCORE>
-8.20402

>  <SCORE.INTER>
-7.43833

>  <SCORE.INTER.CONST>
1

>  <SCORE.INTER.POLAR>
-1.5262

>  <SCORE.INTER.ROT>
9

>  <SCORE.INTER.SOLV>
15.6287

>  <SCORE.INTER.VDW>
-14.6811

>  <SCORE.INTER.norm>
-0.177103

>  <SCORE.INTRA>
-0.765686

>  <SCORE.INTRA.DIHEDRAL>
-6.0959

>  <SCORE.INTRA.DIHEDRAL.0>
21.6909

>  <SCORE.INTRA.POLAR>
0

>  <SCORE.INTRA.POLAR.0>
0

>  <SCORE.INTRA.REPUL>
0.4109

>  <SCORE.INTRA.REPUL.0>
0

>  <SCORE.INTRA.SOLV>
0.870476

>  <SCORE.INTRA.SOLV.lig_0>
-116.606

>  <SCORE.INTRA.VDW>
-0.207472

>  <SCORE.INTRA.VDW.0>
-6.01229

>  <SCORE.INTRA.norm>
-0.0182306

>  <SCORE.RESTR>
0

>  <SCORE.RESTR.CAVITY>
0

>  <SCORE.RESTR.norm>
0

>  <SCORE.SYSTEM>
0

>  <SCORE.SYSTEM.CONST>
0

>  <SCORE.SYSTEM.DIHEDRAL>
0

>  <SCORE.SYSTEM.SOLV>
0

>  <SCORE.SYSTEM.norm>
0

>  <SCORE.heavy>
42

>  <SCORE.norm>
-0.195334

>  <RMSD>
4.432

$$$$
2et4_lig
 OpenBabel11021811423D
libRbt.so/2013.1/901 2013/11/27
 42 45  0  0  0  0  0  0  0  0999 V2000
   14.6382    8.0628    4.8084 C   0  0  2  0  0  0  0  0  0  0  0  0
   13.9414    8.0519    6.0560 O   0  0  0  0  0  0  0  0  0  0  0  0
   14.4734    9.4811    4.2052 C   0  0  2  0  0  0  0  0  0  0  0  0
   14.9667   10.4942    5.1029 N   0  0  0  0  0  0  0  0  0  0  0  0
   12.9754    9.7210    3.8594 C   0  0  1  0  0  0  0  0  0  0  0  0
   12.8326   10.9903    3.3025 O   0  0  0  0  0  0  0  0  0  0  0  0
   12.5113    8.5890    2.8830 C   0  0  2  0  0  0  0  0  0  0  0  0
   11.1510    8.7638    2.5474 O   0  0  0  0  0  0  0  0  0  0  0  0
   12.7062    7.1840    3.5293 C   0  0  2  0  0  0  0  0  0  0  0  0
   14.0853    7.0363    3.8798 O   0  0  0  0  0  0  0  0  0  0  0  0
   12.2910    6.0250    2.5649 C   0  0  0  0  0  0  0  0  0  0  0  0
   12.4571    4.7452    3.1612 N   0  0  0  0  0  0  0  0  0  0  0  0
   14.8483    4.1288    7.6184 C   0  0  2  0  0  0  0  0  0  0  0  0
   14.9307    2.9976    8.5507 N   0  0  0  0  0  0  0  0  0  0  0  0
   15.6323    5.4046    8.2429 C   0  0  0  0  0  0  0  0  0  0  0  0
   15.5278    6.6255    7.2400 C   0  0  2  0  0  0  0  0  0  0  0  0
   16.2062    7.8170    7.7800 N   0  0  0  0  0  0  0  0  0  0  0  0
   14.0197    6.9553    6.9770 C   0  0  2  0  0  0  0  0  0  0  0  0
   13.2697    5.7082    6.4024 C   0  0  2  0  0  0  0  0  0  0  0  0
   11.8912    6.1105    6.2100 O   0  0  0  0  0  0  0  0  0  0  0  0
   13.3755    4.5157    7.4065 C   0  0  1  0  0  0  0  0  0  0  0  0
   12.7148    3.4220    6.8652 O   0  0  0  0  0  0  0  0  0  0  0  0
   11.1239    6.7485    7.1268 C   0  0  1  0  0  0  0  0  0  0  0  0
    9.6989    7.0104    6.5733 C   0  0  2  0  0  0  0  0  0  0  0  0
    9.6146    8.1740    5.8027 O   0  0  0  0  0  0  0  0  0  0  0  0
    8.9130    6.9347    7.8692 C   0  0  1  0  0  0  0  0  0  0  0  0
    9.5618    5.8307    8.7160 C   0  0  2  0  0  0  0  0  0  0  0  0
   10.9337    6.0254    8.3729 O   0  0  0  0  0  0  0  0  0  0  0  0
    9.0842    4.3716    8.4038 C   0  0  0  0  0  0  0  0  0  0  0  0
    9.7217    3.4904    9.3662 O   0  0  0  0  0  0  0  0  0  0  0  0
    8.1623    8.5182    9.6158 C   0  0  2  0  0  0  0  0  0  0  0  0
    9.0085    8.2635    8.5281 O   0  0  0  0  0  0  0  0  0  0  0  0
    8.4944    9.9189   10.2921 C   0  0  1  0  0  0  0  0  0  0  0  0
    9.0643    6.0640   13.2473 N   0  0  0  0  0  0  0  0  0  0  0  0
    7.4795   10.0961   11.5393 C   0  0  1  0  0  0  0  0  0  0  0  0
    6.0622   10.0316   11.0061 O   0  0  0  0  0  0  0  0  0  0  0  0
    7.7273    8.9177   12.6238 C   0  0  2  0  0  0  0  0  0  0  0  0
    9.0828    9.0062   13.1244 O   0  0  0  0  0  0  0  0  0  0  0  0
    7.4138    7.4982   11.8845 C   0  0  1  0  0  0  0  0  0  0  0  0
    8.2792    7.3703   10.6611 O   0  0  0  0  0  0  0  0  0  0  0  0
    7.6426    6.2688   12.8319 C   0  0  0  0  0  0  0  0  0  0  0  0
    9.9385    9.9648   10.6965 N   0  0  0  0  0  0  0  0  0  0  0  0
  1  2  1  1  0  0  0
  1  3  1  0  0  0  0
  1 10  1  0  0  0  0
  3  4  1  1  0  0  0
  3  5  1  0  0  0  0
  5  6  1  6  0  0  0
  5  7  1  0  0  0  0
  7  8  1  1  0  0  0
  7  9  1  0  0  0  0
  9 10  1  0  0  0  0
  9 11  1  6  0  0  0
 11 12  1  0  0  0  0
 13 14  1  1  0  0  0
 13 15  1  0  0  0  0
 13 21  1  0  0  0  0
 16 15  1  0  0  0  0
 16 17  1  1  0  0  0
 18  2  1  6  0  0  0
 18 16  1  0  0  0  0
 19 18  1  0  0  0  0
 19 20  1  1  0  0  0
 21 19  1  0  0  0  0
 21 22  1  6  0  0  0
 23 20  1  6  0  0  0
 23 24  1  0  0  0  0
 23 28  1  0  0  0  0
 24 25  1  1  0  0  0
 24 26  1  0  0  0  0
 26 27  1  0  0  0  0
 26 32  1  1  0  0  0
 27 28  1  0  0  0  0
 27 29  1  6  0  0  0
 29 30  1  0  0  0  0
 31 32  1  6  0  0  0
 31 40  1  0  0  0  0
 33 31  1  0  0  0  0
 33 42  1  1  0  0  0
 35 33  1  0  0  0  0
 35 36  1  6  0  0  0
 37 35  1  0  0  0  0
 37 38  1  6  0  0  0
 37 39  1  0  0  0  0
 39 40  1  0  0  0  0
 39 41  1  1  0  0  0
 41 34  1  0  0  0  0
M  END
>  <CHROM.1>
-171.82510165,-179.41867900,51.62485648,-48.61452721,-179.63094521,168.42393929
-175.55047651,174.21584221,-65.66941095,11.36155774,7.22286370,7.55453244
0.49541199,0.75397065,-0.76388770

>  <Name>
2et4_lig

>  <RI>
1.79929e+07

>  <Rbt.Current_Directory>
/home/itssahil/PROJECTS/Mol_Feturizer/New_Systems/rnas/2et4

>  <Rbt.Executable>
rbdock ($Id: //depot/dev/client3/rdock/2013.1/src/exe/rbdock.cxx#4 $)

>  <Rbt.Library>
libRbt.so (2013.1, Build901 2013/11/27)

>  <Rbt.Parameter_File>
/export/apps/rDock/src/rDock_2013.1_src/data/scripts/dock_solv.prm

>  <Rbt.Receptor>
prm/pocket_docking_7.prm

>  <SCORE>
-17.9609

>  <SCORE.INTER>
-8.94686

>  <SCORE.INTER.CONST>
1

>  <SCORE.INTER.POLAR>
-1.03533

>  <SCORE.INTER.ROT>
9

>  <SCORE.INTER.SOLV>
16.6176

>  <SCORE.INTER.VDW>
-17.6527

>  <SCORE.INTER.norm>
-0.213021

>  <SCORE.INTRA>
-9.01406

>  <SCORE.INTRA.DIHEDRAL>
-19.2494

>  <SCORE.INTRA.DIHEDRAL.0>
21.6909

>  <SCORE.INTRA.POLAR>
0

>  <SCORE.INTRA.POLAR.0>
0

>  <SCORE.INTRA.REPUL>
0

>  <SCORE.INTRA.REPUL.0>
0

>  <SCORE.INTRA.SOLV>
-0.0602447

>  <SCORE.INTRA.SOLV.lig_0>
-116.606

>  <SCORE.INTRA.VDW>
0.640757

>  <SCORE.INTRA.VDW.0>
-6.01229

>  <SCORE.INTRA.norm>
-0.214621

>  <SCORE.RESTR>
0

>  <SCORE.RESTR.CAVITY>
0

>  <SCORE.RESTR.norm>
0

>  <SCORE.SYSTEM>
0

>  <SCORE.SYSTEM.CONST>
0

>  <SCORE.SYSTEM.DIHEDRAL>
0

>  <SCORE.SYSTEM.SOLV>
0

>  <SCORE.SYSTEM.norm>
0

>  <SCORE.heavy>
42

>  <SCORE.norm>
-0.427641

>  <RMSD>
4.446

$$$$
2et4_lig
 OpenBabel11021811423D
libRbt.so/2013.1/901 2013/11/27
 42 45  0  0  0  0  0  0  0  0999 V2000
   11.7820    9.4101    7.5597 C   0  0  2  0  0  0  0  0  0  0  0  0
   12.4307    8.3853    8.3154 O   0  0  0  0  0  0  0  0  0  0  0  0
   10.5207    9.8349    8.3543 C   0  0  2  0  0  0  0  0  0  0  0  0
   10.8615   10.2821    9.6808 N   0  0  0  0  0  0  0  0  0  0  0  0
    9.5205    8.6440    8.4049 C   0  0  1  0  0  0  0  0  0  0  0  0
    8.3810    9.0338    9.1057 O   0  0  0  0  0  0  0  0  0  0  0  0
    9.1954    8.2154    6.9350 C   0  0  2  0  0  0  0  0  0  0  0  0
    8.2936    7.1290    6.9334 O   0  0  0  0  0  0  0  0  0  0  0  0
   10.4942    7.8082    6.1752 C   0  0  2  0  0  0  0  0  0  0  0  0
   11.4006    8.9146    6.2067 O   0  0  0  0  0  0  0  0  0  0  0  0
   10.2123    7.4131    4.6887 C   0  0  0  0  0  0  0  0  0  0  0  0
    9.3829    6.2629    4.5871 N   0  0  0  0  0  0  0  0  0  0  0  0
   16.0703    6.3494    7.1916 C   0  0  2  0  0  0  0  0  0  0  0  0
   17.5011    6.0463    7.0629 N   0  0  0  0  0  0  0  0  0  0  0  0
   15.7594    7.7937    6.5210 C   0  0  0  0  0  0  0  0  0  0  0  0
   14.2180    8.1217    6.6754 C   0  0  2  0  0  0  0  0  0  0  0  0
   13.8944    9.4397    6.1013 N   0  0  0  0  0  0  0  0  0  0  0  0
   13.8313    8.1019    8.1929 C   0  0  2  0  0  0  0  0  0  0  0  0
   14.1632    6.7136    8.8333 C   0  0  2  0  0  0  0  0  0  0  0  0
   13.7851    6.8041   10.2290 O   0  0  0  0  0  0  0  0  0  0  0  0
   15.6879    6.4087    8.6795 C   0  0  1  0  0  0  0  0  0  0  0  0
   15.9497    5.1678    9.2428 O   0  0  0  0  0  0  0  0  0  0  0  0
   12.7271    6.1775   10.7985 C   0  0  1  0  0  0  0  0  0  0  0  0
   11.3885    6.7723   10.2888 C   0  0  2  0  0  0  0  0  0  0  0  0
   10.9936    7.9157   10.9899 O   0  0  0  0  0  0  0  0  0  0  0  0
   10.5201    5.5304   10.3693 C   0  0  1  0  0  0  0  0  0  0  0  0
   11.4054    4.3445    9.9611 C   0  0  2  0  0  0  0  0  0  0  0  0
   12.6482    4.7507   10.5340 O   0  0  0  0  0  0  0  0  0  0  0  0
   11.5286    4.0930    8.4196 C   0  0  0  0  0  0  0  0  0  0  0  0
   10.1912    3.8428    7.9118 O   0  0  0  0  0  0  0  0  0  0  0  0
    9.0679    4.4425   12.0513 C   0  0  2  0  0  0  0  0  0  0  0  0
   10.0453    5.4073   11.7722 O   0  0  0  0  0  0  0  0  0  0  0  0
    8.4393    4.6562   13.4966 C   0  0  1  0  0  0  0  0  0  0  0  0
   10.0302    0.2546   10.6517 N   0  0  0  0  0  0  0  0  0  0  0  0
    7.3485    3.4823   13.7179 C   0  0  1  0  0  0  0  0  0  0  0  0
    6.3141    3.5864   12.6149 O   0  0  0  0  0  0  0  0  0  0  0  0
    8.0777    2.0358   13.6712 C   0  0  2  0  0  0  0  0  0  0  0  0
    9.0529    1.9575   14.7384 O   0  0  0  0  0  0  0  0  0  0  0  0
    8.7406    1.8693   12.1904 C   0  0  1  0  0  0  0  0  0  0  0  0
    9.6792    3.0156   11.9316 O   0  0  0  0  0  0  0  0  0  0  0  0
    9.5025    0.5076   12.0275 C   0  0  0  0  0  0  0  0  0  0  0  0
    9.5236    4.6562   14.5335 N   0  0  0  0  0  0  0  0  0  0  0  0
  1  2  1  1  0  0  0
  1  3  1  0  0  0  0
  1 10  1  0  0  0  0
  3  4  1  1  0  0  0
  3  5  1  0  0  0  0
  5  6  1  6  0  0  0
  5  7  1  0  0  0  0
  7  8  1  1  0  0  0
  7  9  1  0  0  0  0
  9 10  1  0  0  0  0
  9 11  1  6  0  0  0
 11 12  1  0  0  0  0
 13 14  1  1  0  0  0
 13 15  1  0  0  0  0
 13 21  1  0  0  0  0
 16 15  1  0  0  0  0
 16 17  1  1  0  0  0
 18  2  1  6  0  0  0
 18 16  1  0  0  0  0
 19 18  1  0  0  0  0
 19 20  1  1  0  0  0
 21 19  1  0  0  0  0
 21 22  1  6  0  0  0
 23 20  1  6  0  0  0
 23 24  1  0  0  0  0
 23 28  1  0  0  0  0
 24 25  1  1  0  0  0
 24 26  1  0  0  0  0
 26 27  1  0  0  0  0
 26 32  1  1  0  0  0
 27 28  1  0  0  0  0
 27 29  1  6  0  0  0
 29 30  1  0  0  0  0
 31 32  1  1  0  0  0
 31 40  1  0  0  0  0
 33 31  1  0  0  0  0
 33 42  1  1  0  0  0
 35 33  1  0  0  0  0
 35 36  1  6  0  0  0
 37 35  1  0  0  0  0
 37 38  1  1  0  0  0
 37 39  1  0  0  0  0
 39 40  1  0  0  0  0
 39 41  1  1  0  0  0
 41 34  1  0  0  0  0
M  END
>  <CHROM.1>
-155.75054950,-63.44803013,-43.01194260,108.84675880,-68.79813658,170.93118110
-59.73296070,-167.16964055,175.08750114,11.18165098,5.97478851,9.50288385
1.03008371,0.17770260,-0.73610043

>  <Name>
2et4_lig

>  <RI>
3.65815e+07

>  <Rbt.Current_Directory>
/home/itssahil/PROJECTS/Mol_Feturizer/New_Systems/rnas/2et4

>  <Rbt.Executable>
rbdock ($Id: //depot/dev/client3/rdock/2013.1/src/exe/rbdock.cxx#4 $)

>  <Rbt.Library>
libRbt.so (2013.1, Build901 2013/11/27)

>  <Rbt.Parameter_File>
/export/apps/rDock/src/rDock_2013.1_src/data/scripts/dock_solv.prm

>  <Rbt.Receptor>
prm/pocket_docking_4.prm

>  <SCORE>
-6.29666

>  <SCORE.INTER>
-4.14174

>  <SCORE.INTER.CONST>
1

>  <SCORE.INTER.POLAR>
-0.902771

>  <SCORE.INTER.ROT>
9

>  <SCORE.INTER.SOLV>
11.3527

>  <SCORE.INTER.VDW>
-13.1361

>  <SCORE.INTER.norm>
-0.0986128

>  <SCORE.INTRA>
-2.15492

>  <SCORE.INTRA.DIHEDRAL>
-9.37077

>  <SCORE.INTRA.DIHEDRAL.0>
21.6909

>  <SCORE.INTRA.POLAR>
0

>  <SCORE.INTRA.POLAR.0>
0

>  <SCORE.INTRA.REPUL>
0

>  <SCORE.INTRA.REPUL.0>
0

>  <SCORE.INTRA.SOLV>
1.52516

>  <SCORE.INTRA.SOLV.lig_0>
-116.606

>  <SCORE.INTRA.VDW>
1.76788

>  <SCORE.INTRA.VDW.0>
-6.01229

>  <SCORE.INTRA.norm>
-0.0513077

>  <SCORE.RESTR>
0

>  <SCORE.RESTR.CAVITY>
0

>  <SCORE.RESTR.norm>
0

>  <SCORE.SYSTEM>
0

>  <SCORE.SYSTEM.CONST>
0

>  <SCORE.SYSTEM.DIHEDRAL>
0

>  <SCORE.SYSTEM.SOLV>
0

>  <SCORE.SYSTEM.norm>
0

>  <SCORE.heavy>
42

>  <SCORE.norm>
-0.14992

>  <RMSD>
4.451

$$$$
2et4_lig
 OpenBabel11021811423D
libRbt.so/2013.1/901 2013/11/27
 42 45  0  0  0  0  0  0  0  0999 V2000
   12.5813    9.3582    7.4701 C   0  0  2  0  0  0  0  0  0  0  0  0
   13.3415    8.2583    7.9745 O   0  0  0  0  0  0  0  0  0  0  0  0
   11.9643   10.0858    8.6918 C   0  0  2  0  0  0  0  0  0  0  0  0
   12.9824   10.5172    9.6155 N   0  0  0  0  0  0  0  0  0  0  0  0
   10.9405    9.1429    9.3876 C   0  0  1  0  0  0  0  0  0  0  0  0
   10.3756    9.8052   10.4757 O   0  0  0  0  0  0  0  0  0  0  0  0
    9.8682    8.7188    8.3292 C   0  0  2  0  0  0  0  0  0  0  0  0
    8.9198    7.8539    8.9175 O   0  0  0  0  0  0  0  0  0  0  0  0
   10.5373    8.0021    7.1174 C   0  0  2  0  0  0  0  0  0  0  0  0
   11.5076    8.8871    6.5499 O   0  0  0  0  0  0  0  0  0  0  0  0
    9.4992    7.6004    6.0191 C   0  0  0  0  0  0  0  0  0  0  0  0
   10.0981    6.8716    4.9555 N   0  0  0  0  0  0  0  0  0  0  0  0
   16.9946    6.3239    6.7225 C   0  0  2  0  0  0  0  0  0  0  0  0
   18.4156    6.1218    6.4132 N   0  0  0  0  0  0  0  0  0  0  0  0
   16.4035    7.5204    5.7999 C   0  0  0  0  0  0  0  0  0  0  0  0
   14.8750    7.7437    6.1479 C   0  0  2  0  0  0  0  0  0  0  0  0
   14.3024    8.8418    5.3491 N   0  0  0  0  0  0  0  0  0  0  0  0
   14.7312    8.0741    7.6719 C   0  0  2  0  0  0  0  0  0  0  0  0
   15.3311    6.9257    8.5489 C   0  0  2  0  0  0  0  0  0  0  0  0
   15.1631    7.3325    9.9293 O   0  0  0  0  0  0  0  0  0  0  0  0
   16.8405    6.7235    8.1991 C   0  0  1  0  0  0  0  0  0  0  0  0
   17.3410    5.6917    8.9806 O   0  0  0  0  0  0  0  0  0  0  0  0
   14.0043    7.2753   10.6295 C   0  0  1  0  0  0  0  0  0  0  0  0
   13.8252    5.8861   11.2954 C   0  0  2  0  0  0  0  0  0  0  0  0
   13.2667    4.9339   10.4372 O   0  0  0  0  0  0  0  0  0  0  0  0
   13.0463    6.3025   12.5294 C   0  0  1  0  0  0  0  0  0  0  0  0
   13.6183    7.6547   12.9779 C   0  0  2  0  0  0  0  0  0  0  0  0
   13.8942    8.2439   11.7073 O   0  0  0  0  0  0  0  0  0  0  0  0
   14.8993    7.5813   13.8769 C   0  0  0  0  0  0  0  0  0  0  0  0
   15.3563    8.9426   14.0943 O   0  0  0  0  0  0  0  0  0  0  0  0
   10.6987    6.8140   13.1194 C   0  0  2  0  0  0  0  0  0  0  0  0
   11.6161    6.4101   12.1401 O   0  0  0  0  0  0  0  0  0  0  0  0
   10.6382    5.7731   14.3205 C   0  0  1  0  0  0  0  0  0  0  0  0
    6.3233    6.2933   12.0692 N   0  0  0  0  0  0  0  0  0  0  0  0
    9.5400    6.3252   15.3721 C   0  0  1  0  0  0  0  0  0  0  0  0
    9.9723    7.7062   15.8232 O   0  0  0  0  0  0  0  0  0  0  0  0
    8.0840    6.3946   14.6637 C   0  0  2  0  0  0  0  0  0  0  0  0
    7.6896    5.0642   14.2508 O   0  0  0  0  0  0  0  0  0  0  0  0
    8.1954    7.4405   13.4173 C   0  0  1  0  0  0  0  0  0  0  0  0
    9.2879    6.9929   12.4856 O   0  0  0  0  0  0  0  0  0  0  0  0
    6.8449    7.5771   12.6306 C   0  0  0  0  0  0  0  0  0  0  0  0
   10.3174    4.4038   13.7981 N   0  0  0  0  0  0  0  0  0  0  0  0
  1  2  1  1  0  0  0
  1  3  1  0  0  0  0
  1 10  1  0  0  0  0
  3  4  1  1  0  0  0
  3  5  1  0  0  0  0
  5  6  1  1  0  0  0
  5  7  1  0  0  0  0
  7  8  1  1  0  0  0
  7  9  1  0  0  0  0
  9 10  1  0  0  0  0
  9 11  1  6  0  0  0
 11 12  1  0  0  0  0
 13 14  1  6  0  0  0
 13 15  1  0  0  0  0
 13 21  1  0  0  0  0
 16 15  1  0  0  0  0
 16 17  1  6  0  0  0
 18  2  1  1  0  0  0
 18 16  1  0  0  0  0
 19 18  1  0  0  0  0
 19 20  1  1  0  0  0
 21 19  1  0  0  0  0
 21 22  1  1  0  0  0
 23 20  1  1  0  0  0
 23 24  1  0  0  0  0
 23 28  1  0  0  0  0
 24 25  1  6  0  0  0
 24 26  1  0  0  0  0
 26 27  1  0  0  0  0
 26 32  1  6  0  0  0
 27 28  1  0  0  0  0
 27 29  1  1  0  0  0
 29 30  1  0  0  0  0
 31 32  1  6  0  0  0
 31 40  1  0  0  0  0
 33 31  1  0  0  0  0
 33 42  1  6  0  0  0
 35 33  1  0  0  0  0
 35 36  1  6  0  0  0
 37 35  1  0  0  0  0
 37 38  1  6  0  0  0
 37 39  1  0  0  0  0
 39 40  1  0  0  0  0
 39 41  1  6  0  0  0
 41 34  1  0  0  0  0
M  END
>  <CHROM.1>
-124.28818404,-176.22740573,-67.44424898,77.31486960,87.22762717,-178.63462563
174.90419866,-62.59397104,-58.10583395,12.23032015,7.39012393,10.29153500
0.82020039,0.09541096,-1.35463865

>  <Name>
2et4_lig

>  <RI>
3.65815e+07

>  <Rbt.Current_Directory>
/home/itssahil/PROJECTS/Mol_Feturizer/New_Systems/rnas/2et4

>  <Rbt.Executable>
rbdock ($Id: //depot/dev/client3/rdock/2013.1/src/exe/rbdock.cxx#4 $)

>  <Rbt.Library>
libRbt.so (2013.1, Build901 2013/11/27)

>  <Rbt.Parameter_File>
/export/apps/rDock/src/rDock_2013.1_src/data/scripts/dock_solv.prm

>  <Rbt.Receptor>
prm/pocket_docking_4.prm

>  <SCORE>
-16.6501

>  <SCORE.INTER>
-12.9307

>  <SCORE.INTER.CONST>
1

>  <SCORE.INTER.POLAR>
-1.4733

>  <SCORE.INTER.ROT>
9

>  <SCORE.INTER.SOLV>
15.9477

>  <SCORE.INTER.VDW>
-18.6253

>  <SCORE.INTER.norm>
-0.307874

>  <SCORE.INTRA>
-3.71935

>  <SCORE.INTRA.DIHEDRAL>
-9.47096

>  <SCORE.INTRA.DIHEDRAL.0>
21.6909

>  <SCORE.INTRA.POLAR>
0

>  <SCORE.INTRA.POLAR.0>
0

>  <SCORE.INTRA.REPUL>
0

>  <SCORE.INTRA.REPUL.0>
0

>  <SCORE.INTRA.SOLV>
0.636606

>  <SCORE.INTRA.SOLV.lig_0>
-116.606

>  <SCORE.INTRA.VDW>
0.697826

>  <SCORE.INTRA.VDW.0>
-6.01229

>  <SCORE.INTRA.norm>
-0.088556

>  <SCORE.RESTR>
0

>  <SCORE.RESTR.CAVITY>
0

>  <SCORE.RESTR.norm>
0

>  <SCORE.SYSTEM>
0

>  <SCORE.SYSTEM.CONST>
0

>  <SCORE.SYSTEM.DIHEDRAL>
0

>  <SCORE.SYSTEM.SOLV>
0

>  <SCORE.SYSTEM.norm>
0

>  <SCORE.heavy>
42

>  <SCORE.norm>
-0.39643

>  <RMSD>
4.489

$$$$
2et4_lig
 OpenBabel11021811423D
libRbt.so/2013.1/901 2013/11/27
 42 45  0  0  0  0  0  0  0  0999 V2000
   12.7394    9.5380    7.7370 C   0  0  2  0  0  0  0  0  0  0  0  0
   13.5346    8.4310    8.1665 O   0  0  0  0  0  0  0  0  0  0  0  0
   12.1248   10.1793    9.0073 C   0  0  2  0  0  0  0  0  0  0  0  0
   13.1469   10.5835    9.9387 N   0  0  0  0  0  0  0  0  0  0  0  0
   11.1361    9.1727    9.6634 C   0  0  1  0  0  0  0  0  0  0  0  0
   10.5729    9.7577   10.7959 O   0  0  0  0  0  0  0  0  0  0  0  0
   10.0573    8.7820    8.5988 C   0  0  2  0  0  0  0  0  0  0  0  0
    9.1403    7.8613    9.1509 O   0  0  0  0  0  0  0  0  0  0  0  0
   10.7239    8.1524    7.3382 C   0  0  2  0  0  0  0  0  0  0  0  0
   11.6627    9.0925    6.8076 O   0  0  0  0  0  0  0  0  0  0  0  0
    9.6781    7.7872    6.2344 C   0  0  0  0  0  0  0  0  0  0  0  0
   10.2728    7.1107    5.1345 N   0  0  0  0  0  0  0  0  0  0  0  0
   16.9150    6.5901    6.2073 C   0  0  2  0  0  0  0  0  0  0  0  0
   18.2901    6.3651    5.7445 N   0  0  0  0  0  0  0  0  0  0  0  0
   16.3765    8.0104    5.6373 C   0  0  0  0  0  0  0  0  0  0  0  0
   14.8988    8.2544    6.1512 C   0  0  2  0  0  0  0  0  0  0  0  0
   14.3775    9.5487    5.6771 N   0  0  0  0  0  0  0  0  0  0  0  0
   14.8807    8.2241    7.7169 C   0  0  2  0  0  0  0  0  0  0  0  0
   15.4294    6.8605    8.2530 C   0  0  2  0  0  0  0  0  0  0  0  0
   15.3850    6.9399    9.6990 O   0  0  0  0  0  0  0  0  0  0  0  0
   16.8899    6.6387    7.7438 C   0  0  1  0  0  0  0  0  0  0  0  0
   17.3443    5.4179    8.2223 O   0  0  0  0  0  0  0  0  0  0  0  0
   14.2614    6.8870   10.4545 C   0  0  1  0  0  0  0  0  0  0  0  0
   13.6688    5.4538   10.4698 C   0  0  2  0  0  0  0  0  0  0  0  0
   12.8510    5.1861    9.3678 O   0  0  0  0  0  0  0  0  0  0  0  0
   13.0489    5.4578   11.8549 C   0  0  1  0  0  0  0  0  0  0  0  0
   14.0017    6.2474   12.7635 C   0  0  2  0  0  0  0  0  0  0  0  0
   14.4462    7.2498   11.8495 O   0  0  0  0  0  0  0  0  0  0  0  0
   15.1981    5.4304   13.3599 C   0  0  0  0  0  0  0  0  0  0  0  0
   16.0353    5.0124   12.2493 O   0  0  0  0  0  0  0  0  0  0  0  0
   10.8980    6.1192   12.8832 C   0  0  2  0  0  0  0  0  0  0  0  0
   11.7192    6.1128   11.7476 O   0  0  0  0  0  0  0  0  0  0  0  0
   10.7453    4.6592   13.4954 C   0  0  1  0  0  0  0  0  0  0  0  0
    7.3034    8.7303   12.4635 N   0  0  0  0  0  0  0  0  0  0  0  0
    9.7669    4.7824   14.7777 C   0  0  1  0  0  0  0  0  0  0  0  0
   10.3916    5.7582   15.7549 O   0  0  0  0  0  0  0  0  0  0  0  0
    8.3080    5.3106   14.3097 C   0  0  2  0  0  0  0  0  0  0  0  0
    7.7289    4.3584   13.3855 O   0  0  0  0  0  0  0  0  0  0  0  0
    8.5101    6.7904   13.6546 C   0  0  1  0  0  0  0  0  0  0  0  0
    9.5008    6.7061   12.5262 O   0  0  0  0  0  0  0  0  0  0  0  0
    7.1617    7.4031   13.1373 C   0  0  0  0  0  0  0  0  0  0  0  0
   10.2301    3.7148   12.4497 N   0  0  0  0  0  0  0  0  0  0  0  0
  1  2  1  1  0  0  0
  1  3  1  0  0  0  0
  1 10  1  0  0  0  0
  3  4  1  1  0  0  0
  3  5  1  0  0  0  0
  5  6  1  1  0  0  0
  5  7  1  0  0  0  0
  7  8  1  1  0  0  0
  7  9  1  0  0  0  0
  9 10  1  0  0  0  0
  9 11  1  6  0  0  0
 11 12  1  0  0  0  0
 13 14  1  1  0  0  0
 13 15  1  0  0  0  0
 13 21  1  0  0  0  0
 16 15  1  0  0  0  0
 16 17  1  1  0  0  0
 18  2  1  6  0  0  0
 18 16  1  0  0  0  0
 19 18  1  0  0  0  0
 19 20  1  1  0  0  0
 21 19  1  0  0  0  0
 21 22  1  1  0  0  0
 23 20  1  6  0  0  0
 23 24  1  0  0  0  0
 23 28  1  0  0  0  0
 24 25  1  6  0  0  0
 24 26  1  0  0  0  0
 26 27  1  0  0  0  0
 26 32  1  6  0  0  0
 27 28  1  0  0  0  0
 27 29  1  6  0  0  0
 29 30  1  0  0  0  0
 31 32  1  6  0  0  0
 31 40  1  0  0  0  0
 33 31  1  0  0  0  0
 33 42  1  6  0  0  0
 35 33  1  0  0  0  0
 35 36  1  1  0  0  0
 37 35  1  0  0  0  0
 37 38  1  6  0  0  0
 37 39  1  0  0  0  0
 39 40  1  0  0  0  0
 39 41  1  6  0  0  0
 41 34  1  0  0  0  0
M  END
>  <CHROM.1>
-131.17534437,-175.01393165,-52.74718888,72.87408688,71.86012527,174.00304304
64.41247081,-51.11585910,-177.00385189,12.40433333,7.05053501,10.08805712
0.78368967,0.28197849,-1.06080477

>  <Name>
2et4_lig

>  <RI>
0

>  <Rbt.Current_Directory>
/home/itssahil/PROJECTS/Mol_Feturizer/New_Systems/rnas/2et4

>  <Rbt.Executable>
rbdock ($Id: //depot/dev/client3/rdock/2013.1/src/exe/rbdock.cxx#4 $)

>  <Rbt.Library>
libRbt.so (2013.1, Build901 2013/11/27)

>  <Rbt.Parameter_File>
/export/apps/rDock/src/rDock_2013.1_src/data/scripts/dock_solv.prm

>  <Rbt.Receptor>
prm/pocket_docking_6.prm

>  <SCORE>
-18.4439

>  <SCORE.INTER>
-14.0791

>  <SCORE.INTER.CONST>
1

>  <SCORE.INTER.POLAR>
-2.00641

>  <SCORE.INTER.ROT>
9

>  <SCORE.INTER.SOLV>
17.6037

>  <SCORE.INTER.VDW>
-18.1659

>  <SCORE.INTER.norm>
-0.335217

>  <SCORE.INTRA>
-4.36484

>  <SCORE.INTRA.DIHEDRAL>
-12.4658

>  <SCORE.INTRA.DIHEDRAL.0>
21.6909

>  <SCORE.INTRA.POLAR>
0

>  <SCORE.INTRA.POLAR.0>
0

>  <SCORE.INTRA.REPUL>
0.0333479

>  <SCORE.INTRA.REPUL.0>
0

>  <SCORE.INTRA.SOLV>
-0.170365

>  <SCORE.INTRA.SOLV.lig_0>
-116.606

>  <SCORE.INTRA.VDW>
1.78648

>  <SCORE.INTRA.VDW.0>
-6.01229

>  <SCORE.INTRA.norm>
-0.103925

>  <SCORE.RESTR>
0

>  <SCORE.RESTR.CAVITY>
0

>  <SCORE.RESTR.norm>
0

>  <SCORE.SYSTEM>
0

>  <SCORE.SYSTEM.CONST>
0

>  <SCORE.SYSTEM.DIHEDRAL>
0

>  <SCORE.SYSTEM.SOLV>
0

>  <SCORE.SYSTEM.norm>
0

>  <SCORE.heavy>
42

>  <SCORE.norm>
-0.439142

>  <RMSD>
4.548

$$$$
2et4_lig
 OpenBabel11021811423D
libRbt.so/2013.1/901 2013/11/27
 42 45  0  0  0  0  0  0  0  0999 V2000
   11.9926    8.1326    6.0450 C   0  0  2  0  0  0  0  0  0  0  0  0
   12.4382    6.9506    6.7132 O   0  0  0  0  0  0  0  0  0  0  0  0
   12.6970    9.3347    6.7243 C   0  0  2  0  0  0  0  0  0  0  0  0
   14.1306    9.1997    6.6752 N   0  0  0  0  0  0  0  0  0  0  0  0
   12.1967    9.4601    8.1924 C   0  0  1  0  0  0  0  0  0  0  0  0
   12.8192   10.5511    8.7956 O   0  0  0  0  0  0  0  0  0  0  0  0
   10.6384    9.6053    8.1675 C   0  0  2  0  0  0  0  0  0  0  0  0
   10.1392    9.7152    9.4836 O   0  0  0  0  0  0  0  0  0  0  0  0
    9.9778    8.3798    7.4664 C   0  0  2  0  0  0  0  0  0  0  0  0
   10.5123    8.2750    6.1435 O   0  0  0  0  0  0  0  0  0  0  0  0
    8.4215    8.5104    7.3862 C   0  0  0  0  0  0  0  0  0  0  0  0
    7.8108    8.4456    8.6683 N   0  0  0  0  0  0  0  0  0  0  0  0
   15.8343    4.2872    6.5466 C   0  0  2  0  0  0  0  0  0  0  0  0
   17.2271    3.8239    6.5166 N   0  0  0  0  0  0  0  0  0  0  0  0
   15.5595    5.2621    5.2792 C   0  0  0  0  0  0  0  0  0  0  0  0
   14.0604    5.7700    5.3247 C   0  0  2  0  0  0  0  0  0  0  0  0
   13.7732    6.6815    4.2029 N   0  0  0  0  0  0  0  0  0  0  0  0
   13.8028    6.5104    6.6805 C   0  0  2  0  0  0  0  0  0  0  0  0
   14.0994    5.5681    7.8937 C   0  0  2  0  0  0  0  0  0  0  0  0
   13.8470    6.3462    9.0894 O   0  0  0  0  0  0  0  0  0  0  0  0
   15.5834    5.0822    7.8384 C   0  0  1  0  0  0  0  0  0  0  0  0
   15.8131    4.2391    8.9163 O   0  0  0  0  0  0  0  0  0  0  0  0
   13.1424    5.9241   10.1672 C   0  0  1  0  0  0  0  0  0  0  0  0
   13.9466    4.8775   10.9818 C   0  0  2  0  0  0  0  0  0  0  0  0
   13.8192    3.5776   10.4828 O   0  0  0  0  0  0  0  0  0  0  0  0
   13.4133    5.1821   12.3695 C   0  0  1  0  0  0  0  0  0  0  0  0
   13.2235    6.7035   12.4462 C   0  0  2  0  0  0  0  0  0  0  0  0
   12.7888    6.9693   11.1128 O   0  0  0  0  0  0  0  0  0  0  0  0
   14.5046    7.5260   12.8165 C   0  0  0  0  0  0  0  0  0  0  0  0
   15.2293    7.7800   11.5839 O   0  0  0  0  0  0  0  0  0  0  0  0
   11.3882    4.6695   13.6953 C   0  0  2  0  0  0  0  0  0  0  0  0
   12.1250    4.4569   12.5223 O   0  0  0  0  0  0  0  0  0  0  0  0
   10.2260    3.5949   13.8517 C   0  0  1  0  0  0  0  0  0  0  0  0
    8.6472    8.2134   13.5421 N   0  0  0  0  0  0  0  0  0  0  0  0
    9.4341    3.9480   15.2173 C   0  0  1  0  0  0  0  0  0  0  0  0
   10.4256    3.9002   16.3628 O   0  0  0  0  0  0  0  0  0  0  0  0
    8.7733    5.4235   15.1060 C   0  0  2  0  0  0  0  0  0  0  0  0
    7.8245    5.4410   14.0126 O   0  0  0  0  0  0  0  0  0  0  0  0
    9.9902    6.4914   14.9093 C   0  0  1  0  0  0  0  0  0  0  0  0
   10.7984    6.1103   13.6995 O   0  0  0  0  0  0  0  0  0  0  0  0
    9.4728    7.9653   14.7637 C   0  0  0  0  0  0  0  0  0  0  0  0
    9.3442    3.6114   12.6381 N   0  0  0  0  0  0  0  0  0  0  0  0
  1  2  1  1  0  0  0
  1  3  1  0  0  0  0
  1 10  1  0  0  0  0
  3  4  1  1  0  0  0
  3  5  1  0  0  0  0
  5  6  1  6  0  0  0
  5  7  1  0  0  0  0
  7  8  1  1  0  0  0
  7  9  1  0  0  0  0
  9 10  1  0  0  0  0
  9 11  1  6  0  0  0
 11 12  1  0  0  0  0
 13 14  1  1  0  0  0
 13 15  1  0  0  0  0
 13 21  1  0  0  0  0
 16 15  1  0  0  0  0
 16 17  1  6  0  0  0
 18  2  1  6  0  0  0
 18 16  1  0  0  0  0
 19 18  1  0  0  0  0
 19 20  1  1  0  0  0
 21 19  1  0  0  0  0
 21 22  1  1  0  0  0
 23 20  1  6  0  0  0
 23 24  1  0  0  0  0
 23 28  1  0  0  0  0
 24 25  1  6  0  0  0
 24 26  1  0  0  0  0
 26 27  1  0  0  0  0
 26 32  1  6  0  0  0
 27 28  1  0  0  0  0
 27 29  1  6  0  0  0
 29 30  1  0  0  0  0
 31 32  1  6  0  0  0
 31 40  1  0  0  0  0
 33 31  1  0  0  0  0
 33 42  1  6  0  0  0
 35 33  1  0  0  0  0
 35 36  1  1  0  0  0
 37 35  1  0  0  0  0
 37 38  1  6  0  0  0
 37 39  1  0  0  0  0
 39 40  1  0  0  0  0
 39 41  1  6  0  0  0
 41 34  1  0  0  0  0
M  END
>  <CHROM.1>
-64.72291364,-67.28856959,-80.17390125,133.86648044,72.63548765,-175.16732796
86.02126840,-167.22748910,-64.52762249,12.18359764,6.49519812,10.05472368
1.00249618,0.60465576,-1.04944628

>  <Name>
2et4_lig

>  <RI>
3.65815e+07

>  <Rbt.Current_Directory>
/home/itssahil/PROJECTS/Mol_Feturizer/New_Systems/rnas/2et4

>  <Rbt.Executable>
rbdock ($Id: //depot/dev/client3/rdock/2013.1/src/exe/rbdock.cxx#4 $)

>  <Rbt.Library>
libRbt.so (2013.1, Build901 2013/11/27)

>  <Rbt.Parameter_File>
/export/apps/rDock/src/rDock_2013.1_src/data/scripts/dock_solv.prm

>  <Rbt.Receptor>
prm/pocket_docking_4.prm

>  <SCORE>
-10.9009

>  <SCORE.INTER>
-9.51176

>  <SCORE.INTER.CONST>
1

>  <SCORE.INTER.POLAR>
-1.41357

>  <SCORE.INTER.ROT>
9

>  <SCORE.INTER.SOLV>
11.9721

>  <SCORE.INTER.VDW>
-15.22

>  <SCORE.INTER.norm>
-0.22647

>  <SCORE.INTRA>
-1.39598

>  <SCORE.INTRA.DIHEDRAL>
-9.40242

>  <SCORE.INTRA.DIHEDRAL.0>
21.6909

>  <SCORE.INTRA.POLAR>
0

>  <SCORE.INTRA.POLAR.0>
0

>  <SCORE.INTRA.REPUL>
0

>  <SCORE.INTRA.REPUL.0>
0

>  <SCORE.INTRA.SOLV>
2.74576

>  <SCORE.INTRA.SOLV.lig_0>
-116.606

>  <SCORE.INTRA.VDW>
1.93235

>  <SCORE.INTRA.VDW.0>
-6.01229

>  <SCORE.INTRA.norm>
-0.0332376

>  <SCORE.RESTR>
0.00685333

>  <SCORE.RESTR.CAVITY>
0.00685333

>  <SCORE.RESTR.norm>
0.000163175

>  <SCORE.SYSTEM>
0

>  <SCORE.SYSTEM.CONST>
0

>  <SCORE.SYSTEM.DIHEDRAL>
0

>  <SCORE.SYSTEM.SOLV>
0

>  <SCORE.SYSTEM.norm>
0

>  <SCORE.heavy>
42

>  <SCORE.norm>
-0.259545

>  <RMSD>
4.620

$$$$
2et4_lig
 OpenBabel11021811423D
libRbt.so/2013.1/901 2013/11/27
 42 45  0  0  0  0  0  0  0  0999 V2000
   13.2619    7.2576    4.6693 C   0  0  2  0  0  0  0  0  0  0  0  0
   13.0252    7.6236    6.0302 O   0  0  0  0  0  0  0  0  0  0  0  0
   14.7795    6.9748    4.5293 C   0  0  2  0  0  0  0  0  0  0  0  0
   15.2086    5.9466    5.4428 N   0  0  0  0  0  0  0  0  0  0  0  0
   15.5710    8.2944    4.7602 C   0  0  1  0  0  0  0  0  0  0  0  0
   16.9337    8.0407    4.6178 O   0  0  0  0  0  0  0  0  0  0  0  0
   15.0556    9.3596    3.7357 C   0  0  2  0  0  0  0  0  0  0  0  0
   15.7439   10.5793    3.9147 O   0  0  0  0  0  0  0  0  0  0  0  0
   13.5254    9.6013    3.9084 C   0  0  2  0  0  0  0  0  0  0  0  0
   12.8501    8.3509    3.7437 O   0  0  0  0  0  0  0  0  0  0  0  0
   12.9670   10.6308    2.8722 C   0  0  0  0  0  0  0  0  0  0  0  0
   12.9753   10.1164    1.5469 N   0  0  0  0  0  0  0  0  0  0  0  0
    9.2361    8.6646    7.8229 C   0  0  2  0  0  0  0  0  0  0  0  0
    7.9287    8.5176    8.4746 N   0  0  0  0  0  0  0  0  0  0  0  0
    9.2245    7.8827    6.4013 C   0  0  0  0  0  0  0  0  0  0  0  0
   10.6412    8.0324    5.7100 C   0  0  2  0  0  0  0  0  0  0  0  0
   10.6841    7.3140    4.4240 N   0  0  0  0  0  0  0  0  0  0  0  0
   11.7478    7.4671    6.6631 C   0  0  2  0  0  0  0  0  0  0  0  0
   11.7284    8.2101    8.0399 C   0  0  2  0  0  0  0  0  0  0  0  0
   12.7703    7.6076    8.8464 O   0  0  0  0  0  0  0  0  0  0  0  0
   10.3274    8.0464    8.7121 C   0  0  1  0  0  0  0  0  0  0  0  0
   10.3355    8.7258    9.9220 O   0  0  0  0  0  0  0  0  0  0  0  0
   12.6317    6.4920    9.6031 C   0  0  1  0  0  0  0  0  0  0  0  0
   13.8938    5.5956    9.5079 C   0  0  2  0  0  0  0  0  0  0  0  0
   13.8843    4.7508    8.3938 O   0  0  0  0  0  0  0  0  0  0  0  0
   13.8620    4.9769   10.8932 C   0  0  1  0  0  0  0  0  0  0  0  0
   13.3789    6.0712   11.8553 C   0  0  2  0  0  0  0  0  0  0  0  0
   12.4312    6.7375   11.0213 O   0  0  0  0  0  0  0  0  0  0  0  0
   14.4864    7.0495   12.3762 C   0  0  0  0  0  0  0  0  0  0  0  0
   14.9890    7.7865   11.2302 O   0  0  0  0  0  0  0  0  0  0  0  0
   11.5473    4.1043   10.8447 C   0  0  2  0  0  0  0  0  0  0  0  0
   12.9211    3.8273   10.8479 O   0  0  0  0  0  0  0  0  0  0  0  0
   10.7237    2.9573   11.5766 C   0  0  1  0  0  0  0  0  0  0  0  0
    9.4323    3.5131    6.8890 N   0  0  0  0  0  0  0  0  0  0  0  0
    9.1614    3.3682   11.4935 C   0  0  1  0  0  0  0  0  0  0  0  0
    8.9932    4.7185   12.1611 O   0  0  0  0  0  0  0  0  0  0  0  0
    8.6926    3.4439    9.9441 C   0  0  2  0  0  0  0  0  0  0  0  0
    8.8536    2.1418    9.3319 O   0  0  0  0  0  0  0  0  0  0  0  0
    9.5832    4.6020    9.2192 C   0  0  1  0  0  0  0  0  0  0  0  0
   11.0441    4.2840    9.3823 O   0  0  0  0  0  0  0  0  0  0  0  0
    9.2366    4.7559    7.6969 C   0  0  0  0  0  0  0  0  0  0  0  0
   11.0182    1.6293   10.9437 N   0  0  0  0  0  0  0  0  0  0  0  0
  1  2  1  1  0  0  0
  1  3  1  0  0  0  0
  1 10  1  0  0  0  0
  3  4  1  1  0  0  0
  3  5  1  0  0  0  0
  5  6  1  6  0  0  0
  5  7  1  0  0  0  0
  7  8  1  1  0  0  0
  7  9  1  0  0  0  0
  9 10  1  0  0  0  0
  9 11  1  6  0  0  0
 11 12  1  0  0  0  0
 13 14  1  1  0  0  0
 13 15  1  0  0  0  0
 13 21  1  0  0  0  0
 16 15  1  0  0  0  0
 16 17  1  6  0  0  0
 18  2  1  6  0  0  0
 18 16  1  0  0  0  0
 19 18  1  0  0  0  0
 19 20  1  1  0  0  0
 21 19  1  0  0  0  0
 21 22  1  1  0  0  0
 23 20  1  6  0  0  0
 23 24  1  0  0  0  0
 23 28  1  0  0  0  0
 24 25  1  6  0  0  0
 24 26  1  0  0  0  0
 26 27  1  0  0  0  0
 26 32  1  6  0  0  0
 27 28  1  0  0  0  0
 27 29  1  6  0  0  0
 29 30  1  0  0  0  0
 31 32  1  6  0  0  0
 31 40  1  0  0  0  0
 33 31  1  0  0  0  0
 33 42  1  6  0  0  0
 35 33  1  0  0  0  0
 35 36  1  6  0  0  0
 37 35  1  0  0  0  0
 37 38  1  6  0  0  0
 37 39  1  0  0  0  0
 39 40  1  0  0  0  0
 39 41  1  6  0  0  0
 41 34  1  0  0  0  0
M  END
>  <CHROM.1>
-155.65452215,68.91292778,-46.99384313,-85.40017677,140.10475519,-76.07514830
64.50294314,-148.42137206,-58.81630138,12.10434963,6.57410321,7.87451987
1.17461369,-0.21857068,-1.04198071

>  <Name>
2et4_lig

>  <RI>
0

>  <Rbt.Current_Directory>
/home/itssahil/PROJECTS/Mol_Feturizer/New_Systems/rnas/2et4

>  <Rbt.Executable>
rbdock ($Id: //depot/dev/client3/rdock/2013.1/src/exe/rbdock.cxx#4 $)

>  <Rbt.Library>
libRbt.so (2013.1, Build901 2013/11/27)

>  <Rbt.Parameter_File>
/export/apps/rDock/src/rDock_2013.1_src/data/scripts/dock_solv.prm

>  <Rbt.Receptor>
prm/pocket_docking_3.prm

>  <SCORE>
-3.35338

>  <SCORE.INTER>
-6.50136

>  <SCORE.INTER.CONST>
1

>  <SCORE.INTER.POLAR>
-0.824621

>  <SCORE.INTER.ROT>
9

>  <SCORE.INTER.SOLV>
12.7914

>  <SCORE.INTER.VDW>
-15.4493

>  <SCORE.INTER.norm>
-0.154794

>  <SCORE.INTRA>
3.13742

>  <SCORE.INTRA.DIHEDRAL>
-4.62904

>  <SCORE.INTRA.DIHEDRAL.0>
21.6909

>  <SCORE.INTRA.POLAR>
0

>  <SCORE.INTRA.POLAR.0>
0

>  <SCORE.INTRA.REPUL>
0

>  <SCORE.INTRA.REPUL.0>
0

>  <SCORE.INTRA.SOLV>
3.91069

>  <SCORE.INTRA.SOLV.lig_0>
-116.606

>  <SCORE.INTRA.VDW>
3.4966

>  <SCORE.INTRA.VDW.0>
-6.01229

>  <SCORE.INTRA.norm>
0.0747006

>  <SCORE.RESTR>
0.0105585

>  <SCORE.RESTR.CAVITY>
0.0105585

>  <SCORE.RESTR.norm>
0.000251392

>  <SCORE.SYSTEM>
0

>  <SCORE.SYSTEM.CONST>
0

>  <SCORE.SYSTEM.DIHEDRAL>
0

>  <SCORE.SYSTEM.SOLV>
0

>  <SCORE.SYSTEM.norm>
0

>  <SCORE.heavy>
42

>  <SCORE.norm>
-0.0798423

>  <RMSD>
4.652

$$$$
2et4_lig
 OpenBabel11021811423D
libRbt.so/2013.1/901 2013/11/27
 42 45  0  0  0  0  0  0  0  0999 V2000
   12.0035    9.2678    7.3035 C   0  0  2  0  0  0  0  0  0  0  0  0
   12.7183    8.1921    7.9152 O   0  0  0  0  0  0  0  0  0  0  0  0
   10.8590    9.6644    8.2707 C   0  0  2  0  0  0  0  0  0  0  0  0
   11.3700   10.0299    9.5672 N   0  0  0  0  0  0  0  0  0  0  0  0
    9.8475    8.4871    8.3792 C   0  0  1  0  0  0  0  0  0  0  0  0
    8.8114    8.8524    9.2365 O   0  0  0  0  0  0  0  0  0  0  0  0
    9.3348    8.1482    6.9397 C   0  0  2  0  0  0  0  0  0  0  0  0
    8.4167    7.0767    6.9902 O   0  0  0  0  0  0  0  0  0  0  0  0
   10.5213    7.7665    6.0034 C   0  0  2  0  0  0  0  0  0  0  0  0
   11.4480    8.8562    5.9830 O   0  0  0  0  0  0  0  0  0  0  0  0
   10.0502    7.4614    4.5438 C   0  0  0  0  0  0  0  0  0  0  0  0
   11.0910    6.9089    3.7484 N   0  0  0  0  0  0  0  0  0  0  0  0
   16.3185    6.4063    6.3327 C   0  0  2  0  0  0  0  0  0  0  0  0
   17.7441    6.1541    6.0886 N   0  0  0  0  0  0  0  0  0  0  0  0
   15.9512    7.9216    5.8841 C   0  0  0  0  0  0  0  0  0  0  0  0
   14.4162    8.1926    6.1630 C   0  0  2  0  0  0  0  0  0  0  0  0
   14.0434    9.5695    5.7931 N   0  0  0  0  0  0  0  0  0  0  0  0
   14.1138    7.9579    7.6815 C   0  0  2  0  0  0  0  0  0  0  0  0
   14.4997    6.5026    8.1069 C   0  0  2  0  0  0  0  0  0  0  0  0
   14.1976    6.3939    9.5197 O   0  0  0  0  0  0  0  0  0  0  0  0
   16.0177    6.2540    7.8328 C   0  0  1  0  0  0  0  0  0  0  0  0
   16.3272    4.9537    8.2058 O   0  0  0  0  0  0  0  0  0  0  0  0
   12.9697    6.1654   10.0452 C   0  0  1  0  0  0  0  0  0  0  0  0
   12.4216    4.7852    9.5977 C   0  0  2  0  0  0  0  0  0  0  0  0
   11.7977    4.8216    8.3469 O   0  0  0  0  0  0  0  0  0  0  0  0
   11.5888    4.4426   10.8190 C   0  0  1  0  0  0  0  0  0  0  0  0
   12.3624    4.9582   12.0407 C   0  0  2  0  0  0  0  0  0  0  0  0
   12.9196    6.1550   11.4975 O   0  0  0  0  0  0  0  0  0  0  0  0
   13.4703    3.9978   12.5931 C   0  0  0  0  0  0  0  0  0  0  0  0
   14.2032    3.4781   11.4521 O   0  0  0  0  0  0  0  0  0  0  0  0
    9.3131    4.9154   11.6670 C   0  0  2  0  0  0  0  0  0  0  0  0
   10.2759    5.1228   10.6699 O   0  0  0  0  0  0  0  0  0  0  0  0
    7.8990    5.5034   11.2376 C   0  0  1  0  0  0  0  0  0  0  0  0
    9.5393    7.5905   15.3565 N   0  0  0  0  0  0  0  0  0  0  0  0
    6.8793    5.2294   12.4631 C   0  0  1  0  0  0  0  0  0  0  0  0
    6.8339    3.7351   12.7131 O   0  0  0  0  0  0  0  0  0  0  0  0
    7.3902    6.0069   13.7901 C   0  0  2  0  0  0  0  0  0  0  0  0
    7.4159    7.4308   13.5296 O   0  0  0  0  0  0  0  0  0  0  0  0
    8.8556    5.4045   14.1768 C   0  0  1  0  0  0  0  0  0  0  0  0
    9.7844    5.5590   13.0040 O   0  0  0  0  0  0  0  0  0  0  0  0
    9.4715    6.0993   15.4413 C   0  0  0  0  0  0  0  0  0  0  0  0
    8.0302    6.9579   10.8942 N   0  0  0  0  0  0  0  0  0  0  0  0
  1  2  1  1  0  0  0
  1  3  1  0  0  0  0
  1 10  1  0  0  0  0
  3  4  1  1  0  0  0
  3  5  1  0  0  0  0
  5  6  1  1  0  0  0
  5  7  1  0  0  0  0
  7  8  1  1  0  0  0
  7  9  1  0  0  0  0
  9 10  1  0  0  0  0
  9 11  1  6  0  0  0
 11 12  1  0  0  0  0
 13 14  1  1  0  0  0
 13 15  1  0  0  0  0
 13 21  1  0  0  0  0
 16 15  1  0  0  0  0
 16 17  1  1  0  0  0
 18  2  1  6  0  0  0
 18 16  1  0  0  0  0
 19 18  1  0  0  0  0
 19 20  1  1  0  0  0
 21 19  1  0  0  0  0
 21 22  1  6  0  0  0
 23 20  1  1  0  0  0
 23 24  1  0  0  0  0
 23 28  1  0  0  0  0
 24 25  1  6  0  0  0
 24 26  1  0  0  0  0
 26 27  1  0  0  0  0
 26 32  1  6  0  0  0
 27 28  1  0  0  0  0
 27 29  1  6  0  0  0
 29 30  1  0  0  0  0
 31 32  1  6  0  0  0
 31 40  1  0  0  0  0
 33 31  1  0  0  0  0
 33 42  1  1  0  0  0
 35 33  1  0  0  0  0
 35 36  1  1  0  0  0
 37 35  1  0  0  0  0
 37 38  1  6  0  0  0
 37 39  1  0  0  0  0
 39 40  1  0  0  0  0
 39 41  1  1  0  0  0
 41 34  1  0  0  0  0
M  END
>  <CHROM.1>
-150.88856232,-170.55963482,-40.64311418,80.75721234,62.71582181,177.94143583
43.93672923,-170.30488467,-53.70455476,11.49931012,6.63276058,9.49371917
0.84846871,0.27776996,-1.09121980

>  <Name>
2et4_lig

>  <RI>
0

>  <Rbt.Current_Directory>
/home/itssahil/PROJECTS/Mol_Feturizer/New_Systems/rnas/2et4

>  <Rbt.Executable>
rbdock ($Id: //depot/dev/client3/rdock/2013.1/src/exe/rbdock.cxx#4 $)

>  <Rbt.Library>
libRbt.so (2013.1, Build901 2013/11/27)

>  <Rbt.Parameter_File>
/export/apps/rDock/src/rDock_2013.1_src/data/scripts/dock_solv.prm

>  <Rbt.Receptor>
prm/pocket_docking_3.prm

>  <SCORE>
-9.19047

>  <SCORE.INTER>
-7.2192

>  <SCORE.INTER.CONST>
1

>  <SCORE.INTER.POLAR>
-0.913265

>  <SCORE.INTER.ROT>
9

>  <SCORE.INTER.SOLV>
9.74805

>  <SCORE.INTER.VDW>
-14.6179

>  <SCORE.INTER.norm>
-0.171886

>  <SCORE.INTRA>
-2.15141

>  <SCORE.INTRA.DIHEDRAL>
-12.627

>  <SCORE.INTRA.DIHEDRAL.0>
21.6909

>  <SCORE.INTRA.POLAR>
0

>  <SCORE.INTRA.POLAR.0>
0

>  <SCORE.INTRA.REPUL>
0

>  <SCORE.INTRA.REPUL.0>
0

>  <SCORE.INTRA.SOLV>
2.23195

>  <SCORE.INTRA.SOLV.lig_0>
-116.606

>  <SCORE.INTRA.VDW>
3.04611

>  <SCORE.INTRA.VDW.0>
-6.01229

>  <SCORE.INTRA.norm>
-0.051224

>  <SCORE.RESTR>
0.18014

>  <SCORE.RESTR.CAVITY>
0.18014

>  <SCORE.RESTR.norm>
0.00428905

>  <SCORE.SYSTEM>
0

>  <SCORE.SYSTEM.CONST>
0

>  <SCORE.SYSTEM.DIHEDRAL>
0

>  <SCORE.SYSTEM.SOLV>
0

>  <SCORE.SYSTEM.norm>
0

>  <SCORE.heavy>
42

>  <SCORE.norm>
-0.218821

>  <RMSD>
4.656

$$$$
2et4_lig
 OpenBabel11021811423D
libRbt.so/2013.1/901 2013/11/27
 42 45  0  0  0  0  0  0  0  0999 V2000
   14.6873    7.6371    4.8026 C   0  0  2  0  0  0  0  0  0  0  0  0
   13.9204    7.4077    5.9864 O   0  0  0  0  0  0  0  0  0  0  0  0
   14.5561    9.1425    4.4576 C   0  0  2  0  0  0  0  0  0  0  0  0
   14.9964    9.9721    5.5501 N   0  0  0  0  0  0  0  0  0  0  0  0
   13.0801    9.4552    4.0771 C   0  0  1  0  0  0  0  0  0  0  0  0
   12.9683   10.8056    3.7518 O   0  0  0  0  0  0  0  0  0  0  0  0
   12.6735    8.5227    2.8875 C   0  0  2  0  0  0  0  0  0  0  0  0
   11.3345    8.7683    2.5129 O   0  0  0  0  0  0  0  0  0  0  0  0
   12.8322    7.0222    3.2789 C   0  0  2  0  0  0  0  0  0  0  0  0
   14.1892    6.8006    3.6741 O   0  0  0  0  0  0  0  0  0  0  0  0
   12.4738    6.0606    2.0990 C   0  0  0  0  0  0  0  0  0  0  0  0
   12.6588    4.6942    2.4452 N   0  0  0  0  0  0  0  0  0  0  0  0
   13.4893    3.1123    6.1200 C   0  0  2  0  0  0  0  0  0  0  0  0
   13.2437    1.7636    6.6458 N   0  0  0  0  0  0  0  0  0  0  0  0
   14.7358    3.7844    6.9118 C   0  0  0  0  0  0  0  0  0  0  0  0
   14.9868    5.2436    6.3507 C   0  0  2  0  0  0  0  0  0  0  0  0
   16.0970    5.9030    7.0609 N   0  0  0  0  0  0  0  0  0  0  0  0
   13.6823    6.0949    6.5125 C   0  0  2  0  0  0  0  0  0  0  0  0
   12.4824    5.4205    5.7687 C   0  0  2  0  0  0  0  0  0  0  0  0
   11.3310    6.2714    5.9906 O   0  0  0  0  0  0  0  0  0  0  0  0
   12.2430    3.9855    6.3389 C   0  0  1  0  0  0  0  0  0  0  0  0
   11.1845    3.4079    5.6522 O   0  0  0  0  0  0  0  0  0  0  0  0
   10.8469    6.6377    7.2021 C   0  0  1  0  0  0  0  0  0  0  0  0
    9.8532    7.8211    7.0689 C   0  0  2  0  0  0  0  0  0  0  0  0
   10.4859    9.0673    7.0279 O   0  0  0  0  0  0  0  0  0  0  0  0
    8.9363    7.5061    8.2363 C   0  0  1  0  0  0  0  0  0  0  0  0
    8.8018    5.9779    8.2932 C   0  0  2  0  0  0  0  0  0  0  0  0
   10.1229    5.5958    7.9106 O   0  0  0  0  0  0  0  0  0  0  0  0
    7.7185    5.3597    7.3451 C   0  0  0  0  0  0  0  0  0  0  0  0
    6.4325    5.9075    7.7391 O   0  0  0  0  0  0  0  0  0  0  0  0
    8.9742    7.7588   10.6972 C   0  0  2  0  0  0  0  0  0  0  0  0
    9.5731    8.0501    9.4641 O   0  0  0  0  0  0  0  0  0  0  0  0
    7.7113    8.6888   10.9616 C   0  0  1  0  0  0  0  0  0  0  0  0
   10.3191    7.4745   15.6779 N   0  0  0  0  0  0  0  0  0  0  0  0
    7.1182    8.2830   12.4108 C   0  0  1  0  0  0  0  0  0  0  0  0
    6.7573    6.8112   12.3768 O   0  0  0  0  0  0  0  0  0  0  0  0
    8.2268    8.5644   13.5589 C   0  0  2  0  0  0  0  0  0  0  0  0
    8.5475    9.9761   13.5778 O   0  0  0  0  0  0  0  0  0  0  0  0
    9.5183    7.6231   13.2336 C   0  0  1  0  0  0  0  0  0  0  0  0
   10.0143    7.9182   11.8447 O   0  0  0  0  0  0  0  0  0  0  0  0
   10.6792    7.8242   14.2696 C   0  0  0  0  0  0  0  0  0  0  0  0
    8.1083   10.1327   10.8707 N   0  0  0  0  0  0  0  0  0  0  0  0
  1  2  1  1  0  0  0
  1  3  1  0  0  0  0
  1 10  1  0  0  0  0
  3  4  1  1  0  0  0
  3  5  1  0  0  0  0
  5  6  1  6  0  0  0
  5  7  1  0  0  0  0
  7  8  1  1  0  0  0
  7  9  1  0  0  0  0
  9 10  1  0  0  0  0
  9 11  1  6  0  0  0
 11 12  1  0  0  0  0
 13 14  1  1  0  0  0
 13 15  1  0  0  0  0
 13 21  1  0  0  0  0
 16 15  1  0  0  0  0
 16 17  1  1  0  0  0
 18  2  1  6  0  0  0
 18 16  1  0  0  0  0
 19 18  1  0  0  0  0
 19 20  1  1  0  0  0
 21 19  1  0  0  0  0
 21 22  1  6  0  0  0
 23 20  1  6  0  0  0
 23 24  1  0  0  0  0
 23 28  1  0  0  0  0
 24 25  1  1  0  0  0
 24 26  1  0  0  0  0
 26 27  1  0  0  0  0
 26 32  1  1  0  0  0
 27 28  1  0  0  0  0
 27 29  1  6  0  0  0
 29 30  1  0  0  0  0
 31 32  1  6  0  0  0
 31 40  1  0  0  0  0
 33 31  1  0  0  0  0
 33 42  1  1  0  0  0
 35 33  1  0  0  0  0
 35 36  1  6  0  0  0
 37 35  1  0  0  0  0
 37 38  1  6  0  0  0
 37 39  1  0  0  0  0
 39 40  1  0  0  0  0
 39 41  1  1  0  0  0
 41 34  1  0  0  0  0
M  END
>  <CHROM.1>
172.50011540,178.18987386,39.06707413,-56.44512049,165.46482535,-173.53203415
-61.04677156,-78.84936978,61.55932928,11.21918483,7.02269370,7.58612482,0.17226248
1.02054137,-0.37318479

>  <Name>
2et4_lig

>  <RI>
0

>  <Rbt.Current_Directory>
/home/itssahil/PROJECTS/Mol_Feturizer/New_Systems/rnas/2et4

>  <Rbt.Executable>
rbdock ($Id: //depot/dev/client3/rdock/2013.1/src/exe/rbdock.cxx#4 $)

>  <Rbt.Library>
libRbt.so (2013.1, Build901 2013/11/27)

>  <Rbt.Parameter_File>
/export/apps/rDock/src/rDock_2013.1_src/data/scripts/dock_solv.prm

>  <Rbt.Receptor>
prm/pocket_docking_6.prm

>  <SCORE>
-13.6002

>  <SCORE.INTER>
-6.12633

>  <SCORE.INTER.CONST>
1

>  <SCORE.INTER.POLAR>
-0.906351

>  <SCORE.INTER.ROT>
9

>  <SCORE.INTER.SOLV>
16.1138

>  <SCORE.INTER.VDW>
-16.0343

>  <SCORE.INTER.norm>
-0.145865

>  <SCORE.INTRA>
-7.47386

>  <SCORE.INTRA.DIHEDRAL>
-16.402

>  <SCORE.INTRA.DIHEDRAL.0>
21.6909

>  <SCORE.INTRA.POLAR>
0

>  <SCORE.INTRA.POLAR.0>
0

>  <SCORE.INTRA.REPUL>
0

>  <SCORE.INTRA.REPUL.0>
0

>  <SCORE.INTRA.SOLV>
-1.50955

>  <SCORE.INTRA.SOLV.lig_0>
-116.606

>  <SCORE.INTRA.VDW>
1.48193

>  <SCORE.INTRA.VDW.0>
-6.01229

>  <SCORE.INTRA.norm>
-0.177949

>  <SCORE.RESTR>
0

>  <SCORE.RESTR.CAVITY>
0

>  <SCORE.RESTR.norm>
0

>  <SCORE.SYSTEM>
0

>  <SCORE.SYSTEM.CONST>
0

>  <SCORE.SYSTEM.DIHEDRAL>
0

>  <SCORE.SYSTEM.SOLV>
0

>  <SCORE.SYSTEM.norm>
0

>  <SCORE.heavy>
42

>  <SCORE.norm>
-0.323814

>  <RMSD>
4.685

$$$$
2et4_lig
 OpenBabel11021811423D
libRbt.so/2013.1/901 2013/11/27
 42 45  0  0  0  0  0  0  0  0999 V2000
   10.9238    8.0257    5.5064 C   0  0  2  0  0  0  0  0  0  0  0  0
   11.0596    7.2882    6.7229 O   0  0  0  0  0  0  0  0  0  0  0  0
   10.5802    7.0066    4.3901 C   0  0  2  0  0  0  0  0  0  0  0  0
    9.3845    6.2667    4.7042 N   0  0  0  0  0  0  0  0  0  0  0  0
   11.7898    6.0513    4.1772 C   0  0  1  0  0  0  0  0  0  0  0  0
   11.4844    5.1466    3.1622 O   0  0  0  0  0  0  0  0  0  0  0  0
   13.0464    6.9209    3.8386 C   0  0  2  0  0  0  0  0  0  0  0  0
   14.1730    6.0924    3.6439 O   0  0  0  0  0  0  0  0  0  0  0  0
   13.3445    7.9353    4.9840 C   0  0  2  0  0  0  0  0  0  0  0  0
   12.1845    8.7498    5.1781 O   0  0  0  0  0  0  0  0  0  0  0  0
   14.5706    8.8507    4.6611 C   0  0  0  0  0  0  0  0  0  0  0  0
   14.7949    9.8239    5.6728 N   0  0  0  0  0  0  0  0  0  0  0  0
   11.9993   10.3549    9.6155 C   0  0  2  0  0  0  0  0  0  0  0  0
   12.2240   11.0128   10.9087 N   0  0  0  0  0  0  0  0  0  0  0  0
   10.4730    9.8095    9.5424 C   0  0  0  0  0  0  0  0  0  0  0  0
   10.2408    9.0885    8.1518 C   0  0  2  0  0  0  0  0  0  0  0  0
    8.8713    8.5535    8.0522 N   0  0  0  0  0  0  0  0  0  0  0  0
   11.2723    7.9210    7.9923 C   0  0  2  0  0  0  0  0  0  0  0  0
   12.7387    8.4569    8.0938 C   0  0  2  0  0  0  0  0  0  0  0  0
   13.6073    7.3063    7.9497 O   0  0  0  0  0  0  0  0  0  0  0  0
   12.9537    9.1580    9.4735 C   0  0  1  0  0  0  0  0  0  0  0  0
   14.2558    9.6344    9.5292 O   0  0  0  0  0  0  0  0  0  0  0  0
   13.6770    6.2619    8.8103 C   0  0  1  0  0  0  0  0  0  0  0  0
   14.3046    5.0192    8.1267 C   0  0  2  0  0  0  0  0  0  0  0  0
   13.3772    4.2641    7.4024 O   0  0  0  0  0  0  0  0  0  0  0  0
   14.9776    4.3883    9.3317 C   0  0  1  0  0  0  0  0  0  0  0  0
   15.5155    5.5407   10.1916 C   0  0  2  0  0  0  0  0  0  0  0  0
   14.4785    6.5026    9.9983 O   0  0  0  0  0  0  0  0  0  0  0  0
   16.9164    6.1011    9.7699 C   0  0  0  0  0  0  0  0  0  0  0  0
   17.3829    6.9589   10.8449 O   0  0  0  0  0  0  0  0  0  0  0  0
   12.9523    4.2917   10.7494 C   0  0  2  0  0  0  0  0  0  0  0  0
   13.9491    3.5946   10.0535 O   0  0  0  0  0  0  0  0  0  0  0  0
   13.5067    4.8816   12.1185 C   0  0  1  0  0  0  0  0  0  0  0  0
    8.9695    2.2751   10.6593 N   0  0  0  0  0  0  0  0  0  0  0  0
   12.2747    5.6403   12.8418 C   0  0  1  0  0  0  0  0  0  0  0  0
   11.7727    6.7218   11.9059 O   0  0  0  0  0  0  0  0  0  0  0  0
   11.0903    4.5830   13.1671 C   0  0  2  0  0  0  0  0  0  0  0  0
   11.5911    3.5670   14.0688 O   0  0  0  0  0  0  0  0  0  0  0  0
   10.5744    3.9731   11.7452 C   0  0  1  0  0  0  0  0  0  0  0  0
   11.7359    3.3569   11.0151 O   0  0  0  0  0  0  0  0  0  0  0  0
    9.4350    2.9106   11.9301 C   0  0  0  0  0  0  0  0  0  0  0  0
   14.0921    3.7806   12.9528 N   0  0  0  0  0  0  0  0  0  0  0  0
  1  2  1  1  0  0  0
  1  3  1  0  0  0  0
  1 10  1  0  0  0  0
  3  4  1  1  0  0  0
  3  5  1  0  0  0  0
  5  6  1  6  0  0  0
  5  7  1  0  0  0  0
  7  8  1  1  0  0  0
  7  9  1  0  0  0  0
  9 10  1  0  0  0  0
  9 11  1  6  0  0  0
 11 12  1  0  0  0  0
 13 14  1  1  0  0  0
 13 15  1  0  0  0  0
 13 21  1  0  0  0  0
 16 15  1  0  0  0  0
 16 17  1  1  0  0  0
 18  2  1  6  0  0  0
 18 16  1  0  0  0  0
 19 18  1  0  0  0  0
 19 20  1  1  0  0  0
 21 19  1  0  0  0  0
 21 22  1  6  0  0  0
 23 20  1  6  0  0  0
 23 24  1  0  0  0  0
 23 28  1  0  0  0  0
 24 25  1  1  0  0  0
 24 26  1  0  0  0  0
 26 27  1  0  0  0  0
 26 32  1  1  0  0  0
 27 28  1  0  0  0  0
 27 29  1  6  0  0  0
 29 30  1  0  0  0  0
 31 32  1  1  0  0  0
 31 40  1  0  0  0  0
 33 31  1  0  0  0  0
 33 42  1  1  0  0  0
 35 33  1  0  0  0  0
 35 36  1  6  0  0  0
 37 35  1  0  0  0  0
 37 38  1  1  0  0  0
 37 39  1  0  0  0  0
 39 40  1  0  0  0  0
 39 41  1  1  0  0  0
 41 34  1  0  0  0  0
M  END
>  <CHROM.1>
-174.90120344,176.72618502,47.92911439,-64.29647373,160.03635983,-71.41788245
-167.80522485,-76.54611049,-177.36558148,12.61163206,6.50405056,8.65636701
1.58407352,-0.63844068,-1.11472701

>  <Name>
2et4_lig

>  <RI>
0

>  <Rbt.Current_Directory>
/home/itssahil/PROJECTS/Mol_Feturizer/New_Systems/rnas/2et4

>  <Rbt.Executable>
rbdock ($Id: //depot/dev/client3/rdock/2013.1/src/exe/rbdock.cxx#4 $)

>  <Rbt.Library>
libRbt.so (2013.1, Build901 2013/11/27)

>  <Rbt.Parameter_File>
/export/apps/rDock/src/rDock_2013.1_src/data/scripts/dock_solv.prm

>  <Rbt.Receptor>
prm/pocket_docking_5.prm

>  <SCORE>
-15.285

>  <SCORE.INTER>
-9.46942

>  <SCORE.INTER.CONST>
1

>  <SCORE.INTER.POLAR>
-1.52127

>  <SCORE.INTER.ROT>
9

>  <SCORE.INTER.SOLV>
16.9767

>  <SCORE.INTER.VDW>
-16.501

>  <SCORE.INTER.norm>
-0.225462

>  <SCORE.INTRA>
-5.81559

>  <SCORE.INTRA.DIHEDRAL>
-16.3897

>  <SCORE.INTRA.DIHEDRAL.0>
21.6909

>  <SCORE.INTRA.POLAR>
0

>  <SCORE.INTRA.POLAR.0>
0

>  <SCORE.INTRA.REPUL>
0

>  <SCORE.INTRA.REPUL.0>
0

>  <SCORE.INTRA.SOLV>
-0.302048

>  <SCORE.INTRA.SOLV.lig_0>
-116.606

>  <SCORE.INTRA.VDW>
2.53029

>  <SCORE.INTRA.VDW.0>
-6.01229

>  <SCORE.INTRA.norm>
-0.138467

>  <SCORE.RESTR>
0

>  <SCORE.RESTR.CAVITY>
0

>  <SCORE.RESTR.norm>
0

>  <SCORE.SYSTEM>
0

>  <SCORE.SYSTEM.CONST>
0

>  <SCORE.SYSTEM.DIHEDRAL>
0

>  <SCORE.SYSTEM.SOLV>
0

>  <SCORE.SYSTEM.norm>
0

>  <SCORE.heavy>
42

>  <SCORE.norm>
-0.363929

>  <RMSD>
4.795

$$$$
2et4_lig
 OpenBabel11021811423D
libRbt.so/2013.1/901 2013/11/27
 42 45  0  0  0  0  0  0  0  0999 V2000
   16.3862    7.4073    6.5556 C   0  0  2  0  0  0  0  0  0  0  0  0
   15.3964    6.4588    6.1520 O   0  0  0  0  0  0  0  0  0  0  0  0
   17.5029    7.3879    5.4808 C   0  0  2  0  0  0  0  0  0  0  0  0
   16.9780    7.6853    4.1725 N   0  0  0  0  0  0  0  0  0  0  0  0
   18.2085    6.0011    5.4987 C   0  0  1  0  0  0  0  0  0  0  0  0
   19.2224    5.9919    4.5428 O   0  0  0  0  0  0  0  0  0  0  0  0
   18.7534    5.7481    6.9440 C   0  0  2  0  0  0  0  0  0  0  0  0
   19.3972    4.4931    7.0082 O   0  0  0  0  0  0  0  0  0  0  0  0
   17.5967    5.7877    7.9883 C   0  0  2  0  0  0  0  0  0  0  0  0
   16.9459    7.0582    7.8921 O   0  0  0  0  0  0  0  0  0  0  0  0
   18.1106    5.5797    9.4505 C   0  0  0  0  0  0  0  0  0  0  0  0
   17.0445    5.4959   10.3872 N   0  0  0  0  0  0  0  0  0  0  0  0
   12.7772    8.4277    3.3382 C   0  0  2  0  0  0  0  0  0  0  0  0
   11.5493    8.8276    2.6395 N   0  0  0  0  0  0  0  0  0  0  0  0
   12.9768    6.8228    3.2088 C   0  0  0  0  0  0  0  0  0  0  0  0
   14.2943    6.3955    3.9761 C   0  0  2  0  0  0  0  0  0  0  0  0
   14.5017    4.9382    3.9061 N   0  0  0  0  0  0  0  0  0  0  0  0
   14.1907    6.8387    5.4746 C   0  0  2  0  0  0  0  0  0  0  0  0
   13.9695    8.3837    5.5835 C   0  0  2  0  0  0  0  0  0  0  0  0
   13.8728    8.6861    6.9971 O   0  0  0  0  0  0  0  0  0  0  0  0
   12.6625    8.7876    4.8285 C   0  0  1  0  0  0  0  0  0  0  0  0
   12.5000   10.1620    4.9300 O   0  0  0  0  0  0  0  0  0  0  0  0
   13.3613    7.8621    7.9435 C   0  0  1  0  0  0  0  0  0  0  0  0
   13.1568    8.6148    9.2841 C   0  0  2  0  0  0  0  0  0  0  0  0
   14.3154    8.6700   10.0648 O   0  0  0  0  0  0  0  0  0  0  0  0
   11.9555    7.8537    9.8137 C   0  0  1  0  0  0  0  0  0  0  0  0
   11.0670    7.5324    8.6036 C   0  0  2  0  0  0  0  0  0  0  0  0
   12.0681    7.2856    7.6163 O   0  0  0  0  0  0  0  0  0  0  0  0
   10.0847    8.6717    8.1657 C   0  0  0  0  0  0  0  0  0  0  0  0
   10.8914    9.7846    7.6969 O   0  0  0  0  0  0  0  0  0  0  0  0
   11.5799    5.9057   11.2921 C   0  0  2  0  0  0  0  0  0  0  0  0
   12.4617    6.6199   10.4697 O   0  0  0  0  0  0  0  0  0  0  0  0
   12.3094    4.6807   11.9970 C   0  0  1  0  0  0  0  0  0  0  0  0
    6.9908    3.5662   10.9168 N   0  0  0  0  0  0  0  0  0  0  0  0
   11.1997    3.9214   12.8964 C   0  0  1  0  0  0  0  0  0  0  0  0
   10.6417    4.9160   13.8948 O   0  0  0  0  0  0  0  0  0  0  0  0
   10.0159    3.3520   11.9473 C   0  0  2  0  0  0  0  0  0  0  0  0
   10.5717    2.3986   11.0102 O   0  0  0  0  0  0  0  0  0  0  0  0
    9.3179    4.6311   11.2147 C   0  0  1  0  0  0  0  0  0  0  0  0
   10.3628    5.4059   10.4598 O   0  0  0  0  0  0  0  0  0  0  0  0
    8.1628    4.2045   10.2426 C   0  0  0  0  0  0  0  0  0  0  0  0
   12.9379    3.7932   10.9635 N   0  0  0  0  0  0  0  0  0  0  0  0
  1  2  1  6  0  0  0
  1  3  1  0  0  0  0
  1 10  1  0  0  0  0
  3  4  1  6  0  0  0
  3  5  1  0  0  0  0
  5  6  1  6  0  0  0
  5  7  1  0  0  0  0
  7  8  1  6  0  0  0
  7  9  1  0  0  0  0
  9 10  1  0  0  0  0
  9 11  1  1  0  0  0
 11 12  1  0  0  0  0
 13 14  1  6  0  0  0
 13 15  1  0  0  0  0
 13 21  1  0  0  0  0
 16 15  1  0  0  0  0
 16 17  1  1  0  0  0
 18  2  1  1  0  0  0
 18 16  1  0  0  0  0
 19 18  1  0  0  0  0
 19 20  1  1  0  0  0
 21 19  1  0  0  0  0
 21 22  1  6  0  0  0
 23 20  1  6  0  0  0
 23 24  1  0  0  0  0
 23 28  1  0  0  0  0
 24 25  1  1  0  0  0
 24 26  1  0  0  0  0
 26 27  1  0  0  0  0
 26 32  1  6  0  0  0
 27 28  1  0  0  0  0
 27 29  1  6  0  0  0
 29 30  1  0  0  0  0
 31 32  1  6  0  0  0
 31 40  1  0  0  0  0
 33 31  1  0  0  0  0
 33 42  1  6  0  0  0
 35 33  1  0  0  0  0
 35 36  1  1  0  0  0
 37 35  1  0  0  0  0
 37 38  1  6  0  0  0
 37 39  1  0  0  0  0
 39 40  1  0  0  0  0
 39 41  1  6  0  0  0
 41 34  1  0  0  0  0
M  END
>  <CHROM.1>
-98.74618440,-174.70750596,107.42709083,-31.98507135,-168.59855711,165.97470209
65.54961791,-175.76408673,64.74473690,13.53440379,6.50892676,7.95801830,-0.78293606
-0.19482927,2.10565827

>  <Name>
2et4_lig

>  <RI>
0

>  <Rbt.Current_Directory>
/home/itssahil/PROJECTS/Mol_Feturizer/New_Systems/rnas/2et4

>  <Rbt.Executable>
rbdock ($Id: //depot/dev/client3/rdock/2013.1/src/exe/rbdock.cxx#4 $)

>  <Rbt.Library>
libRbt.so (2013.1, Build901 2013/11/27)

>  <Rbt.Parameter_File>
/export/apps/rDock/src/rDock_2013.1_src/data/scripts/dock_solv.prm

>  <Rbt.Receptor>
prm/pocket_docking_2.prm

>  <SCORE>
-0.368563

>  <SCORE.INTER>
-3.78435

>  <SCORE.INTER.CONST>
1

>  <SCORE.INTER.POLAR>
-0.769525

>  <SCORE.INTER.ROT>
9

>  <SCORE.INTER.SOLV>
17.8181

>  <SCORE.INTER.VDW>
-15.4972

>  <SCORE.INTER.norm>
-0.0901037

>  <SCORE.INTRA>
0.155826

>  <SCORE.INTRA.DIHEDRAL>
-4.7635

>  <SCORE.INTRA.DIHEDRAL.0>
21.6909

>  <SCORE.INTRA.POLAR>
0

>  <SCORE.INTRA.POLAR.0>
0

>  <SCORE.INTRA.REPUL>
0

>  <SCORE.INTRA.REPUL.0>
0

>  <SCORE.INTRA.SOLV>
-0.0654625

>  <SCORE.INTRA.SOLV.lig_0>
-116.606

>  <SCORE.INTRA.VDW>
2.57031

>  <SCORE.INTRA.VDW.0>
-6.01229

>  <SCORE.INTRA.norm>
0.00371013

>  <SCORE.RESTR>
3.25997

>  <SCORE.RESTR.CAVITY>
3.25997

>  <SCORE.RESTR.norm>
0.0776183

>  <SCORE.SYSTEM>
0

>  <SCORE.SYSTEM.CONST>
0

>  <SCORE.SYSTEM.DIHEDRAL>
0

>  <SCORE.SYSTEM.SOLV>
0

>  <SCORE.SYSTEM.norm>
0

>  <SCORE.heavy>
42

>  <SCORE.norm>
-0.0087753

>  <RMSD>
4.810

$$$$
2et4_lig
 OpenBabel11021811423D
libRbt.so/2013.1/901 2013/11/27
 42 45  0  0  0  0  0  0  0  0999 V2000
   15.7753    7.9393    7.1315 C   0  0  2  0  0  0  0  0  0  0  0  0
   14.9353    7.6383    6.0153 O   0  0  0  0  0  0  0  0  0  0  0  0
   16.4722    6.6190    7.5482 C   0  0  2  0  0  0  0  0  0  0  0  0
   17.2182    6.0509    6.4543 N   0  0  0  0  0  0  0  0  0  0  0  0
   15.4035    5.6188    8.0759 C   0  0  1  0  0  0  0  0  0  0  0  0
   16.0346    4.4388    8.4648 O   0  0  0  0  0  0  0  0  0  0  0  0
   14.6379    6.2999    9.2591 C   0  0  2  0  0  0  0  0  0  0  0  0
   13.6501    5.4274    9.7655 O   0  0  0  0  0  0  0  0  0  0  0  0
   13.9643    7.6265    8.7939 C   0  0  2  0  0  0  0  0  0  0  0  0
   14.9787    8.4863    8.2663 O   0  0  0  0  0  0  0  0  0  0  0  0
   13.2238    8.3567    9.9618 C   0  0  0  0  0  0  0  0  0  0  0  0
   14.1290    8.9632   10.8750 N   0  0  0  0  0  0  0  0  0  0  0  0
   15.7908   10.8647    3.2744 C   0  0  2  0  0  0  0  0  0  0  0  0
   15.8116   11.6622    2.0418 N   0  0  0  0  0  0  0  0  0  0  0  0
   16.4736    9.4194    2.9969 C   0  0  0  0  0  0  0  0  0  0  0  0
   16.4354    8.5586    4.3253 C   0  0  2  0  0  0  0  0  0  0  0  0
   17.0239    7.2245    4.1119 N   0  0  0  0  0  0  0  0  0  0  0  0
   14.9521    8.4064    4.8043 C   0  0  2  0  0  0  0  0  0  0  0  0
   14.2974    9.8077    5.0400 C   0  0  2  0  0  0  0  0  0  0  0  0
   12.9342    9.5582    5.4624 O   0  0  0  0  0  0  0  0  0  0  0  0
   14.3361   10.6410    3.7188 C   0  0  1  0  0  0  0  0  0  0  0  0
   13.7626   11.8812    3.9613 O   0  0  0  0  0  0  0  0  0  0  0  0
   12.5398    8.5679    6.2990 C   0  0  1  0  0  0  0  0  0  0  0  0
   11.0705    8.7741    6.7508 C   0  0  2  0  0  0  0  0  0  0  0  0
   10.9478    9.6417    7.8404 O   0  0  0  0  0  0  0  0  0  0  0  0
   10.6594    7.3235    6.9230 C   0  0  1  0  0  0  0  0  0  0  0  0
   11.3488    6.5324    5.8025 C   0  0  2  0  0  0  0  0  0  0  0  0
   12.5912    7.2317    5.7300 O   0  0  0  0  0  0  0  0  0  0  0  0
   10.6033    6.5242    4.4245 C   0  0  0  0  0  0  0  0  0  0  0  0
   10.5053    7.9018    3.9752 O   0  0  0  0  0  0  0  0  0  0  0  0
   10.1740    6.8690    9.3062 C   0  0  2  0  0  0  0  0  0  0  0  0
   11.1155    6.8863    8.2683 O   0  0  0  0  0  0  0  0  0  0  0  0
   10.8116    6.3231   10.6572 C   0  0  1  0  0  0  0  0  0  0  0  0
    7.0764    3.5877    9.0730 N   0  0  0  0  0  0  0  0  0  0  0  0
    9.6383    6.3262   11.7707 C   0  0  1  0  0  0  0  0  0  0  0  0
    9.1207    7.7444   11.9058 O   0  0  0  0  0  0  0  0  0  0  0  0
    8.4427    5.3316   11.3151 C   0  0  2  0  0  0  0  0  0  0  0  0
    8.9592    3.9837   11.2024 O   0  0  0  0  0  0  0  0  0  0  0  0
    7.8404    5.9014    9.9106 C   0  0  1  0  0  0  0  0  0  0  0  0
    8.9469    6.0025    8.8970 O   0  0  0  0  0  0  0  0  0  0  0  0
    6.6826    5.0032    9.3500 C   0  0  0  0  0  0  0  0  0  0  0  0
   11.4069    4.9645   10.4322 N   0  0  0  0  0  0  0  0  0  0  0  0
  1  2  1  6  0  0  0
  1  3  1  0  0  0  0
  1 10  1  0  0  0  0
  3  4  1  6  0  0  0
  3  5  1  0  0  0  0
  5  6  1  1  0  0  0
  5  7  1  0  0  0  0
  7  8  1  6  0  0  0
  7  9  1  0  0  0  0
  9 10  1  0  0  0  0
  9 11  1  1  0  0  0
 11 12  1  0  0  0  0
 13 14  1  6  0  0  0
 13 15  1  0  0  0  0
 13 21  1  0  0  0  0
 16 15  1  0  0  0  0
 16 17  1  6  0  0  0
 18  2  1  1  0  0  0
 18 16  1  0  0  0  0
 19 18  1  0  0  0  0
 19 20  1  6  0  0  0
 21 19  1  0  0  0  0
 21 22  1  1  0  0  0
 23 20  1  6  0  0  0
 23 24  1  0  0  0  0
 23 28  1  0  0  0  0
 24 25  1  1  0  0  0
 24 26  1  0  0  0  0
 26 27  1  0  0  0  0
 26 32  1  1  0  0  0
 27 28  1  0  0  0  0
 27 29  1  6  0  0  0
 29 30  1  0  0  0  0
 31 32  1  6  0  0  0
 31 40  1  0  0  0  0
 33 31  1  0  0  0  0
 33 42  1  6  0  0  0
 35 33  1  0  0  0  0
 35 36  1  6  0  0  0
 37 35  1  0  0  0  0
 37 38  1  6  0  0  0
 37 39  1  0  0  0  0
 39 40  1  0  0  0  0
 39 41  1  6  0  0  0
 41 34  1  0  0  0  0
M  END
>  <CHROM.1>
-130.15796186,73.25562385,50.04834028,39.36644247,168.59065219,99.36663630
60.63421508,177.71707334,-59.62091783,12.65630073,7.44551538,7.39710223,-0.83094117
-0.03040378,2.15631971

>  <Name>
2et4_lig

>  <RI>
0

>  <Rbt.Current_Directory>
/home/itssahil/PROJECTS/Mol_Feturizer/New_Systems/rnas/2et4

>  <Rbt.Executable>
rbdock ($Id: //depot/dev/client3/rdock/2013.1/src/exe/rbdock.cxx#4 $)

>  <Rbt.Library>
libRbt.so (2013.1, Build901 2013/11/27)

>  <Rbt.Parameter_File>
/export/apps/rDock/src/rDock_2013.1_src/data/scripts/dock_solv.prm

>  <Rbt.Receptor>
prm/pocket_docking_2.prm

>  <SCORE>
3.77501

>  <SCORE.INTER>
-4.58108

>  <SCORE.INTER.CONST>
1

>  <SCORE.INTER.POLAR>
-0.653731

>  <SCORE.INTER.ROT>
9

>  <SCORE.INTER.SOLV>
14.0573

>  <SCORE.INTER.VDW>
-15.1607

>  <SCORE.INTER.norm>
-0.109073

>  <SCORE.INTRA>
4.75351

>  <SCORE.INTRA.DIHEDRAL>
-5.92342

>  <SCORE.INTRA.DIHEDRAL.0>
21.6909

>  <SCORE.INTRA.POLAR>
0

>  <SCORE.INTRA.POLAR.0>
0

>  <SCORE.INTRA.REPUL>
0.253664

>  <SCORE.INTRA.REPUL.0>
0

>  <SCORE.INTRA.SOLV>
6.31706

>  <SCORE.INTRA.SOLV.lig_0>
-116.606

>  <SCORE.INTRA.VDW>
3.28837

>  <SCORE.INTRA.VDW.0>
-6.01229

>  <SCORE.INTRA.norm>
0.113179

>  <SCORE.RESTR>
3.60258

>  <SCORE.RESTR.CAVITY>
3.60258

>  <SCORE.RESTR.norm>
0.0857757

>  <SCORE.SYSTEM>
0

>  <SCORE.SYSTEM.CONST>
0

>  <SCORE.SYSTEM.DIHEDRAL>
0

>  <SCORE.SYSTEM.SOLV>
0

>  <SCORE.SYSTEM.norm>
0

>  <SCORE.heavy>
42

>  <SCORE.norm>
0.0898812

>  <RMSD>
4.826

$$$$
2et4_lig
 OpenBabel11021811423D
libRbt.so/2013.1/901 2013/11/27
 42 45  0  0  0  0  0  0  0  0999 V2000
   16.0796    7.0952    6.9465 C   0  0  2  0  0  0  0  0  0  0  0  0
   15.1936    6.1547    6.3360 O   0  0  0  0  0  0  0  0  0  0  0  0
   17.2072    7.3906    5.9248 C   0  0  2  0  0  0  0  0  0  0  0  0
   16.6733    7.8865    4.6819 N   0  0  0  0  0  0  0  0  0  0  0  0
   18.0456    6.0995    5.6982 C   0  0  1  0  0  0  0  0  0  0  0  0
   19.0683    6.3720    4.7918 O   0  0  0  0  0  0  0  0  0  0  0  0
   18.5932    5.6221    7.0846 C   0  0  2  0  0  0  0  0  0  0  0  0
   19.3567    4.4450    6.9267 O   0  0  0  0  0  0  0  0  0  0  0  0
   17.4243    5.3487    8.0790 C   0  0  2  0  0  0  0  0  0  0  0  0
   16.6528    6.5466    8.2082 O   0  0  0  0  0  0  0  0  0  0  0  0
   17.9364    4.9091    9.4896 C   0  0  0  0  0  0  0  0  0  0  0  0
   18.5064    5.9909   10.2147 N   0  0  0  0  0  0  0  0  0  0  0  0
   11.9976    8.0101    4.1005 C   0  0  2  0  0  0  0  0  0  0  0  0
   10.6416    8.3735    3.6705 N   0  0  0  0  0  0  0  0  0  0  0  0
   12.1967    6.4054    3.9684 C   0  0  0  0  0  0  0  0  0  0  0  0
   13.6554    6.0176    4.4469 C   0  0  2  0  0  0  0  0  0  0  0  0
   13.8719    4.5621    4.3678 N   0  0  0  0  0  0  0  0  0  0  0  0
   13.8642    6.4990    5.9225 C   0  0  2  0  0  0  0  0  0  0  0  0
   13.6407    8.0430    6.0406 C   0  0  2  0  0  0  0  0  0  0  0  0
   13.8410    8.3815    7.4350 O   0  0  0  0  0  0  0  0  0  0  0  0
   12.1953    8.4078    5.5724 C   0  0  1  0  0  0  0  0  0  0  0  0
   12.0311    9.7819    5.6747 O   0  0  0  0  0  0  0  0  0  0  0  0
   13.2843    7.7353    8.4880 C   0  0  1  0  0  0  0  0  0  0  0  0
   13.1475    8.6798    9.7106 C   0  0  2  0  0  0  0  0  0  0  0  0
   14.3159    8.7619   10.4742 O   0  0  0  0  0  0  0  0  0  0  0  0
   11.9025    8.0860   10.3431 C   0  0  1  0  0  0  0  0  0  0  0  0
   10.9803    7.6624    9.1912 C   0  0  2  0  0  0  0  0  0  0  0  0
   11.9507    7.2109    8.2466 O   0  0  0  0  0  0  0  0  0  0  0  0
   10.0743    8.7956    8.5998 C   0  0  0  0  0  0  0  0  0  0  0  0
   10.9495    9.8723    8.1711 O   0  0  0  0  0  0  0  0  0  0  0  0
   11.3482    6.2440   11.8992 C   0  0  2  0  0  0  0  0  0  0  0  0
   12.3294    6.9231   11.1643 O   0  0  0  0  0  0  0  0  0  0  0  0
   11.9894    5.1085   12.8099 C   0  0  1  0  0  0  0  0  0  0  0  0
    6.9145    3.7490   11.0211 N   0  0  0  0  0  0  0  0  0  0  0  0
   10.7723    4.3819   13.5893 C   0  0  1  0  0  0  0  0  0  0  0  0
   10.0396    5.4313   14.4013 O   0  0  0  0  0  0  0  0  0  0  0  0
    9.7667    3.6929   12.5215 C   0  0  2  0  0  0  0  0  0  0  0  0
   10.4864    2.6893   11.7659 O   0  0  0  0  0  0  0  0  0  0  0  0
    9.1595    4.8810   11.5837 C   0  0  1  0  0  0  0  0  0  0  0  0
   10.2896    5.6323   10.9352 O   0  0  0  0  0  0  0  0  0  0  0  0
    8.1821    4.3336   10.4854 C   0  0  0  0  0  0  0  0  0  0  0  0
   12.7944    4.1657   11.9651 N   0  0  0  0  0  0  0  0  0  0  0  0
  1  2  1  6  0  0  0
  1  3  1  0  0  0  0
  1 10  1  0  0  0  0
  3  4  1  6  0  0  0
  3  5  1  0  0  0  0
  5  6  1  6  0  0  0
  5  7  1  0  0  0  0
  7  8  1  6  0  0  0
  7  9  1  0  0  0  0
  9 10  1  0  0  0  0
  9 11  1  1  0  0  0
 11 12  1  0  0  0  0
 13 14  1  1  0  0  0
 13 15  1  0  0  0  0
 13 21  1  0  0  0  0
 16 15  1  0  0  0  0
 16 17  1  1  0  0  0
 18  2  1  6  0  0  0
 18 16  1  0  0  0  0
 19 18  1  0  0  0  0
 19 20  1  1  0  0  0
 21 19  1  0  0  0  0
 21 22  1  6  0  0  0
 23 20  1  6  0  0  0
 23 24  1  0  0  0  0
 23 28  1  0  0  0  0
 24 25  1  1  0  0  0
 24 26  1  0  0  0  0
 26 27  1  0  0  0  0
 26 32  1  6  0  0  0
 27 28  1  0  0  0  0
 27 29  1  6  0  0  0
 29 30  1  0  0  0  0
 31 32  1  6  0  0  0
 31 40  1  0  0  0  0
 33 31  1  0  0  0  0
 33 42  1  6  0  0  0
 35 33  1  0  0  0  0
 35 36  1  6  0  0  0
 37 35  1  0  0  0  0
 37 38  1  6  0  0  0
 37 39  1  0  0  0  0
 39 40  1  0  0  0  0
 39 41  1  6  0  0  0
 41 34  1  0  0  0  0
M  END
>  <CHROM.1>
-110.32675776,72.90210978,130.14531921,-48.51406295,-153.54173588,177.21939810
56.59491972,-175.32417386,66.73162791,13.32564038,6.49524754,8.42069924,-0.71881312
-0.19098841,2.01931191

>  <Name>
2et4_lig

>  <RI>
0

>  <Rbt.Current_Directory>
/home/itssahil/PROJECTS/Mol_Feturizer/New_Systems/rnas/2et4

>  <Rbt.Executable>
rbdock ($Id: //depot/dev/client3/rdock/2013.1/src/exe/rbdock.cxx#4 $)

>  <Rbt.Library>
libRbt.so (2013.1, Build901 2013/11/27)

>  <Rbt.Parameter_File>
/export/apps/rDock/src/rDock_2013.1_src/data/scripts/dock_solv.prm

>  <Rbt.Receptor>
prm/pocket_docking_2.prm

>  <SCORE>
4.95729

>  <SCORE.INTER>
-0.168022

>  <SCORE.INTER.CONST>
1

>  <SCORE.INTER.POLAR>
-0.648686

>  <SCORE.INTER.ROT>
9

>  <SCORE.INTER.SOLV>
19.3064

>  <SCORE.INTER.VDW>
-13.9852

>  <SCORE.INTER.norm>
-0.00400053

>  <SCORE.INTRA>
1.30086

>  <SCORE.INTRA.DIHEDRAL>
-3.58447

>  <SCORE.INTRA.DIHEDRAL.0>
21.6909

>  <SCORE.INTRA.POLAR>
0

>  <SCORE.INTRA.POLAR.0>
0

>  <SCORE.INTRA.REPUL>
0

>  <SCORE.INTRA.REPUL.0>
0

>  <SCORE.INTRA.SOLV>
-0.577887

>  <SCORE.INTRA.SOLV.lig_0>
-116.606

>  <SCORE.INTRA.VDW>
3.38204

>  <SCORE.INTRA.VDW.0>
-6.01229

>  <SCORE.INTRA.norm>
0.0309729

>  <SCORE.RESTR>
3.82445

>  <SCORE.RESTR.CAVITY>
3.82445

>  <SCORE.RESTR.norm>
0.0910582

>  <SCORE.SYSTEM>
0

>  <SCORE.SYSTEM.CONST>
0

>  <SCORE.SYSTEM.DIHEDRAL>
0

>  <SCORE.SYSTEM.SOLV>
0

>  <SCORE.SYSTEM.norm>
0

>  <SCORE.heavy>
42

>  <SCORE.norm>
0.118031

>  <RMSD>
4.861

$$$$
2et4_lig
 OpenBabel11021811423D
libRbt.so/2013.1/901 2013/11/27
 42 45  0  0  0  0  0  0  0  0999 V2000
   13.5714    9.4329    5.2559 C   0  0  2  0  0  0  0  0  0  0  0  0
   12.8062    8.6157    4.3677 O   0  0  0  0  0  0  0  0  0  0  0  0
   14.3975   10.4098    4.3808 C   0  0  2  0  0  0  0  0  0  0  0  0
   13.5461   11.1984    3.5270 N   0  0  0  0  0  0  0  0  0  0  0  0
   15.4325    9.6014    3.5463 C   0  0  1  0  0  0  0  0  0  0  0  0
   16.1846   10.4834    2.7727 O   0  0  0  0  0  0  0  0  0  0  0  0
   16.3202    8.7749    4.5356 C   0  0  2  0  0  0  0  0  0  0  0  0
   17.2721    8.0179    3.8185 O   0  0  0  0  0  0  0  0  0  0  0  0
   15.4446    7.8169    5.3992 C   0  0  2  0  0  0  0  0  0  0  0  0
   14.4752    8.6014    6.1003 O   0  0  0  0  0  0  0  0  0  0  0  0
   16.2948    7.0039    6.4295 C   0  0  0  0  0  0  0  0  0  0  0  0
   15.5174    6.0350    7.1210 N   0  0  0  0  0  0  0  0  0  0  0  0
    9.3825    6.0207    4.8135 C   0  0  2  0  0  0  0  0  0  0  0  0
    8.5408    4.9106    5.2770 N   0  0  0  0  0  0  0  0  0  0  0  0
   10.7040    5.4300    4.0807 C   0  0  0  0  0  0  0  0  0  0  0  0
   11.6148    6.6312    3.5959 C   0  0  2  0  0  0  0  0  0  0  0  0
   12.8423    6.1392    2.9456 N   0  0  0  0  0  0  0  0  0  0  0  0
   11.9949    7.5248    4.8246 C   0  0  2  0  0  0  0  0  0  0  0  0
   10.7113    8.0636    5.5385 C   0  0  2  0  0  0  0  0  0  0  0  0
   11.1683    8.8591    6.6599 O   0  0  0  0  0  0  0  0  0  0  0  0
    9.8279    6.8670    6.0173 C   0  0  1  0  0  0  0  0  0  0  0  0
    8.6924    7.3742    6.6329 O   0  0  0  0  0  0  0  0  0  0  0  0
   11.8123    8.3805    7.7519 C   0  0  1  0  0  0  0  0  0  0  0  0
   11.8992    9.4590    8.8631 C   0  0  2  0  0  0  0  0  0  0  0  0
   12.9806   10.3301    8.6993 O   0  0  0  0  0  0  0  0  0  0  0  0
   11.8659    8.5585   10.0841 C   0  0  1  0  0  0  0  0  0  0  0  0
   10.9000    7.4100    9.7603 C   0  0  2  0  0  0  0  0  0  0  0  0
   11.1847    7.2266    8.3736 O   0  0  0  0  0  0  0  0  0  0  0  0
    9.3830    7.7131   10.0088 C   0  0  0  0  0  0  0  0  0  0  0  0
    9.0066    8.8012    9.1237 O   0  0  0  0  0  0  0  0  0  0  0  0
   13.5136    7.3922   11.5146 C   0  0  2  0  0  0  0  0  0  0  0  0
   13.2494    8.0674   10.3152 O   0  0  0  0  0  0  0  0  0  0  0  0
   15.0401    6.9556   11.6090 C   0  0  1  0  0  0  0  0  0  0  0  0
   11.7735    3.3134   11.6118 N   0  0  0  0  0  0  0  0  0  0  0  0
   15.2235    6.1719   13.0122 C   0  0  1  0  0  0  0  0  0  0  0  0
   14.8186    7.1098   14.1320 O   0  0  0  0  0  0  0  0  0  0  0  0
   14.2955    4.8434   13.0273 C   0  0  2  0  0  0  0  0  0  0  0  0
   14.7073    3.9606   11.9562 O   0  0  0  0  0  0  0  0  0  0  0  0
   12.7443    5.3281   12.8912 C   0  0  1  0  0  0  0  0  0  0  0  0
   12.5853    6.1487   11.6408 O   0  0  0  0  0  0  0  0  0  0  0  0
   11.7419    4.1214   12.8694 C   0  0  0  0  0  0  0  0  0  0  0  0
   15.4114    6.1241   10.4168 N   0  0  0  0  0  0  0  0  0  0  0  0
  1  2  1  6  0  0  0
  1  3  1  0  0  0  0
  1 10  1  0  0  0  0
  3  4  1  6  0  0  0
  3  5  1  0  0  0  0
  5  6  1  1  0  0  0
  5  7  1  0  0  0  0
  7  8  1  6  0  0  0
  7  9  1  0  0  0  0
  9 10  1  0  0  0  0
  9 11  1  1  0  0  0
 11 12  1  0  0  0  0
 13 14  1  1  0  0  0
 13 15  1  0  0  0  0
 13 21  1  0  0  0  0
 16 15  1  0  0  0  0
 16 17  1  1  0  0  0
 18  2  1  6  0  0  0
 18 16  1  0  0  0  0
 19 18  1  0  0  0  0
 19 20  1  1  0  0  0
 21 19  1  0  0  0  0
 21 22  1  6  0  0  0
 23 20  1  6  0  0  0
 23 24  1  0  0  0  0
 23 28  1  0  0  0  0
 24 25  1  6  0  0  0
 24 26  1  0  0  0  0
 26 27  1  0  0  0  0
 26 32  1  6  0  0  0
 27 28  1  0  0  0  0
 27 29  1  6  0  0  0
 29 30  1  0  0  0  0
 31 32  1  6  0  0  0
 31 40  1  0  0  0  0
 33 31  1  0  0  0  0
 33 42  1  6  0  0  0
 35 33  1  0  0  0  0
 35 36  1  1  0  0  0
 37 35  1  0  0  0  0
 37 38  1  6  0  0  0
 37 39  1  0  0  0  0
 39 40  1  0  0  0  0
 39 41  1  6  0  0  0
 41 34  1  0  0  0  0
M  END
>  <CHROM.1>
175.20253028,-174.03813097,-165.11597780,-66.77409701,-168.80898762,169.80510687
62.47900820,-179.17861326,-71.45129342,12.88152581,7.42626575,7.75965309
-1.52306169,0.20127140,1.88290733

>  <Name>
2et4_lig

>  <RI>
0

>  <Rbt.Current_Directory>
/home/itssahil/PROJECTS/Mol_Feturizer/New_Systems/rnas/2et4

>  <Rbt.Executable>
rbdock ($Id: //depot/dev/client3/rdock/2013.1/src/exe/rbdock.cxx#4 $)

>  <Rbt.Library>
libRbt.so (2013.1, Build901 2013/11/27)

>  <Rbt.Parameter_File>
/export/apps/rDock/src/rDock_2013.1_src/data/scripts/dock_solv.prm

>  <Rbt.Receptor>
prm/pocket_docking_6.prm

>  <SCORE>
-20.0097

>  <SCORE.INTER>
-11.4241

>  <SCORE.INTER.CONST>
1

>  <SCORE.INTER.POLAR>
-0.269014

>  <SCORE.INTER.ROT>
9

>  <SCORE.INTER.SOLV>
17.4513

>  <SCORE.INTER.VDW>
-22.1365

>  <SCORE.INTER.norm>
-0.272003

>  <SCORE.INTRA>
-8.5886

>  <SCORE.INTRA.DIHEDRAL>
-18.4296

>  <SCORE.INTRA.DIHEDRAL.0>
21.6909

>  <SCORE.INTRA.POLAR>
0

>  <SCORE.INTRA.POLAR.0>
0

>  <SCORE.INTRA.REPUL>
0

>  <SCORE.INTRA.REPUL.0>
0

>  <SCORE.INTRA.SOLV>
0.209456

>  <SCORE.INTRA.SOLV.lig_0>
-116.606

>  <SCORE.INTRA.VDW>
0.521471

>  <SCORE.INTRA.VDW.0>
-6.01229

>  <SCORE.INTRA.norm>
-0.20449

>  <SCORE.RESTR>
0.0030264

>  <SCORE.RESTR.CAVITY>
0.0030264

>  <SCORE.RESTR.norm>
7.2057e-05

>  <SCORE.SYSTEM>
0

>  <SCORE.SYSTEM.CONST>
0

>  <SCORE.SYSTEM.DIHEDRAL>
0

>  <SCORE.SYSTEM.SOLV>
0

>  <SCORE.SYSTEM.norm>
0

>  <SCORE.heavy>
42

>  <SCORE.norm>
-0.476421

>  <RMSD>
4.869

$$$$
2et4_lig
 OpenBabel11021811423D
libRbt.so/2013.1/901 2013/11/27
 42 45  0  0  0  0  0  0  0  0999 V2000
   14.1617    5.3051    5.0430 C   0  0  2  0  0  0  0  0  0  0  0  0
   13.1701    6.1204    5.6707 O   0  0  0  0  0  0  0  0  0  0  0  0
   14.5886    4.2294    6.0742 C   0  0  2  0  0  0  0  0  0  0  0  0
   13.4604    3.4525    6.5204 N   0  0  0  0  0  0  0  0  0  0  0  0
   15.3008    4.9211    7.2723 C   0  0  1  0  0  0  0  0  0  0  0  0
   15.6979    3.9505    8.1900 O   0  0  0  0  0  0  0  0  0  0  0  0
   16.5119    5.7410    6.7146 C   0  0  2  0  0  0  0  0  0  0  0  0
   17.1851    6.3933    7.7704 O   0  0  0  0  0  0  0  0  0  0  0  0
   16.0339    6.8003    5.6758 C   0  0  2  0  0  0  0  0  0  0  0  0
   15.3376    6.1208    4.6268 O   0  0  0  0  0  0  0  0  0  0  0  0
   17.2236    7.6114    5.0657 C   0  0  0  0  0  0  0  0  0  0  0  0
   18.0963    6.7904    4.3005 N   0  0  0  0  0  0  0  0  0  0  0  0
   13.1796    9.7648    3.3527 C   0  0  2  0  0  0  0  0  0  0  0  0
   12.7253   11.0342    2.7713 N   0  0  0  0  0  0  0  0  0  0  0  0
   12.1737    8.5728    2.9060 C   0  0  0  0  0  0  0  0  0  0  0  0
   12.6602    7.2093    3.5475 C   0  0  2  0  0  0  0  0  0  0  0  0
   11.7584    6.1006    3.1881 N   0  0  0  0  0  0  0  0  0  0  0  0
   12.7136    7.3571    5.1057 C   0  0  2  0  0  0  0  0  0  0  0  0
   13.6642    8.5283    5.5209 C   0  0  2  0  0  0  0  0  0  0  0  0
   13.6318    8.5902    6.9681 O   0  0  0  0  0  0  0  0  0  0  0  0
   13.1664    9.8667    4.8867 C   0  0  1  0  0  0  0  0  0  0  0  0
   14.0347   10.8827    5.2599 O   0  0  0  0  0  0  0  0  0  0  0  0
   12.5208    8.4714    7.7347 C   0  0  1  0  0  0  0  0  0  0  0  0
   12.6888    7.3433    8.7858 C   0  0  2  0  0  0  0  0  0  0  0  0
   12.3865    6.0744    8.2822 O   0  0  0  0  0  0  0  0  0  0  0  0
   11.8266    7.9117    9.8977 C   0  0  1  0  0  0  0  0  0  0  0  0
   12.0443    9.4313    9.8933 C   0  0  2  0  0  0  0  0  0  0  0  0
   12.1704    9.6622    8.4903 O   0  0  0  0  0  0  0  0  0  0  0  0
   13.3004    9.9358   10.6823 C   0  0  0  0  0  0  0  0  0  0  0  0
   14.3947    9.0292   10.3828 O   0  0  0  0  0  0  0  0  0  0  0  0
   10.0326    6.2151    9.7398 C   0  0  2  0  0  0  0  0  0  0  0  0
   10.4157    7.5555    9.5958 O   0  0  0  0  0  0  0  0  0  0  0  0
    8.4565    6.0462    9.6095 C   0  0  1  0  0  0  0  0  0  0  0  0
   10.1833    4.5974   13.9522 N   0  0  0  0  0  0  0  0  0  0  0  0
    8.1293    4.4751    9.8129 C   0  0  1  0  0  0  0  0  0  0  0  0
    8.8852    3.6957    8.7553 O   0  0  0  0  0  0  0  0  0  0  0  0
    8.5871    4.0036   11.2943 C   0  0  2  0  0  0  0  0  0  0  0  0
    7.8455    4.7547   12.2853 O   0  0  0  0  0  0  0  0  0  0  0  0
   10.1991    4.2265   11.4026 C   0  0  1  0  0  0  0  0  0  0  0  0
   10.5252    5.6653   11.1106 O   0  0  0  0  0  0  0  0  0  0  0  0
   10.7634    3.8257   12.8105 C   0  0  0  0  0  0  0  0  0  0  0  0
    7.7612    6.9267   10.6056 N   0  0  0  0  0  0  0  0  0  0  0  0
  1  2  1  1  0  0  0
  1  3  1  0  0  0  0
  1 10  1  0  0  0  0
  3  4  1  1  0  0  0
  3  5  1  0  0  0  0
  5  6  1  1  0  0  0
  5  7  1  0  0  0  0
  7  8  1  1  0  0  0
  7  9  1  0  0  0  0
  9 10  1  0  0  0  0
  9 11  1  6  0  0  0
 11 12  1  0  0  0  0
 13 14  1  6  0  0  0
 13 15  1  0  0  0  0
 13 21  1  0  0  0  0
 16 15  1  0  0  0  0
 16 17  1  1  0  0  0
 18  2  1  1  0  0  0
 18 16  1  0  0  0  0
 19 18  1  0  0  0  0
 19 20  1  1  0  0  0
 21 19  1  0  0  0  0
 21 22  1  6  0  0  0
 23 20  1  1  0  0  0
 23 24  1  0  0  0  0
 23 28  1  0  0  0  0
 24 25  1  6  0  0  0
 24 26  1  0  0  0  0
 26 27  1  0  0  0  0
 26 32  1  6  0  0  0
 27 28  1  0  0  0  0
 27 29  1  1  0  0  0
 29 30  1  0  0  0  0
 31 32  1  1  0  0  0
 31 40  1  0  0  0  0
 33 31  1  0  0  0  0
 33 42  1  1  0  0  0
 35 33  1  0  0  0  0
 35 36  1  6  0  0  0
 37 35  1  0  0  0  0
 37 38  1  1  0  0  0
 37 39  1  0  0  0  0
 39 40  1  0  0  0  0
 39 41  1  1  0  0  0
 41 34  1  0  0  0  0
M  END
>  <CHROM.1>
168.76194618,64.77590122,36.50264894,-42.29267367,124.93619684,71.43852129
42.03703576,170.79728516,-60.10303154,12.62048985,6.79301175,7.68920622,-0.77487842
-0.56788570,2.44598747

>  <Name>
2et4_lig

>  <RI>
3.65815e+07

>  <Rbt.Current_Directory>
/home/itssahil/PROJECTS/Mol_Feturizer/New_Systems/rnas/2et4

>  <Rbt.Executable>
rbdock ($Id: //depot/dev/client3/rdock/2013.1/src/exe/rbdock.cxx#4 $)

>  <Rbt.Library>
libRbt.so (2013.1, Build901 2013/11/27)

>  <Rbt.Parameter_File>
/export/apps/rDock/src/rDock_2013.1_src/data/scripts/dock_solv.prm

>  <Rbt.Receptor>
prm/pocket_docking_4.prm

>  <SCORE>
-9.18623

>  <SCORE.INTER>
-7.79542

>  <SCORE.INTER.CONST>
1

>  <SCORE.INTER.POLAR>
-1.58378

>  <SCORE.INTER.ROT>
9

>  <SCORE.INTER.SOLV>
15.7744

>  <SCORE.INTER.VDW>
-14.7758

>  <SCORE.INTER.norm>
-0.185605

>  <SCORE.INTRA>
-1.3908

>  <SCORE.INTRA.DIHEDRAL>
-7.81137

>  <SCORE.INTRA.DIHEDRAL.0>
21.6909

>  <SCORE.INTRA.POLAR>
0

>  <SCORE.INTRA.POLAR.0>
0

>  <SCORE.INTRA.REPUL>
0

>  <SCORE.INTRA.REPUL.0>
0

>  <SCORE.INTRA.SOLV>
0.863822

>  <SCORE.INTRA.SOLV.lig_0>
-116.606

>  <SCORE.INTRA.VDW>
2.08297

>  <SCORE.INTRA.VDW.0>
-6.01229

>  <SCORE.INTRA.norm>
-0.0331144

>  <SCORE.RESTR>
0

>  <SCORE.RESTR.CAVITY>
0

>  <SCORE.RESTR.norm>
0

>  <SCORE.SYSTEM>
0

>  <SCORE.SYSTEM.CONST>
0

>  <SCORE.SYSTEM.DIHEDRAL>
0

>  <SCORE.SYSTEM.SOLV>
0

>  <SCORE.SYSTEM.norm>
0

>  <SCORE.heavy>
42

>  <SCORE.norm>
-0.21872

>  <RMSD>
4.918

$$$$
2et4_lig
 OpenBabel11021811423D
libRbt.so/2013.1/901 2013/11/27
 42 45  0  0  0  0  0  0  0  0999 V2000
   16.8187    7.8599    3.9632 C   0  0  2  0  0  0  0  0  0  0  0  0
   17.9106    8.1419    4.8409 O   0  0  0  0  0  0  0  0  0  0  0  0
   16.7526    9.0141    2.9307 C   0  0  2  0  0  0  0  0  0  0  0  0
   17.9949    9.1494    2.2137 N   0  0  0  0  0  0  0  0  0  0  0  0
   16.3817   10.3365    3.6621 C   0  0  1  0  0  0  0  0  0  0  0  0
   16.3070   11.3691    2.7293 O   0  0  0  0  0  0  0  0  0  0  0  0
   15.0263   10.1165    4.4133 C   0  0  2  0  0  0  0  0  0  0  0  0
   14.6539   11.2932    5.0992 O   0  0  0  0  0  0  0  0  0  0  0  0
   15.1399    8.9410    5.4308 C   0  0  2  0  0  0  0  0  0  0  0  0
   15.5376    7.7655    4.7189 O   0  0  0  0  0  0  0  0  0  0  0  0
   13.7904    8.6652    6.1712 C   0  0  0  0  0  0  0  0  0  0  0  0
   12.7105    8.4766    5.2661 N   0  0  0  0  0  0  0  0  0  0  0  0
   20.1086    4.4307    5.0660 C   0  0  2  0  0  0  0  0  0  0  0  0
   20.9891    3.3750    5.5817 N   0  0  0  0  0  0  0  0  0  0  0  0
   20.9465    5.8122    4.9194 C   0  0  0  0  0  0  0  0  0  0  0  0
   19.9887    6.9504    4.3768 C   0  0  2  0  0  0  0  0  0  0  0  0
   20.7038    8.2329    4.2521 N   0  0  0  0  0  0  0  0  0  0  0  0
   18.7761    7.1194    5.3533 C   0  0  2  0  0  0  0  0  0  0  0  0
   17.9947    5.7728    5.5078 C   0  0  2  0  0  0  0  0  0  0  0  0
   16.9113    6.0305    6.4346 O   0  0  0  0  0  0  0  0  0  0  0  0
   18.9511    4.6630    6.0510 C   0  0  1  0  0  0  0  0  0  0  0  0
   18.2357    3.4794    6.1642 O   0  0  0  0  0  0  0  0  0  0  0  0
   17.0551    6.3124    7.7522 C   0  0  1  0  0  0  0  0  0  0  0  0
   15.7943    5.8916    8.5515 C   0  0  2  0  0  0  0  0  0  0  0  0
   14.7839    6.8578    8.5314 O   0  0  0  0  0  0  0  0  0  0  0  0
   16.4468    5.5453    9.8771 C   0  0  1  0  0  0  0  0  0  0  0  0
   17.7930    4.8849    9.5482 C   0  0  2  0  0  0  0  0  0  0  0  0
   18.1713    5.6452    8.4008 O   0  0  0  0  0  0  0  0  0  0  0  0
   17.7344    3.3504    9.2373 C   0  0  0  0  0  0  0  0  0  0  0  0
   17.0913    2.7025   10.3668 O   0  0  0  0  0  0  0  0  0  0  0  0
   15.9664    6.9393   11.8639 C   0  0  2  0  0  0  0  0  0  0  0  0
   16.6238    6.8127   10.6328 O   0  0  0  0  0  0  0  0  0  0  0  0
   15.1037    5.6448   12.1953 C   0  0  1  0  0  0  0  0  0  0  0  0
   12.5373   10.0835   14.1090 N   0  0  0  0  0  0  0  0  0  0  0  0
   14.3775    5.9096   13.6164 C   0  0  1  0  0  0  0  0  0  0  0  0
   15.4520    6.1710   14.6530 O   0  0  0  0  0  0  0  0  0  0  0  0
   13.3856    7.1858   13.4996 C   0  0  2  0  0  0  0  0  0  0  0  0
   12.3642    6.9084   12.5117 O   0  0  0  0  0  0  0  0  0  0  0  0
   14.2992    8.4831   13.1228 C   0  0  1  0  0  0  0  0  0  0  0  0
   15.0616    8.2063   11.8562 O   0  0  0  0  0  0  0  0  0  0  0  0
   13.4435    9.7876   12.9571 C   0  0  0  0  0  0  0  0  0  0  0  0
   14.1366    5.3727   11.0811 N   0  0  0  0  0  0  0  0  0  0  0  0
  1  2  1  1  0  0  0
  1  3  1  0  0  0  0
  1 10  1  0  0  0  0
  3  4  1  1  0  0  0
  3  5  1  0  0  0  0
  5  6  1  6  0  0  0
  5  7  1  0  0  0  0
  7  8  1  1  0  0  0
  7  9  1  0  0  0  0
  9 10  1  0  0  0  0
  9 11  1  6  0  0  0
 11 12  1  0  0  0  0
 13 14  1  1  0  0  0
 13 15  1  0  0  0  0
 13 21  1  0  0  0  0
 16 15  1  0  0  0  0
 16 17  1  1  0  0  0
 18  2  1  6  0  0  0
 18 16  1  0  0  0  0
 19 18  1  0  0  0  0
 19 20  1  1  0  0  0
 21 19  1  0  0  0  0
 21 22  1  6  0  0  0
 23 20  1  6  0  0  0
 23 24  1  0  0  0  0
 23 28  1  0  0  0  0
 24 25  1  1  0  0  0
 24 26  1  0  0  0  0
 26 27  1  0  0  0  0
 26 32  1  1  0  0  0
 27 28  1  0  0  0  0
 27 29  1  6  0  0  0
 29 30  1  0  0  0  0
 31 32  1  6  0  0  0
 31 40  1  0  0  0  0
 33 31  1  0  0  0  0
 33 42  1  6  0  0  0
 35 33  1  0  0  0  0
 35 36  1  1  0  0  0
 37 35  1  0  0  0  0
 37 38  1  6  0  0  0
 37 39  1  0  0  0  0
 39 40  1  0  0  0  0
 39 41  1  6  0  0  0
 41 34  1  0  0  0  0
M  END
>  <CHROM.1>
-142.18219102,53.13882802,90.99523583,-67.39228288,-153.61879718,118.67034174
-55.15178882,-1.14914086,52.07801342,16.41287982,7.04268731,7.86590566,0.99156413
0.78946617,-1.04610016

>  <Name>
2et4_lig

>  <RI>
0

>  <Rbt.Current_Directory>
/home/itssahil/PROJECTS/Mol_Feturizer/New_Systems/rnas/2et4

>  <Rbt.Executable>
rbdock ($Id: //depot/dev/client3/rdock/2013.1/src/exe/rbdock.cxx#4 $)

>  <Rbt.Library>
libRbt.so (2013.1, Build901 2013/11/27)

>  <Rbt.Parameter_File>
/export/apps/rDock/src/rDock_2013.1_src/data/scripts/dock_solv.prm

>  <Rbt.Receptor>
prm/blind_docking_80.prm

>  <SCORE>
33.6065

>  <SCORE.INTER>
4.18468

>  <SCORE.INTER.CONST>
1

>  <SCORE.INTER.POLAR>
-0.914773

>  <SCORE.INTER.ROT>
9

>  <SCORE.INTER.SOLV>
29.5129

>  <SCORE.INTER.VDW>
-13.5986

>  <SCORE.INTER.norm>
0.0996353

>  <SCORE.INTRA>
9.00977

>  <SCORE.INTRA.DIHEDRAL>
5.22292

>  <SCORE.INTRA.DIHEDRAL.0>
21.6909

>  <SCORE.INTRA.POLAR>
0

>  <SCORE.INTRA.POLAR.0>
0

>  <SCORE.INTRA.REPUL>
0

>  <SCORE.INTRA.REPUL.0>
0

>  <SCORE.INTRA.SOLV>
2.91391

>  <SCORE.INTRA.SOLV.lig_0>
-116.606

>  <SCORE.INTRA.VDW>
4.94135

>  <SCORE.INTRA.VDW.0>
-6.01229

>  <SCORE.INTRA.norm>
0.214518

>  <SCORE.RESTR>
20.4121

>  <SCORE.RESTR.CAVITY>
20.4121

>  <SCORE.RESTR.norm>
0.486002

>  <SCORE.SYSTEM>
0

>  <SCORE.SYSTEM.CONST>
0

>  <SCORE.SYSTEM.DIHEDRAL>
0

>  <SCORE.SYSTEM.SOLV>
0

>  <SCORE.SYSTEM.norm>
0

>  <SCORE.heavy>
42

>  <SCORE.norm>
0.800155

>  <RMSD>
4.933

$$$$
2et4_lig
 OpenBabel11021811423D
libRbt.so/2013.1/901 2013/11/27
 42 45  0  0  0  0  0  0  0  0999 V2000
   14.5364    6.6493    6.7725 C   0  0  2  0  0  0  0  0  0  0  0  0
   14.4482    7.9965    6.3038 O   0  0  0  0  0  0  0  0  0  0  0  0
   15.3825    6.6717    8.0710 C   0  0  2  0  0  0  0  0  0  0  0  0
   14.8044    7.5459    9.0596 N   0  0  0  0  0  0  0  0  0  0  0  0
   16.8384    7.1003    7.7278 C   0  0  1  0  0  0  0  0  0  0  0  0
   17.6008    7.1040    8.8942 O   0  0  0  0  0  0  0  0  0  0  0  0
   17.4003    6.1088    6.6549 C   0  0  2  0  0  0  0  0  0  0  0  0
   18.7214    6.4658    6.3074 O   0  0  0  0  0  0  0  0  0  0  0  0
   16.5113    6.1142    5.3744 C   0  0  2  0  0  0  0  0  0  0  0  0
   15.1749    5.7704    5.7520 O   0  0  0  0  0  0  0  0  0  0  0  0
   17.0198    5.1030    4.2953 C   0  0  0  0  0  0  0  0  0  0  0  0
   16.9967    3.7611    4.7642 N   0  0  0  0  0  0  0  0  0  0  0  0
   12.7246   10.1855    3.0035 C   0  0  2  0  0  0  0  0  0  0  0  0
   12.3220   10.5315    1.6346 N   0  0  0  0  0  0  0  0  0  0  0  0
   14.3398   10.0506    3.0760 C   0  0  0  0  0  0  0  0  0  0  0  0
   14.7672    9.6632    4.5507 C   0  0  2  0  0  0  0  0  0  0  0  0
   16.2284    9.5047    4.6568 N   0  0  0  0  0  0  0  0  0  0  0  0
   14.0638    8.3258    4.9619 C   0  0  2  0  0  0  0  0  0  0  0  0
   12.5085    8.4611    4.8595 C   0  0  2  0  0  0  0  0  0  0  0  0
   11.9583    7.1769    5.2431 O   0  0  0  0  0  0  0  0  0  0  0  0
   12.1031    8.8357    3.3977 C   0  0  1  0  0  0  0  0  0  0  0  0
   10.7224    8.9624    3.3406 O   0  0  0  0  0  0  0  0  0  0  0  0
   11.6997    6.7808    6.5130 C   0  0  1  0  0  0  0  0  0  0  0  0
   10.7165    7.7568    7.2103 C   0  0  2  0  0  0  0  0  0  0  0  0
   11.3515    8.8714    7.7665 O   0  0  0  0  0  0  0  0  0  0  0  0
   10.0136    6.7803    8.1350 C   0  0  1  0  0  0  0  0  0  0  0  0
    9.8674    5.4637    7.3592 C   0  0  2  0  0  0  0  0  0  0  0  0
   11.0950    5.4647    6.6306 O   0  0  0  0  0  0  0  0  0  0  0  0
    8.6253    5.3744    6.4084 C   0  0  0  0  0  0  0  0  0  0  0  0
    7.4362    5.4405    7.2396 O   0  0  0  0  0  0  0  0  0  0  0  0
   10.2831    6.0411   10.4807 C   0  0  2  0  0  0  0  0  0  0  0  0
   10.8639    6.6175    9.3430 O   0  0  0  0  0  0  0  0  0  0  0  0
   11.3275    5.9406   11.6761 C   0  0  1  0  0  0  0  0  0  0  0  0
    7.7638    1.7174   11.7666 N   0  0  0  0  0  0  0  0  0  0  0  0
   10.5604    5.2457   12.9192 C   0  0  1  0  0  0  0  0  0  0  0  0
    9.3593    6.1014   13.2694 O   0  0  0  0  0  0  0  0  0  0  0  0
   10.0865    3.7512   12.5091 C   0  0  2  0  0  0  0  0  0  0  0  0
   11.2504    2.9519   12.1887 O   0  0  0  0  0  0  0  0  0  0  0  0
    9.0483    3.8925   11.2592 C   0  0  1  0  0  0  0  0  0  0  0  0
    9.7186    4.6321   10.1343 O   0  0  0  0  0  0  0  0  0  0  0  0
    8.5331    2.5004   10.7514 C   0  0  0  0  0  0  0  0  0  0  0  0
   12.5428    5.1800   11.2341 N   0  0  0  0  0  0  0  0  0  0  0  0
  1  2  1  6  0  0  0
  1  3  1  0  0  0  0
  1 10  1  0  0  0  0
  3  4  1  1  0  0  0
  3  5  1  0  0  0  0
  5  6  1  1  0  0  0
  5  7  1  0  0  0  0
  7  8  1  6  0  0  0
  7  9  1  0  0  0  0
  9 10  1  0  0  0  0
  9 11  1  6  0  0  0
 11 12  1  0  0  0  0
 13 14  1  6  0  0  0
 13 15  1  0  0  0  0
 13 21  1  0  0  0  0
 16 15  1  0  0  0  0
 16 17  1  6  0  0  0
 18  2  1  1  0  0  0
 18 16  1  0  0  0  0
 19 18  1  0  0  0  0
 19 20  1  6  0  0  0
 21 19  1  0  0  0  0
 21 22  1  1  0  0  0
 23 20  1  6  0  0  0
 23 24  1  0  0  0  0
 23 28  1  0  0  0  0
 24 25  1  1  0  0  0
 24 26  1  0  0  0  0
 26 27  1  0  0  0  0
 26 32  1  1  0  0  0
 27 28  1  0  0  0  0
 27 29  1  6  0  0  0
 29 30  1  0  0  0  0
 31 32  1  6  0  0  0
 31 40  1  0  0  0  0
 33 31  1  0  0  0  0
 33 42  1  6  0  0  0
 35 33  1  0  0  0  0
 35 36  1  6  0  0  0
 37 35  1  0  0  0  0
 37 38  1  6  0  0  0
 37 39  1  0  0  0  0
 39 40  1  0  0  0  0
 39 41  1  6  0  0  0
 41 34  1  0  0  0  0
M  END
>  <CHROM.1>
162.62887743,61.56802257,-149.94376091,85.50768888,57.76190631,164.09262796
-63.86418921,179.94872024,61.97742287,12.58722915,6.52379997,7.47933238,-0.93033205
-0.04618061,2.11995576

>  <Name>
2et4_lig

>  <RI>
0

>  <Rbt.Current_Directory>
/home/itssahil/PROJECTS/Mol_Feturizer/New_Systems/rnas/2et4

>  <Rbt.Executable>
rbdock ($Id: //depot/dev/client3/rdock/2013.1/src/exe/rbdock.cxx#4 $)

>  <Rbt.Library>
libRbt.so (2013.1, Build901 2013/11/27)

>  <Rbt.Parameter_File>
/export/apps/rDock/src/rDock_2013.1_src/data/scripts/dock_solv.prm

>  <Rbt.Receptor>
prm/pocket_docking_3.prm

>  <SCORE>
-7.72923

>  <SCORE.INTER>
-2.59204

>  <SCORE.INTER.CONST>
1

>  <SCORE.INTER.POLAR>
-0.5407

>  <SCORE.INTER.ROT>
9

>  <SCORE.INTER.SOLV>
17.1942

>  <SCORE.INTER.VDW>
-15.2571

>  <SCORE.INTER.norm>
-0.0617153

>  <SCORE.INTRA>
-5.2815

>  <SCORE.INTRA.DIHEDRAL>
-12.4894

>  <SCORE.INTRA.DIHEDRAL.0>
21.6909

>  <SCORE.INTRA.POLAR>
0

>  <SCORE.INTRA.POLAR.0>
0

>  <SCORE.INTRA.REPUL>
0

>  <SCORE.INTRA.REPUL.0>
0

>  <SCORE.INTRA.SOLV>
-0.440373

>  <SCORE.INTRA.SOLV.lig_0>
-116.606

>  <SCORE.INTRA.VDW>
1.18341

>  <SCORE.INTRA.VDW.0>
-6.01229

>  <SCORE.INTRA.norm>
-0.12575

>  <SCORE.RESTR>
0.144317

>  <SCORE.RESTR.CAVITY>
0.144317

>  <SCORE.RESTR.norm>
0.00343611

>  <SCORE.SYSTEM>
0

>  <SCORE.SYSTEM.CONST>
0

>  <SCORE.SYSTEM.DIHEDRAL>
0

>  <SCORE.SYSTEM.SOLV>
0

>  <SCORE.SYSTEM.norm>
0

>  <SCORE.heavy>
42

>  <SCORE.norm>
-0.184029

>  <RMSD>
4.943

$$$$
2et4_lig
 OpenBabel11021811423D
libRbt.so/2013.1/901 2013/11/27
 42 45  0  0  0  0  0  0  0  0999 V2000
   14.1175    4.4771    5.6526 C   0  0  2  0  0  0  0  0  0  0  0  0
   14.8013    3.3146    6.1253 O   0  0  0  0  0  0  0  0  0  0  0  0
   13.8361    4.2598    4.1438 C   0  0  2  0  0  0  0  0  0  0  0  0
   13.0707    3.0600    3.9197 N   0  0  0  0  0  0  0  0  0  0  0  0
   15.1860    4.2149    3.3712 C   0  0  1  0  0  0  0  0  0  0  0  0
   14.9295    4.0358    2.0133 O   0  0  0  0  0  0  0  0  0  0  0  0
   15.9587    5.5455    3.6585 C   0  0  2  0  0  0  0  0  0  0  0  0
   17.1972    5.5447    2.9805 O   0  0  0  0  0  0  0  0  0  0  0  0
   16.2080    5.7238    5.1869 C   0  0  2  0  0  0  0  0  0  0  0  0
   14.9434    5.7011    5.8556 O   0  0  0  0  0  0  0  0  0  0  0  0
   16.9424    7.0647    5.5154 C   0  0  0  0  0  0  0  0  0  0  0  0
   16.2094    8.2001    5.0740 N   0  0  0  0  0  0  0  0  0  0  0  0
   15.0498    1.3696    9.9737 C   0  0  2  0  0  0  0  0  0  0  0  0
   15.3549    1.1467   11.3924 N   0  0  0  0  0  0  0  0  0  0  0  0
   16.4265    1.6388    9.1585 C   0  0  0  0  0  0  0  0  0  0  0  0
   16.0901    1.8929    7.6322 C   0  0  2  0  0  0  0  0  0  0  0  0
   17.3126    2.1680    6.8567 N   0  0  0  0  0  0  0  0  0  0  0  0
   15.1083    3.1069    7.5108 C   0  0  2  0  0  0  0  0  0  0  0  0
   13.7979    2.8459    8.3249 C   0  0  2  0  0  0  0  0  0  0  0  0
   12.9709    4.0241    8.1607 O   0  0  0  0  0  0  0  0  0  0  0  0
   14.1462    2.6051    9.8289 C   0  0  1  0  0  0  0  0  0  0  0  0
   12.9687    2.3630   10.5221 O   0  0  0  0  0  0  0  0  0  0  0  0
   11.6927    4.1529    8.5919 C   0  0  1  0  0  0  0  0  0  0  0  0
   11.3315    5.6435    8.8225 C   0  0  2  0  0  0  0  0  0  0  0  0
   11.7242    6.1156   10.0786 O   0  0  0  0  0  0  0  0  0  0  0  0
    9.8513    5.5927    8.4919 C   0  0  1  0  0  0  0  0  0  0  0  0
    9.6920    4.6056    7.3270 C   0  0  2  0  0  0  0  0  0  0  0  0
   10.6856    3.6424    7.6772 O   0  0  0  0  0  0  0  0  0  0  0  0
    9.9357    5.2016    5.8987 C   0  0  0  0  0  0  0  0  0  0  0  0
   11.3113    5.6646    5.8499 O   0  0  0  0  0  0  0  0  0  0  0  0
    9.0605    6.0069   10.7994 C   0  0  2  0  0  0  0  0  0  0  0  0
    9.1370    5.1288    9.7098 O   0  0  0  0  0  0  0  0  0  0  0  0
    8.3358    5.3269   12.0412 C   0  0  1  0  0  0  0  0  0  0  0  0
    7.4351   10.8090   11.7554 N   0  0  0  0  0  0  0  0  0  0  0  0
    8.2846    6.4302   13.2231 C   0  0  1  0  0  0  0  0  0  0  0  0
    9.7068    6.8480   13.5396 O   0  0  0  0  0  0  0  0  0  0  0  0
    7.4148    7.7112   12.7446 C   0  0  2  0  0  0  0  0  0  0  0  0
    6.0601    7.2887   12.4578 O   0  0  0  0  0  0  0  0  0  0  0  0
    8.1670    8.3576   11.4500 C   0  0  1  0  0  0  0  0  0  0  0  0
    8.3147    7.3084   10.3826 O   0  0  0  0  0  0  0  0  0  0  0  0
    7.4023    9.6010   10.8750 C   0  0  0  0  0  0  0  0  0  0  0  0
    6.9780    4.8333   11.6367 N   0  0  0  0  0  0  0  0  0  0  0  0
  1  2  1  6  0  0  0
  1  3  1  0  0  0  0
  1 10  1  0  0  0  0
  3  4  1  1  0  0  0
  3  5  1  0  0  0  0
  5  6  1  6  0  0  0
  5  7  1  0  0  0  0
  7  8  1  6  0  0  0
  7  9  1  0  0  0  0
  9 10  1  0  0  0  0
  9 11  1  6  0  0  0
 11 12  1  0  0  0  0
 13 14  1  1  0  0  0
 13 15  1  0  0  0  0
 13 21  1  0  0  0  0
 16 15  1  0  0  0  0
 16 17  1  6  0  0  0
 18  2  1  6  0  0  0
 18 16  1  0  0  0  0
 19 18  1  0  0  0  0
 19 20  1  1  0  0  0
 21 19  1  0  0  0  0
 21 22  1  1  0  0  0
 23 20  1  6  0  0  0
 23 24  1  0  0  0  0
 23 28  1  0  0  0  0
 24 25  1  1  0  0  0
 24 26  1  0  0  0  0
 26 27  1  0  0  0  0
 26 32  1  1  0  0  0
 27 28  1  0  0  0  0
 27 29  1  6  0  0  0
 29 30  1  0  0  0  0
 31 32  1  6  0  0  0
 31 40  1  0  0  0  0
 33 31  1  0  0  0  0
 33 42  1  6  0  0  0
 35 33  1  0  0  0  0
 35 36  1  6  0  0  0
 37 35  1  0  0  0  0
 37 38  1  6  0  0  0
 37 39  1  0  0  0  0
 39 40  1  0  0  0  0
 39 41  1  6  0  0  0
 41 34  1  0  0  0  0
M  END
>  <CHROM.1>
-173.80649336,59.21006948,-169.07575199,172.87204994,155.08202534,70.75662788
61.80934548,-176.89900078,69.53392684,12.24925605,5.02870842,8.23343659,0.34476787
0.67654031,-0.95873011

>  <Name>
2et4_lig

>  <RI>
0

>  <Rbt.Current_Directory>
/home/itssahil/PROJECTS/Mol_Feturizer/New_Systems/rnas/2et4

>  <Rbt.Executable>
rbdock ($Id: //depot/dev/client3/rdock/2013.1/src/exe/rbdock.cxx#4 $)

>  <Rbt.Library>
libRbt.so (2013.1, Build901 2013/11/27)

>  <Rbt.Parameter_File>
/export/apps/rDock/src/rDock_2013.1_src/data/scripts/dock_solv.prm

>  <Rbt.Receptor>
prm/pocket_docking_8.prm

>  <SCORE>
-7.15481

>  <SCORE.INTER>
0.746275

>  <SCORE.INTER.CONST>
1

>  <SCORE.INTER.POLAR>
0

>  <SCORE.INTER.ROT>
9

>  <SCORE.INTER.SOLV>
16.9068

>  <SCORE.INTER.VDW>
-14.7381

>  <SCORE.INTER.norm>
0.0177685

>  <SCORE.INTRA>
-7.90109

>  <SCORE.INTRA.DIHEDRAL>
-16.9307

>  <SCORE.INTRA.DIHEDRAL.0>
21.6909

>  <SCORE.INTRA.POLAR>
0

>  <SCORE.INTRA.POLAR.0>
0

>  <SCORE.INTRA.REPUL>
0

>  <SCORE.INTRA.REPUL.0>
0

>  <SCORE.INTRA.SOLV>
-1.84257

>  <SCORE.INTRA.SOLV.lig_0>
-116.606

>  <SCORE.INTRA.VDW>
1.48553

>  <SCORE.INTRA.VDW.0>
-6.01229

>  <SCORE.INTRA.norm>
-0.188121

>  <SCORE.RESTR>
0

>  <SCORE.RESTR.CAVITY>
0

>  <SCORE.RESTR.norm>
0

>  <SCORE.SYSTEM>
0

>  <SCORE.SYSTEM.CONST>
0

>  <SCORE.SYSTEM.DIHEDRAL>
0

>  <SCORE.SYSTEM.SOLV>
0

>  <SCORE.SYSTEM.norm>
0

>  <SCORE.heavy>
42

>  <SCORE.norm>
-0.170353

>  <RMSD>
4.977

$$$$
2et4_lig
 OpenBabel11021811423D
libRbt.so/2013.1/901 2013/11/27
 42 45  0  0  0  0  0  0  0  0999 V2000
   14.4499    7.6308    6.4480 C   0  0  2  0  0  0  0  0  0  0  0  0
   13.3232    7.6042    5.5694 O   0  0  0  0  0  0  0  0  0  0  0  0
   15.5597    8.4521    5.7434 C   0  0  2  0  0  0  0  0  0  0  0  0
   15.1039    9.7792    5.4167 N   0  0  0  0  0  0  0  0  0  0  0  0
   16.0299    7.6924    4.4694 C   0  0  1  0  0  0  0  0  0  0  0  0
   17.0387    8.4249    3.8469 O   0  0  0  0  0  0  0  0  0  0  0  0
   16.5112    6.2665    4.8997 C   0  0  2  0  0  0  0  0  0  0  0  0
   16.9416    5.5371    3.7700 O   0  0  0  0  0  0  0  0  0  0  0  0
   15.3657    5.4853    5.6118 C   0  0  2  0  0  0  0  0  0  0  0  0
   14.9314    6.2507    6.7398 O   0  0  0  0  0  0  0  0  0  0  0  0
   15.8236    4.0697    6.0933 C   0  0  0  0  0  0  0  0  0  0  0  0
   16.7750    4.1430    7.1471 N   0  0  0  0  0  0  0  0  0  0  0  0
    9.2054    8.3325    6.6502 C   0  0  2  0  0  0  0  0  0  0  0  0
    7.8370    8.0893    7.1233 N   0  0  0  0  0  0  0  0  0  0  0  0
    9.5070    7.3976    5.3589 C   0  0  0  0  0  0  0  0  0  0  0  0
   10.9886    7.6534    4.8620 C   0  0  2  0  0  0  0  0  0  0  0  0
   11.3151    6.8038    3.7030 N   0  0  0  0  0  0  0  0  0  0  0  0
   11.9882    7.3535    6.0296 C   0  0  2  0  0  0  0  0  0  0  0  0
   11.6677    8.2409    7.2777 C   0  0  2  0  0  0  0  0  0  0  0  0
   12.6312    7.8788    8.2974 O   0  0  0  0  0  0  0  0  0  0  0  0
   10.2062    7.9711    7.7600 C   0  0  1  0  0  0  0  0  0  0  0  0
    9.9461    8.7803    8.8568 O   0  0  0  0  0  0  0  0  0  0  0  0
   12.3851    7.0761    9.3610 C   0  0  1  0  0  0  0  0  0  0  0  0
   13.7032    6.4935    9.9343 C   0  0  2  0  0  0  0  0  0  0  0  0
   14.1340    5.3455    9.2623 O   0  0  0  0  0  0  0  0  0  0  0  0
   13.3077    6.3789   11.3949 C   0  0  1  0  0  0  0  0  0  0  0  0
   12.4325    7.5994   11.7130 C   0  0  2  0  0  0  0  0  0  0  0  0
   11.7263    7.7297   10.4793 O   0  0  0  0  0  0  0  0  0  0  0  0
   13.2088    8.9095   12.0815 C   0  0  0  0  0  0  0  0  0  0  0  0
   14.2760    9.0701   11.1097 O   0  0  0  0  0  0  0  0  0  0  0  0
   11.4931    5.0828   12.4666 C   0  0  2  0  0  0  0  0  0  0  0  0
   12.5586    5.1055   11.5566 O   0  0  0  0  0  0  0  0  0  0  0  0
   11.2297    3.6124   13.0130 C   0  0  1  0  0  0  0  0  0  0  0  0
    8.1092    7.5301   11.0647 N   0  0  0  0  0  0  0  0  0  0  0  0
    9.9746    3.7018   14.0296 C   0  0  1  0  0  0  0  0  0  0  0  0
   10.3319    4.6755   15.1349 O   0  0  0  0  0  0  0  0  0  0  0  0
    8.6567    4.2106   13.2354 C   0  0  2  0  0  0  0  0  0  0  0  0
    8.3307    3.2606   12.1927 O   0  0  0  0  0  0  0  0  0  0  0  0
    8.9778    5.7022   12.6592 C   0  0  1  0  0  0  0  0  0  0  0  0
   10.2079    5.6499   11.7954 O   0  0  0  0  0  0  0  0  0  0  0  0
    7.7772    6.2979   11.8438 C   0  0  0  0  0  0  0  0  0  0  0  0
   10.9943    2.6729   11.8673 N   0  0  0  0  0  0  0  0  0  0  0  0
  1  2  1  6  0  0  0
  1  3  1  0  0  0  0
  1 10  1  0  0  0  0
  3  4  1  6  0  0  0
  3  5  1  0  0  0  0
  5  6  1  1  0  0  0
  5  7  1  0  0  0  0
  7  8  1  6  0  0  0
  7  9  1  0  0  0  0
  9 10  1  0  0  0  0
  9 11  1  1  0  0  0
 11 12  1  0  0  0  0
 13 14  1  1  0  0  0
 13 15  1  0  0  0  0
 13 21  1  0  0  0  0
 16 15  1  0  0  0  0
 16 17  1  6  0  0  0
 18  2  1  6  0  0  0
 18 16  1  0  0  0  0
 19 18  1  0  0  0  0
 19 20  1  1  0  0  0
 21 19  1  0  0  0  0
 21 22  1  1  0  0  0
 23 20  1  6  0  0  0
 23 24  1  0  0  0  0
 23 28  1  0  0  0  0
 24 25  1  6  0  0  0
 24 26  1  0  0  0  0
 26 27  1  0  0  0  0
 26 32  1  6  0  0  0
 27 28  1  0  0  0  0
 27 29  1  6  0  0  0
 29 30  1  0  0  0  0
 31 32  1  6  0  0  0
 31 40  1  0  0  0  0
 33 31  1  0  0  0  0
 33 42  1  6  0  0  0
 35 33  1  0  0  0  0
 35 36  1  1  0  0  0
 37 35  1  0  0  0  0
 37 38  1  6  0  0  0
 37 39  1  0  0  0  0
 39 40  1  0  0  0  0
 39 41  1  6  0  0  0
 41 34  1  0  0  0  0
M  END
>  <CHROM.1>
-158.00354281,67.91539593,169.83969971,-102.04580416,159.26357812,-144.20310962
45.94970132,-154.43593756,-168.19452500,12.32936316,6.56956116,8.77280135
-0.94904063,-0.29033722,2.02465105

>  <Name>
2et4_lig

>  <RI>
0

>  <Rbt.Current_Directory>
/home/itssahil/PROJECTS/Mol_Feturizer/New_Systems/rnas/2et4

>  <Rbt.Executable>
rbdock ($Id: //depot/dev/client3/rdock/2013.1/src/exe/rbdock.cxx#4 $)

>  <Rbt.Library>
libRbt.so (2013.1, Build901 2013/11/27)

>  <Rbt.Parameter_File>
/export/apps/rDock/src/rDock_2013.1_src/data/scripts/dock_solv.prm

>  <Rbt.Receptor>
prm/pocket_docking_3.prm

>  <SCORE>
-3.62419

>  <SCORE.INTER>
-6.07544

>  <SCORE.INTER.CONST>
1

>  <SCORE.INTER.POLAR>
-1.52199

>  <SCORE.INTER.ROT>
9

>  <SCORE.INTER.SOLV>
14.395

>  <SCORE.INTER.VDW>
-13.3753

>  <SCORE.INTER.norm>
-0.144653

>  <SCORE.INTRA>
2.33369

>  <SCORE.INTRA.DIHEDRAL>
-2.4655

>  <SCORE.INTRA.DIHEDRAL.0>
21.6909

>  <SCORE.INTRA.POLAR>
0

>  <SCORE.INTRA.POLAR.0>
0

>  <SCORE.INTRA.REPUL>
0

>  <SCORE.INTRA.REPUL.0>
0

>  <SCORE.INTRA.SOLV>
0.587309

>  <SCORE.INTRA.SOLV.lig_0>
-116.606

>  <SCORE.INTRA.VDW>
3.27278

>  <SCORE.INTRA.VDW.0>
-6.01229

>  <SCORE.INTRA.norm>
0.055564

>  <SCORE.RESTR>
0.117566

>  <SCORE.RESTR.CAVITY>
0.117566

>  <SCORE.RESTR.norm>
0.0027992

>  <SCORE.SYSTEM>
0

>  <SCORE.SYSTEM.CONST>
0

>  <SCORE.SYSTEM.DIHEDRAL>
0

>  <SCORE.SYSTEM.SOLV>
0

>  <SCORE.SYSTEM.norm>
0

>  <SCORE.heavy>
42

>  <SCORE.norm>
-0.0862902

>  <RMSD>
4.978

$$$$
2et4_lig
 OpenBabel11021811423D
libRbt.so/2013.1/901 2013/11/27
 42 45  0  0  0  0  0  0  0  0999 V2000
   15.9090    5.0393    7.1213 C   0  0  2  0  0  0  0  0  0  0  0  0
   15.6483    6.4439    7.1591 O   0  0  0  0  0  0  0  0  0  0  0  0
   16.5420    4.6552    8.4831 C   0  0  2  0  0  0  0  0  0  0  0  0
   15.6804    5.0106    9.5817 N   0  0  0  0  0  0  0  0  0  0  0  0
   17.9311    5.3436    8.6159 C   0  0  1  0  0  0  0  0  0  0  0  0
   18.5049    4.9837    9.8336 O   0  0  0  0  0  0  0  0  0  0  0  0
   18.8101    4.9113    7.3950 C   0  0  2  0  0  0  0  0  0  0  0  0
   20.0815    5.5206    7.4713 O   0  0  0  0  0  0  0  0  0  0  0  0
   18.1278    5.3090    6.0511 C   0  0  2  0  0  0  0  0  0  0  0  0
   16.8348    4.6986    6.0040 O   0  0  0  0  0  0  0  0  0  0  0  0
   18.9593    4.8551    4.8069 C   0  0  0  0  0  0  0  0  0  0  0  0
   18.4736    5.4268    3.5993 N   0  0  0  0  0  0  0  0  0  0  0  0
   13.8694    9.0813    4.2378 C   0  0  2  0  0  0  0  0  0  0  0  0
   12.8546    9.7307    3.3987 N   0  0  0  0  0  0  0  0  0  0  0  0
   13.8994    7.4907    3.9194 C   0  0  0  0  0  0  0  0  0  0  0  0
   14.9852    6.7934    4.8371 C   0  0  2  0  0  0  0  0  0  0  0  0
   15.0289    5.3398    4.5990 N   0  0  0  0  0  0  0  0  0  0  0  0
   14.6486    7.0680    6.3418 C   0  0  2  0  0  0  0  0  0  0  0  0
   14.5944    8.6052    6.6279 C   0  0  2  0  0  0  0  0  0  0  0  0
   14.2643    8.7504    8.0311 O   0  0  0  0  0  0  0  0  0  0  0  0
   13.5137    9.2765    5.7207 C   0  0  1  0  0  0  0  0  0  0  0  0
   13.4980   10.6385    5.9857 O   0  0  0  0  0  0  0  0  0  0  0  0
   13.3636    7.9977    8.7082 C   0  0  1  0  0  0  0  0  0  0  0  0
   13.2517    8.4590   10.1847 C   0  0  2  0  0  0  0  0  0  0  0  0
   14.2302    7.8975   11.0108 O   0  0  0  0  0  0  0  0  0  0  0  0
   11.7958    8.1161   10.4408 C   0  0  1  0  0  0  0  0  0  0  0  0
   11.0333    8.4296    9.1458 C   0  0  2  0  0  0  0  0  0  0  0  0
   12.0106    8.0428    8.1798 O   0  0  0  0  0  0  0  0  0  0  0  0
   10.5942    9.9226    8.9652 C   0  0  0  0  0  0  0  0  0  0  0  0
    9.9202   10.0253    7.6829 O   0  0  0  0  0  0  0  0  0  0  0  0
   10.4707    6.1165   11.0465 C   0  0  2  0  0  0  0  0  0  0  0  0
   11.7305    6.6715   10.7838 O   0  0  0  0  0  0  0  0  0  0  0  0
    9.7193    6.9077   12.2037 C   0  0  1  0  0  0  0  0  0  0  0  0
   10.4258    1.6426   11.0310 N   0  0  0  0  0  0  0  0  0  0  0  0
    8.2975    6.1718   12.4357 C   0  0  1  0  0  0  0  0  0  0  0  0
    7.5346    6.1974   11.1262 O   0  0  0  0  0  0  0  0  0  0  0  0
    8.5395    4.6432   12.9164 C   0  0  2  0  0  0  0  0  0  0  0  0
    9.2606    4.6456   14.1719 O   0  0  0  0  0  0  0  0  0  0  0  0
    9.3434    3.8760   11.7227 C   0  0  1  0  0  0  0  0  0  0  0  0
   10.6199    4.6139   11.4257 O   0  0  0  0  0  0  0  0  0  0  0  0
    9.6608    2.3821   12.0814 C   0  0  0  0  0  0  0  0  0  0  0  0
   10.5717    6.9452   13.4377 N   0  0  0  0  0  0  0  0  0  0  0  0
  1  2  1  1  0  0  0
  1  3  1  0  0  0  0
  1 10  1  0  0  0  0
  3  4  1  1  0  0  0
  3  5  1  0  0  0  0
  5  6  1  1  0  0  0
  5  7  1  0  0  0  0
  7  8  1  1  0  0  0
  7  9  1  0  0  0  0
  9 10  1  0  0  0  0
  9 11  1  6  0  0  0
 11 12  1  0  0  0  0
 13 14  1  6  0  0  0
 13 15  1  0  0  0  0
 13 21  1  0  0  0  0
 16 15  1  0  0  0  0
 16 17  1  1  0  0  0
 18  2  1  1  0  0  0
 18 16  1  0  0  0  0
 19 18  1  0  0  0  0
 19 20  1  1  0  0  0
 21 19  1  0  0  0  0
 21 22  1  1  0  0  0
 23 20  1  6  0  0  0
 23 24  1  0  0  0  0
 23 28  1  0  0  0  0
 24 25  1  1  0  0  0
 24 26  1  0  0  0  0
 26 27  1  0  0  0  0
 26 32  1  6  0  0  0
 27 28  1  0  0  0  0
 27 29  1  1  0  0  0
 29 30  1  0  0  0  0
 31 32  1  1  0  0  0
 31 40  1  0  0  0  0
 33 31  1  0  0  0  0
 33 42  1  1  0  0  0
 35 33  1  0  0  0  0
 35 36  1  6  0  0  0
 37 35  1  0  0  0  0
 37 38  1  1  0  0  0
 37 39  1  0  0  0  0
 39 40  1  0  0  0  0
 39 41  1  1  0  0  0
 41 34  1  0  0  0  0
M  END
>  <CHROM.1>
-155.85463211,-169.08881638,-59.00834156,-40.33022399,-178.78831179,-179.15857480
178.81059633,-55.59663197,-178.65621174,13.45207123,6.54940657,8.55911782
-0.51503057,-0.47491882,2.34125955

>  <Name>
2et4_lig

>  <RI>
0

>  <Rbt.Current_Directory>
/home/itssahil/PROJECTS/Mol_Feturizer/New_Systems/rnas/2et4

>  <Rbt.Executable>
rbdock ($Id: //depot/dev/client3/rdock/2013.1/src/exe/rbdock.cxx#4 $)

>  <Rbt.Library>
libRbt.so (2013.1, Build901 2013/11/27)

>  <Rbt.Parameter_File>
/export/apps/rDock/src/rDock_2013.1_src/data/scripts/dock_solv.prm

>  <Rbt.Receptor>
prm/pocket_docking_2.prm

>  <SCORE>
8.03001

>  <SCORE.INTER>
7.53757

>  <SCORE.INTER.CONST>
1

>  <SCORE.INTER.POLAR>
-0.0908009

>  <SCORE.INTER.ROT>
9

>  <SCORE.INTER.SOLV>
14.2669

>  <SCORE.INTER.VDW>
-9.0279

>  <SCORE.INTER.norm>
0.179466

>  <SCORE.INTRA>
-4.02523

>  <SCORE.INTRA.DIHEDRAL>
-16.7108

>  <SCORE.INTRA.DIHEDRAL.0>
21.6909

>  <SCORE.INTRA.POLAR>
0

>  <SCORE.INTRA.POLAR.0>
0

>  <SCORE.INTRA.REPUL>
0

>  <SCORE.INTRA.REPUL.0>
0

>  <SCORE.INTRA.SOLV>
0.628181

>  <SCORE.INTRA.SOLV.lig_0>
-116.606

>  <SCORE.INTRA.VDW>
4.01609

>  <SCORE.INTRA.VDW.0>
-6.01229

>  <SCORE.INTRA.norm>
-0.0958387

>  <SCORE.RESTR>
4.51767

>  <SCORE.RESTR.CAVITY>
4.51767

>  <SCORE.RESTR.norm>
0.107563

>  <SCORE.SYSTEM>
0

>  <SCORE.SYSTEM.CONST>
0

>  <SCORE.SYSTEM.DIHEDRAL>
0

>  <SCORE.SYSTEM.SOLV>
0

>  <SCORE.SYSTEM.norm>
0

>  <SCORE.heavy>
42

>  <SCORE.norm>
0.191191

>  <RMSD>
4.996

$$$$
2et4_lig
 OpenBabel11021811423D
libRbt.so/2013.1/901 2013/11/27
 42 45  0  0  0  0  0  0  0  0999 V2000
   14.3476    6.7787    4.2579 C   0  0  2  0  0  0  0  0  0  0  0  0
   13.9848    6.4185    5.5924 O   0  0  0  0  0  0  0  0  0  0  0  0
   13.0559    6.7243    3.4027 C   0  0  2  0  0  0  0  0  0  0  0  0
   12.0372    7.5936    3.9339 N   0  0  0  0  0  0  0  0  0  0  0  0
   12.5527    5.2538    3.3260 C   0  0  1  0  0  0  0  0  0  0  0  0
   11.4008    5.2054    2.5433 O   0  0  0  0  0  0  0  0  0  0  0  0
   13.7056    4.3721    2.7401 C   0  0  2  0  0  0  0  0  0  0  0  0
   13.2937    3.0240    2.6593 O   0  0  0  0  0  0  0  0  0  0  0  0
   14.9837    4.4682    3.6273 C   0  0  2  0  0  0  0  0  0  0  0  0
   15.3712    5.8427    3.7124 O   0  0  0  0  0  0  0  0  0  0  0  0
   16.1713    3.6312    3.0488 C   0  0  0  0  0  0  0  0  0  0  0  0
   16.5274    4.0417    1.7351 N   0  0  0  0  0  0  0  0  0  0  0  0
   16.5011    6.2064    9.0963 C   0  0  2  0  0  0  0  0  0  0  0  0
   17.2670    6.6291   10.2755 N   0  0  0  0  0  0  0  0  0  0  0  0
   17.0825    6.9501    7.7768 C   0  0  0  0  0  0  0  0  0  0  0  0
   16.2438    6.5017    6.5108 C   0  0  2  0  0  0  0  0  0  0  0  0
   16.7223    7.1744    5.2901 N   0  0  0  0  0  0  0  0  0  0  0  0
   14.7328    6.8441    6.7397 C   0  0  2  0  0  0  0  0  0  0  0  0
   14.1934    6.1440    8.0307 C   0  0  2  0  0  0  0  0  0  0  0  0
   12.8039    6.5337    8.1592 O   0  0  0  0  0  0  0  0  0  0  0  0
   15.0259    6.6027    9.2709 C   0  0  1  0  0  0  0  0  0  0  0  0
   14.5350    5.9564   10.3965 O   0  0  0  0  0  0  0  0  0  0  0  0
   12.3619    7.7146    8.6554 C   0  0  1  0  0  0  0  0  0  0  0  0
   12.3302    8.8042    7.5520 C   0  0  2  0  0  0  0  0  0  0  0  0
   13.5658    9.4309    7.3638 O   0  0  0  0  0  0  0  0  0  0  0  0
   11.1615    9.6310    8.0553 C   0  0  1  0  0  0  0  0  0  0  0  0
   10.1384    8.6440    8.6347 C   0  0  2  0  0  0  0  0  0  0  0  0
   11.0192    7.6793    9.2102 O   0  0  0  0  0  0  0  0  0  0  0  0
    9.1623    7.9952    7.5951 C   0  0  0  0  0  0  0  0  0  0  0  0
    8.3079    9.0519    7.0828 O   0  0  0  0  0  0  0  0  0  0  0  0
   10.7771   11.4326    9.7070 C   0  0  2  0  0  0  0  0  0  0  0  0
   11.6836   10.5575    9.0934 O   0  0  0  0  0  0  0  0  0  0  0  0
   11.5008   12.3577   10.7794 C   0  0  1  0  0  0  0  0  0  0  0  0
    8.0214    9.4737   12.6490 N   0  0  0  0  0  0  0  0  0  0  0  0
   10.3638   13.3035   11.4346 C   0  0  1  0  0  0  0  0  0  0  0  0
    9.7175   14.1035   10.3211 O   0  0  0  0  0  0  0  0  0  0  0  0
    9.2561   12.3925   12.1893 C   0  0  2  0  0  0  0  0  0  0  0  0
    9.8953   11.6464   13.2528 O   0  0  0  0  0  0  0  0  0  0  0  0
    8.5638   11.4334   11.0666 C   0  0  1  0  0  0  0  0  0  0  0  0
    9.6272   10.6242   10.3764 O   0  0  0  0  0  0  0  0  0  0  0  0
    7.4817   10.4790   11.6827 C   0  0  0  0  0  0  0  0  0  0  0  0
   12.2163   11.5102   11.7897 N   0  0  0  0  0  0  0  0  0  0  0  0
  1  2  1  1  0  0  0
  1  3  1  0  0  0  0
  1 10  1  0  0  0  0
  3  4  1  1  0  0  0
  3  5  1  0  0  0  0
  5  6  1  6  0  0  0
  5  7  1  0  0  0  0
  7  8  1  1  0  0  0
  7  9  1  0  0  0  0
  9 10  1  0  0  0  0
  9 11  1  6  0  0  0
 11 12  1  0  0  0  0
 13 14  1  1  0  0  0
 13 15  1  0  0  0  0
 13 21  1  0  0  0  0
 16 15  1  0  0  0  0
 16 17  1  6  0  0  0
 18  2  1  6  0  0  0
 18 16  1  0  0  0  0
 19 18  1  0  0  0  0
 19 20  1  1  0  0  0
 21 19  1  0  0  0  0
 21 22  1  1  0  0  0
 23 20  1  6  0  0  0
 23 24  1  0  0  0  0
 23 28  1  0  0  0  0
 24 25  1  1  0  0  0
 24 26  1  0  0  0  0
 26 27  1  0  0  0  0
 26 32  1  1  0  0  0
 27 28  1  0  0  0  0
 27 29  1  6  0  0  0
 29 30  1  0  0  0  0
 31 32  1  1  0  0  0
 31 40  1  0  0  0  0
 33 31  1  0  0  0  0
 33 42  1  1  0  0  0
 35 33  1  0  0  0  0
 35 36  1  6  0  0  0
 37 35  1  0  0  0  0
 37 38  1  1  0  0  0
 37 39  1  0  0  0  0
 39 40  1  0  0  0  0
 39 41  1  1  0  0  0
 41 34  1  0  0  0  0
M  END
>  <CHROM.1>
-154.70654106,58.63835422,-51.16936240,-79.70554428,85.30443077,179.85033352
-66.89061358,-179.53044738,-64.67943766,12.57880747,8.02819239,7.63541743
1.04142410,0.35662931,-2.09114965

>  <Name>
2et4_lig

>  <RI>
1.79929e+07

>  <Rbt.Current_Directory>
/home/itssahil/PROJECTS/Mol_Feturizer/New_Systems/rnas/2et4

>  <Rbt.Executable>
rbdock ($Id: //depot/dev/client3/rdock/2013.1/src/exe/rbdock.cxx#4 $)

>  <Rbt.Library>
libRbt.so (2013.1, Build901 2013/11/27)

>  <Rbt.Parameter_File>
/export/apps/rDock/src/rDock_2013.1_src/data/scripts/dock_solv.prm

>  <Rbt.Receptor>
prm/pocket_docking_7.prm

>  <SCORE>
-10.2454

>  <SCORE.INTER>
-7.93839

>  <SCORE.INTER.CONST>
1

>  <SCORE.INTER.POLAR>
-0.877416

>  <SCORE.INTER.ROT>
9

>  <SCORE.INTER.SOLV>
16.7187

>  <SCORE.INTER.VDW>
-17.5405

>  <SCORE.INTER.norm>
-0.189009

>  <SCORE.INTRA>
-2.30697

>  <SCORE.INTRA.DIHEDRAL>
-13.6728

>  <SCORE.INTRA.DIHEDRAL.0>
21.6909

>  <SCORE.INTRA.POLAR>
0

>  <SCORE.INTRA.POLAR.0>
0

>  <SCORE.INTRA.REPUL>
0

>  <SCORE.INTRA.REPUL.0>
0

>  <SCORE.INTRA.SOLV>
1.6755

>  <SCORE.INTRA.SOLV.lig_0>
-116.606

>  <SCORE.INTRA.VDW>
3.69167

>  <SCORE.INTRA.VDW.0>
-6.01229

>  <SCORE.INTRA.norm>
-0.0549279

>  <SCORE.RESTR>
0

>  <SCORE.RESTR.CAVITY>
0

>  <SCORE.RESTR.norm>
0

>  <SCORE.SYSTEM>
0

>  <SCORE.SYSTEM.CONST>
0

>  <SCORE.SYSTEM.DIHEDRAL>
0

>  <SCORE.SYSTEM.SOLV>
0

>  <SCORE.SYSTEM.norm>
0

>  <SCORE.heavy>
42

>  <SCORE.norm>
-0.243937

>  <RMSD>
5.042

$$$$
2et4_lig
 OpenBabel11021811423D
libRbt.so/2013.1/901 2013/11/27
 42 45  0  0  0  0  0  0  0  0999 V2000
   13.5040    5.9461    4.1735 C   0  0  2  0  0  0  0  0  0  0  0  0
   13.3663    5.6065    5.5547 O   0  0  0  0  0  0  0  0  0  0  0  0
   15.0055    5.8047    3.8156 C   0  0  2  0  0  0  0  0  0  0  0  0
   15.4882    4.4755    4.0911 N   0  0  0  0  0  0  0  0  0  0  0  0
   15.8229    6.8709    4.6007 C   0  0  1  0  0  0  0  0  0  0  0  0
   17.1701    6.7521    4.2649 O   0  0  0  0  0  0  0  0  0  0  0  0
   15.2467    8.2837    4.2516 C   0  0  2  0  0  0  0  0  0  0  0  0
   15.9567    9.2845    4.9501 O   0  0  0  0  0  0  0  0  0  0  0  0
   13.7345    8.3729    4.6192 C   0  0  2  0  0  0  0  0  0  0  0  0
   13.0383    7.3386    3.9175 O   0  0  0  0  0  0  0  0  0  0  0  0
   13.1142    9.7589    4.2455 C   0  0  0  0  0  0  0  0  0  0  0  0
   13.1448   10.0004    2.8448 N   0  0  0  0  0  0  0  0  0  0  0  0
    9.0825    5.6362    6.1052 C   0  0  2  0  0  0  0  0  0  0  0  0
    7.7702    5.4830    6.7457 N   0  0  0  0  0  0  0  0  0  0  0  0
    9.8438    4.2038    6.0789 C   0  0  0  0  0  0  0  0  0  0  0  0
   11.2638    4.3780    5.4003 C   0  0  2  0  0  0  0  0  0  0  0  0
   12.0029    3.1032    5.3783 N   0  0  0  0  0  0  0  0  0  0  0  0
   12.0900    5.4489    6.1897 C   0  0  2  0  0  0  0  0  0  0  0  0
   11.3310    6.8164    6.2319 C   0  0  2  0  0  0  0  0  0  0  0  0
   12.1653    7.7259    6.9907 O   0  0  0  0  0  0  0  0  0  0  0  0
    9.9363    6.6291    6.9108 C   0  0  1  0  0  0  0  0  0  0  0  0
    9.2818    7.8527    6.9214 O   0  0  0  0  0  0  0  0  0  0  0  0
   12.8323    7.4159    8.1288 C   0  0  1  0  0  0  0  0  0  0  0  0
   13.6285    8.6377    8.6569 C   0  0  2  0  0  0  0  0  0  0  0  0
   14.8803    8.7807    8.0506 O   0  0  0  0  0  0  0  0  0  0  0  0
   13.5672    8.3477   10.1451 C   0  0  1  0  0  0  0  0  0  0  0  0
   12.1784    7.7555   10.4234 C   0  0  2  0  0  0  0  0  0  0  0  0
   11.9894    6.9901    9.2334 O   0  0  0  0  0  0  0  0  0  0  0  0
   11.0291    8.7992   10.6339 C   0  0  0  0  0  0  0  0  0  0  0  0
   11.3349    9.5447   11.8421 O   0  0  0  0  0  0  0  0  0  0  0  0
   14.5637    6.6613   11.6565 C   0  0  2  0  0  0  0  0  0  0  0  0
   14.6519    7.3809   10.4572 O   0  0  0  0  0  0  0  0  0  0  0  0
   15.8945    5.8361   11.9358 C   0  0  1  0  0  0  0  0  0  0  0  0
   10.5476    4.7384   12.5192 N   0  0  0  0  0  0  0  0  0  0  0  0
   15.6727    5.0334   13.3227 C   0  0  1  0  0  0  0  0  0  0  0  0
   15.3795    6.0463   14.4115 O   0  0  0  0  0  0  0  0  0  0  0  0
   14.4355    3.9980   13.1689 C   0  0  2  0  0  0  0  0  0  0  0  0
   14.7432    3.0365   12.1311 O   0  0  0  0  0  0  0  0  0  0  0  0
   13.0995    4.8761   12.8467 C   0  0  1  0  0  0  0  0  0  0  0  0
   13.3334    5.7081   11.6159 O   0  0  0  0  0  0  0  0  0  0  0  0
   11.8282    3.9779   12.6509 C   0  0  0  0  0  0  0  0  0  0  0  0
   16.1934    4.9346   10.7745 N   0  0  0  0  0  0  0  0  0  0  0  0
  1  2  1  1  0  0  0
  1  3  1  0  0  0  0
  1 10  1  0  0  0  0
  3  4  1  1  0  0  0
  3  5  1  0  0  0  0
  5  6  1  6  0  0  0
  5  7  1  0  0  0  0
  7  8  1  1  0  0  0
  7  9  1  0  0  0  0
  9 10  1  0  0  0  0
  9 11  1  6  0  0  0
 11 12  1  0  0  0  0
 13 14  1  1  0  0  0
 13 15  1  0  0  0  0
 13 21  1  0  0  0  0
 16 15  1  0  0  0  0
 16 17  1  1  0  0  0
 18  2  1  6  0  0  0
 18 16  1  0  0  0  0
 19 18  1  0  0  0  0
 19 20  1  1  0  0  0
 21 19  1  0  0  0  0
 21 22  1  6  0  0  0
 23 20  1  6  0  0  0
 23 24  1  0  0  0  0
 23 28  1  0  0  0  0
 24 25  1  6  0  0  0
 24 26  1  0  0  0  0
 26 27  1  0  0  0  0
 26 32  1  6  0  0  0
 27 28  1  0  0  0  0
 27 29  1  6  0  0  0
 29 30  1  0  0  0  0
 31 32  1  6  0  0  0
 31 40  1  0  0  0  0
 33 31  1  0  0  0  0
 33 42  1  6  0  0  0
 35 33  1  0  0  0  0
 35 36  1  1  0  0  0
 37 35  1  0  0  0  0
 37 38  1  6  0  0  0
 37 39  1  0  0  0  0
 39 40  1  0  0  0  0
 39 41  1  6  0  0  0
 41 34  1  0  0  0  0
M  END
>  <CHROM.1>
-171.28116413,63.18217020,55.85653239,-42.02561102,179.67857418,-161.48056941
-64.79461431,-171.78520267,172.89708074,13.13873170,6.55642217,8.08822695
-1.62043174,0.14972585,1.77185011

>  <Name>
2et4_lig

>  <RI>
0

>  <Rbt.Current_Directory>
/home/itssahil/PROJECTS/Mol_Feturizer/New_Systems/rnas/2et4

>  <Rbt.Executable>
rbdock ($Id: //depot/dev/client3/rdock/2013.1/src/exe/rbdock.cxx#4 $)

>  <Rbt.Library>
libRbt.so (2013.1, Build901 2013/11/27)

>  <Rbt.Parameter_File>
/export/apps/rDock/src/rDock_2013.1_src/data/scripts/dock_solv.prm

>  <Rbt.Receptor>
prm/pocket_docking_5.prm

>  <SCORE>
-18.1414

>  <SCORE.INTER>
-10.5184

>  <SCORE.INTER.CONST>
1

>  <SCORE.INTER.POLAR>
-0.811814

>  <SCORE.INTER.ROT>
9

>  <SCORE.INTER.SOLV>
13.3888

>  <SCORE.INTER.VDW>
-18.3692

>  <SCORE.INTER.norm>
-0.250439

>  <SCORE.INTRA>
-7.64186

>  <SCORE.INTRA.DIHEDRAL>
-17.3939

>  <SCORE.INTRA.DIHEDRAL.0>
21.6909

>  <SCORE.INTRA.POLAR>
0

>  <SCORE.INTRA.POLAR.0>
0

>  <SCORE.INTRA.REPUL>
0

>  <SCORE.INTRA.REPUL.0>
0

>  <SCORE.INTRA.SOLV>
-1.59381

>  <SCORE.INTRA.SOLV.lig_0>
-116.606

>  <SCORE.INTRA.VDW>
1.85201

>  <SCORE.INTRA.VDW.0>
-6.01229

>  <SCORE.INTRA.norm>
-0.181949

>  <SCORE.RESTR>
0.0188747

>  <SCORE.RESTR.CAVITY>
0.0188747

>  <SCORE.RESTR.norm>
0.000449398

>  <SCORE.SYSTEM>
0

>  <SCORE.SYSTEM.CONST>
0

>  <SCORE.SYSTEM.DIHEDRAL>
0

>  <SCORE.SYSTEM.SOLV>
0

>  <SCORE.SYSTEM.norm>
0

>  <SCORE.heavy>
42

>  <SCORE.norm>
-0.431938

>  <RMSD>
5.047

$$$$
2et4_lig
 OpenBabel11021811423D
libRbt.so/2013.1/901 2013/11/27
 42 45  0  0  0  0  0  0  0  0999 V2000
   12.0054    8.8957    7.2255 C   0  0  2  0  0  0  0  0  0  0  0  0
   12.4824    7.7111    7.8669 O   0  0  0  0  0  0  0  0  0  0  0  0
   10.4874    8.9965    7.5224 C   0  0  2  0  0  0  0  0  0  0  0  0
   10.2294    9.0140    8.9398 N   0  0  0  0  0  0  0  0  0  0  0  0
    9.7499    7.8119    6.8339 C   0  0  1  0  0  0  0  0  0  0  0  0
    8.3837    7.9140    7.0890 O   0  0  0  0  0  0  0  0  0  0  0  0
   10.0727    7.8580    5.3031 C   0  0  2  0  0  0  0  0  0  0  0  0
    9.4275    6.7928    4.6378 O   0  0  0  0  0  0  0  0  0  0  0  0
   11.6091    7.7643    5.0566 C   0  0  2  0  0  0  0  0  0  0  0  0
   12.2441    8.8391    5.7553 O   0  0  0  0  0  0  0  0  0  0  0  0
   11.9722    7.8491    3.5379 C   0  0  0  0  0  0  0  0  0  0  0  0
   11.8088    6.6012    2.8766 N   0  0  0  0  0  0  0  0  0  0  0  0
   16.4683    6.0489    7.9319 C   0  0  2  0  0  0  0  0  0  0  0  0
   17.8761    5.8478    8.2971 N   0  0  0  0  0  0  0  0  0  0  0  0
   16.2700    7.5466    7.3405 C   0  0  0  0  0  0  0  0  0  0  0  0
   14.7477    7.7627    6.9619 C   0  0  2  0  0  0  0  0  0  0  0  0
   14.5164    9.1224    6.4430 N   0  0  0  0  0  0  0  0  0  0  0  0
   13.8579    7.5270    8.2289 C   0  0  2  0  0  0  0  0  0  0  0  0
   14.0808    6.0897    8.8054 C   0  0  2  0  0  0  0  0  0  0  0  0
   13.2306    5.9793    9.9734 O   0  0  0  0  0  0  0  0  0  0  0  0
   15.5850    5.8955    9.1809 C   0  0  1  0  0  0  0  0  0  0  0  0
   15.7548    4.6100    9.6752 O   0  0  0  0  0  0  0  0  0  0  0  0
   13.1931    6.8587   11.0037 C   0  0  1  0  0  0  0  0  0  0  0  0
   12.2530    6.3556   12.1300 C   0  0  2  0  0  0  0  0  0  0  0  0
   10.9099    6.6740   11.9070 O   0  0  0  0  0  0  0  0  0  0  0  0
   12.9576    6.9627   13.3291 C   0  0  1  0  0  0  0  0  0  0  0  0
   14.4644    6.8684   13.0510 C   0  0  2  0  0  0  0  0  0  0  0  0
   14.4746    7.1045   11.6432 O   0  0  0  0  0  0  0  0  0  0  0  0
   15.1344    5.5004   13.4175 C   0  0  0  0  0  0  0  0  0  0  0  0
   14.5450    4.4850   12.5627 O   0  0  0  0  0  0  0  0  0  0  0  0
   11.1734    8.6066   13.8148 C   0  0  2  0  0  0  0  0  0  0  0  0
   12.5053    8.3735   13.4462 O   0  0  0  0  0  0  0  0  0  0  0  0
   10.8306   10.1596   13.7957 C   0  0  1  0  0  0  0  0  0  0  0  0
    7.9906    7.4330   17.7068 N   0  0  0  0  0  0  0  0  0  0  0  0
    9.2871   10.3105   14.2553 C   0  0  1  0  0  0  0  0  0  0  0  0
    8.4287    9.5155   13.2916 O   0  0  0  0  0  0  0  0  0  0  0  0
    9.1040    9.7510   15.7653 C   0  0  2  0  0  0  0  0  0  0  0  0
    9.9254   10.5312   16.6668 O   0  0  0  0  0  0  0  0  0  0  0  0
    9.4997    8.1689   15.7525 C   0  0  1  0  0  0  0  0  0  0  0  0
   10.8993    8.0083   15.2258 O   0  0  0  0  0  0  0  0  0  0  0  0
    9.3851    7.5138   17.1734 C   0  0  0  0  0  0  0  0  0  0  0  0
   11.7845   10.9073   14.6798 N   0  0  0  0  0  0  0  0  0  0  0  0
  1  2  1  1  0  0  0
  1  3  1  0  0  0  0
  1 10  1  0  0  0  0
  3  4  1  1  0  0  0
  3  5  1  0  0  0  0
  5  6  1  6  0  0  0
  5  7  1  0  0  0  0
  7  8  1  6  0  0  0
  7  9  1  0  0  0  0
  9 10  1  0  0  0  0
  9 11  1  6  0  0  0
 11 12  1  0  0  0  0
 13 14  1  1  0  0  0
 13 15  1  0  0  0  0
 13 21  1  0  0  0  0
 16 15  1  0  0  0  0
 16 17  1  1  0  0  0
 18  2  1  6  0  0  0
 18 16  1  0  0  0  0
 19 18  1  0  0  0  0
 19 20  1  1  0  0  0
 21 19  1  0  0  0  0
 21 22  1  6  0  0  0
 23 20  1  6  0  0  0
 23 24  1  0  0  0  0
 23 28  1  0  0  0  0
 24 25  1  6  0  0  0
 24 26  1  0  0  0  0
 26 27  1  0  0  0  0
 26 32  1  6  0  0  0
 27 28  1  0  0  0  0
 27 29  1  6  0  0  0
 29 30  1  0  0  0  0
 31 32  1  1  0  0  0
 31 40  1  0  0  0  0
 33 31  1  0  0  0  0
 33 42  1  1  0  0  0
 35 33  1  0  0  0  0
 35 36  1  6  0  0  0
 37 35  1  0  0  0  0
 37 38  1  1  0  0  0
 37 39  1  0  0  0  0
 39 40  1  0  0  0  0
 39 41  1  1  0  0  0
 41 34  1  0  0  0  0
M  END
>  <CHROM.1>
-156.93905050,-81.26664595,-53.71557987,-51.69621129,-175.22836865,68.59447490
63.97195868,-176.08107174,66.62508905,12.16403754,7.66442092,10.40150119
1.27551021,0.42548758,-1.58169683

>  <Name>
2et4_lig

>  <RI>
0

>  <Rbt.Current_Directory>
/home/itssahil/PROJECTS/Mol_Feturizer/New_Systems/rnas/2et4

>  <Rbt.Executable>
rbdock ($Id: //depot/dev/client3/rdock/2013.1/src/exe/rbdock.cxx#4 $)

>  <Rbt.Library>
libRbt.so (2013.1, Build901 2013/11/27)

>  <Rbt.Parameter_File>
/export/apps/rDock/src/rDock_2013.1_src/data/scripts/dock_solv.prm

>  <Rbt.Receptor>
prm/pocket_docking_6.prm

>  <SCORE>
-11.1554

>  <SCORE.INTER>
-7.47366

>  <SCORE.INTER.CONST>
1

>  <SCORE.INTER.POLAR>
-0.605894

>  <SCORE.INTER.ROT>
9

>  <SCORE.INTER.SOLV>
11.7729

>  <SCORE.INTER.VDW>
-16.4871

>  <SCORE.INTER.norm>
-0.177944

>  <SCORE.INTRA>
-3.68172

>  <SCORE.INTRA.DIHEDRAL>
-16.4523

>  <SCORE.INTRA.DIHEDRAL.0>
21.6909

>  <SCORE.INTRA.POLAR>
0

>  <SCORE.INTRA.POLAR.0>
0

>  <SCORE.INTRA.REPUL>
0

>  <SCORE.INTRA.REPUL.0>
0

>  <SCORE.INTRA.SOLV>
0.628661

>  <SCORE.INTRA.SOLV.lig_0>
-116.606

>  <SCORE.INTRA.VDW>
4.23009

>  <SCORE.INTRA.VDW.0>
-6.01229

>  <SCORE.INTRA.norm>
-0.0876599

>  <SCORE.RESTR>
0

>  <SCORE.RESTR.CAVITY>
0

>  <SCORE.RESTR.norm>
0

>  <SCORE.SYSTEM>
0

>  <SCORE.SYSTEM.CONST>
0

>  <SCORE.SYSTEM.DIHEDRAL>
0

>  <SCORE.SYSTEM.SOLV>
0

>  <SCORE.SYSTEM.norm>
0

>  <SCORE.heavy>
42

>  <SCORE.norm>
-0.265604

>  <RMSD>
5.057

$$$$
2et4_lig
 OpenBabel11021811423D
libRbt.so/2013.1/901 2013/11/27
 42 45  0  0  0  0  0  0  0  0999 V2000
   11.7743    8.1648    6.4836 C   0  0  2  0  0  0  0  0  0  0  0  0
   12.2961    6.9844    7.0971 O   0  0  0  0  0  0  0  0  0  0  0  0
   12.5325    9.3708    7.0945 C   0  0  2  0  0  0  0  0  0  0  0  0
   13.9550    9.2501    6.9000 N   0  0  0  0  0  0  0  0  0  0  0  0
   12.1821    9.4850    8.6063 C   0  0  1  0  0  0  0  0  0  0  0  0
   12.8523   10.5794    9.1493 O   0  0  0  0  0  0  0  0  0  0  0  0
   10.6280    9.6151    8.7398 C   0  0  2  0  0  0  0  0  0  0  0  0
   10.2634    9.7144   10.1002 O   0  0  0  0  0  0  0  0  0  0  0  0
    9.9113    8.3862    8.1026 C   0  0  2  0  0  0  0  0  0  0  0  0
   10.3102    8.2924    6.7319 O   0  0  0  0  0  0  0  0  0  0  0  0
    8.3537    8.5019    8.1808 C   0  0  0  0  0  0  0  0  0  0  0  0
    7.7033    7.3467    7.6676 N   0  0  0  0  0  0  0  0  0  0  0  0
   15.5658    4.2886    6.2626 C   0  0  2  0  0  0  0  0  0  0  0  0
   16.9322    3.8022    6.0344 N   0  0  0  0  0  0  0  0  0  0  0  0
   15.2009    5.4191    5.1575 C   0  0  0  0  0  0  0  0  0  0  0  0
   13.7319    5.9501    5.4172 C   0  0  2  0  0  0  0  0  0  0  0  0
   13.3669    6.9999    4.4495 N   0  0  0  0  0  0  0  0  0  0  0  0
   13.6349    6.5218    6.8719 C   0  0  2  0  0  0  0  0  0  0  0  0
   14.0172    5.4299    7.9252 C   0  0  2  0  0  0  0  0  0  0  0  0
   13.9109    6.0589    9.2260 O   0  0  0  0  0  0  0  0  0  0  0  0
   15.4710    4.9224    7.6601 C   0  0  1  0  0  0  0  0  0  0  0  0
   15.7768    3.9470    8.5986 O   0  0  0  0  0  0  0  0  0  0  0  0
   13.1959    5.5813   10.2734 C   0  0  1  0  0  0  0  0  0  0  0  0
   13.8107    4.2627   10.8109 C   0  0  2  0  0  0  0  0  0  0  0  0
   13.3893    3.1324   10.1039 O   0  0  0  0  0  0  0  0  0  0  0  0
   13.4306    4.3919   12.2744 C   0  0  1  0  0  0  0  0  0  0  0  0
   13.5644    5.8777   12.6365 C   0  0  2  0  0  0  0  0  0  0  0  0
   13.1198    6.4736   11.4179 O   0  0  0  0  0  0  0  0  0  0  0  0
   15.0066    6.3510   13.0247 C   0  0  0  0  0  0  0  0  0  0  0  0
   15.4700    5.4941   14.1017 O   0  0  0  0  0  0  0  0  0  0  0  0
   11.4102    4.0634   13.6641 C   0  0  2  0  0  0  0  0  0  0  0  0
   12.0309    3.9130   12.4166 O   0  0  0  0  0  0  0  0  0  0  0  0
   10.1458    3.1082   13.8005 C   0  0  1  0  0  0  0  0  0  0  0  0
    9.2735    7.8211   16.4961 N   0  0  0  0  0  0  0  0  0  0  0  0
    9.5006    3.3805   15.2587 C   0  0  1  0  0  0  0  0  0  0  0  0
   10.5599    3.0926   16.3038 O   0  0  0  0  0  0  0  0  0  0  0  0
    9.0087    4.9210   15.3653 C   0  0  2  0  0  0  0  0  0  0  0  0
    7.9919    5.1683   14.3647 O   0  0  0  0  0  0  0  0  0  0  0  0
   10.3237    5.8685   15.1835 C   0  0  1  0  0  0  0  0  0  0  0  0
   10.9930    5.5484   13.8752 O   0  0  0  0  0  0  0  0  0  0  0  0
    9.9712    7.3961   15.2439 C   0  0  0  0  0  0  0  0  0  0  0  0
    9.1866    3.3616   12.6751 N   0  0  0  0  0  0  0  0  0  0  0  0
  1  2  1  1  0  0  0
  1  3  1  0  0  0  0
  1 10  1  0  0  0  0
  3  4  1  1  0  0  0
  3  5  1  0  0  0  0
  5  6  1  6  0  0  0
  5  7  1  0  0  0  0
  7  8  1  1  0  0  0
  7  9  1  0  0  0  0
  9 10  1  0  0  0  0
  9 11  1  6  0  0  0
 11 12  1  0  0  0  0
 13 14  1  6  0  0  0
 13 15  1  0  0  0  0
 13 21  1  0  0  0  0
 16 15  1  0  0  0  0
 16 17  1  6  0  0  0
 18  2  1  1  0  0  0
 18 16  1  0  0  0  0
 19 18  1  0  0  0  0
 19 20  1  1  0  0  0
 21 19  1  0  0  0  0
 21 22  1  1  0  0  0
 23 20  1  6  0  0  0
 23 24  1  0  0  0  0
 23 28  1  0  0  0  0
 24 25  1  6  0  0  0
 24 26  1  0  0  0  0
 26 27  1  0  0  0  0
 26 32  1  6  0  0  0
 27 28  1  0  0  0  0
 27 29  1  6  0  0  0
 29 30  1  0  0  0  0
 31 32  1  6  0  0  0
 31 40  1  0  0  0  0
 33 31  1  0  0  0  0
 33 42  1  6  0  0  0
 35 33  1  0  0  0  0
 35 36  1  1  0  0  0
 37 35  1  0  0  0  0
 37 38  1  6  0  0  0
 37 39  1  0  0  0  0
 39 40  1  0  0  0  0
 39 41  1  6  0  0  0
 41 34  1  0  0  0  0
M  END
>  <CHROM.1>
-67.86895988,-176.68689499,-71.86261327,127.25351009,67.19934782,-173.66751001
-54.71738431,-161.38636540,56.73864642,12.18263121,6.14887541,10.31747266
1.10670594,0.64089992,-1.04881986

>  <Name>
2et4_lig

>  <RI>
0

>  <Rbt.Current_Directory>
/home/itssahil/PROJECTS/Mol_Feturizer/New_Systems/rnas/2et4

>  <Rbt.Executable>
rbdock ($Id: //depot/dev/client3/rdock/2013.1/src/exe/rbdock.cxx#4 $)

>  <Rbt.Library>
libRbt.so (2013.1, Build901 2013/11/27)

>  <Rbt.Parameter_File>
/export/apps/rDock/src/rDock_2013.1_src/data/scripts/dock_solv.prm

>  <Rbt.Receptor>
prm/pocket_docking_5.prm

>  <SCORE>
-12.4038

>  <SCORE.INTER>
-8.8166

>  <SCORE.INTER.CONST>
1

>  <SCORE.INTER.POLAR>
-0.848334

>  <SCORE.INTER.ROT>
9

>  <SCORE.INTER.SOLV>
12.7068

>  <SCORE.INTER.VDW>
-16.8855

>  <SCORE.INTER.norm>
-0.209919

>  <SCORE.INTRA>
-3.58892

>  <SCORE.INTRA.DIHEDRAL>
-11.4172

>  <SCORE.INTRA.DIHEDRAL.0>
21.6909

>  <SCORE.INTRA.POLAR>
0

>  <SCORE.INTRA.POLAR.0>
0

>  <SCORE.INTRA.REPUL>
0

>  <SCORE.INTRA.REPUL.0>
0

>  <SCORE.INTRA.SOLV>
-0.096145

>  <SCORE.INTRA.SOLV.lig_0>
-116.606

>  <SCORE.INTRA.VDW>
2.16774

>  <SCORE.INTRA.VDW.0>
-6.01229

>  <SCORE.INTRA.norm>
-0.0854505

>  <SCORE.RESTR>
0.0016719

>  <SCORE.RESTR.CAVITY>
0.0016719

>  <SCORE.RESTR.norm>
3.98072e-05

>  <SCORE.SYSTEM>
0

>  <SCORE.SYSTEM.CONST>
0

>  <SCORE.SYSTEM.DIHEDRAL>
0

>  <SCORE.SYSTEM.SOLV>
0

>  <SCORE.SYSTEM.norm>
0

>  <SCORE.heavy>
42

>  <SCORE.norm>
-0.29533

>  <RMSD>
5.107

$$$$
2et4_lig
 OpenBabel11021811423D
libRbt.so/2013.1/901 2013/11/27
 42 45  0  0  0  0  0  0  0  0999 V2000
   13.5260    5.9739    5.0383 C   0  0  2  0  0  0  0  0  0  0  0  0
   13.6137    5.3785    6.3344 O   0  0  0  0  0  0  0  0  0  0  0  0
   14.3484    7.2871    5.0820 C   0  0  2  0  0  0  0  0  0  0  0  0
   15.7146    7.0387    5.4659 N   0  0  0  0  0  0  0  0  0  0  0  0
   13.6658    8.2880    6.0585 C   0  0  1  0  0  0  0  0  0  0  0  0
   14.3981    9.4733    6.0835 O   0  0  0  0  0  0  0  0  0  0  0  0
   12.1924    8.5109    5.5797 C   0  0  2  0  0  0  0  0  0  0  0  0
   11.5309    9.4101    6.4442 O   0  0  0  0  0  0  0  0  0  0  0  0
   11.4108    7.1627    5.5423 C   0  0  2  0  0  0  0  0  0  0  0  0
   12.1085    6.2610    4.6781 O   0  0  0  0  0  0  0  0  0  0  0  0
    9.9448    7.3413    5.0281 C   0  0  0  0  0  0  0  0  0  0  0  0
    9.2488    6.1041    4.9507 N   0  0  0  0  0  0  0  0  0  0  0  0
   11.4066    1.6999    5.8335 C   0  0  2  0  0  0  0  0  0  0  0  0
   10.8352    0.3799    6.1281 N   0  0  0  0  0  0  0  0  0  0  0  0
   13.0252    1.6201    5.9124 C   0  0  0  0  0  0  0  0  0  0  0  0
   13.6352    3.0493    5.6081 C   0  0  2  0  0  0  0  0  0  0  0  0
   15.1062    3.0292    5.6945 N   0  0  0  0  0  0  0  0  0  0  0  0
   13.0644    4.0876    6.6322 C   0  0  2  0  0  0  0  0  0  0  0  0
   11.5019    4.1330    6.5656 C   0  0  2  0  0  0  0  0  0  0  0  0
   11.0768    5.1042    7.5530 O   0  0  0  0  0  0  0  0  0  0  0  0
   10.9158    2.7181    6.8756 C   0  0  1  0  0  0  0  0  0  0  0  0
    9.5321    2.7856    6.7957 O   0  0  0  0  0  0  0  0  0  0  0  0
   10.9121    4.8592    8.8756 C   0  0  1  0  0  0  0  0  0  0  0  0
   12.2486    4.4232    9.5308 C   0  0  2  0  0  0  0  0  0  0  0  0
   12.5108    3.0574    9.3865 O   0  0  0  0  0  0  0  0  0  0  0  0
   12.0336    4.9819   10.9252 C   0  0  1  0  0  0  0  0  0  0  0  0
   11.2920    6.3155   10.7579 C   0  0  2  0  0  0  0  0  0  0  0  0
   10.4464    5.9950    9.6533 O   0  0  0  0  0  0  0  0  0  0  0  0
   12.1972    7.5585   10.4576 C   0  0  0  0  0  0  0  0  0  0  0  0
   13.0901    7.7296   11.5901 O   0  0  0  0  0  0  0  0  0  0  0  0
   11.0933    4.1749   13.0667 C   0  0  2  0  0  0  0  0  0  0  0  0
   11.2248    3.9921   11.6835 O   0  0  0  0  0  0  0  0  0  0  0  0
   10.1650    3.0565   13.7128 C   0  0  1  0  0  0  0  0  0  0  0  0
    8.4556    7.6072   14.2511 N   0  0  0  0  0  0  0  0  0  0  0  0
   10.0670    3.3774   15.2953 C   0  0  1  0  0  0  0  0  0  0  0  0
   11.4710    3.3660   15.8661 O   0  0  0  0  0  0  0  0  0  0  0  0
    9.3786    4.8268   15.5226 C   0  0  2  0  0  0  0  0  0  0  0  0
    8.0372    4.8094   14.9781 O   0  0  0  0  0  0  0  0  0  0  0  0
   10.3375    5.9405   14.8156 C   0  0  1  0  0  0  0  0  0  0  0  0
   10.5216    5.5921   13.3642 O   0  0  0  0  0  0  0  0  0  0  0  0
    9.7614    7.3938   14.9475 C   0  0  0  0  0  0  0  0  0  0  0  0
    8.8288    3.0409   13.0308 N   0  0  0  0  0  0  0  0  0  0  0  0
  1  2  1  1  0  0  0
  1  3  1  0  0  0  0
  1 10  1  0  0  0  0
  3  4  1  1  0  0  0
  3  5  1  0  0  0  0
  5  6  1  6  0  0  0
  5  7  1  0  0  0  0
  7  8  1  1  0  0  0
  7  9  1  0  0  0  0
  9 10  1  0  0  0  0
  9 11  1  6  0  0  0
 11 12  1  0  0  0  0
 13 14  1  1  0  0  0
 13 15  1  0  0  0  0
 13 21  1  0  0  0  0
 16 15  1  0  0  0  0
 16 17  1  1  0  0  0
 18  2  1  6  0  0  0
 18 16  1  0  0  0  0
 19 18  1  0  0  0  0
 19 20  1  1  0  0  0
 21 19  1  0  0  0  0
 21 22  1  6  0  0  0
 23 20  1  6  0  0  0
 23 24  1  0  0  0  0
 23 28  1  0  0  0  0
 24 25  1  1  0  0  0
 24 26  1  0  0  0  0
 26 27  1  0  0  0  0
 26 32  1  1  0  0  0
 27 28  1  0  0  0  0
 27 29  1  6  0  0  0
 29 30  1  0  0  0  0
 31 32  1  6  0  0  0
 31 40  1  0  0  0  0
 33 31  1  0  0  0  0
 33 42  1  6  0  0  0
 35 33  1  0  0  0  0
 35 36  1  6  0  0  0
 37 35  1  0  0  0  0
 37 38  1  6  0  0  0
 37 39  1  0  0  0  0
 39 40  1  0  0  0  0
 39 41  1  6  0  0  0
 41 34  1  0  0  0  0
M  END
>  <CHROM.1>
-174.56941797,177.94954875,54.04847943,-83.40320375,61.65790278,169.05922577
-61.66045793,178.31188627,-63.81644045,11.56001594,5.23712041,9.10885877
-0.33920209,1.24561567,0.45371396

>  <Name>
2et4_lig

>  <RI>
0

>  <Rbt.Current_Directory>
/home/itssahil/PROJECTS/Mol_Feturizer/New_Systems/rnas/2et4

>  <Rbt.Executable>
rbdock ($Id: //depot/dev/client3/rdock/2013.1/src/exe/rbdock.cxx#4 $)

>  <Rbt.Library>
libRbt.so (2013.1, Build901 2013/11/27)

>  <Rbt.Parameter_File>
/export/apps/rDock/src/rDock_2013.1_src/data/scripts/dock_solv.prm

>  <Rbt.Receptor>
prm/pocket_docking_6.prm

>  <SCORE>
-9.1565

>  <SCORE.INTER>
-1.42963

>  <SCORE.INTER.CONST>
1

>  <SCORE.INTER.POLAR>
-0.870197

>  <SCORE.INTER.ROT>
9

>  <SCORE.INTER.SOLV>
8.69921

>  <SCORE.INTER.VDW>
-10.5522

>  <SCORE.INTER.norm>
-0.0340389

>  <SCORE.INTRA>
-7.72687

>  <SCORE.INTRA.DIHEDRAL>
-18.135

>  <SCORE.INTRA.DIHEDRAL.0>
21.6909

>  <SCORE.INTRA.POLAR>
0

>  <SCORE.INTRA.POLAR.0>
0

>  <SCORE.INTRA.REPUL>
0

>  <SCORE.INTRA.REPUL.0>
0

>  <SCORE.INTRA.SOLV>
0.528197

>  <SCORE.INTRA.SOLV.lig_0>
-116.606

>  <SCORE.INTRA.VDW>
1.07656

>  <SCORE.INTRA.VDW.0>
-6.01229

>  <SCORE.INTRA.norm>
-0.183973

>  <SCORE.RESTR>
0

>  <SCORE.RESTR.CAVITY>
0

>  <SCORE.RESTR.norm>
0

>  <SCORE.SYSTEM>
0

>  <SCORE.SYSTEM.CONST>
0

>  <SCORE.SYSTEM.DIHEDRAL>
0

>  <SCORE.SYSTEM.SOLV>
0

>  <SCORE.SYSTEM.norm>
0

>  <SCORE.heavy>
42

>  <SCORE.norm>
-0.218012

>  <RMSD>
5.137

$$$$
2et4_lig
 OpenBabel11021811423D
libRbt.so/2013.1/901 2013/11/27
 42 45  0  0  0  0  0  0  0  0999 V2000
   12.0240    8.2815    7.3144 C   0  0  2  0  0  0  0  0  0  0  0  0
   13.1112    8.1620    8.2341 O   0  0  0  0  0  0  0  0  0  0  0  0
   10.7322    8.4533    8.1537 C   0  0  2  0  0  0  0  0  0  0  0  0
   10.8218    9.5947    9.0282 N   0  0  0  0  0  0  0  0  0  0  0  0
   10.4672    7.1495    8.9606 C   0  0  1  0  0  0  0  0  0  0  0  0
    9.2968    7.3007    9.7016 O   0  0  0  0  0  0  0  0  0  0  0  0
   10.3796    5.9577    7.9497 C   0  0  2  0  0  0  0  0  0  0  0  0
   10.1463    4.7493    8.6416 O   0  0  0  0  0  0  0  0  0  0  0  0
   11.6955    5.8327    7.1235 C   0  0  2  0  0  0  0  0  0  0  0  0
   11.9231    7.0730    6.4478 O   0  0  0  0  0  0  0  0  0  0  0  0
   11.6282    4.6765    6.0727 C   0  0  0  0  0  0  0  0  0  0  0  0
   12.8594    4.5063    5.3825 N   0  0  0  0  0  0  0  0  0  0  0  0
   16.5028    6.4687    6.1642 C   0  0  2  0  0  0  0  0  0  0  0  0
   17.8870    6.2532    5.7246 N   0  0  0  0  0  0  0  0  0  0  0  0
   16.0381    7.9736    5.7748 C   0  0  0  0  0  0  0  0  0  0  0  0
   14.5500    8.2051    6.2639 C   0  0  2  0  0  0  0  0  0  0  0  0
   14.0943    9.5716    5.9530 N   0  0  0  0  0  0  0  0  0  0  0  0
   14.4666    7.9638    7.8091 C   0  0  2  0  0  0  0  0  0  0  0  0
   14.9448    6.5192    8.1729 C   0  0  2  0  0  0  0  0  0  0  0  0
   14.8439    6.4039    9.6136 O   0  0  0  0  0  0  0  0  0  0  0  0
   16.4163    6.3098    7.6909 C   0  0  1  0  0  0  0  0  0  0  0  0
   16.8077    5.0182    8.0139 O   0  0  0  0  0  0  0  0  0  0  0  0
   13.7789    5.9085   10.2893 C   0  0  1  0  0  0  0  0  0  0  0  0
   13.6953    4.3668   10.1420 C   0  0  2  0  0  0  0  0  0  0  0  0
   13.0467    3.9615    8.9715 O   0  0  0  0  0  0  0  0  0  0  0  0
   13.0672    4.0246   11.4803 C   0  0  1  0  0  0  0  0  0  0  0  0
   13.6756    4.9842   12.5126 C   0  0  2  0  0  0  0  0  0  0  0  0
   13.7901    6.1656   11.7195 O   0  0  0  0  0  0  0  0  0  0  0  0
   15.0566    4.5468   13.1095 C   0  0  0  0  0  0  0  0  0  0  0  0
   15.4332    5.5359   14.1039 O   0  0  0  0  0  0  0  0  0  0  0  0
   10.7626    3.4815   12.1983 C   0  0  2  0  0  0  0  0  0  0  0  0
   11.5994    4.2159   11.3471 O   0  0  0  0  0  0  0  0  0  0  0  0
    9.2339    3.6468   11.7915 C   0  0  1  0  0  0  0  0  0  0  0  0
    9.8360    3.0345   17.2603 N   0  0  0  0  0  0  0  0  0  0  0  0
    8.3658    2.7811   12.8467 C   0  0  1  0  0  0  0  0  0  0  0  0
    8.8330    1.3411   12.7719 O   0  0  0  0  0  0  0  0  0  0  0  0
    8.5766    3.3642   14.3440 C   0  0  2  0  0  0  0  0  0  0  0  0
    8.1149    4.7356   14.3921 O   0  0  0  0  0  0  0  0  0  0  0  0
   10.1585    3.2125   14.7103 C   0  0  1  0  0  0  0  0  0  0  0  0
   10.9820    3.9266   13.6740 O   0  0  0  0  0  0  0  0  0  0  0  0
   10.4964    3.7688   16.1378 C   0  0  0  0  0  0  0  0  0  0  0  0
    8.8612    5.0999   11.7737 N   0  0  0  0  0  0  0  0  0  0  0  0
  1  2  1  1  0  0  0
  1  3  1  0  0  0  0
  1 10  1  0  0  0  0
  3  4  1  1  0  0  0
  3  5  1  0  0  0  0
  5  6  1  6  0  0  0
  5  7  1  0  0  0  0
  7  8  1  1  0  0  0
  7  9  1  0  0  0  0
  9 10  1  0  0  0  0
  9 11  1  6  0  0  0
 11 12  1  0  0  0  0
 13 14  1  1  0  0  0
 13 15  1  0  0  0  0
 13 21  1  0  0  0  0
 16 15  1  0  0  0  0
 16 17  1  1  0  0  0
 18  2  1  6  0  0  0
 18 16  1  0  0  0  0
 19 18  1  0  0  0  0
 19 20  1  1  0  0  0
 21 19  1  0  0  0  0
 21 22  1  6  0  0  0
 23 20  1  1  0  0  0
 23 24  1  0  0  0  0
 23 28  1  0  0  0  0
 24 25  1  6  0  0  0
 24 26  1  0  0  0  0
 26 27  1  0  0  0  0
 26 32  1  6  0  0  0
 27 28  1  0  0  0  0
 27 29  1  6  0  0  0
 29 30  1  0  0  0  0
 31 32  1  6  0  0  0
 31 40  1  0  0  0  0
 33 31  1  0  0  0  0
 33 42  1  1  0  0  0
 35 33  1  0  0  0  0
 35 36  1  1  0  0  0
 37 35  1  0  0  0  0
 37 38  1  6  0  0  0
 37 39  1  0  0  0  0
 39 40  1  0  0  0  0
 39 41  1  1  0  0  0
 41 34  1  0  0  0  0
M  END
>  <CHROM.1>
178.82398577,-176.07592545,11.59561644,93.59197574,73.24365828,154.41698503
-177.22107399,-172.03164235,63.81805168,12.35033540,5.56916791,10.02689147
1.03988027,0.00223688,-1.11627462

>  <Name>
2et4_lig

>  <RI>
0

>  <Rbt.Current_Directory>
/home/itssahil/PROJECTS/Mol_Feturizer/New_Systems/rnas/2et4

>  <Rbt.Executable>
rbdock ($Id: //depot/dev/client3/rdock/2013.1/src/exe/rbdock.cxx#4 $)

>  <Rbt.Library>
libRbt.so (2013.1, Build901 2013/11/27)

>  <Rbt.Parameter_File>
/export/apps/rDock/src/rDock_2013.1_src/data/scripts/dock_solv.prm

>  <Rbt.Receptor>
prm/pocket_docking_5.prm

>  <SCORE>
-8.43969

>  <SCORE.INTER>
-5.89536

>  <SCORE.INTER.CONST>
1

>  <SCORE.INTER.POLAR>
-0.916515

>  <SCORE.INTER.ROT>
9

>  <SCORE.INTER.SOLV>
10.8526

>  <SCORE.INTER.VDW>
-14.0927

>  <SCORE.INTER.norm>
-0.140366

>  <SCORE.INTRA>
-2.54433

>  <SCORE.INTRA.DIHEDRAL>
-6.68083

>  <SCORE.INTRA.DIHEDRAL.0>
21.6909

>  <SCORE.INTRA.POLAR>
0

>  <SCORE.INTRA.POLAR.0>
0

>  <SCORE.INTRA.REPUL>
0

>  <SCORE.INTRA.REPUL.0>
0

>  <SCORE.INTRA.SOLV>
1.38324

>  <SCORE.INTRA.SOLV.lig_0>
-116.606

>  <SCORE.INTRA.VDW>
0.104467

>  <SCORE.INTRA.VDW.0>
-6.01229

>  <SCORE.INTRA.norm>
-0.0605793

>  <SCORE.RESTR>
0

>  <SCORE.RESTR.CAVITY>
0

>  <SCORE.RESTR.norm>
0

>  <SCORE.SYSTEM>
0

>  <SCORE.SYSTEM.CONST>
0

>  <SCORE.SYSTEM.DIHEDRAL>
0

>  <SCORE.SYSTEM.SOLV>
0

>  <SCORE.SYSTEM.norm>
0

>  <SCORE.heavy>
42

>  <SCORE.norm>
-0.200945

>  <RMSD>
5.141

$$$$
2et4_lig
 OpenBabel11021811423D
libRbt.so/2013.1/901 2013/11/27
 42 45  0  0  0  0  0  0  0  0999 V2000
   14.9838    6.1141    7.5735 C   0  0  2  0  0  0  0  0  0  0  0  0
   15.0688    7.4051    6.9666 O   0  0  0  0  0  0  0  0  0  0  0  0
   15.7049    6.2044    8.9427 C   0  0  2  0  0  0  0  0  0  0  0  0
   15.1247    7.2269    9.7755 N   0  0  0  0  0  0  0  0  0  0  0  0
   17.2206    6.4669    8.7082 C   0  0  1  0  0  0  0  0  0  0  0  0
   17.8690    6.5315    9.9400 O   0  0  0  0  0  0  0  0  0  0  0  0
   17.7812    5.3204    7.8020 C   0  0  2  0  0  0  0  0  0  0  0  0
   19.1569    5.5230    7.5569 O   0  0  0  0  0  0  0  0  0  0  0  0
   17.0187    5.2632    6.4437 C   0  0  2  0  0  0  0  0  0  0  0  0
   15.6264    5.0783    6.7158 O   0  0  0  0  0  0  0  0  0  0  0  0
   17.5251    4.1012    5.5279 C   0  0  0  0  0  0  0  0  0  0  0  0
   17.0766    4.2409    4.1861 N   0  0  0  0  0  0  0  0  0  0  0  0
   12.8602    9.5605    3.9449 C   0  0  2  0  0  0  0  0  0  0  0  0
   12.2308    9.8802    2.6575 N   0  0  0  0  0  0  0  0  0  0  0  0
   14.4562    9.3597    3.7333 C   0  0  0  0  0  0  0  0  0  0  0  0
   15.1273    9.0010    5.1219 C   0  0  2  0  0  0  0  0  0  0  0  0
   16.5772    8.7841    4.9716 N   0  0  0  0  0  0  0  0  0  0  0  0
   14.4616    7.7081    5.7031 C   0  0  2  0  0  0  0  0  0  0  0  0
   12.9191    7.9060    5.8747 C   0  0  2  0  0  0  0  0  0  0  0  0
   12.4009    6.6589    6.3994 O   0  0  0  0  0  0  0  0  0  0  0  0
   12.2713    8.2514    4.4953 C   0  0  1  0  0  0  0  0  0  0  0  0
   10.9083    8.4347    4.6805 O   0  0  0  0  0  0  0  0  0  0  0  0
   11.4665    6.5447    7.3742 C   0  0  1  0  0  0  0  0  0  0  0  0
   12.0223    7.0342    8.7369 C   0  0  2  0  0  0  0  0  0  0  0  0
   12.7464    6.0517    9.4192 O   0  0  0  0  0  0  0  0  0  0  0  0
   10.7377    7.5550    9.3546 C   0  0  1  0  0  0  0  0  0  0  0  0
    9.9299    8.1981    8.2186 C   0  0  2  0  0  0  0  0  0  0  0  0
   10.2522    7.3103    7.1482 O   0  0  0  0  0  0  0  0  0  0  0  0
   10.3047    9.6810    7.8789 C   0  0  0  0  0  0  0  0  0  0  0  0
   10.4850   10.3828    9.1375 O   0  0  0  0  0  0  0  0  0  0  0  0
   10.5726    5.8087   11.0994 C   0  0  2  0  0  0  0  0  0  0  0  0
   10.0253    6.3945    9.9499 O   0  0  0  0  0  0  0  0  0  0  0  0
   10.6757    4.2284   10.9509 C   0  0  1  0  0  0  0  0  0  0  0  0
    9.1234    7.5822   14.9662 N   0  0  0  0  0  0  0  0  0  0  0  0
   11.2950    3.6613   12.3334 C   0  0  1  0  0  0  0  0  0  0  0  0
   12.6469    4.3128   12.5463 O   0  0  0  0  0  0  0  0  0  0  0  0
   10.3021    4.0091   13.5662 C   0  0  2  0  0  0  0  0  0  0  0  0
    9.0226    3.3688   13.3445 O   0  0  0  0  0  0  0  0  0  0  0  0
   10.1921    5.6334   13.6630 C   0  0  1  0  0  0  0  0  0  0  0  0
    9.7168    6.1813   12.3455 O   0  0  0  0  0  0  0  0  0  0  0  0
    9.2319    6.0988   14.8130 C   0  0  0  0  0  0  0  0  0  0  0  0
    9.3277    3.6535   10.6294 N   0  0  0  0  0  0  0  0  0  0  0  0
  1  2  1  6  0  0  0
  1  3  1  0  0  0  0
  1 10  1  0  0  0  0
  3  4  1  1  0  0  0
  3  5  1  0  0  0  0
  5  6  1  1  0  0  0
  5  7  1  0  0  0  0
  7  8  1  6  0  0  0
  7  9  1  0  0  0  0
  9 10  1  0  0  0  0
  9 11  1  6  0  0  0
 11 12  1  0  0  0  0
 13 14  1  6  0  0  0
 13 15  1  0  0  0  0
 13 21  1  0  0  0  0
 16 15  1  0  0  0  0
 16 17  1  6  0  0  0
 18  2  1  1  0  0  0
 18 16  1  0  0  0  0
 19 18  1  0  0  0  0
 19 20  1  6  0  0  0
 21 19  1  0  0  0  0
 21 22  1  1  0  0  0
 23 20  1  6  0  0  0
 23 24  1  0  0  0  0
 23 28  1  0  0  0  0
 24 25  1  1  0  0  0
 24 26  1  0  0  0  0
 26 27  1  0  0  0  0
 26 32  1  6  0  0  0
 27 28  1  0  0  0  0
 27 29  1  6  0  0  0
 29 30  1  0  0  0  0
 31 32  1  6  0  0  0
 31 40  1  0  0  0  0
 33 31  1  0  0  0  0
 33 42  1  1  0  0  0
 35 33  1  0  0  0  0
 35 36  1  1  0  0  0
 37 35  1  0  0  0  0
 37 38  1  6  0  0  0
 37 39  1  0  0  0  0
 39 40  1  0  0  0  0
 39 41  1  1  0  0  0
 41 34  1  0  0  0  0
M  END
>  <CHROM.1>
-177.57956740,-165.62740764,-161.33103151,138.32834512,-67.64857910,70.53537834
-42.66572187,-130.72384296,178.52225301,12.95224847,6.62993669,8.47907153
-0.86271086,-0.35746259,2.09993927

>  <Name>
2et4_lig

>  <RI>
0

>  <Rbt.Current_Directory>
/home/itssahil/PROJECTS/Mol_Feturizer/New_Systems/rnas/2et4

>  <Rbt.Executable>
rbdock ($Id: //depot/dev/client3/rdock/2013.1/src/exe/rbdock.cxx#4 $)

>  <Rbt.Library>
libRbt.so (2013.1, Build901 2013/11/27)

>  <Rbt.Parameter_File>
/export/apps/rDock/src/rDock_2013.1_src/data/scripts/dock_solv.prm

>  <Rbt.Receptor>
prm/pocket_docking_2.prm

>  <SCORE>
-2.49091

>  <SCORE.INTER>
-2.68277

>  <SCORE.INTER.CONST>
1

>  <SCORE.INTER.POLAR>
-0.747781

>  <SCORE.INTER.ROT>
9

>  <SCORE.INTER.SOLV>
16.4346

>  <SCORE.INTER.VDW>
-14.3741

>  <SCORE.INTER.norm>
-0.0638755

>  <SCORE.INTRA>
-2.73782

>  <SCORE.INTRA.DIHEDRAL>
-5.14989

>  <SCORE.INTRA.DIHEDRAL.0>
21.6909

>  <SCORE.INTRA.POLAR>
0

>  <SCORE.INTRA.POLAR.0>
0

>  <SCORE.INTRA.REPUL>
0

>  <SCORE.INTRA.REPUL.0>
0

>  <SCORE.INTRA.SOLV>
-1.72251

>  <SCORE.INTRA.SOLV.lig_0>
-116.606

>  <SCORE.INTRA.VDW>
0.698381

>  <SCORE.INTRA.VDW.0>
-6.01229

>  <SCORE.INTRA.norm>
-0.0651861

>  <SCORE.RESTR>
2.92968

>  <SCORE.RESTR.CAVITY>
2.92968

>  <SCORE.RESTR.norm>
0.0697542

>  <SCORE.SYSTEM>
0

>  <SCORE.SYSTEM.CONST>
0

>  <SCORE.SYSTEM.DIHEDRAL>
0

>  <SCORE.SYSTEM.SOLV>
0

>  <SCORE.SYSTEM.norm>
0

>  <SCORE.heavy>
42

>  <SCORE.norm>
-0.0593074

>  <RMSD>
5.167

$$$$
2et4_lig
 OpenBabel11021811423D
libRbt.so/2013.1/901 2013/11/27
 42 45  0  0  0  0  0  0  0  0999 V2000
   15.5396    4.7987    6.4158 C   0  0  2  0  0  0  0  0  0  0  0  0
   15.1523    6.1215    6.7929 O   0  0  0  0  0  0  0  0  0  0  0  0
   15.7415    3.9913    7.7235 C   0  0  2  0  0  0  0  0  0  0  0  0
   14.5476    3.9904    8.5299 N   0  0  0  0  0  0  0  0  0  0  0  0
   16.9477    4.5811    8.5099 C   0  0  1  0  0  0  0  0  0  0  0  0
   17.1370    3.8435    9.6768 O   0  0  0  0  0  0  0  0  0  0  0  0
   18.2037    4.5478    7.5765 C   0  0  2  0  0  0  0  0  0  0  0  0
   19.3239    5.0823    8.2494 O   0  0  0  0  0  0  0  0  0  0  0  0
   17.9483    5.3631    6.2727 C   0  0  2  0  0  0  0  0  0  0  0  0
   16.7986    4.8184    5.6183 O   0  0  0  0  0  0  0  0  0  0  0  0
   19.1689    5.3174    5.2962 C   0  0  0  0  0  0  0  0  0  0  0  0
   19.4888    3.9905    4.8987 N   0  0  0  0  0  0  0  0  0  0  0  0
   13.8028    9.1634    4.0396 C   0  0  2  0  0  0  0  0  0  0  0  0
   12.9021    9.9930    3.2296 N   0  0  0  0  0  0  0  0  0  0  0  0
   13.6470    7.6085    3.6034 C   0  0  0  0  0  0  0  0  0  0  0  0
   14.6097    6.7170    4.4898 C   0  0  2  0  0  0  0  0  0  0  0  0
   14.4818    5.2902    4.1442 N   0  0  0  0  0  0  0  0  0  0  0  0
   14.2628    6.9227    6.0031 C   0  0  2  0  0  0  0  0  0  0  0  0
   14.3891    8.4301    6.4026 C   0  0  2  0  0  0  0  0  0  0  0  0
   14.0359    8.5143    7.8051 O   0  0  0  0  0  0  0  0  0  0  0  0
   13.4279    9.2945    5.5249 C   0  0  1  0  0  0  0  0  0  0  0  0
   13.5715   10.6253    5.8911 O   0  0  0  0  0  0  0  0  0  0  0  0
   13.0120    7.8539    8.3983 C   0  0  1  0  0  0  0  0  0  0  0  0
   12.9202    8.2093    9.9052 C   0  0  2  0  0  0  0  0  0  0  0  0
   13.7771    7.4447   10.7028 O   0  0  0  0  0  0  0  0  0  0  0  0
   11.4219    8.0690   10.1010 C   0  0  1  0  0  0  0  0  0  0  0  0
   10.7576    8.5938    8.8204 C   0  0  2  0  0  0  0  0  0  0  0  0
   11.6988    8.1422    7.8468 O   0  0  0  0  0  0  0  0  0  0  0  0
   10.5496   10.1453    8.7545 C   0  0  0  0  0  0  0  0  0  0  0  0
    9.9244   10.5532   10.0002 O   0  0  0  0  0  0  0  0  0  0  0  0
   11.4966    6.0679   11.5541 C   0  0  2  0  0  0  0  0  0  0  0  0
   11.1330    6.6281   10.3220 O   0  0  0  0  0  0  0  0  0  0  0  0
   11.3642    4.4831   11.5312 C   0  0  1  0  0  0  0  0  0  0  0  0
    9.9492    8.3642   15.0372 N   0  0  0  0  0  0  0  0  0  0  0  0
   11.7845    3.9506   12.9997 C   0  0  1  0  0  0  0  0  0  0  0  0
   13.2016    4.4098   13.2795 O   0  0  0  0  0  0  0  0  0  0  0  0
   10.7694    4.5462   14.1138 C   0  0  2  0  0  0  0  0  0  0  0  0
    9.4260    4.0865   13.8306 O   0  0  0  0  0  0  0  0  0  0  0  0
   10.9057    6.1711   14.0815 C   0  0  1  0  0  0  0  0  0  0  0  0
   10.6194    6.6688   12.6914 O   0  0  0  0  0  0  0  0  0  0  0  0
    9.9470    6.8707   15.1075 C   0  0  0  0  0  0  0  0  0  0  0  0
    9.9708    4.0895   11.1382 N   0  0  0  0  0  0  0  0  0  0  0  0
  1  2  1  1  0  0  0
  1  3  1  0  0  0  0
  1 10  1  0  0  0  0
  3  4  1  1  0  0  0
  3  5  1  0  0  0  0
  5  6  1  1  0  0  0
  5  7  1  0  0  0  0
  7  8  1  1  0  0  0
  7  9  1  0  0  0  0
  9 10  1  0  0  0  0
  9 11  1  6  0  0  0
 11 12  1  0  0  0  0
 13 14  1  6  0  0  0
 13 15  1  0  0  0  0
 13 21  1  0  0  0  0
 16 15  1  0  0  0  0
 16 17  1  6  0  0  0
 18  2  1  1  0  0  0
 18 16  1  0  0  0  0
 19 18  1  0  0  0  0
 19 20  1  1  0  0  0
 21 19  1  0  0  0  0
 21 22  1  1  0  0  0
 23 20  1  6  0  0  0
 23 24  1  0  0  0  0
 23 28  1  0  0  0  0
 24 25  1  1  0  0  0
 24 26  1  0  0  0  0
 26 27  1  0  0  0  0
 26 32  1  6  0  0  0
 27 28  1  0  0  0  0
 27 29  1  1  0  0  0
 29 30  1  0  0  0  0
 31 32  1  6  0  0  0
 31 40  1  0  0  0  0
 33 31  1  0  0  0  0
 33 42  1  1  0  0  0
 35 33  1  0  0  0  0
 35 36  1  1  0  0  0
 37 35  1  0  0  0  0
 37 38  1  6  0  0  0
 37 39  1  0  0  0  0
 39 40  1  0  0  0  0
 39 41  1  1  0  0  0
 41 34  1  0  0  0  0
M  END
>  <CHROM.1>
-147.34520437,59.54107735,-40.05606900,-41.74225050,-178.90835413,72.99682948
-49.23611368,-169.68027729,-175.10110520,13.56118178,6.54300602,8.76898442
-0.69285129,-0.64328939,2.17904205

>  <Name>
2et4_lig

>  <RI>
0

>  <Rbt.Current_Directory>
/home/itssahil/PROJECTS/Mol_Feturizer/New_Systems/rnas/2et4

>  <Rbt.Executable>
rbdock ($Id: //depot/dev/client3/rdock/2013.1/src/exe/rbdock.cxx#4 $)

>  <Rbt.Library>
libRbt.so (2013.1, Build901 2013/11/27)

>  <Rbt.Parameter_File>
/export/apps/rDock/src/rDock_2013.1_src/data/scripts/dock_solv.prm

>  <Rbt.Receptor>
prm/pocket_docking_3.prm

>  <SCORE>
-0.120851

>  <SCORE.INTER>
1.57489

>  <SCORE.INTER.CONST>
1

>  <SCORE.INTER.POLAR>
-0.273654

>  <SCORE.INTER.ROT>
9

>  <SCORE.INTER.SOLV>
10.4859

>  <SCORE.INTER.VDW>
-11.1332

>  <SCORE.INTER.norm>
0.0374975

>  <SCORE.INTRA>
-2.12949

>  <SCORE.INTRA.DIHEDRAL>
-12.3409

>  <SCORE.INTRA.DIHEDRAL.0>
21.6909

>  <SCORE.INTRA.POLAR>
0

>  <SCORE.INTRA.POLAR.0>
0

>  <SCORE.INTRA.REPUL>
0

>  <SCORE.INTRA.REPUL.0>
0

>  <SCORE.INTRA.SOLV>
-1.06586

>  <SCORE.INTRA.SOLV.lig_0>
-116.606

>  <SCORE.INTRA.VDW>
4.57391

>  <SCORE.INTRA.VDW.0>
-6.01229

>  <SCORE.INTRA.norm>
-0.0507021

>  <SCORE.RESTR>
0.433743

>  <SCORE.RESTR.CAVITY>
0.433743

>  <SCORE.RESTR.norm>
0.0103272

>  <SCORE.SYSTEM>
0

>  <SCORE.SYSTEM.CONST>
0

>  <SCORE.SYSTEM.DIHEDRAL>
0

>  <SCORE.SYSTEM.SOLV>
0

>  <SCORE.SYSTEM.norm>
0

>  <SCORE.heavy>
42

>  <SCORE.norm>
-0.00287739

>  <RMSD>
5.224

$$$$
2et4_lig
 OpenBabel11021811423D
libRbt.so/2013.1/901 2013/11/27
 42 45  0  0  0  0  0  0  0  0999 V2000
   15.4682    7.9167    7.6147 C   0  0  2  0  0  0  0  0  0  0  0  0
   14.6922    7.5324    6.4779 O   0  0  0  0  0  0  0  0  0  0  0  0
   16.2976    6.6787    8.0416 C   0  0  2  0  0  0  0  0  0  0  0  0
   17.1265    6.2045    6.9629 N   0  0  0  0  0  0  0  0  0  0  0  0
   15.3346    5.5627    8.5398 C   0  0  1  0  0  0  0  0  0  0  0  0
   16.0836    4.4571    8.9381 O   0  0  0  0  0  0  0  0  0  0  0  0
   14.4716    6.1465    9.7078 C   0  0  2  0  0  0  0  0  0  0  0  0
   13.5754    5.1665   10.1872 O   0  0  0  0  0  0  0  0  0  0  0  0
   13.6658    7.3936    9.2331 C   0  0  2  0  0  0  0  0  0  0  0  0
   14.5904    8.3642    8.7331 O   0  0  0  0  0  0  0  0  0  0  0  0
   12.8227    8.0291   10.3866 C   0  0  0  0  0  0  0  0  0  0  0  0
   12.0489    9.1347    9.9394 N   0  0  0  0  0  0  0  0  0  0  0  0
   15.7674   10.5194    3.5494 C   0  0  2  0  0  0  0  0  0  0  0  0
   15.8518   11.2311    2.2680 N   0  0  0  0  0  0  0  0  0  0  0  0
   16.3745    9.0244    3.3805 C   0  0  0  0  0  0  0  0  0  0  0  0
   16.2677    8.2568    4.7614 C   0  0  2  0  0  0  0  0  0  0  0  0
   16.7856    6.8819    4.6473 N   0  0  0  0  0  0  0  0  0  0  0  0
   14.7707    8.2165    5.2198 C   0  0  2  0  0  0  0  0  0  0  0  0
   14.1900    9.6633    5.3505 C   0  0  2  0  0  0  0  0  0  0  0  0
   12.8085    9.5159    5.7613 O   0  0  0  0  0  0  0  0  0  0  0  0
   14.2956   10.4039    3.9787 C   0  0  1  0  0  0  0  0  0  0  0  0
   13.7871   11.6863    4.1282 O   0  0  0  0  0  0  0  0  0  0  0  0
   12.3350    8.5591    6.5960 C   0  0  1  0  0  0  0  0  0  0  0  0
   10.8388    8.8000    6.9259 C   0  0  2  0  0  0  0  0  0  0  0  0
   10.6466    9.7048    7.9744 O   0  0  0  0  0  0  0  0  0  0  0  0
   10.3924    7.3617    7.1119 C   0  0  1  0  0  0  0  0  0  0  0  0
   11.1532    6.5247    6.0739 C   0  0  2  0  0  0  0  0  0  0  0  0
   12.4086    7.2043    6.0756 O   0  0  0  0  0  0  0  0  0  0  0  0
   10.5159    6.4811    4.6433 C   0  0  0  0  0  0  0  0  0  0  0  0
   11.5356    6.0003    3.7278 O   0  0  0  0  0  0  0  0  0  0  0  0
   10.4451    5.6510    8.8986 C   0  0  2  0  0  0  0  0  0  0  0  0
   10.7366    6.9630    8.5017 O   0  0  0  0  0  0  0  0  0  0  0  0
    8.8846    5.3544    8.8164 C   0  0  1  0  0  0  0  0  0  0  0  0
   10.6953    4.8760   13.3363 N   0  0  0  0  0  0  0  0  0  0  0  0
    8.6643    3.8313    9.3146 C   0  0  1  0  0  0  0  0  0  0  0  0
    9.4757    2.9196    8.4157 O   0  0  0  0  0  0  0  0  0  0  0  0
    9.1471    3.6791   10.8541 C   0  0  2  0  0  0  0  0  0  0  0  0
    8.3521    4.5514   11.6926 O   0  0  0  0  0  0  0  0  0  0  0  0
   10.7398    4.0267   10.9042 C   0  0  1  0  0  0  0  0  0  0  0  0
   10.9684    5.4036   10.3439 O   0  0  0  0  0  0  0  0  0  0  0  0
   11.3244    3.9373   12.3573 C   0  0  0  0  0  0  0  0  0  0  0  0
    8.1271    6.3576    9.6352 N   0  0  0  0  0  0  0  0  0  0  0  0
  1  2  1  6  0  0  0
  1  3  1  0  0  0  0
  1 10  1  0  0  0  0
  3  4  1  6  0  0  0
  3  5  1  0  0  0  0
  5  6  1  1  0  0  0
  5  7  1  0  0  0  0
  7  8  1  6  0  0  0
  7  9  1  0  0  0  0
  9 10  1  0  0  0  0
  9 11  1  1  0  0  0
 11 12  1  0  0  0  0
 13 14  1  6  0  0  0
 13 15  1  0  0  0  0
 13 21  1  0  0  0  0
 16 15  1  0  0  0  0
 16 17  1  6  0  0  0
 18  2  1  1  0  0  0
 18 16  1  0  0  0  0
 19 18  1  0  0  0  0
 19 20  1  6  0  0  0
 21 19  1  0  0  0  0
 21 22  1  1  0  0  0
 23 20  1  6  0  0  0
 23 24  1  0  0  0  0
 23 28  1  0  0  0  0
 24 25  1  1  0  0  0
 24 26  1  0  0  0  0
 26 27  1  0  0  0  0
 26 32  1  1  0  0  0
 27 28  1  0  0  0  0
 27 29  1  6  0  0  0
 29 30  1  0  0  0  0
 31 32  1  1  0  0  0
 31 40  1  0  0  0  0
 33 31  1  0  0  0  0
 33 42  1  1  0  0  0
 35 33  1  0  0  0  0
 35 36  1  6  0  0  0
 37 35  1  0  0  0  0
 37 38  1  1  0  0  0
 37 39  1  0  0  0  0
 39 40  1  0  0  0  0
 39 41  1  1  0  0  0
 41 34  1  0  0  0  0
M  END
>  <CHROM.1>
-122.65868923,-177.73213426,54.17190054,35.50075614,174.05261659,-178.50089378
163.54218678,-61.25828611,-60.52398235,12.70377751,7.04340974,7.63103667
-0.97221903,0.00567073,2.20791148

>  <Name>
2et4_lig

>  <RI>
0

>  <Rbt.Current_Directory>
/home/itssahil/PROJECTS/Mol_Feturizer/New_Systems/rnas/2et4

>  <Rbt.Executable>
rbdock ($Id: //depot/dev/client3/rdock/2013.1/src/exe/rbdock.cxx#4 $)

>  <Rbt.Library>
libRbt.so (2013.1, Build901 2013/11/27)

>  <Rbt.Parameter_File>
/export/apps/rDock/src/rDock_2013.1_src/data/scripts/dock_solv.prm

>  <Rbt.Receptor>
prm/pocket_docking_2.prm

>  <SCORE>
5.50885

>  <SCORE.INTER>
-2.36067

>  <SCORE.INTER.CONST>
1

>  <SCORE.INTER.POLAR>
-0.376033

>  <SCORE.INTER.ROT>
9

>  <SCORE.INTER.SOLV>
10.9745

>  <SCORE.INTER.VDW>
-13.5785

>  <SCORE.INTER.norm>
-0.0562063

>  <SCORE.INTRA>
4.18389

>  <SCORE.INTRA.DIHEDRAL>
-10.4788

>  <SCORE.INTRA.DIHEDRAL.0>
21.6909

>  <SCORE.INTRA.POLAR>
0

>  <SCORE.INTRA.POLAR.0>
0

>  <SCORE.INTRA.REPUL>
0.237887

>  <SCORE.INTRA.REPUL.0>
0

>  <SCORE.INTRA.SOLV>
8.28016

>  <SCORE.INTRA.SOLV.lig_0>
-116.606

>  <SCORE.INTRA.VDW>
4.0938

>  <SCORE.INTRA.VDW.0>
-6.01229

>  <SCORE.INTRA.norm>
0.0996164

>  <SCORE.RESTR>
3.68562

>  <SCORE.RESTR.CAVITY>
3.68562

>  <SCORE.RESTR.norm>
0.0877529

>  <SCORE.SYSTEM>
0

>  <SCORE.SYSTEM.CONST>
0

>  <SCORE.SYSTEM.DIHEDRAL>
0

>  <SCORE.SYSTEM.SOLV>
0

>  <SCORE.SYSTEM.norm>
0

>  <SCORE.heavy>
42

>  <SCORE.norm>
0.131163

>  <RMSD>
5.238

$$$$
2et4_lig
 OpenBabel11021811423D
libRbt.so/2013.1/901 2013/11/27
 42 45  0  0  0  0  0  0  0  0999 V2000
   13.9764    8.0163    6.8369 C   0  0  2  0  0  0  0  0  0  0  0  0
   12.8117    8.2418    6.0401 O   0  0  0  0  0  0  0  0  0  0  0  0
   15.1825    8.6024    6.0594 C   0  0  2  0  0  0  0  0  0  0  0  0
   14.9926   10.0014    5.7723 N   0  0  0  0  0  0  0  0  0  0  0  0
   15.3956    7.7866    4.7516 C   0  0  1  0  0  0  0  0  0  0  0  0
   16.4902    8.3054    4.0628 O   0  0  0  0  0  0  0  0  0  0  0  0
   15.5968    6.2837    5.1398 C   0  0  2  0  0  0  0  0  0  0  0  0
   15.7872    5.5030    3.9789 O   0  0  0  0  0  0  0  0  0  0  0  0
   14.3647    5.7440    5.9275 C   0  0  2  0  0  0  0  0  0  0  0  0
   14.1778    6.5609    7.0871 O   0  0  0  0  0  0  0  0  0  0  0  0
   14.5487    4.2550    6.3684 C   0  0  0  0  0  0  0  0  0  0  0  0
   13.3510    3.6995    6.8956 N   0  0  0  0  0  0  0  0  0  0  0  0
    8.5808    8.2523    6.9086 C   0  0  2  0  0  0  0  0  0  0  0  0
    7.2476    7.7721    7.2928 N   0  0  0  0  0  0  0  0  0  0  0  0
    9.0951    7.4381    5.6029 C   0  0  0  0  0  0  0  0  0  0  0  0
   10.5389    7.9499    5.2019 C   0  0  2  0  0  0  0  0  0  0  0  0
   11.0572    7.2177    4.0327 N   0  0  0  0  0  0  0  0  0  0  0  0
   11.5133    7.7601    6.4131 C   0  0  2  0  0  0  0  0  0  0  0  0
   10.9903    8.5264    7.6729 C   0  0  2  0  0  0  0  0  0  0  0  0
   11.9467    8.2764    8.7321 O   0  0  0  0  0  0  0  0  0  0  0  0
    9.5692    8.0047    8.0599 C   0  0  1  0  0  0  0  0  0  0  0  0
    9.1261    8.7106    9.1694 O   0  0  0  0  0  0  0  0  0  0  0  0
   11.6929    8.3768   10.0594 C   0  0  1  0  0  0  0  0  0  0  0  0
   12.9310    7.9593   10.8952 C   0  0  2  0  0  0  0  0  0  0  0  0
   13.0197    6.5779   11.0924 O   0  0  0  0  0  0  0  0  0  0  0  0
   12.7286    8.8573   12.1016 C   0  0  1  0  0  0  0  0  0  0  0  0
   12.1746   10.1883   11.5741 C   0  0  2  0  0  0  0  0  0  0  0  0
   11.3446    9.7120   10.5149 O   0  0  0  0  0  0  0  0  0  0  0  0
   13.2461   11.2097   11.0608 C   0  0  0  0  0  0  0  0  0  0  0  0
   13.9049   10.6090    9.9144 O   0  0  0  0  0  0  0  0  0  0  0  0
   10.4454    8.0227   12.5622 C   0  0  2  0  0  0  0  0  0  0  0  0
   11.7651    8.1788   13.0072 O   0  0  0  0  0  0  0  0  0  0  0  0
    9.4119    8.1291   13.7665 C   0  0  1  0  0  0  0  0  0  0  0  0
    7.6188    4.5572    9.9727 N   0  0  0  0  0  0  0  0  0  0  0  0
    7.9345    7.9133   13.1443 C   0  0  1  0  0  0  0  0  0  0  0  0
    7.7073    8.9782   12.0898 O   0  0  0  0  0  0  0  0  0  0  0  0
    7.8234    6.4366   12.4861 C   0  0  2  0  0  0  0  0  0  0  0  0
    8.0344    5.4385   13.5133 O   0  0  0  0  0  0  0  0  0  0  0  0
    8.9213    6.3530   11.2829 C   0  0  1  0  0  0  0  0  0  0  0  0
   10.2881    6.6567   11.8320 O   0  0  0  0  0  0  0  0  0  0  0  0
    8.9279    4.9516   10.5777 C   0  0  0  0  0  0  0  0  0  0  0  0
    9.7559    7.1272   14.8289 N   0  0  0  0  0  0  0  0  0  0  0  0
  1  2  1  6  0  0  0
  1  3  1  0  0  0  0
  1 10  1  0  0  0  0
  3  4  1  6  0  0  0
  3  5  1  0  0  0  0
  5  6  1  1  0  0  0
  5  7  1  0  0  0  0
  7  8  1  6  0  0  0
  7  9  1  0  0  0  0
  9 10  1  0  0  0  0
  9 11  1  1  0  0  0
 11 12  1  0  0  0  0
 13 14  1  1  0  0  0
 13 15  1  0  0  0  0
 13 21  1  0  0  0  0
 16 15  1  0  0  0  0
 16 17  1  6  0  0  0
 18  2  1  6  0  0  0
 18 16  1  0  0  0  0
 19 18  1  0  0  0  0
 19 20  1  1  0  0  0
 21 19  1  0  0  0  0
 21 22  1  1  0  0  0
 23 20  1  6  0  0  0
 23 24  1  0  0  0  0
 23 28  1  0  0  0  0
 24 25  1  1  0  0  0
 24 26  1  0  0  0  0
 26 27  1  0  0  0  0
 26 32  1  1  0  0  0
 27 28  1  0  0  0  0
 27 29  1  6  0  0  0
 29 30  1  0  0  0  0
 31 32  1  1  0  0  0
 31 40  1  0  0  0  0
 33 31  1  0  0  0  0
 33 42  1  1  0  0  0
 35 33  1  0  0  0  0
 35 36  1  6  0  0  0
 37 35  1  0  0  0  0
 37 38  1  1  0  0  0
 37 39  1  0  0  0  0
 39 40  1  0  0  0  0
 39 41  1  1  0  0  0
 41 34  1  0  0  0  0
M  END
>  <CHROM.1>
176.31526732,-170.64953571,-169.56865004,-157.75653730,176.85901872,-66.69877839
63.80688619,-145.91833196,58.91141619,11.59195009,7.60050224,8.92626341,-0.87552200
0.38280519,1.23548498

>  <Name>
2et4_lig

>  <RI>
3.65815e+07

>  <Rbt.Current_Directory>
/home/itssahil/PROJECTS/Mol_Feturizer/New_Systems/rnas/2et4

>  <Rbt.Executable>
rbdock ($Id: //depot/dev/client3/rdock/2013.1/src/exe/rbdock.cxx#4 $)

>  <Rbt.Library>
libRbt.so (2013.1, Build901 2013/11/27)

>  <Rbt.Parameter_File>
/export/apps/rDock/src/rDock_2013.1_src/data/scripts/dock_solv.prm

>  <Rbt.Receptor>
prm/pocket_docking_4.prm

>  <SCORE>
-12.8752

>  <SCORE.INTER>
-7.42472

>  <SCORE.INTER.CONST>
1

>  <SCORE.INTER.POLAR>
-1.82654

>  <SCORE.INTER.ROT>
9

>  <SCORE.INTER.SOLV>
15.2279

>  <SCORE.INTER.VDW>
-13.5373

>  <SCORE.INTER.norm>
-0.176779

>  <SCORE.INTRA>
-5.46665

>  <SCORE.INTRA.DIHEDRAL>
-13.7873

>  <SCORE.INTRA.DIHEDRAL.0>
21.6909

>  <SCORE.INTRA.POLAR>
0

>  <SCORE.INTRA.POLAR.0>
0

>  <SCORE.INTRA.REPUL>
0.00139789

>  <SCORE.INTRA.REPUL.0>
0

>  <SCORE.INTRA.SOLV>
-1.88204

>  <SCORE.INTRA.SOLV.lig_0>
-116.606

>  <SCORE.INTRA.VDW>
2.36103

>  <SCORE.INTRA.VDW.0>
-6.01229

>  <SCORE.INTRA.norm>
-0.130158

>  <SCORE.RESTR>
0.0161557

>  <SCORE.RESTR.CAVITY>
0.0161557

>  <SCORE.RESTR.norm>
0.000384659

>  <SCORE.SYSTEM>
0

>  <SCORE.SYSTEM.CONST>
0

>  <SCORE.SYSTEM.DIHEDRAL>
0

>  <SCORE.SYSTEM.SOLV>
0

>  <SCORE.SYSTEM.norm>
0

>  <SCORE.heavy>
42

>  <SCORE.norm>
-0.306553

>  <RMSD>
5.269

$$$$
2et4_lig
 OpenBabel11021811423D
libRbt.so/2013.1/901 2013/11/27
 42 45  0  0  0  0  0  0  0  0999 V2000
   14.5138    8.6263    7.7212 C   0  0  2  0  0  0  0  0  0  0  0  0
   13.2333    8.4401    7.1148 O   0  0  0  0  0  0  0  0  0  0  0  0
   15.3938    7.4181    7.3108 C   0  0  2  0  0  0  0  0  0  0  0  0
   15.4915    7.3020    5.8781 N   0  0  0  0  0  0  0  0  0  0  0  0
   14.8089    6.1202    7.9390 C   0  0  1  0  0  0  0  0  0  0  0  0
   15.6110    5.0381    7.5819 O   0  0  0  0  0  0  0  0  0  0  0  0
   14.7350    6.3176    9.4899 C   0  0  2  0  0  0  0  0  0  0  0  0
   14.2013    5.1627   10.1022 O   0  0  0  0  0  0  0  0  0  0  0  0
   13.8494    7.5484    9.8514 C   0  0  2  0  0  0  0  0  0  0  0  0
   14.3954    8.7021    9.2050 O   0  0  0  0  0  0  0  0  0  0  0  0
   13.7863    7.8012   11.3933 C   0  0  0  0  0  0  0  0  0  0  0  0
   15.0293    8.2537   11.9142 N   0  0  0  0  0  0  0  0  0  0  0  0
   11.6693    9.2881    3.1791 C   0  0  2  0  0  0  0  0  0  0  0  0
   11.4724    9.2192    1.7258 N   0  0  0  0  0  0  0  0  0  0  0  0
   13.2065    9.6964    3.4994 C   0  0  0  0  0  0  0  0  0  0  0  0
   13.4167    9.7551    5.0677 C   0  0  2  0  0  0  0  0  0  0  0  0
   14.8095   10.0984    5.4053 N   0  0  0  0  0  0  0  0  0  0  0  0
   13.0528    8.3666    5.6939 C   0  0  2  0  0  0  0  0  0  0  0  0
   11.5776    7.9723    5.3529 C   0  0  2  0  0  0  0  0  0  0  0  0
   11.3478    6.6772    5.9602 O   0  0  0  0  0  0  0  0  0  0  0  0
   11.3890    7.9112    3.8030 C   0  0  1  0  0  0  0  0  0  0  0  0
   10.0707    7.5738    3.5310 O   0  0  0  0  0  0  0  0  0  0  0  0
   11.2100    6.4456    7.2882 C   0  0  1  0  0  0  0  0  0  0  0  0
   10.1118    7.3541    7.8998 C   0  0  2  0  0  0  0  0  0  0  0  0
   10.5808    8.6251    8.2459 O   0  0  0  0  0  0  0  0  0  0  0  0
    9.6156    6.4347    9.0004 C   0  0  1  0  0  0  0  0  0  0  0  0
    9.6521    5.0080    8.4347 C   0  0  2  0  0  0  0  0  0  0  0  0
   10.8318    5.0859    7.6346 O   0  0  0  0  0  0  0  0  0  0  0  0
    8.4022    4.5841    7.5905 C   0  0  0  0  0  0  0  0  0  0  0  0
    8.4013    5.3885    6.3814 O   0  0  0  0  0  0  0  0  0  0  0  0
   10.0377    6.2714   11.4328 C   0  0  2  0  0  0  0  0  0  0  0  0
   10.5308    6.5918   10.1607 O   0  0  0  0  0  0  0  0  0  0  0  0
   11.1831    6.3470   12.5337 C   0  0  1  0  0  0  0  0  0  0  0  0
    7.4331    2.4353   13.7061 N   0  0  0  0  0  0  0  0  0  0  0  0
   10.5102    5.9395   13.9472 C   0  0  1  0  0  0  0  0  0  0  0  0
    9.3752    6.9052   14.2244 O   0  0  0  0  0  0  0  0  0  0  0  0
    9.9514    4.4201   13.8745 C   0  0  2  0  0  0  0  0  0  0  0  0
   11.0539    3.5172   13.6186 O   0  0  0  0  0  0  0  0  0  0  0  0
    8.8086    4.3739   12.7119 C   0  0  1  0  0  0  0  0  0  0  0  0
    9.3974    4.8524   11.4133 O   0  0  0  0  0  0  0  0  0  0  0  0
    8.2031    2.9384   12.5273 C   0  0  0  0  0  0  0  0  0  0  0  0
   12.3269    5.4564   12.1472 N   0  0  0  0  0  0  0  0  0  0  0  0
  1  2  1  6  0  0  0
  1  3  1  0  0  0  0
  1 10  1  0  0  0  0
  3  4  1  6  0  0  0
  3  5  1  0  0  0  0
  5  6  1  1  0  0  0
  5  7  1  0  0  0  0
  7  8  1  1  0  0  0
  7  9  1  0  0  0  0
  9 10  1  0  0  0  0
  9 11  1  1  0  0  0
 11 12  1  0  0  0  0
 13 14  1  6  0  0  0
 13 15  1  0  0  0  0
 13 21  1  0  0  0  0
 16 15  1  0  0  0  0
 16 17  1  6  0  0  0
 18  2  1  1  0  0  0
 18 16  1  0  0  0  0
 19 18  1  0  0  0  0
 19 20  1  1  0  0  0
 21 19  1  0  0  0  0
 21 22  1  1  0  0  0
 23 20  1  6  0  0  0
 23 24  1  0  0  0  0
 23 28  1  0  0  0  0
 24 25  1  1  0  0  0
 24 26  1  0  0  0  0
 26 27  1  0  0  0  0
 26 32  1  1  0  0  0
 27 28  1  0  0  0  0
 27 29  1  6  0  0  0
 29 30  1  0  0  0  0
 31 32  1  6  0  0  0
 31 40  1  0  0  0  0
 33 31  1  0  0  0  0
 33 42  1  6  0  0  0
 35 33  1  0  0  0  0
 35 36  1  6  0  0  0
 37 35  1  0  0  0  0
 37 38  1  6  0  0  0
 37 39  1  0  0  0  0
 39 40  1  0  0  0  0
 39 41  1  6  0  0  0
 41 34  1  0  0  0  0
M  END
>  <CHROM.1>
-61.00067270,69.24618181,-65.72908916,72.18901837,53.37723972,156.19347577
66.96499817,173.98101573,65.51230571,11.76143980,6.69739356,8.66668434,-1.21534509
0.36922658,1.87648503

>  <Name>
2et4_lig

>  <RI>
0

>  <Rbt.Current_Directory>
/home/itssahil/PROJECTS/Mol_Feturizer/New_Systems/rnas/2et4

>  <Rbt.Executable>
rbdock ($Id: //depot/dev/client3/rdock/2013.1/src/exe/rbdock.cxx#4 $)

>  <Rbt.Library>
libRbt.so (2013.1, Build901 2013/11/27)

>  <Rbt.Parameter_File>
/export/apps/rDock/src/rDock_2013.1_src/data/scripts/dock_solv.prm

>  <Rbt.Receptor>
prm/pocket_docking_3.prm

>  <SCORE>
-10.9864

>  <SCORE.INTER>
-6.77987

>  <SCORE.INTER.CONST>
1

>  <SCORE.INTER.POLAR>
-1.46117

>  <SCORE.INTER.ROT>
9

>  <SCORE.INTER.SOLV>
20.0991

>  <SCORE.INTER.VDW>
-15.9491

>  <SCORE.INTER.norm>
-0.161426

>  <SCORE.INTRA>
-4.20655

>  <SCORE.INTRA.DIHEDRAL>
-17.2561

>  <SCORE.INTRA.DIHEDRAL.0>
21.6909

>  <SCORE.INTRA.POLAR>
0

>  <SCORE.INTRA.POLAR.0>
0

>  <SCORE.INTRA.REPUL>
0

>  <SCORE.INTRA.REPUL.0>
0

>  <SCORE.INTRA.SOLV>
6.8403

>  <SCORE.INTRA.SOLV.lig_0>
-116.606

>  <SCORE.INTRA.VDW>
1.00135

>  <SCORE.INTRA.VDW.0>
-6.01229

>  <SCORE.INTRA.norm>
-0.100156

>  <SCORE.RESTR>
0

>  <SCORE.RESTR.CAVITY>
0

>  <SCORE.RESTR.norm>
0

>  <SCORE.SYSTEM>
0

>  <SCORE.SYSTEM.CONST>
0

>  <SCORE.SYSTEM.DIHEDRAL>
0

>  <SCORE.SYSTEM.SOLV>
0

>  <SCORE.SYSTEM.norm>
0

>  <SCORE.heavy>
42

>  <SCORE.norm>
-0.261581

>  <RMSD>
5.284

$$$$
2et4_lig
 OpenBabel11021811423D
libRbt.so/2013.1/901 2013/11/27
 42 45  0  0  0  0  0  0  0  0999 V2000
   16.4150    5.6592    5.0703 C   0  0  2  0  0  0  0  0  0  0  0  0
   16.3520    4.5034    5.9084 O   0  0  0  0  0  0  0  0  0  0  0  0
   16.0382    5.2053    3.6369 C   0  0  2  0  0  0  0  0  0  0  0  0
   14.7351    4.5916    3.6057 N   0  0  0  0  0  0  0  0  0  0  0  0
   17.1284    4.2315    3.1036 C   0  0  1  0  0  0  0  0  0  0  0  0
   16.7955    3.8378    1.8089 O   0  0  0  0  0  0  0  0  0  0  0  0
   18.5104    4.9637    3.1642 C   0  0  2  0  0  0  0  0  0  0  0  0
   19.5334    4.1112    2.6946 O   0  0  0  0  0  0  0  0  0  0  0  0
   18.8393    5.4091    4.6214 C   0  0  2  0  0  0  0  0  0  0  0  0
   17.7816    6.2540    5.0841 O   0  0  0  0  0  0  0  0  0  0  0  0
   20.1958    6.1817    4.7134 C   0  0  0  0  0  0  0  0  0  0  0  0
   20.5990    6.3998    6.0591 N   0  0  0  0  0  0  0  0  0  0  0  0
   15.4144    3.7141   10.0500 C   0  0  2  0  0  0  0  0  0  0  0  0
   15.4602    3.7874   11.5156 N   0  0  0  0  0  0  0  0  0  0  0  0
   16.8592    3.2389    9.4853 C   0  0  0  0  0  0  0  0  0  0  0  0
   16.8082    3.1755    7.9039 C   0  0  2  0  0  0  0  0  0  0  0  0
   18.1108    2.7718    7.3454 N   0  0  0  0  0  0  0  0  0  0  0  0
   16.4089    4.5807    7.3394 C   0  0  2  0  0  0  0  0  0  0  0  0
   15.0280    5.0390    7.9145 C   0  0  2  0  0  0  0  0  0  0  0  0
   14.7598    6.3449    7.3472 O   0  0  0  0  0  0  0  0  0  0  0  0
   15.0973    5.1039    9.4741 C   0  0  1  0  0  0  0  0  0  0  0  0
   13.8573    5.4987    9.9558 O   0  0  0  0  0  0  0  0  0  0  0  0
   13.5592    6.9732    7.3549 C   0  0  1  0  0  0  0  0  0  0  0  0
   13.7321    8.5044    7.1789 C   0  0  2  0  0  0  0  0  0  0  0  0
   14.0031    9.1678    8.3795 O   0  0  0  0  0  0  0  0  0  0  0  0
   12.4391    8.8164    6.4485 C   0  0  1  0  0  0  0  0  0  0  0  0
   12.1715    7.6390    5.5004 C   0  0  2  0  0  0  0  0  0  0  0  0
   12.6465    6.5583    6.3030 O   0  0  0  0  0  0  0  0  0  0  0  0
   12.9057    7.7050    4.1179 C   0  0  0  0  0  0  0  0  0  0  0  0
   12.4459    6.5768    3.3274 O   0  0  0  0  0  0  0  0  0  0  0  0
   10.0807    8.5202    7.1356 C   0  0  2  0  0  0  0  0  0  0  0  0
   11.3700    8.9550    7.4715 O   0  0  0  0  0  0  0  0  0  0  0  0
    9.0013    9.0503    8.1766 C   0  0  1  0  0  0  0  0  0  0  0  0
    9.2428    4.1686    7.9656 N   0  0  0  0  0  0  0  0  0  0  0  0
    7.5652    8.4735    7.7060 C   0  0  1  0  0  0  0  0  0  0  0  0
    7.2999    8.9630    6.2962 O   0  0  0  0  0  0  0  0  0  0  0  0
    7.5815    6.8535    7.7457 C   0  0  2  0  0  0  0  0  0  0  0  0
    7.8269    6.4111    9.1023 O   0  0  0  0  0  0  0  0  0  0  0  0
    8.7234    6.3495    6.6960 C   0  0  1  0  0  0  0  0  0  0  0  0
   10.0456    6.9655    7.0626 O   0  0  0  0  0  0  0  0  0  0  0  0
    8.8535    4.7865    6.6609 C   0  0  0  0  0  0  0  0  0  0  0  0
    9.3784    8.6300    9.5666 N   0  0  0  0  0  0  0  0  0  0  0  0
  1  2  1  1  0  0  0
  1  3  1  0  0  0  0
  1 10  1  0  0  0  0
  3  4  1  1  0  0  0
  3  5  1  0  0  0  0
  5  6  1  6  0  0  0
  5  7  1  0  0  0  0
  7  8  1  1  0  0  0
  7  9  1  0  0  0  0
  9 10  1  0  0  0  0
  9 11  1  6  0  0  0
 11 12  1  0  0  0  0
 13 14  1  1  0  0  0
 13 15  1  0  0  0  0
 13 21  1  0  0  0  0
 16 15  1  0  0  0  0
 16 17  1  6  0  0  0
 18  2  1  6  0  0  0
 18 16  1  0  0  0  0
 19 18  1  0  0  0  0
 19 20  1  6  0  0  0
 21 19  1  0  0  0  0
 21 22  1  1  0  0  0
 23 20  1  6  0  0  0
 23 24  1  0  0  0  0
 23 28  1  0  0  0  0
 24 25  1  1  0  0  0
 24 26  1  0  0  0  0
 26 27  1  0  0  0  0
 26 32  1  1  0  0  0
 27 28  1  0  0  0  0
 27 29  1  6  0  0  0
 29 30  1  0  0  0  0
 31 32  1  1  0  0  0
 31 40  1  0  0  0  0
 33 31  1  0  0  0  0
 33 42  1  1  0  0  0
 35 33  1  0  0  0  0
 35 36  1  6  0  0  0
 37 35  1  0  0  0  0
 37 38  1  1  0  0  0
 37 39  1  0  0  0  0
 39 40  1  0  0  0  0
 39 41  1  1  0  0  0
 41 34  1  0  0  0  0
M  END
>  <CHROM.1>
-168.76904573,-170.61688666,-160.69914679,165.23282845,158.11654701,-145.51265771
-175.34134906,-166.22287061,-60.94133807,13.83424229,6.07625612,6.60042635
0.18431299,0.35944520,-1.32055191

>  <Name>
2et4_lig

>  <RI>
0

>  <Rbt.Current_Directory>
/home/itssahil/PROJECTS/Mol_Feturizer/New_Systems/rnas/2et4

>  <Rbt.Executable>
rbdock ($Id: //depot/dev/client3/rdock/2013.1/src/exe/rbdock.cxx#4 $)

>  <Rbt.Library>
libRbt.so (2013.1, Build901 2013/11/27)

>  <Rbt.Parameter_File>
/export/apps/rDock/src/rDock_2013.1_src/data/scripts/dock_solv.prm

>  <Rbt.Receptor>
prm/pocket_docking_5.prm

>  <SCORE>
-8.98574

>  <SCORE.INTER>
-4.92415

>  <SCORE.INTER.CONST>
1

>  <SCORE.INTER.POLAR>
0

>  <SCORE.INTER.ROT>
9

>  <SCORE.INTER.SOLV>
13.2986

>  <SCORE.INTER.VDW>
-17.3156

>  <SCORE.INTER.norm>
-0.117242

>  <SCORE.INTRA>
-4.07636

>  <SCORE.INTRA.DIHEDRAL>
-10.4161

>  <SCORE.INTRA.DIHEDRAL.0>
21.6909

>  <SCORE.INTRA.POLAR>
0

>  <SCORE.INTRA.POLAR.0>
0

>  <SCORE.INTRA.REPUL>
0

>  <SCORE.INTRA.REPUL.0>
0

>  <SCORE.INTRA.SOLV>
-1.13683

>  <SCORE.INTRA.SOLV.lig_0>
-116.606

>  <SCORE.INTRA.VDW>
1.70013

>  <SCORE.INTRA.VDW.0>
-6.01229

>  <SCORE.INTRA.norm>
-0.0970561

>  <SCORE.RESTR>
0.0147561

>  <SCORE.RESTR.CAVITY>
0.0147561

>  <SCORE.RESTR.norm>
0.000351335

>  <SCORE.SYSTEM>
0

>  <SCORE.SYSTEM.CONST>
0

>  <SCORE.SYSTEM.DIHEDRAL>
0

>  <SCORE.SYSTEM.SOLV>
0

>  <SCORE.SYSTEM.norm>
0

>  <SCORE.heavy>
42

>  <SCORE.norm>
-0.213946

>  <RMSD>
5.293

$$$$
2et4_lig
 OpenBabel11021811423D
libRbt.so/2013.1/901 2013/11/27
 42 45  0  0  0  0  0  0  0  0999 V2000
   15.8845    7.3803    5.2785 C   0  0  2  0  0  0  0  0  0  0  0  0
   15.5308    6.1821    4.5847 O   0  0  0  0  0  0  0  0  0  0  0  0
   17.2192    7.8829    4.6713 C   0  0  2  0  0  0  0  0  0  0  0  0
   17.1015    8.1008    3.2521 N   0  0  0  0  0  0  0  0  0  0  0  0
   18.3458    6.8576    4.9886 C   0  0  1  0  0  0  0  0  0  0  0  0
   19.5475    7.3197    4.4557 O   0  0  0  0  0  0  0  0  0  0  0  0
   18.4171    6.6739    6.5414 C   0  0  2  0  0  0  0  0  0  0  0  0
   19.4249    5.7430    6.8751 O   0  0  0  0  0  0  0  0  0  0  0  0
   17.0508    6.1784    7.1051 C   0  0  2  0  0  0  0  0  0  0  0  0
   16.0422    7.1244    6.7384 O   0  0  0  0  0  0  0  0  0  0  0  0
   17.0727    6.0232    8.6610 C   0  0  0  0  0  0  0  0  0  0  0  0
   17.9367    4.9764    9.0839 N   0  0  0  0  0  0  0  0  0  0  0  0
   11.9121    3.9202    3.9185 C   0  0  2  0  0  0  0  0  0  0  0  0
   10.6793    3.1721    4.1947 N   0  0  0  0  0  0  0  0  0  0  0  0
   13.1698    3.1697    4.6166 C   0  0  0  0  0  0  0  0  0  0  0  0
   14.4940    3.9883    4.3278 C   0  0  2  0  0  0  0  0  0  0  0  0
   15.6611    3.3548    4.9666 N   0  0  0  0  0  0  0  0  0  0  0  0
   14.3305    5.4495    4.8670 C   0  0  2  0  0  0  0  0  0  0  0  0
   13.0974    6.1510    4.2073 C   0  0  2  0  0  0  0  0  0  0  0  0
   13.0260    7.4800    4.7798 O   0  0  0  0  0  0  0  0  0  0  0  0
   11.7989    5.3357    4.5079 C   0  0  1  0  0  0  0  0  0  0  0  0
   10.7263    5.9725    3.9000 O   0  0  0  0  0  0  0  0  0  0  0  0
   12.8804    7.7609    6.0974 C   0  0  1  0  0  0  0  0  0  0  0  0
   12.5353    9.2577    6.3118 C   0  0  2  0  0  0  0  0  0  0  0  0
   13.6636   10.0831    6.3369 O   0  0  0  0  0  0  0  0  0  0  0  0
   11.6899    9.1388    7.5664 C   0  0  1  0  0  0  0  0  0  0  0  0
   10.8731    7.8463    7.4284 C   0  0  2  0  0  0  0  0  0  0  0  0
   11.8279    7.0160    6.7676 O   0  0  0  0  0  0  0  0  0  0  0  0
    9.5436    7.9719    6.6091 C   0  0  0  0  0  0  0  0  0  0  0  0
    8.8718    6.6858    6.6711 O   0  0  0  0  0  0  0  0  0  0  0  0
   12.0591    9.0818   10.0122 C   0  0  2  0  0  0  0  0  0  0  0  0
   12.6171    9.0845    8.7266 O   0  0  0  0  0  0  0  0  0  0  0  0
   13.1623    9.3631   11.1228 C   0  0  1  0  0  0  0  0  0  0  0  0
   10.9808    5.0143   11.6373 N   0  0  0  0  0  0  0  0  0  0  0  0
   12.4151    9.3149   12.5567 C   0  0  1  0  0  0  0  0  0  0  0  0
   11.3179   10.3607   12.5516 O   0  0  0  0  0  0  0  0  0  0  0  0
   11.7870    7.8412   12.8021 C   0  0  2  0  0  0  0  0  0  0  0  0
   12.8540    6.8627   12.8121 O   0  0  0  0  0  0  0  0  0  0  0  0
   10.6902    7.5743   11.6250 C   0  0  1  0  0  0  0  0  0  0  0  0
   11.3523    7.7211   10.2827 O   0  0  0  0  0  0  0  0  0  0  0  0
   10.0240    6.1586   11.7403 C   0  0  0  0  0  0  0  0  0  0  0  0
   14.2762    8.3651   11.0050 N   0  0  0  0  0  0  0  0  0  0  0  0
  1  2  1  6  0  0  0
  1  3  1  0  0  0  0
  1 10  1  0  0  0  0
  3  4  1  6  0  0  0
  3  5  1  0  0  0  0
  5  6  1  1  0  0  0
  5  7  1  0  0  0  0
  7  8  1  6  0  0  0
  7  9  1  0  0  0  0
  9 10  1  0  0  0  0
  9 11  1  1  0  0  0
 11 12  1  0  0  0  0
 13 14  1  1  0  0  0
 13 15  1  0  0  0  0
 13 21  1  0  0  0  0
 16 15  1  0  0  0  0
 16 17  1  1  0  0  0
 18  2  1  6  0  0  0
 18 16  1  0  0  0  0
 19 18  1  0  0  0  0
 19 20  1  1  0  0  0
 21 19  1  0  0  0  0
 21 22  1  6  0  0  0
 23 20  1  6  0  0  0
 23 24  1  0  0  0  0
 23 28  1  0  0  0  0
 24 25  1  1  0  0  0
 24 26  1  0  0  0  0
 26 27  1  0  0  0  0
 26 32  1  1  0  0  0
 27 28  1  0  0  0  0
 27 29  1  6  0  0  0
 29 30  1  0  0  0  0
 31 32  1  6  0  0  0
 31 40  1  0  0  0  0
 33 31  1  0  0  0  0
 33 42  1  1  0  0  0
 35 33  1  0  0  0  0
 35 36  1  6  0  0  0
 37 35  1  0  0  0  0
 37 38  1  6  0  0  0
 37 39  1  0  0  0  0
 39 40  1  0  0  0  0
 39 41  1  1  0  0  0
 41 34  1  0  0  0  0
M  END
>  <CHROM.1>
-178.77426794,-67.04229797,-160.22754262,-59.49160608,-167.64429373,174.96317484
-175.97225834,-166.69422862,-60.64490398,13.65941808,6.94342618,7.32038467
-0.91637646,0.05941729,1.19820697

>  <Name>
2et4_lig

>  <RI>
0

>  <Rbt.Current_Directory>
/home/itssahil/PROJECTS/Mol_Feturizer/New_Systems/rnas/2et4

>  <Rbt.Executable>
rbdock ($Id: //depot/dev/client3/rdock/2013.1/src/exe/rbdock.cxx#4 $)

>  <Rbt.Library>
libRbt.so (2013.1, Build901 2013/11/27)

>  <Rbt.Parameter_File>
/export/apps/rDock/src/rDock_2013.1_src/data/scripts/dock_solv.prm

>  <Rbt.Receptor>
prm/pocket_docking_6.prm

>  <SCORE>
-15.7017

>  <SCORE.INTER>
-7.03469

>  <SCORE.INTER.CONST>
1

>  <SCORE.INTER.POLAR>
-1.73091

>  <SCORE.INTER.ROT>
9

>  <SCORE.INTER.SOLV>
13.7201

>  <SCORE.INTER.VDW>
-13.0934

>  <SCORE.INTER.norm>
-0.167493

>  <SCORE.INTRA>
-8.66705

>  <SCORE.INTRA.DIHEDRAL>
-17.8355

>  <SCORE.INTRA.DIHEDRAL.0>
21.6909

>  <SCORE.INTRA.POLAR>
0

>  <SCORE.INTRA.POLAR.0>
0

>  <SCORE.INTRA.REPUL>
0

>  <SCORE.INTRA.REPUL.0>
0

>  <SCORE.INTRA.SOLV>
-1.20231

>  <SCORE.INTRA.SOLV.lig_0>
-116.606

>  <SCORE.INTRA.VDW>
0.85183

>  <SCORE.INTRA.VDW.0>
-6.01229

>  <SCORE.INTRA.norm>
-0.206358

>  <SCORE.RESTR>
0

>  <SCORE.RESTR.CAVITY>
0

>  <SCORE.RESTR.norm>
0

>  <SCORE.SYSTEM>
0

>  <SCORE.SYSTEM.CONST>
0

>  <SCORE.SYSTEM.DIHEDRAL>
0

>  <SCORE.SYSTEM.SOLV>
0

>  <SCORE.SYSTEM.norm>
0

>  <SCORE.heavy>
42

>  <SCORE.norm>
-0.373851

>  <RMSD>
5.294

$$$$
2et4_lig
 OpenBabel11021811423D
libRbt.so/2013.1/901 2013/11/27
 42 45  0  0  0  0  0  0  0  0999 V2000
   13.1845    9.7291    5.3023 C   0  0  2  0  0  0  0  0  0  0  0  0
   12.5110    8.7283    4.5361 O   0  0  0  0  0  0  0  0  0  0  0  0
   14.0578   10.5479    4.3176 C   0  0  2  0  0  0  0  0  0  0  0  0
   13.2617   11.1250    3.2646 N   0  0  0  0  0  0  0  0  0  0  0  0
   15.1737    9.6317    3.7375 C   0  0  1  0  0  0  0  0  0  0  0  0
   15.9670   10.3744    2.8652 O   0  0  0  0  0  0  0  0  0  0  0  0
   15.9958    9.0450    4.9333 C   0  0  2  0  0  0  0  0  0  0  0  0
   17.0184    8.1989    4.4516 O   0  0  0  0  0  0  0  0  0  0  0  0
   15.0738    8.2407    5.8992 C   0  0  2  0  0  0  0  0  0  0  0  0
   14.0345    9.1100    6.3585 O   0  0  0  0  0  0  0  0  0  0  0  0
   15.8548    7.6738    7.1296 C   0  0  0  0  0  0  0  0  0  0  0  0
   15.0607    6.7875    7.9074 N   0  0  0  0  0  0  0  0  0  0  0  0
    9.3872    5.8640    5.3682 C   0  0  2  0  0  0  0  0  0  0  0  0
    8.6728    4.7371    5.9809 N   0  0  0  0  0  0  0  0  0  0  0  0
   10.7571    5.3294    4.6826 C   0  0  0  0  0  0  0  0  0  0  0  0
   11.5303    6.5508    4.0362 C   0  0  2  0  0  0  0  0  0  0  0  0
   12.7969    6.1139    3.4227 N   0  0  0  0  0  0  0  0  0  0  0  0
   11.8248    7.6228    5.1393 C   0  0  2  0  0  0  0  0  0  0  0  0
   10.4979    8.1078    5.8116 C   0  0  2  0  0  0  0  0  0  0  0  0
   10.8784    9.0778    6.8183 O   0  0  0  0  0  0  0  0  0  0  0  0
    9.7515    6.8931    6.4508 C   0  0  1  0  0  0  0  0  0  0  0  0
    8.5744    7.3504    7.0260 O   0  0  0  0  0  0  0  0  0  0  0  0
   11.2756    8.7855    8.0804 C   0  0  1  0  0  0  0  0  0  0  0  0
   11.7000   10.0688    8.8409 C   0  0  2  0  0  0  0  0  0  0  0  0
   13.0238   10.4428    8.5906 O   0  0  0  0  0  0  0  0  0  0  0  0
   11.3107    9.6610   10.2498 C   0  0  1  0  0  0  0  0  0  0  0  0
   10.0134    8.8486   10.1325 C   0  0  2  0  0  0  0  0  0  0  0  0
   10.2612    8.1560    8.9091 O   0  0  0  0  0  0  0  0  0  0  0  0
    8.6933    9.6900   10.0689 C   0  0  0  0  0  0  0  0  0  0  0  0
    7.5861    8.7550    9.9739 O   0  0  0  0  0  0  0  0  0  0  0  0
   12.8918    9.1607   12.0859 C   0  0  2  0  0  0  0  0  0  0  0  0
   12.4238    8.8462   10.8029 O   0  0  0  0  0  0  0  0  0  0  0  0
   13.5149    7.8854   12.8036 C   0  0  1  0  0  0  0  0  0  0  0  0
    9.6783    9.7851   15.1694 N   0  0  0  0  0  0  0  0  0  0  0  0
   13.9983    8.3570   14.2735 C   0  0  1  0  0  0  0  0  0  0  0  0
   15.0065    9.4756   14.1014 O   0  0  0  0  0  0  0  0  0  0  0  0
   12.7254    8.8738   15.1333 C   0  0  2  0  0  0  0  0  0  0  0  0
   11.7826    7.7865   15.2917 O   0  0  0  0  0  0  0  0  0  0  0  0
   12.0922   10.1554   14.3483 C   0  0  1  0  0  0  0  0  0  0  0  0
   11.7358    9.7544   12.9432 O   0  0  0  0  0  0  0  0  0  0  0  0
   10.8287   10.7355   15.0752 C   0  0  0  0  0  0  0  0  0  0  0  0
   12.5074    6.7744   12.8430 N   0  0  0  0  0  0  0  0  0  0  0  0
  1  2  1  6  0  0  0
  1  3  1  0  0  0  0
  1 10  1  0  0  0  0
  3  4  1  6  0  0  0
  3  5  1  0  0  0  0
  5  6  1  6  0  0  0
  5  7  1  0  0  0  0
  7  8  1  6  0  0  0
  7  9  1  0  0  0  0
  9 10  1  0  0  0  0
  9 11  1  1  0  0  0
 11 12  1  0  0  0  0
 13 14  1  1  0  0  0
 13 15  1  0  0  0  0
 13 21  1  0  0  0  0
 16 15  1  0  0  0  0
 16 17  1  1  0  0  0
 18  2  1  6  0  0  0
 18 16  1  0  0  0  0
 19 18  1  0  0  0  0
 19 20  1  1  0  0  0
 21 19  1  0  0  0  0
 21 22  1  6  0  0  0
 23 20  1  6  0  0  0
 23 24  1  0  0  0  0
 23 28  1  0  0  0  0
 24 25  1  1  0  0  0
 24 26  1  0  0  0  0
 26 27  1  0  0  0  0
 26 32  1  6  0  0  0
 27 28  1  0  0  0  0
 27 29  1  6  0  0  0
 29 30  1  0  0  0  0
 31 32  1  6  0  0  0
 31 40  1  0  0  0  0
 33 31  1  0  0  0  0
 33 42  1  1  0  0  0
 35 33  1  0  0  0  0
 35 36  1  6  0  0  0
 37 35  1  0  0  0  0
 37 38  1  6  0  0  0
 37 39  1  0  0  0  0
 39 40  1  0  0  0  0
 39 41  1  1  0  0  0
 41 34  1  0  0  0  0
M  END
>  <CHROM.1>
167.32640914,-171.71328010,-165.61745373,-84.15485393,175.94154207,131.93346996
-179.45500539,152.56710818,-62.52572268,12.25946878,8.55759189,8.47156445
-1.39643397,0.29505905,1.43505425

>  <Name>
2et4_lig

>  <RI>
0

>  <Rbt.Current_Directory>
/home/itssahil/PROJECTS/Mol_Feturizer/New_Systems/rnas/2et4

>  <Rbt.Executable>
rbdock ($Id: //depot/dev/client3/rdock/2013.1/src/exe/rbdock.cxx#4 $)

>  <Rbt.Library>
libRbt.so (2013.1, Build901 2013/11/27)

>  <Rbt.Parameter_File>
/export/apps/rDock/src/rDock_2013.1_src/data/scripts/dock_solv.prm

>  <Rbt.Receptor>
prm/pocket_docking_6.prm

>  <SCORE>
-13.4073

>  <SCORE.INTER>
-10.2219

>  <SCORE.INTER.CONST>
1

>  <SCORE.INTER.POLAR>
-0.474451

>  <SCORE.INTER.ROT>
9

>  <SCORE.INTER.SOLV>
17.1453

>  <SCORE.INTER.VDW>
-20.5482

>  <SCORE.INTER.norm>
-0.24338

>  <SCORE.INTRA>
-3.18538

>  <SCORE.INTRA.DIHEDRAL>
-7.3553

>  <SCORE.INTRA.DIHEDRAL.0>
21.6909

>  <SCORE.INTRA.POLAR>
0

>  <SCORE.INTRA.POLAR.0>
0

>  <SCORE.INTRA.REPUL>
0

>  <SCORE.INTRA.REPUL.0>
0

>  <SCORE.INTRA.SOLV>
-1.49851

>  <SCORE.INTRA.SOLV.lig_0>
-116.606

>  <SCORE.INTRA.VDW>
1.24152

>  <SCORE.INTRA.VDW.0>
-6.01229

>  <SCORE.INTRA.norm>
-0.0758424

>  <SCORE.RESTR>
0

>  <SCORE.RESTR.CAVITY>
0

>  <SCORE.RESTR.norm>
0

>  <SCORE.SYSTEM>
0

>  <SCORE.SYSTEM.CONST>
0

>  <SCORE.SYSTEM.DIHEDRAL>
0

>  <SCORE.SYSTEM.SOLV>
0

>  <SCORE.SYSTEM.norm>
0

>  <SCORE.heavy>
42

>  <SCORE.norm>
-0.319222

>  <RMSD>
5.299

$$$$
2et4_lig
 OpenBabel11021811423D
libRbt.so/2013.1/901 2013/11/27
 42 45  0  0  0  0  0  0  0  0999 V2000
   14.1199    6.6766    4.2659 C   0  0  2  0  0  0  0  0  0  0  0  0
   14.4028    5.8863    5.4224 O   0  0  0  0  0  0  0  0  0  0  0  0
   14.7748    8.0637    4.4889 C   0  0  2  0  0  0  0  0  0  0  0  0
   16.1915    7.9442    4.7225 N   0  0  0  0  0  0  0  0  0  0  0  0
   14.0700    8.7790    5.6774 C   0  0  1  0  0  0  0  0  0  0  0  0
   14.6498   10.0321    5.8653 O   0  0  0  0  0  0  0  0  0  0  0  0
   12.5416    8.8750    5.3537 C   0  0  2  0  0  0  0  0  0  0  0  0
   11.8595    9.5132    6.4125 O   0  0  0  0  0  0  0  0  0  0  0  0
   11.9319    7.4583    5.1277 C   0  0  2  0  0  0  0  0  0  0  0  0
   12.6501    6.8226    4.0661 O   0  0  0  0  0  0  0  0  0  0  0  0
   10.4130    7.5182    4.7607 C   0  0  0  0  0  0  0  0  0  0  0  0
   10.1879    8.1531    3.5088 N   0  0  0  0  0  0  0  0  0  0  0  0
   13.0850    1.7873    5.7642 C   0  0  2  0  0  0  0  0  0  0  0  0
   13.1139    0.3196    5.7388 N   0  0  0  0  0  0  0  0  0  0  0  0
   13.4317    2.3623    4.2872 C   0  0  0  0  0  0  0  0  0  0  0  0
   13.4133    3.9452    4.3240 C   0  0  2  0  0  0  0  0  0  0  0  0
   13.7490    4.5119    3.0057 N   0  0  0  0  0  0  0  0  0  0  0  0
   14.4421    4.4530    5.3900 C   0  0  2  0  0  0  0  0  0  0  0  0
   14.1129    3.8679    6.8032 C   0  0  2  0  0  0  0  0  0  0  0  0
   15.1229    4.3818    7.7059 O   0  0  0  0  0  0  0  0  0  0  0  0
   14.1428    2.3065    6.7517 C   0  0  1  0  0  0  0  0  0  0  0  0
   13.8341    1.8166    8.0128 O   0  0  0  0  0  0  0  0  0  0  0  0
   15.0568    5.5619    8.3688 C   0  0  1  0  0  0  0  0  0  0  0  0
   13.9111    5.5488    9.4141 C   0  0  2  0  0  0  0  0  0  0  0  0
   12.6654    5.8715    8.8673 O   0  0  0  0  0  0  0  0  0  0  0  0
   14.5144    6.4759   10.4530 C   0  0  1  0  0  0  0  0  0  0  0  0
   16.0201    6.1784   10.4901 C   0  0  2  0  0  0  0  0  0  0  0  0
   16.2575    5.9151    9.1073 O   0  0  0  0  0  0  0  0  0  0  0  0
   16.4482    4.9732   11.3950 C   0  0  0  0  0  0  0  0  0  0  0  0
   17.6439    4.3933   10.8093 O   0  0  0  0  0  0  0  0  0  0  0  0
   12.9201    8.3377   10.1171 C   0  0  2  0  0  0  0  0  0  0  0  0
   14.2380    7.8709   10.0216 O   0  0  0  0  0  0  0  0  0  0  0  0
   12.7330    9.7083    9.3320 C   0  0  1  0  0  0  0  0  0  0  0  0
   11.1278    7.8523   14.1842 N   0  0  0  0  0  0  0  0  0  0  0  0
   11.1923   10.1608    9.5278 C   0  0  1  0  0  0  0  0  0  0  0  0
   10.3049    9.0573    8.9871 O   0  0  0  0  0  0  0  0  0  0  0  0
   10.8862   10.4101   11.0996 C   0  0  2  0  0  0  0  0  0  0  0  0
   11.7382   11.4731   11.5896 O   0  0  0  0  0  0  0  0  0  0  0  0
   11.1245    8.9953   11.8752 C   0  0  1  0  0  0  0  0  0  0  0  0
   12.5241    8.5114   11.6127 O   0  0  0  0  0  0  0  0  0  0  0  0
   10.8810    9.1138   13.4205 C   0  0  0  0  0  0  0  0  0  0  0  0
   13.7143   10.7261    9.8339 N   0  0  0  0  0  0  0  0  0  0  0  0
  1  2  1  1  0  0  0
  1  3  1  0  0  0  0
  1 10  1  0  0  0  0
  3  4  1  1  0  0  0
  3  5  1  0  0  0  0
  5  6  1  6  0  0  0
  5  7  1  0  0  0  0
  7  8  1  1  0  0  0
  7  9  1  0  0  0  0
  9 10  1  0  0  0  0
  9 11  1  6  0  0  0
 11 12  1  0  0  0  0
 13 14  1  6  0  0  0
 13 15  1  0  0  0  0
 13 21  1  0  0  0  0
 16 15  1  0  0  0  0
 16 17  1  6  0  0  0
 18  2  1  1  0  0  0
 18 16  1  0  0  0  0
 19 18  1  0  0  0  0
 19 20  1  1  0  0  0
 21 19  1  0  0  0  0
 21 22  1  1  0  0  0
 23 20  1  1  0  0  0
 23 24  1  0  0  0  0
 23 28  1  0  0  0  0
 24 25  1  6  0  0  0
 24 26  1  0  0  0  0
 26 27  1  0  0  0  0
 26 32  1  6  0  0  0
 27 28  1  0  0  0  0
 27 29  1  1  0  0  0
 29 30  1  0  0  0  0
 31 32  1  1  0  0  0
 31 40  1  0  0  0  0
 33 31  1  0  0  0  0
 33 42  1  1  0  0  0
 35 33  1  0  0  0  0
 35 36  1  1  0  0  0
 37 35  1  0  0  0  0
 37 38  1  1  0  0  0
 37 39  1  0  0  0  0
 39 40  1  0  0  0  0
 39 41  1  1  0  0  0
 41 34  1  0  0  0  0
M  END
>  <CHROM.1>
-154.63490302,65.20046318,-32.11994902,87.22401269,66.29986308,71.71789418
150.06701616,-167.52261603,-178.20436370,13.39614479,6.74276026,7.83822148
1.08404621,1.10464419,-1.84913566

>  <Name>
2et4_lig

>  <RI>
0

>  <Rbt.Current_Directory>
/home/itssahil/PROJECTS/Mol_Feturizer/New_Systems/rnas/2et4

>  <Rbt.Executable>
rbdock ($Id: //depot/dev/client3/rdock/2013.1/src/exe/rbdock.cxx#4 $)

>  <Rbt.Library>
libRbt.so (2013.1, Build901 2013/11/27)

>  <Rbt.Parameter_File>
/export/apps/rDock/src/rDock_2013.1_src/data/scripts/dock_solv.prm

>  <Rbt.Receptor>
prm/pocket_docking_8.prm

>  <SCORE>
-10.0843

>  <SCORE.INTER>
-9.23873

>  <SCORE.INTER.CONST>
1

>  <SCORE.INTER.POLAR>
-2.66082

>  <SCORE.INTER.ROT>
9

>  <SCORE.INTER.SOLV>
18.944

>  <SCORE.INTER.VDW>
-13.2044

>  <SCORE.INTER.norm>
-0.21997

>  <SCORE.INTRA>
-0.845572

>  <SCORE.INTRA.DIHEDRAL>
-8.24781

>  <SCORE.INTRA.DIHEDRAL.0>
21.6909

>  <SCORE.INTRA.POLAR>
0

>  <SCORE.INTRA.POLAR.0>
0

>  <SCORE.INTRA.REPUL>
0

>  <SCORE.INTRA.REPUL.0>
0

>  <SCORE.INTRA.SOLV>
-0.269034

>  <SCORE.INTRA.SOLV.lig_0>
-116.606

>  <SCORE.INTRA.VDW>
3.41285

>  <SCORE.INTRA.VDW.0>
-6.01229

>  <SCORE.INTRA.norm>
-0.0201327

>  <SCORE.RESTR>
0

>  <SCORE.RESTR.CAVITY>
0

>  <SCORE.RESTR.norm>
0

>  <SCORE.SYSTEM>
0

>  <SCORE.SYSTEM.CONST>
0

>  <SCORE.SYSTEM.DIHEDRAL>
0

>  <SCORE.SYSTEM.SOLV>
0

>  <SCORE.SYSTEM.norm>
0

>  <SCORE.heavy>
42

>  <SCORE.norm>
-0.240102

>  <RMSD>
5.304

$$$$
2et4_lig
 OpenBabel11021811423D
libRbt.so/2013.1/901 2013/11/27
 42 45  0  0  0  0  0  0  0  0999 V2000
   15.6563    7.9010    6.7454 C   0  0  2  0  0  0  0  0  0  0  0  0
   14.4327    8.4840    6.2925 O   0  0  0  0  0  0  0  0  0  0  0  0
   15.8823    6.6109    5.9165 C   0  0  2  0  0  0  0  0  0  0  0  0
   15.9141    6.8929    4.5040 N   0  0  0  0  0  0  0  0  0  0  0  0
   14.7671    5.5804    6.2564 C   0  0  1  0  0  0  0  0  0  0  0  0
   14.9818    4.4158    5.5221 O   0  0  0  0  0  0  0  0  0  0  0  0
   14.7938    5.3219    7.7999 C   0  0  2  0  0  0  0  0  0  0  0  0
   13.7898    4.3949    8.1552 O   0  0  0  0  0  0  0  0  0  0  0  0
   14.5731    6.6481    8.5888 C   0  0  2  0  0  0  0  0  0  0  0  0
   15.5875    7.5786    8.1990 O   0  0  0  0  0  0  0  0  0  0  0  0
   14.6350    6.4346   10.1367 C   0  0  0  0  0  0  0  0  0  0  0  0
   14.6500    7.6653   10.8481 N   0  0  0  0  0  0  0  0  0  0  0  0
   13.1446   10.5486    2.7242 C   0  0  2  0  0  0  0  0  0  0  0  0
   12.8579   10.8154    1.3091 N   0  0  0  0  0  0  0  0  0  0  0  0
   14.7286   10.2504    2.9098 C   0  0  0  0  0  0  0  0  0  0  0  0
   15.0294    9.9493    4.4350 C   0  0  2  0  0  0  0  0  0  0  0  0
   16.4561    9.6468    4.6462 N   0  0  0  0  0  0  0  0  0  0  0  0
   14.1609    8.7345    4.9067 C   0  0  2  0  0  0  0  0  0  0  0  0
   12.6380    9.0243    4.6951 C   0  0  2  0  0  0  0  0  0  0  0  0
   11.9289    7.8436    5.1448 O   0  0  0  0  0  0  0  0  0  0  0  0
   12.3568    9.3115    3.1852 C   0  0  1  0  0  0  0  0  0  0  0  0
   11.0038    9.5782    3.0304 O   0  0  0  0  0  0  0  0  0  0  0  0
   11.0516    7.7996    6.1766 C   0  0  1  0  0  0  0  0  0  0  0  0
   11.3867    6.6328    7.1419 C   0  0  2  0  0  0  0  0  0  0  0  0
   10.8500    5.4089    6.7308 O   0  0  0  0  0  0  0  0  0  0  0  0
   10.9009    7.2423    8.4439 C   0  0  1  0  0  0  0  0  0  0  0  0
   11.2460    8.7371    8.3882 C   0  0  2  0  0  0  0  0  0  0  0  0
   11.0202    8.9949    7.0025 O   0  0  0  0  0  0  0  0  0  0  0  0
   12.7050    9.1100    8.8204 C   0  0  0  0  0  0  0  0  0  0  0  0
   12.7762   10.5579    8.9064 O   0  0  0  0  0  0  0  0  0  0  0  0
    8.9856    5.7880    9.0252 C   0  0  2  0  0  0  0  0  0  0  0  0
    9.4340    7.0171    8.5230 O   0  0  0  0  0  0  0  0  0  0  0  0
    7.8613    5.1574    8.0935 C   0  0  1  0  0  0  0  0  0  0  0  0
    7.0783    3.8850   13.4310 N   0  0  0  0  0  0  0  0  0  0  0  0
    7.4060    3.7634    8.7764 C   0  0  1  0  0  0  0  0  0  0  0  0
    8.6282    2.8745    8.8926 O   0  0  0  0  0  0  0  0  0  0  0  0
    6.7750    4.0474   10.2419 C   0  0  2  0  0  0  0  0  0  0  0  0
    5.6054    4.8894   10.1035 O   0  0  0  0  0  0  0  0  0  0  0  0
    7.9434    4.7267   11.1547 C   0  0  1  0  0  0  0  0  0  0  0  0
    8.4488    5.9696   10.4753 O   0  0  0  0  0  0  0  0  0  0  0  0
    7.4443    5.0736   12.6011 C   0  0  0  0  0  0  0  0  0  0  0  0
    6.7298    6.1280    7.9246 N   0  0  0  0  0  0  0  0  0  0  0  0
  1  2  1  6  0  0  0
  1  3  1  0  0  0  0
  1 10  1  0  0  0  0
  3  4  1  6  0  0  0
  3  5  1  0  0  0  0
  5  6  1  6  0  0  0
  5  7  1  0  0  0  0
  7  8  1  6  0  0  0
  7  9  1  0  0  0  0
  9 10  1  0  0  0  0
  9 11  1  1  0  0  0
 11 12  1  0  0  0  0
 13 14  1  6  0  0  0
 13 15  1  0  0  0  0
 13 21  1  0  0  0  0
 16 15  1  0  0  0  0
 16 17  1  6  0  0  0
 18  2  1  1  0  0  0
 18 16  1  0  0  0  0
 19 18  1  0  0  0  0
 19 20  1  6  0  0  0
 21 19  1  0  0  0  0
 21 22  1  1  0  0  0
 23 20  1  6  0  0  0
 23 24  1  0  0  0  0
 23 28  1  0  0  0  0
 24 25  1  6  0  0  0
 24 26  1  0  0  0  0
 26 27  1  0  0  0  0
 26 32  1  6  0  0  0
 27 28  1  0  0  0  0
 27 29  1  6  0  0  0
 29 30  1  0  0  0  0
 31 32  1  6  0  0  0
 31 40  1  0  0  0  0
 33 31  1  0  0  0  0
 33 42  1  1  0  0  0
 35 33  1  0  0  0  0
 35 36  1  1  0  0  0
 37 35  1  0  0  0  0
 37 38  1  6  0  0  0
 37 39  1  0  0  0  0
 39 40  1  0  0  0  0
 39 41  1  1  0  0  0
 41 34  1  0  0  0  0
M  END
>  <CHROM.1>
-51.30609568,170.52528749,-72.74436856,117.17383301,-130.37139744,84.34516050
-171.15060460,-132.51602143,65.19929742,11.84194332,7.06999089,7.32190731
-0.80553183,0.03863659,2.15094279

>  <Name>
2et4_lig

>  <RI>
0

>  <Rbt.Current_Directory>
/home/itssahil/PROJECTS/Mol_Feturizer/New_Systems/rnas/2et4

>  <Rbt.Executable>
rbdock ($Id: //depot/dev/client3/rdock/2013.1/src/exe/rbdock.cxx#4 $)

>  <Rbt.Library>
libRbt.so (2013.1, Build901 2013/11/27)

>  <Rbt.Parameter_File>
/export/apps/rDock/src/rDock_2013.1_src/data/scripts/dock_solv.prm

>  <Rbt.Receptor>
prm/pocket_docking_3.prm

>  <SCORE>
-2.32798

>  <SCORE.INTER>
-6.36717

>  <SCORE.INTER.CONST>
1

>  <SCORE.INTER.POLAR>
-1.00506

>  <SCORE.INTER.ROT>
9

>  <SCORE.INTER.SOLV>
20.6051

>  <SCORE.INTER.VDW>
-17.363

>  <SCORE.INTER.norm>
-0.151599

>  <SCORE.INTRA>
4.028

>  <SCORE.INTRA.DIHEDRAL>
3.06442

>  <SCORE.INTRA.DIHEDRAL.0>
21.6909

>  <SCORE.INTRA.POLAR>
0

>  <SCORE.INTRA.POLAR.0>
0

>  <SCORE.INTRA.REPUL>
0

>  <SCORE.INTRA.REPUL.0>
0

>  <SCORE.INTRA.SOLV>
3.45479

>  <SCORE.INTRA.SOLV.lig_0>
-116.606

>  <SCORE.INTRA.VDW>
0.768398

>  <SCORE.INTRA.VDW.0>
-6.01229

>  <SCORE.INTRA.norm>
0.0959049

>  <SCORE.RESTR>
0.0111879

>  <SCORE.RESTR.CAVITY>
0.0111879

>  <SCORE.RESTR.norm>
0.000266379

>  <SCORE.SYSTEM>
0

>  <SCORE.SYSTEM.CONST>
0

>  <SCORE.SYSTEM.DIHEDRAL>
0

>  <SCORE.SYSTEM.SOLV>
0

>  <SCORE.SYSTEM.norm>
0

>  <SCORE.heavy>
42

>  <SCORE.norm>
-0.0554281

>  <RMSD>
5.340

$$$$
2et4_lig
 OpenBabel11021811423D
libRbt.so/2013.1/901 2013/11/27
 42 45  0  0  0  0  0  0  0  0999 V2000
   14.9261    7.6574    6.4286 C   0  0  2  0  0  0  0  0  0  0  0  0
   14.1808    6.6078    5.8081 O   0  0  0  0  0  0  0  0  0  0  0  0
   14.5231    8.9800    5.7280 C   0  0  2  0  0  0  0  0  0  0  0  0
   13.1032    9.2084    5.8139 N   0  0  0  0  0  0  0  0  0  0  0  0
   14.9949    8.9403    4.2458 C   0  0  1  0  0  0  0  0  0  0  0  0
   14.6457   10.1368    3.6229 O   0  0  0  0  0  0  0  0  0  0  0  0
   16.5403    8.6925    4.2308 C   0  0  2  0  0  0  0  0  0  0  0  0
   17.0117    8.6417    2.9008 O   0  0  0  0  0  0  0  0  0  0  0  0
   16.8958    7.3586    4.9548 C   0  0  2  0  0  0  0  0  0  0  0  0
   16.3918    7.4234    6.2921 O   0  0  0  0  0  0  0  0  0  0  0  0
   18.4373    7.0987    4.9955 C   0  0  0  0  0  0  0  0  0  0  0  0
   18.7524    5.8240    5.5406 N   0  0  0  0  0  0  0  0  0  0  0  0
   13.2348    2.4984    6.7424 C   0  0  2  0  0  0  0  0  0  0  0  0
   13.4153    1.0818    7.0835 N   0  0  0  0  0  0  0  0  0  0  0  0
   13.9739    2.8155    5.3333 C   0  0  0  0  0  0  0  0  0  0  0  0
   13.7883    4.3473    4.9778 C   0  0  2  0  0  0  0  0  0  0  0  0
   14.4674    4.6863    3.7147 N   0  0  0  0  0  0  0  0  0  0  0  0
   14.3699    5.2248    6.1373 C   0  0  2  0  0  0  0  0  0  0  0  0
   13.6686    4.8881    7.4948 C   0  0  2  0  0  0  0  0  0  0  0  0
   14.2837    5.7356    8.4960 O   0  0  0  0  0  0  0  0  0  0  0  0
   13.8675    3.3761    7.8347 C   0  0  1  0  0  0  0  0  0  0  0  0
   13.2245    3.1042    9.0340 O   0  0  0  0  0  0  0  0  0  0  0  0
   13.7970    6.9255    8.9246 C   0  0  1  0  0  0  0  0  0  0  0  0
   12.3406    6.7781    9.4372 C   0  0  2  0  0  0  0  0  0  0  0  0
   11.3895    6.8420    8.4144 O   0  0  0  0  0  0  0  0  0  0  0  0
   12.3426    7.8606   10.5007 C   0  0  1  0  0  0  0  0  0  0  0  0
   13.7309    7.8346   11.1555 C   0  0  2  0  0  0  0  0  0  0  0  0
   14.5385    7.5298   10.0186 O   0  0  0  0  0  0  0  0  0  0  0  0
   13.9173    6.7830   12.3019 C   0  0  0  0  0  0  0  0  0  0  0  0
   12.9655    7.1086   13.3493 O   0  0  0  0  0  0  0  0  0  0  0  0
   11.4297   10.1595   10.5535 C   0  0  2  0  0  0  0  0  0  0  0  0
   12.0772    9.1553    9.8211 O   0  0  0  0  0  0  0  0  0  0  0  0
   11.7529   11.6027    9.9683 C   0  0  1  0  0  0  0  0  0  0  0  0
   11.4567    9.5105   14.9923 N   0  0  0  0  0  0  0  0  0  0  0  0
   10.9773   12.6761   10.8973 C   0  0  1  0  0  0  0  0  0  0  0  0
    9.4971   12.3521   10.8562 O   0  0  0  0  0  0  0  0  0  0  0  0
   11.5303   12.5905   12.4183 C   0  0  2  0  0  0  0  0  0  0  0  0
   12.9417   12.9127   12.4324 O   0  0  0  0  0  0  0  0  0  0  0  0
   11.2153   11.0884   12.9699 C   0  0  1  0  0  0  0  0  0  0  0  0
   11.8447   10.0769   12.0518 O   0  0  0  0  0  0  0  0  0  0  0  0
   11.7289   10.8715   14.4364 C   0  0  0  0  0  0  0  0  0  0  0  0
   13.2367   11.8209    9.9290 N   0  0  0  0  0  0  0  0  0  0  0  0
  1  2  1  6  0  0  0
  1  3  1  0  0  0  0
  1 10  1  0  0  0  0
  3  4  1  6  0  0  0
  3  5  1  0  0  0  0
  5  6  1  1  0  0  0
  5  7  1  0  0  0  0
  7  8  1  6  0  0  0
  7  9  1  0  0  0  0
  9 10  1  0  0  0  0
  9 11  1  1  0  0  0
 11 12  1  0  0  0  0
 13 14  1  1  0  0  0
 13 15  1  0  0  0  0
 13 21  1  0  0  0  0
 16 15  1  0  0  0  0
 16 17  1  6  0  0  0
 18  2  1  6  0  0  0
 18 16  1  0  0  0  0
 19 18  1  0  0  0  0
 19 20  1  1  0  0  0
 21 19  1  0  0  0  0
 21 22  1  1  0  0  0
 23 20  1  1  0  0  0
 23 24  1  0  0  0  0
 23 28  1  0  0  0  0
 24 25  1  6  0  0  0
 24 26  1  0  0  0  0
 26 27  1  0  0  0  0
 26 32  1  6  0  0  0
 27 28  1  0  0  0  0
 27 29  1  1  0  0  0
 29 30  1  0  0  0  0
 31 32  1  6  0  0  0
 31 40  1  0  0  0  0
 33 31  1  0  0  0  0
 33 42  1  1  0  0  0
 35 33  1  0  0  0  0
 35 36  1  1  0  0  0
 37 35  1  0  0  0  0
 37 38  1  6  0  0  0
 37 39  1  0  0  0  0
 39 40  1  0  0  0  0
 39 41  1  1  0  0  0
 41 34  1  0  0  0  0
M  END
>  <CHROM.1>
175.35922460,-174.36792989,-160.88858940,96.03686807,55.25146222,150.84133499
-60.97141449,156.02974436,179.65060962,13.65009810,7.79994750,8.42071837
-0.56952220,1.09747044,-0.01279493

>  <Name>
2et4_lig

>  <RI>
1.79929e+07

>  <Rbt.Current_Directory>
/home/itssahil/PROJECTS/Mol_Feturizer/New_Systems/rnas/2et4

>  <Rbt.Executable>
rbdock ($Id: //depot/dev/client3/rdock/2013.1/src/exe/rbdock.cxx#4 $)

>  <Rbt.Library>
libRbt.so (2013.1, Build901 2013/11/27)

>  <Rbt.Parameter_File>
/export/apps/rDock/src/rDock_2013.1_src/data/scripts/dock_solv.prm

>  <Rbt.Receptor>
prm/pocket_docking_7.prm

>  <SCORE>
-11.4286

>  <SCORE.INTER>
-7.37787

>  <SCORE.INTER.CONST>
1

>  <SCORE.INTER.POLAR>
-1.78379

>  <SCORE.INTER.ROT>
9

>  <SCORE.INTER.SOLV>
15.3788

>  <SCORE.INTER.VDW>
-13.6989

>  <SCORE.INTER.norm>
-0.175664

>  <SCORE.INTRA>
-4.0507

>  <SCORE.INTRA.DIHEDRAL>
-8.92944

>  <SCORE.INTRA.DIHEDRAL.0>
21.6909

>  <SCORE.INTRA.POLAR>
0

>  <SCORE.INTRA.POLAR.0>
0

>  <SCORE.INTRA.REPUL>
0

>  <SCORE.INTRA.REPUL.0>
0

>  <SCORE.INTRA.SOLV>
-2.22208

>  <SCORE.INTRA.SOLV.lig_0>
-116.606

>  <SCORE.INTRA.VDW>
1.52505

>  <SCORE.INTRA.VDW.0>
-6.01229

>  <SCORE.INTRA.norm>
-0.0964453

>  <SCORE.RESTR>
0

>  <SCORE.RESTR.CAVITY>
0

>  <SCORE.RESTR.norm>
0

>  <SCORE.SYSTEM>
0

>  <SCORE.SYSTEM.CONST>
0

>  <SCORE.SYSTEM.DIHEDRAL>
0

>  <SCORE.SYSTEM.SOLV>
0

>  <SCORE.SYSTEM.norm>
0

>  <SCORE.heavy>
42

>  <SCORE.norm>
-0.272109

>  <RMSD>
5.361

$$$$
2et4_lig
 OpenBabel11021811423D
libRbt.so/2013.1/901 2013/11/27
 42 45  0  0  0  0  0  0  0  0999 V2000
   14.8115    4.7224    5.4051 C   0  0  2  0  0  0  0  0  0  0  0  0
   15.3411    3.5517    6.0306 O   0  0  0  0  0  0  0  0  0  0  0  0
   14.5082    4.3548    3.9301 C   0  0  2  0  0  0  0  0  0  0  0  0
   13.5971    3.2422    3.8427 N   0  0  0  0  0  0  0  0  0  0  0  0
   15.8431    4.0442    3.1935 C   0  0  1  0  0  0  0  0  0  0  0  0
   15.5690    3.7299    1.8639 O   0  0  0  0  0  0  0  0  0  0  0  0
   16.7778    5.2925    3.3275 C   0  0  2  0  0  0  0  0  0  0  0  0
   18.0077    5.0512    2.6774 O   0  0  0  0  0  0  0  0  0  0  0  0
   17.0444    5.6282    4.8262 C   0  0  2  0  0  0  0  0  0  0  0  0
   15.7857    5.8486    5.4696 O   0  0  0  0  0  0  0  0  0  0  0  0
   17.9423    6.8968    4.9991 C   0  0  0  0  0  0  0  0  0  0  0  0
   19.2798    6.6694    4.5744 N   0  0  0  0  0  0  0  0  0  0  0  0
   15.2056    1.8550   10.0002 C   0  0  2  0  0  0  0  0  0  0  0  0
   15.3591    1.7278   11.4548 N   0  0  0  0  0  0  0  0  0  0  0  0
   16.6575    2.1071    9.3216 C   0  0  0  0  0  0  0  0  0  0  0  0
   16.4841    2.2580    7.7549 C   0  0  2  0  0  0  0  0  0  0  0  0
   17.7784    2.5146    7.0987 N   0  0  0  0  0  0  0  0  0  0  0  0
   15.4998    3.4376    7.4515 C   0  0  2  0  0  0  0  0  0  0  0  0
   14.1138    3.1953    8.1356 C   0  0  2  0  0  0  0  0  0  0  0  0
   13.2886    4.3404    7.8086 O   0  0  0  0  0  0  0  0  0  0  0  0
   14.3012    3.0566    9.6807 C   0  0  1  0  0  0  0  0  0  0  0  0
   13.0600    2.8290   10.2579 O   0  0  0  0  0  0  0  0  0  0  0  0
   13.3528    5.5526    8.4108 C   0  0  1  0  0  0  0  0  0  0  0  0
   14.6650    6.2901    8.0371 C   0  0  2  0  0  0  0  0  0  0  0  0
   15.7504    5.9185    8.8364 O   0  0  0  0  0  0  0  0  0  0  0  0
   14.1692    7.7230    8.0997 C   0  0  1  0  0  0  0  0  0  0  0  0
   12.7342    7.7186    7.5543 C   0  0  2  0  0  0  0  0  0  0  0  0
   12.2771    6.4652    8.0619 O   0  0  0  0  0  0  0  0  0  0  0  0
   12.6043    7.7984    5.9950 C   0  0  0  0  0  0  0  0  0  0  0  0
   13.2020    9.0528    5.5727 O   0  0  0  0  0  0  0  0  0  0  0  0
   13.5885    9.3550    9.8663 C   0  0  2  0  0  0  0  0  0  0  0  0
   14.2176    8.1509    9.5222 O   0  0  0  0  0  0  0  0  0  0  0  0
   14.0939    9.8899   11.2763 C   0  0  1  0  0  0  0  0  0  0  0  0
    8.7964   11.1494   10.5852 N   0  0  0  0  0  0  0  0  0  0  0  0
   13.2910   11.2612   11.5790 C   0  0  1  0  0  0  0  0  0  0  0  0
   13.5790   12.2341   10.4530 O   0  0  0  0  0  0  0  0  0  0  0  0
   11.7011   10.9608   11.6707 C   0  0  2  0  0  0  0  0  0  0  0  0
   11.4511   10.0379   12.7578 O   0  0  0  0  0  0  0  0  0  0  0  0
   11.2284   10.3800   10.2219 C   0  0  1  0  0  0  0  0  0  0  0  0
   12.0436    9.1629    9.8814 O   0  0  0  0  0  0  0  0  0  0  0  0
    9.7004   10.0256   10.1910 C   0  0  0  0  0  0  0  0  0  0  0  0
   13.8859    8.8408   12.3284 N   0  0  0  0  0  0  0  0  0  0  0  0
  1  2  1  1  0  0  0
  1  3  1  0  0  0  0
  1 10  1  0  0  0  0
  3  4  1  1  0  0  0
  3  5  1  0  0  0  0
  5  6  1  6  0  0  0
  5  7  1  0  0  0  0
  7  8  1  6  0  0  0
  7  9  1  0  0  0  0
  9 10  1  0  0  0  0
  9 11  1  6  0  0  0
 11 12  1  0  0  0  0
 13 14  1  1  0  0  0
 13 15  1  0  0  0  0
 13 21  1  0  0  0  0
 16 15  1  0  0  0  0
 16 17  1  6  0  0  0
 18  2  1  6  0  0  0
 18 16  1  0  0  0  0
 19 18  1  0  0  0  0
 19 20  1  1  0  0  0
 21 19  1  0  0  0  0
 21 22  1  1  0  0  0
 23 20  1  6  0  0  0
 23 24  1  0  0  0  0
 23 28  1  0  0  0  0
 24 25  1  1  0  0  0
 24 26  1  0  0  0  0
 26 27  1  0  0  0  0
 26 32  1  1  0  0  0
 27 28  1  0  0  0  0
 27 29  1  6  0  0  0
 29 30  1  0  0  0  0
 31 32  1  1  0  0  0
 31 40  1  0  0  0  0
 33 31  1  0  0  0  0
 33 42  1  1  0  0  0
 35 33  1  0  0  0  0
 35 36  1  6  0  0  0
 37 35  1  0  0  0  0
 37 38  1  1  0  0  0
 37 39  1  0  0  0  0
 39 40  1  0  0  0  0
 39 41  1  1  0  0  0
 41 34  1  0  0  0  0
M  END
>  <CHROM.1>
-167.84367456,-69.22339470,-162.75816211,-78.89399526,70.05914178,-168.97963745
-61.34676017,-162.56671102,54.91574736,14.33610821,6.31299040,7.84548973
-0.06742680,1.09850491,-0.75338399

>  <Name>
2et4_lig

>  <RI>
0

>  <Rbt.Current_Directory>
/home/itssahil/PROJECTS/Mol_Feturizer/New_Systems/rnas/2et4

>  <Rbt.Executable>
rbdock ($Id: //depot/dev/client3/rdock/2013.1/src/exe/rbdock.cxx#4 $)

>  <Rbt.Library>
libRbt.so (2013.1, Build901 2013/11/27)

>  <Rbt.Parameter_File>
/export/apps/rDock/src/rDock_2013.1_src/data/scripts/dock_solv.prm

>  <Rbt.Receptor>
prm/pocket_docking_8.prm

>  <SCORE>
-15.1049

>  <SCORE.INTER>
-7.82415

>  <SCORE.INTER.CONST>
1

>  <SCORE.INTER.POLAR>
-1.60502

>  <SCORE.INTER.ROT>
9

>  <SCORE.INTER.SOLV>
18.0785

>  <SCORE.INTER.VDW>
-15.4922

>  <SCORE.INTER.norm>
-0.186289

>  <SCORE.INTRA>
-7.28077

>  <SCORE.INTRA.DIHEDRAL>
-14.9589

>  <SCORE.INTRA.DIHEDRAL.0>
21.6909

>  <SCORE.INTRA.POLAR>
0

>  <SCORE.INTRA.POLAR.0>
0

>  <SCORE.INTRA.REPUL>
0

>  <SCORE.INTRA.REPUL.0>
0

>  <SCORE.INTRA.SOLV>
-2.02236

>  <SCORE.INTRA.SOLV.lig_0>
-116.606

>  <SCORE.INTRA.VDW>
1.20983

>  <SCORE.INTRA.VDW.0>
-6.01229

>  <SCORE.INTRA.norm>
-0.173352

>  <SCORE.RESTR>
0

>  <SCORE.RESTR.CAVITY>
0

>  <SCORE.RESTR.norm>
0

>  <SCORE.SYSTEM>
0

>  <SCORE.SYSTEM.CONST>
0

>  <SCORE.SYSTEM.DIHEDRAL>
0

>  <SCORE.SYSTEM.SOLV>
0

>  <SCORE.SYSTEM.norm>
0

>  <SCORE.heavy>
42

>  <SCORE.norm>
-0.359641

>  <RMSD>
5.387

$$$$
2et4_lig
 OpenBabel11021811423D
libRbt.so/2013.1/901 2013/11/27
 42 45  0  0  0  0  0  0  0  0999 V2000
   14.7895    8.6933    7.5379 C   0  0  2  0  0  0  0  0  0  0  0  0
   14.9009    7.2716    7.4449 O   0  0  0  0  0  0  0  0  0  0  0  0
   13.7634    8.9989    8.6587 C   0  0  2  0  0  0  0  0  0  0  0  0
   14.1628    8.4100    9.9114 N   0  0  0  0  0  0  0  0  0  0  0  0
   12.3596    8.4885    8.2226 C   0  0  1  0  0  0  0  0  0  0  0  0
   11.4361    8.7789    9.2249 O   0  0  0  0  0  0  0  0  0  0  0  0
   11.9923    9.1694    6.8620 C   0  0  2  0  0  0  0  0  0  0  0  0
   10.7248    8.7279    6.4238 O   0  0  0  0  0  0  0  0  0  0  0  0
   13.0574    8.8418    5.7719 C   0  0  2  0  0  0  0  0  0  0  0  0
   14.3352    9.2783    6.2445 O   0  0  0  0  0  0  0  0  0  0  0  0
   12.7444    9.5405    4.4083 C   0  0  0  0  0  0  0  0  0  0  0  0
   11.5948    8.9928    3.7761 N   0  0  0  0  0  0  0  0  0  0  0  0
   18.5374    6.7645    5.1703 C   0  0  2  0  0  0  0  0  0  0  0  0
   19.6241    6.1128    4.4286 N   0  0  0  0  0  0  0  0  0  0  0  0
   18.4919    6.1862    6.6855 C   0  0  0  0  0  0  0  0  0  0  0  0
   17.3093    6.8817    7.4761 C   0  0  2  0  0  0  0  0  0  0  0  0
   17.2146    6.3662    8.8534 N   0  0  0  0  0  0  0  0  0  0  0  0
   15.9591    6.6233    6.7259 C   0  0  2  0  0  0  0  0  0  0  0  0
   16.0272    7.1598    5.2578 C   0  0  2  0  0  0  0  0  0  0  0  0
   14.7458    6.8608    4.6515 O   0  0  0  0  0  0  0  0  0  0  0  0
   17.1932    6.4585    4.4896 C   0  0  1  0  0  0  0  0  0  0  0  0
   17.2381    6.9632    3.1978 O   0  0  0  0  0  0  0  0  0  0  0  0
   14.0886    5.6795    4.7457 C   0  0  1  0  0  0  0  0  0  0  0  0
   12.7955    5.6929    3.8894 C   0  0  2  0  0  0  0  0  0  0  0  0
   11.7053    6.2669    4.5504 O   0  0  0  0  0  0  0  0  0  0  0  0
   12.7315    4.2234    3.5161 C   0  0  1  0  0  0  0  0  0  0  0  0
   14.1779    3.7613    3.2895 C   0  0  2  0  0  0  0  0  0  0  0  0
   14.8448    4.5229    4.2959 O   0  0  0  0  0  0  0  0  0  0  0  0
   14.7611    4.0431    1.8629 C   0  0  0  0  0  0  0  0  0  0  0  0
   16.1422    3.5939    1.8616 O   0  0  0  0  0  0  0  0  0  0  0  0
   12.7787    3.4598    5.8690 C   0  0  2  0  0  0  0  0  0  0  0  0
   12.0927    3.5022    4.6477 O   0  0  0  0  0  0  0  0  0  0  0  0
   13.0979    1.9631    6.3022 C   0  0  1  0  0  0  0  0  0  0  0  0
   11.9636    4.8166   10.7765 N   0  0  0  0  0  0  0  0  0  0  0  0
   13.8650    2.0342    7.7247 C   0  0  1  0  0  0  0  0  0  0  0  0
   15.1196    2.8648    7.5423 O   0  0  0  0  0  0  0  0  0  0  0  0
   12.9002    2.7087    8.8385 C   0  0  2  0  0  0  0  0  0  0  0  0
   11.7151    1.8931    9.0011 O   0  0  0  0  0  0  0  0  0  0  0  0
   12.5652    4.2256    8.3420 C   0  0  1  0  0  0  0  0  0  0  0  0
   11.9466    4.1776    6.9719 O   0  0  0  0  0  0  0  0  0  0  0  0
   11.6114    4.9806    9.3327 C   0  0  0  0  0  0  0  0  0  0  0  0
   11.8304    1.1622    6.3556 N   0  0  0  0  0  0  0  0  0  0  0  0
  1  2  1  6  0  0  0
  1  3  1  0  0  0  0
  1 10  1  0  0  0  0
  3  4  1  1  0  0  0
  3  5  1  0  0  0  0
  5  6  1  1  0  0  0
  5  7  1  0  0  0  0
  7  8  1  6  0  0  0
  7  9  1  0  0  0  0
  9 10  1  0  0  0  0
  9 11  1  6  0  0  0
 11 12  1  0  0  0  0
 13 14  1  6  0  0  0
 13 15  1  0  0  0  0
 13 21  1  0  0  0  0
 16 15  1  0  0  0  0
 16 17  1  1  0  0  0
 18  2  1  1  0  0  0
 18 16  1  0  0  0  0
 19 18  1  0  0  0  0
 19 20  1  6  0  0  0
 21 19  1  0  0  0  0
 21 22  1  6  0  0  0
 23 20  1  6  0  0  0
 23 24  1  0  0  0  0
 23 28  1  0  0  0  0
 24 25  1  1  0  0  0
 24 26  1  0  0  0  0
 26 27  1  0  0  0  0
 26 32  1  1  0  0  0
 27 28  1  0  0  0  0
 27 29  1  6  0  0  0
 29 30  1  0  0  0  0
 31 32  1  6  0  0  0
 31 40  1  0  0  0  0
 33 31  1  0  0  0  0
 33 42  1  1  0  0  0
 35 33  1  0  0  0  0
 35 36  1  6  0  0  0
 37 35  1  0  0  0  0
 37 38  1  6  0  0  0
 37 39  1  0  0  0  0
 39 40  1  0  0  0  0
 39 41  1  1  0  0  0
 41 34  1  0  0  0  0
M  END
>  <CHROM.1>
-166.13075546,-69.24288214,67.76993690,-45.30251530,-176.07747582,-65.73107995
177.51597613,-119.67133262,44.38193807,14.04556631,5.87831106,6.20063754
-0.00236006,0.74946657,0.29966219

>  <Name>
2et4_lig

>  <RI>
0

>  <Rbt.Current_Directory>
/home/itssahil/PROJECTS/Mol_Feturizer/New_Systems/rnas/2et4

>  <Rbt.Executable>
rbdock ($Id: //depot/dev/client3/rdock/2013.1/src/exe/rbdock.cxx#4 $)

>  <Rbt.Library>
libRbt.so (2013.1, Build901 2013/11/27)

>  <Rbt.Parameter_File>
/export/apps/rDock/src/rDock_2013.1_src/data/scripts/dock_solv.prm

>  <Rbt.Receptor>
prm/pocket_docking_6.prm

>  <SCORE>
-10.3255

>  <SCORE.INTER>
-6.69882

>  <SCORE.INTER.CONST>
1

>  <SCORE.INTER.POLAR>
-1.27091

>  <SCORE.INTER.ROT>
9

>  <SCORE.INTER.SOLV>
16.3891

>  <SCORE.INTER.VDW>
-15.2926

>  <SCORE.INTER.norm>
-0.159496

>  <SCORE.INTRA>
-3.62672

>  <SCORE.INTRA.DIHEDRAL>
-10.7408

>  <SCORE.INTRA.DIHEDRAL.0>
21.6909

>  <SCORE.INTRA.POLAR>
0

>  <SCORE.INTRA.POLAR.0>
0

>  <SCORE.INTRA.REPUL>
0

>  <SCORE.INTRA.REPUL.0>
0

>  <SCORE.INTRA.SOLV>
2.52452

>  <SCORE.INTRA.SOLV.lig_0>
-116.606

>  <SCORE.INTRA.VDW>
0.481426

>  <SCORE.INTRA.VDW.0>
-6.01229

>  <SCORE.INTRA.norm>
-0.0863504

>  <SCORE.RESTR>
0

>  <SCORE.RESTR.CAVITY>
0

>  <SCORE.RESTR.norm>
0

>  <SCORE.SYSTEM>
0

>  <SCORE.SYSTEM.CONST>
0

>  <SCORE.SYSTEM.DIHEDRAL>
0

>  <SCORE.SYSTEM.SOLV>
0

>  <SCORE.SYSTEM.norm>
0

>  <SCORE.heavy>
42

>  <SCORE.norm>
-0.245846

>  <RMSD>
5.391

$$$$
2et4_lig
 OpenBabel11021811423D
libRbt.so/2013.1/901 2013/11/27
 42 45  0  0  0  0  0  0  0  0999 V2000
   14.1199    3.1872    4.3111 C   0  0  2  0  0  0  0  0  0  0  0  0
   15.2493    4.0373    4.5204 O   0  0  0  0  0  0  0  0  0  0  0  0
   12.9516    4.0882    3.8356 C   0  0  2  0  0  0  0  0  0  0  0  0
   13.3018    4.8166    2.6430 N   0  0  0  0  0  0  0  0  0  0  0  0
   12.5495    5.0566    4.9853 C   0  0  1  0  0  0  0  0  0  0  0  0
   11.4886    5.8542    4.5608 O   0  0  0  0  0  0  0  0  0  0  0  0
   12.1812    4.1986    6.2415 C   0  0  2  0  0  0  0  0  0  0  0  0
   11.8158    5.0400    7.3149 O   0  0  0  0  0  0  0  0  0  0  0  0
   13.3819    3.3036    6.6739 C   0  0  2  0  0  0  0  0  0  0  0  0
   13.7484    2.4751    5.5667 O   0  0  0  0  0  0  0  0  0  0  0  0
   13.0359    2.4005    7.9029 C   0  0  0  0  0  0  0  0  0  0  0  0
   12.7370    3.1652    9.0635 N   0  0  0  0  0  0  0  0  0  0  0  0
   18.1787    1.6186    6.5753 C   0  0  2  0  0  0  0  0  0  0  0  0
   19.4803    1.1017    7.0164 N   0  0  0  0  0  0  0  0  0  0  0  0
   18.0543    1.4713    4.9644 C   0  0  0  0  0  0  0  0  0  0  0  0
   16.6552    2.0433    4.4928 C   0  0  2  0  0  0  0  0  0  0  0  0
   16.5094    1.9528    3.0292 N   0  0  0  0  0  0  0  0  0  0  0  0
   16.5265    3.5384    4.9408 C   0  0  2  0  0  0  0  0  0  0  0  0
   16.6773    3.6689    6.4926 C   0  0  2  0  0  0  0  0  0  0  0  0
   16.5589    5.0799    6.7995 O   0  0  0  0  0  0  0  0  0  0  0  0
   18.0651    3.1077    6.9404 C   0  0  1  0  0  0  0  0  0  0  0  0
   18.1646    3.2235    8.3196 O   0  0  0  0  0  0  0  0  0  0  0  0
   15.4543    5.6850    7.2997 C   0  0  1  0  0  0  0  0  0  0  0  0
   15.8370    6.9188    8.1580 C   0  0  2  0  0  0  0  0  0  0  0  0
   16.1632    6.5899    9.4772 O   0  0  0  0  0  0  0  0  0  0  0  0
   14.6178    7.7853    7.9019 C   0  0  1  0  0  0  0  0  0  0  0  0
   14.2190    7.5653    6.4358 C   0  0  2  0  0  0  0  0  0  0  0  0
   14.5222    6.1771    6.2993 O   0  0  0  0  0  0  0  0  0  0  0  0
   14.9918    8.4365    5.3878 C   0  0  0  0  0  0  0  0  0  0  0  0
   14.8279    9.8271    5.7732 O   0  0  0  0  0  0  0  0  0  0  0  0
   12.3150    8.0018    8.7804 C   0  0  2  0  0  0  0  0  0  0  0  0
   13.5505    7.3425    8.8364 O   0  0  0  0  0  0  0  0  0  0  0  0
   12.4658    9.5451    9.1340 C   0  0  1  0  0  0  0  0  0  0  0  0
    8.8922    5.6589   10.4935 N   0  0  0  0  0  0  0  0  0  0  0  0
   10.9865   10.1955    9.0605 C   0  0  1  0  0  0  0  0  0  0  0  0
   10.4424    9.9714    7.6636 O   0  0  0  0  0  0  0  0  0  0  0  0
   10.0216    9.4969   10.1592 C   0  0  2  0  0  0  0  0  0  0  0  0
   10.5566    9.7326   11.4837 O   0  0  0  0  0  0  0  0  0  0  0  0
    9.9218    7.9124    9.7863 C   0  0  1  0  0  0  0  0  0  0  0  0
   11.3038    7.3202    9.7482 O   0  0  0  0  0  0  0  0  0  0  0  0
    9.0270    7.1162   10.7996 C   0  0  0  0  0  0  0  0  0  0  0  0
   13.1129    9.7034   10.4783 N   0  0  0  0  0  0  0  0  0  0  0  0
  1  2  1  1  0  0  0
  1  3  1  0  0  0  0
  1 10  1  0  0  0  0
  3  4  1  6  0  0  0
  3  5  1  0  0  0  0
  5  6  1  6  0  0  0
  5  7  1  0  0  0  0
  7  8  1  1  0  0  0
  7  9  1  0  0  0  0
  9 10  1  0  0  0  0
  9 11  1  1  0  0  0
 11 12  1  0  0  0  0
 13 14  1  6  0  0  0
 13 15  1  0  0  0  0
 13 21  1  0  0  0  0
 16 15  1  0  0  0  0
 16 17  1  6  0  0  0
 18  2  1  1  0  0  0
 18 16  1  0  0  0  0
 19 18  1  0  0  0  0
 19 20  1  6  0  0  0
 21 19  1  0  0  0  0
 21 22  1  1  0  0  0
 23 20  1  6  0  0  0
 23 24  1  0  0  0  0
 23 28  1  0  0  0  0
 24 25  1  1  0  0  0
 24 26  1  0  0  0  0
 26 27  1  0  0  0  0
 26 32  1  1  0  0  0
 27 28  1  0  0  0  0
 27 29  1  6  0  0  0
 29 30  1  0  0  0  0
 31 32  1  1  0  0  0
 31 40  1  0  0  0  0
 33 31  1  0  0  0  0
 33 42  1  1  0  0  0
 35 33  1  0  0  0  0
 35 36  1  6  0  0  0
 37 35  1  0  0  0  0
 37 38  1  1  0  0  0
 37 39  1  0  0  0  0
 39 40  1  0  0  0  0
 39 41  1  1  0  0  0
 41 34  1  0  0  0  0
M  END
>  <CHROM.1>
-178.70623692,-63.11627058,25.67334303,101.85015261,150.80378421,-179.76289180
-55.29070662,-61.90808051,179.42243275,13.90748413,5.63704683,7.16859515
0.88496488,0.23465505,-2.35796920

>  <Name>
2et4_lig

>  <RI>
1.79929e+07

>  <Rbt.Current_Directory>
/home/itssahil/PROJECTS/Mol_Feturizer/New_Systems/rnas/2et4

>  <Rbt.Executable>
rbdock ($Id: //depot/dev/client3/rdock/2013.1/src/exe/rbdock.cxx#4 $)

>  <Rbt.Library>
libRbt.so (2013.1, Build901 2013/11/27)

>  <Rbt.Parameter_File>
/export/apps/rDock/src/rDock_2013.1_src/data/scripts/dock_solv.prm

>  <Rbt.Receptor>
prm/pocket_docking_7.prm

>  <SCORE>
-4.93783

>  <SCORE.INTER>
-2.26437

>  <SCORE.INTER.CONST>
1

>  <SCORE.INTER.POLAR>
-1.83052

>  <SCORE.INTER.ROT>
9

>  <SCORE.INTER.SOLV>
8.71761

>  <SCORE.INTER.VDW>
-7.91372

>  <SCORE.INTER.norm>
-0.0539135

>  <SCORE.INTRA>
-2.67346

>  <SCORE.INTRA.DIHEDRAL>
-7.84597

>  <SCORE.INTRA.DIHEDRAL.0>
21.6909

>  <SCORE.INTRA.POLAR>
0

>  <SCORE.INTRA.POLAR.0>
0

>  <SCORE.INTRA.REPUL>
0.257816

>  <SCORE.INTRA.REPUL.0>
0

>  <SCORE.INTRA.SOLV>
-0.47098

>  <SCORE.INTRA.SOLV.lig_0>
-116.606

>  <SCORE.INTRA.VDW>
0.195934

>  <SCORE.INTRA.VDW.0>
-6.01229

>  <SCORE.INTRA.norm>
-0.0636538

>  <SCORE.RESTR>
0

>  <SCORE.RESTR.CAVITY>
0

>  <SCORE.RESTR.norm>
0

>  <SCORE.SYSTEM>
0

>  <SCORE.SYSTEM.CONST>
0

>  <SCORE.SYSTEM.DIHEDRAL>
0

>  <SCORE.SYSTEM.SOLV>
0

>  <SCORE.SYSTEM.norm>
0

>  <SCORE.heavy>
42

>  <SCORE.norm>
-0.117567

>  <RMSD>
5.418

$$$$
2et4_lig
 OpenBabel11021811423D
libRbt.so/2013.1/901 2013/11/27
 42 45  0  0  0  0  0  0  0  0999 V2000
   13.9038    6.4679    7.6244 C   0  0  2  0  0  0  0  0  0  0  0  0
   14.1681    7.6401    6.8508 O   0  0  0  0  0  0  0  0  0  0  0  0
   14.8223    6.5268    8.8716 C   0  0  2  0  0  0  0  0  0  0  0  0
   14.6005    7.7309    9.6310 N   0  0  0  0  0  0  0  0  0  0  0  0
   16.3075    6.4149    8.4211 C   0  0  1  0  0  0  0  0  0  0  0  0
   17.1300    6.4517    9.5453 O   0  0  0  0  0  0  0  0  0  0  0  0
   16.4734    5.0878    7.6078 C   0  0  2  0  0  0  0  0  0  0  0  0
   17.8090    4.9486    7.1716 O   0  0  0  0  0  0  0  0  0  0  0  0
   15.5233    5.0715    6.3721 C   0  0  2  0  0  0  0  0  0  0  0  0
   14.1793    5.2343    6.8346 O   0  0  0  0  0  0  0  0  0  0  0  0
   15.6322    3.7408    5.5581 C   0  0  0  0  0  0  0  0  0  0  0  0
   16.9166    3.5736    4.9722 N   0  0  0  0  0  0  0  0  0  0  0  0
   12.3049    9.4179    3.3835 C   0  0  2  0  0  0  0  0  0  0  0  0
   11.8275    9.5876    2.0054 N   0  0  0  0  0  0  0  0  0  0  0  0
   13.9169    9.2347    3.3804 C   0  0  0  0  0  0  0  0  0  0  0  0
   14.4243    9.0377    4.8673 C   0  0  2  0  0  0  0  0  0  0  0  0
   15.8842    8.8414    4.9096 N   0  0  0  0  0  0  0  0  0  0  0  0
   13.7101    7.7962    5.5007 C   0  0  2  0  0  0  0  0  0  0  0  0
   12.1560    7.9735    5.4707 C   0  0  2  0  0  0  0  0  0  0  0  0
   11.5944    6.7752    6.0605 O   0  0  0  0  0  0  0  0  0  0  0  0
   11.6709    8.1588    3.9970 C   0  0  1  0  0  0  0  0  0  0  0  0
   10.2935    8.3274    4.0028 O   0  0  0  0  0  0  0  0  0  0  0  0
   10.8483    6.7314    7.1909 C   0  0  1  0  0  0  0  0  0  0  0  0
    9.5849    7.6211    7.0577 C   0  0  2  0  0  0  0  0  0  0  0  0
    9.8259    8.9653    7.3579 O   0  0  0  0  0  0  0  0  0  0  0  0
    8.6350    6.8348    7.9421 C   0  0  1  0  0  0  0  0  0  0  0  0
    8.9445    5.3488    7.7120 C   0  0  2  0  0  0  0  0  0  0  0  0
   10.3614    5.4102    7.5499 O   0  0  0  0  0  0  0  0  0  0  0  0
    8.2435    4.6973    6.4716 C   0  0  0  0  0  0  0  0  0  0  0  0
    6.8104    4.7634    6.6978 O   0  0  0  0  0  0  0  0  0  0  0  0
    8.0381    6.7459   10.3416 C   0  0  2  0  0  0  0  0  0  0  0  0
    8.8937    7.2410    9.3481 O   0  0  0  0  0  0  0  0  0  0  0  0
    8.3950    7.3525   11.7679 C   0  0  1  0  0  0  0  0  0  0  0  0
    6.4552    2.1711   12.1391 N   0  0  0  0  0  0  0  0  0  0  0  0
    7.3664    6.6995   12.8320 C   0  0  1  0  0  0  0  0  0  0  0  0
    5.9559    7.0401   12.3938 O   0  0  0  0  0  0  0  0  0  0  0  0
    7.5685    5.0923   12.8796 C   0  0  2  0  0  0  0  0  0  0  0  0
    8.9183    4.7929   13.3092 O   0  0  0  0  0  0  0  0  0  0  0  0
    7.2308    4.5122   11.3932 C   0  0  1  0  0  0  0  0  0  0  0  0
    8.1109    5.1912   10.3802 O   0  0  0  0  0  0  0  0  0  0  0  0
    7.4149    2.9567   11.3039 C   0  0  0  0  0  0  0  0  0  0  0  0
    9.8335    7.0814   12.0963 N   0  0  0  0  0  0  0  0  0  0  0  0
  1  2  1  6  0  0  0
  1  3  1  0  0  0  0
  1 10  1  0  0  0  0
  3  4  1  6  0  0  0
  3  5  1  0  0  0  0
  5  6  1  1  0  0  0
  5  7  1  0  0  0  0
  7  8  1  6  0  0  0
  7  9  1  0  0  0  0
  9 10  1  0  0  0  0
  9 11  1  1  0  0  0
 11 12  1  0  0  0  0
 13 14  1  6  0  0  0
 13 15  1  0  0  0  0
 13 21  1  0  0  0  0
 16 15  1  0  0  0  0
 16 17  1  6  0  0  0
 18  2  1  1  0  0  0
 18 16  1  0  0  0  0
 19 18  1  0  0  0  0
 19 20  1  6  0  0  0
 21 19  1  0  0  0  0
 21 22  1  1  0  0  0
 23 20  1  6  0  0  0
 23 24  1  0  0  0  0
 23 28  1  0  0  0  0
 24 25  1  1  0  0  0
 24 26  1  0  0  0  0
 26 27  1  0  0  0  0
 26 32  1  1  0  0  0
 27 28  1  0  0  0  0
 27 29  1  6  0  0  0
 29 30  1  0  0  0  0
 31 32  1  6  0  0  0
 31 40  1  0  0  0  0
 33 31  1  0  0  0  0
 33 42  1  1  0  0  0
 35 33  1  0  0  0  0
 35 36  1  6  0  0  0
 37 35  1  0  0  0  0
 37 38  1  6  0  0  0
 37 39  1  0  0  0  0
 39 40  1  0  0  0  0
 39 41  1  1  0  0  0
 41 34  1  0  0  0  0
M  END
>  <CHROM.1>
166.88220271,-64.72371623,-168.10644422,117.67834858,58.15250375,173.58303711
-62.67374043,-176.21167067,65.68856239,11.47527384,6.44486555,7.89999762
-0.65113283,-0.15375306,2.04755367

>  <Name>
2et4_lig

>  <RI>
3.65815e+07

>  <Rbt.Current_Directory>
/home/itssahil/PROJECTS/Mol_Feturizer/New_Systems/rnas/2et4

>  <Rbt.Executable>
rbdock ($Id: //depot/dev/client3/rdock/2013.1/src/exe/rbdock.cxx#4 $)

>  <Rbt.Library>
libRbt.so (2013.1, Build901 2013/11/27)

>  <Rbt.Parameter_File>
/export/apps/rDock/src/rDock_2013.1_src/data/scripts/dock_solv.prm

>  <Rbt.Receptor>
prm/pocket_docking_4.prm

>  <SCORE>
-10.1106

>  <SCORE.INTER>
-3.90168

>  <SCORE.INTER.CONST>
1

>  <SCORE.INTER.POLAR>
-0.817272

>  <SCORE.INTER.ROT>
9

>  <SCORE.INTER.SOLV>
16.3071

>  <SCORE.INTER.VDW>
-14.9126

>  <SCORE.INTER.norm>
-0.0928972

>  <SCORE.INTRA>
-6.20891

>  <SCORE.INTRA.DIHEDRAL>
-12.3419

>  <SCORE.INTRA.DIHEDRAL.0>
21.6909

>  <SCORE.INTRA.POLAR>
0

>  <SCORE.INTRA.POLAR.0>
0

>  <SCORE.INTRA.REPUL>
0.0311638

>  <SCORE.INTRA.REPUL.0>
0

>  <SCORE.INTRA.SOLV>
-3.32403

>  <SCORE.INTRA.SOLV.lig_0>
-116.606

>  <SCORE.INTRA.VDW>
1.46825

>  <SCORE.INTRA.VDW.0>
-6.01229

>  <SCORE.INTRA.norm>
-0.147831

>  <SCORE.RESTR>
0

>  <SCORE.RESTR.CAVITY>
0

>  <SCORE.RESTR.norm>
0

>  <SCORE.SYSTEM>
0

>  <SCORE.SYSTEM.CONST>
0

>  <SCORE.SYSTEM.DIHEDRAL>
0

>  <SCORE.SYSTEM.SOLV>
0

>  <SCORE.SYSTEM.norm>
0

>  <SCORE.heavy>
42

>  <SCORE.norm>
-0.240729

>  <RMSD>
5.448

$$$$
2et4_lig
 OpenBabel11021811423D
libRbt.so/2013.1/901 2013/11/27
 42 45  0  0  0  0  0  0  0  0999 V2000
   12.1580    5.3203    4.6456 C   0  0  2  0  0  0  0  0  0  0  0  0
   12.1309    4.0428    5.2854 O   0  0  0  0  0  0  0  0  0  0  0  0
   10.7267    5.5983    4.1194 C   0  0  2  0  0  0  0  0  0  0  0  0
    9.7575    5.5532    5.1844 N   0  0  0  0  0  0  0  0  0  0  0  0
   10.3810    4.5697    3.0042 C   0  0  1  0  0  0  0  0  0  0  0  0
    9.1003    4.8320    2.5217 O   0  0  0  0  0  0  0  0  0  0  0  0
   11.4701    4.6769    1.8850 C   0  0  2  0  0  0  0  0  0  0  0  0
   11.1989    3.7528    0.8525 O   0  0  0  0  0  0  0  0  0  0  0  0
   12.8906    4.4001    2.4644 C   0  0  2  0  0  0  0  0  0  0  0  0
   13.1361    5.3328    3.5210 O   0  0  0  0  0  0  0  0  0  0  0  0
   14.0100    4.5395    1.3814 C   0  0  0  0  0  0  0  0  0  0  0  0
   15.2857    4.1524    1.8753 N   0  0  0  0  0  0  0  0  0  0  0  0
   14.3933    2.0369    8.3697 C   0  0  2  0  0  0  0  0  0  0  0  0
   15.5370    1.4907    9.1110 N   0  0  0  0  0  0  0  0  0  0  0  0
   14.3224    1.3522    6.9005 C   0  0  0  0  0  0  0  0  0  0  0  0
   13.0962    1.9554    6.1005 C   0  0  2  0  0  0  0  0  0  0  0  0
   13.0087    1.3789    4.7471 N   0  0  0  0  0  0  0  0  0  0  0  0
   13.2555    3.5100    5.9985 C   0  0  2  0  0  0  0  0  0  0  0  0
   13.3517    4.1536    7.4213 C   0  0  2  0  0  0  0  0  0  0  0  0
   13.5107    5.5792    7.2173 O   0  0  0  0  0  0  0  0  0  0  0  0
   14.5702    3.5540    8.1941 C   0  0  1  0  0  0  0  0  0  0  0  0
   14.6220    4.1319    9.4547 O   0  0  0  0  0  0  0  0  0  0  0  0
   13.4971    6.5188    8.1936 C   0  0  1  0  0  0  0  0  0  0  0  0
   14.3252    7.7630    7.7792 C   0  0  2  0  0  0  0  0  0  0  0  0
   15.6924    7.6229    8.0360 O   0  0  0  0  0  0  0  0  0  0  0  0
   13.5490    8.8346    8.5222 C   0  0  1  0  0  0  0  0  0  0  0  0
   12.0669    8.4424    8.4428 C   0  0  2  0  0  0  0  0  0  0  0  0
   12.1781    7.0224    8.5377 O   0  0  0  0  0  0  0  0  0  0  0  0
   11.3209    8.8828    7.1374 C   0  0  0  0  0  0  0  0  0  0  0  0
    9.9282    8.4972    7.2817 O   0  0  0  0  0  0  0  0  0  0  0  0
   13.7415    9.9724   10.7107 C   0  0  2  0  0  0  0  0  0  0  0  0
   14.0410    8.8516    9.9245 O   0  0  0  0  0  0  0  0  0  0  0  0
   14.1718    9.7486   12.2255 C   0  0  1  0  0  0  0  0  0  0  0  0
    9.6363   12.8737   11.9073 N   0  0  0  0  0  0  0  0  0  0  0  0
   13.7616   11.0860   13.0378 C   0  0  1  0  0  0  0  0  0  0  0  0
   14.4748   12.2618   12.4003 O   0  0  0  0  0  0  0  0  0  0  0  0
   12.1563   11.2995   12.9741 C   0  0  2  0  0  0  0  0  0  0  0  0
   11.4989   10.1697   13.5965 O   0  0  0  0  0  0  0  0  0  0  0  0
   11.7493   11.4874   11.4060 C   0  0  1  0  0  0  0  0  0  0  0  0
   12.2209   10.2943   10.6211 O   0  0  0  0  0  0  0  0  0  0  0  0
   10.2048   11.6798   11.2095 C   0  0  0  0  0  0  0  0  0  0  0  0
   13.5231    8.5086   12.7662 N   0  0  0  0  0  0  0  0  0  0  0  0
  1  2  1  6  0  0  0
  1  3  1  0  0  0  0
  1 10  1  0  0  0  0
  3  4  1  1  0  0  0
  3  5  1  0  0  0  0
  5  6  1  6  0  0  0
  5  7  1  0  0  0  0
  7  8  1  6  0  0  0
  7  9  1  0  0  0  0
  9 10  1  0  0  0  0
  9 11  1  6  0  0  0
 11 12  1  0  0  0  0
 13 14  1  1  0  0  0
 13 15  1  0  0  0  0
 13 21  1  0  0  0  0
 16 15  1  0  0  0  0
 16 17  1  6  0  0  0
 18  2  1  1  0  0  0
 18 16  1  0  0  0  0
 19 18  1  0  0  0  0
 19 20  1  6  0  0  0
 21 19  1  0  0  0  0
 21 22  1  1  0  0  0
 23 20  1  6  0  0  0
 23 24  1  0  0  0  0
 23 28  1  0  0  0  0
 24 25  1  1  0  0  0
 24 26  1  0  0  0  0
 26 27  1  0  0  0  0
 26 32  1  1  0  0  0
 27 28  1  0  0  0  0
 27 29  1  6  0  0  0
 29 30  1  0  0  0  0
 31 32  1  6  0  0  0
 31 40  1  0  0  0  0
 33 31  1  0  0  0  0
 33 42  1  1  0  0  0
 35 33  1  0  0  0  0
 35 36  1  6  0  0  0
 37 35  1  0  0  0  0
 37 38  1  6  0  0  0
 37 39  1  0  0  0  0
 39 40  1  0  0  0  0
 39 41  1  1  0  0  0
 41 34  1  0  0  0  0
M  END
>  <CHROM.1>
-174.21377039,-173.88451973,-159.16632204,172.95831247,152.99697521,163.46461601
-176.66724835,172.56265034,60.14132783,12.74169903,6.63534405,7.54698965
1.56750655,0.86941277,-2.28217539

>  <Name>
2et4_lig

>  <RI>
0

>  <Rbt.Current_Directory>
/home/itssahil/PROJECTS/Mol_Feturizer/New_Systems/rnas/2et4

>  <Rbt.Executable>
rbdock ($Id: //depot/dev/client3/rdock/2013.1/src/exe/rbdock.cxx#4 $)

>  <Rbt.Library>
libRbt.so (2013.1, Build901 2013/11/27)

>  <Rbt.Parameter_File>
/export/apps/rDock/src/rDock_2013.1_src/data/scripts/dock_solv.prm

>  <Rbt.Receptor>
prm/pocket_docking_8.prm

>  <SCORE>
-12.1901

>  <SCORE.INTER>
-4.24215

>  <SCORE.INTER.CONST>
1

>  <SCORE.INTER.POLAR>
-0.666712

>  <SCORE.INTER.ROT>
9

>  <SCORE.INTER.SOLV>
11.0484

>  <SCORE.INTER.VDW>
-13.8885

>  <SCORE.INTER.norm>
-0.101003

>  <SCORE.INTRA>
-7.94798

>  <SCORE.INTRA.DIHEDRAL>
-14.448

>  <SCORE.INTRA.DIHEDRAL.0>
21.6909

>  <SCORE.INTRA.POLAR>
0

>  <SCORE.INTRA.POLAR.0>
0

>  <SCORE.INTRA.REPUL>
0

>  <SCORE.INTRA.REPUL.0>
0

>  <SCORE.INTRA.SOLV>
-3.73336

>  <SCORE.INTRA.SOLV.lig_0>
-116.606

>  <SCORE.INTRA.VDW>
1.14272

>  <SCORE.INTRA.VDW.0>
-6.01229

>  <SCORE.INTRA.norm>
-0.189238

>  <SCORE.RESTR>
0

>  <SCORE.RESTR.CAVITY>
0

>  <SCORE.RESTR.norm>
0

>  <SCORE.SYSTEM>
0

>  <SCORE.SYSTEM.CONST>
0

>  <SCORE.SYSTEM.DIHEDRAL>
0

>  <SCORE.SYSTEM.SOLV>
0

>  <SCORE.SYSTEM.norm>
0

>  <SCORE.heavy>
42

>  <SCORE.norm>
-0.290241

>  <RMSD>
5.474

$$$$
2et4_lig
 OpenBabel11021811423D
libRbt.so/2013.1/901 2013/11/27
 42 45  0  0  0  0  0  0  0  0999 V2000
   15.1820    4.3454    6.7168 C   0  0  2  0  0  0  0  0  0  0  0  0
   13.8682    4.8209    7.0166 O   0  0  0  0  0  0  0  0  0  0  0  0
   15.3149    2.9381    7.3527 C   0  0  2  0  0  0  0  0  0  0  0  0
   14.2970    2.0429    6.8646 N   0  0  0  0  0  0  0  0  0  0  0  0
   15.2508    3.0667    8.9021 C   0  0  1  0  0  0  0  0  0  0  0  0
   15.3867    1.8022    9.4716 O   0  0  0  0  0  0  0  0  0  0  0  0
   16.3818    4.0477    9.3587 C   0  0  2  0  0  0  0  0  0  0  0  0
   16.3559    4.2001   10.7622 O   0  0  0  0  0  0  0  0  0  0  0  0
   16.2114    5.4434    8.6856 C   0  0  2  0  0  0  0  0  0  0  0  0
   16.2197    5.2634    7.2664 O   0  0  0  0  0  0  0  0  0  0  0  0
   17.3491    6.4382    9.0872 C   0  0  0  0  0  0  0  0  0  0  0  0
   17.3182    6.7581   10.4720 N   0  0  0  0  0  0  0  0  0  0  0  0
   13.4608    8.1944    4.3505 C   0  0  2  0  0  0  0  0  0  0  0  0
   12.8596    9.3307    3.6412 N   0  0  0  0  0  0  0  0  0  0  0  0
   12.6302    6.8425    4.0116 C   0  0  0  0  0  0  0  0  0  0  0  0
   13.2740    5.6234    4.7903 C   0  0  2  0  0  0  0  0  0  0  0  0
   12.5335    4.3759    4.5312 N   0  0  0  0  0  0  0  0  0  0  0  0
   13.2687    5.9263    6.3268 C   0  0  2  0  0  0  0  0  0  0  0  0
   14.0480    7.2472    6.6359 C   0  0  2  0  0  0  0  0  0  0  0  0
   13.9717    7.4434    8.0693 O   0  0  0  0  0  0  0  0  0  0  0  0
   13.3961    8.4408    5.8667 C   0  0  1  0  0  0  0  0  0  0  0  0
   14.1151    9.5938    6.1482 O   0  0  0  0  0  0  0  0  0  0  0  0
   12.8411    7.3719    8.8129 C   0  0  1  0  0  0  0  0  0  0  0  0
   13.1434    7.6361   10.3110 C   0  0  2  0  0  0  0  0  0  0  0  0
   13.5754    6.4948   10.9934 O   0  0  0  0  0  0  0  0  0  0  0  0
   11.8296    8.2767   10.7186 C   0  0  1  0  0  0  0  0  0  0  0  0
   11.3733    9.1416    9.5352 C   0  0  2  0  0  0  0  0  0  0  0  0
   11.8086    8.3268    8.4469 O   0  0  0  0  0  0  0  0  0  0  0  0
   11.9927   10.5793    9.4711 C   0  0  0  0  0  0  0  0  0  0  0  0
   13.4366   10.4290    9.4306 O   0  0  0  0  0  0  0  0  0  0  0  0
    9.5185    7.5202   11.1748 C   0  0  2  0  0  0  0  0  0  0  0  0
   10.8675    7.1806   11.0042 O   0  0  0  0  0  0  0  0  0  0  0  0
    9.3289    8.5585   12.3646 C   0  0  1  0  0  0  0  0  0  0  0  0
    6.7155    4.0532   10.7918 N   0  0  0  0  0  0  0  0  0  0  0  0
    7.7439    8.8590   12.4840 C   0  0  1  0  0  0  0  0  0  0  0  0
    7.2670    9.4080   11.1541 O   0  0  0  0  0  0  0  0  0  0  0  0
    6.9495    7.4939   12.8469 C   0  0  2  0  0  0  0  0  0  0  0  0
    7.4152    6.9950   14.1238 O   0  0  0  0  0  0  0  0  0  0  0  0
    7.1979    6.4431   11.6246 C   0  0  1  0  0  0  0  0  0  0  0  0
    8.6757    6.2373   11.4354 O   0  0  0  0  0  0  0  0  0  0  0  0
    6.4935    5.0632   11.8716 C   0  0  0  0  0  0  0  0  0  0  0  0
    9.9207    8.0063   13.6278 N   0  0  0  0  0  0  0  0  0  0  0  0
  1  2  1  1  0  0  0
  1  3  1  0  0  0  0
  1 10  1  0  0  0  0
  3  4  1  6  0  0  0
  3  5  1  0  0  0  0
  5  6  1  1  0  0  0
  5  7  1  0  0  0  0
  7  8  1  1  0  0  0
  7  9  1  0  0  0  0
  9 10  1  0  0  0  0
  9 11  1  6  0  0  0
 11 12  1  0  0  0  0
 13 14  1  6  0  0  0
 13 15  1  0  0  0  0
 13 21  1  0  0  0  0
 16 15  1  0  0  0  0
 16 17  1  1  0  0  0
 18  2  1  1  0  0  0
 18 16  1  0  0  0  0
 19 18  1  0  0  0  0
 19 20  1  1  0  0  0
 21 19  1  0  0  0  0
 21 22  1  6  0  0  0
 23 20  1  6  0  0  0
 23 24  1  0  0  0  0
 23 28  1  0  0  0  0
 24 25  1  1  0  0  0
 24 26  1  0  0  0  0
 26 27  1  0  0  0  0
 26 32  1  6  0  0  0
 27 28  1  0  0  0  0
 27 29  1  1  0  0  0
 29 30  1  0  0  0  0
 31 32  1  1  0  0  0
 31 40  1  0  0  0  0
 33 31  1  0  0  0  0
 33 42  1  1  0  0  0
 35 33  1  0  0  0  0
 35 36  1  6  0  0  0
 37 35  1  0  0  0  0
 37 38  1  1  0  0  0
 37 39  1  0  0  0  0
 39 40  1  0  0  0  0
 39 41  1  1  0  0  0
 41 34  1  0  0  0  0
M  END
>  <CHROM.1>
-164.13604430,-65.16065631,55.91125151,-48.66648253,179.94481946,-169.08412919
57.60717489,-58.44148423,-178.75121496,12.40539334,6.63108971,9.04432319
-0.23708085,-0.63192144,2.36178998

>  <Name>
2et4_lig

>  <RI>
0

>  <Rbt.Current_Directory>
/home/itssahil/PROJECTS/Mol_Feturizer/New_Systems/rnas/2et4

>  <Rbt.Executable>
rbdock ($Id: //depot/dev/client3/rdock/2013.1/src/exe/rbdock.cxx#4 $)

>  <Rbt.Library>
libRbt.so (2013.1, Build901 2013/11/27)

>  <Rbt.Parameter_File>
/export/apps/rDock/src/rDock_2013.1_src/data/scripts/dock_solv.prm

>  <Rbt.Receptor>
prm/pocket_docking_6.prm

>  <SCORE>
-14.6415

>  <SCORE.INTER>
-6.22135

>  <SCORE.INTER.CONST>
1

>  <SCORE.INTER.POLAR>
-1.5988

>  <SCORE.INTER.ROT>
9

>  <SCORE.INTER.SOLV>
13.2239

>  <SCORE.INTER.VDW>
-12.8262

>  <SCORE.INTER.norm>
-0.148127

>  <SCORE.INTRA>
-8.42014

>  <SCORE.INTRA.DIHEDRAL>
-18.9403

>  <SCORE.INTRA.DIHEDRAL.0>
21.6909

>  <SCORE.INTRA.POLAR>
0

>  <SCORE.INTRA.POLAR.0>
0

>  <SCORE.INTRA.REPUL>
0

>  <SCORE.INTRA.REPUL.0>
0

>  <SCORE.INTRA.SOLV>
-0.220114

>  <SCORE.INTRA.SOLV.lig_0>
-116.606

>  <SCORE.INTRA.VDW>
1.16006

>  <SCORE.INTRA.VDW.0>
-6.01229

>  <SCORE.INTRA.norm>
-0.20048

>  <SCORE.RESTR>
0

>  <SCORE.RESTR.CAVITY>
0

>  <SCORE.RESTR.norm>
0

>  <SCORE.SYSTEM>
0

>  <SCORE.SYSTEM.CONST>
0

>  <SCORE.SYSTEM.DIHEDRAL>
0

>  <SCORE.SYSTEM.SOLV>
0

>  <SCORE.SYSTEM.norm>
0

>  <SCORE.heavy>
42

>  <SCORE.norm>
-0.348607

>  <RMSD>
5.487

$$$$
2et4_lig
 OpenBabel11021811423D
libRbt.so/2013.1/901 2013/11/27
 42 45  0  0  0  0  0  0  0  0999 V2000
   14.9466    3.2500    3.3454 C   0  0  2  0  0  0  0  0  0  0  0  0
   15.0436    2.7680    4.6872 O   0  0  0  0  0  0  0  0  0  0  0  0
   15.8984    4.4678    3.2273 C   0  0  2  0  0  0  0  0  0  0  0  0
   17.2513    4.1125    3.5723 N   0  0  0  0  0  0  0  0  0  0  0  0
   15.3737    5.6190    4.1332 C   0  0  1  0  0  0  0  0  0  0  0  0
   16.2220    6.7180    4.0128 O   0  0  0  0  0  0  0  0  0  0  0  0
   13.9066    5.9518    3.7011 C   0  0  2  0  0  0  0  0  0  0  0  0
   13.3867    6.9900    4.5044 O   0  0  0  0  0  0  0  0  0  0  0  0
   12.9923    4.6956    3.8269 C   0  0  2  0  0  0  0  0  0  0  0  0
   13.5479    3.6511    3.0225 O   0  0  0  0  0  0  0  0  0  0  0  0
   11.5262    4.9805    3.3635 C   0  0  0  0  0  0  0  0  0  0  0  0
   10.6623    3.8782    3.6077 N   0  0  0  0  0  0  0  0  0  0  0  0
   17.5954    0.2056    7.0487 C   0  0  2  0  0  0  0  0  0  0  0  0
   18.8117   -0.4079    7.5965 N   0  0  0  0  0  0  0  0  0  0  0  0
   17.5456   -0.0279    5.4440 C   0  0  0  0  0  0  0  0  0  0  0  0
   16.2396    0.6481    4.8568 C   0  0  2  0  0  0  0  0  0  0  0  0
   16.1663    0.4822    3.3944 N   0  0  0  0  0  0  0  0  0  0  0  0
   16.2386    2.1734    5.2118 C   0  0  2  0  0  0  0  0  0  0  0  0
   16.3162    2.3840    6.7602 C   0  0  2  0  0  0  0  0  0  0  0  0
   16.3246    3.8160    6.9800 O   0  0  0  0  0  0  0  0  0  0  0  0
   17.6133    1.7184    7.3224 C   0  0  1  0  0  0  0  0  0  0  0  0
   17.6479    1.9087    8.6965 O   0  0  0  0  0  0  0  0  0  0  0  0
   16.0007    4.4344    8.1415 C   0  0  1  0  0  0  0  0  0  0  0  0
   17.1143    5.4234    8.5740 C   0  0  2  0  0  0  0  0  0  0  0  0
   18.1528    4.8068    9.2785 O   0  0  0  0  0  0  0  0  0  0  0  0
   16.2627    6.4579    9.2863 C   0  0  1  0  0  0  0  0  0  0  0  0
   14.9548    6.5773    8.4913 C   0  0  2  0  0  0  0  0  0  0  0  0
   14.7772    5.2173    8.0956 O   0  0  0  0  0  0  0  0  0  0  0  0
   15.0000    7.5422    7.2578 C   0  0  0  0  0  0  0  0  0  0  0  0
   15.2936    8.8736    7.7581 O   0  0  0  0  0  0  0  0  0  0  0  0
   15.4565    6.8544   11.5916 C   0  0  2  0  0  0  0  0  0  0  0  0
   16.0253    5.9664   10.6686 O   0  0  0  0  0  0  0  0  0  0  0  0
   15.2702    6.1695   13.0149 C   0  0  1  0  0  0  0  0  0  0  0  0
   12.1641    9.3443    9.8845 N   0  0  0  0  0  0  0  0  0  0  0  0
   14.5910    7.2706   13.9861 C   0  0  1  0  0  0  0  0  0  0  0  0
   15.5045    8.4790   14.0395 O   0  0  0  0  0  0  0  0  0  0  0  0
   13.1352    7.6903   13.4108 C   0  0  2  0  0  0  0  0  0  0  0  0
   12.2795    6.5229   13.3784 O   0  0  0  0  0  0  0  0  0  0  0  0
   13.3632    8.3529   11.9381 C   0  0  1  0  0  0  0  0  0  0  0  0
   14.0897    7.3742   11.0571 O   0  0  0  0  0  0  0  0  0  0  0  0
   12.0142    8.7817   11.2616 C   0  0  0  0  0  0  0  0  0  0  0  0
   14.4529    4.9186   12.8802 N   0  0  0  0  0  0  0  0  0  0  0  0
  1  2  1  1  0  0  0
  1  3  1  0  0  0  0
  1 10  1  0  0  0  0
  3  4  1  1  0  0  0
  3  5  1  0  0  0  0
  5  6  1  6  0  0  0
  5  7  1  0  0  0  0
  7  8  1  1  0  0  0
  7  9  1  0  0  0  0
  9 10  1  0  0  0  0
  9 11  1  6  0  0  0
 11 12  1  0  0  0  0
 13 14  1  6  0  0  0
 13 15  1  0  0  0  0
 13 21  1  0  0  0  0
 16 15  1  0  0  0  0
 16 17  1  6  0  0  0
 18  2  1  1  0  0  0
 18 16  1  0  0  0  0
 19 18  1  0  0  0  0
 19 20  1  6  0  0  0
 21 19  1  0  0  0  0
 21 22  1  1  0  0  0
 23 20  1  6  0  0  0
 23 24  1  0  0  0  0
 23 28  1  0  0  0  0
 24 25  1  1  0  0  0
 24 26  1  0  0  0  0
 26 27  1  0  0  0  0
 26 32  1  1  0  0  0
 27 28  1  0  0  0  0
 27 29  1  6  0  0  0
 29 30  1  0  0  0  0
 31 32  1  6  0  0  0
 31 40  1  0  0  0  0
 33 31  1  0  0  0  0
 33 42  1  6  0  0  0
 35 33  1  0  0  0  0
 35 36  1  6  0  0  0
 37 35  1  0  0  0  0
 37 38  1  6  0  0  0
 37 39  1  0  0  0  0
 39 40  1  0  0  0  0
 39 41  1  6  0  0  0
 41 34  1  0  0  0  0
M  END
>  <CHROM.1>
-66.77495314,-173.91440223,-85.84076490,159.82992541,128.06017175,169.27530090
-61.69064251,179.92264926,-177.62410541,15.16557124,4.96524682,7.69199716
1.32646871,0.87858006,-1.92802205

>  <Name>
2et4_lig

>  <RI>
1.79929e+07

>  <Rbt.Current_Directory>
/home/itssahil/PROJECTS/Mol_Feturizer/New_Systems/rnas/2et4

>  <Rbt.Executable>
rbdock ($Id: //depot/dev/client3/rdock/2013.1/src/exe/rbdock.cxx#4 $)

>  <Rbt.Library>
libRbt.so (2013.1, Build901 2013/11/27)

>  <Rbt.Parameter_File>
/export/apps/rDock/src/rDock_2013.1_src/data/scripts/dock_solv.prm

>  <Rbt.Receptor>
prm/pocket_docking_7.prm

>  <SCORE>
-9.1088

>  <SCORE.INTER>
-5.29695

>  <SCORE.INTER.CONST>
1

>  <SCORE.INTER.POLAR>
-0.89718

>  <SCORE.INTER.ROT>
9

>  <SCORE.INTER.SOLV>
17.2737

>  <SCORE.INTER.VDW>
-15.8986

>  <SCORE.INTER.norm>
-0.126118

>  <SCORE.INTRA>
-3.81748

>  <SCORE.INTRA.DIHEDRAL>
-9.05002

>  <SCORE.INTRA.DIHEDRAL.0>
21.6909

>  <SCORE.INTRA.POLAR>
0

>  <SCORE.INTRA.POLAR.0>
0

>  <SCORE.INTRA.REPUL>
0

>  <SCORE.INTRA.REPUL.0>
0

>  <SCORE.INTRA.SOLV>
0.196462

>  <SCORE.INTRA.SOLV.lig_0>
-116.606

>  <SCORE.INTRA.VDW>
0.609302

>  <SCORE.INTRA.VDW.0>
-6.01229

>  <SCORE.INTRA.norm>
-0.0908923

>  <SCORE.RESTR>
0.00562701

>  <SCORE.RESTR.CAVITY>
0.00562701

>  <SCORE.RESTR.norm>
0.000133976

>  <SCORE.SYSTEM>
0

>  <SCORE.SYSTEM.CONST>
0

>  <SCORE.SYSTEM.DIHEDRAL>
0

>  <SCORE.SYSTEM.SOLV>
0

>  <SCORE.SYSTEM.norm>
0

>  <SCORE.heavy>
42

>  <SCORE.norm>
-0.216876

>  <RMSD>
5.527

$$$$
2et4_lig
 OpenBabel11021811423D
libRbt.so/2013.1/901 2013/11/27
 42 45  0  0  0  0  0  0  0  0999 V2000
   12.0677    8.9019    6.9326 C   0  0  2  0  0  0  0  0  0  0  0  0
   11.8692    7.5730    6.4459 O   0  0  0  0  0  0  0  0  0  0  0  0
   13.4188    8.9134    7.6922 C   0  0  2  0  0  0  0  0  0  0  0  0
   14.5021    8.4863    6.8437 N   0  0  0  0  0  0  0  0  0  0  0  0
   13.3062    8.0094    8.9536 C   0  0  1  0  0  0  0  0  0  0  0  0
   14.5168    8.0343    9.6433 O   0  0  0  0  0  0  0  0  0  0  0  0
   12.1159    8.5320    9.8254 C   0  0  2  0  0  0  0  0  0  0  0  0
   11.9722    7.7336   10.9810 O   0  0  0  0  0  0  0  0  0  0  0  0
   10.7839    8.5114    9.0159 C   0  0  2  0  0  0  0  0  0  0  0  0
   10.9581    9.3086    7.8408 O   0  0  0  0  0  0  0  0  0  0  0  0
    9.5787    9.0668    9.8432 C   0  0  0  0  0  0  0  0  0  0  0  0
    8.3332    8.8371    9.1974 N   0  0  0  0  0  0  0  0  0  0  0  0
   12.4294    5.5162    2.6896 C   0  0  2  0  0  0  0  0  0  0  0  0
   13.0844    4.9968    1.4826 N   0  0  0  0  0  0  0  0  0  0  0  0
   12.5151    7.1363    2.6987 C   0  0  0  0  0  0  0  0  0  0  0  0
   11.8202    7.6900    4.0093 C   0  0  2  0  0  0  0  0  0  0  0  0
   11.8976    9.1603    4.0719 N   0  0  0  0  0  0  0  0  0  0  0  0
   12.5189    7.0746    5.2685 C   0  0  2  0  0  0  0  0  0  0  0  0
   12.4542    5.5118    5.2321 C   0  0  2  0  0  0  0  0  0  0  0  0
   13.1353    5.0446    6.4224 O   0  0  0  0  0  0  0  0  0  0  0  0
   13.1504    4.9814    3.9377 C   0  0  1  0  0  0  0  0  0  0  0  0
   13.0654    3.5964    3.9258 O   0  0  0  0  0  0  0  0  0  0  0  0
   12.6375    5.0918    7.6819 C   0  0  1  0  0  0  0  0  0  0  0  0
   11.3937    4.1760    7.8227 C   0  0  2  0  0  0  0  0  0  0  0  0
   10.2084    4.7928    7.4110 O   0  0  0  0  0  0  0  0  0  0  0  0
   11.5425    3.7802    9.2801 C   0  0  1  0  0  0  0  0  0  0  0  0
   13.0461    3.6155    9.5424 C   0  0  2  0  0  0  0  0  0  0  0  0
   13.5601    4.6624    8.7193 O   0  0  0  0  0  0  0  0  0  0  0  0
   13.6499    2.2218    9.1579 C   0  0  0  0  0  0  0  0  0  0  0  0
   12.9380    1.2136    9.9232 O   0  0  0  0  0  0  0  0  0  0  0  0
   11.1148    4.8024   11.4922 C   0  0  2  0  0  0  0  0  0  0  0  0
   10.9552    4.8706   10.1016 O   0  0  0  0  0  0  0  0  0  0  0  0
   10.6266    3.4004   12.0630 C   0  0  1  0  0  0  0  0  0  0  0  0
   10.0340    8.5784   13.6652 N   0  0  0  0  0  0  0  0  0  0  0  0
   10.8349    3.4424   13.6666 C   0  0  1  0  0  0  0  0  0  0  0  0
   12.3021    3.7020   13.9444 O   0  0  0  0  0  0  0  0  0  0  0  0
    9.9234    4.6175   14.3106 C   0  0  2  0  0  0  0  0  0  0  0  0
    8.5280    4.3423   14.0403 O   0  0  0  0  0  0  0  0  0  0  0  0
   10.4275    6.0321   13.6746 C   0  0  1  0  0  0  0  0  0  0  0  0
   10.3374    5.9659   12.1748 O   0  0  0  0  0  0  0  0  0  0  0  0
    9.5994    7.2540   14.2062 C   0  0  0  0  0  0  0  0  0  0  0  0
    9.2035    3.1490   11.6600 N   0  0  0  0  0  0  0  0  0  0  0  0
  1  2  1  1  0  0  0
  1  3  1  0  0  0  0
  1 10  1  0  0  0  0
  3  4  1  6  0  0  0
  3  5  1  0  0  0  0
  5  6  1  1  0  0  0
  5  7  1  0  0  0  0
  7  8  1  1  0  0  0
  7  9  1  0  0  0  0
  9 10  1  0  0  0  0
  9 11  1  1  0  0  0
 11 12  1  0  0  0  0
 13 14  1  6  0  0  0
 13 15  1  0  0  0  0
 13 21  1  0  0  0  0
 16 15  1  0  0  0  0
 16 17  1  1  0  0  0
 18  2  1  1  0  0  0
 18 16  1  0  0  0  0
 19 18  1  0  0  0  0
 19 20  1  1  0  0  0
 21 19  1  0  0  0  0
 21 22  1  1  0  0  0
 23 20  1  6  0  0  0
 23 24  1  0  0  0  0
 23 28  1  0  0  0  0
 24 25  1  1  0  0  0
 24 26  1  0  0  0  0
 26 27  1  0  0  0  0
 26 32  1  1  0  0  0
 27 28  1  0  0  0  0
 27 29  1  6  0  0  0
 29 30  1  0  0  0  0
 31 32  1  6  0  0  0
 31 40  1  0  0  0  0
 33 31  1  0  0  0  0
 33 42  1  1  0  0  0
 35 33  1  0  0  0  0
 35 36  1  6  0  0  0
 37 35  1  0  0  0  0
 37 38  1  6  0  0  0
 37 39  1  0  0  0  0
 39 40  1  0  0  0  0
 39 41  1  1  0  0  0
 41 34  1  0  0  0  0
M  END
>  <CHROM.1>
-79.31511492,-169.87282391,-75.23091765,74.74807141,65.14081337,-172.74206746
-58.91327029,-52.82869212,179.28624948,11.72447147,5.98611257,8.78125625
0.67050801,1.24435630,-0.53906968

>  <Name>
2et4_lig

>  <RI>
0

>  <Rbt.Current_Directory>
/home/itssahil/PROJECTS/Mol_Feturizer/New_Systems/rnas/2et4

>  <Rbt.Executable>
rbdock ($Id: //depot/dev/client3/rdock/2013.1/src/exe/rbdock.cxx#4 $)

>  <Rbt.Library>
libRbt.so (2013.1, Build901 2013/11/27)

>  <Rbt.Parameter_File>
/export/apps/rDock/src/rDock_2013.1_src/data/scripts/dock_solv.prm

>  <Rbt.Receptor>
prm/pocket_docking_6.prm

>  <SCORE>
-10.9339

>  <SCORE.INTER>
-3.3363

>  <SCORE.INTER.CONST>
1

>  <SCORE.INTER.POLAR>
-0.821056

>  <SCORE.INTER.ROT>
9

>  <SCORE.INTER.SOLV>
14.5475

>  <SCORE.INTER.VDW>
-13.9365

>  <SCORE.INTER.norm>
-0.0794356

>  <SCORE.INTRA>
-7.5976

>  <SCORE.INTRA.DIHEDRAL>
-16.7201

>  <SCORE.INTRA.DIHEDRAL.0>
21.6909

>  <SCORE.INTRA.POLAR>
0

>  <SCORE.INTRA.POLAR.0>
0

>  <SCORE.INTRA.REPUL>
0

>  <SCORE.INTRA.REPUL.0>
0

>  <SCORE.INTRA.SOLV>
2.0918

>  <SCORE.INTRA.SOLV.lig_0>
-116.606

>  <SCORE.INTRA.VDW>
-0.28345

>  <SCORE.INTRA.VDW.0>
-6.01229

>  <SCORE.INTRA.norm>
-0.180895

>  <SCORE.RESTR>
0

>  <SCORE.RESTR.CAVITY>
0

>  <SCORE.RESTR.norm>
0

>  <SCORE.SYSTEM>
0

>  <SCORE.SYSTEM.CONST>
0

>  <SCORE.SYSTEM.DIHEDRAL>
0

>  <SCORE.SYSTEM.SOLV>
0

>  <SCORE.SYSTEM.norm>
0

>  <SCORE.heavy>
42

>  <SCORE.norm>
-0.260331

>  <RMSD>
5.529

$$$$
2et4_lig
 OpenBabel11021811423D
libRbt.so/2013.1/901 2013/11/27
 42 45  0  0  0  0  0  0  0  0999 V2000
   12.2690    5.2596    6.1205 C   0  0  2  0  0  0  0  0  0  0  0  0
   11.6548    5.3605    7.4069 O   0  0  0  0  0  0  0  0  0  0  0  0
   11.9840    3.8318    5.5887 C   0  0  2  0  0  0  0  0  0  0  0  0
   10.5693    3.5662    5.5290 N   0  0  0  0  0  0  0  0  0  0  0  0
   12.7108    2.7934    6.4913 C   0  0  1  0  0  0  0  0  0  0  0  0
   12.4663    1.5119    6.0015 O   0  0  0  0  0  0  0  0  0  0  0  0
   14.2368    3.1415    6.5065 C   0  0  2  0  0  0  0  0  0  0  0  0
   14.9364    2.2257    7.3222 O   0  0  0  0  0  0  0  0  0  0  0  0
   14.4709    4.5881    7.0379 C   0  0  2  0  0  0  0  0  0  0  0  0
   13.7377    5.4964    6.2108 O   0  0  0  0  0  0  0  0  0  0  0  0
   15.9832    4.9858    7.0281 C   0  0  0  0  0  0  0  0  0  0  0  0
   16.7591    4.1671    7.8935 N   0  0  0  0  0  0  0  0  0  0  0  0
   12.8894    9.2770    8.7453 C   0  0  2  0  0  0  0  0  0  0  0  0
   12.9776   10.4946    9.5611 N   0  0  0  0  0  0  0  0  0  0  0  0
   11.3692    9.0920    8.2096 C   0  0  0  0  0  0  0  0  0  0  0  0
   11.2767    7.7702    7.3428 C   0  0  2  0  0  0  0  0  0  0  0  0
    9.9037    7.5484    6.8557 N   0  0  0  0  0  0  0  0  0  0  0  0
   11.7292    6.5468    8.2095 C   0  0  2  0  0  0  0  0  0  0  0  0
   13.1856    6.7517    8.7431 C   0  0  2  0  0  0  0  0  0  0  0  0
   13.5001    5.5820    9.5380 O   0  0  0  0  0  0  0  0  0  0  0  0
   13.2580    8.0549    9.6022 C   0  0  1  0  0  0  0  0  0  0  0  0
   14.5616    8.2178   10.0493 O   0  0  0  0  0  0  0  0  0  0  0  0
   12.9196    5.2546   10.7178 C   0  0  1  0  0  0  0  0  0  0  0  0
   13.4004    3.8635   11.2069 C   0  0  2  0  0  0  0  0  0  0  0  0
   12.6807    2.8050   10.6443 O   0  0  0  0  0  0  0  0  0  0  0  0
   13.3182    4.0869   12.7056 C   0  0  1  0  0  0  0  0  0  0  0  0
   13.7538    5.5367   12.9612 C   0  0  2  0  0  0  0  0  0  0  0  0
   13.1976    6.1719   11.8101 O   0  0  0  0  0  0  0  0  0  0  0  0
   15.2997    5.7689   13.0654 C   0  0  0  0  0  0  0  0  0  0  0  0
   15.7943    4.9260   14.1396 O   0  0  0  0  0  0  0  0  0  0  0  0
   10.9199    4.6775   12.5614 C   0  0  2  0  0  0  0  0  0  0  0  0
   11.9089    3.8537   13.1157 O   0  0  0  0  0  0  0  0  0  0  0  0
   10.8282    6.0681   13.3280 C   0  0  1  0  0  0  0  0  0  0  0  0
    5.8634    4.4841   11.5145 N   0  0  0  0  0  0  0  0  0  0  0  0
    9.6489    6.9217   12.6228 C   0  0  1  0  0  0  0  0  0  0  0  0
   10.0002    7.0895   11.1579 O   0  0  0  0  0  0  0  0  0  0  0  0
    8.2361    6.1429   12.7773 C   0  0  2  0  0  0  0  0  0  0  0  0
    7.9185    6.0035   14.1829 O   0  0  0  0  0  0  0  0  0  0  0  0
    8.3811    4.7095   12.0129 C   0  0  1  0  0  0  0  0  0  0  0  0
    9.5436    3.9504   12.5911 O   0  0  0  0  0  0  0  0  0  0  0  0
    7.0756    3.8453   12.1129 C   0  0  0  0  0  0  0  0  0  0  0  0
   10.5920    5.8338   14.7909 N   0  0  0  0  0  0  0  0  0  0  0  0
  1  2  1  1  0  0  0
  1  3  1  0  0  0  0
  1 10  1  0  0  0  0
  3  4  1  1  0  0  0
  3  5  1  0  0  0  0
  5  6  1  6  0  0  0
  5  7  1  0  0  0  0
  7  8  1  1  0  0  0
  7  9  1  0  0  0  0
  9 10  1  0  0  0  0
  9 11  1  6  0  0  0
 11 12  1  0  0  0  0
 13 14  1  1  0  0  0
 13 15  1  0  0  0  0
 13 21  1  0  0  0  0
 16 15  1  0  0  0  0
 16 17  1  1  0  0  0
 18  2  1  6  0  0  0
 18 16  1  0  0  0  0
 19 18  1  0  0  0  0
 19 20  1  1  0  0  0
 21 19  1  0  0  0  0
 21 22  1  6  0  0  0
 23 20  1  6  0  0  0
 23 24  1  0  0  0  0
 23 28  1  0  0  0  0
 24 25  1  6  0  0  0
 24 26  1  0  0  0  0
 26 27  1  0  0  0  0
 26 32  1  6  0  0  0
 27 28  1  0  0  0  0
 27 29  1  6  0  0  0
 29 30  1  0  0  0  0
 31 32  1  1  0  0  0
 31 40  1  0  0  0  0
 33 31  1  0  0  0  0
 33 42  1  1  0  0  0
 35 33  1  0  0  0  0
 35 36  1  6  0  0  0
 37 35  1  0  0  0  0
 37 38  1  1  0  0  0
 37 39  1  0  0  0  0
 39 40  1  0  0  0  0
 39 41  1  1  0  0  0
 41 34  1  0  0  0  0
M  END
>  <CHROM.1>
179.16128582,-63.06782840,51.85388953,-67.59462416,174.12110391,-61.15948195
-57.91537625,-81.63269022,60.29082116,12.10472124,5.40645094,9.92801084,1.00242704
-0.01960948,-1.72583291

>  <Name>
2et4_lig

>  <RI>
0

>  <Rbt.Current_Directory>
/home/itssahil/PROJECTS/Mol_Feturizer/New_Systems/rnas/2et4

>  <Rbt.Executable>
rbdock ($Id: //depot/dev/client3/rdock/2013.1/src/exe/rbdock.cxx#4 $)

>  <Rbt.Library>
libRbt.so (2013.1, Build901 2013/11/27)

>  <Rbt.Parameter_File>
/export/apps/rDock/src/rDock_2013.1_src/data/scripts/dock_solv.prm

>  <Rbt.Receptor>
prm/pocket_docking_6.prm

>  <SCORE>
-9.29173

>  <SCORE.INTER>
-2.79202

>  <SCORE.INTER.CONST>
1

>  <SCORE.INTER.POLAR>
-1.25901

>  <SCORE.INTER.ROT>
9

>  <SCORE.INTER.SOLV>
11.3007

>  <SCORE.INTER.VDW>
-11.0316

>  <SCORE.INTER.norm>
-0.0664767

>  <SCORE.INTRA>
-6.49971

>  <SCORE.INTRA.DIHEDRAL>
-18.6276

>  <SCORE.INTRA.DIHEDRAL.0>
21.6909

>  <SCORE.INTRA.POLAR>
0

>  <SCORE.INTRA.POLAR.0>
0

>  <SCORE.INTRA.REPUL>
0

>  <SCORE.INTRA.REPUL.0>
0

>  <SCORE.INTRA.SOLV>
-0.162622

>  <SCORE.INTRA.SOLV.lig_0>
-116.606

>  <SCORE.INTRA.VDW>
2.8954

>  <SCORE.INTRA.VDW.0>
-6.01229

>  <SCORE.INTRA.norm>
-0.154755

>  <SCORE.RESTR>
0

>  <SCORE.RESTR.CAVITY>
0

>  <SCORE.RESTR.norm>
0

>  <SCORE.SYSTEM>
0

>  <SCORE.SYSTEM.CONST>
0

>  <SCORE.SYSTEM.DIHEDRAL>
0

>  <SCORE.SYSTEM.SOLV>
0

>  <SCORE.SYSTEM.norm>
0

>  <SCORE.heavy>
42

>  <SCORE.norm>
-0.221232

>  <RMSD>
5.743

$$$$
2et4_lig
 OpenBabel11021811423D
libRbt.so/2013.1/901 2013/11/27
 42 45  0  0  0  0  0  0  0  0999 V2000
   16.2855    7.0770    6.7759 C   0  0  2  0  0  0  0  0  0  0  0  0
   15.0103    6.4332    6.8148 O   0  0  0  0  0  0  0  0  0  0  0  0
   17.1981    6.2278    5.8546 C   0  0  2  0  0  0  0  0  0  0  0  0
   16.6295    6.0859    4.5385 N   0  0  0  0  0  0  0  0  0  0  0  0
   17.4412    4.8387    6.5121 C   0  0  1  0  0  0  0  0  0  0  0  0
   18.2749    4.0835    5.6897 O   0  0  0  0  0  0  0  0  0  0  0  0
   18.0595    5.0705    7.9312 C   0  0  2  0  0  0  0  0  0  0  0  0
   18.2906    3.8323    8.5692 O   0  0  0  0  0  0  0  0  0  0  0  0
   17.1116    5.9366    8.8151 C   0  0  2  0  0  0  0  0  0  0  0  0
   16.8747    7.1762    8.1414 O   0  0  0  0  0  0  0  0  0  0  0  0
   17.7165    6.2237   10.2282 C   0  0  0  0  0  0  0  0  0  0  0  0
   16.8253    6.9624   11.0535 N   0  0  0  0  0  0  0  0  0  0  0  0
   12.4779    9.4830    8.5297 C   0  0  2  0  0  0  0  0  0  0  0  0
   11.2862   10.1425    9.0779 N   0  0  0  0  0  0  0  0  0  0  0  0
   12.1813    9.0042    7.0082 C   0  0  0  0  0  0  0  0  0  0  0  0
   13.4647    8.2811    6.4273 C   0  0  2  0  0  0  0  0  0  0  0  0
   13.2307    7.8056    5.0522 N   0  0  0  0  0  0  0  0  0  0  0  0
   13.8384    7.0681    7.3446 C   0  0  2  0  0  0  0  0  0  0  0  0
   14.0932    7.5401    8.8144 C   0  0  2  0  0  0  0  0  0  0  0  0
   14.4142    6.3513    9.5778 O   0  0  0  0  0  0  0  0  0  0  0  0
   12.8160    8.2441    9.3751 C   0  0  1  0  0  0  0  0  0  0  0  0
   13.0757    8.6636   10.6721 O   0  0  0  0  0  0  0  0  0  0  0  0
   13.5851    5.7320   10.4526 C   0  0  1  0  0  0  0  0  0  0  0  0
   14.1339    4.3353   10.8448 C   0  0  2  0  0  0  0  0  0  0  0  0
   13.7937    3.3349    9.9292 O   0  0  0  0  0  0  0  0  0  0  0  0
   13.5914    4.2454   12.2592 C   0  0  1  0  0  0  0  0  0  0  0  0
   13.6851    5.6553   12.8593 C   0  0  2  0  0  0  0  0  0  0  0  0
   13.3814    6.4392   11.7056 O   0  0  0  0  0  0  0  0  0  0  0  0
   15.0748    6.0366   13.4739 C   0  0  0  0  0  0  0  0  0  0  0  0
   14.9822    7.4090   13.9397 O   0  0  0  0  0  0  0  0  0  0  0  0
   11.3836    3.8809   13.3148 C   0  0  2  0  0  0  0  0  0  0  0  0
   12.1840    3.7764   12.1691 O   0  0  0  0  0  0  0  0  0  0  0  0
   10.0702    2.9930   13.1864 C   0  0  1  0  0  0  0  0  0  0  0  0
    9.0318    7.7399   13.7922 N   0  0  0  0  0  0  0  0  0  0  0  0
    9.2184    3.2067   14.5448 C   0  0  1  0  0  0  0  0  0  0  0  0
   10.0867    2.7912   15.7157 O   0  0  0  0  0  0  0  0  0  0  0  0
    8.7883    4.7627   14.6872 C   0  0  2  0  0  0  0  0  0  0  0  0
    7.9531    5.1324   13.5638 O   0  0  0  0  0  0  0  0  0  0  0  0
   10.1582    5.6429   14.7780 C   0  0  1  0  0  0  0  0  0  0  0  0
   11.0082    5.3706   13.5675 O   0  0  0  0  0  0  0  0  0  0  0  0
    9.8724    7.1811   14.8952 C   0  0  0  0  0  0  0  0  0  0  0  0
    9.3116    3.3735   11.9492 N   0  0  0  0  0  0  0  0  0  0  0  0
  1  2  1  1  0  0  0
  1  3  1  0  0  0  0
  1 10  1  0  0  0  0
  3  4  1  6  0  0  0
  3  5  1  0  0  0  0
  5  6  1  6  0  0  0
  5  7  1  0  0  0  0
  7  8  1  1  0  0  0
  7  9  1  0  0  0  0
  9 10  1  0  0  0  0
  9 11  1  1  0  0  0
 11 12  1  0  0  0  0
 13 14  1  1  0  0  0
 13 15  1  0  0  0  0
 13 21  1  0  0  0  0
 16 15  1  0  0  0  0
 16 17  1  6  0  0  0
 18  2  1  6  0  0  0
 18 16  1  0  0  0  0
 19 18  1  0  0  0  0
 19 20  1  1  0  0  0
 21 19  1  0  0  0  0
 21 22  1  1  0  0  0
 23 20  1  6  0  0  0
 23 24  1  0  0  0  0
 23 28  1  0  0  0  0
 24 25  1  6  0  0  0
 24 26  1  0  0  0  0
 26 27  1  0  0  0  0
 26 32  1  6  0  0  0
 27 28  1  0  0  0  0
 27 29  1  6  0  0  0
 29 30  1  0  0  0  0
 31 32  1  6  0  0  0
 31 40  1  0  0  0  0
 33 31  1  0  0  0  0
 33 42  1  6  0  0  0
 35 33  1  0  0  0  0
 35 36  1  1  0  0  0
 37 35  1  0  0  0  0
 37 38  1  6  0  0  0
 37 39  1  0  0  0  0
 39 40  1  0  0  0  0
 39 41  1  6  0  0  0
 41 34  1  0  0  0  0
M  END
>  <CHROM.1>
-167.06761601,-177.35307522,65.90892825,-105.17691529,167.52668218,-166.89201621
177.89512062,-164.36018930,-56.15150544,13.53228533,5.97219402,10.36779972
0.71383849,0.51239030,-0.85926054

>  <Name>
2et4_lig

>  <RI>
3.65815e+07

>  <Rbt.Current_Directory>
/home/itssahil/PROJECTS/Mol_Feturizer/New_Systems/rnas/2et4

>  <Rbt.Executable>
rbdock ($Id: //depot/dev/client3/rdock/2013.1/src/exe/rbdock.cxx#4 $)

>  <Rbt.Library>
libRbt.so (2013.1, Build901 2013/11/27)

>  <Rbt.Parameter_File>
/export/apps/rDock/src/rDock_2013.1_src/data/scripts/dock_solv.prm

>  <Rbt.Receptor>
prm/pocket_docking_4.prm

>  <SCORE>
-8.55137

>  <SCORE.INTER>
-6.53149

>  <SCORE.INTER.CONST>
1

>  <SCORE.INTER.POLAR>
-0.122588

>  <SCORE.INTER.ROT>
9

>  <SCORE.INTER.SOLV>
12.8843

>  <SCORE.INTER.VDW>
-17.8405

>  <SCORE.INTER.norm>
-0.155512

>  <SCORE.INTRA>
-2.03171

>  <SCORE.INTRA.DIHEDRAL>
-11.6023

>  <SCORE.INTRA.DIHEDRAL.0>
21.6909

>  <SCORE.INTRA.POLAR>
0

>  <SCORE.INTRA.POLAR.0>
0

>  <SCORE.INTRA.REPUL>
0

>  <SCORE.INTRA.REPUL.0>
0

>  <SCORE.INTRA.SOLV>
3.6154

>  <SCORE.INTRA.SOLV.lig_0>
-116.606

>  <SCORE.INTRA.VDW>
1.96172

>  <SCORE.INTRA.VDW.0>
-6.01229

>  <SCORE.INTRA.norm>
-0.0483741

>  <SCORE.RESTR>
0.011827

>  <SCORE.RESTR.CAVITY>
0.011827

>  <SCORE.RESTR.norm>
0.000281595

>  <SCORE.SYSTEM>
0

>  <SCORE.SYSTEM.CONST>
0

>  <SCORE.SYSTEM.DIHEDRAL>
0

>  <SCORE.SYSTEM.SOLV>
0

>  <SCORE.SYSTEM.norm>
0

>  <SCORE.heavy>
42

>  <SCORE.norm>
-0.203604

>  <RMSD>
5.755

$$$$
2et4_lig
 OpenBabel11021811423D
libRbt.so/2013.1/901 2013/11/27
 42 45  0  0  0  0  0  0  0  0999 V2000
   12.7083    6.7846    4.6661 C   0  0  2  0  0  0  0  0  0  0  0  0
   11.8057    6.9023    5.7677 O   0  0  0  0  0  0  0  0  0  0  0  0
   14.1409    6.9745    5.2268 C   0  0  2  0  0  0  0  0  0  0  0  0
   14.4312    6.0154    6.2619 N   0  0  0  0  0  0  0  0  0  0  0  0
   14.2973    8.4305    5.7530 C   0  0  1  0  0  0  0  0  0  0  0  0
   15.5908    8.6033    6.2416 O   0  0  0  0  0  0  0  0  0  0  0  0
   13.9704    9.4128    4.5791 C   0  0  2  0  0  0  0  0  0  0  0  0
   14.0932   10.7500    5.0154 O   0  0  0  0  0  0  0  0  0  0  0  0
   12.5258    9.1762    4.0432 C   0  0  2  0  0  0  0  0  0  0  0  0
   12.4175    7.8120    3.6262 O   0  0  0  0  0  0  0  0  0  0  0  0
   12.1787   10.1134    2.8405 C   0  0  0  0  0  0  0  0  0  0  0  0
   12.9241    9.7884    1.6743 N   0  0  0  0  0  0  0  0  0  0  0  0
    7.9756    5.1380    6.7017 C   0  0  2  0  0  0  0  0  0  0  0  0
    6.9609    4.1254    7.0193 N   0  0  0  0  0  0  0  0  0  0  0  0
    8.6464    4.8012    5.2634 C   0  0  0  0  0  0  0  0  0  0  0  0
    9.7496    5.8879    4.9329 C   0  0  2  0  0  0  0  0  0  0  0  0
   10.4047    5.6058    3.6433 N   0  0  0  0  0  0  0  0  0  0  0  0
   10.8227    5.9036    6.0734 C   0  0  2  0  0  0  0  0  0  0  0  0
   10.1581    6.2007    7.4582 C   0  0  2  0  0  0  0  0  0  0  0  0
   11.2244    6.1784    8.4388 O   0  0  0  0  0  0  0  0  0  0  0  0
    9.0784    5.1159    7.7728 C   0  0  1  0  0  0  0  0  0  0  0  0
    8.4974    5.4125    8.9976 O   0  0  0  0  0  0  0  0  0  0  0  0
   11.1564    6.7053    9.6854 C   0  0  1  0  0  0  0  0  0  0  0  0
   12.3216    6.1911   10.5705 C   0  0  2  0  0  0  0  0  0  0  0  0
   12.0570    4.9515   11.1607 O   0  0  0  0  0  0  0  0  0  0  0  0
   12.5037    7.4022   11.4666 C   0  0  1  0  0  0  0  0  0  0  0  0
   12.2730    8.6404   10.5890 C   0  0  2  0  0  0  0  0  0  0  0  0
   11.2329    8.1554    9.7401 O   0  0  0  0  0  0  0  0  0  0  0  0
   13.5155    9.1277    9.7685 C   0  0  0  0  0  0  0  0  0  0  0  0
   13.5755   10.5738    9.8883 O   0  0  0  0  0  0  0  0  0  0  0  0
   11.6084    8.2022   13.6299 C   0  0  2  0  0  0  0  0  0  0  0  0
   11.5004    7.3050   12.5587 O   0  0  0  0  0  0  0  0  0  0  0  0
   10.4875    7.9330   14.7258 C   0  0  1  0  0  0  0  0  0  0  0  0
   11.7951   13.3080   14.3826 N   0  0  0  0  0  0  0  0  0  0  0  0
   10.6932    9.0321   15.8947 C   0  0  1  0  0  0  0  0  0  0  0  0
   12.0952    8.8739   16.4487 O   0  0  0  0  0  0  0  0  0  0  0  0
   10.4909   10.5228   15.2920 C   0  0  2  0  0  0  0  0  0  0  0  0
    9.1434   10.6518   14.7785 O   0  0  0  0  0  0  0  0  0  0  0  0
   11.6317   10.7474   14.1483 C   0  0  1  0  0  0  0  0  0  0  0  0
   11.5166    9.6665   13.1089 O   0  0  0  0  0  0  0  0  0  0  0  0
   11.5246   12.1568   13.4676 C   0  0  0  0  0  0  0  0  0  0  0  0
    9.1276    7.9913   14.0949 N   0  0  0  0  0  0  0  0  0  0  0  0
  1  2  1  1  0  0  0
  1  3  1  0  0  0  0
  1 10  1  0  0  0  0
  3  4  1  1  0  0  0
  3  5  1  0  0  0  0
  5  6  1  6  0  0  0
  5  7  1  0  0  0  0
  7  8  1  1  0  0  0
  7  9  1  0  0  0  0
  9 10  1  0  0  0  0
  9 11  1  6  0  0  0
 11 12  1  0  0  0  0
 13 14  1  1  0  0  0
 13 15  1  0  0  0  0
 13 21  1  0  0  0  0
 16 15  1  0  0  0  0
 16 17  1  6  0  0  0
 18  2  1  6  0  0  0
 18 16  1  0  0  0  0
 19 18  1  0  0  0  0
 19 20  1  1  0  0  0
 21 19  1  0  0  0  0
 21 22  1  1  0  0  0
 23 20  1  6  0  0  0
 23 24  1  0  0  0  0
 23 28  1  0  0  0  0
 24 25  1  1  0  0  0
 24 26  1  0  0  0  0
 26 27  1  0  0  0  0
 26 32  1  1  0  0  0
 27 28  1  0  0  0  0
 27 29  1  6  0  0  0
 29 30  1  0  0  0  0
 31 32  1  6  0  0  0
 31 40  1  0  0  0  0
 33 31  1  0  0  0  0
 33 42  1  6  0  0  0
 35 33  1  0  0  0  0
 35 36  1  6  0  0  0
 37 35  1  0  0  0  0
 37 38  1  6  0  0  0
 37 39  1  0  0  0  0
 39 40  1  0  0  0  0
 39 41  1  6  0  0  0
 41 34  1  0  0  0  0
M  END
>  <CHROM.1>
-126.85811922,68.62101264,-67.66668248,162.46902116,165.51535834,170.28108324
-136.14421101,-178.29346018,65.14273579,11.56097566,7.95470193,9.01135199
-1.43353311,0.83648316,1.25129015

>  <Name>
2et4_lig

>  <RI>
0

>  <Rbt.Current_Directory>
/home/itssahil/PROJECTS/Mol_Feturizer/New_Systems/rnas/2et4

>  <Rbt.Executable>
rbdock ($Id: //depot/dev/client3/rdock/2013.1/src/exe/rbdock.cxx#4 $)

>  <Rbt.Library>
libRbt.so (2013.1, Build901 2013/11/27)

>  <Rbt.Parameter_File>
/export/apps/rDock/src/rDock_2013.1_src/data/scripts/dock_solv.prm

>  <Rbt.Receptor>
prm/pocket_docking_8.prm

>  <SCORE>
-12.988

>  <SCORE.INTER>
-10.3215

>  <SCORE.INTER.CONST>
1

>  <SCORE.INTER.POLAR>
-1.86319

>  <SCORE.INTER.ROT>
9

>  <SCORE.INTER.SOLV>
11.0834

>  <SCORE.INTER.VDW>
-13.9648

>  <SCORE.INTER.norm>
-0.24575

>  <SCORE.INTRA>
-2.66653

>  <SCORE.INTRA.DIHEDRAL>
-6.83946

>  <SCORE.INTRA.DIHEDRAL.0>
21.6909

>  <SCORE.INTRA.POLAR>
0

>  <SCORE.INTRA.POLAR.0>
0

>  <SCORE.INTRA.REPUL>
0

>  <SCORE.INTRA.REPUL.0>
0

>  <SCORE.INTRA.SOLV>
-1.85343

>  <SCORE.INTRA.SOLV.lig_0>
-116.606

>  <SCORE.INTRA.VDW>
1.67992

>  <SCORE.INTRA.VDW.0>
-6.01229

>  <SCORE.INTRA.norm>
-0.0634887

>  <SCORE.RESTR>
0

>  <SCORE.RESTR.CAVITY>
0

>  <SCORE.RESTR.norm>
0

>  <SCORE.SYSTEM>
0

>  <SCORE.SYSTEM.CONST>
0

>  <SCORE.SYSTEM.DIHEDRAL>
0

>  <SCORE.SYSTEM.SOLV>
0

>  <SCORE.SYSTEM.norm>
0

>  <SCORE.heavy>
42

>  <SCORE.norm>
-0.309238

>  <RMSD>
5.761

$$$$
2et4_lig
 OpenBabel11021811423D
libRbt.so/2013.1/901 2013/11/27
 42 45  0  0  0  0  0  0  0  0999 V2000
   14.8159    3.9526    7.5487 C   0  0  2  0  0  0  0  0  0  0  0  0
   14.9511    5.3748    7.5140 O   0  0  0  0  0  0  0  0  0  0  0  0
   14.9617    3.5156    9.0287 C   0  0  2  0  0  0  0  0  0  0  0  0
   13.9876    4.1668    9.8670 N   0  0  0  0  0  0  0  0  0  0  0  0
   16.4090    3.8186    9.5132 C   0  0  1  0  0  0  0  0  0  0  0  0
   16.5420    3.4101   10.8388 O   0  0  0  0  0  0  0  0  0  0  0  0
   17.4082    3.0799    8.5615 C   0  0  2  0  0  0  0  0  0  0  0  0
   18.7384    3.3339    8.9613 O   0  0  0  0  0  0  0  0  0  0  0  0
   17.2160    3.5444    7.0860 C   0  0  2  0  0  0  0  0  0  0  0  0
   15.8583    3.2972    6.7088 O   0  0  0  0  0  0  0  0  0  0  0  0
   18.1709    2.7958    6.0995 C   0  0  0  0  0  0  0  0  0  0  0  0
   17.8512    1.4152    5.9870 N   0  0  0  0  0  0  0  0  0  0  0  0
   13.7997    8.2784    4.5311 C   0  0  2  0  0  0  0  0  0  0  0  0
   12.9551    9.1436    3.6981 N   0  0  0  0  0  0  0  0  0  0  0  0
   13.3892    6.7271    4.2919 C   0  0  0  0  0  0  0  0  0  0  0  0
   14.2931    5.7999    5.2032 C   0  0  2  0  0  0  0  0  0  0  0  0
   13.9362    4.3798    5.0368 N   0  0  0  0  0  0  0  0  0  0  0  0
   14.1154    6.2125    6.7035 C   0  0  2  0  0  0  0  0  0  0  0  0
   14.4868    7.7177    6.9140 C   0  0  2  0  0  0  0  0  0  0  0  0
   14.2758    8.0001    8.3193 O   0  0  0  0  0  0  0  0  0  0  0  0
   13.5813    8.6189    6.0144 C   0  0  1  0  0  0  0  0  0  0  0  0
   13.9421    9.9443    6.2112 O   0  0  0  0  0  0  0  0  0  0  0  0
   13.1047    7.8482    8.9839 C   0  0  1  0  0  0  0  0  0  0  0  0
   13.2740    8.1759   10.4904 C   0  0  2  0  0  0  0  0  0  0  0  0
   13.7519    7.0946   11.2370 O   0  0  0  0  0  0  0  0  0  0  0  0
   11.8839    8.7085   10.7848 C   0  0  1  0  0  0  0  0  0  0  0  0
   11.4418    9.4997    9.5457 C   0  0  2  0  0  0  0  0  0  0  0  0
   12.0231    8.6990    8.5167 O   0  0  0  0  0  0  0  0  0  0  0  0
   11.9383   10.9842    9.4798 C   0  0  0  0  0  0  0  0  0  0  0  0
   11.3808   11.6802   10.6260 O   0  0  0  0  0  0  0  0  0  0  0  0
    9.6243    7.7712   11.1556 C   0  0  2  0  0  0  0  0  0  0  0  0
   11.0014    7.5395   11.0369 O   0  0  0  0  0  0  0  0  0  0  0  0
    9.3079    8.7862   12.3386 C   0  0  1  0  0  0  0  0  0  0  0  0
    7.2318    4.4025   12.9843 N   0  0  0  0  0  0  0  0  0  0  0  0
    7.7007    8.9605   12.3970 C   0  0  1  0  0  0  0  0  0  0  0  0
    7.2336    9.4761   11.0503 O   0  0  0  0  0  0  0  0  0  0  0  0
    7.0030    7.5355   12.7271 C   0  0  2  0  0  0  0  0  0  0  0  0
    7.4571    7.0693   14.0203 O   0  0  0  0  0  0  0  0  0  0  0  0
    7.3802    6.5130   11.5139 C   0  0  1  0  0  0  0  0  0  0  0  0
    8.8758    6.4249   11.3817 O   0  0  0  0  0  0  0  0  0  0  0  0
    6.7778    5.0809   11.7316 C   0  0  0  0  0  0  0  0  0  0  0  0
    9.8924    8.2767   13.6229 N   0  0  0  0  0  0  0  0  0  0  0  0
  1  2  1  1  0  0  0
  1  3  1  0  0  0  0
  1 10  1  0  0  0  0
  3  4  1  1  0  0  0
  3  5  1  0  0  0  0
  5  6  1  1  0  0  0
  5  7  1  0  0  0  0
  7  8  1  1  0  0  0
  7  9  1  0  0  0  0
  9 10  1  0  0  0  0
  9 11  1  6  0  0  0
 11 12  1  0  0  0  0
 13 14  1  6  0  0  0
 13 15  1  0  0  0  0
 13 21  1  0  0  0  0
 16 15  1  0  0  0  0
 16 17  1  1  0  0  0
 18  2  1  1  0  0  0
 18 16  1  0  0  0  0
 19 18  1  0  0  0  0
 19 20  1  1  0  0  0
 21 19  1  0  0  0  0
 21 22  1  6  0  0  0
 23 20  1  6  0  0  0
 23 24  1  0  0  0  0
 23 28  1  0  0  0  0
 24 25  1  1  0  0  0
 24 26  1  0  0  0  0
 26 27  1  0  0  0  0
 26 32  1  6  0  0  0
 27 28  1  0  0  0  0
 27 29  1  1  0  0  0
 29 30  1  0  0  0  0
 31 32  1  1  0  0  0
 31 40  1  0  0  0  0
 33 31  1  0  0  0  0
 33 42  1  1  0  0  0
 35 33  1  0  0  0  0
 35 36  1  6  0  0  0
 37 35  1  0  0  0  0
 37 38  1  1  0  0  0
 37 39  1  0  0  0  0
 39 40  1  0  0  0  0
 39 41  1  1  0  0  0
 41 34  1  0  0  0  0
M  END
>  <CHROM.1>
-138.22971165,67.36375889,-59.73791083,-58.24430173,177.00296609,-171.60231062
-61.67655847,-58.67879304,-59.61684891,12.71564388,6.61021792,9.08453089
-0.03451354,-0.68319022,2.45534301

>  <Name>
2et4_lig

>  <RI>
0

>  <Rbt.Current_Directory>
/home/itssahil/PROJECTS/Mol_Feturizer/New_Systems/rnas/2et4

>  <Rbt.Executable>
rbdock ($Id: //depot/dev/client3/rdock/2013.1/src/exe/rbdock.cxx#4 $)

>  <Rbt.Library>
libRbt.so (2013.1, Build901 2013/11/27)

>  <Rbt.Parameter_File>
/export/apps/rDock/src/rDock_2013.1_src/data/scripts/dock_solv.prm

>  <Rbt.Receptor>
prm/pocket_docking_5.prm

>  <SCORE>
-8.00545

>  <SCORE.INTER>
-3.75954

>  <SCORE.INTER.CONST>
1

>  <SCORE.INTER.POLAR>
-0.916515

>  <SCORE.INTER.ROT>
9

>  <SCORE.INTER.SOLV>
7.74305

>  <SCORE.INTER.VDW>
-11.6323

>  <SCORE.INTER.norm>
-0.0895128

>  <SCORE.INTRA>
-4.24591

>  <SCORE.INTRA.DIHEDRAL>
-15.2184

>  <SCORE.INTRA.DIHEDRAL.0>
21.6909

>  <SCORE.INTRA.POLAR>
0

>  <SCORE.INTRA.POLAR.0>
0

>  <SCORE.INTRA.REPUL>
0

>  <SCORE.INTRA.REPUL.0>
0

>  <SCORE.INTRA.SOLV>
1.87202

>  <SCORE.INTRA.SOLV.lig_0>
-116.606

>  <SCORE.INTRA.VDW>
2.4273

>  <SCORE.INTRA.VDW.0>
-6.01229

>  <SCORE.INTRA.norm>
-0.101093

>  <SCORE.RESTR>
0

>  <SCORE.RESTR.CAVITY>
0

>  <SCORE.RESTR.norm>
0

>  <SCORE.SYSTEM>
0

>  <SCORE.SYSTEM.CONST>
0

>  <SCORE.SYSTEM.DIHEDRAL>
0

>  <SCORE.SYSTEM.SOLV>
0

>  <SCORE.SYSTEM.norm>
0

>  <SCORE.heavy>
42

>  <SCORE.norm>
-0.190606

>  <RMSD>
5.785

$$$$
2et4_lig
 OpenBabel11021811423D
libRbt.so/2013.1/901 2013/11/27
 42 45  0  0  0  0  0  0  0  0999 V2000
   14.3139    5.1499    5.4368 C   0  0  2  0  0  0  0  0  0  0  0  0
   13.0223    5.6783    5.7450 O   0  0  0  0  0  0  0  0  0  0  0  0
   14.2974    3.6487    5.8224 C   0  0  2  0  0  0  0  0  0  0  0  0
   13.2502    2.9404    5.1315 N   0  0  0  0  0  0  0  0  0  0  0  0
   14.1392    3.5165    7.3647 C   0  0  1  0  0  0  0  0  0  0  0  0
   14.1410    2.1666    7.7102 O   0  0  0  0  0  0  0  0  0  0  0  0
   15.3075    4.3048    8.0457 C   0  0  2  0  0  0  0  0  0  0  0  0
   15.1989    4.2175    9.4507 O   0  0  0  0  0  0  0  0  0  0  0  0
   15.2882    5.8041    7.6195 C   0  0  2  0  0  0  0  0  0  0  0  0
   15.3784    5.8685    6.1931 O   0  0  0  0  0  0  0  0  0  0  0  0
   16.4679    6.6147    8.2491 C   0  0  0  0  0  0  0  0  0  0  0  0
   16.3671    6.6972    9.6648 N   0  0  0  0  0  0  0  0  0  0  0  0
   13.0687    9.4934    3.7208 C   0  0  2  0  0  0  0  0  0  0  0  0
   12.6349   10.8171    3.2567 N   0  0  0  0  0  0  0  0  0  0  0  0
   12.0129    8.3692    3.2172 C   0  0  0  0  0  0  0  0  0  0  0  0
   12.4778    6.9460    3.7326 C   0  0  2  0  0  0  0  0  0  0  0  0
   11.5314    5.8950    3.3188 N   0  0  0  0  0  0  0  0  0  0  0  0
   12.5859    6.9681    5.2948 C   0  0  2  0  0  0  0  0  0  0  0  0
   13.5849    8.0756    5.7674 C   0  0  2  0  0  0  0  0  0  0  0  0
   13.6011    8.0234    7.2152 O   0  0  0  0  0  0  0  0  0  0  0  0
   13.1081    9.4736    5.2576 C   0  0  1  0  0  0  0  0  0  0  0  0
   14.0187   10.4321    5.6791 O   0  0  0  0  0  0  0  0  0  0  0  0
   12.5230    8.1888    8.0193 C   0  0  1  0  0  0  0  0  0  0  0  0
   12.6164    7.2752    9.2692 C   0  0  2  0  0  0  0  0  0  0  0  0
   12.1506    5.9776    9.0367 O   0  0  0  0  0  0  0  0  0  0  0  0
   11.8787    8.1475   10.2681 C   0  0  1  0  0  0  0  0  0  0  0  0
   12.2634    9.6004    9.9553 C   0  0  2  0  0  0  0  0  0  0  0  0
   12.3447    9.5370    8.5315 O   0  0  0  0  0  0  0  0  0  0  0  0
   13.6051   10.0963   10.5944 C   0  0  0  0  0  0  0  0  0  0  0  0
   13.4852    9.9395   12.0332 O   0  0  0  0  0  0  0  0  0  0  0  0
    9.5547    8.3271   11.0975 C   0  0  2  0  0  0  0  0  0  0  0  0
   10.4238    7.9092   10.0807 O   0  0  0  0  0  0  0  0  0  0  0  0
    8.0411    7.9969   10.7376 C   0  0  1  0  0  0  0  0  0  0  0  0
    8.8544   12.7829   11.3503 N   0  0  0  0  0  0  0  0  0  0  0  0
    7.1331    8.5390   11.9617 C   0  0  1  0  0  0  0  0  0  0  0  0
    7.5913    7.8474   13.2303 O   0  0  0  0  0  0  0  0  0  0  0  0
    7.3006   10.1446   12.1038 C   0  0  2  0  0  0  0  0  0  0  0  0
    6.8483   10.7820   10.8851 O   0  0  0  0  0  0  0  0  0  0  0  0
    8.8689   10.4458   12.4349 C   0  0  1  0  0  0  0  0  0  0  0  0
    9.7304    9.8527   11.3541 O   0  0  0  0  0  0  0  0  0  0  0  0
    9.1655   11.9802   12.5728 C   0  0  0  0  0  0  0  0  0  0  0  0
    7.6804    8.6135    9.4183 N   0  0  0  0  0  0  0  0  0  0  0  0
  1  2  1  1  0  0  0
  1  3  1  0  0  0  0
  1 10  1  0  0  0  0
  3  4  1  6  0  0  0
  3  5  1  0  0  0  0
  5  6  1  6  0  0  0
  5  7  1  0  0  0  0
  7  8  1  1  0  0  0
  7  9  1  0  0  0  0
  9 10  1  0  0  0  0
  9 11  1  1  0  0  0
 11 12  1  0  0  0  0
 13 14  1  1  0  0  0
 13 15  1  0  0  0  0
 13 21  1  0  0  0  0
 16 15  1  0  0  0  0
 16 17  1  1  0  0  0
 18  2  1  6  0  0  0
 18 16  1  0  0  0  0
 19 18  1  0  0  0  0
 19 20  1  1  0  0  0
 21 19  1  0  0  0  0
 21 22  1  6  0  0  0
 23 20  1  1  0  0  0
 23 24  1  0  0  0  0
 23 28  1  0  0  0  0
 24 25  1  6  0  0  0
 24 26  1  0  0  0  0
 26 27  1  0  0  0  0
 26 32  1  6  0  0  0
 27 28  1  0  0  0  0
 27 29  1  1  0  0  0
 29 30  1  0  0  0  0
 31 32  1  6  0  0  0
 31 40  1  0  0  0  0
 33 31  1  0  0  0  0
 33 42  1  6  0  0  0
 35 33  1  0  0  0  0
 35 36  1  1  0  0  0
 37 35  1  0  0  0  0
 37 38  1  6  0  0  0
 37 39  1  0  0  0  0
 39 40  1  0  0  0  0
 39 41  1  6  0  0  0
 41 34  1  0  0  0  0
M  END
>  <CHROM.1>
-167.98755343,-65.25066235,65.42819170,-58.63826013,144.51734636,163.88876046
-58.20439973,-179.98173283,-59.74239186,12.09669553,7.74062681,8.31912225
-0.34422213,-0.87668827,2.06169104

>  <Name>
2et4_lig

>  <RI>
0

>  <Rbt.Current_Directory>
/home/itssahil/PROJECTS/Mol_Feturizer/New_Systems/rnas/2et4

>  <Rbt.Executable>
rbdock ($Id: //depot/dev/client3/rdock/2013.1/src/exe/rbdock.cxx#4 $)

>  <Rbt.Library>
libRbt.so (2013.1, Build901 2013/11/27)

>  <Rbt.Parameter_File>
/export/apps/rDock/src/rDock_2013.1_src/data/scripts/dock_solv.prm

>  <Rbt.Receptor>
prm/pocket_docking_8.prm

>  <SCORE>
-12.7078

>  <SCORE.INTER>
-5.81042

>  <SCORE.INTER.CONST>
1

>  <SCORE.INTER.POLAR>
-1.04626

>  <SCORE.INTER.ROT>
9

>  <SCORE.INTER.SOLV>
23.4171

>  <SCORE.INTER.VDW>
-17.7918

>  <SCORE.INTER.norm>
-0.138343

>  <SCORE.INTRA>
-6.89736

>  <SCORE.INTRA.DIHEDRAL>
-14.7503

>  <SCORE.INTRA.DIHEDRAL.0>
21.6909

>  <SCORE.INTRA.POLAR>
0

>  <SCORE.INTRA.POLAR.0>
0

>  <SCORE.INTRA.REPUL>
0

>  <SCORE.INTRA.REPUL.0>
0

>  <SCORE.INTRA.SOLV>
0.799078

>  <SCORE.INTRA.SOLV.lig_0>
-116.606

>  <SCORE.INTRA.VDW>
0.0782585

>  <SCORE.INTRA.VDW.0>
-6.01229

>  <SCORE.INTRA.norm>
-0.164223

>  <SCORE.RESTR>
0

>  <SCORE.RESTR.CAVITY>
0

>  <SCORE.RESTR.norm>
0

>  <SCORE.SYSTEM>
0

>  <SCORE.SYSTEM.CONST>
0

>  <SCORE.SYSTEM.DIHEDRAL>
0

>  <SCORE.SYSTEM.SOLV>
0

>  <SCORE.SYSTEM.norm>
0

>  <SCORE.heavy>
42

>  <SCORE.norm>
-0.302566

>  <RMSD>
5.800

$$$$
2et4_lig
 OpenBabel11021811423D
libRbt.so/2013.1/901 2013/11/27
 42 45  0  0  0  0  0  0  0  0999 V2000
   16.7387    6.8563    8.5677 C   0  0  2  0  0  0  0  0  0  0  0  0
   16.0977    5.5792    8.5546 O   0  0  0  0  0  0  0  0  0  0  0  0
   15.8003    7.8463    7.8316 C   0  0  2  0  0  0  0  0  0  0  0  0
   14.4991    7.8938    8.4483 N   0  0  0  0  0  0  0  0  0  0  0  0
   15.6953    7.4370    6.3341 C   0  0  1  0  0  0  0  0  0  0  0  0
   14.8641    8.3379    5.6713 O   0  0  0  0  0  0  0  0  0  0  0  0
   17.1398    7.4091    5.7320 C   0  0  2  0  0  0  0  0  0  0  0  0
   17.0925    7.0341    4.3716 O   0  0  0  0  0  0  0  0  0  0  0  0
   18.0468    6.4089    6.5110 C   0  0  2  0  0  0  0  0  0  0  0  0
   18.0640    6.7948    7.8885 O   0  0  0  0  0  0  0  0  0  0  0  0
   19.5110    6.3853    5.9625 C   0  0  0  0  0  0  0  0  0  0  0  0
   20.3309    5.4575    6.6611 N   0  0  0  0  0  0  0  0  0  0  0  0
   15.3329    2.1908   11.1213 C   0  0  2  0  0  0  0  0  0  0  0  0
   15.5128    1.1929   12.1832 N   0  0  0  0  0  0  0  0  0  0  0  0
   16.5697    2.0986   10.0753 C   0  0  0  0  0  0  0  0  0  0  0  0
   16.3779    3.1863    8.9407 C   0  0  2  0  0  0  0  0  0  0  0  0
   17.4949    3.1555    7.9799 N   0  0  0  0  0  0  0  0  0  0  0  0
   16.2864    4.6074    9.5924 C   0  0  2  0  0  0  0  0  0  0  0  0
   15.1082    4.6733   10.6197 C   0  0  2  0  0  0  0  0  0  0  0  0
   15.1193    6.0126   11.1720 O   0  0  0  0  0  0  0  0  0  0  0  0
   15.3163    3.5999   11.7359 C   0  0  1  0  0  0  0  0  0  0  0  0
   14.2515    3.6722   12.6228 O   0  0  0  0  0  0  0  0  0  0  0  0
   14.1807    6.5274   12.0029 C   0  0  1  0  0  0  0  0  0  0  0  0
   14.8401    7.2494   13.2069 C   0  0  2  0  0  0  0  0  0  0  0  0
   15.1792    6.3811   14.2490 O   0  0  0  0  0  0  0  0  0  0  0  0
   13.7917    8.3173   13.4585 C   0  0  1  0  0  0  0  0  0  0  0  0
   13.2694    8.7570   12.0835 C   0  0  2  0  0  0  0  0  0  0  0  0
   13.2978    7.5077   11.3936 O   0  0  0  0  0  0  0  0  0  0  0  0
   14.1261    9.8462   11.3525 C   0  0  0  0  0  0  0  0  0  0  0  0
   14.2778   10.9651   12.2659 O   0  0  0  0  0  0  0  0  0  0  0  0
   11.5681    8.4644   14.5333 C   0  0  2  0  0  0  0  0  0  0  0  0
   12.7197    7.7051   14.2860 O   0  0  0  0  0  0  0  0  0  0  0  0
   11.9168    9.8103   15.3058 C   0  0  1  0  0  0  0  0  0  0  0  0
    7.1607    7.9934   17.1643 N   0  0  0  0  0  0  0  0  0  0  0  0
   10.5212   10.5893   15.5553 C   0  0  1  0  0  0  0  0  0  0  0  0
    9.8769   10.8450   14.2074 O   0  0  0  0  0  0  0  0  0  0  0  0
    9.5452    9.6888   16.4841 C   0  0  2  0  0  0  0  0  0  0  0  0
   10.1777    9.4666   17.7673 O   0  0  0  0  0  0  0  0  0  0  0  0
    9.2412    8.3047   15.6767 C   0  0  1  0  0  0  0  0  0  0  0  0
   10.5406    7.6234   15.3463 O   0  0  0  0  0  0  0  0  0  0  0  0
    8.3185    7.3303   16.4895 C   0  0  0  0  0  0  0  0  0  0  0  0
   12.6526    9.4981   16.5755 N   0  0  0  0  0  0  0  0  0  0  0  0
  1  2  1  6  0  0  0
  1  3  1  0  0  0  0
  1 10  1  0  0  0  0
  3  4  1  1  0  0  0
  3  5  1  0  0  0  0
  5  6  1  6  0  0  0
  5  7  1  0  0  0  0
  7  8  1  6  0  0  0
  7  9  1  0  0  0  0
  9 10  1  0  0  0  0
  9 11  1  6  0  0  0
 11 12  1  0  0  0  0
 13 14  1  1  0  0  0
 13 15  1  0  0  0  0
 13 21  1  0  0  0  0
 16 15  1  0  0  0  0
 16 17  1  6  0  0  0
 18  2  1  6  0  0  0
 18 16  1  0  0  0  0
 19 18  1  0  0  0  0
 19 20  1  1  0  0  0
 21 19  1  0  0  0  0
 21 22  1  1  0  0  0
 23 20  1  6  0  0  0
 23 24  1  0  0  0  0
 23 28  1  0  0  0  0
 24 25  1  1  0  0  0
 24 26  1  0  0  0  0
 26 27  1  0  0  0  0
 26 32  1  1  0  0  0
 27 28  1  0  0  0  0
 27 29  1  6  0  0  0
 29 30  1  0  0  0  0
 31 32  1  1  0  0  0
 31 40  1  0  0  0  0
 33 31  1  0  0  0  0
 33 42  1  1  0  0  0
 35 33  1  0  0  0  0
 35 36  1  6  0  0  0
 37 35  1  0  0  0  0
 37 38  1  1  0  0  0
 37 39  1  0  0  0  0
 39 40  1  0  0  0  0
 39 41  1  1  0  0  0
 41 34  1  0  0  0  0
M  END
>  <CHROM.1>
-150.04438984,-179.09437337,-140.50074940,173.14817417,133.30476473,-173.54677786
-53.91032742,-60.40176307,43.30068074,14.23662473,6.94727298,11.38820800
0.10352117,0.91803983,-0.49381259

>  <Name>
2et4_lig

>  <RI>
0

>  <Rbt.Current_Directory>
/home/itssahil/PROJECTS/Mol_Feturizer/New_Systems/rnas/2et4

>  <Rbt.Executable>
rbdock ($Id: //depot/dev/client3/rdock/2013.1/src/exe/rbdock.cxx#4 $)

>  <Rbt.Library>
libRbt.so (2013.1, Build901 2013/11/27)

>  <Rbt.Parameter_File>
/export/apps/rDock/src/rDock_2013.1_src/data/scripts/dock_solv.prm

>  <Rbt.Receptor>
prm/blind_docking_80.prm

>  <SCORE>
16.0524

>  <SCORE.INTER>
-0.921117

>  <SCORE.INTER.CONST>
1

>  <SCORE.INTER.POLAR>
0

>  <SCORE.INTER.ROT>
9

>  <SCORE.INTER.SOLV>
27.4026

>  <SCORE.INTER.VDW>
-19.3483

>  <SCORE.INTER.norm>
-0.0219314

>  <SCORE.INTRA>
-0.623131

>  <SCORE.INTRA.DIHEDRAL>
-4.75571

>  <SCORE.INTRA.DIHEDRAL.0>
21.6909

>  <SCORE.INTRA.POLAR>
0

>  <SCORE.INTRA.POLAR.0>
0

>  <SCORE.INTRA.REPUL>
0.041254

>  <SCORE.INTRA.REPUL.0>
0

>  <SCORE.INTRA.SOLV>
0.751909

>  <SCORE.INTRA.SOLV.lig_0>
-116.606

>  <SCORE.INTRA.VDW>
1.1725

>  <SCORE.INTRA.VDW.0>
-6.01229

>  <SCORE.INTRA.norm>
-0.0148365

>  <SCORE.RESTR>
17.5966

>  <SCORE.RESTR.CAVITY>
17.5966

>  <SCORE.RESTR.norm>
0.418968

>  <SCORE.SYSTEM>
0

>  <SCORE.SYSTEM.CONST>
0

>  <SCORE.SYSTEM.DIHEDRAL>
0

>  <SCORE.SYSTEM.SOLV>
0

>  <SCORE.SYSTEM.norm>
0

>  <SCORE.heavy>
42

>  <SCORE.norm>
0.3822

>  <RMSD>
5.802

$$$$
2et4_lig
 OpenBabel11021811423D
libRbt.so/2013.1/901 2013/11/27
 42 45  0  0  0  0  0  0  0  0999 V2000
   12.8176    6.5167    5.2458 C   0  0  2  0  0  0  0  0  0  0  0  0
   12.5769    7.0480    6.5504 O   0  0  0  0  0  0  0  0  0  0  0  0
   12.8186    7.7119    4.2587 C   0  0  2  0  0  0  0  0  0  0  0  0
   13.8044    8.6960    4.6265 N   0  0  0  0  0  0  0  0  0  0  0  0
   11.3948    8.3375    4.2087 C   0  0  1  0  0  0  0  0  0  0  0  0
   11.3945    9.4013    3.3086 O   0  0  0  0  0  0  0  0  0  0  0  0
   10.3816    7.2159    3.8020 C   0  0  2  0  0  0  0  0  0  0  0  0
    9.0713    7.7394    3.7511 O   0  0  0  0  0  0  0  0  0  0  0  0
   10.4251    6.0337    4.8170 C   0  0  2  0  0  0  0  0  0  0  0  0
   11.7641    5.5324    4.8680 O   0  0  0  0  0  0  0  0  0  0  0  0
    9.4540    4.8744    4.4190 C   0  0  0  0  0  0  0  0  0  0  0  0
    9.4616    3.8176    5.3700 N   0  0  0  0  0  0  0  0  0  0  0  0
   12.4427    3.4983    9.0073 C   0  0  2  0  0  0  0  0  0  0  0  0
   12.3810    2.6448   10.2004 N   0  0  0  0  0  0  0  0  0  0  0  0
   13.7695    4.4296    9.0746 C   0  0  0  0  0  0  0  0  0  0  0  0
   13.8231    5.3579    7.7930 C   0  0  2  0  0  0  0  0  0  0  0  0
   15.0021    6.2415    7.8250 N   0  0  0  0  0  0  0  0  0  0  0  0
   12.5206    6.2246    7.7233 C   0  0  2  0  0  0  0  0  0  0  0  0
   11.2484    5.3146    7.6883 C   0  0  2  0  0  0  0  0  0  0  0  0
   10.1071    6.2058    7.6400 O   0  0  0  0  0  0  0  0  0  0  0  0
   11.2063    4.4112    8.9624 C   0  0  1  0  0  0  0  0  0  0  0  0
   10.0774    3.6069    8.8971 O   0  0  0  0  0  0  0  0  0  0  0  0
    9.8145    7.1579    8.5587 C   0  0  1  0  0  0  0  0  0  0  0  0
    8.4383    7.8100    8.2645 C   0  0  2  0  0  0  0  0  0  0  0  0
    8.5102    8.8436    7.3257 O   0  0  0  0  0  0  0  0  0  0  0  0
    8.0136    8.1408    9.6833 C   0  0  1  0  0  0  0  0  0  0  0  0
    8.4993    6.9862   10.5709 C   0  0  2  0  0  0  0  0  0  0  0  0
    9.7371    6.6804    9.9290 O   0  0  0  0  0  0  0  0  0  0  0  0
    7.5525    5.7396   10.6353 C   0  0  0  0  0  0  0  0  0  0  0  0
    8.1034    4.8259   11.6205 O   0  0  0  0  0  0  0  0  0  0  0  0
    8.4725    9.9016   11.3598 C   0  0  2  0  0  0  0  0  0  0  0  0
    8.6558    9.4290   10.0532 O   0  0  0  0  0  0  0  0  0  0  0  0
    9.1130   11.3452   11.5486 C   0  0  1  0  0  0  0  0  0  0  0  0
    9.3810    8.3272   16.1930 N   0  0  0  0  0  0  0  0  0  0  0  0
    8.8629   11.7777   13.0871 C   0  0  1  0  0  0  0  0  0  0  0  0
    7.3688   11.7687   13.3421 O   0  0  0  0  0  0  0  0  0  0  0  0
    9.6098   10.7379   14.0807 C   0  0  2  0  0  0  0  0  0  0  0  0
   11.0344   10.7717   13.8246 O   0  0  0  0  0  0  0  0  0  0  0  0
    8.9536    9.2657   13.8319 C   0  0  1  0  0  0  0  0  0  0  0  0
    9.0869    8.8984   12.3796 O   0  0  0  0  0  0  0  0  0  0  0  0
    9.6150    8.1590   14.7259 C   0  0  0  0  0  0  0  0  0  0  0  0
   10.5652   11.3160   11.1733 N   0  0  0  0  0  0  0  0  0  0  0  0
  1  2  1  1  0  0  0
  1  3  1  0  0  0  0
  1 10  1  0  0  0  0
  3  4  1  1  0  0  0
  3  5  1  0  0  0  0
  5  6  1  6  0  0  0
  5  7  1  0  0  0  0
  7  8  1  1  0  0  0
  7  9  1  0  0  0  0
  9 10  1  0  0  0  0
  9 11  1  6  0  0  0
 11 12  1  0  0  0  0
 13 14  1  1  0  0  0
 13 15  1  0  0  0  0
 13 21  1  0  0  0  0
 16 15  1  0  0  0  0
 16 17  1  1  0  0  0
 18  2  1  6  0  0  0
 18 16  1  0  0  0  0
 19 18  1  0  0  0  0
 19 20  1  1  0  0  0
 21 19  1  0  0  0  0
 21 22  1  6  0  0  0
 23 20  1  6  0  0  0
 23 24  1  0  0  0  0
 23 28  1  0  0  0  0
 24 25  1  6  0  0  0
 24 26  1  0  0  0  0
 26 27  1  0  0  0  0
 26 32  1  1  0  0  0
 27 28  1  0  0  0  0
 27 29  1  6  0  0  0
 29 30  1  0  0  0  0
 31 32  1  6  0  0  0
 31 40  1  0  0  0  0
 33 31  1  0  0  0  0
 33 42  1  1  0  0  0
 35 33  1  0  0  0  0
 35 36  1  1  0  0  0
 37 35  1  0  0  0  0
 37 38  1  6  0  0  0
 37 39  1  0  0  0  0
 39 40  1  0  0  0  0
 39 41  1  1  0  0  0
 41 34  1  0  0  0  0
M  END
>  <CHROM.1>
-179.41379992,-177.99418523,53.08686253,-58.12854138,-173.69874530,-176.23497265
-174.11404881,-174.92528383,65.75992328,10.38454846,7.36140368,8.86330314
0.60436082,1.20872857,-1.04761644

>  <Name>
2et4_lig

>  <RI>
0

>  <Rbt.Current_Directory>
/home/itssahil/PROJECTS/Mol_Feturizer/New_Systems/rnas/2et4

>  <Rbt.Executable>
rbdock ($Id: //depot/dev/client3/rdock/2013.1/src/exe/rbdock.cxx#4 $)

>  <Rbt.Library>
libRbt.so (2013.1, Build901 2013/11/27)

>  <Rbt.Parameter_File>
/export/apps/rDock/src/rDock_2013.1_src/data/scripts/dock_solv.prm

>  <Rbt.Receptor>
prm/pocket_docking_8.prm

>  <SCORE>
-11.5259

>  <SCORE.INTER>
-2.00148

>  <SCORE.INTER.CONST>
1

>  <SCORE.INTER.POLAR>
0

>  <SCORE.INTER.ROT>
9

>  <SCORE.INTER.SOLV>
7.34626

>  <SCORE.INTER.VDW>
-13.3831

>  <SCORE.INTER.norm>
-0.0476543

>  <SCORE.INTRA>
-9.52439

>  <SCORE.INTRA.DIHEDRAL>
-20.6355

>  <SCORE.INTRA.DIHEDRAL.0>
21.6909

>  <SCORE.INTRA.POLAR>
0

>  <SCORE.INTRA.POLAR.0>
0

>  <SCORE.INTRA.REPUL>
0

>  <SCORE.INTRA.REPUL.0>
0

>  <SCORE.INTRA.SOLV>
-1.08314

>  <SCORE.INTRA.SOLV.lig_0>
-116.606

>  <SCORE.INTRA.VDW>
1.33492

>  <SCORE.INTRA.VDW.0>
-6.01229

>  <SCORE.INTRA.norm>
-0.226771

>  <SCORE.RESTR>
0

>  <SCORE.RESTR.CAVITY>
0

>  <SCORE.RESTR.norm>
0

>  <SCORE.SYSTEM>
0

>  <SCORE.SYSTEM.CONST>
0

>  <SCORE.SYSTEM.DIHEDRAL>
0

>  <SCORE.SYSTEM.SOLV>
0

>  <SCORE.SYSTEM.norm>
0

>  <SCORE.heavy>
42

>  <SCORE.norm>
-0.274426

>  <RMSD>
5.839

$$$$
2et4_lig
 OpenBabel11021811423D
libRbt.so/2013.1/901 2013/11/27
 42 45  0  0  0  0  0  0  0  0999 V2000
   16.5560    6.0913    6.0427 C   0  0  2  0  0  0  0  0  0  0  0  0
   15.8914    4.9762    5.4451 O   0  0  0  0  0  0  0  0  0  0  0  0
   17.9043    6.2716    5.2997 C   0  0  2  0  0  0  0  0  0  0  0  0
   17.7035    6.4626    3.8859 N   0  0  0  0  0  0  0  0  0  0  0  0
   18.8109    5.0372    5.5745 C   0  0  1  0  0  0  0  0  0  0  0  0
   20.0283    5.2093    4.9187 O   0  0  0  0  0  0  0  0  0  0  0  0
   18.9864    4.8940    7.1232 C   0  0  2  0  0  0  0  0  0  0  0  0
   19.7991    3.7781    7.4195 O   0  0  0  0  0  0  0  0  0  0  0  0
   17.6048    4.7262    7.8253 C   0  0  2  0  0  0  0  0  0  0  0  0
   16.7913    5.8559    7.4956 O   0  0  0  0  0  0  0  0  0  0  0  0
   17.7385    4.6217    9.3799 C   0  0  0  0  0  0  0  0  0  0  0  0
   18.0509    5.8735    9.9770 N   0  0  0  0  0  0  0  0  0  0  0  0
   11.7991    3.6167    5.2013 C   0  0  2  0  0  0  0  0  0  0  0  0
   10.4654    3.1659    5.6180 N   0  0  0  0  0  0  0  0  0  0  0  0
   12.9195    2.5848    5.7601 C   0  0  0  0  0  0  0  0  0  0  0  0
   14.3565    3.0836    5.3202 C   0  0  2  0  0  0  0  0  0  0  0  0
   15.4097    2.1875    5.8294 N   0  0  0  0  0  0  0  0  0  0  0  0
   14.5935    4.5329    5.8643 C   0  0  2  0  0  0  0  0  0  0  0  0
   13.4898    5.5107    5.3411 C   0  0  2  0  0  0  0  0  0  0  0  0
   13.7890    6.8095    5.9090 O   0  0  0  0  0  0  0  0  0  0  0  0
   12.0797    5.0090    5.7900 C   0  0  1  0  0  0  0  0  0  0  0  0
   11.1220    5.8860    5.3008 O   0  0  0  0  0  0  0  0  0  0  0  0
   13.7367    7.1218    7.2265 C   0  0  1  0  0  0  0  0  0  0  0  0
   14.2419    8.5668    7.4758 C   0  0  2  0  0  0  0  0  0  0  0  0
   15.6332    8.6503    7.5877 O   0  0  0  0  0  0  0  0  0  0  0  0
   13.3903    8.9216    8.6806 C   0  0  1  0  0  0  0  0  0  0  0  0
   12.0153    8.2770    8.4555 C   0  0  2  0  0  0  0  0  0  0  0  0
   12.4094    7.0635    7.8153 O   0  0  0  0  0  0  0  0  0  0  0  0
   11.0180    9.1037    7.5743 C   0  0  0  0  0  0  0  0  0  0  0  0
   11.5801    9.1804    6.2375 O   0  0  0  0  0  0  0  0  0  0  0  0
   13.7155    8.9008   11.1332 C   0  0  2  0  0  0  0  0  0  0  0  0
   14.0672    8.3718    9.8840 O   0  0  0  0  0  0  0  0  0  0  0  0
   14.4780    8.1553   12.3132 C   0  0  1  0  0  0  0  0  0  0  0  0
    9.3466    9.9430   11.6296 N   0  0  0  0  0  0  0  0  0  0  0  0
   13.9823    8.8281   13.6982 C   0  0  1  0  0  0  0  0  0  0  0  0
   14.3039   10.3084   13.6445 O   0  0  0  0  0  0  0  0  0  0  0  0
   12.3875    8.6048   13.8801 C   0  0  2  0  0  0  0  0  0  0  0  0
   12.1073    7.1855   13.9381 O   0  0  0  0  0  0  0  0  0  0  0  0
   11.6436    9.3496   12.6344 C   0  0  1  0  0  0  0  0  0  0  0  0
   12.1750    8.8045   11.3373 O   0  0  0  0  0  0  0  0  0  0  0  0
   10.0844    9.1834   12.6851 C   0  0  0  0  0  0  0  0  0  0  0  0
   14.2116    6.6804   12.2461 N   0  0  0  0  0  0  0  0  0  0  0  0
  1  2  1  6  0  0  0
  1  3  1  0  0  0  0
  1 10  1  0  0  0  0
  3  4  1  6  0  0  0
  3  5  1  0  0  0  0
  5  6  1  6  0  0  0
  5  7  1  0  0  0  0
  7  8  1  6  0  0  0
  7  9  1  0  0  0  0
  9 10  1  0  0  0  0
  9 11  1  1  0  0  0
 11 12  1  0  0  0  0
 13 14  1  1  0  0  0
 13 15  1  0  0  0  0
 13 21  1  0  0  0  0
 16 15  1  0  0  0  0
 16 17  1  1  0  0  0
 18  2  1  6  0  0  0
 18 16  1  0  0  0  0
 19 18  1  0  0  0  0
 19 20  1  1  0  0  0
 21 19  1  0  0  0  0
 21 22  1  6  0  0  0
 23 20  1  6  0  0  0
 23 24  1  0  0  0  0
 23 28  1  0  0  0  0
 24 25  1  1  0  0  0
 24 26  1  0  0  0  0
 26 27  1  0  0  0  0
 26 32  1  1  0  0  0
 27 28  1  0  0  0  0
 27 29  1  6  0  0  0
 29 30  1  0  0  0  0
 31 32  1  6  0  0  0
 31 40  1  0  0  0  0
 33 31  1  0  0  0  0
 33 42  1  1  0  0  0
 35 33  1  0  0  0  0
 35 36  1  6  0  0  0
 37 35  1  0  0  0  0
 37 38  1  6  0  0  0
 37 39  1  0  0  0  0
 39 40  1  0  0  0  0
 39 41  1  1  0  0  0
 41 34  1  0  0  0  0
M  END
>  <CHROM.1>
-178.67360736,73.48838173,-163.48999256,-65.96995092,174.98401381,160.81444209
65.07746708,177.24543860,175.14086019,14.34852127,6.62517232,8.24973394,-1.02726190
-0.17271224,1.08040346

>  <Name>
2et4_lig

>  <RI>
0

>  <Rbt.Current_Directory>
/home/itssahil/PROJECTS/Mol_Feturizer/New_Systems/rnas/2et4

>  <Rbt.Executable>
rbdock ($Id: //depot/dev/client3/rdock/2013.1/src/exe/rbdock.cxx#4 $)

>  <Rbt.Library>
libRbt.so (2013.1, Build901 2013/11/27)

>  <Rbt.Parameter_File>
/export/apps/rDock/src/rDock_2013.1_src/data/scripts/dock_solv.prm

>  <Rbt.Receptor>
prm/pocket_docking_6.prm

>  <SCORE>
-11.3967

>  <SCORE.INTER>
-2.06267

>  <SCORE.INTER.CONST>
1

>  <SCORE.INTER.POLAR>
-0.928381

>  <SCORE.INTER.ROT>
9

>  <SCORE.INTER.SOLV>
12.5488

>  <SCORE.INTER.VDW>
-12.0634

>  <SCORE.INTER.norm>
-0.0491111

>  <SCORE.INTRA>
-9.33403

>  <SCORE.INTRA.DIHEDRAL>
-17.4567

>  <SCORE.INTRA.DIHEDRAL.0>
21.6909

>  <SCORE.INTRA.POLAR>
0

>  <SCORE.INTRA.POLAR.0>
0

>  <SCORE.INTRA.REPUL>
0

>  <SCORE.INTRA.REPUL.0>
0

>  <SCORE.INTRA.SOLV>
-2.1059

>  <SCORE.INTRA.SOLV.lig_0>
-116.606

>  <SCORE.INTRA.VDW>
0.447255

>  <SCORE.INTRA.VDW.0>
-6.01229

>  <SCORE.INTRA.norm>
-0.222239

>  <SCORE.RESTR>
0

>  <SCORE.RESTR.CAVITY>
0

>  <SCORE.RESTR.norm>
0

>  <SCORE.SYSTEM>
0

>  <SCORE.SYSTEM.CONST>
0

>  <SCORE.SYSTEM.DIHEDRAL>
0

>  <SCORE.SYSTEM.SOLV>
0

>  <SCORE.SYSTEM.norm>
0

>  <SCORE.heavy>
42

>  <SCORE.norm>
-0.27135

>  <RMSD>
5.843

$$$$
2et4_lig
 OpenBabel11021811423D
libRbt.so/2013.1/901 2013/11/27
 42 45  0  0  0  0  0  0  0  0999 V2000
   16.7126    6.8818    8.5356 C   0  0  2  0  0  0  0  0  0  0  0  0
   16.0968    5.5923    8.5175 O   0  0  0  0  0  0  0  0  0  0  0  0
   15.7820    7.8436    7.7535 C   0  0  2  0  0  0  0  0  0  0  0  0
   14.4592    7.8737    8.3235 N   0  0  0  0  0  0  0  0  0  0  0  0
   15.7378    7.4128    6.2590 C   0  0  1  0  0  0  0  0  0  0  0  0
   14.9136    8.2886    5.5552 O   0  0  0  0  0  0  0  0  0  0  0  0
   17.2030    7.4053    5.7084 C   0  0  2  0  0  0  0  0  0  0  0  0
   17.2109    7.0117    4.3525 O   0  0  0  0  0  0  0  0  0  0  0  0
   18.1007    6.4332    6.5324 C   0  0  2  0  0  0  0  0  0  0  0  0
   18.0620    6.8373    7.9042 O   0  0  0  0  0  0  0  0  0  0  0  0
   19.5836    6.4311    6.0360 C   0  0  0  0  0  0  0  0  0  0  0  0
   20.3657    5.4374    6.6857 N   0  0  0  0  0  0  0  0  0  0  0  0
   15.3354    2.2179   11.1037 C   0  0  2  0  0  0  0  0  0  0  0  0
   15.5133    1.2299   12.1751 N   0  0  0  0  0  0  0  0  0  0  0  0
   16.5829    2.1278   10.0702 C   0  0  0  0  0  0  0  0  0  0  0  0
   16.3931    3.2050    8.9253 C   0  0  2  0  0  0  0  0  0  0  0  0
   17.5195    3.1759    7.9755 N   0  0  0  0  0  0  0  0  0  0  0  0
   16.2836    4.6303    9.5647 C   0  0  2  0  0  0  0  0  0  0  0  0
   15.0951    4.6944   10.5802 C   0  0  2  0  0  0  0  0  0  0  0  0
   15.0898    6.0381   11.1220 O   0  0  0  0  0  0  0  0  0  0  0  0
   15.3013    3.6317   11.7069 C   0  0  1  0  0  0  0  0  0  0  0  0
   14.2274    3.7020   12.5829 O   0  0  0  0  0  0  0  0  0  0  0  0
   14.1763    6.5300   11.9937 C   0  0  1  0  0  0  0  0  0  0  0  0
   14.8691    7.1342   13.2429 C   0  0  2  0  0  0  0  0  0  0  0  0
   15.1743    6.1789   14.2172 O   0  0  0  0  0  0  0  0  0  0  0  0
   13.8676    8.2240   13.5777 C   0  0  1  0  0  0  0  0  0  0  0  0
   13.3603    8.7841   12.2414 C   0  0  2  0  0  0  0  0  0  0  0  0
   13.3338    7.5882   11.4624 O   0  0  0  0  0  0  0  0  0  0  0  0
   14.2601    9.8867   11.5862 C   0  0  0  0  0  0  0  0  0  0  0  0
   14.2393   11.0431   12.4646 O   0  0  0  0  0  0  0  0  0  0  0  0
   12.2113    8.3419   15.4118 C   0  0  2  0  0  0  0  0  0  0  0  0
   12.7731    7.5986   14.3650 O   0  0  0  0  0  0  0  0  0  0  0  0
   11.1494    7.4829   16.2269 C   0  0  1  0  0  0  0  0  0  0  0  0
    9.0138   11.5250   14.4229 N   0  0  0  0  0  0  0  0  0  0  0  0
   10.5543    8.4407   17.3867 C   0  0  1  0  0  0  0  0  0  0  0  0
   11.7087    8.9069   18.2512 O   0  0  0  0  0  0  0  0  0  0  0  0
    9.8011    9.7114   16.7203 C   0  0  2  0  0  0  0  0  0  0  0  0
    8.6984    9.2414   15.9083 O   0  0  0  0  0  0  0  0  0  0  0  0
   10.9112   10.5448   15.8642 C   0  0  1  0  0  0  0  0  0  0  0  0
   11.5476    9.6337   14.8508 O   0  0  0  0  0  0  0  0  0  0  0  0
   10.2945   11.7956   15.1455 C   0  0  0  0  0  0  0  0  0  0  0  0
   10.0947    6.9554   15.2995 N   0  0  0  0  0  0  0  0  0  0  0  0
  1  2  1  6  0  0  0
  1  3  1  0  0  0  0
  1 10  1  0  0  0  0
  3  4  1  1  0  0  0
  3  5  1  0  0  0  0
  5  6  1  6  0  0  0
  5  7  1  0  0  0  0
  7  8  1  6  0  0  0
  7  9  1  0  0  0  0
  9 10  1  0  0  0  0
  9 11  1  6  0  0  0
 11 12  1  0  0  0  0
 13 14  1  1  0  0  0
 13 15  1  0  0  0  0
 13 21  1  0  0  0  0
 16 15  1  0  0  0  0
 16 17  1  6  0  0  0
 18  2  1  6  0  0  0
 18 16  1  0  0  0  0
 19 18  1  0  0  0  0
 19 20  1  1  0  0  0
 21 19  1  0  0  0  0
 21 22  1  1  0  0  0
 23 20  1  6  0  0  0
 23 24  1  0  0  0  0
 23 28  1  0  0  0  0
 24 25  1  1  0  0  0
 24 26  1  0  0  0  0
 26 27  1  0  0  0  0
 26 32  1  6  0  0  0
 27 28  1  0  0  0  0
 27 29  1  6  0  0  0
 29 30  1  0  0  0  0
 31 32  1  6  0  0  0
 31 40  1  0  0  0  0
 33 31  1  0  0  0  0
 33 42  1  6  0  0  0
 35 33  1  0  0  0  0
 35 36  1  1  0  0  0
 37 35  1  0  0  0  0
 37 38  1  6  0  0  0
 37 39  1  0  0  0  0
 39 40  1  0  0  0  0
 39 41  1  6  0  0  0
 41 34  1  0  0  0  0
M  END
>  <CHROM.1>
-151.01879914,-173.36847257,-141.38192298,176.72777011,126.55279825,142.59510613
-65.27351093,-175.01155731,-46.53069029,14.35951689,7.01984142,11.40209892
0.15836613,0.95492202,-0.59791682

>  <Name>
2et4_lig

>  <RI>
0

>  <Rbt.Current_Directory>
/home/itssahil/PROJECTS/Mol_Feturizer/New_Systems/rnas/2et4

>  <Rbt.Executable>
rbdock ($Id: //depot/dev/client3/rdock/2013.1/src/exe/rbdock.cxx#4 $)

>  <Rbt.Library>
libRbt.so (2013.1, Build901 2013/11/27)

>  <Rbt.Parameter_File>
/export/apps/rDock/src/rDock_2013.1_src/data/scripts/dock_solv.prm

>  <Rbt.Receptor>
prm/blind_docking_80.prm

>  <SCORE>
20.0168

>  <SCORE.INTER>
-1.12354

>  <SCORE.INTER.CONST>
1

>  <SCORE.INTER.POLAR>
0

>  <SCORE.INTER.ROT>
9

>  <SCORE.INTER.SOLV>
23.3882

>  <SCORE.INTER.VDW>
-18.1451

>  <SCORE.INTER.norm>
-0.026751

>  <SCORE.INTRA>
1.3033

>  <SCORE.INTRA.DIHEDRAL>
0.0128944

>  <SCORE.INTRA.DIHEDRAL.0>
21.6909

>  <SCORE.INTRA.POLAR>
0

>  <SCORE.INTRA.POLAR.0>
0

>  <SCORE.INTRA.REPUL>
0.0828291

>  <SCORE.INTRA.REPUL.0>
0

>  <SCORE.INTRA.SOLV>
0.818055

>  <SCORE.INTRA.SOLV.lig_0>
-116.606

>  <SCORE.INTRA.VDW>
0.473678

>  <SCORE.INTRA.VDW.0>
-6.01229

>  <SCORE.INTRA.norm>
0.0310309

>  <SCORE.RESTR>
19.837

>  <SCORE.RESTR.CAVITY>
19.837

>  <SCORE.RESTR.norm>
0.472309

>  <SCORE.SYSTEM>
0

>  <SCORE.SYSTEM.CONST>
0

>  <SCORE.SYSTEM.DIHEDRAL>
0

>  <SCORE.SYSTEM.SOLV>
0

>  <SCORE.SYSTEM.norm>
0

>  <SCORE.heavy>
42

>  <SCORE.norm>
0.476589

>  <RMSD>
5.849

$$$$
2et4_lig
 OpenBabel11021811423D
libRbt.so/2013.1/901 2013/11/27
 42 45  0  0  0  0  0  0  0  0999 V2000
   13.6579    2.6543    3.1474 C   0  0  2  0  0  0  0  0  0  0  0  0
   14.7013    3.1746    3.9737 O   0  0  0  0  0  0  0  0  0  0  0  0
   14.0582    2.9328    1.6761 C   0  0  2  0  0  0  0  0  0  0  0  0
   15.3353    2.3460    1.3591 N   0  0  0  0  0  0  0  0  0  0  0  0
   14.0716    4.4692    1.4298 C   0  0  1  0  0  0  0  0  0  0  0  0
   14.4160    4.7161    0.1023 O   0  0  0  0  0  0  0  0  0  0  0  0
   12.6577    5.0350    1.7910 C   0  0  2  0  0  0  0  0  0  0  0  0
   12.6267    6.4320    1.5886 O   0  0  0  0  0  0  0  0  0  0  0  0
   12.2965    4.7211    3.2746 C   0  0  2  0  0  0  0  0  0  0  0  0
   12.3540    3.3041    3.4625 O   0  0  0  0  0  0  0  0  0  0  0  0
   10.8711    5.2362    3.6595 C   0  0  0  0  0  0  0  0  0  0  0  0
    9.8440    4.5474    2.9582 N   0  0  0  0  0  0  0  0  0  0  0  0
   13.2087    2.5573    7.9794 C   0  0  2  0  0  0  0  0  0  0  0  0
   13.1873    2.4291    9.4419 N   0  0  0  0  0  0  0  0  0  0  0  0
   14.2087    1.4442    7.3520 C   0  0  0  0  0  0  0  0  0  0  0  0
   14.2389    1.5965    5.7762 C   0  0  2  0  0  0  0  0  0  0  0  0
   15.1570    0.6192    5.1649 N   0  0  0  0  0  0  0  0  0  0  0  0
   14.6937    3.0477    5.4023 C   0  0  2  0  0  0  0  0  0  0  0  0
   13.7378    4.1110    6.0375 C   0  0  2  0  0  0  0  0  0  0  0  0
   14.2500    5.4088    5.6472 O   0  0  0  0  0  0  0  0  0  0  0  0
   13.7253    3.9525    7.5919 C   0  0  1  0  0  0  0  0  0  0  0  0
   12.8603    4.8973    8.1257 O   0  0  0  0  0  0  0  0  0  0  0  0
   13.9690    6.5821    6.2642 C   0  0  1  0  0  0  0  0  0  0  0  0
   14.8536    7.7283    5.7081 C   0  0  2  0  0  0  0  0  0  0  0  0
   16.1110    7.7956    6.3158 O   0  0  0  0  0  0  0  0  0  0  0  0
   13.8936    8.8899    5.8868 C   0  0  1  0  0  0  0  0  0  0  0  0
   12.4889    8.3547    5.5747 C   0  0  2  0  0  0  0  0  0  0  0  0
   12.5972    7.0375    6.1141 O   0  0  0  0  0  0  0  0  0  0  0  0
   12.0961    8.3331    4.0582 C   0  0  0  0  0  0  0  0  0  0  0  0
   10.6548    8.1710    3.9849 O   0  0  0  0  0  0  0  0  0  0  0  0
   13.5651    8.4882    8.3059 C   0  0  2  0  0  0  0  0  0  0  0  0
   14.0079    9.3517    7.2948 O   0  0  0  0  0  0  0  0  0  0  0  0
   12.7605    9.2762    9.4290 C   0  0  1  0  0  0  0  0  0  0  0  0
   16.5555    5.3654    9.5003 N   0  0  0  0  0  0  0  0  0  0  0  0
   12.3208    8.1924   10.5465 C   0  0  1  0  0  0  0  0  0  0  0  0
   11.4787    7.1307    9.8673 O   0  0  0  0  0  0  0  0  0  0  0  0
   13.6373    7.5243   11.2150 C   0  0  2  0  0  0  0  0  0  0  0  0
   14.4190    8.5555   11.8644 O   0  0  0  0  0  0  0  0  0  0  0  0
   14.4541    6.7592   10.0287 C   0  0  1  0  0  0  0  0  0  0  0  0
   14.7765    7.7376    8.9329 O   0  0  0  0  0  0  0  0  0  0  0  0
   15.7723    6.0869   10.5498 C   0  0  0  0  0  0  0  0  0  0  0  0
   13.6051   10.3851    9.9839 N   0  0  0  0  0  0  0  0  0  0  0  0
  1  2  1  1  0  0  0
  1  3  1  0  0  0  0
  1 10  1  0  0  0  0
  3  4  1  1  0  0  0
  3  5  1  0  0  0  0
  5  6  1  6  0  0  0
  5  7  1  0  0  0  0
  7  8  1  1  0  0  0
  7  9  1  0  0  0  0
  9 10  1  0  0  0  0
  9 11  1  6  0  0  0
 11 12  1  0  0  0  0
 13 14  1  1  0  0  0
 13 15  1  0  0  0  0
 13 21  1  0  0  0  0
 16 15  1  0  0  0  0
 16 17  1  6  0  0  0
 18  2  1  6  0  0  0
 18 16  1  0  0  0  0
 19 18  1  0  0  0  0
 19 20  1  1  0  0  0
 21 19  1  0  0  0  0
 21 22  1  1  0  0  0
 23 20  1  6  0  0  0
 23 24  1  0  0  0  0
 23 28  1  0  0  0  0
 24 25  1  1  0  0  0
 24 26  1  0  0  0  0
 26 27  1  0  0  0  0
 26 32  1  1  0  0  0
 27 28  1  0  0  0  0
 27 29  1  6  0  0  0
 29 30  1  0  0  0  0
 31 32  1  6  0  0  0
 31 40  1  0  0  0  0
 33 31  1  0  0  0  0
 33 42  1  1  0  0  0
 35 33  1  0  0  0  0
 35 36  1  6  0  0  0
 37 35  1  0  0  0  0
 37 38  1  6  0  0  0
 37 39  1  0  0  0  0
 39 40  1  0  0  0  0
 39 41  1  1  0  0  0
 41 34  1  0  0  0  0
M  END
>  <CHROM.1>
-177.49519345,66.06005195,42.80529199,-160.29667033,171.55984060,-67.13951906
-164.15099878,-138.20341510,179.70999796,13.57085052,5.68691274,6.14229950
-1.71454791,-1.24475589,0.90249024

>  <Name>
2et4_lig

>  <RI>
0

>  <Rbt.Current_Directory>
/home/itssahil/PROJECTS/Mol_Feturizer/New_Systems/rnas/2et4

>  <Rbt.Executable>
rbdock ($Id: //depot/dev/client3/rdock/2013.1/src/exe/rbdock.cxx#4 $)

>  <Rbt.Library>
libRbt.so (2013.1, Build901 2013/11/27)

>  <Rbt.Parameter_File>
/export/apps/rDock/src/rDock_2013.1_src/data/scripts/dock_solv.prm

>  <Rbt.Receptor>
prm/pocket_docking_8.prm

>  <SCORE>
-12.2417

>  <SCORE.INTER>
-8.12124

>  <SCORE.INTER.CONST>
1

>  <SCORE.INTER.POLAR>
-1.77278

>  <SCORE.INTER.ROT>
9

>  <SCORE.INTER.SOLV>
12.7498

>  <SCORE.INTER.VDW>
-13.3548

>  <SCORE.INTER.norm>
-0.193363

>  <SCORE.INTRA>
-4.12046

>  <SCORE.INTRA.DIHEDRAL>
-11.2017

>  <SCORE.INTRA.DIHEDRAL.0>
21.6909

>  <SCORE.INTRA.POLAR>
0

>  <SCORE.INTRA.POLAR.0>
0

>  <SCORE.INTRA.REPUL>
0.00112336

>  <SCORE.INTRA.REPUL.0>
0

>  <SCORE.INTRA.SOLV>
1.18005

>  <SCORE.INTRA.SOLV.lig_0>
-116.606

>  <SCORE.INTRA.VDW>
0.884743

>  <SCORE.INTRA.VDW.0>
-6.01229

>  <SCORE.INTRA.norm>
-0.0981061

>  <SCORE.RESTR>
0

>  <SCORE.RESTR.CAVITY>
0

>  <SCORE.RESTR.norm>
0

>  <SCORE.SYSTEM>
0

>  <SCORE.SYSTEM.CONST>
0

>  <SCORE.SYSTEM.DIHEDRAL>
0

>  <SCORE.SYSTEM.SOLV>
0

>  <SCORE.SYSTEM.norm>
0

>  <SCORE.heavy>
42

>  <SCORE.norm>
-0.291469

>  <RMSD>
5.855

$$$$
2et4_lig
 OpenBabel11021811423D
libRbt.so/2013.1/901 2013/11/27
 42 45  0  0  0  0  0  0  0  0999 V2000
   14.0794    5.1084    5.4352 C   0  0  2  0  0  0  0  0  0  0  0  0
   13.0684    5.9002    6.0622 O   0  0  0  0  0  0  0  0  0  0  0  0
   14.1395    3.7587    6.1951 C   0  0  2  0  0  0  0  0  0  0  0  0
   12.8603    3.0958    6.1902 N   0  0  0  0  0  0  0  0  0  0  0  0
   14.6343    4.0096    7.6488 C   0  0  1  0  0  0  0  0  0  0  0  0
   14.7029    2.7929    8.3246 O   0  0  0  0  0  0  0  0  0  0  0  0
   16.0236    4.7268    7.5758 C   0  0  2  0  0  0  0  0  0  0  0  0
   16.5085    4.9813    8.8772 O   0  0  0  0  0  0  0  0  0  0  0  0
   15.9140    6.0713    6.7947 C   0  0  2  0  0  0  0  0  0  0  0  0
   15.4022    5.7931    5.4880 O   0  0  0  0  0  0  0  0  0  0  0  0
   17.2935    6.7964    6.6659 C   0  0  0  0  0  0  0  0  0  0  0  0
   18.2439    6.0185    5.9500 N   0  0  0  0  0  0  0  0  0  0  0  0
   13.0964    9.5123    3.6944 C   0  0  2  0  0  0  0  0  0  0  0  0
   12.7090   10.8334    3.1841 N   0  0  0  0  0  0  0  0  0  0  0  0
   11.8677    8.4719    3.4941 C   0  0  0  0  0  0  0  0  0  0  0  0
   12.2858    7.0530    4.0592 C   0  0  2  0  0  0  0  0  0  0  0  0
   11.1873    6.0805    3.9208 N   0  0  0  0  0  0  0  0  0  0  0  0
   12.6778    7.1892    5.5693 C   0  0  2  0  0  0  0  0  0  0  0  0
   13.8436    8.2167    5.7506 C   0  0  2  0  0  0  0  0  0  0  0  0
   14.1180    8.2800    7.1718 O   0  0  0  0  0  0  0  0  0  0  0  0
   13.4126    9.6123    5.1957 C   0  0  1  0  0  0  0  0  0  0  0  0
   14.4690   10.4976    5.3568 O   0  0  0  0  0  0  0  0  0  0  0  0
   13.3383    8.8917    8.0960 C   0  0  1  0  0  0  0  0  0  0  0  0
   12.0515    8.0701    8.3690 C   0  0  2  0  0  0  0  0  0  0  0  0
   11.0311    8.3257    7.4478 O   0  0  0  0  0  0  0  0  0  0  0  0
   11.8291    8.4364    9.8248 C   0  0  1  0  0  0  0  0  0  0  0  0
   13.2168    8.5267   10.4750 C   0  0  2  0  0  0  0  0  0  0  0  0
   13.9646    9.0820    9.3933 O   0  0  0  0  0  0  0  0  0  0  0  0
   13.8225    7.1675   10.9653 C   0  0  0  0  0  0  0  0  0  0  0  0
   15.2545    7.3582   11.1138 O   0  0  0  0  0  0  0  0  0  0  0  0
    9.9405    9.8312   10.6052 C   0  0  2  0  0  0  0  0  0  0  0  0
   11.1201    9.7423    9.8538 O   0  0  0  0  0  0  0  0  0  0  0  0
    9.3380   11.3027   10.5650 C   0  0  1  0  0  0  0  0  0  0  0  0
   10.0722    7.5955   14.4863 N   0  0  0  0  0  0  0  0  0  0  0  0
    8.0018   11.2933   11.4766 C   0  0  1  0  0  0  0  0  0  0  0  0
    7.0494   10.2614   10.9061 O   0  0  0  0  0  0  0  0  0  0  0  0
    8.3814   10.9232   13.0081 C   0  0  2  0  0  0  0  0  0  0  0  0
    9.2830   11.9270   13.5329 O   0  0  0  0  0  0  0  0  0  0  0  0
    9.0291    9.4264   13.0038 C   0  0  1  0  0  0  0  0  0  0  0  0
   10.2120    9.3967   12.0754 O   0  0  0  0  0  0  0  0  0  0  0  0
    9.4632    8.9601   14.4374 C   0  0  0  0  0  0  0  0  0  0  0  0
   10.3644   12.2912   11.0341 N   0  0  0  0  0  0  0  0  0  0  0  0
  1  2  1  1  0  0  0
  1  3  1  0  0  0  0
  1 10  1  0  0  0  0
  3  4  1  1  0  0  0
  3  5  1  0  0  0  0
  5  6  1  6  0  0  0
  5  7  1  0  0  0  0
  7  8  1  1  0  0  0
  7  9  1  0  0  0  0
  9 10  1  0  0  0  0
  9 11  1  6  0  0  0
 11 12  1  0  0  0  0
 13 14  1  1  0  0  0
 13 15  1  0  0  0  0
 13 21  1  0  0  0  0
 16 15  1  0  0  0  0
 16 17  1  1  0  0  0
 18  2  1  6  0  0  0
 18 16  1  0  0  0  0
 19 18  1  0  0  0  0
 19 20  1  1  0  0  0
 21 19  1  0  0  0  0
 21 22  1  6  0  0  0
 23 20  1  6  0  0  0
 23 24  1  0  0  0  0
 23 28  1  0  0  0  0
 24 25  1  6  0  0  0
 24 26  1  0  0  0  0
 26 27  1  0  0  0  0
 26 32  1  6  0  0  0
 27 28  1  0  0  0  0
 27 29  1  6  0  0  0
 29 30  1  0  0  0  0
 31 32  1  6  0  0  0
 31 40  1  0  0  0  0
 33 31  1  0  0  0  0
 33 42  1  1  0  0  0
 35 33  1  0  0  0  0
 35 36  1  6  0  0  0
 37 35  1  0  0  0  0
 37 38  1  6  0  0  0
 37 39  1  0  0  0  0
 39 40  1  0  0  0  0
 39 41  1  1  0  0  0
 41 34  1  0  0  0  0
M  END
>  <CHROM.1>
-176.05377700,61.42817956,54.08063499,-73.83268067,73.55987894,127.43076683
160.85787212,178.22446931,-179.61911630,12.61734505,7.94494480,8.34894882
-0.57350326,-0.82288483,1.83673271

>  <Name>
2et4_lig

>  <RI>
0

>  <Rbt.Current_Directory>
/home/itssahil/PROJECTS/Mol_Feturizer/New_Systems/rnas/2et4

>  <Rbt.Executable>
rbdock ($Id: //depot/dev/client3/rdock/2013.1/src/exe/rbdock.cxx#4 $)

>  <Rbt.Library>
libRbt.so (2013.1, Build901 2013/11/27)

>  <Rbt.Parameter_File>
/export/apps/rDock/src/rDock_2013.1_src/data/scripts/dock_solv.prm

>  <Rbt.Receptor>
prm/pocket_docking_8.prm

>  <SCORE>
-18.7582

>  <SCORE.INTER>
-13.3506

>  <SCORE.INTER.CONST>
1

>  <SCORE.INTER.POLAR>
-2.00498

>  <SCORE.INTER.ROT>
9

>  <SCORE.INTER.SOLV>
13.9601

>  <SCORE.INTER.VDW>
-16.4705

>  <SCORE.INTER.norm>
-0.317872

>  <SCORE.INTRA>
-5.40761

>  <SCORE.INTRA.DIHEDRAL>
-11.3953

>  <SCORE.INTRA.DIHEDRAL.0>
21.6909

>  <SCORE.INTRA.POLAR>
0

>  <SCORE.INTRA.POLAR.0>
0

>  <SCORE.INTRA.REPUL>
0

>  <SCORE.INTRA.REPUL.0>
0

>  <SCORE.INTRA.SOLV>
-2.23302

>  <SCORE.INTRA.SOLV.lig_0>
-116.606

>  <SCORE.INTRA.VDW>
1.40655

>  <SCORE.INTRA.VDW.0>
-6.01229

>  <SCORE.INTRA.norm>
-0.128753

>  <SCORE.RESTR>
0

>  <SCORE.RESTR.CAVITY>
0

>  <SCORE.RESTR.norm>
0

>  <SCORE.SYSTEM>
0

>  <SCORE.SYSTEM.CONST>
0

>  <SCORE.SYSTEM.DIHEDRAL>
0

>  <SCORE.SYSTEM.SOLV>
0

>  <SCORE.SYSTEM.norm>
0

>  <SCORE.heavy>
42

>  <SCORE.norm>
-0.446625

>  <RMSD>
5.883

$$$$
2et4_lig
 OpenBabel11021811423D
libRbt.so/2013.1/901 2013/11/27
 42 45  0  0  0  0  0  0  0  0999 V2000
   15.5926    5.0905    5.2317 C   0  0  2  0  0  0  0  0  0  0  0  0
   14.3685    5.8184    5.1142 O   0  0  0  0  0  0  0  0  0  0  0  0
   15.2199    3.6040    5.4641 C   0  0  2  0  0  0  0  0  0  0  0  0
   14.3952    3.0963    4.3974 N   0  0  0  0  0  0  0  0  0  0  0  0
   14.5057    3.4628    6.8393 C   0  0  1  0  0  0  0  0  0  0  0  0
   14.1863    2.1233    7.0529 O   0  0  0  0  0  0  0  0  0  0  0  0
   15.4574    4.0294    7.9453 C   0  0  2  0  0  0  0  0  0  0  0  0
   14.8445    3.9275    9.2132 O   0  0  0  0  0  0  0  0  0  0  0  0
   15.8113    5.5209    7.6624 C   0  0  2  0  0  0  0  0  0  0  0  0
   16.4115    5.6038    6.3664 O   0  0  0  0  0  0  0  0  0  0  0  0
   16.7951    6.1089    8.7262 C   0  0  0  0  0  0  0  0  0  0  0  0
   18.0584    5.4572    8.7070 N   0  0  0  0  0  0  0  0  0  0  0  0
   13.5888    9.9254    4.0285 C   0  0  2  0  0  0  0  0  0  0  0  0
   13.4520   11.1365    3.2097 N   0  0  0  0  0  0  0  0  0  0  0  0
   15.1170    9.3865    3.9486 C   0  0  0  0  0  0  0  0  0  0  0  0
   15.2551    8.0726    4.8216 C   0  0  2  0  0  0  0  0  0  0  0  0
   16.6247    7.5326    4.7572 N   0  0  0  0  0  0  0  0  0  0  0  0
   14.2424    6.9956    4.3048 C   0  0  2  0  0  0  0  0  0  0  0  0
   12.7763    7.5391    4.3602 C   0  0  2  0  0  0  0  0  0  0  0  0
   11.9267    6.4815    3.8515 O   0  0  0  0  0  0  0  0  0  0  0  0
   12.6551    8.8300    3.4882 C   0  0  1  0  0  0  0  0  0  0  0  0
   11.3505    9.2962    3.5676 O   0  0  0  0  0  0  0  0  0  0  0  0
   10.7102    6.1452    4.3448 C   0  0  1  0  0  0  0  0  0  0  0  0
   10.8457    5.4044    5.7007 C   0  0  2  0  0  0  0  0  0  0  0  0
   11.0831    4.0341    5.5562 O   0  0  0  0  0  0  0  0  0  0  0  0
    9.5550    5.8561    6.3586 C   0  0  1  0  0  0  0  0  0  0  0  0
    9.3310    7.3153    5.9375 C   0  0  2  0  0  0  0  0  0  0  0  0
    9.8229    7.2678    4.5983 O   0  0  0  0  0  0  0  0  0  0  0  0
   10.0819    8.3890    6.7966 C   0  0  0  0  0  0  0  0  0  0  0  0
   11.5028    8.1035    6.7039 O   0  0  0  0  0  0  0  0  0  0  0  0
    7.6605    4.3339    6.8225 C   0  0  2  0  0  0  0  0  0  0  0  0
    8.4689    4.9676    5.8691 O   0  0  0  0  0  0  0  0  0  0  0  0
    6.6630    5.3633    7.5119 C   0  0  1  0  0  0  0  0  0  0  0  0
    9.8431    1.3465    9.3308 N   0  0  0  0  0  0  0  0  0  0  0  0
    5.8021    4.5328    8.6009 C   0  0  1  0  0  0  0  0  0  0  0  0
    5.0747    3.4182    7.8756 O   0  0  0  0  0  0  0  0  0  0  0  0
    6.7878    3.9193    9.7316 C   0  0  2  0  0  0  0  0  0  0  0  0
    7.4628    5.0022   10.4156 O   0  0  0  0  0  0  0  0  0  0  0  0
    7.8174    2.9000    8.9828 C   0  0  1  0  0  0  0  0  0  0  0  0
    8.5486    3.6383    7.8954 O   0  0  0  0  0  0  0  0  0  0  0  0
    8.8464    2.2552    9.9761 C   0  0  0  0  0  0  0  0  0  0  0  0
    7.4338    6.5011    8.1137 N   0  0  0  0  0  0  0  0  0  0  0  0
  1  2  1  1  0  0  0
  1  3  1  0  0  0  0
  1 10  1  0  0  0  0
  3  4  1  6  0  0  0
  3  5  1  0  0  0  0
  5  6  1  1  0  0  0
  5  7  1  0  0  0  0
  7  8  1  1  0  0  0
  7  9  1  0  0  0  0
  9 10  1  0  0  0  0
  9 11  1  1  0  0  0
 11 12  1  0  0  0  0
 13 14  1  6  0  0  0
 13 15  1  0  0  0  0
 13 21  1  0  0  0  0
 16 15  1  0  0  0  0
 16 17  1  6  0  0  0
 18  2  1  1  0  0  0
 18 16  1  0  0  0  0
 19 18  1  0  0  0  0
 19 20  1  6  0  0  0
 21 19  1  0  0  0  0
 21 22  1  1  0  0  0
 23 20  1  1  0  0  0
 23 24  1  0  0  0  0
 23 28  1  0  0  0  0
 24 25  1  6  0  0  0
 24 26  1  0  0  0  0
 26 27  1  0  0  0  0
 26 32  1  6  0  0  0
 27 28  1  0  0  0  0
 27 29  1  1  0  0  0
 29 30  1  0  0  0  0
 31 32  1  6  0  0  0
 31 40  1  0  0  0  0
 33 31  1  0  0  0  0
 33 42  1  1  0  0  0
 35 33  1  0  0  0  0
 35 36  1  6  0  0  0
 37 35  1  0  0  0  0
 37 38  1  6  0  0  0
 37 39  1  0  0  0  0
 39 40  1  0  0  0  0
 39 41  1  1  0  0  0
 41 34  1  0  0  0  0
M  END
>  <CHROM.1>
-149.28240266,63.85256121,-59.52300129,140.57427047,-73.40754936,127.25933660
59.18735869,72.92404217,-178.05729769,11.78755300,5.69225760,6.44128727,-0.46142172
-0.07783943,2.47868488

>  <Name>
2et4_lig

>  <RI>
0

>  <Rbt.Current_Directory>
/home/itssahil/PROJECTS/Mol_Feturizer/New_Systems/rnas/2et4

>  <Rbt.Executable>
rbdock ($Id: //depot/dev/client3/rdock/2013.1/src/exe/rbdock.cxx#4 $)

>  <Rbt.Library>
libRbt.so (2013.1, Build901 2013/11/27)

>  <Rbt.Parameter_File>
/export/apps/rDock/src/rDock_2013.1_src/data/scripts/dock_solv.prm

>  <Rbt.Receptor>
prm/pocket_docking_5.prm

>  <SCORE>
-0.681397

>  <SCORE.INTER>
-2.49228

>  <SCORE.INTER.CONST>
1

>  <SCORE.INTER.POLAR>
0

>  <SCORE.INTER.ROT>
9

>  <SCORE.INTER.SOLV>
12.5305

>  <SCORE.INTER.VDW>
-15.4384

>  <SCORE.INTER.norm>
-0.0593399

>  <SCORE.INTRA>
1.80829

>  <SCORE.INTRA.DIHEDRAL>
-3.88403

>  <SCORE.INTRA.DIHEDRAL.0>
21.6909

>  <SCORE.INTRA.POLAR>
0

>  <SCORE.INTRA.POLAR.0>
0

>  <SCORE.INTRA.REPUL>
0.0850387

>  <SCORE.INTRA.REPUL.0>
0

>  <SCORE.INTRA.SOLV>
3.94092

>  <SCORE.INTRA.SOLV.lig_0>
-116.606

>  <SCORE.INTRA.VDW>
1.35465

>  <SCORE.INTRA.VDW.0>
-6.01229

>  <SCORE.INTRA.norm>
0.0430545

>  <SCORE.RESTR>
0.0025886

>  <SCORE.RESTR.CAVITY>
0.0025886

>  <SCORE.RESTR.norm>
6.16333e-05

>  <SCORE.SYSTEM>
0

>  <SCORE.SYSTEM.CONST>
0

>  <SCORE.SYSTEM.DIHEDRAL>
0

>  <SCORE.SYSTEM.SOLV>
0

>  <SCORE.SYSTEM.norm>
0

>  <SCORE.heavy>
42

>  <SCORE.norm>
-0.0162237

>  <RMSD>
5.892

$$$$
2et4_lig
 OpenBabel11021811423D
libRbt.so/2013.1/901 2013/11/27
 42 45  0  0  0  0  0  0  0  0999 V2000
   13.3672   10.6512    4.6594 C   0  0  2  0  0  0  0  0  0  0  0  0
   14.6530   10.0285    4.6250 O   0  0  0  0  0  0  0  0  0  0  0  0
   12.3271    9.5370    4.9413 C   0  0  2  0  0  0  0  0  0  0  0  0
   12.6197    8.8442    6.1702 N   0  0  0  0  0  0  0  0  0  0  0  0
   12.2918    8.5513    3.7378 C   0  0  1  0  0  0  0  0  0  0  0  0
   11.3447    7.5600    3.9867 O   0  0  0  0  0  0  0  0  0  0  0  0
   11.9675    9.3703    2.4440 C   0  0  2  0  0  0  0  0  0  0  0  0
   11.9326    8.5137    1.3222 O   0  0  0  0  0  0  0  0  0  0  0  0
   13.0336   10.4832    2.2096 C   0  0  2  0  0  0  0  0  0  0  0  0
   13.0668   11.3263    3.3649 O   0  0  0  0  0  0  0  0  0  0  0  0
   12.7184   11.3496    0.9464 C   0  0  0  0  0  0  0  0  0  0  0  0
   12.6615   10.5681   -0.2398 N   0  0  0  0  0  0  0  0  0  0  0  0
   17.1070   11.6920    1.4842 C   0  0  2  0  0  0  0  0  0  0  0  0
   18.2595   12.2961    0.8041 N   0  0  0  0  0  0  0  0  0  0  0  0
   16.5936   12.6810    2.6634 C   0  0  0  0  0  0  0  0  0  0  0  0
   15.3601   12.0182    3.4026 C   0  0  2  0  0  0  0  0  0  0  0  0
   14.8761   12.8730    4.5011 N   0  0  0  0  0  0  0  0  0  0  0  0
   15.7837   10.6224    3.9725 C   0  0  2  0  0  0  0  0  0  0  0  0
   16.3036    9.6894    2.8292 C   0  0  2  0  0  0  0  0  0  0  0  0
   16.6806    8.4399    3.4582 O   0  0  0  0  0  0  0  0  0  0  0  0
   17.5245   10.3538    2.1155 C   0  0  1  0  0  0  0  0  0  0  0  0
   17.9545    9.5121    1.0995 O   0  0  0  0  0  0  0  0  0  0  0  0
   16.7624    8.2261    4.7938 C   0  0  1  0  0  0  0  0  0  0  0  0
   16.0809    6.8890    5.1854 C   0  0  2  0  0  0  0  0  0  0  0  0
   14.6994    7.0089    5.3645 O   0  0  0  0  0  0  0  0  0  0  0  0
   16.9415    6.5132    6.3774 C   0  0  1  0  0  0  0  0  0  0  0  0
   18.3766    6.9410    6.0391 C   0  0  2  0  0  0  0  0  0  0  0  0
   18.1156    8.1444    5.3170 O   0  0  0  0  0  0  0  0  0  0  0  0
   19.2032    5.9179    5.1878 C   0  0  0  0  0  0  0  0  0  0  0  0
   18.5832    5.8425    3.8767 O   0  0  0  0  0  0  0  0  0  0  0  0
   16.2976    6.5409    8.7661 C   0  0  2  0  0  0  0  0  0  0  0  0
   16.4121    7.2432    7.5588 O   0  0  0  0  0  0  0  0  0  0  0  0
   17.7157    6.3473    9.4600 C   0  0  1  0  0  0  0  0  0  0  0  0
   14.3379    2.0735   10.4627 N   0  0  0  0  0  0  0  0  0  0  0  0
   17.4670    5.5118   10.8227 C   0  0  1  0  0  0  0  0  0  0  0  0
   16.5011    6.2973   11.6873 O   0  0  0  0  0  0  0  0  0  0  0  0
   16.8510    4.0545   10.4715 C   0  0  2  0  0  0  0  0  0  0  0  0
   17.7945    3.3212    9.6542 O   0  0  0  0  0  0  0  0  0  0  0  0
   15.4186    4.2944    9.7294 C   0  0  1  0  0  0  0  0  0  0  0  0
   15.6232    5.1601    8.5166 O   0  0  0  0  0  0  0  0  0  0  0  0
   14.7288    2.9478    9.3145 C   0  0  0  0  0  0  0  0  0  0  0  0
   18.6612    5.6660    8.5153 N   0  0  0  0  0  0  0  0  0  0  0  0
  1  2  1  6  0  0  0
  1  3  1  0  0  0  0
  1 10  1  0  0  0  0
  3  4  1  1  0  0  0
  3  5  1  0  0  0  0
  5  6  1  1  0  0  0
  5  7  1  0  0  0  0
  7  8  1  6  0  0  0
  7  9  1  0  0  0  0
  9 10  1  0  0  0  0
  9 11  1  6  0  0  0
 11 12  1  0  0  0  0
 13 14  1  1  0  0  0
 13 15  1  0  0  0  0
 13 21  1  0  0  0  0
 16 15  1  0  0  0  0
 16 17  1  1  0  0  0
 18  2  1  6  0  0  0
 18 16  1  0  0  0  0
 19 18  1  0  0  0  0
 19 20  1  1  0  0  0
 21 19  1  0  0  0  0
 21 22  1  6  0  0  0
 23 20  1  6  0  0  0
 23 24  1  0  0  0  0
 23 28  1  0  0  0  0
 24 25  1  1  0  0  0
 24 26  1  0  0  0  0
 26 27  1  0  0  0  0
 26 32  1  1  0  0  0
 27 28  1  0  0  0  0
 27 29  1  6  0  0  0
 29 30  1  0  0  0  0
 31 32  1  6  0  0  0
 31 40  1  0  0  0  0
 33 31  1  0  0  0  0
 33 42  1  6  0  0  0
 35 33  1  0  0  0  0
 35 36  1  1  0  0  0
 37 35  1  0  0  0  0
 37 38  1  6  0  0  0
 37 39  1  0  0  0  0
 39 40  1  0  0  0  0
 39 41  1  6  0  0  0
 41 34  1  0  0  0  0
M  END
>  <CHROM.1>
158.86307248,-59.29962633,2.22854982,-9.61005656,134.27244886,136.73411100
66.48126822,75.87637209,64.45013633,15.59621207,8.10967573,5.27491733,1.78559150
-0.01160778,-0.87079025

>  <Name>
2et4_lig

>  <RI>
0

>  <Rbt.Current_Directory>
/home/itssahil/PROJECTS/Mol_Feturizer/New_Systems/rnas/2et4

>  <Rbt.Executable>
rbdock ($Id: //depot/dev/client3/rdock/2013.1/src/exe/rbdock.cxx#4 $)

>  <Rbt.Library>
libRbt.so (2013.1, Build901 2013/11/27)

>  <Rbt.Parameter_File>
/export/apps/rDock/src/rDock_2013.1_src/data/scripts/dock_solv.prm

>  <Rbt.Receptor>
prm/blind_docking_80.prm

>  <SCORE>
20.6357

>  <SCORE.INTER>
-7.13651

>  <SCORE.INTER.CONST>
1

>  <SCORE.INTER.POLAR>
-0.0348355

>  <SCORE.INTER.ROT>
9

>  <SCORE.INTER.SOLV>
33.8713

>  <SCORE.INTER.VDW>
-25.532

>  <SCORE.INTER.norm>
-0.169917

>  <SCORE.INTRA>
15.2245

>  <SCORE.INTRA.DIHEDRAL>
7.8422

>  <SCORE.INTRA.DIHEDRAL.0>
21.6909

>  <SCORE.INTRA.POLAR>
0

>  <SCORE.INTRA.POLAR.0>
0

>  <SCORE.INTRA.REPUL>
0.0085771

>  <SCORE.INTRA.REPUL.0>
0

>  <SCORE.INTRA.SOLV>
4.20399

>  <SCORE.INTRA.SOLV.lig_0>
-116.606

>  <SCORE.INTRA.VDW>
9.15847

>  <SCORE.INTRA.VDW.0>
-6.01229

>  <SCORE.INTRA.norm>
0.362487

>  <SCORE.RESTR>
12.5478

>  <SCORE.RESTR.CAVITY>
12.5478

>  <SCORE.RESTR.norm>
0.298756

>  <SCORE.SYSTEM>
0

>  <SCORE.SYSTEM.CONST>
0

>  <SCORE.SYSTEM.DIHEDRAL>
0

>  <SCORE.SYSTEM.SOLV>
0

>  <SCORE.SYSTEM.norm>
0

>  <SCORE.heavy>
42

>  <SCORE.norm>
0.491327

>  <RMSD>
5.901

$$$$
2et4_lig
 OpenBabel11021811423D
libRbt.so/2013.1/901 2013/11/27
 42 45  0  0  0  0  0  0  0  0999 V2000
   15.6640    5.7364    4.8925 C   0  0  2  0  0  0  0  0  0  0  0  0
   14.4647    5.3994    5.5928 O   0  0  0  0  0  0  0  0  0  0  0  0
   15.7846    4.7586    3.6959 C   0  0  2  0  0  0  0  0  0  0  0  0
   14.6273    4.8296    2.8408 N   0  0  0  0  0  0  0  0  0  0  0  0
   15.9958    3.3135    4.2330 C   0  0  1  0  0  0  0  0  0  0  0  0
   16.1201    2.4391    3.1552 O   0  0  0  0  0  0  0  0  0  0  0  0
   17.2660    3.3123    5.1475 C   0  0  2  0  0  0  0  0  0  0  0  0
   17.4919    2.0179    5.6643 O   0  0  0  0  0  0  0  0  0  0  0  0
   17.1012    4.3169    6.3280 C   0  0  2  0  0  0  0  0  0  0  0  0
   16.8532    5.6162    5.7830 O   0  0  0  0  0  0  0  0  0  0  0  0
   18.3699    4.3727    7.2406 C   0  0  0  0  0  0  0  0  0  0  0  0
   18.1752    5.1999    8.3803 N   0  0  0  0  0  0  0  0  0  0  0  0
   13.9665    8.7522    8.2695 C   0  0  2  0  0  0  0  0  0  0  0  0
   13.3704    9.6427    9.2731 N   0  0  0  0  0  0  0  0  0  0  0  0
   12.9758    8.6368    6.9899 C   0  0  0  0  0  0  0  0  0  0  0  0
   13.6168    7.6641    5.9175 C   0  0  2  0  0  0  0  0  0  0  0  0
   12.7363    7.5094    4.7460 N   0  0  0  0  0  0  0  0  0  0  0  0
   13.8705    6.2637    6.5709 C   0  0  2  0  0  0  0  0  0  0  0  0
   14.8034    6.3937    7.8201 C   0  0  2  0  0  0  0  0  0  0  0  0
   14.9619    5.0567    8.3553 O   0  0  0  0  0  0  0  0  0  0  0  0
   14.1535    7.3498    8.8712 C   0  0  1  0  0  0  0  0  0  0  0  0
   15.0078    7.4567    9.9595 O   0  0  0  0  0  0  0  0  0  0  0  0
   14.0082    4.3570    9.0165 C   0  0  1  0  0  0  0  0  0  0  0  0
   13.3341    3.3176    8.0834 C   0  0  2  0  0  0  0  0  0  0  0  0
   12.2988    3.8593    7.3154 O   0  0  0  0  0  0  0  0  0  0  0  0
   13.0010    2.2472    9.1062 C   0  0  1  0  0  0  0  0  0  0  0  0
   14.1657    2.2131   10.1059 C   0  0  2  0  0  0  0  0  0  0  0  0
   14.4886    3.6025   10.1617 O   0  0  0  0  0  0  0  0  0  0  0  0
   15.3977    1.3450    9.6779 C   0  0  0  0  0  0  0  0  0  0  0  0
   16.4211    1.5119   10.6947 O   0  0  0  0  0  0  0  0  0  0  0  0
   11.1562    1.7380   10.6743 C   0  0  2  0  0  0  0  0  0  0  0  0
   11.7240    2.6355    9.7598 O   0  0  0  0  0  0  0  0  0  0  0  0
   10.5323    0.4754    9.9351 C   0  0  1  0  0  0  0  0  0  0  0  0
    8.9028    3.6310   14.1074 N   0  0  0  0  0  0  0  0  0  0  0  0
    9.8910   -0.4739   11.0770 C   0  0  1  0  0  0  0  0  0  0  0  0
   10.9925   -0.8554   12.0459 O   0  0  0  0  0  0  0  0  0  0  0  0
    8.7085    0.3177   11.8524 C   0  0  2  0  0  0  0  0  0  0  0  0
    7.6657    0.6623   10.9090 O   0  0  0  0  0  0  0  0  0  0  0  0
    9.3784    1.6230   12.5647 C   0  0  1  0  0  0  0  0  0  0  0  0
   10.0698    2.4602   11.5240 O   0  0  0  0  0  0  0  0  0  0  0  0
    8.3218    2.4912   13.3335 C   0  0  0  0  0  0  0  0  0  0  0  0
    9.5320    0.9225    8.9102 N   0  0  0  0  0  0  0  0  0  0  0  0
  1  2  1  1  0  0  0
  1  3  1  0  0  0  0
  1 10  1  0  0  0  0
  3  4  1  1  0  0  0
  3  5  1  0  0  0  0
  5  6  1  6  0  0  0
  5  7  1  0  0  0  0
  7  8  1  1  0  0  0
  7  9  1  0  0  0  0
  9 10  1  0  0  0  0
  9 11  1  6  0  0  0
 11 12  1  0  0  0  0
 13 14  1  1  0  0  0
 13 15  1  0  0  0  0
 13 21  1  0  0  0  0
 16 15  1  0  0  0  0
 16 17  1  6  0  0  0
 18  2  1  6  0  0  0
 18 16  1  0  0  0  0
 19 18  1  0  0  0  0
 19 20  1  1  0  0  0
 21 19  1  0  0  0  0
 21 22  1  1  0  0  0
 23 20  1  6  0  0  0
 23 24  1  0  0  0  0
 23 28  1  0  0  0  0
 24 25  1  1  0  0  0
 24 26  1  0  0  0  0
 26 27  1  0  0  0  0
 26 32  1  1  0  0  0
 27 28  1  0  0  0  0
 27 29  1  6  0  0  0
 29 30  1  0  0  0  0
 31 32  1  6  0  0  0
 31 40  1  0  0  0  0
 33 31  1  0  0  0  0
 33 42  1  6  0  0  0
 35 33  1  0  0  0  0
 35 36  1  1  0  0  0
 37 35  1  0  0  0  0
 37 38  1  6  0  0  0
 37 39  1  0  0  0  0
 39 40  1  0  0  0  0
 39 41  1  6  0  0  0
 41 34  1  0  0  0  0
M  END
>  <CHROM.1>
-165.79303798,-174.87170358,55.37388167,-72.31553776,100.67629338,175.01661529
176.06151814,-72.68399001,174.72300402,13.51907815,3.87867315,8.36272390
0.52116756,0.74110340,-0.09552035

>  <Name>
2et4_lig

>  <RI>
1.79929e+07

>  <Rbt.Current_Directory>
/home/itssahil/PROJECTS/Mol_Feturizer/New_Systems/rnas/2et4

>  <Rbt.Executable>
rbdock ($Id: //depot/dev/client3/rdock/2013.1/src/exe/rbdock.cxx#4 $)

>  <Rbt.Library>
libRbt.so (2013.1, Build901 2013/11/27)

>  <Rbt.Parameter_File>
/export/apps/rDock/src/rDock_2013.1_src/data/scripts/dock_solv.prm

>  <Rbt.Receptor>
prm/pocket_docking_7.prm

>  <SCORE>
-10.5822

>  <SCORE.INTER>
-3.79357

>  <SCORE.INTER.CONST>
1

>  <SCORE.INTER.POLAR>
-0.893679

>  <SCORE.INTER.ROT>
9

>  <SCORE.INTER.SOLV>
11.5631

>  <SCORE.INTER.VDW>
-13.0045

>  <SCORE.INTER.norm>
-0.0903232

>  <SCORE.INTRA>
-6.78863

>  <SCORE.INTRA.DIHEDRAL>
-13.0849

>  <SCORE.INTRA.DIHEDRAL.0>
21.6909

>  <SCORE.INTRA.POLAR>
0

>  <SCORE.INTRA.POLAR.0>
0

>  <SCORE.INTRA.REPUL>
0

>  <SCORE.INTRA.REPUL.0>
0

>  <SCORE.INTRA.SOLV>
-1.74567

>  <SCORE.INTRA.SOLV.lig_0>
-116.606

>  <SCORE.INTRA.VDW>
0.626658

>  <SCORE.INTRA.VDW.0>
-6.01229

>  <SCORE.INTRA.norm>
-0.161634

>  <SCORE.RESTR>
0

>  <SCORE.RESTR.CAVITY>
0

>  <SCORE.RESTR.norm>
0

>  <SCORE.SYSTEM>
0

>  <SCORE.SYSTEM.CONST>
0

>  <SCORE.SYSTEM.DIHEDRAL>
0

>  <SCORE.SYSTEM.SOLV>
0

>  <SCORE.SYSTEM.norm>
0

>  <SCORE.heavy>
42

>  <SCORE.norm>
-0.251957

>  <RMSD>
5.928

$$$$
2et4_lig
 OpenBabel11021811423D
libRbt.so/2013.1/901 2013/11/27
 42 45  0  0  0  0  0  0  0  0999 V2000
   16.1328    6.8700    5.5644 C   0  0  2  0  0  0  0  0  0  0  0  0
   16.0098    5.6216    4.8800 O   0  0  0  0  0  0  0  0  0  0  0  0
   17.6252    7.2832    5.4969 C   0  0  2  0  0  0  0  0  0  0  0  0
   18.0846    7.3719    4.1342 N   0  0  0  0  0  0  0  0  0  0  0  0
   18.4768    6.2654    6.3094 C   0  0  1  0  0  0  0  0  0  0  0  0
   19.8158    6.6482    6.2606 O   0  0  0  0  0  0  0  0  0  0  0  0
   17.9246    6.2241    7.7734 C   0  0  2  0  0  0  0  0  0  0  0  0
   18.6661    5.3048    8.5471 O   0  0  0  0  0  0  0  0  0  0  0  0
   16.4205    5.8149    7.7881 C   0  0  2  0  0  0  0  0  0  0  0  0
   15.6920    6.7463    6.9828 O   0  0  0  0  0  0  0  0  0  0  0  0
   15.8233    5.8035    9.2333 C   0  0  0  0  0  0  0  0  0  0  0  0
   16.4091    4.7965   10.0481 N   0  0  0  0  0  0  0  0  0  0  0  0
   12.7486    3.6880    2.8111 C   0  0  2  0  0  0  0  0  0  0  0  0
   11.4561    3.0324    2.5760 N   0  0  0  0  0  0  0  0  0  0  0  0
   13.6176    2.8117    3.8643 C   0  0  0  0  0  0  0  0  0  0  0  0
   15.0041    3.5307    4.1251 C   0  0  2  0  0  0  0  0  0  0  0  0
   15.8176    2.7804    5.0982 N   0  0  0  0  0  0  0  0  0  0  0  0
   14.7463    4.9785    4.6634 C   0  0  2  0  0  0  0  0  0  0  0  0
   13.8832    5.8025    3.6515 C   0  0  2  0  0  0  0  0  0  0  0  0
   13.6908    7.1100    4.2453 O   0  0  0  0  0  0  0  0  0  0  0  0
   12.5165    5.0843    3.4112 C   0  0  1  0  0  0  0  0  0  0  0  0
   11.7798    5.8290    2.5010 O   0  0  0  0  0  0  0  0  0  0  0  0
   13.0443    7.3561    5.4106 C   0  0  1  0  0  0  0  0  0  0  0  0
   12.6490    8.8517    5.5218 C   0  0  2  0  0  0  0  0  0  0  0  0
   13.6817    9.6575    6.0109 O   0  0  0  0  0  0  0  0  0  0  0  0
   11.3811    8.7114    6.3437 C   0  0  1  0  0  0  0  0  0  0  0  0
   10.6774    7.4368    5.8569 C   0  0  2  0  0  0  0  0  0  0  0  0
   11.8108    6.6099    5.5936 O   0  0  0  0  0  0  0  0  0  0  0  0
    9.7728    7.6071    4.5891 C   0  0  0  0  0  0  0  0  0  0  0  0
    9.2219    6.3018    4.2699 O   0  0  0  0  0  0  0  0  0  0  0  0
   10.7737    8.4107    8.7232 C   0  0  2  0  0  0  0  0  0  0  0  0
   11.7826    8.6094    7.7709 O   0  0  0  0  0  0  0  0  0  0  0  0
    9.7817    9.6525    8.7832 C   0  0  1  0  0  0  0  0  0  0  0  0
   12.2084    6.5347   12.5265 N   0  0  0  0  0  0  0  0  0  0  0  0
    8.6804    9.3254    9.9221 C   0  0  1  0  0  0  0  0  0  0  0  0
    7.9759    8.0387    9.5404 O   0  0  0  0  0  0  0  0  0  0  0  0
    9.4069    9.1638   11.3617 C   0  0  2  0  0  0  0  0  0  0  0  0
   10.0636   10.4068   11.7077 O   0  0  0  0  0  0  0  0  0  0  0  0
   10.4412    7.9077   11.2498 C   0  0  1  0  0  0  0  0  0  0  0  0
   11.4059    8.1539   10.1226 O   0  0  0  0  0  0  0  0  0  0  0  0
   11.2295    7.6634   12.5840 C   0  0  0  0  0  0  0  0  0  0  0  0
   10.5509   10.9122    9.0520 N   0  0  0  0  0  0  0  0  0  0  0  0
  1  2  1  6  0  0  0
  1  3  1  0  0  0  0
  1 10  1  0  0  0  0
  3  4  1  6  0  0  0
  3  5  1  0  0  0  0
  5  6  1  1  0  0  0
  5  7  1  0  0  0  0
  7  8  1  1  0  0  0
  7  9  1  0  0  0  0
  9 10  1  0  0  0  0
  9 11  1  1  0  0  0
 11 12  1  0  0  0  0
 13 14  1  1  0  0  0
 13 15  1  0  0  0  0
 13 21  1  0  0  0  0
 16 15  1  0  0  0  0
 16 17  1  1  0  0  0
 18  2  1  6  0  0  0
 18 16  1  0  0  0  0
 19 18  1  0  0  0  0
 19 20  1  1  0  0  0
 21 19  1  0  0  0  0
 21 22  1  6  0  0  0
 23 20  1  6  0  0  0
 23 24  1  0  0  0  0
 23 28  1  0  0  0  0
 24 25  1  1  0  0  0
 24 26  1  0  0  0  0
 26 27  1  0  0  0  0
 26 32  1  1  0  0  0
 27 28  1  0  0  0  0
 27 29  1  6  0  0  0
 29 30  1  0  0  0  0
 31 32  1  6  0  0  0
 31 40  1  0  0  0  0
 33 31  1  0  0  0  0
 33 42  1  1  0  0  0
 35 33  1  0  0  0  0
 35 36  1  6  0  0  0
 37 35  1  0  0  0  0
 37 38  1  6  0  0  0
 37 39  1  0  0  0  0
 39 40  1  0  0  0  0
 39 41  1  1  0  0  0
 41 34  1  0  0  0  0
M  END
>  <CHROM.1>
-175.64377043,-65.93923526,-169.85622946,-62.43118023,-162.55378976,-177.18772708
178.85332037,-64.36574758,-179.06008478,13.30278718,6.84296236,6.83828265
-0.74824918,-0.22414828,1.18101053

>  <Name>
2et4_lig

>  <RI>
1.79929e+07

>  <Rbt.Current_Directory>
/home/itssahil/PROJECTS/Mol_Feturizer/New_Systems/rnas/2et4

>  <Rbt.Executable>
rbdock ($Id: //depot/dev/client3/rdock/2013.1/src/exe/rbdock.cxx#4 $)

>  <Rbt.Library>
libRbt.so (2013.1, Build901 2013/11/27)

>  <Rbt.Parameter_File>
/export/apps/rDock/src/rDock_2013.1_src/data/scripts/dock_solv.prm

>  <Rbt.Receptor>
prm/pocket_docking_7.prm

>  <SCORE>
-13.1042

>  <SCORE.INTER>
-3.6687

>  <SCORE.INTER.CONST>
1

>  <SCORE.INTER.POLAR>
-0.89321

>  <SCORE.INTER.ROT>
9

>  <SCORE.INTER.SOLV>
13.4123

>  <SCORE.INTER.VDW>
-13.5392

>  <SCORE.INTER.norm>
-0.08735

>  <SCORE.INTRA>
-9.43548

>  <SCORE.INTRA.DIHEDRAL>
-19.2288

>  <SCORE.INTRA.DIHEDRAL.0>
21.6909

>  <SCORE.INTRA.POLAR>
0

>  <SCORE.INTRA.POLAR.0>
0

>  <SCORE.INTRA.REPUL>
0

>  <SCORE.INTRA.REPUL.0>
0

>  <SCORE.INTRA.SOLV>
-2.99705

>  <SCORE.INTRA.SOLV.lig_0>
-116.606

>  <SCORE.INTRA.VDW>
1.67744

>  <SCORE.INTRA.VDW.0>
-6.01229

>  <SCORE.INTRA.norm>
-0.224654

>  <SCORE.RESTR>
0

>  <SCORE.RESTR.CAVITY>
0

>  <SCORE.RESTR.norm>
0

>  <SCORE.SYSTEM>
0

>  <SCORE.SYSTEM.CONST>
0

>  <SCORE.SYSTEM.DIHEDRAL>
0

>  <SCORE.SYSTEM.SOLV>
0

>  <SCORE.SYSTEM.norm>
0

>  <SCORE.heavy>
42

>  <SCORE.norm>
-0.312004

>  <RMSD>
5.928

$$$$
2et4_lig
 OpenBabel11021811423D
libRbt.so/2013.1/901 2013/11/27
 42 45  0  0  0  0  0  0  0  0999 V2000
   10.3163    6.2836    7.0671 C   0  0  2  0  0  0  0  0  0  0  0  0
   11.4337    6.1756    7.9514 O   0  0  0  0  0  0  0  0  0  0  0  0
   10.0687    7.7946    6.8260 C   0  0  2  0  0  0  0  0  0  0  0  0
   11.2400    8.4399    6.2902 N   0  0  0  0  0  0  0  0  0  0  0  0
    9.6232    8.4609    8.1597 C   0  0  1  0  0  0  0  0  0  0  0  0
    9.3856    9.8157    7.9366 O   0  0  0  0  0  0  0  0  0  0  0  0
    8.3501    7.7130    8.6790 C   0  0  2  0  0  0  0  0  0  0  0  0
    7.9141    8.2820    9.8954 O   0  0  0  0  0  0  0  0  0  0  0  0
    8.6460    6.1979    8.8957 C   0  0  2  0  0  0  0  0  0  0  0  0
    9.1051    5.6468    7.6579 O   0  0  0  0  0  0  0  0  0  0  0  0
    7.3834    5.4099    9.3755 C   0  0  0  0  0  0  0  0  0  0  0  0
    7.0963    5.6410   10.7486 N   0  0  0  0  0  0  0  0  0  0  0  0
   15.6698    5.4300    7.5584 C   0  0  2  0  0  0  0  0  0  0  0  0
   17.0622    5.5690    7.1139 N   0  0  0  0  0  0  0  0  0  0  0  0
   14.7171    5.1442    6.2766 C   0  0  0  0  0  0  0  0  0  0  0  0
   13.2153    5.0096    6.7600 C   0  0  2  0  0  0  0  0  0  0  0  0
   12.3092    4.7743    5.6219 N   0  0  0  0  0  0  0  0  0  0  0  0
   12.7897    6.3187    7.5067 C   0  0  2  0  0  0  0  0  0  0  0  0
   13.7341    6.5974    8.7226 C   0  0  2  0  0  0  0  0  0  0  0  0
   13.2683    7.8271    9.3310 O   0  0  0  0  0  0  0  0  0  0  0  0
   15.2099    6.7353    8.2281 C   0  0  1  0  0  0  0  0  0  0  0  0
   16.0246    6.9676    9.3271 O   0  0  0  0  0  0  0  0  0  0  0  0
   13.2759    8.0986   10.6585 C   0  0  1  0  0  0  0  0  0  0  0  0
   12.3811    7.0982   11.4357 C   0  0  2  0  0  0  0  0  0  0  0  0
   11.0310    7.4618   11.4448 O   0  0  0  0  0  0  0  0  0  0  0  0
   13.1362    7.0623   12.7515 C   0  0  1  0  0  0  0  0  0  0  0  0
   14.6301    7.1397   12.4063 C   0  0  2  0  0  0  0  0  0  0  0  0
   14.5833    8.0266   11.2888 O   0  0  0  0  0  0  0  0  0  0  0  0
   15.3101    5.7764   12.0405 C   0  0  0  0  0  0  0  0  0  0  0  0
   15.1164    4.8786   13.1654 O   0  0  0  0  0  0  0  0  0  0  0  0
   11.3675    8.2543   14.0053 C   0  0  2  0  0  0  0  0  0  0  0  0
   12.6937    8.2331   13.5528 O   0  0  0  0  0  0  0  0  0  0  0  0
   11.0640    9.5690   14.8476 C   0  0  1  0  0  0  0  0  0  0  0  0
    9.8395    4.2891   15.4573 N   0  0  0  0  0  0  0  0  0  0  0  0
    9.5240    9.4762   15.3336 C   0  0  1  0  0  0  0  0  0  0  0  0
    8.6475    9.3616   14.1023 O   0  0  0  0  0  0  0  0  0  0  0  0
    9.3241    8.1826   16.2892 C   0  0  2  0  0  0  0  0  0  0  0  0
   10.1634    8.3200   17.4610 O   0  0  0  0  0  0  0  0  0  0  0  0
    9.6798    6.8601   15.4037 C   0  0  1  0  0  0  0  0  0  0  0  0
   11.0758    6.9848   14.8581 O   0  0  0  0  0  0  0  0  0  0  0  0
    9.5461    5.5342   16.2315 C   0  0  0  0  0  0  0  0  0  0  0  0
   12.0350    9.6858   15.9853 N   0  0  0  0  0  0  0  0  0  0  0  0
  1  2  1  1  0  0  0
  1  3  1  0  0  0  0
  1 10  1  0  0  0  0
  3  4  1  1  0  0  0
  3  5  1  0  0  0  0
  5  6  1  6  0  0  0
  5  7  1  0  0  0  0
  7  8  1  1  0  0  0
  7  9  1  0  0  0  0
  9 10  1  0  0  0  0
  9 11  1  6  0  0  0
 11 12  1  0  0  0  0
 13 14  1  6  0  0  0
 13 15  1  0  0  0  0
 13 21  1  0  0  0  0
 16 15  1  0  0  0  0
 16 17  1  6  0  0  0
 18  2  1  1  0  0  0
 18 16  1  0  0  0  0
 19 18  1  0  0  0  0
 19 20  1  6  0  0  0
 21 19  1  0  0  0  0
 21 22  1  1  0  0  0
 23 20  1  6  0  0  0
 23 24  1  0  0  0  0
 23 28  1  0  0  0  0
 24 25  1  1  0  0  0
 24 26  1  0  0  0  0
 26 27  1  0  0  0  0
 26 32  1  1  0  0  0
 27 28  1  0  0  0  0
 27 29  1  6  0  0  0
 29 30  1  0  0  0  0
 31 32  1  1  0  0  0
 31 40  1  0  0  0  0
 33 31  1  0  0  0  0
 33 42  1  1  0  0  0
 35 33  1  0  0  0  0
 35 36  1  6  0  0  0
 37 35  1  0  0  0  0
 37 38  1  1  0  0  0
 37 39  1  0  0  0  0
 39 40  1  0  0  0  0
 39 41  1  1  0  0  0
 41 34  1  0  0  0  0
M  END
>  <CHROM.1>
-78.99499002,-76.14280270,-75.99349887,144.48957038,-61.81225761,66.80533171
-57.38641255,179.78109889,179.01466599,11.63819819,7.07383058,10.85611590
1.24307198,0.14489757,-1.70981995

>  <Name>
2et4_lig

>  <RI>
1.79929e+07

>  <Rbt.Current_Directory>
/home/itssahil/PROJECTS/Mol_Feturizer/New_Systems/rnas/2et4

>  <Rbt.Executable>
rbdock ($Id: //depot/dev/client3/rdock/2013.1/src/exe/rbdock.cxx#4 $)

>  <Rbt.Library>
libRbt.so (2013.1, Build901 2013/11/27)

>  <Rbt.Parameter_File>
/export/apps/rDock/src/rDock_2013.1_src/data/scripts/dock_solv.prm

>  <Rbt.Receptor>
prm/pocket_docking_7.prm

>  <SCORE>
-11.1598

>  <SCORE.INTER>
-6.17463

>  <SCORE.INTER.CONST>
1

>  <SCORE.INTER.POLAR>
-1.12006

>  <SCORE.INTER.ROT>
9

>  <SCORE.INTER.SOLV>
11.8112

>  <SCORE.INTER.VDW>
-13.92

>  <SCORE.INTER.norm>
-0.147015

>  <SCORE.INTRA>
-4.98515

>  <SCORE.INTRA.DIHEDRAL>
-12.9145

>  <SCORE.INTRA.DIHEDRAL.0>
21.6909

>  <SCORE.INTRA.POLAR>
0

>  <SCORE.INTRA.POLAR.0>
0

>  <SCORE.INTRA.REPUL>
0

>  <SCORE.INTRA.REPUL.0>
0

>  <SCORE.INTRA.SOLV>
0.156349

>  <SCORE.INTRA.SOLV.lig_0>
-116.606

>  <SCORE.INTRA.VDW>
1.39394

>  <SCORE.INTRA.VDW.0>
-6.01229

>  <SCORE.INTRA.norm>
-0.118694

>  <SCORE.RESTR>
0

>  <SCORE.RESTR.CAVITY>
0

>  <SCORE.RESTR.norm>
0

>  <SCORE.SYSTEM>
0

>  <SCORE.SYSTEM.CONST>
0

>  <SCORE.SYSTEM.DIHEDRAL>
0

>  <SCORE.SYSTEM.SOLV>
0

>  <SCORE.SYSTEM.norm>
0

>  <SCORE.heavy>
42

>  <SCORE.norm>
-0.265709

>  <RMSD>
5.929

$$$$
2et4_lig
 OpenBabel11021811423D
libRbt.so/2013.1/901 2013/11/27
 42 45  0  0  0  0  0  0  0  0999 V2000
   12.8859   10.3008    4.6872 C   0  0  2  0  0  0  0  0  0  0  0  0
   14.2155    9.8437    4.9428 O   0  0  0  0  0  0  0  0  0  0  0  0
   11.9484    9.0728    4.8128 C   0  0  2  0  0  0  0  0  0  0  0  0
   12.0624    8.4554    6.1095 N   0  0  0  0  0  0  0  0  0  0  0  0
   12.2763    8.0587    3.6791 C   0  0  1  0  0  0  0  0  0  0  0  0
   11.4214    6.9633    3.7846 O   0  0  0  0  0  0  0  0  0  0  0  0
   12.1298    8.7955    2.3060 C   0  0  2  0  0  0  0  0  0  0  0  0
   12.4262    7.9115    1.2457 O   0  0  0  0  0  0  0  0  0  0  0  0
   13.0830   10.0267    2.2322 C   0  0  2  0  0  0  0  0  0  0  0  0
   12.7797   10.8979    3.3257 O   0  0  0  0  0  0  0  0  0  0  0  0
   12.9336   10.8125    0.8884 C   0  0  0  0  0  0  0  0  0  0  0  0
   13.6951   12.0130    0.8812 N   0  0  0  0  0  0  0  0  0  0  0  0
   16.7592   11.5841    1.9170 C   0  0  2  0  0  0  0  0  0  0  0  0
   17.9357   12.1917    1.2827 N   0  0  0  0  0  0  0  0  0  0  0  0
   16.2442   12.5341    3.1272 C   0  0  0  0  0  0  0  0  0  0  0  0
   14.9844   11.8671    3.8166 C   0  0  2  0  0  0  0  0  0  0  0  0
   14.4976   12.6857    4.9411 N   0  0  0  0  0  0  0  0  0  0  0  0
   15.3696   10.4405    4.3353 C   0  0  2  0  0  0  0  0  0  0  0  0
   15.8915    9.5449    3.1634 C   0  0  2  0  0  0  0  0  0  0  0  0
   16.2320    8.2630    3.7464 O   0  0  0  0  0  0  0  0  0  0  0  0
   17.1383   10.2127    2.4994 C   0  0  1  0  0  0  0  0  0  0  0  0
   17.5699    9.4048    1.4569 O   0  0  0  0  0  0  0  0  0  0  0  0
   16.5962    8.0581    5.0355 C   0  0  1  0  0  0  0  0  0  0  0  0
   16.1876    6.6391    5.5097 C   0  0  2  0  0  0  0  0  0  0  0  0
   14.8627    6.5680    5.9508 O   0  0  0  0  0  0  0  0  0  0  0  0
   17.3032    6.3809    6.5055 C   0  0  1  0  0  0  0  0  0  0  0  0
   18.5764    7.0022    5.9141 C   0  0  2  0  0  0  0  0  0  0  0  0
   18.0232    8.1609    5.2902 O   0  0  0  0  0  0  0  0  0  0  0  0
   19.3537    6.1047    4.8920 C   0  0  0  0  0  0  0  0  0  0  0  0
   20.1621    5.1732    5.6586 O   0  0  0  0  0  0  0  0  0  0  0  0
   16.6145    6.1981    8.8748 C   0  0  2  0  0  0  0  0  0  0  0  0
   16.9173    7.0278    7.7867 O   0  0  0  0  0  0  0  0  0  0  0  0
   17.8791    5.9956    9.8180 C   0  0  1  0  0  0  0  0  0  0  0  0
   14.6739    1.4854    9.7170 N   0  0  0  0  0  0  0  0  0  0  0  0
   17.4232    5.0114   11.0180 C   0  0  1  0  0  0  0  0  0  0  0  0
   16.2586    5.6581   11.7411 O   0  0  0  0  0  0  0  0  0  0  0  0
   16.9826    3.5733   10.4147 C   0  0  2  0  0  0  0  0  0  0  0  0
   18.1129    2.9724    9.7381 O   0  0  0  0  0  0  0  0  0  0  0  0
   15.7105    3.8261    9.4260 C   0  0  1  0  0  0  0  0  0  0  0  0
   16.0920    4.8226    8.3661 O   0  0  0  0  0  0  0  0  0  0  0  0
   15.2030    2.5013    8.7560 C   0  0  0  0  0  0  0  0  0  0  0  0
   19.0328    5.4599    9.0226 N   0  0  0  0  0  0  0  0  0  0  0  0
  1  2  1  6  0  0  0
  1  3  1  0  0  0  0
  1 10  1  0  0  0  0
  3  4  1  1  0  0  0
  3  5  1  0  0  0  0
  5  6  1  6  0  0  0
  5  7  1  0  0  0  0
  7  8  1  6  0  0  0
  7  9  1  0  0  0  0
  9 10  1  0  0  0  0
  9 11  1  6  0  0  0
 11 12  1  0  0  0  0
 13 14  1  1  0  0  0
 13 15  1  0  0  0  0
 13 21  1  0  0  0  0
 16 15  1  0  0  0  0
 16 17  1  1  0  0  0
 18  2  1  6  0  0  0
 18 16  1  0  0  0  0
 19 18  1  0  0  0  0
 19 20  1  1  0  0  0
 21 19  1  0  0  0  0
 21 22  1  6  0  0  0
 23 20  1  6  0  0  0
 23 24  1  0  0  0  0
 23 28  1  0  0  0  0
 24 25  1  1  0  0  0
 24 26  1  0  0  0  0
 26 27  1  0  0  0  0
 26 32  1  1  0  0  0
 27 28  1  0  0  0  0
 27 29  1  6  0  0  0
 29 30  1  0  0  0  0
 31 32  1  6  0  0  0
 31 40  1  0  0  0  0
 33 31  1  0  0  0  0
 33 42  1  6  0  0  0
 35 33  1  0  0  0  0
 35 36  1  6  0  0  0
 37 35  1  0  0  0  0
 37 38  1  6  0  0  0
 37 39  1  0  0  0  0
 39 40  1  0  0  0  0
 39 41  1  6  0  0  0
 41 34  1  0  0  0  0
M  END
>  <CHROM.1>
149.27727752,173.64859349,19.15822017,-26.27930695,150.62476222,111.62934240
-81.29717725,95.51040159,63.45422943,15.63803436,7.83506684,5.44650065,1.85234785
-0.07324238,-0.80418487

>  <Name>
2et4_lig

>  <RI>
0

>  <Rbt.Current_Directory>
/home/itssahil/PROJECTS/Mol_Feturizer/New_Systems/rnas/2et4

>  <Rbt.Executable>
rbdock ($Id: //depot/dev/client3/rdock/2013.1/src/exe/rbdock.cxx#4 $)

>  <Rbt.Library>
libRbt.so (2013.1, Build901 2013/11/27)

>  <Rbt.Parameter_File>
/export/apps/rDock/src/rDock_2013.1_src/data/scripts/dock_solv.prm

>  <Rbt.Receptor>
prm/blind_docking_80.prm

>  <SCORE>
17.7889

>  <SCORE.INTER>
-7.29708

>  <SCORE.INTER.CONST>
1

>  <SCORE.INTER.POLAR>
-0.0927196

>  <SCORE.INTER.ROT>
9

>  <SCORE.INTER.SOLV>
33.08

>  <SCORE.INTER.VDW>
-25.1823

>  <SCORE.INTER.norm>
-0.17374

>  <SCORE.INTRA>
11.8702

>  <SCORE.INTRA.DIHEDRAL>
8.5545

>  <SCORE.INTRA.DIHEDRAL.0>
21.6909

>  <SCORE.INTRA.POLAR>
0

>  <SCORE.INTRA.POLAR.0>
0

>  <SCORE.INTRA.REPUL>
0

>  <SCORE.INTRA.REPUL.0>
0

>  <SCORE.INTRA.SOLV>
4.09483

>  <SCORE.INTRA.SOLV.lig_0>
-116.606

>  <SCORE.INTRA.VDW>
5.54557

>  <SCORE.INTRA.VDW.0>
-6.01229

>  <SCORE.INTRA.norm>
0.282625

>  <SCORE.RESTR>
13.2157

>  <SCORE.RESTR.CAVITY>
13.2157

>  <SCORE.RESTR.norm>
0.31466

>  <SCORE.SYSTEM>
0

>  <SCORE.SYSTEM.CONST>
0

>  <SCORE.SYSTEM.DIHEDRAL>
0

>  <SCORE.SYSTEM.SOLV>
0

>  <SCORE.SYSTEM.norm>
0

>  <SCORE.heavy>
42

>  <SCORE.norm>
0.423544

>  <RMSD>
5.934

$$$$
2et4_lig
 OpenBabel11021811423D
libRbt.so/2013.1/901 2013/11/27
 42 45  0  0  0  0  0  0  0  0999 V2000
   12.8693   10.1475    4.8801 C   0  0  2  0  0  0  0  0  0  0  0  0
   14.2207    9.7204    5.0627 O   0  0  0  0  0  0  0  0  0  0  0  0
   11.9846    8.8747    4.8733 C   0  0  2  0  0  0  0  0  0  0  0  0
   12.1471    8.1156    6.0870 N   0  0  0  0  0  0  0  0  0  0  0  0
   12.3327    8.0144    3.6243 C   0  0  1  0  0  0  0  0  0  0  0  0
   11.5248    6.8791    3.6120 O   0  0  0  0  0  0  0  0  0  0  0  0
   12.1316    8.8995    2.3491 C   0  0  2  0  0  0  0  0  0  0  0  0
   12.4443    8.1585    1.1886 O   0  0  0  0  0  0  0  0  0  0  0  0
   13.0328   10.1701    2.4075 C   0  0  2  0  0  0  0  0  0  0  0  0
   12.7143   10.8942    3.5995 O   0  0  0  0  0  0  0  0  0  0  0  0
   12.8273   11.1002    1.1673 C   0  0  0  0  0  0  0  0  0  0  0  0
   12.7396   10.3649   -0.0463 N   0  0  0  0  0  0  0  0  0  0  0  0
   16.6086   11.7526    2.0924 C   0  0  2  0  0  0  0  0  0  0  0  0
   17.7435   12.4438    1.4680 N   0  0  0  0  0  0  0  0  0  0  0  0
   16.0993   12.5991    3.3793 C   0  0  0  0  0  0  0  0  0  0  0  0
   14.8849   11.8418    4.0569 C   0  0  2  0  0  0  0  0  0  0  0  0
   14.4057   12.5643    5.2485 N   0  0  0  0  0  0  0  0  0  0  0  0
   15.3344   10.3982    4.4650 C   0  0  2  0  0  0  0  0  0  0  0  0
   15.8500    9.6035    3.2198 C   0  0  2  0  0  0  0  0  0  0  0  0
   16.2518    8.2982    3.7032 O   0  0  0  0  0  0  0  0  0  0  0  0
   17.0521   10.3594    2.5679 C   0  0  1  0  0  0  0  0  0  0  0  0
   17.4784    9.6401    1.4604 O   0  0  0  0  0  0  0  0  0  0  0  0
   16.5965    8.0055    4.9806 C   0  0  1  0  0  0  0  0  0  0  0  0
   16.2381    6.5376    5.3306 C   0  0  2  0  0  0  0  0  0  0  0  0
   14.9082    6.3779    5.7316 O   0  0  0  0  0  0  0  0  0  0  0  0
   17.3419    6.2457    6.3302 C   0  0  1  0  0  0  0  0  0  0  0  0
   18.6001    6.9634    5.8217 C   0  0  2  0  0  0  0  0  0  0  0  0
   18.0120    8.1451    5.2781 O   0  0  0  0  0  0  0  0  0  0  0  0
   19.4366    6.1830    4.7513 C   0  0  0  0  0  0  0  0  0  0  0  0
   20.6359    6.9583    4.4871 O   0  0  0  0  0  0  0  0  0  0  0  0
   16.1561    5.9221    8.4774 C   0  0  2  0  0  0  0  0  0  0  0  0
   16.9015    6.7716    7.6486 O   0  0  0  0  0  0  0  0  0  0  0  0
   15.8391    6.6098    9.8761 C   0  0  1  0  0  0  0  0  0  0  0  0
   18.5681    2.5442    9.9529 N   0  0  0  0  0  0  0  0  0  0  0  0
   15.0010    5.5389   10.7522 C   0  0  1  0  0  0  0  0  0  0  0  0
   13.7441    5.1823    9.9837 O   0  0  0  0  0  0  0  0  0  0  0  0
   15.8983    4.2142   11.0099 C   0  0  2  0  0  0  0  0  0  0  0  0
   17.0864    4.5788   11.7525 O   0  0  0  0  0  0  0  0  0  0  0  0
   16.2339    3.5596    9.5543 C   0  0  1  0  0  0  0  0  0  0  0  0
   16.9208    4.5832    8.6926 O   0  0  0  0  0  0  0  0  0  0  0  0
   17.1251    2.2736    9.6698 C   0  0  0  0  0  0  0  0  0  0  0  0
   17.1147    7.0421   10.5370 N   0  0  0  0  0  0  0  0  0  0  0  0
  1  2  1  6  0  0  0
  1  3  1  0  0  0  0
  1 10  1  0  0  0  0
  3  4  1  1  0  0  0
  3  5  1  0  0  0  0
  5  6  1  6  0  0  0
  5  7  1  0  0  0  0
  7  8  1  6  0  0  0
  7  9  1  0  0  0  0
  9 10  1  0  0  0  0
  9 11  1  6  0  0  0
 11 12  1  0  0  0  0
 13 14  1  1  0  0  0
 13 15  1  0  0  0  0
 13 21  1  0  0  0  0
 16 15  1  0  0  0  0
 16 17  1  1  0  0  0
 18  2  1  6  0  0  0
 18 16  1  0  0  0  0
 19 18  1  0  0  0  0
 19 20  1  1  0  0  0
 21 19  1  0  0  0  0
 21 22  1  6  0  0  0
 23 20  1  6  0  0  0
 23 24  1  0  0  0  0
 23 28  1  0  0  0  0
 24 25  1  1  0  0  0
 24 26  1  0  0  0  0
 26 27  1  0  0  0  0
 26 32  1  1  0  0  0
 27 28  1  0  0  0  0
 27 29  1  6  0  0  0
 29 30  1  0  0  0  0
 31 32  1  6  0  0  0
 31 40  1  0  0  0  0
 33 31  1  0  0  0  0
 33 42  1  1  0  0  0
 35 33  1  0  0  0  0
 35 36  1  6  0  0  0
 37 35  1  0  0  0  0
 37 38  1  6  0  0  0
 37 39  1  0  0  0  0
 39 40  1  0  0  0  0
 39 41  1  1  0  0  0
 41 34  1  0  0  0  0
M  END
>  <CHROM.1>
146.43578481,-42.43762907,18.98978060,-22.66895386,149.60276777,88.54342676
-174.94996562,176.77131182,-76.23454114,15.51295905,7.94939738,5.50063842
1.83155550,0.05058630,-0.89906199

>  <Name>
2et4_lig

>  <RI>
0

>  <Rbt.Current_Directory>
/home/itssahil/PROJECTS/Mol_Feturizer/New_Systems/rnas/2et4

>  <Rbt.Executable>
rbdock ($Id: //depot/dev/client3/rdock/2013.1/src/exe/rbdock.cxx#4 $)

>  <Rbt.Library>
libRbt.so (2013.1, Build901 2013/11/27)

>  <Rbt.Parameter_File>
/export/apps/rDock/src/rDock_2013.1_src/data/scripts/dock_solv.prm

>  <Rbt.Receptor>
prm/blind_docking_80.prm

>  <SCORE>
22.2774

>  <SCORE.INTER>
0.0222585

>  <SCORE.INTER.CONST>
1

>  <SCORE.INTER.POLAR>
-0.258157

>  <SCORE.INTER.ROT>
9

>  <SCORE.INTER.SOLV>
42.6723

>  <SCORE.INTER.VDW>
-22.9488

>  <SCORE.INTER.norm>
0.000529965

>  <SCORE.INTRA>
9.5726

>  <SCORE.INTRA.DIHEDRAL>
2.29201

>  <SCORE.INTRA.DIHEDRAL.0>
21.6909

>  <SCORE.INTRA.POLAR>
0

>  <SCORE.INTRA.POLAR.0>
0

>  <SCORE.INTRA.REPUL>
0

>  <SCORE.INTRA.REPUL.0>
0

>  <SCORE.INTRA.SOLV>
1.103

>  <SCORE.INTRA.SOLV.lig_0>
-116.606

>  <SCORE.INTRA.VDW>
7.87509

>  <SCORE.INTRA.VDW.0>
-6.01229

>  <SCORE.INTRA.norm>
0.227919

>  <SCORE.RESTR>
12.6826

>  <SCORE.RESTR.CAVITY>
12.6826

>  <SCORE.RESTR.norm>
0.301966

>  <SCORE.SYSTEM>
0

>  <SCORE.SYSTEM.CONST>
0

>  <SCORE.SYSTEM.DIHEDRAL>
0

>  <SCORE.SYSTEM.SOLV>
0

>  <SCORE.SYSTEM.norm>
0

>  <SCORE.heavy>
42

>  <SCORE.norm>
0.530415

>  <RMSD>
5.956

$$$$
2et4_lig
 OpenBabel11021811423D
libRbt.so/2013.1/901 2013/11/27
 42 45  0  0  0  0  0  0  0  0999 V2000
   11.3283    8.9908    9.1030 C   0  0  2  0  0  0  0  0  0  0  0  0
   11.5465    7.8567    9.9446 O   0  0  0  0  0  0  0  0  0  0  0  0
   10.1711    9.8094    9.7302 C   0  0  2  0  0  0  0  0  0  0  0  0
   10.4757   10.1976   11.0838 N   0  0  0  0  0  0  0  0  0  0  0  0
    8.8597    8.9741    9.6692 C   0  0  1  0  0  0  0  0  0  0  0  0
    7.8178    9.7185   10.2188 O   0  0  0  0  0  0  0  0  0  0  0  0
    8.5920    8.5921    8.1751 C   0  0  2  0  0  0  0  0  0  0  0  0
    7.4112    7.8247    8.0734 O   0  0  0  0  0  0  0  0  0  0  0  0
    9.7861    7.7808    7.5870 C   0  0  2  0  0  0  0  0  0  0  0  0
   10.9738    8.5674    7.7186 O   0  0  0  0  0  0  0  0  0  0  0  0
    9.5714    7.4170    6.0813 C   0  0  0  0  0  0  0  0  0  0  0  0
   10.6393    6.6366    5.5602 N   0  0  0  0  0  0  0  0  0  0  0  0
   14.2608    5.3739    7.6811 C   0  0  2  0  0  0  0  0  0  0  0  0
   15.2697    4.3524    7.3742 N   0  0  0  0  0  0  0  0  0  0  0  0
   14.8894    6.4681    8.7009 C   0  0  0  0  0  0  0  0  0  0  0  0
   13.7928    7.5589    9.0395 C   0  0  2  0  0  0  0  0  0  0  0  0
   14.3139    8.5614    9.9856 N   0  0  0  0  0  0  0  0  0  0  0  0
   12.5358    6.8586    9.6578 C   0  0  2  0  0  0  0  0  0  0  0  0
   11.9576    5.7863    8.6762 C   0  0  2  0  0  0  0  0  0  0  0  0
   10.8170    5.1917    9.3429 O   0  0  0  0  0  0  0  0  0  0  0  0
   13.0487    4.7139    8.3585 C   0  0  1  0  0  0  0  0  0  0  0  0
   12.5130    3.7859    7.4767 O   0  0  0  0  0  0  0  0  0  0  0  0
   10.8243    4.6623   10.5903 C   0  0  1  0  0  0  0  0  0  0  0  0
    9.3796    4.4659   11.1193 C   0  0  2  0  0  0  0  0  0  0  0  0
    8.8435    5.6224   11.6940 O   0  0  0  0  0  0  0  0  0  0  0  0
    9.6021    3.2495   11.9989 C   0  0  1  0  0  0  0  0  0  0  0  0
   10.6220    2.3602   11.2739 C   0  0  2  0  0  0  0  0  0  0  0  0
   11.4612    3.3605   10.6970 O   0  0  0  0  0  0  0  0  0  0  0  0
   10.0287    1.3996   10.1877 C   0  0  0  0  0  0  0  0  0  0  0  0
   11.1265    0.6076    9.6616 O   0  0  0  0  0  0  0  0  0  0  0  0
    9.2976    4.5714   14.0680 C   0  0  2  0  0  0  0  0  0  0  0  0
   10.1207    3.7316   13.3056 O   0  0  0  0  0  0  0  0  0  0  0  0
    9.9886    4.9639   15.4458 C   0  0  1  0  0  0  0  0  0  0  0  0
    4.4895    4.5903   15.9562 N   0  0  0  0  0  0  0  0  0  0  0  0
    8.9478    5.9087   16.2463 C   0  0  1  0  0  0  0  0  0  0  0  0
    8.6491    7.1180   15.3827 O   0  0  0  0  0  0  0  0  0  0  0  0
    7.5851    5.0886   16.5573 C   0  0  2  0  0  0  0  0  0  0  0  0
    7.8948    3.9455   17.3901 O   0  0  0  0  0  0  0  0  0  0  0  0
    6.9267    4.6719   15.1246 C   0  0  1  0  0  0  0  0  0  0  0  0
    7.9265    3.8808   14.3266 O   0  0  0  0  0  0  0  0  0  0  0  0
    5.6039    3.8455   15.2937 C   0  0  0  0  0  0  0  0  0  0  0  0
   10.3628    3.7247   16.2043 N   0  0  0  0  0  0  0  0  0  0  0  0
  1  2  1  1  0  0  0
  1  3  1  0  0  0  0
  1 10  1  0  0  0  0
  3  4  1  1  0  0  0
  3  5  1  0  0  0  0
  5  6  1  6  0  0  0
  5  7  1  0  0  0  0
  7  8  1  1  0  0  0
  7  9  1  0  0  0  0
  9 10  1  0  0  0  0
  9 11  1  6  0  0  0
 11 12  1  0  0  0  0
 13 14  1  1  0  0  0
 13 15  1  0  0  0  0
 13 21  1  0  0  0  0
 16 15  1  0  0  0  0
 16 17  1  1  0  0  0
 18  2  1  6  0  0  0
 18 16  1  0  0  0  0
 19 18  1  0  0  0  0
 19 20  1  1  0  0  0
 21 19  1  0  0  0  0
 21 22  1  6  0  0  0
 23 20  1  6  0  0  0
 23 24  1  0  0  0  0
 23 28  1  0  0  0  0
 24 25  1  1  0  0  0
 24 26  1  0  0  0  0
 26 27  1  0  0  0  0
 26 32  1  1  0  0  0
 27 28  1  0  0  0  0
 27 29  1  6  0  0  0
 29 30  1  0  0  0  0
 31 32  1  1  0  0  0
 31 40  1  0  0  0  0
 33 31  1  0  0  0  0
 33 42  1  1  0  0  0
 35 33  1  0  0  0  0
 35 36  1  6  0  0  0
 37 35  1  0  0  0  0
 37 38  1  1  0  0  0
 37 39  1  0  0  0  0
 39 40  1  0  0  0  0
 39 41  1  1  0  0  0
 41 34  1  0  0  0  0
M  END
>  <CHROM.1>
178.90764657,-177.90528767,36.79549366,-52.46557047,164.91475398,62.30323098
-177.54379534,178.62910446,63.70330009,10.21900555,5.75975736,10.99992988
0.78571327,0.83848226,-0.61526112

>  <Name>
2et4_lig

>  <RI>
0

>  <Rbt.Current_Directory>
/home/itssahil/PROJECTS/Mol_Feturizer/New_Systems/rnas/2et4

>  <Rbt.Executable>
rbdock ($Id: //depot/dev/client3/rdock/2013.1/src/exe/rbdock.cxx#4 $)

>  <Rbt.Library>
libRbt.so (2013.1, Build901 2013/11/27)

>  <Rbt.Parameter_File>
/export/apps/rDock/src/rDock_2013.1_src/data/scripts/dock_solv.prm

>  <Rbt.Receptor>
prm/pocket_docking_6.prm

>  <SCORE>
-9.27016

>  <SCORE.INTER>
-1.87357

>  <SCORE.INTER.CONST>
1

>  <SCORE.INTER.POLAR>
-0.802715

>  <SCORE.INTER.ROT>
9

>  <SCORE.INTER.SOLV>
9.91173

>  <SCORE.INTER.VDW>
-11.4772

>  <SCORE.INTER.norm>
-0.0446087

>  <SCORE.INTRA>
-7.39659

>  <SCORE.INTRA.DIHEDRAL>
-17.7117

>  <SCORE.INTRA.DIHEDRAL.0>
21.6909

>  <SCORE.INTRA.POLAR>
0

>  <SCORE.INTRA.POLAR.0>
0

>  <SCORE.INTRA.REPUL>
0

>  <SCORE.INTRA.REPUL.0>
0

>  <SCORE.INTRA.SOLV>
-1.7769

>  <SCORE.INTRA.SOLV.lig_0>
-116.606

>  <SCORE.INTRA.VDW>
2.34773

>  <SCORE.INTRA.VDW.0>
-6.01229

>  <SCORE.INTRA.norm>
-0.176109

>  <SCORE.RESTR>
0

>  <SCORE.RESTR.CAVITY>
0

>  <SCORE.RESTR.norm>
0

>  <SCORE.SYSTEM>
0

>  <SCORE.SYSTEM.CONST>
0

>  <SCORE.SYSTEM.DIHEDRAL>
0

>  <SCORE.SYSTEM.SOLV>
0

>  <SCORE.SYSTEM.norm>
0

>  <SCORE.heavy>
42

>  <SCORE.norm>
-0.220718

>  <RMSD>
5.974

$$$$
2et4_lig
 OpenBabel11021811423D
libRbt.so/2013.1/901 2013/11/27
 42 45  0  0  0  0  0  0  0  0999 V2000
   13.7184   10.8921    4.3791 C   0  0  2  0  0  0  0  0  0  0  0  0
   14.9227   10.1494    4.1788 O   0  0  0  0  0  0  0  0  0  0  0  0
   12.6431    9.8933    4.8778 C   0  0  2  0  0  0  0  0  0  0  0  0
   13.0659    9.2239    6.0814 N   0  0  0  0  0  0  0  0  0  0  0  0
   12.3303    8.8696    3.7484 C   0  0  1  0  0  0  0  0  0  0  0  0
   11.3518    7.9829    4.1936 O   0  0  0  0  0  0  0  0  0  0  0  0
   11.8769    9.6650    2.4789 C   0  0  2  0  0  0  0  0  0  0  0  0
   11.5888    8.7727    1.4233 O   0  0  0  0  0  0  0  0  0  0  0  0
   12.9852   10.6618    2.0231 C   0  0  2  0  0  0  0  0  0  0  0  0
   13.2758   11.5420    3.1129 O   0  0  0  0  0  0  0  0  0  0  0  0
   12.5498   11.5046    0.7799 C   0  0  0  0  0  0  0  0  0  0  0  0
   13.6401   12.2101    0.2013 N   0  0  0  0  0  0  0  0  0  0  0  0
   17.4832   11.7156    1.0730 C   0  0  2  0  0  0  0  0  0  0  0  0
   18.6640   12.2843    0.4113 N   0  0  0  0  0  0  0  0  0  0  0  0
   16.9667   12.7313    2.2279 C   0  0  0  0  0  0  0  0  0  0  0  0
   15.7022   12.1064    2.9475 C   0  0  2  0  0  0  0  0  0  0  0  0
   15.2139   12.9863    4.0241 N   0  0  0  0  0  0  0  0  0  0  0  0
   16.0809   10.7089    3.5443 C   0  0  2  0  0  0  0  0  0  0  0  0
   16.6044    9.7495    2.4248 C   0  0  2  0  0  0  0  0  0  0  0  0
   16.9386    8.5001    3.0778 O   0  0  0  0  0  0  0  0  0  0  0  0
   17.8558   10.3766    1.7303 C   0  0  1  0  0  0  0  0  0  0  0  0
   18.2887    9.5121    0.7349 O   0  0  0  0  0  0  0  0  0  0  0  0
   16.9468    8.2911    4.4166 C   0  0  1  0  0  0  0  0  0  0  0  0
   16.0154    7.1120    4.8009 C   0  0  2  0  0  0  0  0  0  0  0  0
   14.6777    7.4932    4.9437 O   0  0  0  0  0  0  0  0  0  0  0  0
   16.7609    6.5949    6.0173 C   0  0  1  0  0  0  0  0  0  0  0  0
   18.2585    6.7393    5.7125 C   0  0  2  0  0  0  0  0  0  0  0  0
   18.2474    7.9614    4.9749 O   0  0  0  0  0  0  0  0  0  0  0  0
   18.8963    5.5680    4.8904 C   0  0  0  0  0  0  0  0  0  0  0  0
   18.2631    5.5592    3.5835 O   0  0  0  0  0  0  0  0  0  0  0  0
   16.2468    6.8005    8.4287 C   0  0  2  0  0  0  0  0  0  0  0  0
   16.3515    7.4263    7.1792 O   0  0  0  0  0  0  0  0  0  0  0  0
   17.6783    6.5694    9.0823 C   0  0  1  0  0  0  0  0  0  0  0  0
   14.3757    2.4112   10.4083 N   0  0  0  0  0  0  0  0  0  0  0  0
   17.4387    5.8267   10.4992 C   0  0  1  0  0  0  0  0  0  0  0  0
   16.5490    6.7110   11.3501 O   0  0  0  0  0  0  0  0  0  0  0  0
   16.7343    4.3876   10.2556 C   0  0  2  0  0  0  0  0  0  0  0  0
   17.6062    3.5592    9.4496 O   0  0  0  0  0  0  0  0  0  0  0  0
   15.2891    4.6629    9.5517 C   0  0  1  0  0  0  0  0  0  0  0  0
   15.4920    5.4465    8.2841 O   0  0  0  0  0  0  0  0  0  0  0  0
   14.5144    3.3346    9.2406 C   0  0  0  0  0  0  0  0  0  0  0  0
   18.5501    5.7855    8.1462 N   0  0  0  0  0  0  0  0  0  0  0  0
  1  2  1  6  0  0  0
  1  3  1  0  0  0  0
  1 10  1  0  0  0  0
  3  4  1  1  0  0  0
  3  5  1  0  0  0  0
  5  6  1  1  0  0  0
  5  7  1  0  0  0  0
  7  8  1  6  0  0  0
  7  9  1  0  0  0  0
  9 10  1  0  0  0  0
  9 11  1  6  0  0  0
 11 12  1  0  0  0  0
 13 14  1  1  0  0  0
 13 15  1  0  0  0  0
 13 21  1  0  0  0  0
 16 15  1  0  0  0  0
 16 17  1  1  0  0  0
 18  2  1  6  0  0  0
 18 16  1  0  0  0  0
 19 18  1  0  0  0  0
 19 20  1  1  0  0  0
 21 19  1  0  0  0  0
 21 22  1  6  0  0  0
 23 20  1  6  0  0  0
 23 24  1  0  0  0  0
 23 28  1  0  0  0  0
 24 25  1  1  0  0  0
 24 26  1  0  0  0  0
 26 27  1  0  0  0  0
 26 32  1  1  0  0  0
 27 28  1  0  0  0  0
 27 29  1  6  0  0  0
 29 30  1  0  0  0  0
 31 32  1  6  0  0  0
 31 40  1  0  0  0  0
 33 31  1  0  0  0  0
 33 42  1  6  0  0  0
 35 33  1  0  0  0  0
 35 36  1  1  0  0  0
 37 35  1  0  0  0  0
 37 38  1  6  0  0  0
 37 39  1  0  0  0  0
 39 40  1  0  0  0  0
 39 41  1  6  0  0  0
 41 34  1  0  0  0  0
M  END
>  <CHROM.1>
171.13900522,-168.10643679,-8.83154091,-7.50273921,123.59968835,144.88390114
64.08565798,77.49804432,52.16508905,15.67970947,8.30859870,5.02083829,1.73837322
0.09780829,-0.88150822

>  <Name>
2et4_lig

>  <RI>
0

>  <Rbt.Current_Directory>
/home/itssahil/PROJECTS/Mol_Feturizer/New_Systems/rnas/2et4

>  <Rbt.Executable>
rbdock ($Id: //depot/dev/client3/rdock/2013.1/src/exe/rbdock.cxx#4 $)

>  <Rbt.Library>
libRbt.so (2013.1, Build901 2013/11/27)

>  <Rbt.Parameter_File>
/export/apps/rDock/src/rDock_2013.1_src/data/scripts/dock_solv.prm

>  <Rbt.Receptor>
prm/blind_docking_80.prm

>  <SCORE>
20.0295

>  <SCORE.INTER>
-7.94052

>  <SCORE.INTER.CONST>
1

>  <SCORE.INTER.POLAR>
0

>  <SCORE.INTER.ROT>
9

>  <SCORE.INTER.SOLV>
28.1336

>  <SCORE.INTER.VDW>
-24.2716

>  <SCORE.INTER.norm>
-0.18906

>  <SCORE.INTRA>
15.6074

>  <SCORE.INTRA.DIHEDRAL>
6.41087

>  <SCORE.INTRA.DIHEDRAL.0>
21.6909

>  <SCORE.INTRA.POLAR>
0

>  <SCORE.INTRA.POLAR.0>
0

>  <SCORE.INTRA.REPUL>
0.157617

>  <SCORE.INTRA.REPUL.0>
0

>  <SCORE.INTRA.SOLV>
6.55468

>  <SCORE.INTRA.SOLV.lig_0>
-116.606

>  <SCORE.INTRA.VDW>
8.33653

>  <SCORE.INTRA.VDW.0>
-6.01229

>  <SCORE.INTRA.norm>
0.371604

>  <SCORE.RESTR>
12.3626

>  <SCORE.RESTR.CAVITY>
12.3626

>  <SCORE.RESTR.norm>
0.294348

>  <SCORE.SYSTEM>
0

>  <SCORE.SYSTEM.CONST>
0

>  <SCORE.SYSTEM.DIHEDRAL>
0

>  <SCORE.SYSTEM.SOLV>
0

>  <SCORE.SYSTEM.norm>
0

>  <SCORE.heavy>
42

>  <SCORE.norm>
0.476892

>  <RMSD>
5.975

$$$$
2et4_lig
 OpenBabel11021811423D
libRbt.so/2013.1/901 2013/11/27
 42 45  0  0  0  0  0  0  0  0999 V2000
   14.5409    7.7109    5.9541 C   0  0  2  0  0  0  0  0  0  0  0  0
   14.2042    6.5973    5.1243 O   0  0  0  0  0  0  0  0  0  0  0  0
   15.9300    8.2212    5.4928 C   0  0  2  0  0  0  0  0  0  0  0  0
   15.9218    8.5767    4.0967 N   0  0  0  0  0  0  0  0  0  0  0  0
   17.0007    7.1310    5.7865 C   0  0  1  0  0  0  0  0  0  0  0  0
   18.2507    7.5987    5.3858 O   0  0  0  0  0  0  0  0  0  0  0  0
   16.9539    6.7985    7.3153 C   0  0  2  0  0  0  0  0  0  0  0  0
   17.9077    5.8050    7.6263 O   0  0  0  0  0  0  0  0  0  0  0  0
   15.5367    6.3007    7.7320 C   0  0  2  0  0  0  0  0  0  0  0  0
   14.5848    7.3123    7.3897 O   0  0  0  0  0  0  0  0  0  0  0  0
   15.4411    5.9979    9.2632 C   0  0  0  0  0  0  0  0  0  0  0  0
   16.3113    4.9451    9.6575 N   0  0  0  0  0  0  0  0  0  0  0  0
   10.4111    5.0207    3.7897 C   0  0  2  0  0  0  0  0  0  0  0  0
    9.0950    4.3708    3.8252 N   0  0  0  0  0  0  0  0  0  0  0  0
   11.5466    3.9735    4.2859 C   0  0  0  0  0  0  0  0  0  0  0  0
   12.9615    4.6840    4.2593 C   0  0  2  0  0  0  0  0  0  0  0  0
   14.0222    3.7748    4.7281 N   0  0  0  0  0  0  0  0  0  0  0  0
   12.9218    5.9569    5.1708 C   0  0  2  0  0  0  0  0  0  0  0  0
   11.8036    6.9441    4.6987 C   0  0  2  0  0  0  0  0  0  0  0  0
   11.8400    8.0712    5.6084 O   0  0  0  0  0  0  0  0  0  0  0  0
   10.4140    6.2307    4.7381 C   0  0  1  0  0  0  0  0  0  0  0  0
    9.4459    7.1241    4.3020 O   0  0  0  0  0  0  0  0  0  0  0  0
   11.6312    8.0082    6.9458 C   0  0  1  0  0  0  0  0  0  0  0  0
   11.6005    9.4273    7.5710 C   0  0  2  0  0  0  0  0  0  0  0  0
   12.8733    9.9239    7.8682 O   0  0  0  0  0  0  0  0  0  0  0  0
   10.6314    9.1739    8.7109 C   0  0  1  0  0  0  0  0  0  0  0  0
    9.5706    8.1988    8.1810 C   0  0  2  0  0  0  0  0  0  0  0  0
   10.3818    7.3792    7.3396 O   0  0  0  0  0  0  0  0  0  0  0  0
    8.3865    8.8533    7.3909 C   0  0  0  0  0  0  0  0  0  0  0  0
    7.3901    7.8207    7.1672 O   0  0  0  0  0  0  0  0  0  0  0  0
   11.8203    9.4454   10.8636 C   0  0  2  0  0  0  0  0  0  0  0  0
   11.4070    8.5879    9.8350 O   0  0  0  0  0  0  0  0  0  0  0  0
   13.3232    9.9212   10.6519 C   0  0  1  0  0  0  0  0  0  0  0  0
   11.8559    9.4935   16.0164 N   0  0  0  0  0  0  0  0  0  0  0  0
   13.6974   10.8806   11.8994 C   0  0  1  0  0  0  0  0  0  0  0  0
   12.7193   12.0385   11.9132 O   0  0  0  0  0  0  0  0  0  0  0  0
   13.6012   10.0460   13.2853 C   0  0  2  0  0  0  0  0  0  0  0  0
   14.5499    8.9529   13.2516 O   0  0  0  0  0  0  0  0  0  0  0  0
   12.0581    9.5440   13.4484 C   0  0  1  0  0  0  0  0  0  0  0  0
   11.6649    8.7374   12.2414 O   0  0  0  0  0  0  0  0  0  0  0  0
   11.8407    8.6971   14.7510 C   0  0  0  0  0  0  0  0  0  0  0  0
   14.2274    8.7300   10.5327 N   0  0  0  0  0  0  0  0  0  0  0  0
  1  2  1  6  0  0  0
  1  3  1  0  0  0  0
  1 10  1  0  0  0  0
  3  4  1  6  0  0  0
  3  5  1  0  0  0  0
  5  6  1  1  0  0  0
  5  7  1  0  0  0  0
  7  8  1  6  0  0  0
  7  9  1  0  0  0  0
  9 10  1  0  0  0  0
  9 11  1  1  0  0  0
 11 12  1  0  0  0  0
 13 14  1  1  0  0  0
 13 15  1  0  0  0  0
 13 21  1  0  0  0  0
 16 15  1  0  0  0  0
 16 17  1  1  0  0  0
 18  2  1  6  0  0  0
 18 16  1  0  0  0  0
 19 18  1  0  0  0  0
 19 20  1  1  0  0  0
 21 19  1  0  0  0  0
 21 22  1  6  0  0  0
 23 20  1  6  0  0  0
 23 24  1  0  0  0  0
 23 28  1  0  0  0  0
 24 25  1  1  0  0  0
 24 26  1  0  0  0  0
 26 27  1  0  0  0  0
 26 32  1  1  0  0  0
 27 28  1  0  0  0  0
 27 29  1  6  0  0  0
 29 30  1  0  0  0  0
 31 32  1  6  0  0  0
 31 40  1  0  0  0  0
 33 31  1  0  0  0  0
 33 42  1  1  0  0  0
 35 33  1  0  0  0  0
 35 36  1  1  0  0  0
 37 35  1  0  0  0  0
 37 38  1  6  0  0  0
 37 39  1  0  0  0  0
 39 40  1  0  0  0  0
 39 41  1  1  0  0  0
 41 34  1  0  0  0  0
M  END
>  <CHROM.1>
-173.25190802,-62.99961388,-173.43517508,-60.79265329,-174.02790439,98.18938731
-170.77621564,-97.27337570,72.99668279,12.90728097,7.70464342,8.01500841
-1.55173480,-0.09842125,1.14787674

>  <Name>
2et4_lig

>  <RI>
0

>  <Rbt.Current_Directory>
/home/itssahil/PROJECTS/Mol_Feturizer/New_Systems/rnas/2et4

>  <Rbt.Executable>
rbdock ($Id: //depot/dev/client3/rdock/2013.1/src/exe/rbdock.cxx#4 $)

>  <Rbt.Library>
libRbt.so (2013.1, Build901 2013/11/27)

>  <Rbt.Parameter_File>
/export/apps/rDock/src/rDock_2013.1_src/data/scripts/dock_solv.prm

>  <Rbt.Receptor>
prm/pocket_docking_6.prm

>  <SCORE>
-13.477

>  <SCORE.INTER>
-9.24765

>  <SCORE.INTER.CONST>
1

>  <SCORE.INTER.POLAR>
-0.832535

>  <SCORE.INTER.ROT>
9

>  <SCORE.INTER.SOLV>
13.9488

>  <SCORE.INTER.VDW>
-17.6396

>  <SCORE.INTER.norm>
-0.220182

>  <SCORE.INTRA>
-4.22933

>  <SCORE.INTRA.DIHEDRAL>
-10.065

>  <SCORE.INTRA.DIHEDRAL.0>
21.6909

>  <SCORE.INTRA.POLAR>
0

>  <SCORE.INTRA.POLAR.0>
0

>  <SCORE.INTRA.REPUL>
0

>  <SCORE.INTRA.REPUL.0>
0

>  <SCORE.INTRA.SOLV>
-0.37301

>  <SCORE.INTRA.SOLV.lig_0>
-116.606

>  <SCORE.INTRA.VDW>
0.989682

>  <SCORE.INTRA.VDW.0>
-6.01229

>  <SCORE.INTRA.norm>
-0.100698

>  <SCORE.RESTR>
0

>  <SCORE.RESTR.CAVITY>
0

>  <SCORE.RESTR.norm>
0

>  <SCORE.SYSTEM>
0

>  <SCORE.SYSTEM.CONST>
0

>  <SCORE.SYSTEM.DIHEDRAL>
0

>  <SCORE.SYSTEM.SOLV>
0

>  <SCORE.SYSTEM.norm>
0

>  <SCORE.heavy>
42

>  <SCORE.norm>
-0.32088

>  <RMSD>
5.979

$$$$
2et4_lig
 OpenBabel11021811423D
libRbt.so/2013.1/901 2013/11/27
 42 45  0  0  0  0  0  0  0  0999 V2000
   14.2557    6.0989    9.3973 C   0  0  2  0  0  0  0  0  0  0  0  0
   15.2367    6.7144    8.5602 O   0  0  0  0  0  0  0  0  0  0  0  0
   14.8416    6.0548   10.8317 C   0  0  2  0  0  0  0  0  0  0  0  0
   15.1918    7.3727   11.2968 N   0  0  0  0  0  0  0  0  0  0  0  0
   16.0758    5.1074   10.8531 C   0  0  1  0  0  0  0  0  0  0  0  0
   16.5907    5.0570   12.1470 O   0  0  0  0  0  0  0  0  0  0  0  0
   15.6213    3.7002   10.3402 C   0  0  2  0  0  0  0  0  0  0  0  0
   16.7152    2.8075   10.3361 O   0  0  0  0  0  0  0  0  0  0  0  0
   15.0307    3.7981    8.9009 C   0  0  2  0  0  0  0  0  0  0  0  0
   13.9385    4.7218    8.9236 O   0  0  0  0  0  0  0  0  0  0  0  0
   14.5274    2.4155    8.3712 C   0  0  0  0  0  0  0  0  0  0  0  0
   14.0342    2.4978    7.0404 N   0  0  0  0  0  0  0  0  0  0  0  0
   14.9454    9.2137    5.0498 C   0  0  2  0  0  0  0  0  0  0  0  0
   14.6658    9.6323    3.6705 N   0  0  0  0  0  0  0  0  0  0  0  0
   16.0197    7.9980    5.0403 C   0  0  0  0  0  0  0  0  0  0  0  0
   16.3065    7.5411    6.5291 C   0  0  2  0  0  0  0  0  0  0  0  0
   17.2603    6.4184    6.5666 N   0  0  0  0  0  0  0  0  0  0  0  0
   14.9632    7.1104    7.2091 C   0  0  2  0  0  0  0  0  0  0  0  0
   13.9270    8.2824    7.1853 C   0  0  2  0  0  0  0  0  0  0  0  0
   12.7247    7.7807    7.8192 O   0  0  0  0  0  0  0  0  0  0  0  0
   13.6493    8.7159    5.7100 C   0  0  1  0  0  0  0  0  0  0  0  0
   12.7396    9.7637    5.7208 O   0  0  0  0  0  0  0  0  0  0  0  0
   12.1736    8.2698    8.9564 C   0  0  1  0  0  0  0  0  0  0  0  0
   11.8571    9.7816    8.8151 C   0  0  2  0  0  0  0  0  0  0  0  0
   12.9579   10.6004    9.0849 O   0  0  0  0  0  0  0  0  0  0  0  0
   10.6447    9.8659    9.7237 C   0  0  1  0  0  0  0  0  0  0  0  0
    9.8500    8.5679    9.5224 C   0  0  2  0  0  0  0  0  0  0  0  0
   10.9225    7.6422    9.3472 O   0  0  0  0  0  0  0  0  0  0  0  0
    8.8678    8.5598    8.3018 C   0  0  0  0  0  0  0  0  0  0  0  0
    9.6745    8.5961    7.0947 O   0  0  0  0  0  0  0  0  0  0  0  0
   10.1907   10.0710   12.1472 C   0  0  2  0  0  0  0  0  0  0  0  0
   11.1399    9.9989   11.1187 O   0  0  0  0  0  0  0  0  0  0  0  0
   10.8816   10.3364   13.5551 C   0  0  1  0  0  0  0  0  0  0  0  0
    8.3914    6.1261   13.4232 N   0  0  0  0  0  0  0  0  0  0  0  0
    9.7026   10.3779   14.6619 C   0  0  1  0  0  0  0  0  0  0  0  0
    8.7326   11.4768   14.2759 O   0  0  0  0  0  0  0  0  0  0  0  0
    8.9422    8.9476   14.7116 C   0  0  2  0  0  0  0  0  0  0  0  0
    9.8861    7.9175   15.0910 O   0  0  0  0  0  0  0  0  0  0  0  0
    8.2800    8.6939   13.2429 C   0  0  1  0  0  0  0  0  0  0  0  0
    9.3546    8.7584   12.1926 O   0  0  0  0  0  0  0  0  0  0  0  0
    7.5299    7.3187   13.1562 C   0  0  0  0  0  0  0  0  0  0  0  0
   11.9107    9.2798   13.8297 N   0  0  0  0  0  0  0  0  0  0  0  0
  1  2  1  6  0  0  0
  1  3  1  0  0  0  0
  1 10  1  0  0  0  0
  3  4  1  6  0  0  0
  3  5  1  0  0  0  0
  5  6  1  1  0  0  0
  5  7  1  0  0  0  0
  7  8  1  6  0  0  0
  7  9  1  0  0  0  0
  9 10  1  0  0  0  0
  9 11  1  1  0  0  0
 11 12  1  0  0  0  0
 13 14  1  6  0  0  0
 13 15  1  0  0  0  0
 13 21  1  0  0  0  0
 16 15  1  0  0  0  0
 16 17  1  6  0  0  0
 18  2  1  1  0  0  0
 18 16  1  0  0  0  0
 19 18  1  0  0  0  0
 19 20  1  6  0  0  0
 21 19  1  0  0  0  0
 21 22  1  1  0  0  0
 23 20  1  6  0  0  0
 23 24  1  0  0  0  0
 23 28  1  0  0  0  0
 24 25  1  1  0  0  0
 24 26  1  0  0  0  0
 26 27  1  0  0  0  0
 26 32  1  1  0  0  0
 27 28  1  0  0  0  0
 27 29  1  6  0  0  0
 29 30  1  0  0  0  0
 31 32  1  6  0  0  0
 31 40  1  0  0  0  0
 33 31  1  0  0  0  0
 33 42  1  1  0  0  0
 35 33  1  0  0  0  0
 35 36  1  6  0  0  0
 37 35  1  0  0  0  0
 37 38  1  6  0  0  0
 37 39  1  0  0  0  0
 39 40  1  0  0  0  0
 39 41  1  1  0  0  0
 41 34  1  0  0  0  0
M  END
>  <CHROM.1>
-170.14705472,-177.85096038,-171.44160174,117.65166027,56.86208993,-178.89244209
67.56898974,-175.09002879,-59.45204533,12.63058526,7.61840422,9.76890993
-0.38725846,-0.75584335,2.11764874

>  <Name>
2et4_lig

>  <RI>
0

>  <Rbt.Current_Directory>
/home/itssahil/PROJECTS/Mol_Feturizer/New_Systems/rnas/2et4

>  <Rbt.Executable>
rbdock ($Id: //depot/dev/client3/rdock/2013.1/src/exe/rbdock.cxx#4 $)

>  <Rbt.Library>
libRbt.so (2013.1, Build901 2013/11/27)

>  <Rbt.Parameter_File>
/export/apps/rDock/src/rDock_2013.1_src/data/scripts/dock_solv.prm

>  <Rbt.Receptor>
prm/pocket_docking_8.prm

>  <SCORE>
-14.8432

>  <SCORE.INTER>
-8.79284

>  <SCORE.INTER.CONST>
1

>  <SCORE.INTER.POLAR>
-1.28849

>  <SCORE.INTER.ROT>
9

>  <SCORE.INTER.SOLV>
12.4278

>  <SCORE.INTER.VDW>
-15.3096

>  <SCORE.INTER.norm>
-0.209353

>  <SCORE.INTRA>
-6.05037

>  <SCORE.INTRA.DIHEDRAL>
-13.1469

>  <SCORE.INTRA.DIHEDRAL.0>
21.6909

>  <SCORE.INTRA.POLAR>
0

>  <SCORE.INTRA.POLAR.0>
0

>  <SCORE.INTRA.REPUL>
0

>  <SCORE.INTRA.REPUL.0>
0

>  <SCORE.INTRA.SOLV>
-1.89383

>  <SCORE.INTRA.SOLV.lig_0>
-116.606

>  <SCORE.INTRA.VDW>
1.46998

>  <SCORE.INTRA.VDW.0>
-6.01229

>  <SCORE.INTRA.norm>
-0.144056

>  <SCORE.RESTR>
0

>  <SCORE.RESTR.CAVITY>
0

>  <SCORE.RESTR.norm>
0

>  <SCORE.SYSTEM>
0

>  <SCORE.SYSTEM.CONST>
0

>  <SCORE.SYSTEM.DIHEDRAL>
0

>  <SCORE.SYSTEM.SOLV>
0

>  <SCORE.SYSTEM.norm>
0

>  <SCORE.heavy>
42

>  <SCORE.norm>
-0.35341

>  <RMSD>
5.999

$$$$
2et4_lig
 OpenBabel11021811423D
libRbt.so/2013.1/901 2013/11/27
 42 45  0  0  0  0  0  0  0  0999 V2000
   13.5269   10.8180    4.3696 C   0  0  2  0  0  0  0  0  0  0  0  0
   14.8040   10.1769    4.3580 O   0  0  0  0  0  0  0  0  0  0  0  0
   12.4857    9.7548    4.8034 C   0  0  2  0  0  0  0  0  0  0  0  0
   12.8140    9.1918    6.0883 N   0  0  0  0  0  0  0  0  0  0  0  0
   12.3977    8.6479    3.7133 C   0  0  1  0  0  0  0  0  0  0  0  0
   11.4495    7.7021    4.0981 O   0  0  0  0  0  0  0  0  0  0  0  0
   12.0367    9.3299    2.3515 C   0  0  2  0  0  0  0  0  0  0  0  0
   11.9533    8.3599    1.3290 O   0  0  0  0  0  0  0  0  0  0  0  0
   13.1055   10.3964    1.9642 C   0  0  2  0  0  0  0  0  0  0  0  0
   13.1882   11.3565    3.0216 O   0  0  0  0  0  0  0  0  0  0  0  0
   12.7552   11.1286    0.6276 C   0  0  0  0  0  0  0  0  0  0  0  0
   13.6263   12.2224    0.3706 N   0  0  0  0  0  0  0  0  0  0  0  0
   17.3117   11.8030    1.2400 C   0  0  2  0  0  0  0  0  0  0  0  0
   18.4813   12.3845    0.5694 N   0  0  0  0  0  0  0  0  0  0  0  0
   16.8155   12.7961    2.4232 C   0  0  0  0  0  0  0  0  0  0  0  0
   15.5633   12.1575    3.1521 C   0  0  2  0  0  0  0  0  0  0  0  0
   15.0938   13.0163    4.2538 N   0  0  0  0  0  0  0  0  0  0  0  0
   15.9514   10.7485    3.7149 C   0  0  2  0  0  0  0  0  0  0  0  0
   16.4552    9.8111    2.5681 C   0  0  2  0  0  0  0  0  0  0  0  0
   16.8000    8.5492    3.1907 O   0  0  0  0  0  0  0  0  0  0  0  0
   17.6948   10.4515    1.8646 C   0  0  1  0  0  0  0  0  0  0  0  0
   18.1102    9.6065    0.8453 O   0  0  0  0  0  0  0  0  0  0  0  0
   16.8020    8.3056    4.5237 C   0  0  1  0  0  0  0  0  0  0  0  0
   15.9967    7.0222    4.8554 C   0  0  2  0  0  0  0  0  0  0  0  0
   14.6226    7.2519    4.9750 O   0  0  0  0  0  0  0  0  0  0  0  0
   16.7676    6.5558    6.0765 C   0  0  1  0  0  0  0  0  0  0  0  0
   18.2468    6.8702    5.8122 C   0  0  2  0  0  0  0  0  0  0  0  0
   18.1183    8.1037    5.1053 O   0  0  0  0  0  0  0  0  0  0  0  0
   19.0263    5.7981    4.9770 C   0  0  0  0  0  0  0  0  0  0  0  0
   20.3376    6.3473    4.6805 O   0  0  0  0  0  0  0  0  0  0  0  0
   16.1884    6.6401    8.4804 C   0  0  2  0  0  0  0  0  0  0  0  0
   16.2449    7.3057    7.2484 O   0  0  0  0  0  0  0  0  0  0  0  0
   17.6354    6.4866    9.1226 C   0  0  1  0  0  0  0  0  0  0  0  0
   14.4139    2.1775   10.3860 N   0  0  0  0  0  0  0  0  0  0  0  0
   17.4528    5.6910   10.5191 C   0  0  1  0  0  0  0  0  0  0  0  0
   16.5109    6.4906   11.3971 O   0  0  0  0  0  0  0  0  0  0  0  0
   16.8441    4.2156   10.2379 C   0  0  2  0  0  0  0  0  0  0  0  0
   17.7648    3.4694    9.4064 O   0  0  0  0  0  0  0  0  0  0  0  0
   15.3802    4.4136    9.5467 C   0  0  1  0  0  0  0  0  0  0  0  0
   15.5242    5.2435    8.3007 O   0  0  0  0  0  0  0  0  0  0  0  0
   14.6937    3.0458    9.2014 C   0  0  0  0  0  0  0  0  0  0  0  0
   18.5524    5.7884    8.1621 N   0  0  0  0  0  0  0  0  0  0  0  0
  1  2  1  6  0  0  0
  1  3  1  0  0  0  0
  1 10  1  0  0  0  0
  3  4  1  1  0  0  0
  3  5  1  0  0  0  0
  5  6  1  1  0  0  0
  5  7  1  0  0  0  0
  7  8  1  6  0  0  0
  7  9  1  0  0  0  0
  9 10  1  0  0  0  0
  9 11  1  6  0  0  0
 11 12  1  0  0  0  0
 13 14  1  1  0  0  0
 13 15  1  0  0  0  0
 13 21  1  0  0  0  0
 16 15  1  0  0  0  0
 16 17  1  1  0  0  0
 18  2  1  6  0  0  0
 18 16  1  0  0  0  0
 19 18  1  0  0  0  0
 19 20  1  1  0  0  0
 21 19  1  0  0  0  0
 21 22  1  6  0  0  0
 23 20  1  6  0  0  0
 23 24  1  0  0  0  0
 23 28  1  0  0  0  0
 24 25  1  1  0  0  0
 24 26  1  0  0  0  0
 26 27  1  0  0  0  0
 26 32  1  1  0  0  0
 27 28  1  0  0  0  0
 27 29  1  6  0  0  0
 29 30  1  0  0  0  0
 31 32  1  6  0  0  0
 31 40  1  0  0  0  0
 33 31  1  0  0  0  0
 33 42  1  6  0  0  0
 35 33  1  0  0  0  0
 35 36  1  1  0  0  0
 37 35  1  0  0  0  0
 37 38  1  6  0  0  0
 37 39  1  0  0  0  0
 39 40  1  0  0  0  0
 39 41  1  6  0  0  0
 41 34  1  0  0  0  0
M  END
>  <CHROM.1>
165.04218019,171.88496267,3.38466975,-5.93195627,129.25443506,145.19490023
172.50329190,74.45965486,61.96937110,15.70860394,8.24664055,5.09578056,1.75471259
0.02511188,-0.85951014

>  <Name>
2et4_lig

>  <RI>
0

>  <Rbt.Current_Directory>
/home/itssahil/PROJECTS/Mol_Feturizer/New_Systems/rnas/2et4

>  <Rbt.Executable>
rbdock ($Id: //depot/dev/client3/rdock/2013.1/src/exe/rbdock.cxx#4 $)

>  <Rbt.Library>
libRbt.so (2013.1, Build901 2013/11/27)

>  <Rbt.Parameter_File>
/export/apps/rDock/src/rDock_2013.1_src/data/scripts/dock_solv.prm

>  <Rbt.Receptor>
prm/blind_docking_80.prm

>  <SCORE>
16.7548

>  <SCORE.INTER>
-8.808

>  <SCORE.INTER.CONST>
1

>  <SCORE.INTER.POLAR>
0

>  <SCORE.INTER.ROT>
9

>  <SCORE.INTER.SOLV>
29.1592

>  <SCORE.INTER.VDW>
-25.1917

>  <SCORE.INTER.norm>
-0.209714

>  <SCORE.INTRA>
13.9083

>  <SCORE.INTRA.DIHEDRAL>
6.35829

>  <SCORE.INTRA.DIHEDRAL.0>
21.6909

>  <SCORE.INTRA.POLAR>
0

>  <SCORE.INTRA.POLAR.0>
0

>  <SCORE.INTRA.REPUL>
0.124791

>  <SCORE.INTRA.REPUL.0>
0

>  <SCORE.INTRA.SOLV>
5.46928

>  <SCORE.INTRA.SOLV.lig_0>
-116.606

>  <SCORE.INTRA.VDW>
7.37051

>  <SCORE.INTRA.VDW.0>
-6.01229

>  <SCORE.INTRA.norm>
0.331149

>  <SCORE.RESTR>
11.6546

>  <SCORE.RESTR.CAVITY>
11.6546

>  <SCORE.RESTR.norm>
0.277489

>  <SCORE.SYSTEM>
0

>  <SCORE.SYSTEM.CONST>
0

>  <SCORE.SYSTEM.DIHEDRAL>
0

>  <SCORE.SYSTEM.SOLV>
0

>  <SCORE.SYSTEM.norm>
0

>  <SCORE.heavy>
42

>  <SCORE.norm>
0.398924

>  <RMSD>
6.022

$$$$
2et4_lig
 OpenBabel11021811423D
libRbt.so/2013.1/901 2013/11/27
 42 45  0  0  0  0  0  0  0  0999 V2000
   13.1031    7.2068    8.2007 C   0  0  2  0  0  0  0  0  0  0  0  0
   12.4764    6.3660    9.1715 O   0  0  0  0  0  0  0  0  0  0  0  0
   13.2348    8.6157    8.8333 C   0  0  2  0  0  0  0  0  0  0  0  0
   13.9814    8.5709   10.0647 N   0  0  0  0  0  0  0  0  0  0  0  0
   11.8153    9.2110    9.0608 C   0  0  1  0  0  0  0  0  0  0  0  0
   11.9370   10.4840    9.6145 O   0  0  0  0  0  0  0  0  0  0  0  0
   11.0672    9.2311    7.6861 C   0  0  2  0  0  0  0  0  0  0  0  0
    9.7676    9.7589    7.8474 O   0  0  0  0  0  0  0  0  0  0  0  0
   10.9696    7.7956    7.0861 C   0  0  2  0  0  0  0  0  0  0  0  0
   12.2943    7.2727    6.9505 O   0  0  0  0  0  0  0  0  0  0  0  0
   10.2635    7.7829    5.6909 C   0  0  0  0  0  0  0  0  0  0  0  0
   10.0976    6.4645    5.1854 N   0  0  0  0  0  0  0  0  0  0  0  0
   13.7737    4.0720   12.5934 C   0  0  2  0  0  0  0  0  0  0  0  0
   14.3847    3.7469   13.8883 N   0  0  0  0  0  0  0  0  0  0  0  0
   14.9047    4.6680   11.5944 C   0  0  0  0  0  0  0  0  0  0  0  0
   14.2375    5.0301   10.2048 C   0  0  2  0  0  0  0  0  0  0  0  0
   15.2261    5.6004    9.2726 N   0  0  0  0  0  0  0  0  0  0  0  0
   13.0803    6.0598   10.4358 C   0  0  2  0  0  0  0  0  0  0  0  0
   12.0122    5.4837   11.4233 C   0  0  2  0  0  0  0  0  0  0  0  0
   11.0018    6.5101   11.5800 O   0  0  0  0  0  0  0  0  0  0  0  0
   12.6845    5.1390   12.7910 C   0  0  1  0  0  0  0  0  0  0  0  0
   11.7182    4.6182   13.6398 O   0  0  0  0  0  0  0  0  0  0  0  0
    9.7286    6.3023   11.9946 C   0  0  1  0  0  0  0  0  0  0  0  0
    9.4730    6.9798   13.3662 C   0  0  2  0  0  0  0  0  0  0  0  0
    9.8754    6.1937   14.4502 O   0  0  0  0  0  0  0  0  0  0  0  0
    7.9996    7.3071   13.2090 C   0  0  1  0  0  0  0  0  0  0  0  0
    7.7906    7.7126   11.7432 C   0  0  2  0  0  0  0  0  0  0  0  0
    8.7043    6.8213   11.1040 O   0  0  0  0  0  0  0  0  0  0  0  0
    8.1043    9.2100   11.4054 C   0  0  0  0  0  0  0  0  0  0  0  0
    9.5425    9.3857   11.5042 O   0  0  0  0  0  0  0  0  0  0  0  0
    7.0784    5.1012   12.5715 C   0  0  2  0  0  0  0  0  0  0  0  0
    7.2304    6.0845   13.5584 O   0  0  0  0  0  0  0  0  0  0  0  0
    5.7243    5.2990   11.7608 C   0  0  1  0  0  0  0  0  0  0  0  0
    5.9230    0.9713   14.0397 N   0  0  0  0  0  0  0  0  0  0  0  0
    5.6440    4.1048   10.6726 C   0  0  1  0  0  0  0  0  0  0  0  0
    6.8693    4.1935    9.7847 O   0  0  0  0  0  0  0  0  0  0  0  0
    5.5989    2.6719   11.4283 C   0  0  2  0  0  0  0  0  0  0  0  0
    4.4166    2.6081   12.2615 O   0  0  0  0  0  0  0  0  0  0  0  0
    6.9837    2.5221   12.2767 C   0  0  1  0  0  0  0  0  0  0  0  0
    7.1205    3.6861   13.2193 O   0  0  0  0  0  0  0  0  0  0  0  0
    7.0496    1.1750   13.0780 C   0  0  0  0  0  0  0  0  0  0  0  0
    4.5581    5.3155   12.7046 N   0  0  0  0  0  0  0  0  0  0  0  0
  1  2  1  1  0  0  0
  1  3  1  0  0  0  0
  1 10  1  0  0  0  0
  3  4  1  1  0  0  0
  3  5  1  0  0  0  0
  5  6  1  6  0  0  0
  5  7  1  0  0  0  0
  7  8  1  1  0  0  0
  7  9  1  0  0  0  0
  9 10  1  0  0  0  0
  9 11  1  6  0  0  0
 11 12  1  0  0  0  0
 13 14  1  1  0  0  0
 13 15  1  0  0  0  0
 13 21  1  0  0  0  0
 16 15  1  0  0  0  0
 16 17  1  6  0  0  0
 18  2  1  6  0  0  0
 18 16  1  0  0  0  0
 19 18  1  0  0  0  0
 19 20  1  1  0  0  0
 21 19  1  0  0  0  0
 21 22  1  1  0  0  0
 23 20  1  6  0  0  0
 23 24  1  0  0  0  0
 23 28  1  0  0  0  0
 24 25  1  1  0  0  0
 24 26  1  0  0  0  0
 26 27  1  0  0  0  0
 26 32  1  6  0  0  0
 27 28  1  0  0  0  0
 27 29  1  1  0  0  0
 29 30  1  0  0  0  0
 31 32  1  1  0  0  0
 31 40  1  0  0  0  0
 33 31  1  0  0  0  0
 33 42  1  1  0  0  0
 35 33  1  0  0  0  0
 35 36  1  6  0  0  0
 37 35  1  0  0  0  0
 37 38  1  1  0  0  0
 37 39  1  0  0  0  0
 39 40  1  0  0  0  0
 39 41  1  1  0  0  0
 41 34  1  0  0  0  0
M  END
>  <CHROM.1>
-63.35698487,-176.17033510,-74.65940539,158.43805025,114.24126517,-82.24253179
69.83346134,-93.35900254,-57.68814462,9.96009852,6.04829482,10.93654431,0.71234658
-0.04140278,-0.81989574

>  <Name>
2et4_lig

>  <RI>
0

>  <Rbt.Current_Directory>
/home/itssahil/PROJECTS/Mol_Feturizer/New_Systems/rnas/2et4

>  <Rbt.Executable>
rbdock ($Id: //depot/dev/client3/rdock/2013.1/src/exe/rbdock.cxx#4 $)

>  <Rbt.Library>
libRbt.so (2013.1, Build901 2013/11/27)

>  <Rbt.Parameter_File>
/export/apps/rDock/src/rDock_2013.1_src/data/scripts/dock_solv.prm

>  <Rbt.Receptor>
prm/pocket_docking_5.prm

>  <SCORE>
-1.10867

>  <SCORE.INTER>
-3.29064

>  <SCORE.INTER.CONST>
1

>  <SCORE.INTER.POLAR>
-0.802901

>  <SCORE.INTER.ROT>
9

>  <SCORE.INTER.SOLV>
15.8809

>  <SCORE.INTER.VDW>
-14.4111

>  <SCORE.INTER.norm>
-0.0783486

>  <SCORE.INTRA>
2.1689

>  <SCORE.INTRA.DIHEDRAL>
-4.61245

>  <SCORE.INTRA.DIHEDRAL.0>
21.6909

>  <SCORE.INTRA.POLAR>
0

>  <SCORE.INTRA.POLAR.0>
0

>  <SCORE.INTRA.REPUL>
0

>  <SCORE.INTRA.REPUL.0>
0

>  <SCORE.INTRA.SOLV>
3.6294

>  <SCORE.INTRA.SOLV.lig_0>
-116.606

>  <SCORE.INTRA.VDW>
2.66043

>  <SCORE.INTRA.VDW.0>
-6.01229

>  <SCORE.INTRA.norm>
0.0516405

>  <SCORE.RESTR>
0.013072

>  <SCORE.RESTR.CAVITY>
0.013072

>  <SCORE.RESTR.norm>
0.000311237

>  <SCORE.SYSTEM>
0

>  <SCORE.SYSTEM.CONST>
0

>  <SCORE.SYSTEM.DIHEDRAL>
0

>  <SCORE.SYSTEM.SOLV>
0

>  <SCORE.SYSTEM.norm>
0

>  <SCORE.heavy>
42

>  <SCORE.norm>
-0.0263969

>  <RMSD>
6.032

$$$$
2et4_lig
 OpenBabel11021811423D
libRbt.so/2013.1/901 2013/11/27
 42 45  0  0  0  0  0  0  0  0999 V2000
   11.3437    7.2051    4.5328 C   0  0  2  0  0  0  0  0  0  0  0  0
   11.6863    7.9010    3.3326 O   0  0  0  0  0  0  0  0  0  0  0  0
   12.4357    6.1298    4.7652 C   0  0  2  0  0  0  0  0  0  0  0  0
   13.7469    6.7214    4.8449 N   0  0  0  0  0  0  0  0  0  0  0  0
   12.3666    5.0733    3.6249 C   0  0  1  0  0  0  0  0  0  0  0  0
   13.3385    4.0993    3.8450 O   0  0  0  0  0  0  0  0  0  0  0  0
   10.9209    4.4740    3.6001 C   0  0  2  0  0  0  0  0  0  0  0  0
   10.8107    3.5126    2.5719 O   0  0  0  0  0  0  0  0  0  0  0  0
    9.8597    5.5934    3.3748 C   0  0  2  0  0  0  0  0  0  0  0  0
   10.0025    6.5658    4.4143 O   0  0  0  0  0  0  0  0  0  0  0  0
    8.3986    5.0361    3.3856 C   0  0  0  0  0  0  0  0  0  0  0  0
    8.0584    4.4462    4.6335 N   0  0  0  0  0  0  0  0  0  0  0  0
   14.3816   11.2604    3.0090 C   0  0  2  0  0  0  0  0  0  0  0  0
   14.8707   12.6447    3.0078 N   0  0  0  0  0  0  0  0  0  0  0  0
   13.2237   11.0932    1.8849 C   0  0  0  0  0  0  0  0  0  0  0  0
   12.6900    9.6025    1.9006 C   0  0  2  0  0  0  0  0  0  0  0  0
   11.6160    9.4115    0.9098 N   0  0  0  0  0  0  0  0  0  0  0  0
   12.1515    9.2577    3.3301 C   0  0  2  0  0  0  0  0  0  0  0  0
   13.2697    9.4510    4.4072 C   0  0  2  0  0  0  0  0  0  0  0  0
   12.6703    9.1236    5.6849 O   0  0  0  0  0  0  0  0  0  0  0  0
   13.7797   10.9278    4.3841 C   0  0  1  0  0  0  0  0  0  0  0  0
   14.7782   11.0656    5.3378 O   0  0  0  0  0  0  0  0  0  0  0  0
   13.1870    9.4358    6.8981 C   0  0  1  0  0  0  0  0  0  0  0  0
   12.2304    9.0001    8.0385 C   0  0  2  0  0  0  0  0  0  0  0  0
   11.2304    9.9403    8.3054 O   0  0  0  0  0  0  0  0  0  0  0  0
   13.2540    8.6972    9.1170 C   0  0  1  0  0  0  0  0  0  0  0  0
   14.4630    8.0640    8.4140 C   0  0  2  0  0  0  0  0  0  0  0  0
   14.4640    8.8099    7.1969 O   0  0  0  0  0  0  0  0  0  0  0  0
   14.3612    6.5225    8.1529 C   0  0  0  0  0  0  0  0  0  0  0  0
   14.2819    5.8670    9.4464 O   0  0  0  0  0  0  0  0  0  0  0  0
   12.6106   10.6434   10.5026 C   0  0  2  0  0  0  0  0  0  0  0  0
   13.6078    9.9838    9.7715 O   0  0  0  0  0  0  0  0  0  0  0  0
   13.1897   11.9246   11.2462 C   0  0  1  0  0  0  0  0  0  0  0  0
   11.3095    8.6660   14.3804 N   0  0  0  0  0  0  0  0  0  0  0  0
   11.9659   12.5888   12.0696 C   0  0  1  0  0  0  0  0  0  0  0  0
   10.8689   12.9375   11.0834 O   0  0  0  0  0  0  0  0  0  0  0  0
   11.4148   11.5428   13.1780 C   0  0  2  0  0  0  0  0  0  0  0  0
   12.4765   11.2332   14.1123 O   0  0  0  0  0  0  0  0  0  0  0  0
   10.8654   10.2299   12.3816 C   0  0  1  0  0  0  0  0  0  0  0  0
   11.9683    9.6650   11.5292 O   0  0  0  0  0  0  0  0  0  0  0  0
   10.3232    9.1254   13.3549 C   0  0  0  0  0  0  0  0  0  0  0  0
   14.3443   11.5333   12.1205 N   0  0  0  0  0  0  0  0  0  0  0  0
  1  2  1  6  0  0  0
  1  3  1  0  0  0  0
  1 10  1  0  0  0  0
  3  4  1  6  0  0  0
  3  5  1  0  0  0  0
  5  6  1  1  0  0  0
  5  7  1  0  0  0  0
  7  8  1  6  0  0  0
  7  9  1  0  0  0  0
  9 10  1  0  0  0  0
  9 11  1  1  0  0  0
 11 12  1  0  0  0  0
 13 14  1  1  0  0  0
 13 15  1  0  0  0  0
 13 21  1  0  0  0  0
 16 15  1  0  0  0  0
 16 17  1  6  0  0  0
 18  2  1  6  0  0  0
 18 16  1  0  0  0  0
 19 18  1  0  0  0  0
 19 20  1  1  0  0  0
 21 19  1  0  0  0  0
 21 22  1  1  0  0  0
 23 20  1  6  0  0  0
 23 24  1  0  0  0  0
 23 28  1  0  0  0  0
 24 25  1  1  0  0  0
 24 26  1  0  0  0  0
 26 27  1  0  0  0  0
 26 32  1  6  0  0  0
 27 28  1  0  0  0  0
 27 29  1  6  0  0  0
 29 30  1  0  0  0  0
 31 32  1  1  0  0  0
 31 40  1  0  0  0  0
 33 31  1  0  0  0  0
 33 42  1  1  0  0  0
 35 33  1  0  0  0  0
 35 36  1  6  0  0  0
 37 35  1  0  0  0  0
 37 38  1  1  0  0  0
 37 39  1  0  0  0  0
 39 40  1  0  0  0  0
 39 41  1  1  0  0  0
 41 34  1  0  0  0  0
M  END
>  <CHROM.1>
-109.52490649,61.78891103,169.14023691,-164.50193661,176.61670466,65.92584263
-62.79592169,174.63916408,-56.30405082,12.35523992,8.72004680,6.98069001
1.69110743,-1.10819929,-1.86567722

>  <Name>
2et4_lig

>  <RI>
0

>  <Rbt.Current_Directory>
/home/itssahil/PROJECTS/Mol_Feturizer/New_Systems/rnas/2et4

>  <Rbt.Executable>
rbdock ($Id: //depot/dev/client3/rdock/2013.1/src/exe/rbdock.cxx#4 $)

>  <Rbt.Library>
libRbt.so (2013.1, Build901 2013/11/27)

>  <Rbt.Parameter_File>
/export/apps/rDock/src/rDock_2013.1_src/data/scripts/dock_solv.prm

>  <Rbt.Receptor>
prm/pocket_docking_6.prm

>  <SCORE>
-12.3329

>  <SCORE.INTER>
-11.1039

>  <SCORE.INTER.CONST>
1

>  <SCORE.INTER.POLAR>
-1.48932

>  <SCORE.INTER.ROT>
9

>  <SCORE.INTER.SOLV>
25.9518

>  <SCORE.INTER.VDW>
-20.6887

>  <SCORE.INTER.norm>
-0.264377

>  <SCORE.INTRA>
-1.22905

>  <SCORE.INTRA.DIHEDRAL>
-12.6989

>  <SCORE.INTRA.DIHEDRAL.0>
21.6909

>  <SCORE.INTRA.POLAR>
0

>  <SCORE.INTRA.POLAR.0>
0

>  <SCORE.INTRA.REPUL>
0

>  <SCORE.INTRA.REPUL.0>
0

>  <SCORE.INTRA.SOLV>
2.59833

>  <SCORE.INTRA.SOLV.lig_0>
-116.606

>  <SCORE.INTRA.VDW>
3.82123

>  <SCORE.INTRA.VDW.0>
-6.01229

>  <SCORE.INTRA.norm>
-0.0292632

>  <SCORE.RESTR>
0

>  <SCORE.RESTR.CAVITY>
0

>  <SCORE.RESTR.norm>
0

>  <SCORE.SYSTEM>
0

>  <SCORE.SYSTEM.CONST>
0

>  <SCORE.SYSTEM.DIHEDRAL>
0

>  <SCORE.SYSTEM.SOLV>
0

>  <SCORE.SYSTEM.norm>
0

>  <SCORE.heavy>
42

>  <SCORE.norm>
-0.293641

>  <RMSD>
6.055

$$$$
2et4_lig
 OpenBabel11021811423D
libRbt.so/2013.1/901 2013/11/27
 42 45  0  0  0  0  0  0  0  0999 V2000
   13.0349   10.1032    4.8950 C   0  0  2  0  0  0  0  0  0  0  0  0
   14.3880    9.6435    4.8967 O   0  0  0  0  0  0  0  0  0  0  0  0
   12.1257    8.8478    4.9026 C   0  0  2  0  0  0  0  0  0  0  0  0
   12.4035    8.0049    6.0375 N   0  0  0  0  0  0  0  0  0  0  0  0
   12.3137    8.0698    3.5682 C   0  0  1  0  0  0  0  0  0  0  0  0
   11.4833    6.9507    3.5709 O   0  0  0  0  0  0  0  0  0  0  0  0
   11.9937    9.0432    2.3850 C   0  0  2  0  0  0  0  0  0  0  0  0
   12.1590    8.3787    1.1503 O   0  0  0  0  0  0  0  0  0  0  0  0
   12.9249   10.2926    2.4266 C   0  0  2  0  0  0  0  0  0  0  0  0
   12.7568   10.9382    3.6922 O   0  0  0  0  0  0  0  0  0  0  0  0
   12.6054   11.3086    1.2816 C   0  0  0  0  0  0  0  0  0  0  0  0
   12.8429   10.7571   -0.0070 N   0  0  0  0  0  0  0  0  0  0  0  0
   16.6447   12.0060    2.0717 C   0  0  2  0  0  0  0  0  0  0  0  0
   17.7431   12.7870    1.4893 N   0  0  0  0  0  0  0  0  0  0  0  0
   16.1363   12.7197    3.4372 C   0  0  0  0  0  0  0  0  0  0  0  0
   14.9618   11.8656    4.0684 C   0  0  2  0  0  0  0  0  0  0  0  0
   14.4854   12.4651    5.3275 N   0  0  0  0  0  0  0  0  0  0  0  0
   15.4661   10.4080    4.3400 C   0  0  2  0  0  0  0  0  0  0  0  0
   15.9800    9.7426    3.0205 C   0  0  2  0  0  0  0  0  0  0  0  0
   16.4339    8.4145    3.3801 O   0  0  0  0  0  0  0  0  0  0  0  0
   17.1429   10.5926    2.4150 C   0  0  1  0  0  0  0  0  0  0  0  0
   17.5681    9.9872    1.2410 O   0  0  0  0  0  0  0  0  0  0  0  0
   16.5880    7.9526    4.6447 C   0  0  1  0  0  0  0  0  0  0  0  0
   16.4626    6.4074    4.6912 C   0  0  2  0  0  0  0  0  0  0  0  0
   15.1382    5.9664    4.7710 O   0  0  0  0  0  0  0  0  0  0  0  0
   17.3992    6.1186    5.8497 C   0  0  1  0  0  0  0  0  0  0  0  0
   18.5662    7.1091    5.7325 C   0  0  2  0  0  0  0  0  0  0  0  0
   17.8705    8.2604    5.2548 O   0  0  0  0  0  0  0  0  0  0  0  0
   19.7202    6.6813    4.7629 C   0  0  0  0  0  0  0  0  0  0  0  0
   20.7315    7.7227    4.8048 O   0  0  0  0  0  0  0  0  0  0  0  0
   17.0121    5.5758    8.2323 C   0  0  2  0  0  0  0  0  0  0  0  0
   16.6307    6.3175    7.1061 O   0  0  0  0  0  0  0  0  0  0  0  0
   16.6944    4.0291    8.0417 C   0  0  1  0  0  0  0  0  0  0  0  0
   14.3429    5.8760   11.9247 N   0  0  0  0  0  0  0  0  0  0  0  0
   17.1518    3.2798    9.4004 C   0  0  1  0  0  0  0  0  0  0  0  0
   18.6290    3.5464    9.6111 O   0  0  0  0  0  0  0  0  0  0  0  0
   16.2939    3.8412   10.6555 C   0  0  2  0  0  0  0  0  0  0  0  0
   14.8895    3.5665   10.4354 O   0  0  0  0  0  0  0  0  0  0  0  0
   16.6161    5.4337   10.7957 C   0  0  1  0  0  0  0  0  0  0  0  0
   16.2930    6.1247    9.4995 O   0  0  0  0  0  0  0  0  0  0  0  0
   15.8201    6.1024   11.9706 C   0  0  0  0  0  0  0  0  0  0  0  0
   15.2405    3.8384    7.7245 N   0  0  0  0  0  0  0  0  0  0  0  0
  1  2  1  6  0  0  0
  1  3  1  0  0  0  0
  1 10  1  0  0  0  0
  3  4  1  1  0  0  0
  3  5  1  0  0  0  0
  5  6  1  1  0  0  0
  5  7  1  0  0  0  0
  7  8  1  6  0  0  0
  7  9  1  0  0  0  0
  9 10  1  0  0  0  0
  9 11  1  6  0  0  0
 11 12  1  0  0  0  0
 13 14  1  1  0  0  0
 13 15  1  0  0  0  0
 13 21  1  0  0  0  0
 16 15  1  0  0  0  0
 16 17  1  1  0  0  0
 18  2  1  6  0  0  0
 18 16  1  0  0  0  0
 19 18  1  0  0  0  0
 19 20  1  1  0  0  0
 21 19  1  0  0  0  0
 21 22  1  6  0  0  0
 23 20  1  6  0  0  0
 23 24  1  0  0  0  0
 23 28  1  0  0  0  0
 24 25  1  1  0  0  0
 24 26  1  0  0  0  0
 26 27  1  0  0  0  0
 26 32  1  1  0  0  0
 27 28  1  0  0  0  0
 27 29  1  6  0  0  0
 29 30  1  0  0  0  0
 31 32  1  6  0  0  0
 31 40  1  0  0  0  0
 33 31  1  0  0  0  0
 33 42  1  1  0  0  0
 35 33  1  0  0  0  0
 35 36  1  1  0  0  0
 37 35  1  0  0  0  0
 37 38  1  6  0  0  0
 37 39  1  0  0  0  0
 39 40  1  0  0  0  0
 39 41  1  1  0  0  0
 41 34  1  0  0  0  0
M  END
>  <CHROM.1>
152.80489570,-63.79354198,12.56699745,-10.22417576,154.67257169,151.61165172
-178.98668964,-68.73782055,-53.31047477,15.52634619,8.00023258,5.36753393
1.79792459,0.02052165,-0.88064894

>  <Name>
2et4_lig

>  <RI>
0

>  <Rbt.Current_Directory>
/home/itssahil/PROJECTS/Mol_Feturizer/New_Systems/rnas/2et4

>  <Rbt.Executable>
rbdock ($Id: //depot/dev/client3/rdock/2013.1/src/exe/rbdock.cxx#4 $)

>  <Rbt.Library>
libRbt.so (2013.1, Build901 2013/11/27)

>  <Rbt.Parameter_File>
/export/apps/rDock/src/rDock_2013.1_src/data/scripts/dock_solv.prm

>  <Rbt.Receptor>
prm/blind_docking_80.prm

>  <SCORE>
10.2463

>  <SCORE.INTER>
-11.6589

>  <SCORE.INTER.CONST>
1

>  <SCORE.INTER.POLAR>
-0.327505

>  <SCORE.INTER.ROT>
9

>  <SCORE.INTER.SOLV>
29.1001

>  <SCORE.INTER.VDW>
-25.9809

>  <SCORE.INTER.norm>
-0.277593

>  <SCORE.INTRA>
9.28721

>  <SCORE.INTRA.DIHEDRAL>
1.25559

>  <SCORE.INTRA.DIHEDRAL.0>
21.6909

>  <SCORE.INTRA.POLAR>
0

>  <SCORE.INTRA.POLAR.0>
0

>  <SCORE.INTRA.REPUL>
0

>  <SCORE.INTRA.REPUL.0>
0

>  <SCORE.INTRA.SOLV>
1.55549

>  <SCORE.INTRA.SOLV.lig_0>
-116.606

>  <SCORE.INTRA.VDW>
7.88167

>  <SCORE.INTRA.VDW.0>
-6.01229

>  <SCORE.INTRA.norm>
0.221124

>  <SCORE.RESTR>
12.618

>  <SCORE.RESTR.CAVITY>
12.618

>  <SCORE.RESTR.norm>
0.300428

>  <SCORE.SYSTEM>
0

>  <SCORE.SYSTEM.CONST>
0

>  <SCORE.SYSTEM.DIHEDRAL>
0

>  <SCORE.SYSTEM.SOLV>
0

>  <SCORE.SYSTEM.norm>
0

>  <SCORE.heavy>
42

>  <SCORE.norm>
0.24396

>  <RMSD>
6.082

$$$$
2et4_lig
 OpenBabel11021811423D
libRbt.so/2013.1/901 2013/11/27
 42 45  0  0  0  0  0  0  0  0999 V2000
   16.2023   10.0901    3.1136 C   0  0  2  0  0  0  0  0  0  0  0  0
   14.9891   10.1970    2.3659 O   0  0  0  0  0  0  0  0  0  0  0  0
   16.3465   11.3940    3.9393 C   0  0  2  0  0  0  0  0  0  0  0  0
   15.2065   11.6026    4.7952 N   0  0  0  0  0  0  0  0  0  0  0  0
   16.5465   12.5954    2.9709 C   0  0  1  0  0  0  0  0  0  0  0  0
   16.6921   13.7638    3.7162 O   0  0  0  0  0  0  0  0  0  0  0  0
   17.7982   12.3012    2.0783 C   0  0  2  0  0  0  0  0  0  0  0  0
   18.0133   13.3660    1.1763 O   0  0  0  0  0  0  0  0  0  0  0  0
   17.6100   10.9773    1.2772 C   0  0  2  0  0  0  0  0  0  0  0  0
   17.3734    9.9169    2.2080 O   0  0  0  0  0  0  0  0  0  0  0  0
   18.8602   10.6295    0.4046 C   0  0  0  0  0  0  0  0  0  0  0  0
   19.2174   11.6927   -0.4691 N   0  0  0  0  0  0  0  0  0  0  0  0
   11.3197    8.7288    4.1079 C   0  0  2  0  0  0  0  0  0  0  0  0
   10.1585    7.8670    4.3623 N   0  0  0  0  0  0  0  0  0  0  0  0
   11.2886    9.2403    2.5685 C   0  0  0  0  0  0  0  0  0  0  0  0
   12.5505   10.1571    2.2959 C   0  0  2  0  0  0  0  0  0  0  0  0
   12.5765   10.6246    0.8985 N   0  0  0  0  0  0  0  0  0  0  0  0
   13.8566    9.3493    2.6025 C   0  0  2  0  0  0  0  0  0  0  0  0
   13.8598    8.8378    4.0811 C   0  0  2  0  0  0  0  0  0  0  0  0
   15.0924    8.0968    4.2567 O   0  0  0  0  0  0  0  0  0  0  0  0
   12.6136    7.9291    4.3314 C   0  0  1  0  0  0  0  0  0  0  0  0
   12.6355    7.5025    5.6517 O   0  0  0  0  0  0  0  0  0  0  0  0
   15.7231    7.8899    5.4381 C   0  0  1  0  0  0  0  0  0  0  0  0
   15.6981    6.3884    5.8260 C   0  0  2  0  0  0  0  0  0  0  0  0
   14.5189    6.0084    6.4741 O   0  0  0  0  0  0  0  0  0  0  0  0
   17.0080    6.3086    6.5879 C   0  0  1  0  0  0  0  0  0  0  0  0
   18.0008    7.2239    5.8577 C   0  0  2  0  0  0  0  0  0  0  0  0
   17.1236    8.2768    5.4582 O   0  0  0  0  0  0  0  0  0  0  0  0
   18.7362    6.5813    4.6325 C   0  0  0  0  0  0  0  0  0  0  0  0
   17.7195    6.1857    3.6740 O   0  0  0  0  0  0  0  0  0  0  0  0
   15.9983    5.9384    8.8162 C   0  0  2  0  0  0  0  0  0  0  0  0
   16.7471    6.7730    7.9754 O   0  0  0  0  0  0  0  0  0  0  0  0
   15.7442    6.6194   10.2309 C   0  0  1  0  0  0  0  0  0  0  0  0
   18.3284    2.4632   10.2481 N   0  0  0  0  0  0  0  0  0  0  0  0
   14.8970    5.5660   11.1192 C   0  0  1  0  0  0  0  0  0  0  0  0
   13.6076    5.2593   10.3837 O   0  0  0  0  0  0  0  0  0  0  0  0
   15.7575    4.2100   11.3363 C   0  0  2  0  0  0  0  0  0  0  0  0
   16.9777    4.5272   12.0481 O   0  0  0  0  0  0  0  0  0  0  0  0
   16.0297    3.5620    9.8646 C   0  0  1  0  0  0  0  0  0  0  0  0
   16.7247    4.5729    8.9945 O   0  0  0  0  0  0  0  0  0  0  0  0
   16.8813    2.2466    9.9402 C   0  0  0  0  0  0  0  0  0  0  0  0
   17.0517    7.0024   10.8591 N   0  0  0  0  0  0  0  0  0  0  0  0
  1  2  1  6  0  0  0
  1  3  1  0  0  0  0
  1 10  1  0  0  0  0
  3  4  1  6  0  0  0
  3  5  1  0  0  0  0
  5  6  1  1  0  0  0
  5  7  1  0  0  0  0
  7  8  1  6  0  0  0
  7  9  1  0  0  0  0
  9 10  1  0  0  0  0
  9 11  1  1  0  0  0
 11 12  1  0  0  0  0
 13 14  1  6  0  0  0
 13 15  1  0  0  0  0
 13 21  1  0  0  0  0
 16 15  1  0  0  0  0
 16 17  1  6  0  0  0
 18  2  1  1  0  0  0
 18 16  1  0  0  0  0
 19 18  1  0  0  0  0
 19 20  1  6  0  0  0
 21 19  1  0  0  0  0
 21 22  1  1  0  0  0
 23 20  1  6  0  0  0
 23 24  1  0  0  0  0
 23 28  1  0  0  0  0
 24 25  1  1  0  0  0
 24 26  1  0  0  0  0
 26 27  1  0  0  0  0
 26 32  1  1  0  0  0
 27 28  1  0  0  0  0
 27 29  1  6  0  0  0
 29 30  1  0  0  0  0
 31 32  1  6  0  0  0
 31 40  1  0  0  0  0
 33 31  1  0  0  0  0
 33 42  1  1  0  0  0
 35 33  1  0  0  0  0
 35 36  1  6  0  0  0
 37 35  1  0  0  0  0
 37 38  1  6  0  0  0
 37 39  1  0  0  0  0
 39 40  1  0  0  0  0
 39 41  1  1  0  0  0
 41 34  1  0  0  0  0
M  END
>  <CHROM.1>
-113.72308987,-54.89451079,147.93957567,155.39379718,113.55199752,71.36967485
60.01933137,-176.81440768,-73.49882995,15.73774154,8.09961315,5.44835919
-1.58212002,0.06041923,2.25559245

>  <Name>
2et4_lig

>  <RI>
0

>  <Rbt.Current_Directory>
/home/itssahil/PROJECTS/Mol_Feturizer/New_Systems/rnas/2et4

>  <Rbt.Executable>
rbdock ($Id: //depot/dev/client3/rdock/2013.1/src/exe/rbdock.cxx#4 $)

>  <Rbt.Library>
libRbt.so (2013.1, Build901 2013/11/27)

>  <Rbt.Parameter_File>
/export/apps/rDock/src/rDock_2013.1_src/data/scripts/dock_solv.prm

>  <Rbt.Receptor>
prm/blind_docking_80.prm

>  <SCORE>
15.9233

>  <SCORE.INTER>
-3.34634

>  <SCORE.INTER.CONST>
1

>  <SCORE.INTER.POLAR>
-0.394742

>  <SCORE.INTER.ROT>
9

>  <SCORE.INTER.SOLV>
39.8019

>  <SCORE.INTER.VDW>
-23.7824

>  <SCORE.INTER.norm>
-0.0796748

>  <SCORE.INTRA>
4.6732

>  <SCORE.INTRA.DIHEDRAL>
0.457242

>  <SCORE.INTRA.DIHEDRAL.0>
21.6909

>  <SCORE.INTRA.POLAR>
0

>  <SCORE.INTRA.POLAR.0>
0

>  <SCORE.INTRA.REPUL>
0

>  <SCORE.INTRA.REPUL.0>
0

>  <SCORE.INTRA.SOLV>
1.46625

>  <SCORE.INTRA.SOLV.lig_0>
-116.606

>  <SCORE.INTRA.VDW>
3.71145

>  <SCORE.INTRA.VDW.0>
-6.01229

>  <SCORE.INTRA.norm>
0.111267

>  <SCORE.RESTR>
14.5964

>  <SCORE.RESTR.CAVITY>
14.5964

>  <SCORE.RESTR.norm>
0.347534

>  <SCORE.SYSTEM>
0

>  <SCORE.SYSTEM.CONST>
0

>  <SCORE.SYSTEM.DIHEDRAL>
0

>  <SCORE.SYSTEM.SOLV>
0

>  <SCORE.SYSTEM.norm>
0

>  <SCORE.heavy>
42

>  <SCORE.norm>
0.379126

>  <RMSD>
6.090

$$$$
2et4_lig
 OpenBabel11021811423D
libRbt.so/2013.1/901 2013/11/27
 42 45  0  0  0  0  0  0  0  0999 V2000
   17.4196    3.4951    5.6940 C   0  0  2  0  0  0  0  0  0  0  0  0
   16.4869    3.6386    6.7671 O   0  0  0  0  0  0  0  0  0  0  0  0
   18.8381    3.6622    6.2959 C   0  0  2  0  0  0  0  0  0  0  0  0
   19.0790    2.7060    7.3463 N   0  0  0  0  0  0  0  0  0  0  0  0
   19.0067    5.1191    6.8159 C   0  0  1  0  0  0  0  0  0  0  0  0
   20.2882    5.2711    7.3418 O   0  0  0  0  0  0  0  0  0  0  0  0
   18.7339    6.0981    5.6255 C   0  0  2  0  0  0  0  0  0  0  0  0
   18.8693    7.4361    6.0555 O   0  0  0  0  0  0  0  0  0  0  0  0
   17.3017    5.8847    5.0483 C   0  0  2  0  0  0  0  0  0  0  0  0
   17.1796    4.5196    4.6383 O   0  0  0  0  0  0  0  0  0  0  0  0
   17.0086    6.8188    3.8289 C   0  0  0  0  0  0  0  0  0  0  0  0
   16.9281    8.1867    4.2078 N   0  0  0  0  0  0  0  0  0  0  0  0
   12.7357    2.5537    4.9215 C   0  0  2  0  0  0  0  0  0  0  0  0
   11.3156    2.2107    4.7750 N   0  0  0  0  0  0  0  0  0  0  0  0
   13.4589    1.4690    5.8873 C   0  0  0  0  0  0  0  0  0  0  0  0
   14.9863    1.8520    6.0532 C   0  0  2  0  0  0  0  0  0  0  0  0
   15.6782    0.9053    6.9458 N   0  0  0  0  0  0  0  0  0  0  0  0
   15.0991    3.3007    6.6372 C   0  0  2  0  0  0  0  0  0  0  0  0
   14.3729    4.3316    5.7111 C   0  0  2  0  0  0  0  0  0  0  0  0
   14.5216    5.6270    6.3427 O   0  0  0  0  0  0  0  0  0  0  0  0
   12.8663    3.9443    5.5641 C   0  0  1  0  0  0  0  0  0  0  0  0
   12.2523    4.8661    4.7281 O   0  0  0  0  0  0  0  0  0  0  0  0
   13.7928    6.0774    7.3926 C   0  0  1  0  0  0  0  0  0  0  0  0
   14.3223    7.4479    7.8897 C   0  0  2  0  0  0  0  0  0  0  0  0
   15.3946    7.3321    8.7795 O   0  0  0  0  0  0  0  0  0  0  0  0
   13.0213    8.0487    8.3888 C   0  0  1  0  0  0  0  0  0  0  0  0
   11.9238    7.5986    7.4143 C   0  0  2  0  0  0  0  0  0  0  0  0
   12.3812    6.2803    7.1134 O   0  0  0  0  0  0  0  0  0  0  0  0
   11.7686    8.4710    6.1222 C   0  0  0  0  0  0  0  0  0  0  0  0
   12.9628    8.2747    5.3194 O   0  0  0  0  0  0  0  0  0  0  0  0
   13.5386    8.0815   10.8080 C   0  0  2  0  0  0  0  0  0  0  0  0
   12.7870    7.5300    9.7616 O   0  0  0  0  0  0  0  0  0  0  0  0
   13.1550    7.4250   12.2050 C   0  0  1  0  0  0  0  0  0  0  0  0
   13.7324   12.4426   10.4527 N   0  0  0  0  0  0  0  0  0  0  0  0
   14.0609    8.1477   13.3336 C   0  0  1  0  0  0  0  0  0  0  0  0
   15.5182    7.9362   12.9745 O   0  0  0  0  0  0  0  0  0  0  0  0
   13.7180    9.7308   13.3857 C   0  0  2  0  0  0  0  0  0  0  0  0
   12.3251    9.9066   13.7394 O   0  0  0  0  0  0  0  0  0  0  0  0
   14.0883   10.3602   11.9275 C   0  0  1  0  0  0  0  0  0  0  0  0
   13.3294    9.6235   10.8582 O   0  0  0  0  0  0  0  0  0  0  0  0
   13.7756   11.8952   11.8434 C   0  0  0  0  0  0  0  0  0  0  0  0
   11.6820    7.5666   12.4522 N   0  0  0  0  0  0  0  0  0  0  0  0
  1  2  1  1  0  0  0
  1  3  1  0  0  0  0
  1 10  1  0  0  0  0
  3  4  1  1  0  0  0
  3  5  1  0  0  0  0
  5  6  1  6  0  0  0
  5  7  1  0  0  0  0
  7  8  1  1  0  0  0
  7  9  1  0  0  0  0
  9 10  1  0  0  0  0
  9 11  1  6  0  0  0
 11 12  1  0  0  0  0
 13 14  1  1  0  0  0
 13 15  1  0  0  0  0
 13 21  1  0  0  0  0
 16 15  1  0  0  0  0
 16 17  1  1  0  0  0
 18  2  1  6  0  0  0
 18 16  1  0  0  0  0
 19 18  1  0  0  0  0
 19 20  1  1  0  0  0
 21 19  1  0  0  0  0
 21 22  1  6  0  0  0
 23 20  1  6  0  0  0
 23 24  1  0  0  0  0
 23 28  1  0  0  0  0
 24 25  1  1  0  0  0
 24 26  1  0  0  0  0
 26 27  1  0  0  0  0
 26 32  1  1  0  0  0
 27 28  1  0  0  0  0
 27 29  1  6  0  0  0
 29 30  1  0  0  0  0
 31 32  1  6  0  0  0
 31 40  1  0  0  0  0
 33 31  1  0  0  0  0
 33 42  1  1  0  0  0
 35 33  1  0  0  0  0
 35 36  1  6  0  0  0
 37 35  1  0  0  0  0
 37 38  1  6  0  0  0
 37 39  1  0  0  0  0
 39 40  1  0  0  0  0
 39 41  1  1  0  0  0
 41 34  1  0  0  0  0
M  END
>  <CHROM.1>
-168.06729925,-67.96291441,51.20326904,-78.61333908,174.37076597,76.34074166
67.72733218,179.48594029,-163.92292518,14.80575226,6.31980328,7.84733248
-1.24359662,0.07050473,0.80621988

>  <Name>
2et4_lig

>  <RI>
0

>  <Rbt.Current_Directory>
/home/itssahil/PROJECTS/Mol_Feturizer/New_Systems/rnas/2et4

>  <Rbt.Executable>
rbdock ($Id: //depot/dev/client3/rdock/2013.1/src/exe/rbdock.cxx#4 $)

>  <Rbt.Library>
libRbt.so (2013.1, Build901 2013/11/27)

>  <Rbt.Parameter_File>
/export/apps/rDock/src/rDock_2013.1_src/data/scripts/dock_solv.prm

>  <Rbt.Receptor>
prm/pocket_docking_8.prm

>  <SCORE>
-11.8626

>  <SCORE.INTER>
-4.50882

>  <SCORE.INTER.CONST>
1

>  <SCORE.INTER.POLAR>
-1.31678

>  <SCORE.INTER.ROT>
9

>  <SCORE.INTER.SOLV>
17.0047

>  <SCORE.INTER.VDW>
-13.8848

>  <SCORE.INTER.norm>
-0.107353

>  <SCORE.INTRA>
-7.35376

>  <SCORE.INTRA.DIHEDRAL>
-16.2129

>  <SCORE.INTRA.DIHEDRAL.0>
21.6909

>  <SCORE.INTRA.POLAR>
0

>  <SCORE.INTRA.POLAR.0>
0

>  <SCORE.INTRA.REPUL>
0

>  <SCORE.INTRA.REPUL.0>
0

>  <SCORE.INTRA.SOLV>
-1.20383

>  <SCORE.INTRA.SOLV.lig_0>
-116.606

>  <SCORE.INTRA.VDW>
1.35462

>  <SCORE.INTRA.VDW.0>
-6.01229

>  <SCORE.INTRA.norm>
-0.17509

>  <SCORE.RESTR>
0

>  <SCORE.RESTR.CAVITY>
0

>  <SCORE.RESTR.norm>
0

>  <SCORE.SYSTEM>
0

>  <SCORE.SYSTEM.CONST>
0

>  <SCORE.SYSTEM.DIHEDRAL>
0

>  <SCORE.SYSTEM.SOLV>
0

>  <SCORE.SYSTEM.norm>
0

>  <SCORE.heavy>
42

>  <SCORE.norm>
-0.282442

>  <RMSD>
6.091

$$$$
2et4_lig
 OpenBabel11021811423D
libRbt.so/2013.1/901 2013/11/27
 42 45  0  0  0  0  0  0  0  0999 V2000
   13.0951   10.4009    4.5066 C   0  0  2  0  0  0  0  0  0  0  0  0
   14.4394    9.9448    4.6704 O   0  0  0  0  0  0  0  0  0  0  0  0
   12.1672    9.1811    4.7389 C   0  0  2  0  0  0  0  0  0  0  0  0
   12.3806    8.5991    6.0395 N   0  0  0  0  0  0  0  0  0  0  0  0
   12.4032    8.1346    3.6119 C   0  0  1  0  0  0  0  0  0  0  0  0
   11.5564    7.0465    3.8141 O   0  0  0  0  0  0  0  0  0  0  0  0
   12.1518    8.8340    2.2343 C   0  0  2  0  0  0  0  0  0  0  0  0
   12.3624    7.9198    1.1792 O   0  0  0  0  0  0  0  0  0  0  0  0
   13.0994   10.0583    2.0522 C   0  0  2  0  0  0  0  0  0  0  0  0
   12.8844   10.9607    3.1414 O   0  0  0  0  0  0  0  0  0  0  0  0
   12.8475   10.8074    0.7029 C   0  0  0  0  0  0  0  0  0  0  0  0
   13.6326   11.9872    0.5893 N   0  0  0  0  0  0  0  0  0  0  0  0
   16.8645   11.9932    1.7415 C   0  0  2  0  0  0  0  0  0  0  0  0
   18.0092   12.6828    1.1336 N   0  0  0  0  0  0  0  0  0  0  0  0
   16.3525   12.8285    3.0348 C   0  0  0  0  0  0  0  0  0  0  0  0
   15.1274   12.0728    3.6947 C   0  0  2  0  0  0  0  0  0  0  0  0
   14.6451   12.7848    4.8913 N   0  0  0  0  0  0  0  0  0  0  0  0
   15.5626   10.6209    4.0887 C   0  0  2  0  0  0  0  0  0  0  0  0
   16.0811    9.8370    2.8379 C   0  0  2  0  0  0  0  0  0  0  0  0
   16.4692    8.5229    3.3086 O   0  0  0  0  0  0  0  0  0  0  0  0
   17.2937   10.5911    2.2036 C   0  0  1  0  0  0  0  0  0  0  0  0
   17.7224    9.8816    1.0907 O   0  0  0  0  0  0  0  0  0  0  0  0
   16.5383    8.1425    4.6074 C   0  0  1  0  0  0  0  0  0  0  0  0
   16.1898    6.6395    4.7656 C   0  0  2  0  0  0  0  0  0  0  0  0
   14.8146    6.4004    4.8462 O   0  0  0  0  0  0  0  0  0  0  0  0
   17.0595    6.3094    5.9646 C   0  0  1  0  0  0  0  0  0  0  0  0
   18.3591    7.1103    5.8021 C   0  0  2  0  0  0  0  0  0  0  0  0
   17.8438    8.3092    5.2236 O   0  0  0  0  0  0  0  0  0  0  0  0
   19.4515    6.4480    4.8950 C   0  0  0  0  0  0  0  0  0  0  0  0
   19.9864    5.3091    5.6201 O   0  0  0  0  0  0  0  0  0  0  0  0
   16.8965    6.4476    8.4295 C   0  0  2  0  0  0  0  0  0  0  0  0
   16.3116    6.7127    7.1839 O   0  0  0  0  0  0  0  0  0  0  0  0
   17.3571    4.9293    8.5415 C   0  0  1  0  0  0  0  0  0  0  0  0
   14.7926    8.3848   11.8734 N   0  0  0  0  0  0  0  0  0  0  0  0
   17.9924    4.7338   10.0162 C   0  0  1  0  0  0  0  0  0  0  0  0
   19.1488    5.7026   10.1633 O   0  0  0  0  0  0  0  0  0  0  0  0
   16.8666    5.0255   11.1449 C   0  0  2  0  0  0  0  0  0  0  0  0
   15.7788    4.0828   10.9896 O   0  0  0  0  0  0  0  0  0  0  0  0
   16.3930    6.5768   10.9745 C   0  0  1  0  0  0  0  0  0  0  0  0
   15.8977    6.7967    9.5716 O   0  0  0  0  0  0  0  0  0  0  0  0
   15.2784    6.9767   12.0036 C   0  0  0  0  0  0  0  0  0  0  0  0
   16.1949    4.0188    8.2750 N   0  0  0  0  0  0  0  0  0  0  0  0
  1  2  1  6  0  0  0
  1  3  1  0  0  0  0
  1 10  1  0  0  0  0
  3  4  1  1  0  0  0
  3  5  1  0  0  0  0
  5  6  1  1  0  0  0
  5  7  1  0  0  0  0
  7  8  1  6  0  0  0
  7  9  1  0  0  0  0
  9 10  1  0  0  0  0
  9 11  1  6  0  0  0
 11 12  1  0  0  0  0
 13 14  1  1  0  0  0
 13 15  1  0  0  0  0
 13 21  1  0  0  0  0
 16 15  1  0  0  0  0
 16 17  1  1  0  0  0
 18  2  1  6  0  0  0
 18 16  1  0  0  0  0
 19 18  1  0  0  0  0
 19 20  1  1  0  0  0
 21 19  1  0  0  0  0
 21 22  1  6  0  0  0
 23 20  1  6  0  0  0
 23 24  1  0  0  0  0
 23 28  1  0  0  0  0
 24 25  1  1  0  0  0
 24 26  1  0  0  0  0
 26 27  1  0  0  0  0
 26 32  1  1  0  0  0
 27 28  1  0  0  0  0
 27 29  1  6  0  0  0
 29 30  1  0  0  0  0
 31 32  1  6  0  0  0
 31 40  1  0  0  0  0
 33 31  1  0  0  0  0
 33 42  1  1  0  0  0
 35 33  1  0  0  0  0
 35 36  1  1  0  0  0
 37 35  1  0  0  0  0
 37 38  1  6  0  0  0
 37 39  1  0  0  0  0
 39 40  1  0  0  0  0
 39 41  1  1  0  0  0
 41 34  1  0  0  0  0
M  END
>  <CHROM.1>
157.17423066,175.03522382,17.63581743,-8.41005713,147.86222232,177.20540266
-71.08276269,-51.06957776,-179.01257360,15.63216353,8.31621804,5.38888700
1.83074264,0.12422507,-1.01000256

>  <Name>
2et4_lig

>  <RI>
0

>  <Rbt.Current_Directory>
/home/itssahil/PROJECTS/Mol_Feturizer/New_Systems/rnas/2et4

>  <Rbt.Executable>
rbdock ($Id: //depot/dev/client3/rdock/2013.1/src/exe/rbdock.cxx#4 $)

>  <Rbt.Library>
libRbt.so (2013.1, Build901 2013/11/27)

>  <Rbt.Parameter_File>
/export/apps/rDock/src/rDock_2013.1_src/data/scripts/dock_solv.prm

>  <Rbt.Receptor>
prm/blind_docking_80.prm

>  <SCORE>
6.61123

>  <SCORE.INTER>
-10.8963

>  <SCORE.INTER.CONST>
1

>  <SCORE.INTER.POLAR>
-0.547823

>  <SCORE.INTER.ROT>
9

>  <SCORE.INTER.SOLV>
31.2786

>  <SCORE.INTER.VDW>
-25.4643

>  <SCORE.INTER.norm>
-0.259435

>  <SCORE.INTRA>
5.02183

>  <SCORE.INTRA.DIHEDRAL>
-1.6711

>  <SCORE.INTRA.DIHEDRAL.0>
21.6909

>  <SCORE.INTRA.POLAR>
0

>  <SCORE.INTRA.POLAR.0>
0

>  <SCORE.INTRA.REPUL>
0

>  <SCORE.INTRA.REPUL.0>
0

>  <SCORE.INTRA.SOLV>
1.43346

>  <SCORE.INTRA.SOLV.lig_0>
-116.606

>  <SCORE.INTRA.VDW>
5.14065

>  <SCORE.INTRA.VDW.0>
-6.01229

>  <SCORE.INTRA.norm>
0.119567

>  <SCORE.RESTR>
12.4856

>  <SCORE.RESTR.CAVITY>
12.4856

>  <SCORE.RESTR.norm>
0.297277

>  <SCORE.SYSTEM>
0

>  <SCORE.SYSTEM.CONST>
0

>  <SCORE.SYSTEM.DIHEDRAL>
0

>  <SCORE.SYSTEM.SOLV>
0

>  <SCORE.SYSTEM.norm>
0

>  <SCORE.heavy>
42

>  <SCORE.norm>
0.15741

>  <RMSD>
6.111

$$$$
2et4_lig
 OpenBabel11021811423D
libRbt.so/2013.1/901 2013/11/27
 42 45  0  0  0  0  0  0  0  0999 V2000
   13.1721   10.3751    4.5431 C   0  0  2  0  0  0  0  0  0  0  0  0
   14.5160    9.9018    4.6528 O   0  0  0  0  0  0  0  0  0  0  0  0
   12.2389    9.1625    4.7910 C   0  0  2  0  0  0  0  0  0  0  0  0
   12.4912    8.5594    6.0749 N   0  0  0  0  0  0  0  0  0  0  0  0
   12.4228    8.1297    3.6418 C   0  0  1  0  0  0  0  0  0  0  0  0
   11.5712    7.0484    3.8586 O   0  0  0  0  0  0  0  0  0  0  0  0
   12.1312    8.8517    2.2839 C   0  0  2  0  0  0  0  0  0  0  0  0
   12.2939    7.9505    1.2093 O   0  0  0  0  0  0  0  0  0  0  0  0
   13.0859   10.0679    2.0856 C   0  0  2  0  0  0  0  0  0  0  0  0
   12.9200   10.9568    3.1942 O   0  0  0  0  0  0  0  0  0  0  0  0
   12.7953   10.8392    0.7566 C   0  0  0  0  0  0  0  0  0  0  0  0
   13.5921   12.0098    0.6303 N   0  0  0  0  0  0  0  0  0  0  0  0
   16.8858   11.9422    1.6735 C   0  0  2  0  0  0  0  0  0  0  0  0
   18.0179   12.6328    1.0434 N   0  0  0  0  0  0  0  0  0  0  0  0
   16.3906   12.7833    2.9695 C   0  0  0  0  0  0  0  0  0  0  0  0
   15.1794   12.0265    3.6533 C   0  0  2  0  0  0  0  0  0  0  0  0
   14.7130   12.7439    4.8530 N   0  0  0  0  0  0  0  0  0  0  0  0
   15.6270   10.5790    4.0493 C   0  0  2  0  0  0  0  0  0  0  0  0
   16.1290    9.7895    2.7953 C   0  0  2  0  0  0  0  0  0  0  0  0
   16.5302    8.4800    3.2679 O   0  0  0  0  0  0  0  0  0  0  0  0
   17.3283   10.5447    2.1373 C   0  0  1  0  0  0  0  0  0  0  0  0
   17.7425    9.8302    1.0222 O   0  0  0  0  0  0  0  0  0  0  0  0
   16.5535    8.0859    4.5642 C   0  0  1  0  0  0  0  0  0  0  0  0
   16.4075    6.5461    4.6797 C   0  0  2  0  0  0  0  0  0  0  0  0
   15.0770    6.1172    4.6508 O   0  0  0  0  0  0  0  0  0  0  0  0
   17.2217    6.3148    5.9391 C   0  0  1  0  0  0  0  0  0  0  0  0
   18.4052    7.2911    5.8862 C   0  0  2  0  0  0  0  0  0  0  0  0
   17.7727    8.4190    5.2815 O   0  0  0  0  0  0  0  0  0  0  0  0
   19.6447    6.8056    5.0600 C   0  0  0  0  0  0  0  0  0  0  0  0
   20.0193    5.4972    5.5669 O   0  0  0  0  0  0  0  0  0  0  0  0
   16.8635    6.4023    8.3857 C   0  0  2  0  0  0  0  0  0  0  0  0
   16.3349    6.5851    7.1007 O   0  0  0  0  0  0  0  0  0  0  0  0
   17.3703    4.9094    8.5962 C   0  0  1  0  0  0  0  0  0  0  0  0
   15.3847    7.0101   13.2993 N   0  0  0  0  0  0  0  0  0  0  0  0
   17.9348    4.8089   10.1088 C   0  0  1  0  0  0  0  0  0  0  0  0
   19.0476    5.8261   10.2649 O   0  0  0  0  0  0  0  0  0  0  0  0
   16.7426    5.1123   11.1638 C   0  0  2  0  0  0  0  0  0  0  0  0
   15.6978    4.1233   11.0016 O   0  0  0  0  0  0  0  0  0  0  0  0
   16.2248    6.6349   10.8927 C   0  0  1  0  0  0  0  0  0  0  0  0
   15.7954    6.7684    9.4576 O   0  0  0  0  0  0  0  0  0  0  0  0
   15.0452    7.0420   11.8436 C   0  0  0  0  0  0  0  0  0  0  0  0
   16.2558    3.9444    8.3179 N   0  0  0  0  0  0  0  0  0  0  0  0
  1  2  1  6  0  0  0
  1  3  1  0  0  0  0
  1 10  1  0  0  0  0
  3  4  1  1  0  0  0
  3  5  1  0  0  0  0
  5  6  1  1  0  0  0
  5  7  1  0  0  0  0
  7  8  1  6  0  0  0
  7  9  1  0  0  0  0
  9 10  1  0  0  0  0
  9 11  1  6  0  0  0
 11 12  1  0  0  0  0
 13 14  1  1  0  0  0
 13 15  1  0  0  0  0
 13 21  1  0  0  0  0
 16 15  1  0  0  0  0
 16 17  1  1  0  0  0
 18  2  1  6  0  0  0
 18 16  1  0  0  0  0
 19 18  1  0  0  0  0
 19 20  1  1  0  0  0
 21 19  1  0  0  0  0
 21 22  1  6  0  0  0
 23 20  1  6  0  0  0
 23 24  1  0  0  0  0
 23 28  1  0  0  0  0
 24 25  1  1  0  0  0
 24 26  1  0  0  0  0
 26 27  1  0  0  0  0
 26 32  1  1  0  0  0
 27 28  1  0  0  0  0
 27 29  1  6  0  0  0
 29 30  1  0  0  0  0
 31 32  1  6  0  0  0
 31 40  1  0  0  0  0
 33 31  1  0  0  0  0
 33 42  1  1  0  0  0
 35 33  1  0  0  0  0
 35 36  1  6  0  0  0
 37 35  1  0  0  0  0
 37 38  1  6  0  0  0
 37 39  1  0  0  0  0
 39 40  1  0  0  0  0
 39 41  1  1  0  0  0
 41 34  1  0  0  0  0
M  END
>  <CHROM.1>
157.63705795,175.18906949,15.57700191,-4.70200372,154.70255109,178.40056817
-53.25002566,-58.69930762,60.76436951,15.66176766,8.28552625,5.41281614,1.81042071
0.10105390,-1.01606729

>  <Name>
2et4_lig

>  <RI>
0

>  <Rbt.Current_Directory>
/home/itssahil/PROJECTS/Mol_Feturizer/New_Systems/rnas/2et4

>  <Rbt.Executable>
rbdock ($Id: //depot/dev/client3/rdock/2013.1/src/exe/rbdock.cxx#4 $)

>  <Rbt.Library>
libRbt.so (2013.1, Build901 2013/11/27)

>  <Rbt.Parameter_File>
/export/apps/rDock/src/rDock_2013.1_src/data/scripts/dock_solv.prm

>  <Rbt.Receptor>
prm/blind_docking_80.prm

>  <SCORE>
8.71575

>  <SCORE.INTER>
-8.49347

>  <SCORE.INTER.CONST>
1

>  <SCORE.INTER.POLAR>
-0.227271

>  <SCORE.INTER.ROT>
9

>  <SCORE.INTER.SOLV>
30.7552

>  <SCORE.INTER.VDW>
-24.7565

>  <SCORE.INTER.norm>
-0.202226

>  <SCORE.INTRA>
4.79671

>  <SCORE.INTRA.DIHEDRAL>
-3.20284

>  <SCORE.INTRA.DIHEDRAL.0>
21.6909

>  <SCORE.INTRA.POLAR>
0

>  <SCORE.INTRA.POLAR.0>
0

>  <SCORE.INTRA.REPUL>
0.00101443

>  <SCORE.INTRA.REPUL.0>
0

>  <SCORE.INTRA.SOLV>
1.32229

>  <SCORE.INTRA.SOLV.lig_0>
-116.606

>  <SCORE.INTRA.VDW>
5.73192

>  <SCORE.INTRA.VDW.0>
-6.01229

>  <SCORE.INTRA.norm>
0.114207

>  <SCORE.RESTR>
12.4125

>  <SCORE.RESTR.CAVITY>
12.4125

>  <SCORE.RESTR.norm>
0.295536

>  <SCORE.SYSTEM>
0

>  <SCORE.SYSTEM.CONST>
0

>  <SCORE.SYSTEM.DIHEDRAL>
0

>  <SCORE.SYSTEM.SOLV>
0

>  <SCORE.SYSTEM.norm>
0

>  <SCORE.heavy>
42

>  <SCORE.norm>
0.207518

>  <RMSD>
6.113

$$$$
2et4_lig
 OpenBabel11021811423D
libRbt.so/2013.1/901 2013/11/27
 42 45  0  0  0  0  0  0  0  0999 V2000
   14.6854    5.8325    9.1278 C   0  0  2  0  0  0  0  0  0  0  0  0
   15.9531    6.1530    8.5512 O   0  0  0  0  0  0  0  0  0  0  0  0
   14.8595    5.8760   10.6674 C   0  0  2  0  0  0  0  0  0  0  0  0
   15.3374    7.1625   11.1058 N   0  0  0  0  0  0  0  0  0  0  0  0
   15.8277    4.7399   11.1068 C   0  0  1  0  0  0  0  0  0  0  0  0
   15.9696    4.7711   12.4927 O   0  0  0  0  0  0  0  0  0  0  0  0
   15.2456    3.3780   10.6006 C   0  0  2  0  0  0  0  0  0  0  0  0
   16.0989    2.3163   10.9723 O   0  0  0  0  0  0  0  0  0  0  0  0
   15.0793    3.3871    9.0507 C   0  0  2  0  0  0  0  0  0  0  0  0
   14.2290    4.4812    8.6950 O   0  0  0  0  0  0  0  0  0  0  0  0
   14.4604    2.0554    8.5130 C   0  0  0  0  0  0  0  0  0  0  0  0
   14.3933    2.0297    7.0931 N   0  0  0  0  0  0  0  0  0  0  0  0
   17.0699    7.7709    4.7054 C   0  0  2  0  0  0  0  0  0  0  0  0
   17.2834    7.8678    3.2560 N   0  0  0  0  0  0  0  0  0  0  0  0
   17.9363    6.5346    5.2998 C   0  0  0  0  0  0  0  0  0  0  0  0
   17.6909    6.4259    6.8603 C   0  0  2  0  0  0  0  0  0  0  0  0
   18.4407    5.2971    7.4394 N   0  0  0  0  0  0  0  0  0  0  0  0
   16.1610    6.2343    7.1344 C   0  0  2  0  0  0  0  0  0  0  0  0
   15.3354    7.4184    6.5309 C   0  0  2  0  0  0  0  0  0  0  0  0
   13.9440    7.1400    6.8234 O   0  0  0  0  0  0  0  0  0  0  0  0
   15.5823    7.5071    4.9906 C   0  0  1  0  0  0  0  0  0  0  0  0
   14.8500    8.5724    4.4861 O   0  0  0  0  0  0  0  0  0  0  0  0
   13.1229    7.9283    7.5585 C   0  0  1  0  0  0  0  0  0  0  0  0
   12.5538    9.0896    6.7023 C   0  0  2  0  0  0  0  0  0  0  0  0
   13.4158   10.1877    6.6243 O   0  0  0  0  0  0  0  0  0  0  0  0
   11.2097    9.2638    7.3848 C   0  0  1  0  0  0  0  0  0  0  0  0
   10.7230    7.8592    7.7680 C   0  0  2  0  0  0  0  0  0  0  0  0
   11.9658    7.2503    8.1181 O   0  0  0  0  0  0  0  0  0  0  0  0
    9.9848    7.0678    6.6351 C   0  0  0  0  0  0  0  0  0  0  0  0
    8.8247    7.8491    6.2443 O   0  0  0  0  0  0  0  0  0  0  0  0
   10.3369   10.3260    9.4418 C   0  0  2  0  0  0  0  0  0  0  0  0
   11.4234   10.1193    8.5811 O   0  0  0  0  0  0  0  0  0  0  0  0
   10.7215   11.3050   10.6349 C   0  0  1  0  0  0  0  0  0  0  0  0
    7.0581    7.5124   12.2759 N   0  0  0  0  0  0  0  0  0  0  0  0
    9.4094   11.4523   11.5695 C   0  0  1  0  0  0  0  0  0  0  0  0
    8.2811   11.9950   10.7152 O   0  0  0  0  0  0  0  0  0  0  0  0
    9.0054   10.0084   12.1846 C   0  0  2  0  0  0  0  0  0  0  0  0
   10.0937    9.5162   13.0029 O   0  0  0  0  0  0  0  0  0  0  0  0
    8.6551    9.0236   10.9327 C   0  0  1  0  0  0  0  0  0  0  0  0
    9.8335    8.9626   10.0002 O   0  0  0  0  0  0  0  0  0  0  0  0
    8.2693    7.5770   11.4016 C   0  0  0  0  0  0  0  0  0  0  0  0
   11.9139   10.7719   11.3730 N   0  0  0  0  0  0  0  0  0  0  0  0
  1  2  1  6  0  0  0
  1  3  1  0  0  0  0
  1 10  1  0  0  0  0
  3  4  1  6  0  0  0
  3  5  1  0  0  0  0
  5  6  1  1  0  0  0
  5  7  1  0  0  0  0
  7  8  1  6  0  0  0
  7  9  1  0  0  0  0
  9 10  1  0  0  0  0
  9 11  1  1  0  0  0
 11 12  1  0  0  0  0
 13 14  1  6  0  0  0
 13 15  1  0  0  0  0
 13 21  1  0  0  0  0
 16 15  1  0  0  0  0
 16 17  1  6  0  0  0
 18  2  1  1  0  0  0
 18 16  1  0  0  0  0
 19 18  1  0  0  0  0
 19 20  1  6  0  0  0
 21 19  1  0  0  0  0
 21 22  1  1  0  0  0
 23 20  1  6  0  0  0
 23 24  1  0  0  0  0
 23 28  1  0  0  0  0
 24 25  1  1  0  0  0
 24 26  1  0  0  0  0
 26 27  1  0  0  0  0
 26 32  1  1  0  0  0
 27 28  1  0  0  0  0
 27 29  1  6  0  0  0
 29 30  1  0  0  0  0
 31 32  1  6  0  0  0
 31 40  1  0  0  0  0
 33 31  1  0  0  0  0
 33 42  1  1  0  0  0
 35 33  1  0  0  0  0
 35 36  1  6  0  0  0
 37 35  1  0  0  0  0
 37 38  1  6  0  0  0
 37 39  1  0  0  0  0
 39 40  1  0  0  0  0
 39 41  1  1  0  0  0
 41 34  1  0  0  0  0
M  END
>  <CHROM.1>
-178.69245985,-176.02024274,-172.99961417,119.63690045,81.63129845,-174.58800286
-59.64589060,-177.83659105,61.16029880,13.14593979,7.33773134,8.69025981
0.01417556,-0.66464302,2.22040099

>  <Name>
2et4_lig

>  <RI>
0

>  <Rbt.Current_Directory>
/home/itssahil/PROJECTS/Mol_Feturizer/New_Systems/rnas/2et4

>  <Rbt.Executable>
rbdock ($Id: //depot/dev/client3/rdock/2013.1/src/exe/rbdock.cxx#4 $)

>  <Rbt.Library>
libRbt.so (2013.1, Build901 2013/11/27)

>  <Rbt.Parameter_File>
/export/apps/rDock/src/rDock_2013.1_src/data/scripts/dock_solv.prm

>  <Rbt.Receptor>
prm/pocket_docking_6.prm

>  <SCORE>
-15.8178

>  <SCORE.INTER>
-9.93865

>  <SCORE.INTER.CONST>
1

>  <SCORE.INTER.POLAR>
-1.52364

>  <SCORE.INTER.ROT>
9

>  <SCORE.INTER.SOLV>
19.4793

>  <SCORE.INTER.VDW>
-17.6401

>  <SCORE.INTER.norm>
-0.236634

>  <SCORE.INTRA>
-5.87912

>  <SCORE.INTRA.DIHEDRAL>
-11.7689

>  <SCORE.INTRA.DIHEDRAL.0>
21.6909

>  <SCORE.INTRA.POLAR>
0

>  <SCORE.INTRA.POLAR.0>
0

>  <SCORE.INTRA.REPUL>
0

>  <SCORE.INTRA.REPUL.0>
0

>  <SCORE.INTRA.SOLV>
-4.11378

>  <SCORE.INTRA.SOLV.lig_0>
-116.606

>  <SCORE.INTRA.VDW>
2.06221

>  <SCORE.INTRA.VDW.0>
-6.01229

>  <SCORE.INTRA.norm>
-0.139979

>  <SCORE.RESTR>
0

>  <SCORE.RESTR.CAVITY>
0

>  <SCORE.RESTR.norm>
0

>  <SCORE.SYSTEM>
0

>  <SCORE.SYSTEM.CONST>
0

>  <SCORE.SYSTEM.DIHEDRAL>
0

>  <SCORE.SYSTEM.SOLV>
0

>  <SCORE.SYSTEM.norm>
0

>  <SCORE.heavy>
42

>  <SCORE.norm>
-0.376613

>  <RMSD>
6.165

$$$$
2et4_lig
 OpenBabel11021811423D
libRbt.so/2013.1/901 2013/11/27
 42 45  0  0  0  0  0  0  0  0999 V2000
   15.6177    5.3188    9.7611 C   0  0  2  0  0  0  0  0  0  0  0  0
   15.7330    5.3302    8.3367 O   0  0  0  0  0  0  0  0  0  0  0  0
   16.8607    4.5761   10.3142 C   0  0  2  0  0  0  0  0  0  0  0  0
   18.0833    5.2032    9.8809 N   0  0  0  0  0  0  0  0  0  0  0  0
   16.8081    3.0858    9.8699 C   0  0  1  0  0  0  0  0  0  0  0  0
   17.9181    2.4169   10.3820 O   0  0  0  0  0  0  0  0  0  0  0  0
   15.4600    2.4718   10.3754 C   0  0  2  0  0  0  0  0  0  0  0  0
   15.3665    1.1176    9.9869 O   0  0  0  0  0  0  0  0  0  0  0  0
   14.2423    3.2578    9.8017 C   0  0  2  0  0  0  0  0  0  0  0  0
   14.3677    4.6292   10.1894 O   0  0  0  0  0  0  0  0  0  0  0  0
   12.8774    2.6971   10.3196 C   0  0  0  0  0  0  0  0  0  0  0  0
   11.7665    3.3552    9.7247 N   0  0  0  0  0  0  0  0  0  0  0  0
   14.1412    7.8685    5.2258 C   0  0  2  0  0  0  0  0  0  0  0  0
   13.1720    8.5430    4.3532 N   0  0  0  0  0  0  0  0  0  0  0  0
   13.9993    6.2615    5.0539 C   0  0  0  0  0  0  0  0  0  0  0  0
   15.0367    5.5393    6.0076 C   0  0  2  0  0  0  0  0  0  0  0  0
   14.9248    4.0736    5.9027 N   0  0  0  0  0  0  0  0  0  0  0  0
   14.7769    5.9800    7.4878 C   0  0  2  0  0  0  0  0  0  0  0  0
   14.8883    7.5338    7.6330 C   0  0  2  0  0  0  0  0  0  0  0  0
   14.6187    7.8367    9.0239 O   0  0  0  0  0  0  0  0  0  0  0  0
   13.8537    8.2307    6.6920 C   0  0  1  0  0  0  0  0  0  0  0  0
   13.9850    9.6051    6.8315 O   0  0  0  0  0  0  0  0  0  0  0  0
   13.4099    7.7402    9.6288 C   0  0  1  0  0  0  0  0  0  0  0  0
   13.5450    7.8859   11.1670 C   0  0  2  0  0  0  0  0  0  0  0  0
   13.8767    6.6868   11.8050 O   0  0  0  0  0  0  0  0  0  0  0  0
   12.2047    8.5288   11.4726 C   0  0  1  0  0  0  0  0  0  0  0  0
   11.9008    9.4896   10.3145 C   0  0  2  0  0  0  0  0  0  0  0  0
   12.4425    8.7458    9.2231 O   0  0  0  0  0  0  0  0  0  0  0  0
   12.5485   10.9116   10.4292 C   0  0  0  0  0  0  0  0  0  0  0  0
   11.9891   11.7308    9.3686 O   0  0  0  0  0  0  0  0  0  0  0  0
    9.8424    7.7965   11.5391 C   0  0  2  0  0  0  0  0  0  0  0  0
   11.1974    7.4399   11.5650 O   0  0  0  0  0  0  0  0  0  0  0  0
    9.4772    8.7717   12.7414 C   0  0  1  0  0  0  0  0  0  0  0  0
    6.9917    4.5594   12.8354 N   0  0  0  0  0  0  0  0  0  0  0  0
    7.8968    9.0967   12.6254 C   0  0  1  0  0  0  0  0  0  0  0  0
    7.6437    9.7272   11.2704 O   0  0  0  0  0  0  0  0  0  0  0  0
    7.0398    7.7299   12.7792 C   0  0  2  0  0  0  0  0  0  0  0  0
    7.2909    7.1526   14.0830 O   0  0  0  0  0  0  0  0  0  0  0  0
    7.4681    6.7429   11.5535 C   0  0  1  0  0  0  0  0  0  0  0  0
    8.9548    6.5184   11.5891 O   0  0  0  0  0  0  0  0  0  0  0  0
    6.7182    5.3659   11.6065 C   0  0  0  0  0  0  0  0  0  0  0  0
    9.8544    8.1393   14.0485 N   0  0  0  0  0  0  0  0  0  0  0  0
  1  2  1  6  0  0  0
  1  3  1  0  0  0  0
  1 10  1  0  0  0  0
  3  4  1  6  0  0  0
  3  5  1  0  0  0  0
  5  6  1  1  0  0  0
  5  7  1  0  0  0  0
  7  8  1  6  0  0  0
  7  9  1  0  0  0  0
  9 10  1  0  0  0  0
  9 11  1  1  0  0  0
 11 12  1  0  0  0  0
 13 14  1  6  0  0  0
 13 15  1  0  0  0  0
 13 21  1  0  0  0  0
 16 15  1  0  0  0  0
 16 17  1  1  0  0  0
 18  2  1  1  0  0  0
 18 16  1  0  0  0  0
 19 18  1  0  0  0  0
 19 20  1  1  0  0  0
 21 19  1  0  0  0  0
 21 22  1  6  0  0  0
 23 20  1  6  0  0  0
 23 24  1  0  0  0  0
 23 28  1  0  0  0  0
 24 25  1  1  0  0  0
 24 26  1  0  0  0  0
 26 27  1  0  0  0  0
 26 32  1  6  0  0  0
 27 28  1  0  0  0  0
 27 29  1  1  0  0  0
 29 30  1  0  0  0  0
 31 32  1  1  0  0  0
 31 40  1  0  0  0  0
 33 31  1  0  0  0  0
 33 42  1  1  0  0  0
 35 33  1  0  0  0  0
 35 36  1  6  0  0  0
 37 35  1  0  0  0  0
 37 38  1  1  0  0  0
 37 39  1  0  0  0  0
 39 40  1  0  0  0  0
 39 41  1  1  0  0  0
 41 34  1  0  0  0  0
M  END
>  <CHROM.1>
-177.71784556,-175.96722093,-167.98811837,-70.79135410,169.43455179,-165.84616918
-171.38660744,-59.57470355,-61.58990383,12.63414761,6.57125184,9.89481370
0.07901892,-0.60101008,2.59601808

>  <Name>
2et4_lig

>  <RI>
0

>  <Rbt.Current_Directory>
/home/itssahil/PROJECTS/Mol_Feturizer/New_Systems/rnas/2et4

>  <Rbt.Executable>
rbdock ($Id: //depot/dev/client3/rdock/2013.1/src/exe/rbdock.cxx#4 $)

>  <Rbt.Library>
libRbt.so (2013.1, Build901 2013/11/27)

>  <Rbt.Parameter_File>
/export/apps/rDock/src/rDock_2013.1_src/data/scripts/dock_solv.prm

>  <Rbt.Receptor>
prm/pocket_docking_6.prm

>  <SCORE>
-16.1469

>  <SCORE.INTER>
-7.31761

>  <SCORE.INTER.CONST>
1

>  <SCORE.INTER.POLAR>
-1.14669

>  <SCORE.INTER.ROT>
9

>  <SCORE.INTER.SOLV>
11.8756

>  <SCORE.INTER.VDW>
-14.6146

>  <SCORE.INTER.norm>
-0.174229

>  <SCORE.INTRA>
-8.82929

>  <SCORE.INTRA.DIHEDRAL>
-18.4616

>  <SCORE.INTRA.DIHEDRAL.0>
21.6909

>  <SCORE.INTRA.POLAR>
0

>  <SCORE.INTRA.POLAR.0>
0

>  <SCORE.INTRA.REPUL>
0

>  <SCORE.INTRA.REPUL.0>
0

>  <SCORE.INTRA.SOLV>
-2.182

>  <SCORE.INTRA.SOLV.lig_0>
-116.606

>  <SCORE.INTRA.VDW>
1.49251

>  <SCORE.INTRA.VDW.0>
-6.01229

>  <SCORE.INTRA.norm>
-0.210221

>  <SCORE.RESTR>
0

>  <SCORE.RESTR.CAVITY>
0

>  <SCORE.RESTR.norm>
0

>  <SCORE.SYSTEM>
0

>  <SCORE.SYSTEM.CONST>
0

>  <SCORE.SYSTEM.DIHEDRAL>
0

>  <SCORE.SYSTEM.SOLV>
0

>  <SCORE.SYSTEM.norm>
0

>  <SCORE.heavy>
42

>  <SCORE.norm>
-0.38445

>  <RMSD>
6.185

$$$$
2et4_lig
 OpenBabel11021811423D
libRbt.so/2013.1/901 2013/11/27
 42 45  0  0  0  0  0  0  0  0999 V2000
   16.9139    4.4933    8.6189 C   0  0  2  0  0  0  0  0  0  0  0  0
   16.6526    5.5200    7.6599 O   0  0  0  0  0  0  0  0  0  0  0  0
   18.3616    4.7042    9.1312 C   0  0  2  0  0  0  0  0  0  0  0  0
   18.5332    6.0192    9.6941 N   0  0  0  0  0  0  0  0  0  0  0  0
   19.3600    4.4608    7.9628 C   0  0  1  0  0  0  0  0  0  0  0  0
   20.6612    4.6352    8.4299 O   0  0  0  0  0  0  0  0  0  0  0  0
   19.1182    3.0186    7.4049 C   0  0  2  0  0  0  0  0  0  0  0  0
   20.0010    2.7569    6.3345 O   0  0  0  0  0  0  0  0  0  0  0  0
   17.6484    2.8528    6.9129 C   0  0  2  0  0  0  0  0  0  0  0  0
   16.7718    3.1421    8.0059 O   0  0  0  0  0  0  0  0  0  0  0  0
   17.3586    1.4091    6.3863 C   0  0  0  0  0  0  0  0  0  0  0  0
   15.9990    1.2388    6.0076 N   0  0  0  0  0  0  0  0  0  0  0  0
   13.6108    8.4184    6.6594 C   0  0  2  0  0  0  0  0  0  0  0  0
   12.2860    9.0242    6.4756 N   0  0  0  0  0  0  0  0  0  0  0  0
   13.7263    7.0805    5.7489 C   0  0  0  0  0  0  0  0  0  0  0  0
   15.1513    6.4237    5.9620 C   0  0  2  0  0  0  0  0  0  0  0  0
   15.2911    5.1880    5.1713 N   0  0  0  0  0  0  0  0  0  0  0  0
   15.3529    6.0995    7.4808 C   0  0  2  0  0  0  0  0  0  0  0  0
   15.2101    7.3931    8.3492 C   0  0  2  0  0  0  0  0  0  0  0  0
   15.3974    6.9857    9.7269 O   0  0  0  0  0  0  0  0  0  0  0  0
   13.7971    8.0242    8.1337 C   0  0  1  0  0  0  0  0  0  0  0  0
   13.7046    9.1748    8.9038 O   0  0  0  0  0  0  0  0  0  0  0  0
   14.4607    6.3901   10.5042 C   0  0  1  0  0  0  0  0  0  0  0  0
   15.0952    5.8160   11.7978 C   0  0  2  0  0  0  0  0  0  0  0  0
   15.6488    4.5444   11.6201 O   0  0  0  0  0  0  0  0  0  0  0  0
   13.9173    5.9738   12.7414 C   0  0  1  0  0  0  0  0  0  0  0  0
   13.2230    7.2905   12.3658 C   0  0  2  0  0  0  0  0  0  0  0  0
   13.3895    7.2659   10.9482 O   0  0  0  0  0  0  0  0  0  0  0  0
   13.8375    8.5834   13.0025 C   0  0  0  0  0  0  0  0  0  0  0  0
   13.6179    8.5084   14.4361 O   0  0  0  0  0  0  0  0  0  0  0  0
   11.9752    4.6153   13.4516 C   0  0  2  0  0  0  0  0  0  0  0  0
   13.0244    4.8027   12.5416 O   0  0  0  0  0  0  0  0  0  0  0  0
   11.0619    3.3812   13.0362 C   0  0  1  0  0  0  0  0  0  0  0  0
    8.1489    7.3780   15.5466 N   0  0  0  0  0  0  0  0  0  0  0  0
    9.8806    3.2737   14.1361 C   0  0  1  0  0  0  0  0  0  0  0  0
   10.5202    3.0890   15.4978 O   0  0  0  0  0  0  0  0  0  0  0  0
    8.9823    4.6224   14.1143 C   0  0  2  0  0  0  0  0  0  0  0  0
    8.3755    4.7713   12.8082 O   0  0  0  0  0  0  0  0  0  0  0  0
    9.9592    5.8677   14.5075 C   0  0  1  0  0  0  0  0  0  0  0  0
   11.1203    5.9125   13.5525 O   0  0  0  0  0  0  0  0  0  0  0  0
    9.2054    7.2435   14.4973 C   0  0  0  0  0  0  0  0  0  0  0  0
   10.5503    3.5681   11.6383 N   0  0  0  0  0  0  0  0  0  0  0  0
  1  2  1  6  0  0  0
  1  3  1  0  0  0  0
  1 10  1  0  0  0  0
  3  4  1  6  0  0  0
  3  5  1  0  0  0  0
  5  6  1  1  0  0  0
  5  7  1  0  0  0  0
  7  8  1  6  0  0  0
  7  9  1  0  0  0  0
  9 10  1  0  0  0  0
  9 11  1  1  0  0  0
 11 12  1  0  0  0  0
 13 14  1  1  0  0  0
 13 15  1  0  0  0  0
 13 21  1  0  0  0  0
 16 15  1  0  0  0  0
 16 17  1  6  0  0  0
 18  2  1  6  0  0  0
 18 16  1  0  0  0  0
 19 18  1  0  0  0  0
 19 20  1  1  0  0  0
 21 19  1  0  0  0  0
 21 22  1  1  0  0  0
 23 20  1  1  0  0  0
 23 24  1  0  0  0  0
 23 28  1  0  0  0  0
 24 25  1  6  0  0  0
 24 26  1  0  0  0  0
 26 27  1  0  0  0  0
 26 32  1  6  0  0  0
 27 28  1  0  0  0  0
 27 29  1  1  0  0  0
 29 30  1  0  0  0  0
 31 32  1  6  0  0  0
 31 40  1  0  0  0  0
 33 31  1  0  0  0  0
 33 42  1  6  0  0  0
 35 33  1  0  0  0  0
 35 36  1  1  0  0  0
 37 35  1  0  0  0  0
 37 38  1  6  0  0  0
 37 39  1  0  0  0  0
 39 40  1  0  0  0  0
 39 41  1  6  0  0  0
 41 34  1  0  0  0  0
M  END
>  <CHROM.1>
-146.84931947,176.73249502,-144.58458404,-79.21501402,167.37878614,170.07241865
-66.27431977,176.07074088,65.97466932,14.22059184,5.50013744,10.21551228
-0.29951078,-0.71039064,2.50481135

>  <Name>
2et4_lig

>  <RI>
0

>  <Rbt.Current_Directory>
/home/itssahil/PROJECTS/Mol_Feturizer/New_Systems/rnas/2et4

>  <Rbt.Executable>
rbdock ($Id: //depot/dev/client3/rdock/2013.1/src/exe/rbdock.cxx#4 $)

>  <Rbt.Library>
libRbt.so (2013.1, Build901 2013/11/27)

>  <Rbt.Parameter_File>
/export/apps/rDock/src/rDock_2013.1_src/data/scripts/dock_solv.prm

>  <Rbt.Receptor>
prm/pocket_docking_5.prm

>  <SCORE>
-8.69836

>  <SCORE.INTER>
-4.61134

>  <SCORE.INTER.CONST>
1

>  <SCORE.INTER.POLAR>
-0.916145

>  <SCORE.INTER.ROT>
9

>  <SCORE.INTER.SOLV>
16.0231

>  <SCORE.INTER.VDW>
-14.9614

>  <SCORE.INTER.norm>
-0.109794

>  <SCORE.INTRA>
-4.24892

>  <SCORE.INTRA.DIHEDRAL>
-9.44075

>  <SCORE.INTRA.DIHEDRAL.0>
21.6909

>  <SCORE.INTRA.POLAR>
0

>  <SCORE.INTRA.POLAR.0>
0

>  <SCORE.INTRA.REPUL>
0

>  <SCORE.INTRA.REPUL.0>
0

>  <SCORE.INTRA.SOLV>
-1.15424

>  <SCORE.INTRA.SOLV.lig_0>
-116.606

>  <SCORE.INTRA.VDW>
1.04857

>  <SCORE.INTRA.VDW.0>
-6.01229

>  <SCORE.INTRA.norm>
-0.101165

>  <SCORE.RESTR>
0.161905

>  <SCORE.RESTR.CAVITY>
0.161905

>  <SCORE.RESTR.norm>
0.00385488

>  <SCORE.SYSTEM>
0

>  <SCORE.SYSTEM.CONST>
0

>  <SCORE.SYSTEM.DIHEDRAL>
0

>  <SCORE.SYSTEM.SOLV>
0

>  <SCORE.SYSTEM.norm>
0

>  <SCORE.heavy>
42

>  <SCORE.norm>
-0.207104

>  <RMSD>
6.204

$$$$
2et4_lig
 OpenBabel11021811423D
libRbt.so/2013.1/901 2013/11/27
 42 45  0  0  0  0  0  0  0  0999 V2000
   17.6584    3.8780    6.6680 C   0  0  2  0  0  0  0  0  0  0  0  0
   17.0897    4.8137    7.5863 O   0  0  0  0  0  0  0  0  0  0  0  0
   18.9039    4.5537    6.0397 C   0  0  2  0  0  0  0  0  0  0  0  0
   19.8495    4.9550    7.0499 N   0  0  0  0  0  0  0  0  0  0  0  0
   18.4502    5.7707    5.1828 C   0  0  1  0  0  0  0  0  0  0  0  0
   19.5701    6.3665    4.6061 O   0  0  0  0  0  0  0  0  0  0  0  0
   17.4309    5.2609    4.1099 C   0  0  2  0  0  0  0  0  0  0  0  0
   16.9858    6.3372    3.3118 O   0  0  0  0  0  0  0  0  0  0  0  0
   16.2035    4.5811    4.7891 C   0  0  2  0  0  0  0  0  0  0  0  0
   16.6782    3.5082    5.6078 O   0  0  0  0  0  0  0  0  0  0  0  0
   15.1824    4.0218    3.7451 C   0  0  0  0  0  0  0  0  0  0  0  0
   14.5783    5.0554    2.9784 N   0  0  0  0  0  0  0  0  0  0  0  0
   13.8380    2.5609    9.3202 C   0  0  2  0  0  0  0  0  0  0  0  0
   12.6945    2.2202   10.1758 N   0  0  0  0  0  0  0  0  0  0  0  0
   15.1324    2.8779   10.2456 C   0  0  0  0  0  0  0  0  0  0  0  0
   16.3582    3.2587    9.3184 C   0  0  2  0  0  0  0  0  0  0  0  0
   17.5521    3.5802   10.1203 N   0  0  0  0  0  0  0  0  0  0  0  0
   15.9761    4.4907    8.4305 C   0  0  2  0  0  0  0  0  0  0  0  0
   14.7097    4.1813    7.5654 C   0  0  2  0  0  0  0  0  0  0  0  0
   14.4333    5.3791    6.7987 O   0  0  0  0  0  0  0  0  0  0  0  0
   13.5081    3.8153    8.4947 C   0  0  1  0  0  0  0  0  0  0  0  0
   12.4054    3.5328    7.7010 O   0  0  0  0  0  0  0  0  0  0  0  0
   13.8503    6.5033    7.2809 C   0  0  1  0  0  0  0  0  0  0  0  0
   14.8335    7.2977    8.1797 C   0  0  2  0  0  0  0  0  0  0  0  0
   14.8649    6.8373    9.4995 O   0  0  0  0  0  0  0  0  0  0  0  0
   14.3335    8.7046    7.9091 C   0  0  1  0  0  0  0  0  0  0  0  0
   13.9361    8.7554    6.4271 C   0  0  2  0  0  0  0  0  0  0  0  0
   13.4016    7.4416    6.2659 O   0  0  0  0  0  0  0  0  0  0  0  0
   15.1061    9.0359    5.4235 C   0  0  0  0  0  0  0  0  0  0  0  0
   14.5172    9.2118    4.1077 O   0  0  0  0  0  0  0  0  0  0  0  0
   13.4226    9.1999   10.1555 C   0  0  2  0  0  0  0  0  0  0  0  0
   13.1691    8.9444    8.8011 O   0  0  0  0  0  0  0  0  0  0  0  0
   12.2296    8.6878   11.0744 C   0  0  1  0  0  0  0  0  0  0  0  0
   13.0366   13.5060   11.2997 N   0  0  0  0  0  0  0  0  0  0  0  0
   12.6172    9.0522   12.6020 C   0  0  1  0  0  0  0  0  0  0  0  0
   13.9328    8.3741   12.9289 O   0  0  0  0  0  0  0  0  0  0  0  0
   12.7553   10.6584   12.7679 C   0  0  2  0  0  0  0  0  0  0  0  0
   11.4853   11.2816   12.4598 O   0  0  0  0  0  0  0  0  0  0  0  0
   13.9601   11.1502   11.7848 C   0  0  1  0  0  0  0  0  0  0  0  0
   13.6600   10.7229   10.3744 O   0  0  0  0  0  0  0  0  0  0  0  0
   14.1772   12.7031   11.8381 C   0  0  0  0  0  0  0  0  0  0  0  0
   10.9370    9.3068   10.6307 N   0  0  0  0  0  0  0  0  0  0  0  0
  1  2  1  1  0  0  0
  1  3  1  0  0  0  0
  1 10  1  0  0  0  0
  3  4  1  1  0  0  0
  3  5  1  0  0  0  0
  5  6  1  6  0  0  0
  5  7  1  0  0  0  0
  7  8  1  1  0  0  0
  7  9  1  0  0  0  0
  9 10  1  0  0  0  0
  9 11  1  6  0  0  0
 11 12  1  0  0  0  0
 13 14  1  1  0  0  0
 13 15  1  0  0  0  0
 13 21  1  0  0  0  0
 16 15  1  0  0  0  0
 16 17  1  1  0  0  0
 18  2  1  6  0  0  0
 18 16  1  0  0  0  0
 19 18  1  0  0  0  0
 19 20  1  1  0  0  0
 21 19  1  0  0  0  0
 21 22  1  6  0  0  0
 23 20  1  6  0  0  0
 23 24  1  0  0  0  0
 23 28  1  0  0  0  0
 24 25  1  1  0  0  0
 24 26  1  0  0  0  0
 26 27  1  0  0  0  0
 26 32  1  1  0  0  0
 27 28  1  0  0  0  0
 27 29  1  6  0  0  0
 29 30  1  0  0  0  0
 31 32  1  6  0  0  0
 31 40  1  0  0  0  0
 33 31  1  0  0  0  0
 33 42  1  6  0  0  0
 35 33  1  0  0  0  0
 35 36  1  6  0  0  0
 37 35  1  0  0  0  0
 37 38  1  6  0  0  0
 37 39  1  0  0  0  0
 39 40  1  0  0  0  0
 39 41  1  6  0  0  0
 41 34  1  0  0  0  0
M  END
>  <CHROM.1>
-175.14070114,-65.11684336,58.08799618,-76.90964524,73.82431163,76.02293271
-173.02680978,-149.88691518,-66.03834321,14.88278260,6.75008178,8.10967160
0.40709530,-1.08704383,2.79591451

>  <Name>
2et4_lig

>  <RI>
0

>  <Rbt.Current_Directory>
/home/itssahil/PROJECTS/Mol_Feturizer/New_Systems/rnas/2et4

>  <Rbt.Executable>
rbdock ($Id: //depot/dev/client3/rdock/2013.1/src/exe/rbdock.cxx#4 $)

>  <Rbt.Library>
libRbt.so (2013.1, Build901 2013/11/27)

>  <Rbt.Parameter_File>
/export/apps/rDock/src/rDock_2013.1_src/data/scripts/dock_solv.prm

>  <Rbt.Receptor>
prm/pocket_docking_8.prm

>  <SCORE>
-15.561

>  <SCORE.INTER>
-9.75261

>  <SCORE.INTER.CONST>
1

>  <SCORE.INTER.POLAR>
-1.8423

>  <SCORE.INTER.ROT>
9

>  <SCORE.INTER.SOLV>
14.4622

>  <SCORE.INTER.VDW>
-14.7815

>  <SCORE.INTER.norm>
-0.232205

>  <SCORE.INTRA>
-5.80838

>  <SCORE.INTRA.DIHEDRAL>
-13.9931

>  <SCORE.INTRA.DIHEDRAL.0>
21.6909

>  <SCORE.INTRA.POLAR>
0

>  <SCORE.INTRA.POLAR.0>
0

>  <SCORE.INTRA.REPUL>
0

>  <SCORE.INTRA.REPUL.0>
0

>  <SCORE.INTRA.SOLV>
-0.403707

>  <SCORE.INTRA.SOLV.lig_0>
-116.606

>  <SCORE.INTRA.VDW>
1.39001

>  <SCORE.INTRA.VDW.0>
-6.01229

>  <SCORE.INTRA.norm>
-0.138295

>  <SCORE.RESTR>
0

>  <SCORE.RESTR.CAVITY>
0

>  <SCORE.RESTR.norm>
0

>  <SCORE.SYSTEM>
0

>  <SCORE.SYSTEM.CONST>
0

>  <SCORE.SYSTEM.DIHEDRAL>
0

>  <SCORE.SYSTEM.SOLV>
0

>  <SCORE.SYSTEM.norm>
0

>  <SCORE.heavy>
42

>  <SCORE.norm>
-0.3705

>  <RMSD>
6.235

$$$$
2et4_lig
 OpenBabel11021811423D
libRbt.so/2013.1/901 2013/11/27
 42 45  0  0  0  0  0  0  0  0999 V2000
   16.0705    3.2970    7.8395 C   0  0  2  0  0  0  0  0  0  0  0  0
   14.7436    3.8204    7.9249 O   0  0  0  0  0  0  0  0  0  0  0  0
   16.5964    3.1460    9.2898 C   0  0  2  0  0  0  0  0  0  0  0  0
   15.7358    2.2984   10.0751 N   0  0  0  0  0  0  0  0  0  0  0  0
   16.7343    4.5552    9.9351 C   0  0  1  0  0  0  0  0  0  0  0  0
   17.2225    4.4176   11.2330 O   0  0  0  0  0  0  0  0  0  0  0  0
   17.6808    5.4158    9.0333 C   0  0  2  0  0  0  0  0  0  0  0  0
   17.8290    6.7094    9.5793 O   0  0  0  0  0  0  0  0  0  0  0  0
   17.1157    5.5294    7.5850 C   0  0  2  0  0  0  0  0  0  0  0  0
   16.9544    4.2088    7.0591 O   0  0  0  0  0  0  0  0  0  0  0  0
   18.0577    6.3491    6.6436 C   0  0  0  0  0  0  0  0  0  0  0  0
   17.5857    6.3754    5.3028 N   0  0  0  0  0  0  0  0  0  0  0  0
   13.3786    3.5669    3.8350 C   0  0  2  0  0  0  0  0  0  0  0  0
   12.5047    3.6769    2.6603 N   0  0  0  0  0  0  0  0  0  0  0  0
   12.6860    2.5989    4.9375 C   0  0  0  0  0  0  0  0  0  0  0  0
   13.6259    2.4956    6.2077 C   0  0  2  0  0  0  0  0  0  0  0  0
   13.0224    1.6441    7.2481 N   0  0  0  0  0  0  0  0  0  0  0  0
   13.8793    3.9289    6.7855 C   0  0  2  0  0  0  0  0  0  0  0  0
   14.5204    4.8594    5.7034 C   0  0  2  0  0  0  0  0  0  0  0  0
   14.6989    6.1541    6.3286 O   0  0  0  0  0  0  0  0  0  0  0  0
   13.5778    4.9569    4.4610 C   0  0  1  0  0  0  0  0  0  0  0  0
   14.1774    5.7754    3.5143 O   0  0  0  0  0  0  0  0  0  0  0  0
   13.7519    6.8267    7.0265 C   0  0  1  0  0  0  0  0  0  0  0  0
   14.3630    8.0531    7.7531 C   0  0  2  0  0  0  0  0  0  0  0  0
   14.9368    7.7306    8.9866 O   0  0  0  0  0  0  0  0  0  0  0  0
   13.1614    8.9795    7.7269 C   0  0  1  0  0  0  0  0  0  0  0  0
   12.4594    8.7554    6.3801 C   0  0  2  0  0  0  0  0  0  0  0  0
   12.6594    7.3506    6.2241 O   0  0  0  0  0  0  0  0  0  0  0  0
   13.0423    9.5649    5.1720 C   0  0  0  0  0  0  0  0  0  0  0  0
   12.2137    9.2756    4.0149 O   0  0  0  0  0  0  0  0  0  0  0  0
   11.9909    9.6047    9.8151 C   0  0  2  0  0  0  0  0  0  0  0  0
   12.2884    8.6116    8.8721 O   0  0  0  0  0  0  0  0  0  0  0  0
   13.3152   10.2219   10.4435 C   0  0  1  0  0  0  0  0  0  0  0  0
    8.5543    8.5702   12.4708 N   0  0  0  0  0  0  0  0  0  0  0  0
   12.8541   11.3324   11.5255 C   0  0  1  0  0  0  0  0  0  0  0  0
   12.0153   12.3704   10.8070 O   0  0  0  0  0  0  0  0  0  0  0  0
   11.9920   10.6295   12.7041 C   0  0  2  0  0  0  0  0  0  0  0  0
   12.8166    9.6504   13.3805 O   0  0  0  0  0  0  0  0  0  0  0  0
   10.6644    9.9773   12.0172 C   0  0  1  0  0  0  0  0  0  0  0  0
   11.0812    9.0196   10.9350 O   0  0  0  0  0  0  0  0  0  0  0  0
    9.7534    9.2408   13.0607 C   0  0  0  0  0  0  0  0  0  0  0  0
   14.1572    9.1325   11.0394 N   0  0  0  0  0  0  0  0  0  0  0  0
  1  2  1  1  0  0  0
  1  3  1  0  0  0  0
  1 10  1  0  0  0  0
  3  4  1  1  0  0  0
  3  5  1  0  0  0  0
  5  6  1  1  0  0  0
  5  7  1  0  0  0  0
  7  8  1  1  0  0  0
  7  9  1  0  0  0  0
  9 10  1  0  0  0  0
  9 11  1  6  0  0  0
 11 12  1  0  0  0  0
 13 14  1  6  0  0  0
 13 15  1  0  0  0  0
 13 21  1  0  0  0  0
 16 15  1  0  0  0  0
 16 17  1  1  0  0  0
 18  2  1  1  0  0  0
 18 16  1  0  0  0  0
 19 18  1  0  0  0  0
 19 20  1  1  0  0  0
 21 19  1  0  0  0  0
 21 22  1  6  0  0  0
 23 20  1  6  0  0  0
 23 24  1  0  0  0  0
 23 28  1  0  0  0  0
 24 25  1  1  0  0  0
 24 26  1  0  0  0  0
 26 27  1  0  0  0  0
 26 32  1  1  0  0  0
 27 28  1  0  0  0  0
 27 29  1  6  0  0  0
 29 30  1  0  0  0  0
 31 32  1  6  0  0  0
 31 40  1  0  0  0  0
 33 31  1  0  0  0  0
 33 42  1  1  0  0  0
 35 33  1  0  0  0  0
 35 36  1  6  0  0  0
 37 35  1  0  0  0  0
 37 38  1  6  0  0  0
 37 39  1  0  0  0  0
 39 40  1  0  0  0  0
 39 41  1  1  0  0  0
 41 34  1  0  0  0  0
M  END
>  <CHROM.1>
-171.71502452,176.04702701,61.48254281,-49.08952115,170.19676780,122.14057021
-177.16216971,-56.77939833,-177.28849131,13.96651441,6.71172976,8.18671832
-1.00574568,-0.78190808,1.15261900

>  <Name>
2et4_lig

>  <RI>
1.79929e+07

>  <Rbt.Current_Directory>
/home/itssahil/PROJECTS/Mol_Feturizer/New_Systems/rnas/2et4

>  <Rbt.Executable>
rbdock ($Id: //depot/dev/client3/rdock/2013.1/src/exe/rbdock.cxx#4 $)

>  <Rbt.Library>
libRbt.so (2013.1, Build901 2013/11/27)

>  <Rbt.Parameter_File>
/export/apps/rDock/src/rDock_2013.1_src/data/scripts/dock_solv.prm

>  <Rbt.Receptor>
prm/pocket_docking_7.prm

>  <SCORE>
-9.3455

>  <SCORE.INTER>
-4.20561

>  <SCORE.INTER.CONST>
1

>  <SCORE.INTER.POLAR>
-1.04521

>  <SCORE.INTER.ROT>
9

>  <SCORE.INTER.SOLV>
11.8918

>  <SCORE.INTER.VDW>
-12.8837

>  <SCORE.INTER.norm>
-0.100133

>  <SCORE.INTRA>
-5.13989

>  <SCORE.INTRA.DIHEDRAL>
-12.8683

>  <SCORE.INTRA.DIHEDRAL.0>
21.6909

>  <SCORE.INTRA.POLAR>
0

>  <SCORE.INTRA.POLAR.0>
0

>  <SCORE.INTRA.REPUL>
0

>  <SCORE.INTRA.REPUL.0>
0

>  <SCORE.INTRA.SOLV>
1.24598

>  <SCORE.INTRA.SOLV.lig_0>
-116.606

>  <SCORE.INTRA.VDW>
0.671243

>  <SCORE.INTRA.VDW.0>
-6.01229

>  <SCORE.INTRA.norm>
-0.122378

>  <SCORE.RESTR>
0

>  <SCORE.RESTR.CAVITY>
0

>  <SCORE.RESTR.norm>
0

>  <SCORE.SYSTEM>
0

>  <SCORE.SYSTEM.CONST>
0

>  <SCORE.SYSTEM.DIHEDRAL>
0

>  <SCORE.SYSTEM.SOLV>
0

>  <SCORE.SYSTEM.norm>
0

>  <SCORE.heavy>
42

>  <SCORE.norm>
-0.222512

>  <RMSD>
6.244

$$$$
2et4_lig
 OpenBabel11021811423D
libRbt.so/2013.1/901 2013/11/27
 42 45  0  0  0  0  0  0  0  0999 V2000
   16.7713    6.6668    5.7498 C   0  0  2  0  0  0  0  0  0  0  0  0
   16.3911    5.5177    4.9901 O   0  0  0  0  0  0  0  0  0  0  0  0
   18.3206    6.7007    5.7831 C   0  0  2  0  0  0  0  0  0  0  0  0
   18.8740    6.7308    4.4532 N   0  0  0  0  0  0  0  0  0  0  0  0
   18.8439    5.4705    6.5793 C   0  0  1  0  0  0  0  0  0  0  0  0
   20.2361    5.5121    6.6215 O   0  0  0  0  0  0  0  0  0  0  0  0
   18.2057    5.5049    8.0081 C   0  0  2  0  0  0  0  0  0  0  0  0
   18.6490    4.3989    8.7655 O   0  0  0  0  0  0  0  0  0  0  0  0
   16.6495    5.4800    7.9218 C   0  0  2  0  0  0  0  0  0  0  0  0
   16.2237    6.5959    7.1342 O   0  0  0  0  0  0  0  0  0  0  0  0
   15.9762    5.5553    9.3313 C   0  0  0  0  0  0  0  0  0  0  0  0
   16.1738    4.3660   10.0846 N   0  0  0  0  0  0  0  0  0  0  0  0
   12.7299    3.8695    3.3983 C   0  0  2  0  0  0  0  0  0  0  0  0
   11.3494    3.3733    3.3372 N   0  0  0  0  0  0  0  0  0  0  0  0
   13.5818    2.9748    4.4501 C   0  0  0  0  0  0  0  0  0  0  0  0
   15.0654    3.5234    4.5226 C   0  0  2  0  0  0  0  0  0  0  0  0
   15.8704    2.7541    5.4880 N   0  0  0  0  0  0  0  0  0  0  0  0
   15.0426    5.0316    4.9437 C   0  0  2  0  0  0  0  0  0  0  0  0
   14.1941    5.8771    3.9373 C   0  0  2  0  0  0  0  0  0  0  0  0
   14.2238    7.2425    4.4209 O   0  0  0  0  0  0  0  0  0  0  0  0
   12.7321    5.3285    3.8833 C   0  0  1  0  0  0  0  0  0  0  0  0
   12.0084    6.0872    2.9743 O   0  0  0  0  0  0  0  0  0  0  0  0
   14.0220    7.6257    5.7049 C   0  0  1  0  0  0  0  0  0  0  0  0
   13.7032    9.1412    5.7892 C   0  0  2  0  0  0  0  0  0  0  0  0
   14.8486    9.9429    5.8084 O   0  0  0  0  0  0  0  0  0  0  0  0
   12.7960    9.1352    7.0057 C   0  0  1  0  0  0  0  0  0  0  0  0
   11.9558    7.8529    6.9245 C   0  0  2  0  0  0  0  0  0  0  0  0
   12.9209    6.9555    6.3759 O   0  0  0  0  0  0  0  0  0  0  0  0
   10.6706    7.9430    6.0331 C   0  0  0  0  0  0  0  0  0  0  0  0
   11.1021    8.2263    4.6757 O   0  0  0  0  0  0  0  0  0  0  0  0
   13.0781    8.8425    9.4462 C   0  0  2  0  0  0  0  0  0  0  0  0
   13.6649    9.1503    8.2113 O   0  0  0  0  0  0  0  0  0  0  0  0
   12.1627   10.0350    9.9656 C   0  0  1  0  0  0  0  0  0  0  0  0
   14.5630    7.2904   14.1423 N   0  0  0  0  0  0  0  0  0  0  0  0
   11.5599    9.5819   11.3967 C   0  0  1  0  0  0  0  0  0  0  0  0
   10.7797    8.2983   11.1942 O   0  0  0  0  0  0  0  0  0  0  0  0
   12.7658    9.3470   12.4536 C   0  0  2  0  0  0  0  0  0  0  0  0
   13.4890   10.5878   12.6370 O   0  0  0  0  0  0  0  0  0  0  0  0
   13.7015    8.1457   11.8697 C   0  0  1  0  0  0  0  0  0  0  0  0
   14.1825    8.5117   10.4925 O   0  0  0  0  0  0  0  0  0  0  0  0
   14.9271    7.8385   12.7996 C   0  0  0  0  0  0  0  0  0  0  0  0
   12.9620   11.3026   10.0375 N   0  0  0  0  0  0  0  0  0  0  0  0
  1  2  1  6  0  0  0
  1  3  1  0  0  0  0
  1 10  1  0  0  0  0
  3  4  1  6  0  0  0
  3  5  1  0  0  0  0
  5  6  1  1  0  0  0
  5  7  1  0  0  0  0
  7  8  1  1  0  0  0
  7  9  1  0  0  0  0
  9 10  1  0  0  0  0
  9 11  1  1  0  0  0
 11 12  1  0  0  0  0
 13 14  1  1  0  0  0
 13 15  1  0  0  0  0
 13 21  1  0  0  0  0
 16 15  1  0  0  0  0
 16 17  1  1  0  0  0
 18  2  1  6  0  0  0
 18 16  1  0  0  0  0
 19 18  1  0  0  0  0
 19 20  1  1  0  0  0
 21 19  1  0  0  0  0
 21 22  1  6  0  0  0
 23 20  1  6  0  0  0
 23 24  1  0  0  0  0
 23 28  1  0  0  0  0
 24 25  1  1  0  0  0
 24 26  1  0  0  0  0
 26 27  1  0  0  0  0
 26 32  1  1  0  0  0
 27 28  1  0  0  0  0
 27 29  1  6  0  0  0
 29 30  1  0  0  0  0
 31 32  1  6  0  0  0
 31 40  1  0  0  0  0
 33 31  1  0  0  0  0
 33 42  1  1  0  0  0
 35 33  1  0  0  0  0
 35 36  1  6  0  0  0
 37 35  1  0  0  0  0
 37 38  1  6  0  0  0
 37 39  1  0  0  0  0
 39 40  1  0  0  0  0
 39 41  1  1  0  0  0
 41 34  1  0  0  0  0
M  END
>  <CHROM.1>
168.69185479,-69.65819589,-158.17810795,-46.25715273,-162.89051601,-165.71129097
61.93206283,-73.46529116,65.54081194,14.47836558,6.93312133,7.37768897,-1.27586893
-0.42403263,1.14538118

>  <Name>
2et4_lig

>  <RI>
0

>  <Rbt.Current_Directory>
/home/itssahil/PROJECTS/Mol_Feturizer/New_Systems/rnas/2et4

>  <Rbt.Executable>
rbdock ($Id: //depot/dev/client3/rdock/2013.1/src/exe/rbdock.cxx#4 $)

>  <Rbt.Library>
libRbt.so (2013.1, Build901 2013/11/27)

>  <Rbt.Parameter_File>
/export/apps/rDock/src/rDock_2013.1_src/data/scripts/dock_solv.prm

>  <Rbt.Receptor>
prm/pocket_docking_6.prm

>  <SCORE>
-16.7774

>  <SCORE.INTER>
-10.2894

>  <SCORE.INTER.CONST>
1

>  <SCORE.INTER.POLAR>
-2.24523

>  <SCORE.INTER.ROT>
9

>  <SCORE.INTER.SOLV>
17.1247

>  <SCORE.INTER.VDW>
-14.6837

>  <SCORE.INTER.norm>
-0.244986

>  <SCORE.INTRA>
-6.48801

>  <SCORE.INTRA.DIHEDRAL>
-14.3084

>  <SCORE.INTRA.DIHEDRAL.0>
21.6909

>  <SCORE.INTRA.POLAR>
0

>  <SCORE.INTRA.POLAR.0>
0

>  <SCORE.INTRA.REPUL>
0.0424216

>  <SCORE.INTRA.REPUL.0>
0

>  <SCORE.INTRA.SOLV>
-1.10885

>  <SCORE.INTRA.SOLV.lig_0>
-116.606

>  <SCORE.INTRA.VDW>
1.0085

>  <SCORE.INTRA.VDW.0>
-6.01229

>  <SCORE.INTRA.norm>
-0.154476

>  <SCORE.RESTR>
0

>  <SCORE.RESTR.CAVITY>
0

>  <SCORE.RESTR.norm>
0

>  <SCORE.SYSTEM>
0

>  <SCORE.SYSTEM.CONST>
0

>  <SCORE.SYSTEM.DIHEDRAL>
0

>  <SCORE.SYSTEM.SOLV>
0

>  <SCORE.SYSTEM.norm>
0

>  <SCORE.heavy>
42

>  <SCORE.norm>
-0.399463

>  <RMSD>
6.259

$$$$
2et4_lig
 OpenBabel11021811423D
libRbt.so/2013.1/901 2013/11/27
 42 45  0  0  0  0  0  0  0  0999 V2000
   16.5148    4.3439    9.0351 C   0  0  2  0  0  0  0  0  0  0  0  0
   16.3324    4.9295    7.7443 O   0  0  0  0  0  0  0  0  0  0  0  0
   17.7767    3.4472    8.9559 C   0  0  2  0  0  0  0  0  0  0  0  0
   18.9321    4.2018    8.5421 N   0  0  0  0  0  0  0  0  0  0  0  0
   17.5046    2.2626    7.9844 C   0  0  1  0  0  0  0  0  0  0  0  0
   18.6347    1.4494    7.9276 O   0  0  0  0  0  0  0  0  0  0  0  0
   16.2429    1.4902    8.4960 C   0  0  2  0  0  0  0  0  0  0  0  0
   15.9542    0.4075    7.6370 O   0  0  0  0  0  0  0  0  0  0  0  0
   15.0051    2.4349    8.5682 C   0  0  2  0  0  0  0  0  0  0  0  0
   15.3262    3.5339    9.4260 O   0  0  0  0  0  0  0  0  0  0  0  0
   13.7343    1.7063    9.1155 C   0  0  0  0  0  0  0  0  0  0  0  0
   13.9049    1.2635   10.4556 N   0  0  0  0  0  0  0  0  0  0  0  0
   13.8827    8.0273    5.9957 C   0  0  2  0  0  0  0  0  0  0  0  0
   12.6950    8.8112    5.6348 N   0  0  0  0  0  0  0  0  0  0  0  0
   13.7254    6.5138    5.4328 C   0  0  0  0  0  0  0  0  0  0  0  0
   15.0023    5.6693    5.8373 C   0  0  2  0  0  0  0  0  0  0  0  0
   14.8903    4.2772    5.3671 N   0  0  0  0  0  0  0  0  0  0  0  0
   15.1644    5.6848    7.3949 C   0  0  2  0  0  0  0  0  0  0  0  0
   15.2858    7.1512    7.9268 C   0  0  2  0  0  0  0  0  0  0  0  0
   15.4155    7.0564    9.3666 O   0  0  0  0  0  0  0  0  0  0  0  0
   14.0156    7.9683    7.5263 C   0  0  1  0  0  0  0  0  0  0  0  0
   14.1575    9.2655    7.9982 O   0  0  0  0  0  0  0  0  0  0  0  0
   14.3899    6.9064   10.2395 C   0  0  1  0  0  0  0  0  0  0  0  0
   14.9126    6.7726   11.6936 C   0  0  2  0  0  0  0  0  0  0  0  0
   15.2870    5.4667   12.0244 O   0  0  0  0  0  0  0  0  0  0  0  0
   13.7499    7.4081   12.4333 C   0  0  1  0  0  0  0  0  0  0  0  0
   13.2535    8.5703   11.5617 C   0  0  2  0  0  0  0  0  0  0  0  0
   13.4426    8.0082   10.2632 O   0  0  0  0  0  0  0  0  0  0  0  0
   14.0295    9.9207   11.7310 C   0  0  0  0  0  0  0  0  0  0  0  0
   13.9401   10.6344   10.4693 O   0  0  0  0  0  0  0  0  0  0  0  0
   11.6089    6.6641   13.4252 C   0  0  2  0  0  0  0  0  0  0  0  0
   12.7066    6.3641   12.6073 O   0  0  0  0  0  0  0  0  0  0  0  0
   10.8084    5.3492   13.8253 C   0  0  1  0  0  0  0  0  0  0  0  0
    9.3335   10.3771   12.2639 N   0  0  0  0  0  0  0  0  0  0  0  0
    9.5604    5.8144   14.7433 C   0  0  1  0  0  0  0  0  0  0  0  0
   10.1109    6.5476   15.9504 O   0  0  0  0  0  0  0  0  0  0  0  0
    8.5818    6.7863   13.8924 C   0  0  2  0  0  0  0  0  0  0  0  0
    8.0621    6.0614   12.7520 O   0  0  0  0  0  0  0  0  0  0  0  0
    9.4465    8.1027   13.4691 C   0  0  1  0  0  0  0  0  0  0  0  0
   10.6679    7.6732   12.7039 O   0  0  0  0  0  0  0  0  0  0  0  0
    8.6091    9.1167   12.6136 C   0  0  0  0  0  0  0  0  0  0  0  0
   10.3877    4.6081   12.5906 N   0  0  0  0  0  0  0  0  0  0  0  0
  1  2  1  6  0  0  0
  1  3  1  0  0  0  0
  1 10  1  0  0  0  0
  3  4  1  6  0  0  0
  3  5  1  0  0  0  0
  5  6  1  1  0  0  0
  5  7  1  0  0  0  0
  7  8  1  6  0  0  0
  7  9  1  0  0  0  0
  9 10  1  0  0  0  0
  9 11  1  1  0  0  0
 11 12  1  0  0  0  0
 13 14  1  1  0  0  0
 13 15  1  0  0  0  0
 13 21  1  0  0  0  0
 16 15  1  0  0  0  0
 16 17  1  1  0  0  0
 18  2  1  6  0  0  0
 18 16  1  0  0  0  0
 19 18  1  0  0  0  0
 19 20  1  1  0  0  0
 21 19  1  0  0  0  0
 21 22  1  6  0  0  0
 23 20  1  6  0  0  0
 23 24  1  0  0  0  0
 23 28  1  0  0  0  0
 24 25  1  1  0  0  0
 24 26  1  0  0  0  0
 26 27  1  0  0  0  0
 26 32  1  6  0  0  0
 27 28  1  0  0  0  0
 27 29  1  6  0  0  0
 29 30  1  0  0  0  0
 31 32  1  6  0  0  0
 31 40  1  0  0  0  0
 33 31  1  0  0  0  0
 33 42  1  6  0  0  0
 35 33  1  0  0  0  0
 35 36  1  1  0  0  0
 37 35  1  0  0  0  0
 37 38  1  6  0  0  0
 37 39  1  0  0  0  0
 39 40  1  0  0  0  0
 39 41  1  6  0  0  0
 41 34  1  0  0  0  0
M  END
>  <CHROM.1>
171.76632066,63.41507369,-157.03817184,-82.06938192,177.21204689,171.47043423
151.43146427,-164.49150962,176.75684584,13.64556197,5.93387948,10.10314477
0.12395029,-0.83896881,2.66169396

>  <Name>
2et4_lig

>  <RI>
1.79929e+07

>  <Rbt.Current_Directory>
/home/itssahil/PROJECTS/Mol_Feturizer/New_Systems/rnas/2et4

>  <Rbt.Executable>
rbdock ($Id: //depot/dev/client3/rdock/2013.1/src/exe/rbdock.cxx#4 $)

>  <Rbt.Library>
libRbt.so (2013.1, Build901 2013/11/27)

>  <Rbt.Parameter_File>
/export/apps/rDock/src/rDock_2013.1_src/data/scripts/dock_solv.prm

>  <Rbt.Receptor>
prm/pocket_docking_7.prm

>  <SCORE>
-14.7379

>  <SCORE.INTER>
-8.48169

>  <SCORE.INTER.CONST>
1

>  <SCORE.INTER.POLAR>
-1.83002

>  <SCORE.INTER.ROT>
9

>  <SCORE.INTER.SOLV>
14.478

>  <SCORE.INTER.VDW>
-13.9804

>  <SCORE.INTER.norm>
-0.201945

>  <SCORE.INTRA>
-6.25624

>  <SCORE.INTRA.DIHEDRAL>
-12.7634

>  <SCORE.INTRA.DIHEDRAL.0>
21.6909

>  <SCORE.INTRA.POLAR>
0

>  <SCORE.INTRA.POLAR.0>
0

>  <SCORE.INTRA.REPUL>
0.0204223

>  <SCORE.INTRA.REPUL.0>
0

>  <SCORE.INTRA.SOLV>
-2.07429

>  <SCORE.INTRA.SOLV.lig_0>
-116.606

>  <SCORE.INTRA.VDW>
1.0605

>  <SCORE.INTRA.VDW.0>
-6.01229

>  <SCORE.INTRA.norm>
-0.148958

>  <SCORE.RESTR>
0

>  <SCORE.RESTR.CAVITY>
0

>  <SCORE.RESTR.norm>
0

>  <SCORE.SYSTEM>
0

>  <SCORE.SYSTEM.CONST>
0

>  <SCORE.SYSTEM.DIHEDRAL>
0

>  <SCORE.SYSTEM.SOLV>
0

>  <SCORE.SYSTEM.norm>
0

>  <SCORE.heavy>
42

>  <SCORE.norm>
-0.350903

>  <RMSD>
6.269

$$$$
2et4_lig
 OpenBabel11021811423D
libRbt.so/2013.1/901 2013/11/27
 42 45  0  0  0  0  0  0  0  0999 V2000
   16.7994    4.8663    8.1003 C   0  0  2  0  0  0  0  0  0  0  0  0
   17.3656    5.7854    7.1638 O   0  0  0  0  0  0  0  0  0  0  0  0
   17.9515    4.3780    9.0150 C   0  0  2  0  0  0  0  0  0  0  0  0
   18.6025    5.4813    9.6742 N   0  0  0  0  0  0  0  0  0  0  0  0
   18.9651    3.5548    8.1687 C   0  0  1  0  0  0  0  0  0  0  0  0
   19.9912    3.1035    8.9965 O   0  0  0  0  0  0  0  0  0  0  0  0
   18.1911    2.3773    7.4874 C   0  0  2  0  0  0  0  0  0  0  0  0
   19.0739    1.6056    6.7009 O   0  0  0  0  0  0  0  0  0  0  0  0
   17.0380    2.9175    6.5882 C   0  0  2  0  0  0  0  0  0  0  0  0
   16.1681    3.7122    7.3997 O   0  0  0  0  0  0  0  0  0  0  0  0
   16.2156    1.7658    5.9230 C   0  0  0  0  0  0  0  0  0  0  0  0
   15.5637    0.9470    6.8852 N   0  0  0  0  0  0  0  0  0  0  0  0
   15.7251    9.1970    5.0843 C   0  0  2  0  0  0  0  0  0  0  0  0
   14.9106    9.9872    4.1527 N   0  0  0  0  0  0  0  0  0  0  0  0
   16.6539    8.1617    4.2489 C   0  0  0  0  0  0  0  0  0  0  0  0
   17.5192    7.3025    5.2590 C   0  0  2  0  0  0  0  0  0  0  0  0
   18.3614    6.3283    4.5427 N   0  0  0  0  0  0  0  0  0  0  0  0
   16.5676    6.5463    6.2466 C   0  0  2  0  0  0  0  0  0  0  0  0
   15.6580    7.5543    7.0239 C   0  0  2  0  0  0  0  0  0  0  0  0
   14.8128    6.7598    7.8919 O   0  0  0  0  0  0  0  0  0  0  0  0
   14.8058    8.3883    6.0141 C   0  0  1  0  0  0  0  0  0  0  0  0
   14.0211    9.2814    6.7299 O   0  0  0  0  0  0  0  0  0  0  0  0
   14.0738    7.2388    8.9219 C   0  0  1  0  0  0  0  0  0  0  0  0
   13.2239    6.1131    9.5667 C   0  0  2  0  0  0  0  0  0  0  0  0
   12.0148    5.8884    8.9013 O   0  0  0  0  0  0  0  0  0  0  0  0
   13.1868    6.6201   10.9965 C   0  0  1  0  0  0  0  0  0  0  0  0
   14.5622    7.2396   11.2818 C   0  0  2  0  0  0  0  0  0  0  0  0
   14.8449    7.8191   10.0083 O   0  0  0  0  0  0  0  0  0  0  0  0
   15.6776    6.2325   11.7246 C   0  0  0  0  0  0  0  0  0  0  0  0
   15.2595    5.6482   12.9867 O   0  0  0  0  0  0  0  0  0  0  0  0
   11.8246    8.1887   12.3401 C   0  0  2  0  0  0  0  0  0  0  0  0
   12.0984    7.6283   11.0852 O   0  0  0  0  0  0  0  0  0  0  0  0
   11.3824    7.0761   13.3871 C   0  0  1  0  0  0  0  0  0  0  0  0
    9.6102   12.0930   12.1862 N   0  0  0  0  0  0  0  0  0  0  0  0
   11.0726    7.8338   14.7823 C   0  0  1  0  0  0  0  0  0  0  0  0
   12.3293    8.5654   15.2102 O   0  0  0  0  0  0  0  0  0  0  0  0
    9.8521    8.8810   14.5822 C   0  0  2  0  0  0  0  0  0  0  0  0
    8.6627    8.1580   14.1835 O   0  0  0  0  0  0  0  0  0  0  0  0
   10.3278    9.9818   13.4768 C   0  0  1  0  0  0  0  0  0  0  0  0
   10.7196    9.2775   12.2070 O   0  0  0  0  0  0  0  0  0  0  0  0
    9.2141   11.0451   13.1763 C   0  0  0  0  0  0  0  0  0  0  0  0
   10.2051    6.3114   12.8579 N   0  0  0  0  0  0  0  0  0  0  0  0
  1  2  1  6  0  0  0
  1  3  1  0  0  0  0
  1 10  1  0  0  0  0
  3  4  1  6  0  0  0
  3  5  1  0  0  0  0
  5  6  1  1  0  0  0
  5  7  1  0  0  0  0
  7  8  1  6  0  0  0
  7  9  1  0  0  0  0
  9 10  1  0  0  0  0
  9 11  1  1  0  0  0
 11 12  1  0  0  0  0
 13 14  1  6  0  0  0
 13 15  1  0  0  0  0
 13 21  1  0  0  0  0
 16 15  1  0  0  0  0
 16 17  1  6  0  0  0
 18  2  1  1  0  0  0
 18 16  1  0  0  0  0
 19 18  1  0  0  0  0
 19 20  1  1  0  0  0
 21 19  1  0  0  0  0
 21 22  1  1  0  0  0
 23 20  1  6  0  0  0
 23 24  1  0  0  0  0
 23 28  1  0  0  0  0
 24 25  1  6  0  0  0
 24 26  1  0  0  0  0
 26 27  1  0  0  0  0
 26 32  1  6  0  0  0
 27 28  1  0  0  0  0
 27 29  1  6  0  0  0
 29 30  1  0  0  0  0
 31 32  1  6  0  0  0
 31 40  1  0  0  0  0
 33 31  1  0  0  0  0
 33 42  1  6  0  0  0
 35 33  1  0  0  0  0
 35 36  1  6  0  0  0
 37 35  1  0  0  0  0
 37 38  1  6  0  0  0
 37 39  1  0  0  0  0
 39 40  1  0  0  0  0
 39 41  1  6  0  0  0
 41 34  1  0  0  0  0
M  END
>  <CHROM.1>
-173.34805636,62.62783785,-172.90338875,165.96171083,176.25411825,176.60396628
-63.23030313,-60.77264310,178.93688938,14.54031214,6.60510623,9.38610947
-0.23153042,-0.82907883,2.24771148

>  <Name>
2et4_lig

>  <RI>
0

>  <Rbt.Current_Directory>
/home/itssahil/PROJECTS/Mol_Feturizer/New_Systems/rnas/2et4

>  <Rbt.Executable>
rbdock ($Id: //depot/dev/client3/rdock/2013.1/src/exe/rbdock.cxx#4 $)

>  <Rbt.Library>
libRbt.so (2013.1, Build901 2013/11/27)

>  <Rbt.Parameter_File>
/export/apps/rDock/src/rDock_2013.1_src/data/scripts/dock_solv.prm

>  <Rbt.Receptor>
prm/pocket_docking_8.prm

>  <SCORE>
-19.2028

>  <SCORE.INTER>
-9.12128

>  <SCORE.INTER.CONST>
1

>  <SCORE.INTER.POLAR>
-1.39842

>  <SCORE.INTER.ROT>
9

>  <SCORE.INTER.SOLV>
14.7246

>  <SCORE.INTER.VDW>
-15.9276

>  <SCORE.INTER.norm>
-0.217173

>  <SCORE.INTRA>
-10.0815

>  <SCORE.INTRA.DIHEDRAL>
-19.9217

>  <SCORE.INTRA.DIHEDRAL.0>
21.6909

>  <SCORE.INTRA.POLAR>
0

>  <SCORE.INTRA.POLAR.0>
0

>  <SCORE.INTRA.REPUL>
0

>  <SCORE.INTRA.REPUL.0>
0

>  <SCORE.INTRA.SOLV>
-3.29163

>  <SCORE.INTRA.SOLV.lig_0>
-116.606

>  <SCORE.INTRA.VDW>
1.52516

>  <SCORE.INTRA.VDW.0>
-6.01229

>  <SCORE.INTRA.norm>
-0.240035

>  <SCORE.RESTR>
0

>  <SCORE.RESTR.CAVITY>
0

>  <SCORE.RESTR.norm>
0

>  <SCORE.SYSTEM>
0

>  <SCORE.SYSTEM.CONST>
0

>  <SCORE.SYSTEM.DIHEDRAL>
0

>  <SCORE.SYSTEM.SOLV>
0

>  <SCORE.SYSTEM.norm>
0

>  <SCORE.heavy>
42

>  <SCORE.norm>
-0.457209

>  <RMSD>
6.281

$$$$
2et4_lig
 OpenBabel11021811423D
libRbt.so/2013.1/901 2013/11/27
 42 45  0  0  0  0  0  0  0  0999 V2000
   13.8736   10.8930    4.2718 C   0  0  2  0  0  0  0  0  0  0  0  0
   15.0681   10.1450    4.0355 O   0  0  0  0  0  0  0  0  0  0  0  0
   12.8101    9.8992    4.8047 C   0  0  2  0  0  0  0  0  0  0  0  0
   13.2670    9.2295    5.9956 N   0  0  0  0  0  0  0  0  0  0  0  0
   12.4584    8.8755    3.6869 C   0  0  1  0  0  0  0  0  0  0  0  0
   11.4905    7.9934    4.1631 O   0  0  0  0  0  0  0  0  0  0  0  0
   11.9694    9.6713    2.4308 C   0  0  2  0  0  0  0  0  0  0  0  0
   11.6453    8.7789    1.3857 O   0  0  0  0  0  0  0  0  0  0  0  0
   13.0673   10.6630    1.9398 C   0  0  2  0  0  0  0  0  0  0  0  0
   13.3949   11.5432    3.0190 O   0  0  0  0  0  0  0  0  0  0  0  0
   12.5973   11.5061    0.7095 C   0  0  0  0  0  0  0  0  0  0  0  0
   13.6492   12.2917    0.1640 N   0  0  0  0  0  0  0  0  0  0  0  0
   17.6224   11.8859    1.0189 C   0  0  2  0  0  0  0  0  0  0  0  0
   18.8095   12.4702    0.3824 N   0  0  0  0  0  0  0  0  0  0  0  0
   17.1628   12.8158    2.2665 C   0  0  0  0  0  0  0  0  0  0  0  0
   15.8913   12.1734    2.9578 C   0  0  2  0  0  0  0  0  0  0  0  0
   15.4537   12.9738    4.1151 N   0  0  0  0  0  0  0  0  0  0  0  0
   16.2328   10.7185    3.4259 C   0  0  2  0  0  0  0  0  0  0  0  0
   16.7020    9.8415    2.2182 C   0  0  2  0  0  0  0  0  0  0  0  0
   17.0053    8.5307    2.7558 O   0  0  0  0  0  0  0  0  0  0  0  0
   17.9610   10.4843    1.5525 C   0  0  1  0  0  0  0  0  0  0  0  0
   18.3452    9.6942    0.4784 O   0  0  0  0  0  0  0  0  0  0  0  0
   16.9890    8.1973    4.0691 C   0  0  1  0  0  0  0  0  0  0  0  0
   16.7229    6.6806    4.2543 C   0  0  2  0  0  0  0  0  0  0  0  0
   15.3633    6.3551    4.2315 O   0  0  0  0  0  0  0  0  0  0  0  0
   17.5081    6.4465    5.5316 C   0  0  1  0  0  0  0  0  0  0  0  0
   18.7643    7.3248    5.4458 C   0  0  2  0  0  0  0  0  0  0  0  0
   18.2254    8.4685    4.7829 O   0  0  0  0  0  0  0  0  0  0  0  0
   19.9679    6.7065    4.6560 C   0  0  0  0  0  0  0  0  0  0  0  0
   21.0265    7.7003    4.6292 O   0  0  0  0  0  0  0  0  0  0  0  0
   16.0472    5.8174    7.4267 C   0  0  2  0  0  0  0  0  0  0  0  0
   16.6371    6.8389    6.6700 O   0  0  0  0  0  0  0  0  0  0  0  0
   15.0659    6.4075    8.5306 C   0  0  1  0  0  0  0  0  0  0  0  0
   17.5282    1.9462   10.5082 N   0  0  0  0  0  0  0  0  0  0  0  0
   14.4642    5.1502    9.3515 C   0  0  1  0  0  0  0  0  0  0  0  0
   13.7519    4.2429    8.3681 O   0  0  0  0  0  0  0  0  0  0  0  0
   15.6637    4.3486   10.0899 C   0  0  2  0  0  0  0  0  0  0  0  0
   16.3215    5.2323   11.0293 O   0  0  0  0  0  0  0  0  0  0  0  0
   16.6669    3.7922    8.9307 C   0  0  1  0  0  0  0  0  0  0  0  0
   17.1504    4.9441    8.0933 O   0  0  0  0  0  0  0  0  0  0  0  0
   17.8916    3.0127    9.5254 C   0  0  0  0  0  0  0  0  0  0  0  0
   15.8001    7.3833    9.4021 N   0  0  0  0  0  0  0  0  0  0  0  0
  1  2  1  6  0  0  0
  1  3  1  0  0  0  0
  1 10  1  0  0  0  0
  3  4  1  1  0  0  0
  3  5  1  0  0  0  0
  5  6  1  1  0  0  0
  5  7  1  0  0  0  0
  7  8  1  6  0  0  0
  7  9  1  0  0  0  0
  9 10  1  0  0  0  0
  9 11  1  6  0  0  0
 11 12  1  0  0  0  0
 13 14  1  1  0  0  0
 13 15  1  0  0  0  0
 13 21  1  0  0  0  0
 16 15  1  0  0  0  0
 16 17  1  1  0  0  0
 18  2  1  6  0  0  0
 18 16  1  0  0  0  0
 19 18  1  0  0  0  0
 19 20  1  1  0  0  0
 21 19  1  0  0  0  0
 21 22  1  6  0  0  0
 23 20  1  6  0  0  0
 23 24  1  0  0  0  0
 23 28  1  0  0  0  0
 24 25  1  1  0  0  0
 24 26  1  0  0  0  0
 26 27  1  0  0  0  0
 26 32  1  1  0  0  0
 27 28  1  0  0  0  0
 27 29  1  6  0  0  0
 29 30  1  0  0  0  0
 31 32  1  1  0  0  0
 31 40  1  0  0  0  0
 33 31  1  0  0  0  0
 33 42  1  1  0  0  0
 35 33  1  0  0  0  0
 35 36  1  6  0  0  0
 37 35  1  0  0  0  0
 37 38  1  1  0  0  0
 37 39  1  0  0  0  0
 39 40  1  0  0  0  0
 39 41  1  1  0  0  0
 41 34  1  0  0  0  0
M  END
>  <CHROM.1>
174.38455786,-172.94508737,-6.08877476,-5.23450499,154.28568255,104.31750760
177.29413113,-175.74440121,50.92859340,15.81659625,8.30721968,4.84295209
1.70890299,0.10412931,-0.83984619

>  <Name>
2et4_lig

>  <RI>
0

>  <Rbt.Current_Directory>
/home/itssahil/PROJECTS/Mol_Feturizer/New_Systems/rnas/2et4

>  <Rbt.Executable>
rbdock ($Id: //depot/dev/client3/rdock/2013.1/src/exe/rbdock.cxx#4 $)

>  <Rbt.Library>
libRbt.so (2013.1, Build901 2013/11/27)

>  <Rbt.Parameter_File>
/export/apps/rDock/src/rDock_2013.1_src/data/scripts/dock_solv.prm

>  <Rbt.Receptor>
prm/blind_docking_80.prm

>  <SCORE>
36.8747

>  <SCORE.INTER>
14.5183

>  <SCORE.INTER.CONST>
1

>  <SCORE.INTER.POLAR>
-0.385612

>  <SCORE.INTER.ROT>
9

>  <SCORE.INTER.SOLV>
37.2864

>  <SCORE.INTER.VDW>
-11.0646

>  <SCORE.INTER.norm>
0.345673

>  <SCORE.INTRA>
7.85576

>  <SCORE.INTRA.DIHEDRAL>
2.09687

>  <SCORE.INTRA.DIHEDRAL.0>
21.6909

>  <SCORE.INTRA.POLAR>
0

>  <SCORE.INTRA.POLAR.0>
0

>  <SCORE.INTRA.REPUL>
0.0398698

>  <SCORE.INTRA.REPUL.0>
0

>  <SCORE.INTRA.SOLV>
-0.115282

>  <SCORE.INTRA.SOLV.lig_0>
-116.606

>  <SCORE.INTRA.VDW>
6.66562

>  <SCORE.INTRA.VDW.0>
-6.01229

>  <SCORE.INTRA.norm>
0.187042

>  <SCORE.RESTR>
14.5007

>  <SCORE.RESTR.CAVITY>
14.5007

>  <SCORE.RESTR.norm>
0.345254

>  <SCORE.SYSTEM>
0

>  <SCORE.SYSTEM.CONST>
0

>  <SCORE.SYSTEM.DIHEDRAL>
0

>  <SCORE.SYSTEM.SOLV>
0

>  <SCORE.SYSTEM.norm>
0

>  <SCORE.heavy>
42

>  <SCORE.norm>
0.877969

>  <RMSD>
6.293

$$$$
2et4_lig
 OpenBabel11021811423D
libRbt.so/2013.1/901 2013/11/27
 42 45  0  0  0  0  0  0  0  0999 V2000
   16.8316    4.8213    8.1026 C   0  0  2  0  0  0  0  0  0  0  0  0
   17.3941    5.7868    7.2117 O   0  0  0  0  0  0  0  0  0  0  0  0
   17.9796    4.3170    9.0139 C   0  0  2  0  0  0  0  0  0  0  0  0
   18.6015    5.4042    9.7257 N   0  0  0  0  0  0  0  0  0  0  0  0
   19.0194    3.5460    8.1504 C   0  0  1  0  0  0  0  0  0  0  0  0
   20.0418    3.0798    8.9744 O   0  0  0  0  0  0  0  0  0  0  0  0
   18.2761    2.3833    7.4117 C   0  0  2  0  0  0  0  0  0  0  0  0
   19.1834    1.6591    6.6081 O   0  0  0  0  0  0  0  0  0  0  0  0
   17.1261    2.9389    6.5180 C   0  0  2  0  0  0  0  0  0  0  0  0
   16.2309    3.6853    7.3476 O   0  0  0  0  0  0  0  0  0  0  0  0
   16.3337    1.8005    5.7958 C   0  0  0  0  0  0  0  0  0  0  0  0
   15.3034    2.3109    4.9597 N   0  0  0  0  0  0  0  0  0  0  0  0
   15.7518    9.1770    5.0989 C   0  0  2  0  0  0  0  0  0  0  0  0
   14.9417    9.9571    4.1551 N   0  0  0  0  0  0  0  0  0  0  0  0
   16.6966    8.1445    4.2783 C   0  0  0  0  0  0  0  0  0  0  0  0
   17.5572    7.2960    5.3015 C   0  0  2  0  0  0  0  0  0  0  0  0
   18.4138    6.3245    4.5987 N   0  0  0  0  0  0  0  0  0  0  0  0
   16.6006    6.5377    6.2825 C   0  0  2  0  0  0  0  0  0  0  0  0
   15.6758    7.5429    7.0454 C   0  0  2  0  0  0  0  0  0  0  0  0
   14.8270    6.7464    7.9082 O   0  0  0  0  0  0  0  0  0  0  0  0
   14.8284    8.3661    6.0228 C   0  0  1  0  0  0  0  0  0  0  0  0
   14.0300    9.2570    6.7260 O   0  0  0  0  0  0  0  0  0  0  0  0
   13.8734    7.2334    8.7387 C   0  0  1  0  0  0  0  0  0  0  0  0
   13.0757    6.0820    9.4047 C   0  0  2  0  0  0  0  0  0  0  0  0
   12.0315    5.6045    8.6068 O   0  0  0  0  0  0  0  0  0  0  0  0
   12.7388    6.7475   10.7262 C   0  0  1  0  0  0  0  0  0  0  0  0
   13.9594    7.5910   11.1204 C   0  0  2  0  0  0  0  0  0  0  0  0
   14.3749    8.0472    9.8332 O   0  0  0  0  0  0  0  0  0  0  0  0
   15.1030    6.8186   11.8622 C   0  0  0  0  0  0  0  0  0  0  0  0
   14.5527    6.3217   13.1110 O   0  0  0  0  0  0  0  0  0  0  0  0
   10.6023    7.6832   11.5516 C   0  0  2  0  0  0  0  0  0  0  0  0
   11.5334    7.5892   10.5084 O   0  0  0  0  0  0  0  0  0  0  0  0
    9.4014    8.6537   11.1700 C   0  0  1  0  0  0  0  0  0  0  0  0
   10.5131    8.9725   16.5552 N   0  0  0  0  0  0  0  0  0  0  0  0
    8.4077    8.7033   12.4455 C   0  0  1  0  0  0  0  0  0  0  0  0
    7.9416    7.2904   12.7347 O   0  0  0  0  0  0  0  0  0  0  0  0
    9.1876    9.3127   13.7288 C   0  0  2  0  0  0  0  0  0  0  0  0
    9.6139   10.6640   13.4316 O   0  0  0  0  0  0  0  0  0  0  0  0
   10.4313    8.3130   14.0659 C   0  0  1  0  0  0  0  0  0  0  0  0
   11.3059    8.1762   12.8500 O   0  0  0  0  0  0  0  0  0  0  0  0
   11.2843    8.8119   15.2844 C   0  0  0  0  0  0  0  0  0  0  0  0
    9.9333   10.0026   10.7846 N   0  0  0  0  0  0  0  0  0  0  0  0
  1  2  1  6  0  0  0
  1  3  1  0  0  0  0
  1 10  1  0  0  0  0
  3  4  1  6  0  0  0
  3  5  1  0  0  0  0
  5  6  1  1  0  0  0
  5  7  1  0  0  0  0
  7  8  1  6  0  0  0
  7  9  1  0  0  0  0
  9 10  1  0  0  0  0
  9 11  1  1  0  0  0
 11 12  1  0  0  0  0
 13 14  1  6  0  0  0
 13 15  1  0  0  0  0
 13 21  1  0  0  0  0
 16 15  1  0  0  0  0
 16 17  1  6  0  0  0
 18  2  1  1  0  0  0
 18 16  1  0  0  0  0
 19 18  1  0  0  0  0
 19 20  1  1  0  0  0
 21 19  1  0  0  0  0
 21 22  1  1  0  0  0
 23 20  1  1  0  0  0
 23 24  1  0  0  0  0
 23 28  1  0  0  0  0
 24 25  1  6  0  0  0
 24 26  1  0  0  0  0
 26 27  1  0  0  0  0
 26 32  1  6  0  0  0
 27 28  1  0  0  0  0
 27 29  1  6  0  0  0
 29 30  1  0  0  0  0
 31 32  1  6  0  0  0
 31 40  1  0  0  0  0
 33 31  1  0  0  0  0
 33 42  1  1  0  0  0
 35 33  1  0  0  0  0
 35 36  1  1  0  0  0
 37 35  1  0  0  0  0
 37 38  1  6  0  0  0
 37 39  1  0  0  0  0
 39 40  1  0  0  0  0
 39 41  1  1  0  0  0
 41 34  1  0  0  0  0
M  END
>  <CHROM.1>
-175.48744261,-178.77485589,-169.83354132,-179.68829488,174.61432728,144.29516044
-62.50954555,178.27226810,58.42522181,14.31258876,6.64939239,9.21047709,-0.34979557
-0.74427543,2.08866035

>  <Name>
2et4_lig

>  <RI>
0

>  <Rbt.Current_Directory>
/home/itssahil/PROJECTS/Mol_Feturizer/New_Systems/rnas/2et4

>  <Rbt.Executable>
rbdock ($Id: //depot/dev/client3/rdock/2013.1/src/exe/rbdock.cxx#4 $)

>  <Rbt.Library>
libRbt.so (2013.1, Build901 2013/11/27)

>  <Rbt.Parameter_File>
/export/apps/rDock/src/rDock_2013.1_src/data/scripts/dock_solv.prm

>  <Rbt.Receptor>
prm/pocket_docking_5.prm

>  <SCORE>
-17.1111

>  <SCORE.INTER>
-8.21016

>  <SCORE.INTER.CONST>
1

>  <SCORE.INTER.POLAR>
-1.3958

>  <SCORE.INTER.ROT>
9

>  <SCORE.INTER.SOLV>
13.5819

>  <SCORE.INTER.VDW>
-14.9481

>  <SCORE.INTER.norm>
-0.19548

>  <SCORE.INTRA>
-8.9024

>  <SCORE.INTRA.DIHEDRAL>
-16.0998

>  <SCORE.INTRA.DIHEDRAL.0>
21.6909

>  <SCORE.INTRA.POLAR>
0

>  <SCORE.INTRA.POLAR.0>
0

>  <SCORE.INTRA.REPUL>
0

>  <SCORE.INTRA.REPUL.0>
0

>  <SCORE.INTRA.SOLV>
-4.78934

>  <SCORE.INTRA.SOLV.lig_0>
-116.606

>  <SCORE.INTRA.VDW>
1.54217

>  <SCORE.INTRA.VDW.0>
-6.01229

>  <SCORE.INTRA.norm>
-0.211962

>  <SCORE.RESTR>
0.00147644

>  <SCORE.RESTR.CAVITY>
0.00147644

>  <SCORE.RESTR.norm>
3.51533e-05

>  <SCORE.SYSTEM>
0

>  <SCORE.SYSTEM.CONST>
0

>  <SCORE.SYSTEM.DIHEDRAL>
0

>  <SCORE.SYSTEM.SOLV>
0

>  <SCORE.SYSTEM.norm>
0

>  <SCORE.heavy>
42

>  <SCORE.norm>
-0.407407

>  <RMSD>
6.312

$$$$
2et4_lig
 OpenBabel11021811423D
libRbt.so/2013.1/901 2013/11/27
 42 45  0  0  0  0  0  0  0  0999 V2000
   16.2704    4.4758    9.2619 C   0  0  2  0  0  0  0  0  0  0  0  0
   16.0671    5.1776    8.0338 O   0  0  0  0  0  0  0  0  0  0  0  0
   17.5598    3.6313    9.0976 C   0  0  2  0  0  0  0  0  0  0  0  0
   18.6901    4.4586    8.7601 N   0  0  0  0  0  0  0  0  0  0  0  0
   17.3233    2.5383    8.0157 C   0  0  1  0  0  0  0  0  0  0  0  0
   18.4784    1.7705    7.8816 O   0  0  0  0  0  0  0  0  0  0  0  0
   16.0877    1.6806    8.4487 C   0  0  2  0  0  0  0  0  0  0  0  0
   15.8315    0.6775    7.4886 O   0  0  0  0  0  0  0  0  0  0  0  0
   14.8208    2.5743    8.6108 C   0  0  2  0  0  0  0  0  0  0  0  0
   15.1088    3.5947    9.5713 O   0  0  0  0  0  0  0  0  0  0  0  0
   13.5747    1.7563    9.0835 C   0  0  0  0  0  0  0  0  0  0  0  0
   13.8153    1.0696   10.3049 N   0  0  0  0  0  0  0  0  0  0  0  0
   13.7192    8.5913    6.8137 C   0  0  2  0  0  0  0  0  0  0  0  0
   12.5550    9.4522    6.5703 N   0  0  0  0  0  0  0  0  0  0  0  0
   13.5546    7.2084    5.9812 C   0  0  0  0  0  0  0  0  0  0  0  0
   14.8056    6.2782    6.2588 C   0  0  2  0  0  0  0  0  0  0  0  0
   14.6855    4.9969    5.5408 N   0  0  0  0  0  0  0  0  0  0  0  0
   14.9219    6.0079    7.7970 C   0  0  2  0  0  0  0  0  0  0  0  0
   15.0508    7.3508    8.5894 C   0  0  2  0  0  0  0  0  0  0  0  0
   15.1364    6.9941    9.9910 O   0  0  0  0  0  0  0  0  0  0  0  0
   13.8060    8.2532    8.3110 C   0  0  1  0  0  0  0  0  0  0  0  0
   13.9543    9.4403    9.0142 O   0  0  0  0  0  0  0  0  0  0  0  0
   14.1296    6.4699   10.7311 C   0  0  1  0  0  0  0  0  0  0  0  0
   14.6255    6.0817   12.1485 C   0  0  2  0  0  0  0  0  0  0  0  0
   15.2185    4.8163   12.1951 O   0  0  0  0  0  0  0  0  0  0  0  0
   13.3467    6.3177   12.9306 C   0  0  1  0  0  0  0  0  0  0  0  0
   12.6751    7.5545   12.3174 C   0  0  2  0  0  0  0  0  0  0  0  0
   12.9996    7.3592   10.9410 O   0  0  0  0  0  0  0  0  0  0  0  0
   13.1908    8.9356   12.8477 C   0  0  0  0  0  0  0  0  0  0  0  0
   14.6054    9.0222   12.5302 O   0  0  0  0  0  0  0  0  0  0  0  0
   11.3873    4.9752   13.6234 C   0  0  2  0  0  0  0  0  0  0  0  0
   12.5032    5.1027   12.7852 O   0  0  0  0  0  0  0  0  0  0  0  0
   10.6400    3.5914   13.3861 C   0  0  1  0  0  0  0  0  0  0  0  0
    9.0118    8.7351   14.0148 N   0  0  0  0  0  0  0  0  0  0  0  0
    9.3662    3.5630   14.3827 C   0  0  1  0  0  0  0  0  0  0  0  0
    9.8755    3.7106   15.8026 O   0  0  0  0  0  0  0  0  0  0  0  0
    8.3541    4.7753   14.0188 C   0  0  2  0  0  0  0  0  0  0  0  0
    7.8747    4.6070   12.6631 O   0  0  0  0  0  0  0  0  0  0  0  0
    9.1656    6.1729   14.2376 C   0  0  1  0  0  0  0  0  0  0  0  0
   10.4102    6.1653   13.3932 O   0  0  0  0  0  0  0  0  0  0  0  0
    8.2929    7.4299   13.8917 C   0  0  0  0  0  0  0  0  0  0  0  0
   10.2609    3.4533   11.9411 N   0  0  0  0  0  0  0  0  0  0  0  0
  1  2  1  6  0  0  0
  1  3  1  0  0  0  0
  1 10  1  0  0  0  0
  3  4  1  6  0  0  0
  3  5  1  0  0  0  0
  5  6  1  1  0  0  0
  5  7  1  0  0  0  0
  7  8  1  6  0  0  0
  7  9  1  0  0  0  0
  9 10  1  0  0  0  0
  9 11  1  1  0  0  0
 11 12  1  0  0  0  0
 13 14  1  1  0  0  0
 13 15  1  0  0  0  0
 13 21  1  0  0  0  0
 16 15  1  0  0  0  0
 16 17  1  6  0  0  0
 18  2  1  6  0  0  0
 18 16  1  0  0  0  0
 19 18  1  0  0  0  0
 19 20  1  1  0  0  0
 21 19  1  0  0  0  0
 21 22  1  1  0  0  0
 23 20  1  6  0  0  0
 23 24  1  0  0  0  0
 23 28  1  0  0  0  0
 24 25  1  6  0  0  0
 24 26  1  0  0  0  0
 26 27  1  0  0  0  0
 26 32  1  6  0  0  0
 27 28  1  0  0  0  0
 27 29  1  1  0  0  0
 29 30  1  0  0  0  0
 31 32  1  6  0  0  0
 31 40  1  0  0  0  0
 33 31  1  0  0  0  0
 33 42  1  6  0  0  0
 35 33  1  0  0  0  0
 35 36  1  1  0  0  0
 37 35  1  0  0  0  0
 37 38  1  6  0  0  0
 37 39  1  0  0  0  0
 39 40  1  0  0  0  0
 39 41  1  6  0  0  0
 41 34  1  0  0  0  0
M  END
>  <CHROM.1>
176.61689916,56.87197880,-163.91777558,-68.93428466,174.22370445,167.98333111
60.82717573,-177.23144893,-177.29071472,13.42939829,5.39747793,10.50158991
-0.00836512,-0.77933290,2.85412980

>  <Name>
2et4_lig

>  <RI>
0

>  <Rbt.Current_Directory>
/home/itssahil/PROJECTS/Mol_Feturizer/New_Systems/rnas/2et4

>  <Rbt.Executable>
rbdock ($Id: //depot/dev/client3/rdock/2013.1/src/exe/rbdock.cxx#4 $)

>  <Rbt.Library>
libRbt.so (2013.1, Build901 2013/11/27)

>  <Rbt.Parameter_File>
/export/apps/rDock/src/rDock_2013.1_src/data/scripts/dock_solv.prm

>  <Rbt.Receptor>
prm/pocket_docking_6.prm

>  <SCORE>
-14.1981

>  <SCORE.INTER>
-4.44672

>  <SCORE.INTER.CONST>
1

>  <SCORE.INTER.POLAR>
-1.1807

>  <SCORE.INTER.ROT>
9

>  <SCORE.INTER.SOLV>
16.861

>  <SCORE.INTER.VDW>
-14.2491

>  <SCORE.INTER.norm>
-0.105874

>  <SCORE.INTRA>
-9.75141

>  <SCORE.INTRA.DIHEDRAL>
-18.9265

>  <SCORE.INTRA.DIHEDRAL.0>
21.6909

>  <SCORE.INTRA.POLAR>
0

>  <SCORE.INTRA.POLAR.0>
0

>  <SCORE.INTRA.REPUL>
0

>  <SCORE.INTRA.REPUL.0>
0

>  <SCORE.INTRA.SOLV>
-1.51333

>  <SCORE.INTRA.SOLV.lig_0>
-116.606

>  <SCORE.INTRA.VDW>
0.468526

>  <SCORE.INTRA.VDW.0>
-6.01229

>  <SCORE.INTRA.norm>
-0.232176

>  <SCORE.RESTR>
0

>  <SCORE.RESTR.CAVITY>
0

>  <SCORE.RESTR.norm>
0

>  <SCORE.SYSTEM>
0

>  <SCORE.SYSTEM.CONST>
0

>  <SCORE.SYSTEM.DIHEDRAL>
0

>  <SCORE.SYSTEM.SOLV>
0

>  <SCORE.SYSTEM.norm>
0

>  <SCORE.heavy>
42

>  <SCORE.norm>
-0.338051

>  <RMSD>
6.318

$$$$
2et4_lig
 OpenBabel11021811423D
libRbt.so/2013.1/901 2013/11/27
 42 45  0  0  0  0  0  0  0  0999 V2000
   11.8586    8.3780    8.3381 C   0  0  2  0  0  0  0  0  0  0  0  0
   11.7728    7.1422    9.0505 O   0  0  0  0  0  0  0  0  0  0  0  0
   10.9616    9.3987    9.0840 C   0  0  2  0  0  0  0  0  0  0  0  0
   11.3638    9.5446   10.4597 N   0  0  0  0  0  0  0  0  0  0  0  0
    9.4758    8.9484    8.9800 C   0  0  1  0  0  0  0  0  0  0  0  0
    8.6701    9.8761    9.6374 O   0  0  0  0  0  0  0  0  0  0  0  0
    9.1102    8.8140    7.4641 C   0  0  2  0  0  0  0  0  0  0  0  0
    7.7681    8.3989    7.3225 O   0  0  0  0  0  0  0  0  0  0  0  0
   10.0448    7.7864    6.7566 C   0  0  2  0  0  0  0  0  0  0  0  0
   11.3987    8.2147    6.9298 O   0  0  0  0  0  0  0  0  0  0  0  0
    9.7350    7.6568    5.2293 C   0  0  0  0  0  0  0  0  0  0  0  0
   10.6116    6.7456    4.5793 N   0  0  0  0  0  0  0  0  0  0  0  0
   13.8681    5.1054   12.2311 C   0  0  2  0  0  0  0  0  0  0  0  0
   14.5376    4.8707   13.5166 N   0  0  0  0  0  0  0  0  0  0  0  0
   14.6528    6.2676   11.4151 C   0  0  0  0  0  0  0  0  0  0  0  0
   13.9181    6.5265   10.0365 C   0  0  2  0  0  0  0  0  0  0  0  0
   14.5839    7.5956    9.2714 N   0  0  0  0  0  0  0  0  0  0  0  0
   12.4284    6.9262   10.3077 C   0  0  2  0  0  0  0  0  0  0  0  0
   11.6922    5.8099   11.1201 C   0  0  2  0  0  0  0  0  0  0  0  0
   10.3378    6.2798   11.3294 O   0  0  0  0  0  0  0  0  0  0  0  0
   12.4244    5.5722   12.4798 C   0  0  1  0  0  0  0  0  0  0  0  0
   11.7590    4.5696   13.1709 O   0  0  0  0  0  0  0  0  0  0  0  0
    9.2880    5.5090   11.7035 C   0  0  1  0  0  0  0  0  0  0  0  0
    8.0370    6.3779   11.9963 C   0  0  2  0  0  0  0  0  0  0  0  0
    8.0215    6.8982   13.2940 O   0  0  0  0  0  0  0  0  0  0  0  0
    6.9538    5.3954   11.5910 C   0  0  1  0  0  0  0  0  0  0  0  0
    7.4831    4.6333   10.3679 C   0  0  2  0  0  0  0  0  0  0  0  0
    8.8644    4.5327   10.7140 O   0  0  0  0  0  0  0  0  0  0  0  0
    7.2784    5.3460    8.9877 C   0  0  0  0  0  0  0  0  0  0  0  0
    7.6509    4.3999    7.9507 O   0  0  0  0  0  0  0  0  0  0  0  0
    5.6987    3.5338   12.6306 C   0  0  2  0  0  0  0  0  0  0  0  0
    6.7170    4.4898   12.7454 O   0  0  0  0  0  0  0  0  0  0  0  0
    5.5292    2.7040   13.9768 C   0  0  1  0  0  0  0  0  0  0  0  0
    6.7696    0.0004   10.0948 N   0  0  0  0  0  0  0  0  0  0  0  0
    4.3516    1.6242   13.7235 C   0  0  1  0  0  0  0  0  0  0  0  0
    3.0930    2.3797   13.3459 O   0  0  0  0  0  0  0  0  0  0  0  0
    4.7788    0.6113   12.5327 C   0  0  2  0  0  0  0  0  0  0  0  0
    5.9762   -0.1042   12.9206 O   0  0  0  0  0  0  0  0  0  0  0  0
    4.9796    1.5017   11.1811 C   0  0  1  0  0  0  0  0  0  0  0  0
    5.9981    2.5779   11.4387 O   0  0  0  0  0  0  0  0  0  0  0  0
    5.4212    0.6308    9.9532 C   0  0  0  0  0  0  0  0  0  0  0  0
    6.8353    2.0726   14.3592 N   0  0  0  0  0  0  0  0  0  0  0  0
  1  2  1  1  0  0  0
  1  3  1  0  0  0  0
  1 10  1  0  0  0  0
  3  4  1  1  0  0  0
  3  5  1  0  0  0  0
  5  6  1  6  0  0  0
  5  7  1  0  0  0  0
  7  8  1  1  0  0  0
  7  9  1  0  0  0  0
  9 10  1  0  0  0  0
  9 11  1  6  0  0  0
 11 12  1  0  0  0  0
 13 14  1  1  0  0  0
 13 15  1  0  0  0  0
 13 21  1  0  0  0  0
 16 15  1  0  0  0  0
 16 17  1  1  0  0  0
 18  2  1  6  0  0  0
 18 16  1  0  0  0  0
 19 18  1  0  0  0  0
 19 20  1  1  0  0  0
 21 19  1  0  0  0  0
 21 22  1  6  0  0  0
 23 20  1  6  0  0  0
 23 24  1  0  0  0  0
 23 28  1  0  0  0  0
 24 25  1  1  0  0  0
 24 26  1  0  0  0  0
 26 27  1  0  0  0  0
 26 32  1  1  0  0  0
 27 28  1  0  0  0  0
 27 29  1  6  0  0  0
 29 30  1  0  0  0  0
 31 32  1  1  0  0  0
 31 40  1  0  0  0  0
 33 31  1  0  0  0  0
 33 42  1  6  0  0  0
 35 33  1  0  0  0  0
 35 36  1  6  0  0  0
 37 35  1  0  0  0  0
 37 38  1  1  0  0  0
 37 39  1  0  0  0  0
 39 40  1  0  0  0  0
 39 41  1  6  0  0  0
 41 34  1  0  0  0  0
M  END
>  <CHROM.1>
-74.32904791,178.44277629,-83.06616567,163.53396174,173.11618893,176.64903986
-171.56916347,-176.98510919,-65.06157302,9.07741256,5.36429161,10.57505321
0.75231289,-0.39065197,-0.93212813

>  <Name>
2et4_lig

>  <RI>
0

>  <Rbt.Current_Directory>
/home/itssahil/PROJECTS/Mol_Feturizer/New_Systems/rnas/2et4

>  <Rbt.Executable>
rbdock ($Id: //depot/dev/client3/rdock/2013.1/src/exe/rbdock.cxx#4 $)

>  <Rbt.Library>
libRbt.so (2013.1, Build901 2013/11/27)

>  <Rbt.Parameter_File>
/export/apps/rDock/src/rDock_2013.1_src/data/scripts/dock_solv.prm

>  <Rbt.Receptor>
prm/pocket_docking_8.prm

>  <SCORE>
-8.73814

>  <SCORE.INTER>
-1.39437

>  <SCORE.INTER.CONST>
1

>  <SCORE.INTER.POLAR>
-0.6978

>  <SCORE.INTER.ROT>
9

>  <SCORE.INTER.SOLV>
9.51213

>  <SCORE.INTER.VDW>
-11.3743

>  <SCORE.INTER.norm>
-0.0331992

>  <SCORE.INTRA>
-7.34377

>  <SCORE.INTRA.DIHEDRAL>
-16.3136

>  <SCORE.INTRA.DIHEDRAL.0>
21.6909

>  <SCORE.INTRA.POLAR>
0

>  <SCORE.INTRA.POLAR.0>
0

>  <SCORE.INTRA.REPUL>
0

>  <SCORE.INTRA.REPUL.0>
0

>  <SCORE.INTRA.SOLV>
-0.239128

>  <SCORE.INTRA.SOLV.lig_0>
-116.606

>  <SCORE.INTRA.VDW>
0.932608

>  <SCORE.INTRA.VDW.0>
-6.01229

>  <SCORE.INTRA.norm>
-0.174852

>  <SCORE.RESTR>
0

>  <SCORE.RESTR.CAVITY>
0

>  <SCORE.RESTR.norm>
0

>  <SCORE.SYSTEM>
0

>  <SCORE.SYSTEM.CONST>
0

>  <SCORE.SYSTEM.DIHEDRAL>
0

>  <SCORE.SYSTEM.SOLV>
0

>  <SCORE.SYSTEM.norm>
0

>  <SCORE.heavy>
42

>  <SCORE.norm>
-0.208051

>  <RMSD>
6.319

$$$$
2et4_lig
 OpenBabel11021811423D
libRbt.so/2013.1/901 2013/11/27
 42 45  0  0  0  0  0  0  0  0999 V2000
   12.1620    6.9274    4.0029 C   0  0  2  0  0  0  0  0  0  0  0  0
   11.5760    7.9954    3.2558 O   0  0  0  0  0  0  0  0  0  0  0  0
   11.8229    5.6100    3.2599 C   0  0  2  0  0  0  0  0  0  0  0  0
   12.2985    5.6364    1.9002 N   0  0  0  0  0  0  0  0  0  0  0  0
   10.2858    5.3732    3.3106 C   0  0  1  0  0  0  0  0  0  0  0  0
    9.9855    4.1802    2.6561 O   0  0  0  0  0  0  0  0  0  0  0  0
    9.8430    5.3540    4.8118 C   0  0  2  0  0  0  0  0  0  0  0  0
    8.4493    5.1482    4.9051 O   0  0  0  0  0  0  0  0  0  0  0  0
   10.2145    6.6934    5.5173 C   0  0  2  0  0  0  0  0  0  0  0  0
   11.6258    6.8921    5.3931 O   0  0  0  0  0  0  0  0  0  0  0  0
    9.8237    6.6943    7.0315 C   0  0  0  0  0  0  0  0  0  0  0  0
    8.4157    6.6479    7.2224 N   0  0  0  0  0  0  0  0  0  0  0  0
   14.4531   11.2044    2.9740 C   0  0  2  0  0  0  0  0  0  0  0  0
   15.0151   12.5608    2.9751 N   0  0  0  0  0  0  0  0  0  0  0  0
   13.3149   11.0898    1.8236 C   0  0  0  0  0  0  0  0  0  0  0  0
   12.7024    9.6297    1.8367 C   0  0  2  0  0  0  0  0  0  0  0  0
   11.6434    9.4879    0.8217 N   0  0  0  0  0  0  0  0  0  0  0  0
   12.1127    9.3254    3.2552 C   0  0  2  0  0  0  0  0  0  0  0  0
   13.2139    9.4679    4.3575 C   0  0  2  0  0  0  0  0  0  0  0  0
   12.5679    9.1831    5.6226 O   0  0  0  0  0  0  0  0  0  0  0  0
   13.8021   10.9153    4.3365 C   0  0  1  0  0  0  0  0  0  0  0  0
   14.7838   11.0077    5.3129 O   0  0  0  0  0  0  0  0  0  0  0  0
   12.9937    9.6108    6.8359 C   0  0  1  0  0  0  0  0  0  0  0  0
   12.0247    9.1545    7.9576 C   0  0  2  0  0  0  0  0  0  0  0  0
   10.9323   10.0117    8.1217 O   0  0  0  0  0  0  0  0  0  0  0  0
   13.0167    9.0100    9.0969 C   0  0  1  0  0  0  0  0  0  0  0  0
   14.3110    8.4522    8.4883 C   0  0  2  0  0  0  0  0  0  0  0  0
   14.3054    9.1241    7.2288 O   0  0  0  0  0  0  0  0  0  0  0  0
   14.3611    6.8955    8.3184 C   0  0  0  0  0  0  0  0  0  0  0  0
   15.6722    6.5578    7.7930 O   0  0  0  0  0  0  0  0  0  0  0  0
   13.3854   10.4503   11.0746 C   0  0  2  0  0  0  0  0  0  0  0  0
   13.2205   10.3592    9.6859 O   0  0  0  0  0  0  0  0  0  0  0  0
   12.1054    9.9065   11.8465 C   0  0  1  0  0  0  0  0  0  0  0  0
   13.1617   14.6233   12.5963 N   0  0  0  0  0  0  0  0  0  0  0  0
   12.3963   10.0794   13.4283 C   0  0  1  0  0  0  0  0  0  0  0  0
   13.6511    9.2984   13.7647 O   0  0  0  0  0  0  0  0  0  0  0  0
   12.5970   11.6477   13.7841 C   0  0  2  0  0  0  0  0  0  0  0  0
   11.3836   12.3695   13.4632 O   0  0  0  0  0  0  0  0  0  0  0  0
   13.8925   12.1777   12.9471 C   0  0  1  0  0  0  0  0  0  0  0  0
   13.6772   11.9248   11.4803 O   0  0  0  0  0  0  0  0  0  0  0  0
   14.1775   13.7011   13.1906 C   0  0  0  0  0  0  0  0  0  0  0  0
   10.8794   10.6404   11.3891 N   0  0  0  0  0  0  0  0  0  0  0  0
  1  2  1  6  0  0  0
  1  3  1  0  0  0  0
  1 10  1  0  0  0  0
  3  4  1  6  0  0  0
  3  5  1  0  0  0  0
  5  6  1  1  0  0  0
  5  7  1  0  0  0  0
  7  8  1  6  0  0  0
  7  9  1  0  0  0  0
  9 10  1  0  0  0  0
  9 11  1  1  0  0  0
 11 12  1  0  0  0  0
 13 14  1  1  0  0  0
 13 15  1  0  0  0  0
 13 21  1  0  0  0  0
 16 15  1  0  0  0  0
 16 17  1  6  0  0  0
 18  2  1  6  0  0  0
 18 16  1  0  0  0  0
 19 18  1  0  0  0  0
 19 20  1  1  0  0  0
 21 19  1  0  0  0  0
 21 22  1  1  0  0  0
 23 20  1  6  0  0  0
 23 24  1  0  0  0  0
 23 28  1  0  0  0  0
 24 25  1  1  0  0  0
 24 26  1  0  0  0  0
 26 27  1  0  0  0  0
 26 32  1  6  0  0  0
 27 28  1  0  0  0  0
 27 29  1  6  0  0  0
 29 30  1  0  0  0  0
 31 32  1  6  0  0  0
 31 40  1  0  0  0  0
 33 31  1  0  0  0  0
 33 42  1  6  0  0  0
 35 33  1  0  0  0  0
 35 36  1  6  0  0  0
 37 35  1  0  0  0  0
 37 38  1  6  0  0  0
 37 39  1  0  0  0  0
 39 40  1  0  0  0  0
 39 41  1  6  0  0  0
 41 34  1  0  0  0  0
M  END
>  <CHROM.1>
-152.07337178,-66.15593332,111.39828370,-156.45030932,177.97412644,143.08875498
-177.37053578,-61.02886651,-69.66021487,12.43356301,9.10828714,7.14493519
1.82601751,-0.96938109,-1.78643739

>  <Name>
2et4_lig

>  <RI>
0

>  <Rbt.Current_Directory>
/home/itssahil/PROJECTS/Mol_Feturizer/New_Systems/rnas/2et4

>  <Rbt.Executable>
rbdock ($Id: //depot/dev/client3/rdock/2013.1/src/exe/rbdock.cxx#4 $)

>  <Rbt.Library>
libRbt.so (2013.1, Build901 2013/11/27)

>  <Rbt.Parameter_File>
/export/apps/rDock/src/rDock_2013.1_src/data/scripts/dock_solv.prm

>  <Rbt.Receptor>
prm/pocket_docking_8.prm

>  <SCORE>
-14.6023

>  <SCORE.INTER>
-15.9192

>  <SCORE.INTER.CONST>
1

>  <SCORE.INTER.POLAR>
-1.86794

>  <SCORE.INTER.ROT>
9

>  <SCORE.INTER.SOLV>
25.066

>  <SCORE.INTER.VDW>
-22.3417

>  <SCORE.INTER.norm>
-0.379029

>  <SCORE.INTRA>
1.31695

>  <SCORE.INTRA.DIHEDRAL>
-3.73033

>  <SCORE.INTRA.DIHEDRAL.0>
21.6909

>  <SCORE.INTRA.POLAR>
0

>  <SCORE.INTRA.POLAR.0>
0

>  <SCORE.INTRA.REPUL>
0

>  <SCORE.INTRA.REPUL.0>
0

>  <SCORE.INTRA.SOLV>
0.0161025

>  <SCORE.INTRA.SOLV.lig_0>
-116.606

>  <SCORE.INTRA.VDW>
3.17406

>  <SCORE.INTRA.VDW.0>
-6.01229

>  <SCORE.INTRA.norm>
0.0313559

>  <SCORE.RESTR>
0

>  <SCORE.RESTR.CAVITY>
0

>  <SCORE.RESTR.norm>
0

>  <SCORE.SYSTEM>
0

>  <SCORE.SYSTEM.CONST>
0

>  <SCORE.SYSTEM.DIHEDRAL>
0

>  <SCORE.SYSTEM.SOLV>
0

>  <SCORE.SYSTEM.norm>
0

>  <SCORE.heavy>
42

>  <SCORE.norm>
-0.347673

>  <RMSD>
6.328

$$$$
2et4_lig
 OpenBabel11021811423D
libRbt.so/2013.1/901 2013/11/27
 42 45  0  0  0  0  0  0  0  0999 V2000
   17.0970   11.2087    2.2631 C   0  0  2  0  0  0  0  0  0  0  0  0
   15.9039   11.2525    3.0485 O   0  0  0  0  0  0  0  0  0  0  0  0
   17.9104   12.4854    2.5960 C   0  0  2  0  0  0  0  0  0  0  0  0
   18.1995   12.5716    4.0048 N   0  0  0  0  0  0  0  0  0  0  0  0
   17.1242   13.7366    2.1084 C   0  0  1  0  0  0  0  0  0  0  0  0
   17.8650   14.8817    2.3943 O   0  0  0  0  0  0  0  0  0  0  0  0
   16.8492   13.5751    0.5760 C   0  0  2  0  0  0  0  0  0  0  0  0
   16.1291   14.6886    0.0912 O   0  0  0  0  0  0  0  0  0  0  0  0
   16.0393   12.2740    0.2914 C   0  0  2  0  0  0  0  0  0  0  0  0
   16.7764   11.1621    0.8083 O   0  0  0  0  0  0  0  0  0  0  0  0
   15.7815   12.0582   -1.2358 C   0  0  0  0  0  0  0  0  0  0  0  0
   14.4268   12.3024   -1.5911 N   0  0  0  0  0  0  0  0  0  0  0  0
   12.0710    9.3368    3.5910 C   0  0  2  0  0  0  0  0  0  0  0  0
   10.9233    8.4513    3.3582 N   0  0  0  0  0  0  0  0  0  0  0  0
   12.2647   10.3205    2.3153 C   0  0  0  0  0  0  0  0  0  0  0  0
   13.5122   11.2630    2.5656 C   0  0  2  0  0  0  0  0  0  0  0  0
   13.7413   12.1583    1.4177 N   0  0  0  0  0  0  0  0  0  0  0  0
   14.7867   10.3858    2.8084 C   0  0  2  0  0  0  0  0  0  0  0  0
   14.5753    9.4221    4.0227 C   0  0  2  0  0  0  0  0  0  0  0  0
   15.7952    8.6514    4.1526 O   0  0  0  0  0  0  0  0  0  0  0  0
   13.3464    8.4944    3.7569 C   0  0  1  0  0  0  0  0  0  0  0  0
   13.1751    7.6623    4.8540 O   0  0  0  0  0  0  0  0  0  0  0  0
   16.3799    8.2974    5.3227 C   0  0  1  0  0  0  0  0  0  0  0  0
   15.8556    6.9223    5.8123 C   0  0  2  0  0  0  0  0  0  0  0  0
   14.6564    7.0142    6.5253 O   0  0  0  0  0  0  0  0  0  0  0  0
   17.0965    6.4271    6.5319 C   0  0  1  0  0  0  0  0  0  0  0  0
   18.3031    6.8968    5.7071 C   0  0  2  0  0  0  0  0  0  0  0  0
   17.8263    8.1686    5.2678 O   0  0  0  0  0  0  0  0  0  0  0  0
   18.6985    5.9750    4.5036 C   0  0  0  0  0  0  0  0  0  0  0  0
   20.0652    6.3016    4.1368 O   0  0  0  0  0  0  0  0  0  0  0  0
   16.4578    6.3117    8.9194 C   0  0  2  0  0  0  0  0  0  0  0  0
   17.0922    7.0242    7.8928 O   0  0  0  0  0  0  0  0  0  0  0  0
   17.3084    6.3512   10.2628 C   0  0  1  0  0  0  0  0  0  0  0  0
   14.4895    1.6023    9.6918 N   0  0  0  0  0  0  0  0  0  0  0  0
   16.4982    5.4852   11.3630 C   0  0  1  0  0  0  0  0  0  0  0  0
   15.1236    6.1019   11.5289 O   0  0  0  0  0  0  0  0  0  0  0  0
   16.3692    3.9473   10.8684 C   0  0  2  0  0  0  0  0  0  0  0  0
   17.6930    3.3783   10.7266 O   0  0  0  0  0  0  0  0  0  0  0  0
   15.5257    3.9510    9.4726 C   0  0  1  0  0  0  0  0  0  0  0  0
   16.2157    4.8395    8.4743 O   0  0  0  0  0  0  0  0  0  0  0  0
   15.3530    2.5103    8.8761 C   0  0  0  0  0  0  0  0  0  0  0  0
   18.6937    5.8340   10.0094 N   0  0  0  0  0  0  0  0  0  0  0  0
  1  2  1  1  0  0  0
  1  3  1  0  0  0  0
  1 10  1  0  0  0  0
  3  4  1  1  0  0  0
  3  5  1  0  0  0  0
  5  6  1  6  0  0  0
  5  7  1  0  0  0  0
  7  8  1  1  0  0  0
  7  9  1  0  0  0  0
  9 10  1  0  0  0  0
  9 11  1  6  0  0  0
 11 12  1  0  0  0  0
 13 14  1  6  0  0  0
 13 15  1  0  0  0  0
 13 21  1  0  0  0  0
 16 15  1  0  0  0  0
 16 17  1  6  0  0  0
 18  2  1  1  0  0  0
 18 16  1  0  0  0  0
 19 18  1  0  0  0  0
 19 20  1  6  0  0  0
 21 19  1  0  0  0  0
 21 22  1  1  0  0  0
 23 20  1  6  0  0  0
 23 24  1  0  0  0  0
 23 28  1  0  0  0  0
 24 25  1  1  0  0  0
 24 26  1  0  0  0  0
 26 27  1  0  0  0  0
 26 32  1  1  0  0  0
 27 28  1  0  0  0  0
 27 29  1  6  0  0  0
 29 30  1  0  0  0  0
 31 32  1  6  0  0  0
 31 40  1  0  0  0  0
 33 31  1  0  0  0  0
 33 42  1  6  0  0  0
 35 33  1  0  0  0  0
 35 36  1  6  0  0  0
 37 35  1  0  0  0  0
 37 38  1  6  0  0  0
 37 39  1  0  0  0  0
 39 40  1  0  0  0  0
 39 41  1  6  0  0  0
 41 34  1  0  0  0  0
M  END
>  <CHROM.1>
166.87166509,-107.25676663,-123.31847401,141.13975847,90.56901671,90.16713857
-161.22716020,137.98650056,67.14959264,15.97540694,8.60338838,5.01199207
-1.63124916,0.25337259,2.33676873

>  <Name>
2et4_lig

>  <RI>
0

>  <Rbt.Current_Directory>
/home/itssahil/PROJECTS/Mol_Feturizer/New_Systems/rnas/2et4

>  <Rbt.Executable>
rbdock ($Id: //depot/dev/client3/rdock/2013.1/src/exe/rbdock.cxx#4 $)

>  <Rbt.Library>
libRbt.so (2013.1, Build901 2013/11/27)

>  <Rbt.Parameter_File>
/export/apps/rDock/src/rDock_2013.1_src/data/scripts/dock_solv.prm

>  <Rbt.Receptor>
prm/blind_docking_80.prm

>  <SCORE>
26.4746

>  <SCORE.INTER>
-0.0212449

>  <SCORE.INTER.CONST>
1

>  <SCORE.INTER.POLAR>
0

>  <SCORE.INTER.ROT>
9

>  <SCORE.INTER.SOLV>
32.1722

>  <SCORE.INTER.VDW>
-20.3382

>  <SCORE.INTER.norm>
-0.00050583

>  <SCORE.INTRA>
10.4889

>  <SCORE.INTRA.DIHEDRAL>
10.6154

>  <SCORE.INTRA.DIHEDRAL.0>
21.6909

>  <SCORE.INTRA.POLAR>
0

>  <SCORE.INTRA.POLAR.0>
0

>  <SCORE.INTRA.REPUL>
0

>  <SCORE.INTRA.REPUL.0>
0

>  <SCORE.INTRA.SOLV>
1.73457

>  <SCORE.INTRA.SOLV.lig_0>
-116.606

>  <SCORE.INTRA.VDW>
4.31389

>  <SCORE.INTRA.VDW.0>
-6.01229

>  <SCORE.INTRA.norm>
0.249735

>  <SCORE.RESTR>
16.007

>  <SCORE.RESTR.CAVITY>
16.007

>  <SCORE.RESTR.norm>
0.381119

>  <SCORE.SYSTEM>
0

>  <SCORE.SYSTEM.CONST>
0

>  <SCORE.SYSTEM.DIHEDRAL>
0

>  <SCORE.SYSTEM.SOLV>
0

>  <SCORE.SYSTEM.norm>
0

>  <SCORE.heavy>
42

>  <SCORE.norm>
0.630348

>  <RMSD>
6.374

$$$$
2et4_lig
 OpenBabel11021811423D
libRbt.so/2013.1/901 2013/11/27
 42 45  0  0  0  0  0  0  0  0999 V2000
   13.7681    7.2243    9.1075 C   0  0  2  0  0  0  0  0  0  0  0  0
   14.1643    8.2831    9.9816 O   0  0  0  0  0  0  0  0  0  0  0  0
   15.0604    6.6414    8.4807 C   0  0  2  0  0  0  0  0  0  0  0  0
   15.9761    6.1844    9.4948 N   0  0  0  0  0  0  0  0  0  0  0  0
   15.7220    7.7186    7.5736 C   0  0  1  0  0  0  0  0  0  0  0  0
   16.8746    7.1867    6.9988 O   0  0  0  0  0  0  0  0  0  0  0  0
   14.6745    8.1640    6.4992 C   0  0  2  0  0  0  0  0  0  0  0  0
   15.2320    9.1495    5.6557 O   0  0  0  0  0  0  0  0  0  0  0  0
   13.3910    8.7320    7.1773 C   0  0  2  0  0  0  0  0  0  0  0  0
   12.8549    7.7260    8.0417 O   0  0  0  0  0  0  0  0  0  0  0  0
   12.3040    9.1492    6.1334 C   0  0  0  0  0  0  0  0  0  0  0  0
   11.8481    8.0449    5.3628 N   0  0  0  0  0  0  0  0  0  0  0  0
   12.4229    9.6298   13.6976 C   0  0  2  0  0  0  0  0  0  0  0  0
   11.4958   10.2748   14.6358 N   0  0  0  0  0  0  0  0  0  0  0  0
   13.0341   10.7428   12.6877 C   0  0  0  0  0  0  0  0  0  0  0  0
   14.0218   10.0395   11.6693 C   0  0  2  0  0  0  0  0  0  0  0  0
   14.5821   11.0118   10.7141 N   0  0  0  0  0  0  0  0  0  0  0  0
   13.2537    8.9205   10.8880 C   0  0  2  0  0  0  0  0  0  0  0  0
   12.6453    7.8705   11.8755 C   0  0  2  0  0  0  0  0  0  0  0  0
   11.9492    6.8955   11.0606 O   0  0  0  0  0  0  0  0  0  0  0  0
   11.6679    8.5786   12.8677 C   0  0  1  0  0  0  0  0  0  0  0  0
   11.1556    7.6272   13.7383 O   0  0  0  0  0  0  0  0  0  0  0  0
   11.4555    5.7128   11.5007 C   0  0  1  0  0  0  0  0  0  0  0  0
   10.7444    4.9464   10.3551 C   0  0  2  0  0  0  0  0  0  0  0  0
    9.4175    5.3458   10.1684 O   0  0  0  0  0  0  0  0  0  0  0  0
   11.0223    3.5228   10.8009 C   0  0  1  0  0  0  0  0  0  0  0  0
   12.4369    3.5141   11.3970 C   0  0  2  0  0  0  0  0  0  0  0  0
   12.4506    4.7944   12.0282 O   0  0  0  0  0  0  0  0  0  0  0  0
   13.6044    3.3614   10.3633 C   0  0  0  0  0  0  0  0  0  0  0  0
   14.8470    3.3220   11.1139 O   0  0  0  0  0  0  0  0  0  0  0  0
    9.9243    1.8261   12.2282 C   0  0  2  0  0  0  0  0  0  0  0  0
    9.9949    3.1626   11.8126 O   0  0  0  0  0  0  0  0  0  0  0  0
    9.4935    0.8700   11.0323 C   0  0  1  0  0  0  0  0  0  0  0  0
    6.3654    0.8205   14.7926 N   0  0  0  0  0  0  0  0  0  0  0  0
    9.4234   -0.6324   11.6277 C   0  0  1  0  0  0  0  0  0  0  0  0
   10.7884   -0.9820   12.1863 O   0  0  0  0  0  0  0  0  0  0  0  0
    8.3008   -0.7118   12.7938 C   0  0  2  0  0  0  0  0  0  0  0  0
    7.0065   -0.3835   12.2342 O   0  0  0  0  0  0  0  0  0  0  0  0
    8.7568    0.3074   13.9826 C   0  0  1  0  0  0  0  0  0  0  0  0
    8.9278    1.6903   13.4166 O   0  0  0  0  0  0  0  0  0  0  0  0
    7.7299    0.3384   15.1683 C   0  0  0  0  0  0  0  0  0  0  0  0
    8.1920    1.3333   10.4473 N   0  0  0  0  0  0  0  0  0  0  0  0
  1  2  1  1  0  0  0
  1  3  1  0  0  0  0
  1 10  1  0  0  0  0
  3  4  1  1  0  0  0
  3  5  1  0  0  0  0
  5  6  1  6  0  0  0
  5  7  1  0  0  0  0
  7  8  1  6  0  0  0
  7  9  1  0  0  0  0
  9 10  1  0  0  0  0
  9 11  1  6  0  0  0
 11 12  1  0  0  0  0
 13 14  1  1  0  0  0
 13 15  1  0  0  0  0
 13 21  1  0  0  0  0
 16 15  1  0  0  0  0
 16 17  1  6  0  0  0
 18  2  1  6  0  0  0
 18 16  1  0  0  0  0
 19 18  1  0  0  0  0
 19 20  1  6  0  0  0
 21 19  1  0  0  0  0
 21 22  1  1  0  0  0
 23 20  1  6  0  0  0
 23 24  1  0  0  0  0
 23 28  1  0  0  0  0
 24 25  1  1  0  0  0
 24 26  1  0  0  0  0
 26 27  1  0  0  0  0
 26 32  1  1  0  0  0
 27 28  1  0  0  0  0
 27 29  1  6  0  0  0
 29 30  1  0  0  0  0
 31 32  1  6  0  0  0
 31 40  1  0  0  0  0
 33 31  1  0  0  0  0
 33 42  1  1  0  0  0
 35 33  1  0  0  0  0
 35 36  1  1  0  0  0
 37 35  1  0  0  0  0
 37 38  1  6  0  0  0
 37 39  1  0  0  0  0
 39 40  1  0  0  0  0
 39 41  1  1  0  0  0
 41 34  1  0  0  0  0
M  END
>  <CHROM.1>
-170.28805809,62.32597984,-179.26994612,169.41655285,178.61991667,170.73408422
-177.80025863,-64.89596559,-62.08666281,11.88046186,5.40538604,10.79739273
-0.40890773,-0.97336401,-2.51232223

>  <Name>
2et4_lig

>  <RI>
0

>  <Rbt.Current_Directory>
/home/itssahil/PROJECTS/Mol_Feturizer/New_Systems/rnas/2et4

>  <Rbt.Executable>
rbdock ($Id: //depot/dev/client3/rdock/2013.1/src/exe/rbdock.cxx#4 $)

>  <Rbt.Library>
libRbt.so (2013.1, Build901 2013/11/27)

>  <Rbt.Parameter_File>
/export/apps/rDock/src/rDock_2013.1_src/data/scripts/dock_solv.prm

>  <Rbt.Receptor>
prm/pocket_docking_6.prm

>  <SCORE>
-17.4017

>  <SCORE.INTER>
-8.52541

>  <SCORE.INTER.CONST>
1

>  <SCORE.INTER.POLAR>
-1.78379

>  <SCORE.INTER.ROT>
9

>  <SCORE.INTER.SOLV>
14.9863

>  <SCORE.INTER.VDW>
-14.3331

>  <SCORE.INTER.norm>
-0.202986

>  <SCORE.INTRA>
-8.89025

>  <SCORE.INTRA.DIHEDRAL>
-19.9294

>  <SCORE.INTRA.DIHEDRAL.0>
21.6909

>  <SCORE.INTRA.POLAR>
0

>  <SCORE.INTRA.POLAR.0>
0

>  <SCORE.INTRA.REPUL>
0

>  <SCORE.INTRA.REPUL.0>
0

>  <SCORE.INTRA.SOLV>
-1.10044

>  <SCORE.INTRA.SOLV.lig_0>
-116.606

>  <SCORE.INTRA.VDW>
1.62468

>  <SCORE.INTRA.VDW.0>
-6.01229

>  <SCORE.INTRA.norm>
-0.211673

>  <SCORE.RESTR>
0.013971

>  <SCORE.RESTR.CAVITY>
0.013971

>  <SCORE.RESTR.norm>
0.000332642

>  <SCORE.SYSTEM>
0

>  <SCORE.SYSTEM.CONST>
0

>  <SCORE.SYSTEM.DIHEDRAL>
0

>  <SCORE.SYSTEM.SOLV>
0

>  <SCORE.SYSTEM.norm>
0

>  <SCORE.heavy>
42

>  <SCORE.norm>
-0.414326

>  <RMSD>
6.386

$$$$
2et4_lig
 OpenBabel11021811423D
libRbt.so/2013.1/901 2013/11/27
 42 45  0  0  0  0  0  0  0  0999 V2000
   15.5186    4.4226    8.4221 C   0  0  2  0  0  0  0  0  0  0  0  0
   16.4260    5.2484    7.6893 O   0  0  0  0  0  0  0  0  0  0  0  0
   16.2690    3.9280    9.6850 C   0  0  2  0  0  0  0  0  0  0  0  0
   16.7479    5.0318   10.4774 N   0  0  0  0  0  0  0  0  0  0  0  0
   17.4401    2.9981    9.2550 C   0  0  1  0  0  0  0  0  0  0  0  0
   18.1028    2.5420   10.3928 O   0  0  0  0  0  0  0  0  0  0  0  0
   16.8469    1.8259    8.4041 C   0  0  2  0  0  0  0  0  0  0  0  0
   17.8790    0.9583    7.9852 O   0  0  0  0  0  0  0  0  0  0  0  0
   16.0944    2.3732    7.1535 C   0  0  2  0  0  0  0  0  0  0  0  0
   15.0679    3.2645    7.5992 O   0  0  0  0  0  0  0  0  0  0  0  0
   15.4522    1.2305    6.3007 C   0  0  0  0  0  0  0  0  0  0  0  0
   16.4317    0.4264    5.6565 N   0  0  0  0  0  0  0  0  0  0  0  0
   16.1333    8.6948    5.1026 C   0  0  2  0  0  0  0  0  0  0  0  0
   15.7092    9.5584    3.9935 N   0  0  0  0  0  0  0  0  0  0  0  0
   16.8112    7.3450    4.5103 C   0  0  0  0  0  0  0  0  0  0  0  0
   17.2534    6.4113    5.7103 C   0  0  2  0  0  0  0  0  0  0  0  0
   17.8527    5.1587    5.2168 N   0  0  0  0  0  0  0  0  0  0  0  0
   16.0071    6.0812    6.5993 C   0  0  2  0  0  0  0  0  0  0  0  0
   15.3465    7.3925    7.1397 C   0  0  2  0  0  0  0  0  0  0  0  0
   14.2044    6.9812    7.9306 O   0  0  0  0  0  0  0  0  0  0  0  0
   14.9092    8.2985    5.9441 C   0  0  1  0  0  0  0  0  0  0  0  0
   14.3407    9.4577    6.4527 O   0  0  0  0  0  0  0  0  0  0  0  0
   13.5352    7.7648    8.8106 C   0  0  1  0  0  0  0  0  0  0  0  0
   12.4153    6.9656    9.5266 C   0  0  2  0  0  0  0  0  0  0  0  0
   11.2277    6.9055    8.7911 O   0  0  0  0  0  0  0  0  0  0  0  0
   12.4115    7.6877   10.8612 C   0  0  1  0  0  0  0  0  0  0  0  0
   13.8728    8.0323   11.1817 C   0  0  2  0  0  0  0  0  0  0  0  0
   14.3536    8.3287    9.8707 O   0  0  0  0  0  0  0  0  0  0  0  0
   14.7022    6.8907   11.8625 C   0  0  0  0  0  0  0  0  0  0  0  0
   14.0756    6.6010   13.1402 O   0  0  0  0  0  0  0  0  0  0  0  0
   10.1847    8.7579   10.7299 C   0  0  2  0  0  0  0  0  0  0  0  0
   11.5778    8.9083   10.7067 O   0  0  0  0  0  0  0  0  0  0  0  0
    9.4487   10.1323   10.4152 C   0  0  1  0  0  0  0  0  0  0  0  0
    8.6853    6.1502   14.0496 N   0  0  0  0  0  0  0  0  0  0  0  0
    7.8582    9.8468   10.4902 C   0  0  1  0  0  0  0  0  0  0  0  0
    7.5253    8.7666    9.4803 O   0  0  0  0  0  0  0  0  0  0  0  0
    7.4541    9.3648   11.9838 C   0  0  2  0  0  0  0  0  0  0  0  0
    7.7726   10.4156   12.9275 O   0  0  0  0  0  0  0  0  0  0  0  0
    8.2554    7.9763   12.2837 C   0  0  1  0  0  0  0  0  0  0  0  0
    9.7321    8.2049   12.1131 O   0  0  0  0  0  0  0  0  0  0  0  0
    7.9636    7.4175   13.7203 C   0  0  0  0  0  0  0  0  0  0  0  0
    9.9034   11.1905   11.3766 N   0  0  0  0  0  0  0  0  0  0  0  0
  1  2  1  6  0  0  0
  1  3  1  0  0  0  0
  1 10  1  0  0  0  0
  3  4  1  6  0  0  0
  3  5  1  0  0  0  0
  5  6  1  1  0  0  0
  5  7  1  0  0  0  0
  7  8  1  6  0  0  0
  7  9  1  0  0  0  0
  9 10  1  0  0  0  0
  9 11  1  1  0  0  0
 11 12  1  0  0  0  0
 13 14  1  6  0  0  0
 13 15  1  0  0  0  0
 13 21  1  0  0  0  0
 16 15  1  0  0  0  0
 16 17  1  6  0  0  0
 18  2  1  1  0  0  0
 18 16  1  0  0  0  0
 19 18  1  0  0  0  0
 19 20  1  6  0  0  0
 21 19  1  0  0  0  0
 21 22  1  1  0  0  0
 23 20  1  6  0  0  0
 23 24  1  0  0  0  0
 23 28  1  0  0  0  0
 24 25  1  6  0  0  0
 24 26  1  0  0  0  0
 26 27  1  0  0  0  0
 26 32  1  6  0  0  0
 27 28  1  0  0  0  0
 27 29  1  6  0  0  0
 29 30  1  0  0  0  0
 31 32  1  1  0  0  0
 31 40  1  0  0  0  0
 33 31  1  0  0  0  0
 33 42  1  1  0  0  0
 35 33  1  0  0  0  0
 35 36  1  6  0  0  0
 37 35  1  0  0  0  0
 37 38  1  1  0  0  0
 37 39  1  0  0  0  0
 39 40  1  0  0  0  0
 39 41  1  1  0  0  0
 41 34  1  0  0  0  0
M  END
>  <CHROM.1>
-167.96520151,-68.73539105,-159.10557745,164.53934659,-177.06255541,78.03439751
-62.26235079,-174.61797017,-179.47002096,13.55386677,6.56690372,9.12194389
0.08182227,-0.72288185,2.43587768

>  <Name>
2et4_lig

>  <RI>
0

>  <Rbt.Current_Directory>
/home/itssahil/PROJECTS/Mol_Feturizer/New_Systems/rnas/2et4

>  <Rbt.Executable>
rbdock ($Id: //depot/dev/client3/rdock/2013.1/src/exe/rbdock.cxx#4 $)

>  <Rbt.Library>
libRbt.so (2013.1, Build901 2013/11/27)

>  <Rbt.Parameter_File>
/export/apps/rDock/src/rDock_2013.1_src/data/scripts/dock_solv.prm

>  <Rbt.Receptor>
prm/pocket_docking_8.prm

>  <SCORE>
-20.4245

>  <SCORE.INTER>
-12.5412

>  <SCORE.INTER.CONST>
1

>  <SCORE.INTER.POLAR>
-1.87392

>  <SCORE.INTER.ROT>
9

>  <SCORE.INTER.SOLV>
13.3858

>  <SCORE.INTER.VDW>
-16.1763

>  <SCORE.INTER.norm>
-0.298599

>  <SCORE.INTRA>
-7.88335

>  <SCORE.INTRA.DIHEDRAL>
-15.8102

>  <SCORE.INTRA.DIHEDRAL.0>
21.6909

>  <SCORE.INTRA.POLAR>
0

>  <SCORE.INTRA.POLAR.0>
0

>  <SCORE.INTRA.REPUL>
0

>  <SCORE.INTRA.REPUL.0>
0

>  <SCORE.INTRA.SOLV>
-2.40266

>  <SCORE.INTRA.SOLV.lig_0>
-116.606

>  <SCORE.INTRA.VDW>
1.2231

>  <SCORE.INTRA.VDW.0>
-6.01229

>  <SCORE.INTRA.norm>
-0.187699

>  <SCORE.RESTR>
0

>  <SCORE.RESTR.CAVITY>
0

>  <SCORE.RESTR.norm>
0

>  <SCORE.SYSTEM>
0

>  <SCORE.SYSTEM.CONST>
0

>  <SCORE.SYSTEM.DIHEDRAL>
0

>  <SCORE.SYSTEM.SOLV>
0

>  <SCORE.SYSTEM.norm>
0

>  <SCORE.heavy>
42

>  <SCORE.norm>
-0.486298

>  <RMSD>
6.388

$$$$
2et4_lig
 OpenBabel11021811423D
libRbt.so/2013.1/901 2013/11/27
 42 45  0  0  0  0  0  0  0  0999 V2000
   14.0049    9.6545   11.3576 C   0  0  2  0  0  0  0  0  0  0  0  0
   13.1496    8.9734   12.2777 O   0  0  0  0  0  0  0  0  0  0  0  0
   13.4692   11.1026   11.2218 C   0  0  2  0  0  0  0  0  0  0  0  0
   13.4203   11.7666   12.4995 N   0  0  0  0  0  0  0  0  0  0  0  0
   12.0642   11.0697   10.5540 C   0  0  1  0  0  0  0  0  0  0  0  0
   11.5920   12.3737   10.4184 O   0  0  0  0  0  0  0  0  0  0  0  0
   12.1946   10.3396    9.1756 C   0  0  2  0  0  0  0  0  0  0  0  0
   10.9373   10.2803    8.5359 O   0  0  0  0  0  0  0  0  0  0  0  0
   12.7460    8.8937    9.3632 C   0  0  2  0  0  0  0  0  0  0  0  0
   14.0088    8.9759   10.0306 O   0  0  0  0  0  0  0  0  0  0  0  0
   12.9288    8.1475    8.0012 C   0  0  0  0  0  0  0  0  0  0  0  0
   11.6847    7.8506    7.3807 N   0  0  0  0  0  0  0  0  0  0  0  0
   14.7082    4.9456   12.2306 C   0  0  2  0  0  0  0  0  0  0  0  0
   14.9185    3.5406   12.6015 N   0  0  0  0  0  0  0  0  0  0  0  0
   15.0845    5.9004   13.4872 C   0  0  0  0  0  0  0  0  0  0  0  0
   14.8421    7.4130   13.0864 C   0  0  2  0  0  0  0  0  0  0  0  0
   15.1477    8.3165   14.2098 N   0  0  0  0  0  0  0  0  0  0  0  0
   13.3496    7.6034   12.6520 C   0  0  2  0  0  0  0  0  0  0  0  0
   12.9925    6.6561   11.4590 C   0  0  2  0  0  0  0  0  0  0  0  0
   11.5986    6.8973   11.1461 O   0  0  0  0  0  0  0  0  0  0  0  0
   13.2296    5.1682   11.8729 C   0  0  1  0  0  0  0  0  0  0  0  0
   12.9187    4.3540   10.7931 O   0  0  0  0  0  0  0  0  0  0  0  0
   10.5501    6.6021   11.9522 C   0  0  1  0  0  0  0  0  0  0  0  0
    9.2476    7.2674   11.4361 C   0  0  2  0  0  0  0  0  0  0  0  0
    9.1034    8.5924   11.8586 O   0  0  0  0  0  0  0  0  0  0  0  0
    8.2396    6.2366   11.9094 C   0  0  1  0  0  0  0  0  0  0  0  0
    8.8981    4.8610   11.7338 C   0  0  2  0  0  0  0  0  0  0  0  0
   10.2480    5.1852   12.0663 O   0  0  0  0  0  0  0  0  0  0  0  0
    8.7845    4.2358   10.3017 C   0  0  0  0  0  0  0  0  0  0  0  0
    9.4982    2.9711   10.3218 O   0  0  0  0  0  0  0  0  0  0  0  0
    6.7574    6.0039   13.8768 C   0  0  2  0  0  0  0  0  0  0  0  0
    7.9398    6.5267   13.3359 O   0  0  0  0  0  0  0  0  0  0  0  0
    7.0376    4.6750   14.7046 C   0  0  1  0  0  0  0  0  0  0  0  0
    4.0657    4.0724   10.8677 N   0  0  0  0  0  0  0  0  0  0  0  0
    5.6109    4.1518   15.2593 C   0  0  1  0  0  0  0  0  0  0  0  0
    5.0058    5.2492   16.1120 O   0  0  0  0  0  0  0  0  0  0  0  0
    4.6316    3.7997   14.0169 C   0  0  2  0  0  0  0  0  0  0  0  0
    5.2261    2.7442   13.2241 O   0  0  0  0  0  0  0  0  0  0  0  0
    4.3985    5.1752   13.1722 C   0  0  1  0  0  0  0  0  0  0  0  0
    5.7290    5.7281   12.7409 O   0  0  0  0  0  0  0  0  0  0  0  0
    3.4788    4.9577   11.9199 C   0  0  0  0  0  0  0  0  0  0  0  0
    7.7384    3.6690   13.8400 N   0  0  0  0  0  0  0  0  0  0  0  0
  1  2  1  1  0  0  0
  1  3  1  0  0  0  0
  1 10  1  0  0  0  0
  3  4  1  1  0  0  0
  3  5  1  0  0  0  0
  5  6  1  6  0  0  0
  5  7  1  0  0  0  0
  7  8  1  1  0  0  0
  7  9  1  0  0  0  0
  9 10  1  0  0  0  0
  9 11  1  6  0  0  0
 11 12  1  0  0  0  0
 13 14  1  1  0  0  0
 13 15  1  0  0  0  0
 13 21  1  0  0  0  0
 16 15  1  0  0  0  0
 16 17  1  1  0  0  0
 18  2  1  6  0  0  0
 18 16  1  0  0  0  0
 19 18  1  0  0  0  0
 19 20  1  1  0  0  0
 21 19  1  0  0  0  0
 21 22  1  6  0  0  0
 23 20  1  6  0  0  0
 23 24  1  0  0  0  0
 23 28  1  0  0  0  0
 24 25  1  1  0  0  0
 24 26  1  0  0  0  0
 26 27  1  0  0  0  0
 26 32  1  1  0  0  0
 27 28  1  0  0  0  0
 27 29  1  6  0  0  0
 29 30  1  0  0  0  0
 31 32  1  6  0  0  0
 31 40  1  0  0  0  0
 33 31  1  0  0  0  0
 33 42  1  6  0  0  0
 35 33  1  0  0  0  0
 35 36  1  1  0  0  0
 37 35  1  0  0  0  0
 37 38  1  6  0  0  0
 37 39  1  0  0  0  0
 39 40  1  0  0  0  0
 39 41  1  6  0  0  0
 41 34  1  0  0  0  0
M  END
>  <CHROM.1>
-179.69284659,-68.68014966,50.46633149,-66.67357052,167.78361600,160.30169015
178.12669233,99.12959203,-65.56060099,10.28492929,6.73450546,11.86682902
0.56565943,0.02266074,-0.44182420

>  <Name>
2et4_lig

>  <RI>
1.79929e+07

>  <Rbt.Current_Directory>
/home/itssahil/PROJECTS/Mol_Feturizer/New_Systems/rnas/2et4

>  <Rbt.Executable>
rbdock ($Id: //depot/dev/client3/rdock/2013.1/src/exe/rbdock.cxx#4 $)

>  <Rbt.Library>
libRbt.so (2013.1, Build901 2013/11/27)

>  <Rbt.Parameter_File>
/export/apps/rDock/src/rDock_2013.1_src/data/scripts/dock_solv.prm

>  <Rbt.Receptor>
prm/pocket_docking_7.prm

>  <SCORE>
-10.0033

>  <SCORE.INTER>
-5.9547

>  <SCORE.INTER.CONST>
1

>  <SCORE.INTER.POLAR>
-0.641103

>  <SCORE.INTER.ROT>
9

>  <SCORE.INTER.SOLV>
16.8538

>  <SCORE.INTER.VDW>
-17.0507

>  <SCORE.INTER.norm>
-0.141779

>  <SCORE.INTRA>
-4.04858

>  <SCORE.INTRA.DIHEDRAL>
-12.7911

>  <SCORE.INTRA.DIHEDRAL.0>
21.6909

>  <SCORE.INTRA.POLAR>
0

>  <SCORE.INTRA.POLAR.0>
0

>  <SCORE.INTRA.REPUL>
0

>  <SCORE.INTRA.REPUL.0>
0

>  <SCORE.INTRA.SOLV>
1.80507

>  <SCORE.INTRA.SOLV.lig_0>
-116.606

>  <SCORE.INTRA.VDW>
1.44446

>  <SCORE.INTRA.VDW.0>
-6.01229

>  <SCORE.INTRA.norm>
-0.0963947

>  <SCORE.RESTR>
0

>  <SCORE.RESTR.CAVITY>
0

>  <SCORE.RESTR.norm>
0

>  <SCORE.SYSTEM>
0

>  <SCORE.SYSTEM.CONST>
0

>  <SCORE.SYSTEM.DIHEDRAL>
0

>  <SCORE.SYSTEM.SOLV>
0

>  <SCORE.SYSTEM.norm>
0

>  <SCORE.heavy>
42

>  <SCORE.norm>
-0.238173

>  <RMSD>
6.406

$$$$
2et4_lig
 OpenBabel11021811423D
libRbt.so/2013.1/901 2013/11/27
 42 45  0  0  0  0  0  0  0  0999 V2000
   14.0927    4.4527    5.8633 C   0  0  2  0  0  0  0  0  0  0  0  0
   14.2654    3.2327    6.5872 O   0  0  0  0  0  0  0  0  0  0  0  0
   14.9417    4.3415    4.5712 C   0  0  2  0  0  0  0  0  0  0  0  0
   14.5580    3.1950    3.7876 N   0  0  0  0  0  0  0  0  0  0  0  0
   16.4493    4.2806    4.9513 C   0  0  1  0  0  0  0  0  0  0  0  0
   17.2109    4.1971    3.7873 O   0  0  0  0  0  0  0  0  0  0  0  0
   16.7930    5.5533    5.7951 C   0  0  2  0  0  0  0  0  0  0  0  0
   18.1544    5.5358    6.1690 O   0  0  0  0  0  0  0  0  0  0  0  0
   15.9076    5.6259    7.0760 C   0  0  2  0  0  0  0  0  0  0  0  0
   14.5342    5.6218    6.6756 O   0  0  0  0  0  0  0  0  0  0  0  0
   16.1951    6.9082    7.9236 C   0  0  0  0  0  0  0  0  0  0  0  0
   15.6778    6.8060    9.2439 N   0  0  0  0  0  0  0  0  0  0  0  0
   11.9408    1.0661    9.5124 C   0  0  2  0  0  0  0  0  0  0  0  0
   11.2138    0.7643   10.7518 N   0  0  0  0  0  0  0  0  0  0  0  0
   13.4881    1.4078    9.8606 C   0  0  0  0  0  0  0  0  0  0  0  0
   14.2636    1.7464    8.5222 C   0  0  2  0  0  0  0  0  0  0  0  0
   15.6707    2.0888    8.7948 N   0  0  0  0  0  0  0  0  0  0  0  0
   13.5616    2.9480    7.8039 C   0  0  2  0  0  0  0  0  0  0  0  0
   12.0631    2.6159    7.5003 C   0  0  2  0  0  0  0  0  0  0  0  0
   11.5055    3.7870    6.8549 O   0  0  0  0  0  0  0  0  0  0  0  0
   11.3108    2.2919    8.8309 C   0  0  1  0  0  0  0  0  0  0  0  0
    9.9907    1.9882    8.5298 O   0  0  0  0  0  0  0  0  0  0  0  0
   11.5048    5.0412    7.3678 C   0  0  1  0  0  0  0  0  0  0  0  0
   10.2986    5.8585    6.8362 C   0  0  2  0  0  0  0  0  0  0  0  0
   10.5406    6.4479    5.5916 O   0  0  0  0  0  0  0  0  0  0  0  0
   10.0617    6.7573    8.0357 C   0  0  1  0  0  0  0  0  0  0  0  0
   10.3294    5.9068    9.2854 C   0  0  2  0  0  0  0  0  0  0  0  0
   11.4156    5.1080    8.8167 O   0  0  0  0  0  0  0  0  0  0  0  0
    9.1279    5.0280    9.7742 C   0  0  0  0  0  0  0  0  0  0  0  0
    9.5434    4.3660   10.9982 O   0  0  0  0  0  0  0  0  0  0  0  0
   11.1656    8.7230    9.0550 C   0  0  2  0  0  0  0  0  0  0  0  0
   11.0074    7.8992    7.9324 O   0  0  0  0  0  0  0  0  0  0  0  0
   11.7232   10.1558    8.6477 C   0  0  1  0  0  0  0  0  0  0  0  0
   12.8658    6.6135   12.6112 N   0  0  0  0  0  0  0  0  0  0  0  0
   11.8861   11.0074   10.0133 C   0  0  1  0  0  0  0  0  0  0  0  0
   10.5299   11.0831   10.6859 O   0  0  0  0  0  0  0  0  0  0  0  0
   12.9590   10.2846   10.9894 C   0  0  2  0  0  0  0  0  0  0  0  0
   14.2465   10.2329   10.3294 O   0  0  0  0  0  0  0  0  0  0  0  0
   12.3715    8.8075   11.3541 C   0  0  1  0  0  0  0  0  0  0  0  0
   12.1164    8.0438   10.0838 O   0  0  0  0  0  0  0  0  0  0  0  0
   13.3394    7.9930   12.2821 C   0  0  0  0  0  0  0  0  0  0  0  0
   13.0083   10.0099    7.8874 N   0  0  0  0  0  0  0  0  0  0  0  0
  1  2  1  1  0  0  0
  1  3  1  0  0  0  0
  1 10  1  0  0  0  0
  3  4  1  1  0  0  0
  3  5  1  0  0  0  0
  5  6  1  6  0  0  0
  5  7  1  0  0  0  0
  7  8  1  1  0  0  0
  7  9  1  0  0  0  0
  9 10  1  0  0  0  0
  9 11  1  6  0  0  0
 11 12  1  0  0  0  0
 13 14  1  1  0  0  0
 13 15  1  0  0  0  0
 13 21  1  0  0  0  0
 16 15  1  0  0  0  0
 16 17  1  1  0  0  0
 18  2  1  6  0  0  0
 18 16  1  0  0  0  0
 19 18  1  0  0  0  0
 19 20  1  1  0  0  0
 21 19  1  0  0  0  0
 21 22  1  6  0  0  0
 23 20  1  1  0  0  0
 23 24  1  0  0  0  0
 23 28  1  0  0  0  0
 24 25  1  6  0  0  0
 24 26  1  0  0  0  0
 26 27  1  0  0  0  0
 26 32  1  6  0  0  0
 27 28  1  0  0  0  0
 27 29  1  6  0  0  0
 29 30  1  0  0  0  0
 31 32  1  6  0  0  0
 31 40  1  0  0  0  0
 33 31  1  0  0  0  0
 33 42  1  1  0  0  0
 35 33  1  0  0  0  0
 35 36  1  1  0  0  0
 37 35  1  0  0  0  0
 37 38  1  6  0  0  0
 37 39  1  0  0  0  0
 39 40  1  0  0  0  0
 39 41  1  1  0  0  0
 41 34  1  0  0  0  0
M  END
>  <CHROM.1>
-176.23790056,-163.91064650,-164.47474880,-56.27808305,-151.77080230,-167.54043367
-176.67298812,-157.89755808,-178.17587566,12.94138698,5.62871927,8.27859630
-1.08117764,0.62724007,0.24705249

>  <Name>
2et4_lig

>  <RI>
0

>  <Rbt.Current_Directory>
/home/itssahil/PROJECTS/Mol_Feturizer/New_Systems/rnas/2et4

>  <Rbt.Executable>
rbdock ($Id: //depot/dev/client3/rdock/2013.1/src/exe/rbdock.cxx#4 $)

>  <Rbt.Library>
libRbt.so (2013.1, Build901 2013/11/27)

>  <Rbt.Parameter_File>
/export/apps/rDock/src/rDock_2013.1_src/data/scripts/dock_solv.prm

>  <Rbt.Receptor>
prm/pocket_docking_8.prm

>  <SCORE>
-5.23484

>  <SCORE.INTER>
1.71637

>  <SCORE.INTER.CONST>
1

>  <SCORE.INTER.POLAR>
-1.19592

>  <SCORE.INTER.ROT>
9

>  <SCORE.INTER.SOLV>
13.8341

>  <SCORE.INTER.VDW>
-9.08074

>  <SCORE.INTER.norm>
0.0408659

>  <SCORE.INTRA>
-6.95121

>  <SCORE.INTRA.DIHEDRAL>
-13.1885

>  <SCORE.INTRA.DIHEDRAL.0>
21.6909

>  <SCORE.INTRA.POLAR>
0

>  <SCORE.INTRA.POLAR.0>
0

>  <SCORE.INTRA.REPUL>
0.0137322

>  <SCORE.INTRA.REPUL.0>
0

>  <SCORE.INTRA.SOLV>
-2.25959

>  <SCORE.INTRA.SOLV.lig_0>
-116.606

>  <SCORE.INTRA.VDW>
0.704163

>  <SCORE.INTRA.VDW.0>
-6.01229

>  <SCORE.INTRA.norm>
-0.165505

>  <SCORE.RESTR>
0

>  <SCORE.RESTR.CAVITY>
0

>  <SCORE.RESTR.norm>
0

>  <SCORE.SYSTEM>
0

>  <SCORE.SYSTEM.CONST>
0

>  <SCORE.SYSTEM.DIHEDRAL>
0

>  <SCORE.SYSTEM.SOLV>
0

>  <SCORE.SYSTEM.norm>
0

>  <SCORE.heavy>
42

>  <SCORE.norm>
-0.124639

>  <RMSD>
6.408

$$$$
2et4_lig
 OpenBabel11021811423D
libRbt.so/2013.1/901 2013/11/27
 42 45  0  0  0  0  0  0  0  0999 V2000
   15.2536    3.8668    7.7060 C   0  0  2  0  0  0  0  0  0  0  0  0
   15.4621    5.2756    7.5879 O   0  0  0  0  0  0  0  0  0  0  0  0
   15.6946    3.4576    9.1345 C   0  0  2  0  0  0  0  0  0  0  0  0
   14.9688    4.1924   10.1390 N   0  0  0  0  0  0  0  0  0  0  0  0
   17.2284    3.6758    9.2805 C   0  0  1  0  0  0  0  0  0  0  0  0
   17.6247    3.2921   10.5601 O   0  0  0  0  0  0  0  0  0  0  0  0
   17.9486    2.8492    8.1634 C   0  0  2  0  0  0  0  0  0  0  0  0
   19.3467    3.0242    8.2541 O   0  0  0  0  0  0  0  0  0  0  0  0
   17.4650    3.2890    6.7483 C   0  0  2  0  0  0  0  0  0  0  0  0
   16.0454    3.1231    6.6853 O   0  0  0  0  0  0  0  0  0  0  0  0
   18.1339    2.4546    5.6073 C   0  0  0  0  0  0  0  0  0  0  0  0
   17.7164    2.8794    4.3164 N   0  0  0  0  0  0  0  0  0  0  0  0
   14.2744    8.0840    4.5290 C   0  0  2  0  0  0  0  0  0  0  0  0
   13.4248    8.9536    3.7058 N   0  0  0  0  0  0  0  0  0  0  0  0
   13.7627    6.5496    4.4037 C   0  0  0  0  0  0  0  0  0  0  0  0
   14.6733    5.6187    5.3046 C   0  0  2  0  0  0  0  0  0  0  0  0
   14.2271    4.2157    5.2410 N   0  0  0  0  0  0  0  0  0  0  0  0
   14.6213    6.1183    6.7880 C   0  0  2  0  0  0  0  0  0  0  0  0
   15.0896    7.6076    6.8899 C   0  0  2  0  0  0  0  0  0  0  0  0
   14.9908    7.9745    8.2880 O   0  0  0  0  0  0  0  0  0  0  0  0
   14.1769    8.5133    6.0021 C   0  0  1  0  0  0  0  0  0  0  0  0
   14.6236    9.8234    6.1011 O   0  0  0  0  0  0  0  0  0  0  0  0
   13.8451    8.2940    8.9372 C   0  0  1  0  0  0  0  0  0  0  0  0
   12.9161    7.0588    9.0658 C   0  0  2  0  0  0  0  0  0  0  0  0
   12.1262    6.8455    7.9320 O   0  0  0  0  0  0  0  0  0  0  0  0
   12.2331    7.3991   10.3775 C   0  0  1  0  0  0  0  0  0  0  0  0
   13.2945    8.0558   11.2713 C   0  0  2  0  0  0  0  0  0  0  0  0
   14.0286    8.7893   10.2910 O   0  0  0  0  0  0  0  0  0  0  0  0
   14.2125    7.0670   12.0677 C   0  0  0  0  0  0  0  0  0  0  0  0
   13.3532    6.2758   12.9307 O   0  0  0  0  0  0  0  0  0  0  0  0
   10.1453    8.5374   11.0605 C   0  0  2  0  0  0  0  0  0  0  0  0
   11.1163    8.3307   10.0715 O   0  0  0  0  0  0  0  0  0  0  0  0
    8.9035    9.3523   10.4915 C   0  0  1  0  0  0  0  0  0  0  0  0
   11.7914    9.5545   15.1211 N   0  0  0  0  0  0  0  0  0  0  0  0
    7.8645    9.5499   11.7154 C   0  0  1  0  0  0  0  0  0  0  0  0
    7.4723    8.1779   12.2266 O   0  0  0  0  0  0  0  0  0  0  0  0
    8.5617   10.4127   12.8969 C   0  0  2  0  0  0  0  0  0  0  0  0
    8.9180   11.7201   12.3873 O   0  0  0  0  0  0  0  0  0  0  0  0
    9.8494    9.5644   13.4281 C   0  0  1  0  0  0  0  0  0  0  0  0
   10.7727    9.2834   12.2746 O   0  0  0  0  0  0  0  0  0  0  0  0
   10.6283   10.3125   14.5660 C   0  0  0  0  0  0  0  0  0  0  0  0
    9.3685   10.6493    9.8980 N   0  0  0  0  0  0  0  0  0  0  0  0
  1  2  1  6  0  0  0
  1  3  1  0  0  0  0
  1 10  1  0  0  0  0
  3  4  1  1  0  0  0
  3  5  1  0  0  0  0
  5  6  1  1  0  0  0
  5  7  1  0  0  0  0
  7  8  1  6  0  0  0
  7  9  1  0  0  0  0
  9 10  1  0  0  0  0
  9 11  1  6  0  0  0
 11 12  1  0  0  0  0
 13 14  1  6  0  0  0
 13 15  1  0  0  0  0
 13 21  1  0  0  0  0
 16 15  1  0  0  0  0
 16 17  1  1  0  0  0
 18  2  1  1  0  0  0
 18 16  1  0  0  0  0
 19 18  1  0  0  0  0
 19 20  1  1  0  0  0
 21 19  1  0  0  0  0
 21 22  1  6  0  0  0
 23 20  1  1  0  0  0
 23 24  1  0  0  0  0
 23 28  1  0  0  0  0
 24 25  1  6  0  0  0
 24 26  1  0  0  0  0
 26 27  1  0  0  0  0
 26 32  1  6  0  0  0
 27 28  1  0  0  0  0
 27 29  1  6  0  0  0
 29 30  1  0  0  0  0
 31 32  1  6  0  0  0
 31 40  1  0  0  0  0
 33 31  1  0  0  0  0
 33 42  1  1  0  0  0
 35 33  1  0  0  0  0
 35 36  1  1  0  0  0
 37 35  1  0  0  0  0
 37 38  1  6  0  0  0
 37 39  1  0  0  0  0
 39 40  1  0  0  0  0
 39 41  1  1  0  0  0
 41 34  1  0  0  0  0
M  END
>  <CHROM.1>
-147.28566767,-178.54426006,-59.47088714,-78.05351735,67.70750890,165.02362292
-60.41114261,-170.20469864,177.97712727,13.53258945,6.91342742,9.08832603
-0.44281371,-0.75632264,1.75321146

>  <Name>
2et4_lig

>  <RI>
1.79929e+07

>  <Rbt.Current_Directory>
/home/itssahil/PROJECTS/Mol_Feturizer/New_Systems/rnas/2et4

>  <Rbt.Executable>
rbdock ($Id: //depot/dev/client3/rdock/2013.1/src/exe/rbdock.cxx#4 $)

>  <Rbt.Library>
libRbt.so (2013.1, Build901 2013/11/27)

>  <Rbt.Parameter_File>
/export/apps/rDock/src/rDock_2013.1_src/data/scripts/dock_solv.prm

>  <Rbt.Receptor>
prm/pocket_docking_7.prm

>  <SCORE>
-10.5958

>  <SCORE.INTER>
-6.28485

>  <SCORE.INTER.CONST>
1

>  <SCORE.INTER.POLAR>
-1.76199

>  <SCORE.INTER.ROT>
9

>  <SCORE.INTER.SOLV>
10.3875

>  <SCORE.INTER.VDW>
-11.3791

>  <SCORE.INTER.norm>
-0.149639

>  <SCORE.INTRA>
-4.31091

>  <SCORE.INTRA.DIHEDRAL>
-14.0948

>  <SCORE.INTRA.DIHEDRAL.0>
21.6909

>  <SCORE.INTRA.POLAR>
0

>  <SCORE.INTRA.POLAR.0>
0

>  <SCORE.INTRA.REPUL>
0

>  <SCORE.INTRA.REPUL.0>
0

>  <SCORE.INTRA.SOLV>
1.09059

>  <SCORE.INTRA.SOLV.lig_0>
-116.606

>  <SCORE.INTRA.VDW>
2.19119

>  <SCORE.INTRA.VDW.0>
-6.01229

>  <SCORE.INTRA.norm>
-0.102641

>  <SCORE.RESTR>
0

>  <SCORE.RESTR.CAVITY>
0

>  <SCORE.RESTR.norm>
0

>  <SCORE.SYSTEM>
0

>  <SCORE.SYSTEM.CONST>
0

>  <SCORE.SYSTEM.DIHEDRAL>
0

>  <SCORE.SYSTEM.SOLV>
0

>  <SCORE.SYSTEM.norm>
0

>  <SCORE.heavy>
42

>  <SCORE.norm>
-0.25228

>  <RMSD>
6.415

$$$$
2et4_lig
 OpenBabel11021811423D
libRbt.so/2013.1/901 2013/11/27
 42 45  0  0  0  0  0  0  0  0999 V2000
   17.4954   12.4367    3.4314 C   0  0  2  0  0  0  0  0  0  0  0  0
   16.0995   12.3114    3.7107 O   0  0  0  0  0  0  0  0  0  0  0  0
   17.7483   13.9089    3.0177 C   0  0  2  0  0  0  0  0  0  0  0  0
   17.3238   14.8239    4.0464 N   0  0  0  0  0  0  0  0  0  0  0  0
   17.0169   14.1978    1.6751 C   0  0  1  0  0  0  0  0  0  0  0  0
   17.2592   15.5170    1.2974 O   0  0  0  0  0  0  0  0  0  0  0  0
   17.5279   13.1720    0.6090 C   0  0  2  0  0  0  0  0  0  0  0  0
   16.8829   13.3936   -0.6273 O   0  0  0  0  0  0  0  0  0  0  0  0
   17.2611   11.7084    1.0743 C   0  0  2  0  0  0  0  0  0  0  0  0
   17.9053   11.5121    2.3365 O   0  0  0  0  0  0  0  0  0  0  0  0
   17.7968   10.6540    0.0512 C   0  0  0  0  0  0  0  0  0  0  0  0
   18.4316    9.5565    0.6943 N   0  0  0  0  0  0  0  0  0  0  0  0
   12.6226    9.9740    2.6607 C   0  0  2  0  0  0  0  0  0  0  0  0
   11.7286    9.0913    1.9009 N   0  0  0  0  0  0  0  0  0  0  0  0
   12.9518   11.2983    1.7832 C   0  0  0  0  0  0  0  0  0  0  0  0
   13.9275   12.2394    2.6014 C   0  0  2  0  0  0  0  0  0  0  0  0
   14.2744   13.4459    1.8296 N   0  0  0  0  0  0  0  0  0  0  0  0
   15.2334   11.4516    2.9574 C   0  0  2  0  0  0  0  0  0  0  0  0
   14.8987   10.1624    3.7782 C   0  0  2  0  0  0  0  0  0  0  0  0
   16.1620    9.5037    4.0415 O   0  0  0  0  0  0  0  0  0  0  0  0
   13.9422    9.2416    2.9545 C   0  0  1  0  0  0  0  0  0  0  0  0
   13.6522    8.1154    3.7115 O   0  0  0  0  0  0  0  0  0  0  0  0
   16.4866    8.8560    5.1867 C   0  0  1  0  0  0  0  0  0  0  0  0
   15.3536    7.8889    5.6185 C   0  0  2  0  0  0  0  0  0  0  0  0
   14.3424    8.5197    6.3497 O   0  0  0  0  0  0  0  0  0  0  0  0
   16.1879    6.8196    6.2992 C   0  0  1  0  0  0  0  0  0  0  0  0
   17.4802    6.6804    5.4823 C   0  0  2  0  0  0  0  0  0  0  0  0
   17.6880    8.0423    5.1081 O   0  0  0  0  0  0  0  0  0  0  0  0
   17.3912    5.7396    4.2327 C   0  0  0  0  0  0  0  0  0  0  0  0
   18.7421    5.5493    3.7349 O   0  0  0  0  0  0  0  0  0  0  0  0
   16.0188    6.4707    8.7428 C   0  0  2  0  0  0  0  0  0  0  0  0
   16.4587    7.2795    7.6862 O   0  0  0  0  0  0  0  0  0  0  0  0
   16.9918    6.5760    9.9966 C   0  0  1  0  0  0  0  0  0  0  0  0
   14.7050    1.5407    9.5323 N   0  0  0  0  0  0  0  0  0  0  0  0
   16.4034    5.5921   11.1378 C   0  0  1  0  0  0  0  0  0  0  0  0
   14.9910    6.0373   11.4612 O   0  0  0  0  0  0  0  0  0  0  0  0
   16.4026    4.0630   10.6009 C   0  0  2  0  0  0  0  0  0  0  0  0
   17.7616    3.6586   10.3083 O   0  0  0  0  0  0  0  0  0  0  0  0
   15.4262    4.0028    9.2960 C   0  0  1  0  0  0  0  0  0  0  0  0
   15.9037    4.9922    8.2687 O   0  0  0  0  0  0  0  0  0  0  0  0
   15.3606    2.5677    8.6657 C   0  0  0  0  0  0  0  0  0  0  0  0
   18.3943    6.2331    9.5888 N   0  0  0  0  0  0  0  0  0  0  0  0
  1  2  1  6  0  0  0
  1  3  1  0  0  0  0
  1 10  1  0  0  0  0
  3  4  1  1  0  0  0
  3  5  1  0  0  0  0
  5  6  1  6  0  0  0
  5  7  1  0  0  0  0
  7  8  1  6  0  0  0
  7  9  1  0  0  0  0
  9 10  1  0  0  0  0
  9 11  1  6  0  0  0
 11 12  1  0  0  0  0
 13 14  1  6  0  0  0
 13 15  1  0  0  0  0
 13 21  1  0  0  0  0
 16 15  1  0  0  0  0
 16 17  1  6  0  0  0
 18  2  1  1  0  0  0
 18 16  1  0  0  0  0
 19 18  1  0  0  0  0
 19 20  1  6  0  0  0
 21 19  1  0  0  0  0
 21 22  1  1  0  0  0
 23 20  1  6  0  0  0
 23 24  1  0  0  0  0
 23 28  1  0  0  0  0
 24 25  1  1  0  0  0
 24 26  1  0  0  0  0
 26 27  1  0  0  0  0
 26 32  1  1  0  0  0
 27 28  1  0  0  0  0
 27 29  1  6  0  0  0
 29 30  1  0  0  0  0
 31 32  1  6  0  0  0
 31 40  1  0  0  0  0
 33 31  1  0  0  0  0
 33 42  1  6  0  0  0
 35 33  1  0  0  0  0
 35 36  1  6  0  0  0
 37 35  1  0  0  0  0
 37 38  1  6  0  0  0
 37 39  1  0  0  0  0
 39 40  1  0  0  0  0
 39 41  1  6  0  0  0
 41 34  1  0  0  0  0
M  END
>  <CHROM.1>
117.27386816,138.35617443,-133.87261302,142.71092432,47.83776197,120.79522254
-170.17690627,147.90405754,66.68360860,16.12779263,8.90917753,4.92980067
-1.56085827,0.36772704,2.37685739

>  <Name>
2et4_lig

>  <RI>
0

>  <Rbt.Current_Directory>
/home/itssahil/PROJECTS/Mol_Feturizer/New_Systems/rnas/2et4

>  <Rbt.Executable>
rbdock ($Id: //depot/dev/client3/rdock/2013.1/src/exe/rbdock.cxx#4 $)

>  <Rbt.Library>
libRbt.so (2013.1, Build901 2013/11/27)

>  <Rbt.Parameter_File>
/export/apps/rDock/src/rDock_2013.1_src/data/scripts/dock_solv.prm

>  <Rbt.Receptor>
prm/blind_docking_80.prm

>  <SCORE>
31.5176

>  <SCORE.INTER>
5.23539

>  <SCORE.INTER.CONST>
1

>  <SCORE.INTER.POLAR>
0

>  <SCORE.INTER.ROT>
9

>  <SCORE.INTER.SOLV>
41.1502

>  <SCORE.INTER.VDW>
-19.8265

>  <SCORE.INTER.norm>
0.124652

>  <SCORE.INTRA>
11.1667

>  <SCORE.INTRA.DIHEDRAL>
13.2814

>  <SCORE.INTRA.DIHEDRAL.0>
21.6909

>  <SCORE.INTRA.POLAR>
0

>  <SCORE.INTRA.POLAR.0>
0

>  <SCORE.INTRA.REPUL>
0

>  <SCORE.INTRA.REPUL.0>
0

>  <SCORE.INTRA.SOLV>
1.12446

>  <SCORE.INTRA.SOLV.lig_0>
-116.606

>  <SCORE.INTRA.VDW>
3.96375

>  <SCORE.INTRA.VDW.0>
-6.01229

>  <SCORE.INTRA.norm>
0.265874

>  <SCORE.RESTR>
15.1155

>  <SCORE.RESTR.CAVITY>
15.1155

>  <SCORE.RESTR.norm>
0.359893

>  <SCORE.SYSTEM>
0

>  <SCORE.SYSTEM.CONST>
0

>  <SCORE.SYSTEM.DIHEDRAL>
0

>  <SCORE.SYSTEM.SOLV>
0

>  <SCORE.SYSTEM.norm>
0

>  <SCORE.heavy>
42

>  <SCORE.norm>
0.75042

>  <RMSD>
6.432

$$$$
2et4_lig
 OpenBabel11021811423D
libRbt.so/2013.1/901 2013/11/27
 42 45  0  0  0  0  0  0  0  0999 V2000
   14.1345   11.1711    4.1869 C   0  0  2  0  0  0  0  0  0  0  0  0
   15.3153   10.3913    3.9877 O   0  0  0  0  0  0  0  0  0  0  0  0
   13.0538   10.2239    4.7677 C   0  0  2  0  0  0  0  0  0  0  0  0
   13.4996    9.6053    5.9901 N   0  0  0  0  0  0  0  0  0  0  0  0
   12.6831    9.1530    3.7014 C   0  0  1  0  0  0  0  0  0  0  0  0
   11.6999    8.3129    4.2202 O   0  0  0  0  0  0  0  0  0  0  0  0
   12.2075    9.8949    2.4078 C   0  0  2  0  0  0  0  0  0  0  0  0
   11.8666    8.9583    1.4077 O   0  0  0  0  0  0  0  0  0  0  0  0
   13.3225   10.8415    1.8689 C   0  0  2  0  0  0  0  0  0  0  0  0
   13.6666   11.7676    2.9036 O   0  0  0  0  0  0  0  0  0  0  0  0
   12.8668   11.6316    0.5987 C   0  0  0  0  0  0  0  0  0  0  0  0
   12.5778   10.7697   -0.4944 N   0  0  0  0  0  0  0  0  0  0  0  0
   17.7891   12.0030    0.8353 C   0  0  2  0  0  0  0  0  0  0  0  0
   18.9698   12.5215    0.1334 N   0  0  0  0  0  0  0  0  0  0  0  0
   17.4586   12.9482    2.1120 C   0  0  0  0  0  0  0  0  0  0  0  0
   16.1935   12.3763    2.8733 C   0  0  2  0  0  0  0  0  0  0  0  0
   15.8720   13.1916    4.0580 N   0  0  0  0  0  0  0  0  0  0  0  0
   16.4747   10.9000    3.3138 C   0  0  2  0  0  0  0  0  0  0  0  0
   16.8201   10.0067    2.0766 C   0  0  2  0  0  0  0  0  0  0  0  0
   17.0757    8.6760    2.5894 O   0  0  0  0  0  0  0  0  0  0  0  0
   18.0743   10.5796    1.3416 C   0  0  1  0  0  0  0  0  0  0  0  0
   18.3480    9.7770    0.2432 O   0  0  0  0  0  0  0  0  0  0  0  0
   16.9474    8.2947    3.8834 C   0  0  1  0  0  0  0  0  0  0  0  0
   16.7362    6.7621    3.9929 C   0  0  2  0  0  0  0  0  0  0  0  0
   15.4021    6.3784    3.8253 O   0  0  0  0  0  0  0  0  0  0  0  0
   17.4034    6.5162    5.3335 C   0  0  1  0  0  0  0  0  0  0  0  0
   18.6192    7.4512    5.4004 C   0  0  2  0  0  0  0  0  0  0  0  0
   18.0942    8.5935    4.7243 O   0  0  0  0  0  0  0  0  0  0  0  0
   19.9218    6.9152    4.7143 C   0  0  0  0  0  0  0  0  0  0  0  0
   20.1130    5.5448    5.1554 O   0  0  0  0  0  0  0  0  0  0  0  0
   16.0248    5.7947    7.2571 C   0  0  2  0  0  0  0  0  0  0  0  0
   16.4082    6.8286    6.3921 O   0  0  0  0  0  0  0  0  0  0  0  0
   15.0627    6.3279    8.4060 C   0  0  1  0  0  0  0  0  0  0  0  0
   18.2586    2.3739   10.4170 N   0  0  0  0  0  0  0  0  0  0  0  0
   14.7049    5.0639    9.3499 C   0  0  1  0  0  0  0  0  0  0  0  0
   14.0472    4.0041    8.4886 O   0  0  0  0  0  0  0  0  0  0  0  0
   16.0571    4.4803   10.0262 C   0  0  2  0  0  0  0  0  0  0  0  0
   16.6608    5.5065   10.8499 O   0  0  0  0  0  0  0  0  0  0  0  0
   17.0317    3.9792    8.8183 C   0  0  1  0  0  0  0  0  0  0  0  0
   17.2859    5.1225    7.8747 O   0  0  0  0  0  0  0  0  0  0  0  0
   18.3945    3.4107    9.3483 C   0  0  0  0  0  0  0  0  0  0  0  0
   15.7239    7.4504    9.1500 N   0  0  0  0  0  0  0  0  0  0  0  0
  1  2  1  6  0  0  0
  1  3  1  0  0  0  0
  1 10  1  0  0  0  0
  3  4  1  1  0  0  0
  3  5  1  0  0  0  0
  5  6  1  1  0  0  0
  5  7  1  0  0  0  0
  7  8  1  6  0  0  0
  7  9  1  0  0  0  0
  9 10  1  0  0  0  0
  9 11  1  6  0  0  0
 11 12  1  0  0  0  0
 13 14  1  1  0  0  0
 13 15  1  0  0  0  0
 13 21  1  0  0  0  0
 16 15  1  0  0  0  0
 16 17  1  1  0  0  0
 18  2  1  6  0  0  0
 18 16  1  0  0  0  0
 19 18  1  0  0  0  0
 19 20  1  1  0  0  0
 21 19  1  0  0  0  0
 21 22  1  6  0  0  0
 23 20  1  6  0  0  0
 23 24  1  0  0  0  0
 23 28  1  0  0  0  0
 24 25  1  1  0  0  0
 24 26  1  0  0  0  0
 26 27  1  0  0  0  0
 26 32  1  1  0  0  0
 27 28  1  0  0  0  0
 27 29  1  6  0  0  0
 29 30  1  0  0  0  0
 31 32  1  6  0  0  0
 31 40  1  0  0  0  0
 33 31  1  0  0  0  0
 33 42  1  1  0  0  0
 35 33  1  0  0  0  0
 35 36  1  6  0  0  0
 37 35  1  0  0  0  0
 37 38  1  6  0  0  0
 37 39  1  0  0  0  0
 39 40  1  0  0  0  0
 39 41  1  1  0  0  0
 41 34  1  0  0  0  0
M  END
>  <CHROM.1>
172.38799952,-62.85926584,-0.11906532,3.79105692,157.11784226,118.62328970
-47.10023621,174.75070289,51.16428933,15.92745341,8.35804957,4.73084797,1.73905756
0.13564792,-0.85206972

>  <Name>
2et4_lig

>  <RI>
0

>  <Rbt.Current_Directory>
/home/itssahil/PROJECTS/Mol_Feturizer/New_Systems/rnas/2et4

>  <Rbt.Executable>
rbdock ($Id: //depot/dev/client3/rdock/2013.1/src/exe/rbdock.cxx#4 $)

>  <Rbt.Library>
libRbt.so (2013.1, Build901 2013/11/27)

>  <Rbt.Parameter_File>
/export/apps/rDock/src/rDock_2013.1_src/data/scripts/dock_solv.prm

>  <Rbt.Receptor>
prm/blind_docking_80.prm

>  <SCORE>
40.2596

>  <SCORE.INTER>
16.7318

>  <SCORE.INTER.CONST>
1

>  <SCORE.INTER.POLAR>
-0.716714

>  <SCORE.INTER.ROT>
9

>  <SCORE.INTER.SOLV>
40.4102

>  <SCORE.INTER.VDW>
-9.52645

>  <SCORE.INTER.norm>
0.398377

>  <SCORE.INTRA>
8.67017

>  <SCORE.INTRA.DIHEDRAL>
3.47048

>  <SCORE.INTRA.DIHEDRAL.0>
21.6909

>  <SCORE.INTRA.POLAR>
0

>  <SCORE.INTRA.POLAR.0>
0

>  <SCORE.INTRA.REPUL>
0.112531

>  <SCORE.INTRA.REPUL.0>
0

>  <SCORE.INTRA.SOLV>
-0.907492

>  <SCORE.INTRA.SOLV.lig_0>
-116.606

>  <SCORE.INTRA.VDW>
6.82602

>  <SCORE.INTRA.VDW.0>
-6.01229

>  <SCORE.INTRA.norm>
0.206433

>  <SCORE.RESTR>
14.8576

>  <SCORE.RESTR.CAVITY>
14.8576

>  <SCORE.RESTR.norm>
0.353752

>  <SCORE.SYSTEM>
0

>  <SCORE.SYSTEM.CONST>
0

>  <SCORE.SYSTEM.DIHEDRAL>
0

>  <SCORE.SYSTEM.SOLV>
0

>  <SCORE.SYSTEM.norm>
0

>  <SCORE.heavy>
42

>  <SCORE.norm>
0.958561

>  <RMSD>
6.454

$$$$
2et4_lig
 OpenBabel11021811423D
libRbt.so/2013.1/901 2013/11/27
 42 45  0  0  0  0  0  0  0  0999 V2000
   15.1978    6.4732   10.4489 C   0  0  2  0  0  0  0  0  0  0  0  0
   13.9866    5.8644    9.9966 O   0  0  0  0  0  0  0  0  0  0  0  0
   15.6609    5.6914   11.7047 C   0  0  2  0  0  0  0  0  0  0  0  0
   15.8407    4.2916   11.4154 N   0  0  0  0  0  0  0  0  0  0  0  0
   14.6264    5.8982   12.8485 C   0  0  1  0  0  0  0  0  0  0  0  0
   15.0534    5.2077   13.9811 O   0  0  0  0  0  0  0  0  0  0  0  0
   14.4854    7.4352   13.1087 C   0  0  2  0  0  0  0  0  0  0  0  0
   13.5478    7.6701   14.1379 O   0  0  0  0  0  0  0  0  0  0  0  0
   14.0288    8.1775   11.8163 C   0  0  2  0  0  0  0  0  0  0  0  0
   14.9806    7.9095   10.7824 O   0  0  0  0  0  0  0  0  0  0  0  0
   13.9171    9.7228   12.0282 C   0  0  0  0  0  0  0  0  0  0  0  0
   12.8791   10.0663   12.9368 N   0  0  0  0  0  0  0  0  0  0  0  0
   13.3322    7.7807    6.1816 C   0  0  2  0  0  0  0  0  0  0  0  0
   12.7460    8.0851    4.8704 N   0  0  0  0  0  0  0  0  0  0  0  0
   13.8778    6.2528    6.1904 C   0  0  0  0  0  0  0  0  0  0  0  0
   14.4957    5.9257    7.6111 C   0  0  2  0  0  0  0  0  0  0  0  0
   14.9819    4.5359    7.6726 N   0  0  0  0  0  0  0  0  0  0  0  0
   13.4082    6.1496    8.7156 C   0  0  2  0  0  0  0  0  0  0  0  0
   12.8703    7.6183    8.6767 C   0  0  2  0  0  0  0  0  0  0  0  0
   11.8678    7.7163    9.7181 O   0  0  0  0  0  0  0  0  0  0  0  0
   12.2575    7.9224    7.2719 C   0  0  1  0  0  0  0  0  0  0  0  0
   11.8024    9.2333    7.2625 O   0  0  0  0  0  0  0  0  0  0  0  0
   10.7397    6.9696    9.7952 C   0  0  1  0  0  0  0  0  0  0  0  0
    9.7468    7.5674   10.8258 C   0  0  2  0  0  0  0  0  0  0  0  0
   10.0119    7.1677   12.1392 O   0  0  0  0  0  0  0  0  0  0  0  0
    8.4391    7.1428   10.1837 C   0  0  1  0  0  0  0  0  0  0  0  0
    8.6315    7.2656    8.6655 C   0  0  2  0  0  0  0  0  0  0  0  0
    9.9951    6.8586    8.5522 O   0  0  0  0  0  0  0  0  0  0  0  0
    8.3984    8.6954    8.0688 C   0  0  0  0  0  0  0  0  0  0  0  0
    9.3820    9.5813    8.6662 O   0  0  0  0  0  0  0  0  0  0  0  0
    6.9792    5.1453   10.1666 C   0  0  2  0  0  0  0  0  0  0  0  0
    8.1742    5.7394   10.5946 O   0  0  0  0  0  0  0  0  0  0  0  0
    6.7788    3.7102   10.8222 C   0  0  1  0  0  0  0  0  0  0  0  0
    7.0200    3.5876    5.9377 N   0  0  0  0  0  0  0  0  0  0  0  0
    5.3904    3.1142   10.2445 C   0  0  1  0  0  0  0  0  0  0  0  0
    4.2774    4.0774   10.6066 O   0  0  0  0  0  0  0  0  0  0  0  0
    5.4890    2.9472    8.6355 C   0  0  2  0  0  0  0  0  0  0  0  0
    6.5512    2.0168    8.3159 O   0  0  0  0  0  0  0  0  0  0  0  0
    5.7315    4.4309    8.0032 C   0  0  1  0  0  0  0  0  0  0  0  0
    6.9645    5.0385    8.6134 O   0  0  0  0  0  0  0  0  0  0  0  0
    5.8689    4.3984    6.4408 C   0  0  0  0  0  0  0  0  0  0  0  0
    7.9633    2.8391   10.5240 N   0  0  0  0  0  0  0  0  0  0  0  0
  1  2  1  1  0  0  0
  1  3  1  0  0  0  0
  1 10  1  0  0  0  0
  3  4  1  6  0  0  0
  3  5  1  0  0  0  0
  5  6  1  1  0  0  0
  5  7  1  0  0  0  0
  7  8  1  1  0  0  0
  7  9  1  0  0  0  0
  9 10  1  0  0  0  0
  9 11  1  1  0  0  0
 11 12  1  0  0  0  0
 13 14  1  6  0  0  0
 13 15  1  0  0  0  0
 13 21  1  0  0  0  0
 16 15  1  0  0  0  0
 16 17  1  6  0  0  0
 18  2  1  1  0  0  0
 18 16  1  0  0  0  0
 19 18  1  0  0  0  0
 19 20  1  1  0  0  0
 21 19  1  0  0  0  0
 21 22  1  1  0  0  0
 23 20  1  6  0  0  0
 23 24  1  0  0  0  0
 23 28  1  0  0  0  0
 24 25  1  1  0  0  0
 24 26  1  0  0  0  0
 26 27  1  0  0  0  0
 26 32  1  6  0  0  0
 27 28  1  0  0  0  0
 27 29  1  1  0  0  0
 29 30  1  0  0  0  0
 31 32  1  1  0  0  0
 31 40  1  0  0  0  0
 33 31  1  0  0  0  0
 33 42  1  6  0  0  0
 35 33  1  0  0  0  0
 35 36  1  6  0  0  0
 37 35  1  0  0  0  0
 37 38  1  1  0  0  0
 37 39  1  0  0  0  0
 39 40  1  0  0  0  0
 39 41  1  6  0  0  0
 41 34  1  0  0  0  0
M  END
>  <CHROM.1>
-167.49557373,-66.32180461,53.15990563,-59.48023294,-166.25714467,177.24720788
62.16547847,-173.71767183,-61.18930374,10.89447382,6.29534123,9.66948272
-0.17778717,-0.37593553,-1.38655907

>  <Name>
2et4_lig

>  <RI>
0

>  <Rbt.Current_Directory>
/home/itssahil/PROJECTS/Mol_Feturizer/New_Systems/rnas/2et4

>  <Rbt.Executable>
rbdock ($Id: //depot/dev/client3/rdock/2013.1/src/exe/rbdock.cxx#4 $)

>  <Rbt.Library>
libRbt.so (2013.1, Build901 2013/11/27)

>  <Rbt.Parameter_File>
/export/apps/rDock/src/rDock_2013.1_src/data/scripts/dock_solv.prm

>  <Rbt.Receptor>
prm/pocket_docking_5.prm

>  <SCORE>
-16.6281

>  <SCORE.INTER>
-8.19971

>  <SCORE.INTER.CONST>
1

>  <SCORE.INTER.POLAR>
-0.824621

>  <SCORE.INTER.ROT>
9

>  <SCORE.INTER.SOLV>
8.91305

>  <SCORE.INTER.VDW>
-15.2888

>  <SCORE.INTER.norm>
-0.195231

>  <SCORE.INTRA>
-8.4284

>  <SCORE.INTRA.DIHEDRAL>
-19.2582

>  <SCORE.INTRA.DIHEDRAL.0>
21.6909

>  <SCORE.INTRA.POLAR>
0

>  <SCORE.INTRA.POLAR.0>
0

>  <SCORE.INTRA.REPUL>
0

>  <SCORE.INTRA.REPUL.0>
0

>  <SCORE.INTRA.SOLV>
0.680667

>  <SCORE.INTRA.SOLV.lig_0>
-116.606

>  <SCORE.INTRA.VDW>
0.860365

>  <SCORE.INTRA.VDW.0>
-6.01229

>  <SCORE.INTRA.norm>
-0.200676

>  <SCORE.RESTR>
0

>  <SCORE.RESTR.CAVITY>
0

>  <SCORE.RESTR.norm>
0

>  <SCORE.SYSTEM>
0

>  <SCORE.SYSTEM.CONST>
0

>  <SCORE.SYSTEM.DIHEDRAL>
0

>  <SCORE.SYSTEM.SOLV>
0

>  <SCORE.SYSTEM.norm>
0

>  <SCORE.heavy>
42

>  <SCORE.norm>
-0.395907

>  <RMSD>
6.456

$$$$
2et4_lig
 OpenBabel11021811423D
libRbt.so/2013.1/901 2013/11/27
 42 45  0  0  0  0  0  0  0  0999 V2000
   12.7328    3.2290    7.7525 C   0  0  2  0  0  0  0  0  0  0  0  0
   12.1148    4.2484    8.5406 O   0  0  0  0  0  0  0  0  0  0  0  0
   12.2308    1.8659    8.2934 C   0  0  2  0  0  0  0  0  0  0  0  0
   10.7934    1.7800    8.2484 N   0  0  0  0  0  0  0  0  0  0  0  0
   12.7584    1.6632    9.7432 C   0  0  1  0  0  0  0  0  0  0  0  0
   12.3193    0.4301   10.2210 O   0  0  0  0  0  0  0  0  0  0  0  0
   14.3200    1.7663    9.7144 C   0  0  2  0  0  0  0  0  0  0  0  0
   14.8427    1.5950   11.0148 O   0  0  0  0  0  0  0  0  0  0  0  0
   14.7749    3.1480    9.1540 C   0  0  2  0  0  0  0  0  0  0  0  0
   14.2182    3.3094    7.8461 O   0  0  0  0  0  0  0  0  0  0  0  0
   16.3317    3.2710    9.0719 C   0  0  0  0  0  0  0  0  0  0  0  0
   16.7458    4.5573    8.6302 N   0  0  0  0  0  0  0  0  0  0  0  0
   13.6738    7.8858    6.8103 C   0  0  2  0  0  0  0  0  0  0  0  0
   13.8414    9.3139    6.5136 N   0  0  0  0  0  0  0  0  0  0  0  0
   12.1768    7.4177    6.3953 C   0  0  0  0  0  0  0  0  0  0  0  0
   11.9970    5.8806    6.7308 C   0  0  2  0  0  0  0  0  0  0  0  0
   10.6394    5.4176    6.3928 N   0  0  0  0  0  0  0  0  0  0  0  0
   12.2663    5.6458    8.2556 C   0  0  2  0  0  0  0  0  0  0  0  0
   13.7021    6.1282    8.6474 C   0  0  2  0  0  0  0  0  0  0  0  0
   13.8442    5.8829   10.0682 O   0  0  0  0  0  0  0  0  0  0  0  0
   13.8605    7.6473    8.3176 C   0  0  1  0  0  0  0  0  0  0  0  0
   15.1452    8.0428    8.6619 O   0  0  0  0  0  0  0  0  0  0  0  0
   12.9449    5.2344   10.8473 C   0  0  1  0  0  0  0  0  0  0  0  0
   13.5051    5.0129   12.2765 C   0  0  2  0  0  0  0  0  0  0  0  0
   14.3065    3.8719   12.3811 O   0  0  0  0  0  0  0  0  0  0  0  0
   12.2076    5.0679   13.0615 C   0  0  1  0  0  0  0  0  0  0  0  0
   11.3317    6.1372   12.3935 C   0  0  2  0  0  0  0  0  0  0  0  0
   11.6799    5.9272   11.0251 O   0  0  0  0  0  0  0  0  0  0  0  0
   11.6048    7.6124   12.8448 C   0  0  0  0  0  0  0  0  0  0  0  0
   11.3600    7.6818   14.2746 O   0  0  0  0  0  0  0  0  0  0  0  0
   10.2916    3.5679   13.5089 C   0  0  2  0  0  0  0  0  0  0  0  0
   11.5845    3.7206   12.9900 O   0  0  0  0  0  0  0  0  0  0  0  0
   10.2239    4.0117   15.0347 C   0  0  1  0  0  0  0  0  0  0  0  0
    8.2780   -0.1997   12.2078 N   0  0  0  0  0  0  0  0  0  0  0  0
    8.7028    3.7736   15.5311 C   0  0  1  0  0  0  0  0  0  0  0  0
    7.7850    4.5946   14.6474 O   0  0  0  0  0  0  0  0  0  0  0  0
    8.3278    2.2006   15.4248 C   0  0  2  0  0  0  0  0  0  0  0  0
    9.2108    1.4398   16.2836 O   0  0  0  0  0  0  0  0  0  0  0  0
    8.4446    1.7745   13.8549 C   0  0  1  0  0  0  0  0  0  0  0  0
    9.8268    2.0901   13.3531 O   0  0  0  0  0  0  0  0  0  0  0  0
    8.1261    0.2558   13.6237 C   0  0  0  0  0  0  0  0  0  0  0  0
   11.2327    3.2451   15.8381 N   0  0  0  0  0  0  0  0  0  0  0  0
  1  2  1  1  0  0  0
  1  3  1  0  0  0  0
  1 10  1  0  0  0  0
  3  4  1  1  0  0  0
  3  5  1  0  0  0  0
  5  6  1  6  0  0  0
  5  7  1  0  0  0  0
  7  8  1  1  0  0  0
  7  9  1  0  0  0  0
  9 10  1  0  0  0  0
  9 11  1  6  0  0  0
 11 12  1  0  0  0  0
 13 14  1  1  0  0  0
 13 15  1  0  0  0  0
 13 21  1  0  0  0  0
 16 15  1  0  0  0  0
 16 17  1  1  0  0  0
 18  2  1  6  0  0  0
 18 16  1  0  0  0  0
 19 18  1  0  0  0  0
 19 20  1  1  0  0  0
 21 19  1  0  0  0  0
 21 22  1  6  0  0  0
 23 20  1  6  0  0  0
 23 24  1  0  0  0  0
 23 28  1  0  0  0  0
 24 25  1  6  0  0  0
 24 26  1  0  0  0  0
 26 27  1  0  0  0  0
 26 32  1  6  0  0  0
 27 28  1  0  0  0  0
 27 29  1  1  0  0  0
 29 30  1  0  0  0  0
 31 32  1  1  0  0  0
 31 40  1  0  0  0  0
 33 31  1  0  0  0  0
 33 42  1  1  0  0  0
 35 33  1  0  0  0  0
 35 36  1  6  0  0  0
 37 35  1  0  0  0  0
 37 38  1  1  0  0  0
 37 39  1  0  0  0  0
 39 40  1  0  0  0  0
 39 41  1  1  0  0  0
 41 34  1  0  0  0  0
M  END
>  <CHROM.1>
-174.93976977,-176.77236861,48.40864027,6.12193039,173.31357093,-172.47978734
-60.20249423,-56.73489518,-177.43755794,12.06121452,4.20865553,10.90269093
-0.25200497,-1.01184064,-2.96119276

>  <Name>
2et4_lig

>  <RI>
0

>  <Rbt.Current_Directory>
/home/itssahil/PROJECTS/Mol_Feturizer/New_Systems/rnas/2et4

>  <Rbt.Executable>
rbdock ($Id: //depot/dev/client3/rdock/2013.1/src/exe/rbdock.cxx#4 $)

>  <Rbt.Library>
libRbt.so (2013.1, Build901 2013/11/27)

>  <Rbt.Parameter_File>
/export/apps/rDock/src/rDock_2013.1_src/data/scripts/dock_solv.prm

>  <Rbt.Receptor>
prm/pocket_docking_6.prm

>  <SCORE>
-8.08868

>  <SCORE.INTER>
-3.83881

>  <SCORE.INTER.CONST>
1

>  <SCORE.INTER.POLAR>
-0.978867

>  <SCORE.INTER.ROT>
9

>  <SCORE.INTER.SOLV>
14.544

>  <SCORE.INTER.VDW>
-13.7443

>  <SCORE.INTER.norm>
-0.0914003

>  <SCORE.INTRA>
-4.25551

>  <SCORE.INTRA.DIHEDRAL>
-13.1267

>  <SCORE.INTRA.DIHEDRAL.0>
21.6909

>  <SCORE.INTRA.POLAR>
0

>  <SCORE.INTRA.POLAR.0>
0

>  <SCORE.INTRA.REPUL>
0

>  <SCORE.INTRA.REPUL.0>
0

>  <SCORE.INTRA.SOLV>
-0.567543

>  <SCORE.INTRA.SOLV.lig_0>
-116.606

>  <SCORE.INTRA.VDW>
2.59163

>  <SCORE.INTRA.VDW.0>
-6.01229

>  <SCORE.INTRA.norm>
-0.101322

>  <SCORE.RESTR>
0.00564152

>  <SCORE.RESTR.CAVITY>
0.00564152

>  <SCORE.RESTR.norm>
0.000134322

>  <SCORE.SYSTEM>
0

>  <SCORE.SYSTEM.CONST>
0

>  <SCORE.SYSTEM.DIHEDRAL>
0

>  <SCORE.SYSTEM.SOLV>
0

>  <SCORE.SYSTEM.norm>
0

>  <SCORE.heavy>
42

>  <SCORE.norm>
-0.192588

>  <RMSD>
6.475

$$$$
2et4_lig
 OpenBabel11021811423D
libRbt.so/2013.1/901 2013/11/27
 42 45  0  0  0  0  0  0  0  0999 V2000
   16.9277   12.4268    3.2842 C   0  0  2  0  0  0  0  0  0  0  0  0
   15.6672   12.7413    2.6888 O   0  0  0  0  0  0  0  0  0  0  0  0
   17.7923   13.7122    3.2296 C   0  0  2  0  0  0  0  0  0  0  0  0
   17.1431   14.8106    3.8987 N   0  0  0  0  0  0  0  0  0  0  0  0
   18.0974   14.0629    1.7447 C   0  0  1  0  0  0  0  0  0  0  0  0
   18.8882   15.2094    1.6991 O   0  0  0  0  0  0  0  0  0  0  0  0
   18.8014   12.8301    1.0855 C   0  0  2  0  0  0  0  0  0  0  0  0
   19.0911   13.1025   -0.2693 O   0  0  0  0  0  0  0  0  0  0  0  0
   17.8989   11.5622    1.1746 C   0  0  2  0  0  0  0  0  0  0  0  0
   17.6011   11.3167    2.5522 O   0  0  0  0  0  0  0  0  0  0  0  0
   18.5884   10.2994    0.5619 C   0  0  0  0  0  0  0  0  0  0  0  0
   19.3987   10.6219   -0.5608 N   0  0  0  0  0  0  0  0  0  0  0  0
   12.2159   10.3070    1.7848 C   0  0  2  0  0  0  0  0  0  0  0  0
   11.3672    9.2980    1.1387 N   0  0  0  0  0  0  0  0  0  0  0  0
   12.6975   11.3965    0.6832 C   0  0  0  0  0  0  0  0  0  0  0  0
   13.6239   12.4736    1.3825 C   0  0  2  0  0  0  0  0  0  0  0  0
   14.1064   13.4712    0.4111 N   0  0  0  0  0  0  0  0  0  0  0  0
   14.8466   11.7554    2.0472 C   0  0  2  0  0  0  0  0  0  0  0  0
   14.3672   10.6878    3.0855 C   0  0  2  0  0  0  0  0  0  0  0  0
   15.5634   10.0759    3.6275 O   0  0  0  0  0  0  0  0  0  0  0  0
   13.4613    9.6289    2.3787 C   0  0  1  0  0  0  0  0  0  0  0  0
   13.0406    8.7049    3.3247 O   0  0  0  0  0  0  0  0  0  0  0  0
   15.6995    9.5991    4.8886 C   0  0  1  0  0  0  0  0  0  0  0  0
   14.5434    8.6282    5.2436 C   0  0  2  0  0  0  0  0  0  0  0  0
   13.3945    9.2845    5.6956 O   0  0  0  0  0  0  0  0  0  0  0  0
   15.2798    7.7058    6.1974 C   0  0  1  0  0  0  0  0  0  0  0  0
   16.7025    7.5421    5.6442 C   0  0  2  0  0  0  0  0  0  0  0  0
   16.9244    8.8556    5.1311 O   0  0  0  0  0  0  0  0  0  0  0  0
   16.8748    6.4470    4.5371 C   0  0  0  0  0  0  0  0  0  0  0  0
   17.0592    7.1342    3.2710 O   0  0  0  0  0  0  0  0  0  0  0  0
   14.7388    7.6349    8.6106 C   0  0  2  0  0  0  0  0  0  0  0  0
   15.2790    8.3530    7.5352 O   0  0  0  0  0  0  0  0  0  0  0  0
   13.7665    8.5425    9.4827 C   0  0  1  0  0  0  0  0  0  0  0  0
   16.4155    4.7799   12.5737 N   0  0  0  0  0  0  0  0  0  0  0  0
   13.2232    7.6239   10.6983 C   0  0  1  0  0  0  0  0  0  0  0  0
   12.5156    6.4235   10.1019 O   0  0  0  0  0  0  0  0  0  0  0  0
   14.4638    7.1436   11.6238 C   0  0  2  0  0  0  0  0  0  0  0  0
   15.1166    8.3059   12.1887 O   0  0  0  0  0  0  0  0  0  0  0  0
   15.4556    6.2494   10.6876 C   0  0  1  0  0  0  0  0  0  0  0  0
   15.8836    7.0608    9.4958 O   0  0  0  0  0  0  0  0  0  0  0  0
   16.7174    5.7420   11.4697 C   0  0  0  0  0  0  0  0  0  0  0  0
   14.4912    9.7702    9.9502 N   0  0  0  0  0  0  0  0  0  0  0  0
  1  2  1  6  0  0  0
  1  3  1  0  0  0  0
  1 10  1  0  0  0  0
  3  4  1  6  0  0  0
  3  5  1  0  0  0  0
  5  6  1  1  0  0  0
  5  7  1  0  0  0  0
  7  8  1  6  0  0  0
  7  9  1  0  0  0  0
  9 10  1  0  0  0  0
  9 11  1  1  0  0  0
 11 12  1  0  0  0  0
 13 14  1  6  0  0  0
 13 15  1  0  0  0  0
 13 21  1  0  0  0  0
 16 15  1  0  0  0  0
 16 17  1  6  0  0  0
 18  2  1  1  0  0  0
 18 16  1  0  0  0  0
 19 18  1  0  0  0  0
 19 20  1  6  0  0  0
 21 19  1  0  0  0  0
 21 22  1  1  0  0  0
 23 20  1  6  0  0  0
 23 24  1  0  0  0  0
 23 28  1  0  0  0  0
 24 25  1  1  0  0  0
 24 26  1  0  0  0  0
 26 27  1  0  0  0  0
 26 32  1  1  0  0  0
 27 28  1  0  0  0  0
 27 29  1  6  0  0  0
 29 30  1  0  0  0  0
 31 32  1  6  0  0  0
 31 40  1  0  0  0  0
 33 31  1  0  0  0  0
 33 42  1  1  0  0  0
 35 33  1  0  0  0  0
 35 36  1  6  0  0  0
 37 35  1  0  0  0  0
 37 38  1  6  0  0  0
 37 39  1  0  0  0  0
 39 40  1  0  0  0  0
 39 41  1  1  0  0  0
 41 34  1  0  0  0  0
M  END
>  <CHROM.1>
152.62020515,-34.89423514,-174.09878763,147.99057801,51.53311147,123.55825796
107.04719788,-134.03215901,65.34800514,15.63080758,9.83102656,4.91338870
-1.38716913,0.30348515,2.05565872

>  <Name>
2et4_lig

>  <RI>
0

>  <Rbt.Current_Directory>
/home/itssahil/PROJECTS/Mol_Feturizer/New_Systems/rnas/2et4

>  <Rbt.Executable>
rbdock ($Id: //depot/dev/client3/rdock/2013.1/src/exe/rbdock.cxx#4 $)

>  <Rbt.Library>
libRbt.so (2013.1, Build901 2013/11/27)

>  <Rbt.Parameter_File>
/export/apps/rDock/src/rDock_2013.1_src/data/scripts/dock_solv.prm

>  <Rbt.Receptor>
prm/blind_docking_80.prm

>  <SCORE>
25.8924

>  <SCORE.INTER>
-1.69386

>  <SCORE.INTER.CONST>
1

>  <SCORE.INTER.POLAR>
-0.888547

>  <SCORE.INTER.ROT>
9

>  <SCORE.INTER.SOLV>
45.7287

>  <SCORE.INTER.VDW>
-23.0103

>  <SCORE.INTER.norm>
-0.0403301

>  <SCORE.INTRA>
8.92171

>  <SCORE.INTRA.DIHEDRAL>
5.9584

>  <SCORE.INTRA.DIHEDRAL.0>
21.6909

>  <SCORE.INTRA.POLAR>
0

>  <SCORE.INTRA.POLAR.0>
0

>  <SCORE.INTRA.REPUL>
0.112286

>  <SCORE.INTRA.REPUL.0>
0

>  <SCORE.INTRA.SOLV>
-1.94244

>  <SCORE.INTRA.SOLV.lig_0>
-116.606

>  <SCORE.INTRA.VDW>
6.3523

>  <SCORE.INTRA.VDW.0>
-6.01229

>  <SCORE.INTRA.norm>
0.212422

>  <SCORE.RESTR>
18.6645

>  <SCORE.RESTR.CAVITY>
18.6645

>  <SCORE.RESTR.norm>
0.444393

>  <SCORE.SYSTEM>
0

>  <SCORE.SYSTEM.CONST>
0

>  <SCORE.SYSTEM.DIHEDRAL>
0

>  <SCORE.SYSTEM.SOLV>
0

>  <SCORE.SYSTEM.norm>
0

>  <SCORE.heavy>
42

>  <SCORE.norm>
0.616485

>  <RMSD>
6.533

$$$$
2et4_lig
 OpenBabel11021811423D
libRbt.so/2013.1/901 2013/11/27
 42 45  0  0  0  0  0  0  0  0999 V2000
   15.4515    5.2375    9.7673 C   0  0  2  0  0  0  0  0  0  0  0  0
   15.6110    5.3046    8.3487 O   0  0  0  0  0  0  0  0  0  0  0  0
   16.7063    4.5264   10.3351 C   0  0  2  0  0  0  0  0  0  0  0  0
   17.9147    5.2176    9.9642 N   0  0  0  0  0  0  0  0  0  0  0  0
   16.7298    3.0521    9.8381 C   0  0  1  0  0  0  0  0  0  0  0  0
   17.8500    2.4107   10.3631 O   0  0  0  0  0  0  0  0  0  0  0  0
   15.3932    2.3663   10.2775 C   0  0  2  0  0  0  0  0  0  0  0  0
   15.3684    1.0242    9.8396 O   0  0  0  0  0  0  0  0  0  0  0  0
   14.1624    3.1224    9.6915 C   0  0  2  0  0  0  0  0  0  0  0  0
   14.2184    4.4830   10.1302 O   0  0  0  0  0  0  0  0  0  0  0  0
   12.8065    2.4887   10.1444 C   0  0  0  0  0  0  0  0  0  0  0  0
   11.6893    3.1105    9.5228 N   0  0  0  0  0  0  0  0  0  0  0  0
   14.1212    7.8853    5.2222 C   0  0  2  0  0  0  0  0  0  0  0  0
   13.1794    8.5935    4.3463 N   0  0  0  0  0  0  0  0  0  0  0  0
   13.9121    6.2844    5.0618 C   0  0  0  0  0  0  0  0  0  0  0  0
   14.9201    5.5262    6.0192 C   0  0  2  0  0  0  0  0  0  0  0  0
   14.7470    4.0658    5.9248 N   0  0  0  0  0  0  0  0  0  0  0  0
   14.6814    5.9877    7.4966 C   0  0  2  0  0  0  0  0  0  0  0  0
   14.8578    7.5365    7.6307 C   0  0  2  0  0  0  0  0  0  0  0  0
   14.6033    7.8601    9.0198 O   0  0  0  0  0  0  0  0  0  0  0  0
   13.8515    8.2694    6.6863 C   0  0  1  0  0  0  0  0  0  0  0  0
   14.0402    9.6380    6.8159 O   0  0  0  0  0  0  0  0  0  0  0  0
   13.3839    7.8832    9.6104 C   0  0  1  0  0  0  0  0  0  0  0  0
   13.5152    7.9286   11.1551 C   0  0  2  0  0  0  0  0  0  0  0  0
   13.6866    6.6651   11.7288 O   0  0  0  0  0  0  0  0  0  0  0  0
   12.2613    8.7166   11.4863 C   0  0  1  0  0  0  0  0  0  0  0  0
   12.0950    9.7684   10.3805 C   0  0  2  0  0  0  0  0  0  0  0  0
   12.5546    9.0220    9.2538 O   0  0  0  0  0  0  0  0  0  0  0  0
   12.9130   11.0901   10.5771 C   0  0  0  0  0  0  0  0  0  0  0  0
   14.3202   10.7317   10.5948 O   0  0  0  0  0  0  0  0  0  0  0  0
    9.9242    8.1819   12.0973 C   0  0  2  0  0  0  0  0  0  0  0  0
   11.1253    7.7588   11.5122 O   0  0  0  0  0  0  0  0  0  0  0  0
    8.7051    7.2666   11.6437 C   0  0  1  0  0  0  0  0  0  0  0  0
    9.5219   12.5671   11.9858 N   0  0  0  0  0  0  0  0  0  0  0  0
    7.3781    7.8563   12.3564 C   0  0  1  0  0  0  0  0  0  0  0  0
    7.5970    7.8286   13.8560 O   0  0  0  0  0  0  0  0  0  0  0  0
    7.1104    9.3738   11.8544 C   0  0  2  0  0  0  0  0  0  0  0  0
    6.8953    9.3725   10.4227 O   0  0  0  0  0  0  0  0  0  0  0  0
    8.3955   10.2719   12.3037 C   0  0  1  0  0  0  0  0  0  0  0  0
    9.6498    9.6703   11.7321 O   0  0  0  0  0  0  0  0  0  0  0  0
    8.2655   11.7681   11.8500 C   0  0  0  0  0  0  0  0  0  0  0  0
    8.6091    7.2435   10.1467 N   0  0  0  0  0  0  0  0  0  0  0  0
  1  2  1  6  0  0  0
  1  3  1  0  0  0  0
  1 10  1  0  0  0  0
  3  4  1  6  0  0  0
  3  5  1  0  0  0  0
  5  6  1  1  0  0  0
  5  7  1  0  0  0  0
  7  8  1  6  0  0  0
  7  9  1  0  0  0  0
  9 10  1  0  0  0  0
  9 11  1  1  0  0  0
 11 12  1  0  0  0  0
 13 14  1  6  0  0  0
 13 15  1  0  0  0  0
 13 21  1  0  0  0  0
 16 15  1  0  0  0  0
 16 17  1  1  0  0  0
 18  2  1  1  0  0  0
 18 16  1  0  0  0  0
 19 18  1  0  0  0  0
 19 20  1  1  0  0  0
 21 19  1  0  0  0  0
 21 22  1  6  0  0  0
 23 20  1  6  0  0  0
 23 24  1  0  0  0  0
 23 28  1  0  0  0  0
 24 25  1  1  0  0  0
 24 26  1  0  0  0  0
 26 27  1  0  0  0  0
 26 32  1  6  0  0  0
 27 28  1  0  0  0  0
 27 29  1  1  0  0  0
 29 30  1  0  0  0  0
 31 32  1  6  0  0  0
 31 40  1  0  0  0  0
 33 31  1  0  0  0  0
 33 42  1  6  0  0  0
 35 33  1  0  0  0  0
 35 36  1  1  0  0  0
 37 35  1  0  0  0  0
 37 38  1  6  0  0  0
 37 39  1  0  0  0  0
 39 40  1  0  0  0  0
 39 41  1  6  0  0  0
 41 34  1  0  0  0  0
M  END
>  <CHROM.1>
-175.35085056,-175.18636217,-163.96282805,-74.29827003,166.23337721,165.31186384
61.42977615,161.69390325,-168.17056331,12.73522549,7.02889933,9.76003764
0.33721555,-0.68470365,2.57942095

>  <Name>
2et4_lig

>  <RI>
0

>  <Rbt.Current_Directory>
/home/itssahil/PROJECTS/Mol_Feturizer/New_Systems/rnas/2et4

>  <Rbt.Executable>
rbdock ($Id: //depot/dev/client3/rdock/2013.1/src/exe/rbdock.cxx#4 $)

>  <Rbt.Library>
libRbt.so (2013.1, Build901 2013/11/27)

>  <Rbt.Parameter_File>
/export/apps/rDock/src/rDock_2013.1_src/data/scripts/dock_solv.prm

>  <Rbt.Receptor>
prm/pocket_docking_6.prm

>  <SCORE>
-17.2955

>  <SCORE.INTER>
-9.64176

>  <SCORE.INTER.CONST>
1

>  <SCORE.INTER.POLAR>
-1.15238

>  <SCORE.INTER.ROT>
9

>  <SCORE.INTER.SOLV>
14.1287

>  <SCORE.INTER.VDW>
-16.8961

>  <SCORE.INTER.norm>
-0.229566

>  <SCORE.INTRA>
-7.65377

>  <SCORE.INTRA.DIHEDRAL>
-15.2623

>  <SCORE.INTRA.DIHEDRAL.0>
21.6909

>  <SCORE.INTRA.POLAR>
0

>  <SCORE.INTRA.POLAR.0>
0

>  <SCORE.INTRA.REPUL>
0.00141701

>  <SCORE.INTRA.REPUL.0>
0

>  <SCORE.INTRA.SOLV>
-2.17628

>  <SCORE.INTRA.SOLV.lig_0>
-116.606

>  <SCORE.INTRA.VDW>
1.05846

>  <SCORE.INTRA.VDW.0>
-6.01229

>  <SCORE.INTRA.norm>
-0.182233

>  <SCORE.RESTR>
0

>  <SCORE.RESTR.CAVITY>
0

>  <SCORE.RESTR.norm>
0

>  <SCORE.SYSTEM>
0

>  <SCORE.SYSTEM.CONST>
0

>  <SCORE.SYSTEM.DIHEDRAL>
0

>  <SCORE.SYSTEM.SOLV>
0

>  <SCORE.SYSTEM.norm>
0

>  <SCORE.heavy>
42

>  <SCORE.norm>
-0.411798

>  <RMSD>
6.535

$$$$
2et4_lig
 OpenBabel11021811423D
libRbt.so/2013.1/901 2013/11/27
 42 45  0  0  0  0  0  0  0  0999 V2000
   16.1039   12.6758    1.4328 C   0  0  2  0  0  0  0  0  0  0  0  0
   15.8431   11.5912    2.3260 O   0  0  0  0  0  0  0  0  0  0  0  0
   17.3038   12.2581    0.5448 C   0  0  2  0  0  0  0  0  0  0  0  0
   17.0314   11.0340   -0.1644 N   0  0  0  0  0  0  0  0  0  0  0  0
   18.5751   12.1204    1.4314 C   0  0  1  0  0  0  0  0  0  0  0  0
   19.6555   11.7607    0.6282 O   0  0  0  0  0  0  0  0  0  0  0  0
   18.8093   13.4826    2.1658 C   0  0  2  0  0  0  0  0  0  0  0  0
   19.9528   13.4004    2.9900 O   0  0  0  0  0  0  0  0  0  0  0  0
   17.5734   13.8640    3.0358 C   0  0  2  0  0  0  0  0  0  0  0  0
   16.4241   13.9216    2.1857 O   0  0  0  0  0  0  0  0  0  0  0  0
   17.7554   15.2418    3.7528 C   0  0  0  0  0  0  0  0  0  0  0  0
   18.5639   16.1361    2.9994 N   0  0  0  0  0  0  0  0  0  0  0  0
   11.9411    9.8347    2.9121 C   0  0  2  0  0  0  0  0  0  0  0  0
   10.7949    8.9304    2.7562 N   0  0  0  0  0  0  0  0  0  0  0  0
   12.2484   10.5695    1.4987 C   0  0  0  0  0  0  0  0  0  0  0  0
   13.4940   11.5322    1.6691 C   0  0  2  0  0  0  0  0  0  0  0  0
   13.8255   12.2031    0.3995 N   0  0  0  0  0  0  0  0  0  0  0  0
   14.7284   10.7039    2.1618 C   0  0  2  0  0  0  0  0  0  0  0  0
   14.4083    9.9777    3.5102 C   0  0  2  0  0  0  0  0  0  0  0  0
   15.5988    9.2340    3.8688 O   0  0  0  0  0  0  0  0  0  0  0  0
   13.1828    9.0266    3.3232 C   0  0  1  0  0  0  0  0  0  0  0  0
   12.9140    8.4082    4.5361 O   0  0  0  0  0  0  0  0  0  0  0  0
   15.8948    8.7758    5.1093 C   0  0  1  0  0  0  0  0  0  0  0  0
   15.2126    7.4084    5.3742 C   0  0  2  0  0  0  0  0  0  0  0  0
   13.8915    7.5304    5.8157 O   0  0  0  0  0  0  0  0  0  0  0  0
   16.2405    6.7965    6.3079 C   0  0  1  0  0  0  0  0  0  0  0  0
   17.6194    7.2404    5.7994 C   0  0  2  0  0  0  0  0  0  0  0  0
   17.3104    8.5628    5.3595 O   0  0  0  0  0  0  0  0  0  0  0  0
   18.2266    6.3696    4.6471 C   0  0  0  0  0  0  0  0  0  0  0  0
   17.3220    6.4561    3.5142 O   0  0  0  0  0  0  0  0  0  0  0  0
   16.6409    6.7147    8.7480 C   0  0  2  0  0  0  0  0  0  0  0  0
   15.9648    7.3106    7.6748 O   0  0  0  0  0  0  0  0  0  0  0  0
   16.8932    5.1664    8.4855 C   0  0  1  0  0  0  0  0  0  0  0  0
   14.1444    6.0509   12.4339 N   0  0  0  0  0  0  0  0  0  0  0  0
   17.6539    4.5821    9.7881 C   0  0  1  0  0  0  0  0  0  0  0  0
   18.9440    5.3572    9.9674 O   0  0  0  0  0  0  0  0  0  0  0  0
   16.7121    4.7460   11.0967 C   0  0  2  0  0  0  0  0  0  0  0  0
   15.4922    3.9901   10.9052 O   0  0  0  0  0  0  0  0  0  0  0  0
   16.4452    6.3406   11.3111 C   0  0  1  0  0  0  0  0  0  0  0  0
   15.8335    6.9169   10.0638 O   0  0  0  0  0  0  0  0  0  0  0  0
   15.5186    6.6299   12.5435 C   0  0  0  0  0  0  0  0  0  0  0  0
   15.5923    4.4745    8.2031 N   0  0  0  0  0  0  0  0  0  0  0  0
  1  2  1  1  0  0  0
  1  3  1  0  0  0  0
  1 10  1  0  0  0  0
  3  4  1  1  0  0  0
  3  5  1  0  0  0  0
  5  6  1  6  0  0  0
  5  7  1  0  0  0  0
  7  8  1  1  0  0  0
  7  9  1  0  0  0  0
  9 10  1  0  0  0  0
  9 11  1  6  0  0  0
 11 12  1  0  0  0  0
 13 14  1  6  0  0  0
 13 15  1  0  0  0  0
 13 21  1  0  0  0  0
 16 15  1  0  0  0  0
 16 17  1  6  0  0  0
 18  2  1  1  0  0  0
 18 16  1  0  0  0  0
 19 18  1  0  0  0  0
 19 20  1  6  0  0  0
 21 19  1  0  0  0  0
 21 22  1  1  0  0  0
 23 20  1  6  0  0  0
 23 24  1  0  0  0  0
 23 28  1  0  0  0  0
 24 25  1  1  0  0  0
 24 26  1  0  0  0  0
 26 27  1  0  0  0  0
 26 32  1  1  0  0  0
 27 28  1  0  0  0  0
 27 29  1  6  0  0  0
 29 30  1  0  0  0  0
 31 32  1  6  0  0  0
 31 40  1  0  0  0  0
 33 31  1  0  0  0  0
 33 42  1  1  0  0  0
 35 33  1  0  0  0  0
 35 36  1  1  0  0  0
 37 35  1  0  0  0  0
 37 38  1  6  0  0  0
 37 39  1  0  0  0  0
 39 40  1  0  0  0  0
 39 41  1  1  0  0  0
 41 34  1  0  0  0  0
M  END
>  <CHROM.1>
-105.15295088,30.82079328,-38.03952426,160.54824641,84.38779630,169.47312491
61.35036438,-33.27972371,-62.00075672,16.07517779,9.16013345,5.09079226,1.52982887
-0.38628932,-0.87606289

>  <Name>
2et4_lig

>  <RI>
0

>  <Rbt.Current_Directory>
/home/itssahil/PROJECTS/Mol_Feturizer/New_Systems/rnas/2et4

>  <Rbt.Executable>
rbdock ($Id: //depot/dev/client3/rdock/2013.1/src/exe/rbdock.cxx#4 $)

>  <Rbt.Library>
libRbt.so (2013.1, Build901 2013/11/27)

>  <Rbt.Parameter_File>
/export/apps/rDock/src/rDock_2013.1_src/data/scripts/dock_solv.prm

>  <Rbt.Receptor>
prm/blind_docking_80.prm

>  <SCORE>
31.0028

>  <SCORE.INTER>
-4.01743

>  <SCORE.INTER.CONST>
1

>  <SCORE.INTER.POLAR>
-0.396272

>  <SCORE.INTER.ROT>
9

>  <SCORE.INTER.SOLV>
27.4037

>  <SCORE.INTER.VDW>
-20.0919

>  <SCORE.INTER.norm>
-0.0956531

>  <SCORE.INTRA>
21.6126

>  <SCORE.INTRA.DIHEDRAL>
-2.92035

>  <SCORE.INTRA.DIHEDRAL.0>
21.6909

>  <SCORE.INTRA.POLAR>
0

>  <SCORE.INTRA.POLAR.0>
0

>  <SCORE.INTRA.REPUL>
0

>  <SCORE.INTRA.REPUL.0>
0

>  <SCORE.INTRA.SOLV>
3.97993

>  <SCORE.INTRA.SOLV.lig_0>
-116.606

>  <SCORE.INTRA.VDW>
21.0828

>  <SCORE.INTRA.VDW.0>
-6.01229

>  <SCORE.INTRA.norm>
0.514586

>  <SCORE.RESTR>
13.4076

>  <SCORE.RESTR.CAVITY>
13.4076

>  <SCORE.RESTR.norm>
0.319228

>  <SCORE.SYSTEM>
0

>  <SCORE.SYSTEM.CONST>
0

>  <SCORE.SYSTEM.DIHEDRAL>
0

>  <SCORE.SYSTEM.SOLV>
0

>  <SCORE.SYSTEM.norm>
0

>  <SCORE.heavy>
42

>  <SCORE.norm>
0.738161

>  <RMSD>
6.586

$$$$
2et4_lig
 OpenBabel11021811423D
libRbt.so/2013.1/901 2013/11/27
 42 45  0  0  0  0  0  0  0  0999 V2000
   16.3442   11.2943    3.0408 C   0  0  2  0  0  0  0  0  0  0  0  0
   15.1816   11.3523    2.2120 O   0  0  0  0  0  0  0  0  0  0  0  0
   16.5295   12.6999    3.6673 C   0  0  2  0  0  0  0  0  0  0  0  0
   15.3621   13.1021    4.4097 N   0  0  0  0  0  0  0  0  0  0  0  0
   16.8578   13.7239    2.5427 C   0  0  1  0  0  0  0  0  0  0  0  0
   17.0398   14.9834    3.1105 O   0  0  0  0  0  0  0  0  0  0  0  0
   18.1328   13.2253    1.7840 C   0  0  2  0  0  0  0  0  0  0  0  0
   18.4639   14.1240    0.7465 O   0  0  0  0  0  0  0  0  0  0  0  0
   17.9013   11.8062    1.1821 C   0  0  2  0  0  0  0  0  0  0  0  0
   17.5475   10.9175    2.2460 O   0  0  0  0  0  0  0  0  0  0  0  0
   19.1703   11.2579    0.4511 C   0  0  0  0  0  0  0  0  0  0  0  0
   18.8921   10.0819   -0.2978 N   0  0  0  0  0  0  0  0  0  0  0  0
   11.7619    8.9918    3.3904 C   0  0  2  0  0  0  0  0  0  0  0  0
   10.7455    7.9322    3.3841 N   0  0  0  0  0  0  0  0  0  0  0  0
   11.6726    9.8372    2.0084 C   0  0  0  0  0  0  0  0  0  0  0  0
   12.7800   10.9689    2.0145 C   0  0  2  0  0  0  0  0  0  0  0  0
   12.7520   11.7473    0.7635 N   0  0  0  0  0  0  0  0  0  0  0  0
   14.1916   10.3147    2.1930 C   0  0  2  0  0  0  0  0  0  0  0  0
   14.2542    9.4793    3.5144 C   0  0  2  0  0  0  0  0  0  0  0  0
   15.5846    8.9089    3.5771 O   0  0  0  0  0  0  0  0  0  0  0  0
   13.1613    8.3629    3.4893 C   0  0  1  0  0  0  0  0  0  0  0  0
   13.2313    7.6489    4.6771 O   0  0  0  0  0  0  0  0  0  0  0  0
   16.2605    8.6151    4.7142 C   0  0  1  0  0  0  0  0  0  0  0  0
   15.4516    7.6360    5.6045 C   0  0  2  0  0  0  0  0  0  0  0  0
   14.5136    8.2803    6.4170 O   0  0  0  0  0  0  0  0  0  0  0  0
   16.6004    6.8945    6.2627 C   0  0  1  0  0  0  0  0  0  0  0  0
   17.6950    6.7398    5.1974 C   0  0  2  0  0  0  0  0  0  0  0  0
   17.5528    7.9827    4.5099 O   0  0  0  0  0  0  0  0  0  0  0  0
   17.5295    5.5171    4.2318 C   0  0  0  0  0  0  0  0  0  0  0  0
   18.7880    5.3463    3.5275 O   0  0  0  0  0  0  0  0  0  0  0  0
   17.4626    7.0455    8.5768 C   0  0  2  0  0  0  0  0  0  0  0  0
   17.0616    7.7150    7.4127 O   0  0  0  0  0  0  0  0  0  0  0  0
   18.1432    5.6489    8.2362 C   0  0  1  0  0  0  0  0  0  0  0  0
   14.4442    4.7404   11.4280 N   0  0  0  0  0  0  0  0  0  0  0  0
   18.5426    4.9598    9.6441 C   0  0  1  0  0  0  0  0  0  0  0  0
   19.4799    5.8976   10.3785 O   0  0  0  0  0  0  0  0  0  0  0  0
   17.2090    4.6928   10.5254 C   0  0  2  0  0  0  0  0  0  0  0  0
   16.3353    3.7883    9.8080 O   0  0  0  0  0  0  0  0  0  0  0  0
   16.5201    6.1410   10.8220 C   0  0  1  0  0  0  0  0  0  0  0  0
   16.2405    6.8375    9.5187 O   0  0  0  0  0  0  0  0  0  0  0  0
   15.1963    6.0127   11.6541 C   0  0  0  0  0  0  0  0  0  0  0  0
   17.2107    4.8100    7.4130 N   0  0  0  0  0  0  0  0  0  0  0  0
  1  2  1  6  0  0  0
  1  3  1  0  0  0  0
  1 10  1  0  0  0  0
  3  4  1  6  0  0  0
  3  5  1  0  0  0  0
  5  6  1  1  0  0  0
  5  7  1  0  0  0  0
  7  8  1  6  0  0  0
  7  9  1  0  0  0  0
  9 10  1  0  0  0  0
  9 11  1  1  0  0  0
 11 12  1  0  0  0  0
 13 14  1  6  0  0  0
 13 15  1  0  0  0  0
 13 21  1  0  0  0  0
 16 15  1  0  0  0  0
 16 17  1  6  0  0  0
 18  2  1  1  0  0  0
 18 16  1  0  0  0  0
 19 18  1  0  0  0  0
 19 20  1  6  0  0  0
 21 19  1  0  0  0  0
 21 22  1  1  0  0  0
 23 20  1  6  0  0  0
 23 24  1  0  0  0  0
 23 28  1  0  0  0  0
 24 25  1  1  0  0  0
 24 26  1  0  0  0  0
 26 27  1  0  0  0  0
 26 32  1  1  0  0  0
 27 28  1  0  0  0  0
 27 29  1  6  0  0  0
 29 30  1  0  0  0  0
 31 32  1  6  0  0  0
 31 40  1  0  0  0  0
 33 31  1  0  0  0  0
 33 42  1  1  0  0  0
 35 33  1  0  0  0  0
 35 36  1  1  0  0  0
 37 35  1  0  0  0  0
 37 38  1  6  0  0  0
 37 39  1  0  0  0  0
 39 40  1  0  0  0  0
 39 41  1  6  0  0  0
 41 34  1  0  0  0  0
M  END
>  <CHROM.1>
-136.63337867,-169.46044768,143.76660501,150.50252104,57.09009102,142.59582508
-166.51958521,33.30537357,-30.15509317,16.11646256,8.75827975,5.00788806
-1.64619965,0.11610458,2.28569279

>  <Name>
2et4_lig

>  <RI>
0

>  <Rbt.Current_Directory>
/home/itssahil/PROJECTS/Mol_Feturizer/New_Systems/rnas/2et4

>  <Rbt.Executable>
rbdock ($Id: //depot/dev/client3/rdock/2013.1/src/exe/rbdock.cxx#4 $)

>  <Rbt.Library>
libRbt.so (2013.1, Build901 2013/11/27)

>  <Rbt.Parameter_File>
/export/apps/rDock/src/rDock_2013.1_src/data/scripts/dock_solv.prm

>  <Rbt.Receptor>
prm/blind_docking_80.prm

>  <SCORE>
33.0251

>  <SCORE.INTER>
1.24438

>  <SCORE.INTER.CONST>
1

>  <SCORE.INTER.POLAR>
-0.391499

>  <SCORE.INTER.ROT>
9

>  <SCORE.INTER.SOLV>
36.9104

>  <SCORE.INTER.VDW>
-19.7689

>  <SCORE.INTER.norm>
0.0296282

>  <SCORE.INTRA>
17.9237

>  <SCORE.INTRA.DIHEDRAL>
4.13743

>  <SCORE.INTRA.DIHEDRAL.0>
21.6909

>  <SCORE.INTRA.POLAR>
0

>  <SCORE.INTRA.POLAR.0>
0

>  <SCORE.INTRA.REPUL>
0.181741

>  <SCORE.INTRA.REPUL.0>
0

>  <SCORE.INTRA.SOLV>
1.04847

>  <SCORE.INTRA.SOLV.lig_0>
-116.606

>  <SCORE.INTRA.VDW>
14.4221

>  <SCORE.INTRA.VDW.0>
-6.01229

>  <SCORE.INTRA.norm>
0.426755

>  <SCORE.RESTR>
13.857

>  <SCORE.RESTR.CAVITY>
13.857

>  <SCORE.RESTR.norm>
0.329928

>  <SCORE.SYSTEM>
0

>  <SCORE.SYSTEM.CONST>
0

>  <SCORE.SYSTEM.DIHEDRAL>
0

>  <SCORE.SYSTEM.SOLV>
0

>  <SCORE.SYSTEM.norm>
0

>  <SCORE.heavy>
42

>  <SCORE.norm>
0.786312

>  <RMSD>
6.617

$$$$
2et4_lig
 OpenBabel11021811423D
libRbt.so/2013.1/901 2013/11/27
 42 45  0  0  0  0  0  0  0  0999 V2000
   16.3185   11.3258    3.0995 C   0  0  2  0  0  0  0  0  0  0  0  0
   15.1551   11.3910    2.2722 O   0  0  0  0  0  0  0  0  0  0  0  0
   16.5254   12.7358    3.7091 C   0  0  2  0  0  0  0  0  0  0  0  0
   15.3654   13.1636    4.4489 N   0  0  0  0  0  0  0  0  0  0  0  0
   16.8662   13.7418    2.5719 C   0  0  1  0  0  0  0  0  0  0  0  0
   17.0675   15.0051    3.1245 O   0  0  0  0  0  0  0  0  0  0  0  0
   18.1323   13.2159    1.8167 C   0  0  2  0  0  0  0  0  0  0  0  0
   18.4741   14.0975    0.7682 O   0  0  0  0  0  0  0  0  0  0  0  0
   17.8790   11.7933    1.2320 C   0  0  2  0  0  0  0  0  0  0  0  0
   17.5146   10.9224    2.3069 O   0  0  0  0  0  0  0  0  0  0  0  0
   19.1384   11.2182    0.5050 C   0  0  0  0  0  0  0  0  0  0  0  0
   18.8258   10.0851   -0.2947 N   0  0  0  0  0  0  0  0  0  0  0  0
   11.7542    8.9742    3.3891 C   0  0  2  0  0  0  0  0  0  0  0  0
   10.7489    7.9045    3.3581 N   0  0  0  0  0  0  0  0  0  0  0  0
   11.6632    9.8438    2.0224 C   0  0  0  0  0  0  0  0  0  0  0  0
   12.7587   10.9865    2.0550 C   0  0  2  0  0  0  0  0  0  0  0  0
   12.7291   11.7874    0.8183 N   0  0  0  0  0  0  0  0  0  0  0  0
   14.1761   10.3437    2.2291 C   0  0  2  0  0  0  0  0  0  0  0  0
   14.2407    9.4849    3.5353 C   0  0  2  0  0  0  0  0  0  0  0  0
   15.5765    8.9272    3.5946 O   0  0  0  0  0  0  0  0  0  0  0  0
   13.1595    8.3580    3.4839 C   0  0  1  0  0  0  0  0  0  0  0  0
   13.2308    7.6231    4.6588 O   0  0  0  0  0  0  0  0  0  0  0  0
   16.2536    8.6290    4.7299 C   0  0  1  0  0  0  0  0  0  0  0  0
   15.4565    7.6274    5.6056 C   0  0  2  0  0  0  0  0  0  0  0  0
   14.5071    8.2479    6.4234 O   0  0  0  0  0  0  0  0  0  0  0  0
   16.6140    6.8943    6.2578 C   0  0  1  0  0  0  0  0  0  0  0  0
   17.7136    6.7686    5.1939 C   0  0  2  0  0  0  0  0  0  0  0  0
   17.5554    8.0178    4.5214 O   0  0  0  0  0  0  0  0  0  0  0  0
   17.5684    5.5559    4.2127 C   0  0  0  0  0  0  0  0  0  0  0  0
   18.8074    5.4535    3.4620 O   0  0  0  0  0  0  0  0  0  0  0  0
   17.4391    7.0299    8.5864 C   0  0  2  0  0  0  0  0  0  0  0  0
   17.0603    7.7070    7.4193 O   0  0  0  0  0  0  0  0  0  0  0  0
   18.1554    5.6505    8.2489 C   0  0  1  0  0  0  0  0  0  0  0  0
   14.4648    7.2054   11.9904 N   0  0  0  0  0  0  0  0  0  0  0  0
   18.5257    4.9506    9.6594 C   0  0  1  0  0  0  0  0  0  0  0  0
   19.4234    5.8957   10.4329 O   0  0  0  0  0  0  0  0  0  0  0  0
   17.1719    4.6480   10.4973 C   0  0  2  0  0  0  0  0  0  0  0  0
   16.3367    3.7371    9.7431 O   0  0  0  0  0  0  0  0  0  0  0  0
   16.4478    6.0795   10.7912 C   0  0  1  0  0  0  0  0  0  0  0  0
   16.1939    6.7875    9.4889 O   0  0  0  0  0  0  0  0  0  0  0  0
   15.1026    5.9163   11.5819 C   0  0  0  0  0  0  0  0  0  0  0  0
   17.2633    4.8055    7.3881 N   0  0  0  0  0  0  0  0  0  0  0  0
  1  2  1  6  0  0  0
  1  3  1  0  0  0  0
  1 10  1  0  0  0  0
  3  4  1  6  0  0  0
  3  5  1  0  0  0  0
  5  6  1  1  0  0  0
  5  7  1  0  0  0  0
  7  8  1  6  0  0  0
  7  9  1  0  0  0  0
  9 10  1  0  0  0  0
  9 11  1  1  0  0  0
 11 12  1  0  0  0  0
 13 14  1  6  0  0  0
 13 15  1  0  0  0  0
 13 21  1  0  0  0  0
 16 15  1  0  0  0  0
 16 17  1  6  0  0  0
 18  2  1  1  0  0  0
 18 16  1  0  0  0  0
 19 18  1  0  0  0  0
 19 20  1  6  0  0  0
 21 19  1  0  0  0  0
 21 22  1  1  0  0  0
 23 20  1  6  0  0  0
 23 24  1  0  0  0  0
 23 28  1  0  0  0  0
 24 25  1  1  0  0  0
 24 26  1  0  0  0  0
 26 27  1  0  0  0  0
 26 32  1  1  0  0  0
 27 28  1  0  0  0  0
 27 29  1  6  0  0  0
 29 30  1  0  0  0  0
 31 32  1  6  0  0  0
 31 40  1  0  0  0  0
 33 31  1  0  0  0  0
 33 42  1  1  0  0  0
 35 33  1  0  0  0  0
 35 36  1  1  0  0  0
 37 35  1  0  0  0  0
 37 38  1  6  0  0  0
 37 39  1  0  0  0  0
 39 40  1  0  0  0  0
 39 41  1  6  0  0  0
 41 34  1  0  0  0  0
M  END
>  <CHROM.1>
-139.10224840,-165.87950446,144.18599237,149.97179218,57.39363866,141.18773578
-169.32011682,34.89751552,174.46629731,16.10619765,8.81658359,5.02999186
-1.65113637,0.08129687,2.26896001

>  <Name>
2et4_lig

>  <RI>
0

>  <Rbt.Current_Directory>
/home/itssahil/PROJECTS/Mol_Feturizer/New_Systems/rnas/2et4

>  <Rbt.Executable>
rbdock ($Id: //depot/dev/client3/rdock/2013.1/src/exe/rbdock.cxx#4 $)

>  <Rbt.Library>
libRbt.so (2013.1, Build901 2013/11/27)

>  <Rbt.Parameter_File>
/export/apps/rDock/src/rDock_2013.1_src/data/scripts/dock_solv.prm

>  <Rbt.Receptor>
prm/blind_docking_80.prm

>  <SCORE>
31.2856

>  <SCORE.INTER>
2.82577

>  <SCORE.INTER.CONST>
1

>  <SCORE.INTER.POLAR>
-0.35571

>  <SCORE.INTER.ROT>
9

>  <SCORE.INTER.SOLV>
38.7546

>  <SCORE.INTER.VDW>
-19.4486

>  <SCORE.INTER.norm>
0.0672802

>  <SCORE.INTRA>
14.7165

>  <SCORE.INTRA.DIHEDRAL>
1.32874

>  <SCORE.INTRA.DIHEDRAL.0>
21.6909

>  <SCORE.INTRA.POLAR>
0

>  <SCORE.INTRA.POLAR.0>
0

>  <SCORE.INTRA.REPUL>
0.213477

>  <SCORE.INTRA.REPUL.0>
0

>  <SCORE.INTRA.SOLV>
-1.0923

>  <SCORE.INTRA.SOLV.lig_0>
-116.606

>  <SCORE.INTRA.VDW>
13.5309

>  <SCORE.INTRA.VDW.0>
-6.01229

>  <SCORE.INTRA.norm>
0.350394

>  <SCORE.RESTR>
13.7433

>  <SCORE.RESTR.CAVITY>
13.7433

>  <SCORE.RESTR.norm>
0.327222

>  <SCORE.SYSTEM>
0

>  <SCORE.SYSTEM.CONST>
0

>  <SCORE.SYSTEM.DIHEDRAL>
0

>  <SCORE.SYSTEM.SOLV>
0

>  <SCORE.SYSTEM.norm>
0

>  <SCORE.heavy>
42

>  <SCORE.norm>
0.744896

>  <RMSD>
6.629

$$$$
2et4_lig
 OpenBabel11021811423D
libRbt.so/2013.1/901 2013/11/27
 42 45  0  0  0  0  0  0  0  0999 V2000
   14.6914    6.4504    9.8924 C   0  0  2  0  0  0  0  0  0  0  0  0
   13.4016    5.9656    9.5134 O   0  0  0  0  0  0  0  0  0  0  0  0
   15.1310    5.6491   11.1443 C   0  0  2  0  0  0  0  0  0  0  0  0
   15.1470    4.2325   10.8824 N   0  0  0  0  0  0  0  0  0  0  0  0
   14.1824    5.9884   12.3301 C   0  0  1  0  0  0  0  0  0  0  0  0
   14.5896    5.2792   13.4584 O   0  0  0  0  0  0  0  0  0  0  0  0
   14.2179    7.5366   12.5576 C   0  0  2  0  0  0  0  0  0  0  0  0
   13.3628    7.8912   13.6237 O   0  0  0  0  0  0  0  0  0  0  0  0
   13.7788    8.2972   11.2698 C   0  0  2  0  0  0  0  0  0  0  0  0
   14.6443    7.9082   10.1992 O   0  0  0  0  0  0  0  0  0  0  0  0
   13.8420    9.8496   11.4474 C   0  0  0  0  0  0  0  0  0  0  0  0
   13.5184   10.5406   10.2479 N   0  0  0  0  0  0  0  0  0  0  0  0
   10.9774    6.5392    5.9851 C   0  0  2  0  0  0  0  0  0  0  0  0
   10.5280    6.4619    4.5895 N   0  0  0  0  0  0  0  0  0  0  0  0
   12.4257    7.2677    6.0490 C   0  0  0  0  0  0  0  0  0  0  0  0
   12.9117    7.3353    7.5545 C   0  0  2  0  0  0  0  0  0  0  0  0
   14.2386    7.9683    7.6572 N   0  0  0  0  0  0  0  0  0  0  0  0
   12.9750    5.8868    8.1464 C   0  0  2  0  0  0  0  0  0  0  0  0
   11.5794    5.1860    8.0519 C   0  0  2  0  0  0  0  0  0  0  0  0
   11.7479    3.8584    8.6071 O   0  0  0  0  0  0  0  0  0  0  0  0
   11.1180    5.1204    6.5605 C   0  0  1  0  0  0  0  0  0  0  0  0
    9.8738    4.5079    6.5091 O   0  0  0  0  0  0  0  0  0  0  0  0
   11.6004    3.5286    9.9131 C   0  0  1  0  0  0  0  0  0  0  0  0
   10.1480    3.7884   10.3913 C   0  0  2  0  0  0  0  0  0  0  0  0
    9.9261    5.1136   10.7779 O   0  0  0  0  0  0  0  0  0  0  0  0
   10.0329    2.6942   11.4364 C   0  0  1  0  0  0  0  0  0  0  0  0
   10.7936    1.4782   10.8892 C   0  0  2  0  0  0  0  0  0  0  0  0
   11.8728    2.1358   10.2254 O   0  0  0  0  0  0  0  0  0  0  0  0
    9.9835    0.5577    9.9139 C   0  0  0  0  0  0  0  0  0  0  0  0
    8.8168    0.0806   10.6352 O   0  0  0  0  0  0  0  0  0  0  0  0
   10.0361    4.3080   13.3118 C   0  0  2  0  0  0  0  0  0  0  0  0
   10.6427    3.2079   12.6905 O   0  0  0  0  0  0  0  0  0  0  0  0
   10.6650    4.5820   14.7467 C   0  0  1  0  0  0  0  0  0  0  0  0
    5.5975    4.4731   12.7698 N   0  0  0  0  0  0  0  0  0  0  0  0
    9.8797    5.8491   15.3748 C   0  0  1  0  0  0  0  0  0  0  0  0
   10.0516    7.0240   14.4327 O   0  0  0  0  0  0  0  0  0  0  0  0
    8.3084    5.4929   15.5496 C   0  0  2  0  0  0  0  0  0  0  0  0
    8.1702    4.3754   16.4598 O   0  0  0  0  0  0  0  0  0  0  0  0
    7.7088    5.1820   14.0651 C   0  0  1  0  0  0  0  0  0  0  0  0
    8.5013    4.0736   13.4284 O   0  0  0  0  0  0  0  0  0  0  0  0
    6.1884    4.7974   14.1044 C   0  0  0  0  0  0  0  0  0  0  0  0
   10.5667    3.3484   15.5949 N   0  0  0  0  0  0  0  0  0  0  0  0
  1  2  1  1  0  0  0
  1  3  1  0  0  0  0
  1 10  1  0  0  0  0
  3  4  1  6  0  0  0
  3  5  1  0  0  0  0
  5  6  1  1  0  0  0
  5  7  1  0  0  0  0
  7  8  1  1  0  0  0
  7  9  1  0  0  0  0
  9 10  1  0  0  0  0
  9 11  1  1  0  0  0
 11 12  1  0  0  0  0
 13 14  1  6  0  0  0
 13 15  1  0  0  0  0
 13 21  1  0  0  0  0
 16 15  1  0  0  0  0
 16 17  1  6  0  0  0
 18  2  1  1  0  0  0
 18 16  1  0  0  0  0
 19 18  1  0  0  0  0
 19 20  1  6  0  0  0
 21 19  1  0  0  0  0
 21 22  1  1  0  0  0
 23 20  1  6  0  0  0
 23 24  1  0  0  0  0
 23 28  1  0  0  0  0
 24 25  1  1  0  0  0
 24 26  1  0  0  0  0
 26 27  1  0  0  0  0
 26 32  1  1  0  0  0
 27 28  1  0  0  0  0
 27 29  1  6  0  0  0
 29 30  1  0  0  0  0
 31 32  1  1  0  0  0
 31 40  1  0  0  0  0
 33 31  1  0  0  0  0
 33 42  1  1  0  0  0
 35 33  1  0  0  0  0
 35 36  1  6  0  0  0
 37 35  1  0  0  0  0
 37 38  1  1  0  0  0
 37 39  1  0  0  0  0
 39 40  1  0  0  0  0
 39 41  1  1  0  0  0
 41 34  1  0  0  0  0
M  END
>  <CHROM.1>
-145.97297735,176.47850358,-63.91007966,88.79749901,62.43690727,64.07409814
-58.96922589,170.91262946,-178.72222213,11.37429042,5.25614731,11.04817264
-0.69786866,0.75818831,1.34157595

>  <Name>
2et4_lig

>  <RI>
0

>  <Rbt.Current_Directory>
/home/itssahil/PROJECTS/Mol_Feturizer/New_Systems/rnas/2et4

>  <Rbt.Executable>
rbdock ($Id: //depot/dev/client3/rdock/2013.1/src/exe/rbdock.cxx#4 $)

>  <Rbt.Library>
libRbt.so (2013.1, Build901 2013/11/27)

>  <Rbt.Parameter_File>
/export/apps/rDock/src/rDock_2013.1_src/data/scripts/dock_solv.prm

>  <Rbt.Receptor>
prm/pocket_docking_5.prm

>  <SCORE>
-11.181

>  <SCORE.INTER>
-7.10395

>  <SCORE.INTER.CONST>
1

>  <SCORE.INTER.POLAR>
-1.78379

>  <SCORE.INTER.ROT>
9

>  <SCORE.INTER.SOLV>
12.6971

>  <SCORE.INTER.VDW>
-12.6224

>  <SCORE.INTER.norm>
-0.169142

>  <SCORE.INTRA>
-4.07704

>  <SCORE.INTRA.DIHEDRAL>
-13.1545

>  <SCORE.INTRA.DIHEDRAL.0>
21.6909

>  <SCORE.INTRA.POLAR>
0

>  <SCORE.INTRA.POLAR.0>
0

>  <SCORE.INTRA.REPUL>
0

>  <SCORE.INTRA.REPUL.0>
0

>  <SCORE.INTRA.SOLV>
-0.157456

>  <SCORE.INTRA.SOLV.lig_0>
-116.606

>  <SCORE.INTRA.VDW>
2.57895

>  <SCORE.INTRA.VDW.0>
-6.01229

>  <SCORE.INTRA.norm>
-0.0970723

>  <SCORE.RESTR>
0

>  <SCORE.RESTR.CAVITY>
0

>  <SCORE.RESTR.norm>
0

>  <SCORE.SYSTEM>
0

>  <SCORE.SYSTEM.CONST>
0

>  <SCORE.SYSTEM.DIHEDRAL>
0

>  <SCORE.SYSTEM.SOLV>
0

>  <SCORE.SYSTEM.norm>
0

>  <SCORE.heavy>
42

>  <SCORE.norm>
-0.266214

>  <RMSD>
6.634

$$$$
2et4_lig
 OpenBabel11021811423D
libRbt.so/2013.1/901 2013/11/27
 42 45  0  0  0  0  0  0  0  0999 V2000
   15.6179    5.2202    9.0101 C   0  0  2  0  0  0  0  0  0  0  0  0
   16.4707    5.5802    7.9214 O   0  0  0  0  0  0  0  0  0  0  0  0
   16.4908    4.4635   10.0435 C   0  0  2  0  0  0  0  0  0  0  0  0
   17.6047    5.2670   10.4788 N   0  0  0  0  0  0  0  0  0  0  0  0
   16.9772    3.1229    9.4211 C   0  0  1  0  0  0  0  0  0  0  0  0
   17.7482    2.4373   10.3577 O   0  0  0  0  0  0  0  0  0  0  0  0
   15.7190    2.3053    8.9757 C   0  0  2  0  0  0  0  0  0  0  0  0
   16.1152    1.0801    8.3966 O   0  0  0  0  0  0  0  0  0  0  0  0
   14.8693    3.1108    7.9465 C   0  0  2  0  0  0  0  0  0  0  0  0
   14.4964    4.3553    8.5456 O   0  0  0  0  0  0  0  0  0  0  0  0
   13.5802    2.3405    7.5100 C   0  0  0  0  0  0  0  0  0  0  0  0
   12.6946    2.1158    8.5991 N   0  0  0  0  0  0  0  0  0  0  0  0
   16.0320    8.7937    5.0691 C   0  0  2  0  0  0  0  0  0  0  0  0
   15.5573    9.5547    3.9066 N   0  0  0  0  0  0  0  0  0  0  0  0
   16.7173    7.4108    4.5690 C   0  0  0  0  0  0  0  0  0  0  0  0
   17.2142    6.5878    5.8272 C   0  0  2  0  0  0  0  0  0  0  0  0
   17.8220    5.3086    5.4200 N   0  0  0  0  0  0  0  0  0  0  0  0
   16.0025    6.3122    6.7803 C   0  0  2  0  0  0  0  0  0  0  0  0
   15.3336    7.6527    7.2314 C   0  0  2  0  0  0  0  0  0  0  0  0
   14.2246    7.2898    8.0901 O   0  0  0  0  0  0  0  0  0  0  0  0
   14.8423    8.4485    5.9797 C   0  0  1  0  0  0  0  0  0  0  0  0
   14.2674    9.6364    6.4087 O   0  0  0  0  0  0  0  0  0  0  0  0
   13.5295    8.1447    8.8790 C   0  0  1  0  0  0  0  0  0  0  0  0
   12.2680    7.4589    9.4653 C   0  0  2  0  0  0  0  0  0  0  0  0
   11.1731    7.4885    8.5961 O   0  0  0  0  0  0  0  0  0  0  0  0
   12.1730    8.2032   10.7843 C   0  0  1  0  0  0  0  0  0  0  0  0
   13.6119    8.4256   11.2712 C   0  0  2  0  0  0  0  0  0  0  0  0
   14.2659    8.6549   10.0232 O   0  0  0  0  0  0  0  0  0  0  0  0
   14.2525    7.2291   12.0539 C   0  0  0  0  0  0  0  0  0  0  0  0
   15.5755    7.6484   12.4818 O   0  0  0  0  0  0  0  0  0  0  0  0
   10.1906    9.6576   11.0600 C   0  0  2  0  0  0  0  0  0  0  0  0
   11.4740    9.4884   10.5231 O   0  0  0  0  0  0  0  0  0  0  0  0
    9.5395   11.0282   10.5831 C   0  0  1  0  0  0  0  0  0  0  0  0
   10.0774   10.7186   15.4354 N   0  0  0  0  0  0  0  0  0  0  0  0
    8.0811   11.1271   11.2760 C   0  0  1  0  0  0  0  0  0  0  0  0
    7.2719    9.9202   10.8447 O   0  0  0  0  0  0  0  0  0  0  0  0
    8.2373   11.1532   12.8888 C   0  0  2  0  0  0  0  0  0  0  0  0
    9.0046   12.3183   13.2758 O   0  0  0  0  0  0  0  0  0  0  0  0
    8.9409    9.7512   13.3353 C   0  0  1  0  0  0  0  0  0  0  0  0
   10.2521    9.5986   12.6145 O   0  0  0  0  0  0  0  0  0  0  0  0
    9.1698    9.6656   14.8850 C   0  0  0  0  0  0  0  0  0  0  0  0
   10.4393   12.1752   10.9376 N   0  0  0  0  0  0  0  0  0  0  0  0
  1  2  1  6  0  0  0
  1  3  1  0  0  0  0
  1 10  1  0  0  0  0
  3  4  1  6  0  0  0
  3  5  1  0  0  0  0
  5  6  1  1  0  0  0
  5  7  1  0  0  0  0
  7  8  1  6  0  0  0
  7  9  1  0  0  0  0
  9 10  1  0  0  0  0
  9 11  1  1  0  0  0
 11 12  1  0  0  0  0
 13 14  1  6  0  0  0
 13 15  1  0  0  0  0
 13 21  1  0  0  0  0
 16 15  1  0  0  0  0
 16 17  1  6  0  0  0
 18  2  1  1  0  0  0
 18 16  1  0  0  0  0
 19 18  1  0  0  0  0
 19 20  1  1  0  0  0
 21 19  1  0  0  0  0
 21 22  1  1  0  0  0
 23 20  1  1  0  0  0
 23 24  1  0  0  0  0
 23 28  1  0  0  0  0
 24 25  1  6  0  0  0
 24 26  1  0  0  0  0
 26 27  1  0  0  0  0
 26 32  1  6  0  0  0
 27 28  1  0  0  0  0
 27 29  1  6  0  0  0
 29 30  1  0  0  0  0
 31 32  1  6  0  0  0
 31 40  1  0  0  0  0
 33 31  1  0  0  0  0
 33 42  1  1  0  0  0
 35 33  1  0  0  0  0
 35 36  1  1  0  0  0
 37 35  1  0  0  0  0
 37 38  1  6  0  0  0
 37 39  1  0  0  0  0
 39 40  1  0  0  0  0
 39 41  1  1  0  0  0
 41 34  1  0  0  0  0
M  END
>  <CHROM.1>
-179.22882706,62.84895613,177.29210403,167.64057936,170.23082205,111.49229002
-177.36879090,-175.07536462,-61.63064076,13.46550397,7.33694646,9.49258950
0.09034094,-0.84088209,2.37150975

>  <Name>
2et4_lig

>  <RI>
1.79929e+07

>  <Rbt.Current_Directory>
/home/itssahil/PROJECTS/Mol_Feturizer/New_Systems/rnas/2et4

>  <Rbt.Executable>
rbdock ($Id: //depot/dev/client3/rdock/2013.1/src/exe/rbdock.cxx#4 $)

>  <Rbt.Library>
libRbt.so (2013.1, Build901 2013/11/27)

>  <Rbt.Parameter_File>
/export/apps/rDock/src/rDock_2013.1_src/data/scripts/dock_solv.prm

>  <Rbt.Receptor>
prm/pocket_docking_7.prm

>  <SCORE>
-18.1363

>  <SCORE.INTER>
-11.9515

>  <SCORE.INTER.CONST>
1

>  <SCORE.INTER.POLAR>
-1.44669

>  <SCORE.INTER.ROT>
9

>  <SCORE.INTER.SOLV>
14.6879

>  <SCORE.INTER.VDW>
-17.6413

>  <SCORE.INTER.norm>
-0.28456

>  <SCORE.INTRA>
-6.18479

>  <SCORE.INTRA.DIHEDRAL>
-13.3224

>  <SCORE.INTRA.DIHEDRAL.0>
21.6909

>  <SCORE.INTRA.POLAR>
0

>  <SCORE.INTRA.POLAR.0>
0

>  <SCORE.INTRA.REPUL>
0

>  <SCORE.INTRA.REPUL.0>
0

>  <SCORE.INTRA.SOLV>
-2.03407

>  <SCORE.INTRA.SOLV.lig_0>
-116.606

>  <SCORE.INTRA.VDW>
1.49346

>  <SCORE.INTRA.VDW.0>
-6.01229

>  <SCORE.INTRA.norm>
-0.147257

>  <SCORE.RESTR>
0

>  <SCORE.RESTR.CAVITY>
0

>  <SCORE.RESTR.norm>
0

>  <SCORE.SYSTEM>
0

>  <SCORE.SYSTEM.CONST>
0

>  <SCORE.SYSTEM.DIHEDRAL>
0

>  <SCORE.SYSTEM.SOLV>
0

>  <SCORE.SYSTEM.norm>
0

>  <SCORE.heavy>
42

>  <SCORE.norm>
-0.431817

>  <RMSD>
6.664

$$$$
2et4_lig
 OpenBabel11021811423D
libRbt.so/2013.1/901 2013/11/27
 42 45  0  0  0  0  0  0  0  0999 V2000
   16.4501   11.0355    2.9131 C   0  0  2  0  0  0  0  0  0  0  0  0
   15.2430   11.1602    2.1584 O   0  0  0  0  0  0  0  0  0  0  0  0
   16.8612   12.4626    3.3569 C   0  0  2  0  0  0  0  0  0  0  0  0
   15.8162   13.0971    4.1191 N   0  0  0  0  0  0  0  0  0  0  0  0
   17.2282   13.3049    2.1011 C   0  0  1  0  0  0  0  0  0  0  0  0
   17.6128   14.5822    2.5040 O   0  0  0  0  0  0  0  0  0  0  0  0
   18.3661   12.5591    1.3272 C   0  0  2  0  0  0  0  0  0  0  0  0
   18.7266   13.2870    0.1723 O   0  0  0  0  0  0  0  0  0  0  0  0
   17.9094   11.1276    0.9124 C   0  0  2  0  0  0  0  0  0  0  0  0
   17.5297   10.4155    2.0937 O   0  0  0  0  0  0  0  0  0  0  0  0
   19.0372   10.3366    0.1721 C   0  0  0  0  0  0  0  0  0  0  0  0
   19.7184   11.1403   -0.7824 N   0  0  0  0  0  0  0  0  0  0  0  0
   11.5897    9.1668    3.3136 C   0  0  2  0  0  0  0  0  0  0  0  0
   10.5192    8.1632    3.3638 N   0  0  0  0  0  0  0  0  0  0  0  0
   11.6905    9.7778    1.8140 C   0  0  0  0  0  0  0  0  0  0  0  0
   12.8557   10.8487    1.7622 C   0  0  2  0  0  0  0  0  0  0  0  0
   13.0002   11.4126    0.4084 N   0  0  0  0  0  0  0  0  0  0  0  0
   14.2014   10.1750    2.1956 C   0  0  2  0  0  0  0  0  0  0  0  0
   14.0807    9.5651    3.6313 C   0  0  2  0  0  0  0  0  0  0  0  0
   15.3623    8.9585    3.9288 O   0  0  0  0  0  0  0  0  0  0  0  0
   12.9328    8.5056    3.6636 C   0  0  1  0  0  0  0  0  0  0  0  0
   12.8402    7.9931    4.9498 O   0  0  0  0  0  0  0  0  0  0  0  0
   15.6433    8.2139    5.0256 C   0  0  1  0  0  0  0  0  0  0  0  0
   15.6396    6.7006    4.6860 C   0  0  2  0  0  0  0  0  0  0  0  0
   14.3620    6.1335    4.7201 O   0  0  0  0  0  0  0  0  0  0  0  0
   16.6777    6.2212    5.6837 C   0  0  1  0  0  0  0  0  0  0  0  0
   17.7542    7.3130    5.7607 C   0  0  2  0  0  0  0  0  0  0  0  0
   16.9399    8.4777    5.6266 O   0  0  0  0  0  0  0  0  0  0  0  0
   18.8633    7.2468    4.6560 C   0  0  0  0  0  0  0  0  0  0  0  0
   19.7887    6.1925    5.0320 O   0  0  0  0  0  0  0  0  0  0  0  0
   16.7848    5.8301    8.1244 C   0  0  2  0  0  0  0  0  0  0  0  0
   15.9903    6.0312    6.9875 O   0  0  0  0  0  0  0  0  0  0  0  0
   17.2635    4.3175    8.2361 C   0  0  1  0  0  0  0  0  0  0  0  0
   15.1520    7.8846   11.6825 N   0  0  0  0  0  0  0  0  0  0  0  0
   18.1473    4.1979    9.5857 C   0  0  1  0  0  0  0  0  0  0  0  0
   19.3080    5.1665    9.4760 O   0  0  0  0  0  0  0  0  0  0  0  0
   17.2348    4.5565   10.8761 C   0  0  2  0  0  0  0  0  0  0  0  0
   16.1401    3.6132   10.9643 O   0  0  0  0  0  0  0  0  0  0  0  0
   16.7331    6.0991   10.7075 C   0  0  1  0  0  0  0  0  0  0  0  0
   15.9995    6.2460    9.4027 O   0  0  0  0  0  0  0  0  0  0  0  0
   15.8138    6.5604   11.8922 C   0  0  0  0  0  0  0  0  0  0  0  0
   16.0759    3.4007    8.2263 N   0  0  0  0  0  0  0  0  0  0  0  0
  1  2  1  6  0  0  0
  1  3  1  0  0  0  0
  1 10  1  0  0  0  0
  3  4  1  6  0  0  0
  3  5  1  0  0  0  0
  5  6  1  1  0  0  0
  5  7  1  0  0  0  0
  7  8  1  6  0  0  0
  7  9  1  0  0  0  0
  9 10  1  0  0  0  0
  9 11  1  1  0  0  0
 11 12  1  0  0  0  0
 13 14  1  6  0  0  0
 13 15  1  0  0  0  0
 13 21  1  0  0  0  0
 16 15  1  0  0  0  0
 16 17  1  6  0  0  0
 18  2  1  1  0  0  0
 18 16  1  0  0  0  0
 19 18  1  0  0  0  0
 19 20  1  6  0  0  0
 21 19  1  0  0  0  0
 21 22  1  1  0  0  0
 23 20  1  6  0  0  0
 23 24  1  0  0  0  0
 23 28  1  0  0  0  0
 24 25  1  1  0  0  0
 24 26  1  0  0  0  0
 26 27  1  0  0  0  0
 26 32  1  1  0  0  0
 27 28  1  0  0  0  0
 27 29  1  6  0  0  0
 29 30  1  0  0  0  0
 31 32  1  6  0  0  0
 31 40  1  0  0  0  0
 33 31  1  0  0  0  0
 33 42  1  1  0  0  0
 35 33  1  0  0  0  0
 35 36  1  6  0  0  0
 37 35  1  0  0  0  0
 37 38  1  6  0  0  0
 37 39  1  0  0  0  0
 39 40  1  0  0  0  0
 39 41  1  1  0  0  0
 41 34  1  0  0  0  0
M  END
>  <CHROM.1>
-144.94953843,-43.26225602,157.42031323,-173.65133485,101.65859430,-168.41730823
-77.56665258,-81.18040278,-170.75593791,16.11704986,8.54960763,4.95150490
-1.61252776,0.08176844,2.25469516

>  <Name>
2et4_lig

>  <RI>
0

>  <Rbt.Current_Directory>
/home/itssahil/PROJECTS/Mol_Feturizer/New_Systems/rnas/2et4

>  <Rbt.Executable>
rbdock ($Id: //depot/dev/client3/rdock/2013.1/src/exe/rbdock.cxx#4 $)

>  <Rbt.Library>
libRbt.so (2013.1, Build901 2013/11/27)

>  <Rbt.Parameter_File>
/export/apps/rDock/src/rDock_2013.1_src/data/scripts/dock_solv.prm

>  <Rbt.Receptor>
prm/blind_docking_80.prm

>  <SCORE>
11.0529

>  <SCORE.INTER>
-3.80002

>  <SCORE.INTER.CONST>
1

>  <SCORE.INTER.POLAR>
-0.543782

>  <SCORE.INTER.ROT>
9

>  <SCORE.INTER.SOLV>
34.9164

>  <SCORE.INTER.VDW>
-21.9595

>  <SCORE.INTER.norm>
-0.0904767

>  <SCORE.INTRA>
2.16505

>  <SCORE.INTRA.DIHEDRAL>
-3.98382

>  <SCORE.INTRA.DIHEDRAL.0>
21.6909

>  <SCORE.INTRA.POLAR>
0

>  <SCORE.INTRA.POLAR.0>
0

>  <SCORE.INTRA.REPUL>
0.0134803

>  <SCORE.INTRA.REPUL.0>
0

>  <SCORE.INTRA.SOLV>
-2.78888

>  <SCORE.INTRA.SOLV.lig_0>
-116.606

>  <SCORE.INTRA.VDW>
5.484

>  <SCORE.INTRA.VDW.0>
-6.01229

>  <SCORE.INTRA.norm>
0.0515487

>  <SCORE.RESTR>
12.6878

>  <SCORE.RESTR.CAVITY>
12.6878

>  <SCORE.RESTR.norm>
0.302091

>  <SCORE.SYSTEM>
0

>  <SCORE.SYSTEM.CONST>
0

>  <SCORE.SYSTEM.DIHEDRAL>
0

>  <SCORE.SYSTEM.SOLV>
0

>  <SCORE.SYSTEM.norm>
0

>  <SCORE.heavy>
42

>  <SCORE.norm>
0.263163

>  <RMSD>
6.682

$$$$
2et4_lig
 OpenBabel11021811423D
libRbt.so/2013.1/901 2013/11/27
 42 45  0  0  0  0  0  0  0  0999 V2000
   14.8651    6.2012   10.6109 C   0  0  2  0  0  0  0  0  0  0  0  0
   14.8922    7.5647   11.0377 O   0  0  0  0  0  0  0  0  0  0  0  0
   16.2598    5.8809   10.0153 C   0  0  2  0  0  0  0  0  0  0  0  0
   17.3081    6.1214   10.9739 N   0  0  0  0  0  0  0  0  0  0  0  0
   16.4745    6.7271    8.7272 C   0  0  1  0  0  0  0  0  0  0  0  0
   17.7222    6.4253    8.1850 O   0  0  0  0  0  0  0  0  0  0  0  0
   15.3050    6.4135    7.7353 C   0  0  2  0  0  0  0  0  0  0  0  0
   15.4562    7.1677    6.5513 O   0  0  0  0  0  0  0  0  0  0  0  0
   13.9253    6.7413    8.3824 C   0  0  2  0  0  0  0  0  0  0  0  0
   13.8019    5.9831    9.5893 O   0  0  0  0  0  0  0  0  0  0  0  0
   12.7296    6.4009    7.4337 C   0  0  0  0  0  0  0  0  0  0  0  0
   11.4766    6.7666    7.9971 N   0  0  0  0  0  0  0  0  0  0  0  0
   12.7235    9.8431   13.9974 C   0  0  2  0  0  0  0  0  0  0  0  0
   11.6055   10.4792   14.7055 N   0  0  0  0  0  0  0  0  0  0  0  0
   12.8175   10.4348   12.4897 C   0  0  0  0  0  0  0  0  0  0  0  0
   14.0154    9.7351   11.7264 C   0  0  2  0  0  0  0  0  0  0  0  0
   14.1220   10.2252   10.3407 N   0  0  0  0  0  0  0  0  0  0  0  0
   13.7926    8.1850   11.7183 C   0  0  2  0  0  0  0  0  0  0  0  0
   13.6748    7.6324   13.1772 C   0  0  2  0  0  0  0  0  0  0  0  0
   13.4571    6.2049   13.0595 O   0  0  0  0  0  0  0  0  0  0  0  0
   12.4843    8.3267   13.9136 C   0  0  1  0  0  0  0  0  0  0  0  0
   12.4131    7.8282   15.2067 O   0  0  0  0  0  0  0  0  0  0  0  0
   12.3634    5.6194   12.5144 C   0  0  1  0  0  0  0  0  0  0  0  0
   12.5109    4.0755   12.4949 C   0  0  2  0  0  0  0  0  0  0  0  0
   13.2226    3.6060   11.3868 O   0  0  0  0  0  0  0  0  0  0  0  0
   11.0517    3.6863   12.6436 C   0  0  1  0  0  0  0  0  0  0  0  0
   10.4183    4.7035   13.6033 C   0  0  2  0  0  0  0  0  0  0  0  0
   11.1169    5.8854   13.2124 O   0  0  0  0  0  0  0  0  0  0  0  0
   10.6001    4.3964   15.1288 C   0  0  0  0  0  0  0  0  0  0  0  0
    9.9566    5.4685   15.8675 O   0  0  0  0  0  0  0  0  0  0  0  0
    9.1008    3.3313   11.1640 C   0  0  2  0  0  0  0  0  0  0  0  0
   10.4341    3.7432   11.2930 O   0  0  0  0  0  0  0  0  0  0  0  0
    8.9298    1.7960   11.5425 C   0  0  1  0  0  0  0  0  0  0  0  0
    7.0594    4.9585    7.5355 N   0  0  0  0  0  0  0  0  0  0  0  0
    7.3681    1.4278   11.3374 C   0  0  1  0  0  0  0  0  0  0  0  0
    6.5482    2.3393   12.2287 O   0  0  0  0  0  0  0  0  0  0  0  0
    6.9518    1.6353    9.7850 C   0  0  2  0  0  0  0  0  0  0  0  0
    7.7408    0.7484    8.9561 O   0  0  0  0  0  0  0  0  0  0  0  0
    7.1757    3.2099    9.4243 C   0  0  1  0  0  0  0  0  0  0  0  0
    8.6020    3.5904    9.7121 O   0  0  0  0  0  0  0  0  0  0  0  0
    6.8271    3.5350    7.9296 C   0  0  0  0  0  0  0  0  0  0  0  0
    9.8483    0.9551   10.7058 N   0  0  0  0  0  0  0  0  0  0  0  0
  1  2  1  6  0  0  0
  1  3  1  0  0  0  0
  1 10  1  0  0  0  0
  3  4  1  1  0  0  0
  3  5  1  0  0  0  0
  5  6  1  6  0  0  0
  5  7  1  0  0  0  0
  7  8  1  6  0  0  0
  7  9  1  0  0  0  0
  9 10  1  0  0  0  0
  9 11  1  6  0  0  0
 11 12  1  0  0  0  0
 13 14  1  6  0  0  0
 13 15  1  0  0  0  0
 13 21  1  0  0  0  0
 16 15  1  0  0  0  0
 16 17  1  6  0  0  0
 18  2  1  1  0  0  0
 18 16  1  0  0  0  0
 19 18  1  0  0  0  0
 19 20  1  6  0  0  0
 21 19  1  0  0  0  0
 21 22  1  1  0  0  0
 23 20  1  1  0  0  0
 23 24  1  0  0  0  0
 23 28  1  0  0  0  0
 24 25  1  6  0  0  0
 24 26  1  0  0  0  0
 26 27  1  0  0  0  0
 26 32  1  6  0  0  0
 27 28  1  0  0  0  0
 27 29  1  1  0  0  0
 29 30  1  0  0  0  0
 31 32  1  6  0  0  0
 31 40  1  0  0  0  0
 33 31  1  0  0  0  0
 33 42  1  6  0  0  0
 35 33  1  0  0  0  0
 35 36  1  1  0  0  0
 37 35  1  0  0  0  0
 37 38  1  6  0  0  0
 37 39  1  0  0  0  0
 39 40  1  0  0  0  0
 39 41  1  6  0  0  0
 41 34  1  0  0  0  0
M  END
>  <CHROM.1>
-175.99773616,-176.85910664,-166.53435755,-65.33411653,177.10940654,175.66260581
179.19844824,-62.60075398,-178.05932319,11.88129311,5.60002469,11.09683523
-0.28805452,-0.60338337,-2.01987938

>  <Name>
2et4_lig

>  <RI>
0

>  <Rbt.Current_Directory>
/home/itssahil/PROJECTS/Mol_Feturizer/New_Systems/rnas/2et4

>  <Rbt.Executable>
rbdock ($Id: //depot/dev/client3/rdock/2013.1/src/exe/rbdock.cxx#4 $)

>  <Rbt.Library>
libRbt.so (2013.1, Build901 2013/11/27)

>  <Rbt.Parameter_File>
/export/apps/rDock/src/rDock_2013.1_src/data/scripts/dock_solv.prm

>  <Rbt.Receptor>
prm/pocket_docking_5.prm

>  <SCORE>
-17.122

>  <SCORE.INTER>
-6.60372

>  <SCORE.INTER.CONST>
1

>  <SCORE.INTER.POLAR>
-1.78777

>  <SCORE.INTER.ROT>
9

>  <SCORE.INTER.SOLV>
16.9275

>  <SCORE.INTER.VDW>
-13.6858

>  <SCORE.INTER.norm>
-0.157231

>  <SCORE.INTRA>
-10.8309

>  <SCORE.INTRA.DIHEDRAL>
-20.2211

>  <SCORE.INTRA.DIHEDRAL.0>
21.6909

>  <SCORE.INTRA.POLAR>
0

>  <SCORE.INTRA.POLAR.0>
0

>  <SCORE.INTRA.REPUL>
0.0122379

>  <SCORE.INTRA.REPUL.0>
0

>  <SCORE.INTRA.SOLV>
-3.97736

>  <SCORE.INTRA.SOLV.lig_0>
-116.606

>  <SCORE.INTRA.VDW>
1.20719

>  <SCORE.INTRA.VDW.0>
-6.01229

>  <SCORE.INTRA.norm>
-0.257878

>  <SCORE.RESTR>
0.312631

>  <SCORE.RESTR.CAVITY>
0.312631

>  <SCORE.RESTR.norm>
0.0074436

>  <SCORE.SYSTEM>
0

>  <SCORE.SYSTEM.CONST>
0

>  <SCORE.SYSTEM.DIHEDRAL>
0

>  <SCORE.SYSTEM.SOLV>
0

>  <SCORE.SYSTEM.norm>
0

>  <SCORE.heavy>
42

>  <SCORE.norm>
-0.407666

>  <RMSD>
6.711

$$$$
2et4_lig
 OpenBabel11021811423D
libRbt.so/2013.1/901 2013/11/27
 42 45  0  0  0  0  0  0  0  0999 V2000
   16.2328    3.2099    8.6921 C   0  0  2  0  0  0  0  0  0  0  0  0
   16.6584    4.2295    7.7857 O   0  0  0  0  0  0  0  0  0  0  0  0
   17.4118    2.2158    8.8480 C   0  0  2  0  0  0  0  0  0  0  0  0
   18.6024    2.8815    9.3114 N   0  0  0  0  0  0  0  0  0  0  0  0
   17.6633    1.5007    7.4890 C   0  0  1  0  0  0  0  0  0  0  0  0
   18.7129    0.5960    7.6362 O   0  0  0  0  0  0  0  0  0  0  0  0
   16.3337    0.8007    7.0510 C   0  0  2  0  0  0  0  0  0  0  0  0
   16.5147    0.1431    5.8148 O   0  0  0  0  0  0  0  0  0  0  0  0
   15.1777    1.8380    6.9185 C   0  0  2  0  0  0  0  0  0  0  0  0
   15.0253    2.5061    8.1744 O   0  0  0  0  0  0  0  0  0  0  0  0
   13.8218    1.1674    6.5220 C   0  0  0  0  0  0  0  0  0  0  0  0
   13.8734    0.5752    5.2306 N   0  0  0  0  0  0  0  0  0  0  0  0
   15.0356    8.1738    7.1048 C   0  0  2  0  0  0  0  0  0  0  0  0
   14.1423    9.2376    6.6294 N   0  0  0  0  0  0  0  0  0  0  0  0
   15.6321    7.3587    5.8351 C   0  0  0  0  0  0  0  0  0  0  0  0
   16.5831    6.2039    6.3541 C   0  0  2  0  0  0  0  0  0  0  0  0
   17.1285    5.4193    5.2323 N   0  0  0  0  0  0  0  0  0  0  0  0
   15.7806    5.2602    7.3122 C   0  0  2  0  0  0  0  0  0  0  0  0
   15.1870    6.0642    8.5160 C   0  0  2  0  0  0  0  0  0  0  0  0
   14.4574    5.1107    9.3269 O   0  0  0  0  0  0  0  0  0  0  0  0
   14.2457    7.1938    7.9876 C   0  0  1  0  0  0  0  0  0  0  0  0
   13.7462    7.8974    9.0744 O   0  0  0  0  0  0  0  0  0  0  0  0
   13.5936    5.4249   10.3226 C   0  0  1  0  0  0  0  0  0  0  0  0
   13.1140    4.1505   11.0651 C   0  0  2  0  0  0  0  0  0  0  0  0
   12.0388    3.5186   10.4328 O   0  0  0  0  0  0  0  0  0  0  0  0
   12.9051    4.7354   12.4497 C   0  0  1  0  0  0  0  0  0  0  0  0
   14.0250    5.7621   12.6695 C   0  0  2  0  0  0  0  0  0  0  0  0
   14.1379    6.2961   11.3505 O   0  0  0  0  0  0  0  0  0  0  0  0
   15.3860    5.1778   13.1803 C   0  0  0  0  0  0  0  0  0  0  0  0
   15.9112    4.3200   12.1328 O   0  0  0  0  0  0  0  0  0  0  0  0
   11.1103    5.9142   13.6787 C   0  0  2  0  0  0  0  0  0  0  0  0
   11.5620    5.3714   12.4682 O   0  0  0  0  0  0  0  0  0  0  0  0
    9.5282    6.0782   13.6852 C   0  0  1  0  0  0  0  0  0  0  0  0
   11.9104   10.3168   14.2265 N   0  0  0  0  0  0  0  0  0  0  0  0
    9.1244    6.7285   15.1102 C   0  0  1  0  0  0  0  0  0  0  0  0
    9.6157    5.8038   16.2061 O   0  0  0  0  0  0  0  0  0  0  0  0
    9.8045    8.1917   15.2614 C   0  0  2  0  0  0  0  0  0  0  0  0
    9.3130    9.0579   14.2106 O   0  0  0  0  0  0  0  0  0  0  0  0
   11.4218    7.9872   15.2127 C   0  0  1  0  0  0  0  0  0  0  0  0
   11.7986    7.2868   13.9362 O   0  0  0  0  0  0  0  0  0  0  0  0
   12.1985    9.3456   15.3261 C   0  0  0  0  0  0  0  0  0  0  0  0
    9.0930    6.9087   12.5140 N   0  0  0  0  0  0  0  0  0  0  0  0
  1  2  1  6  0  0  0
  1  3  1  0  0  0  0
  1 10  1  0  0  0  0
  3  4  1  6  0  0  0
  3  5  1  0  0  0  0
  5  6  1  1  0  0  0
  5  7  1  0  0  0  0
  7  8  1  6  0  0  0
  7  9  1  0  0  0  0
  9 10  1  0  0  0  0
  9 11  1  1  0  0  0
 11 12  1  0  0  0  0
 13 14  1  6  0  0  0
 13 15  1  0  0  0  0
 13 21  1  0  0  0  0
 16 15  1  0  0  0  0
 16 17  1  6  0  0  0
 18  2  1  1  0  0  0
 18 16  1  0  0  0  0
 19 18  1  0  0  0  0
 19 20  1  1  0  0  0
 21 19  1  0  0  0  0
 21 22  1  1  0  0  0
 23 20  1  6  0  0  0
 23 24  1  0  0  0  0
 23 28  1  0  0  0  0
 24 25  1  6  0  0  0
 24 26  1  0  0  0  0
 26 27  1  0  0  0  0
 26 32  1  6  0  0  0
 27 28  1  0  0  0  0
 27 29  1  6  0  0  0
 29 30  1  0  0  0  0
 31 32  1  6  0  0  0
 31 40  1  0  0  0  0
 33 31  1  0  0  0  0
 33 42  1  6  0  0  0
 35 33  1  0  0  0  0
 35 36  1  1  0  0  0
 37 35  1  0  0  0  0
 37 38  1  6  0  0  0
 37 39  1  0  0  0  0
 39 40  1  0  0  0  0
 39 41  1  6  0  0  0
 41 34  1  0  0  0  0
M  END
>  <CHROM.1>
174.36221509,-64.41514285,179.42264999,-167.19917343,-174.11815612,176.21405649
65.02434165,-159.84440799,-61.02115272,13.93707301,5.17370672,10.21402258
0.25008553,-0.97433643,2.86418405

>  <Name>
2et4_lig

>  <RI>
0

>  <Rbt.Current_Directory>
/home/itssahil/PROJECTS/Mol_Feturizer/New_Systems/rnas/2et4

>  <Rbt.Executable>
rbdock ($Id: //depot/dev/client3/rdock/2013.1/src/exe/rbdock.cxx#4 $)

>  <Rbt.Library>
libRbt.so (2013.1, Build901 2013/11/27)

>  <Rbt.Parameter_File>
/export/apps/rDock/src/rDock_2013.1_src/data/scripts/dock_solv.prm

>  <Rbt.Receptor>
prm/pocket_docking_8.prm

>  <SCORE>
-18.052

>  <SCORE.INTER>
-10.1327

>  <SCORE.INTER.CONST>
1

>  <SCORE.INTER.POLAR>
-1.4946

>  <SCORE.INTER.ROT>
9

>  <SCORE.INTER.SOLV>
13.5162

>  <SCORE.INTER.VDW>
-15.8785

>  <SCORE.INTER.norm>
-0.241256

>  <SCORE.INTRA>
-7.9193

>  <SCORE.INTRA.DIHEDRAL>
-18.3729

>  <SCORE.INTRA.DIHEDRAL.0>
21.6909

>  <SCORE.INTRA.POLAR>
0

>  <SCORE.INTRA.POLAR.0>
0

>  <SCORE.INTRA.REPUL>
0

>  <SCORE.INTRA.REPUL.0>
0

>  <SCORE.INTRA.SOLV>
-1.65971

>  <SCORE.INTRA.SOLV.lig_0>
-116.606

>  <SCORE.INTRA.VDW>
2.09703

>  <SCORE.INTRA.VDW.0>
-6.01229

>  <SCORE.INTRA.norm>
-0.188555

>  <SCORE.RESTR>
0

>  <SCORE.RESTR.CAVITY>
0

>  <SCORE.RESTR.norm>
0

>  <SCORE.SYSTEM>
0

>  <SCORE.SYSTEM.CONST>
0

>  <SCORE.SYSTEM.DIHEDRAL>
0

>  <SCORE.SYSTEM.SOLV>
0

>  <SCORE.SYSTEM.norm>
0

>  <SCORE.heavy>
42

>  <SCORE.norm>
-0.42981

>  <RMSD>
6.761

$$$$
2et4_lig
 OpenBabel11021811423D
libRbt.so/2013.1/901 2013/11/27
 42 45  0  0  0  0  0  0  0  0999 V2000
   14.8149    6.9366   11.8419 C   0  0  2  0  0  0  0  0  0  0  0  0
   13.8620    5.8729   11.7911 O   0  0  0  0  0  0  0  0  0  0  0  0
   14.7932    7.5010   13.2854 C   0  0  2  0  0  0  0  0  0  0  0  0
   15.0833    6.4755   14.2548 N   0  0  0  0  0  0  0  0  0  0  0  0
   13.4083    8.1551   13.5600 C   0  0  1  0  0  0  0  0  0  0  0  0
   13.3972    8.6759   14.8525 O   0  0  0  0  0  0  0  0  0  0  0  0
   13.1633    9.2560   12.4747 C   0  0  2  0  0  0  0  0  0  0  0  0
   11.9103    9.8729   12.6820 O   0  0  0  0  0  0  0  0  0  0  0  0
   13.2050    8.6425   11.0423 C   0  0  2  0  0  0  0  0  0  0  0  0
   14.4733    8.0059   10.8613 O   0  0  0  0  0  0  0  0  0  0  0  0
   13.0050    9.7221    9.9288 C   0  0  0  0  0  0  0  0  0  0  0  0
   13.8830   10.8286   10.0902 N   0  0  0  0  0  0  0  0  0  0  0  0
   15.7242    3.0105    9.1466 C   0  0  2  0  0  0  0  0  0  0  0  0
   15.8875    1.8578    8.2519 N   0  0  0  0  0  0  0  0  0  0  0  0
   15.2268    2.4997   10.6039 C   0  0  0  0  0  0  0  0  0  0  0  0
   15.0386    3.7479   11.5600 C   0  0  2  0  0  0  0  0  0  0  0  0
   14.5615    3.3315   12.8907 N   0  0  0  0  0  0  0  0  0  0  0  0
   14.0101    4.7417   10.9219 C   0  0  2  0  0  0  0  0  0  0  0  0
   14.4881    5.2032    9.5055 C   0  0  2  0  0  0  0  0  0  0  0  0
   13.4687    6.1001    9.0001 O   0  0  0  0  0  0  0  0  0  0  0  0
   14.6613    3.9616    8.5728 C   0  0  1  0  0  0  0  0  0  0  0  0
   15.0984    4.3994    7.3306 O   0  0  0  0  0  0  0  0  0  0  0  0
   12.1920    5.7528    8.7069 C   0  0  1  0  0  0  0  0  0  0  0  0
   11.3522    6.9980    8.3201 C   0  0  2  0  0  0  0  0  0  0  0  0
   10.8345    7.6766    9.4276 O   0  0  0  0  0  0  0  0  0  0  0  0
   10.3871    6.3512    7.3439 C   0  0  1  0  0  0  0  0  0  0  0  0
   11.1863    5.2972    6.5648 C   0  0  2  0  0  0  0  0  0  0  0  0
   12.0514    4.8250    7.5974 O   0  0  0  0  0  0  0  0  0  0  0  0
   11.9897    5.8344    5.3316 C   0  0  0  0  0  0  0  0  0  0  0  0
   13.0172    6.7271    5.8378 O   0  0  0  0  0  0  0  0  0  0  0  0
    8.0912    5.4390    7.4802 C   0  0  2  0  0  0  0  0  0  0  0  0
    9.2919    5.7368    8.1388 O   0  0  0  0  0  0  0  0  0  0  0  0
    6.9813    4.9324    8.5006 C   0  0  1  0  0  0  0  0  0  0  0  0
    8.6031    3.3427    3.5404 N   0  0  0  0  0  0  0  0  0  0  0  0
    5.6565    4.5998    7.6340 C   0  0  1  0  0  0  0  0  0  0  0  0
    5.2409    5.8623    6.9054 O   0  0  0  0  0  0  0  0  0  0  0  0
    5.9739    3.4163    6.5734 C   0  0  2  0  0  0  0  0  0  0  0  0
    6.3588    2.2204    7.2929 O   0  0  0  0  0  0  0  0  0  0  0  0
    7.1400    3.9579    5.5700 C   0  0  1  0  0  0  0  0  0  0  0  0
    8.3409    4.3701    6.3762 O   0  0  0  0  0  0  0  0  0  0  0  0
    7.5550    2.8848    4.5034 C   0  0  0  0  0  0  0  0  0  0  0  0
    7.4929    3.7515    9.2717 N   0  0  0  0  0  0  0  0  0  0  0  0
  1  2  1  1  0  0  0
  1  3  1  0  0  0  0
  1 10  1  0  0  0  0
  3  4  1  1  0  0  0
  3  5  1  0  0  0  0
  5  6  1  1  0  0  0
  5  7  1  0  0  0  0
  7  8  1  1  0  0  0
  7  9  1  0  0  0  0
  9 10  1  0  0  0  0
  9 11  1  6  0  0  0
 11 12  1  0  0  0  0
 13 14  1  6  0  0  0
 13 15  1  0  0  0  0
 13 21  1  0  0  0  0
 16 15  1  0  0  0  0
 16 17  1  1  0  0  0
 18  2  1  1  0  0  0
 18 16  1  0  0  0  0
 19 18  1  0  0  0  0
 19 20  1  6  0  0  0
 21 19  1  0  0  0  0
 21 22  1  6  0  0  0
 23 20  1  6  0  0  0
 23 24  1  0  0  0  0
 23 28  1  0  0  0  0
 24 25  1  1  0  0  0
 24 26  1  0  0  0  0
 26 27  1  0  0  0  0
 26 32  1  1  0  0  0
 27 28  1  0  0  0  0
 27 29  1  6  0  0  0
 29 30  1  0  0  0  0
 31 32  1  1  0  0  0
 31 40  1  0  0  0  0
 33 31  1  0  0  0  0
 33 42  1  6  0  0  0
 35 33  1  0  0  0  0
 35 36  1  6  0  0  0
 37 35  1  0  0  0  0
 37 38  1  1  0  0  0
 37 39  1  0  0  0  0
 39 40  1  0  0  0  0
 39 41  1  6  0  0  0
 41 34  1  0  0  0  0
M  END
>  <CHROM.1>
-149.60730334,51.17444611,78.89667373,-64.86392649,174.55567879,161.01657167
65.31587895,-174.04893049,178.81808194,11.71947796,5.70680170,9.16411610
0.67648460,-0.33542297,0.71653779

>  <Name>
2et4_lig

>  <RI>
1.79929e+07

>  <Rbt.Current_Directory>
/home/itssahil/PROJECTS/Mol_Feturizer/New_Systems/rnas/2et4

>  <Rbt.Executable>
rbdock ($Id: //depot/dev/client3/rdock/2013.1/src/exe/rbdock.cxx#4 $)

>  <Rbt.Library>
libRbt.so (2013.1, Build901 2013/11/27)

>  <Rbt.Parameter_File>
/export/apps/rDock/src/rDock_2013.1_src/data/scripts/dock_solv.prm

>  <Rbt.Receptor>
prm/pocket_docking_7.prm

>  <SCORE>
-14.5254

>  <SCORE.INTER>
-8.06935

>  <SCORE.INTER.CONST>
1

>  <SCORE.INTER.POLAR>
-1.78379

>  <SCORE.INTER.ROT>
9

>  <SCORE.INTER.SOLV>
20.2044

>  <SCORE.INTER.VDW>
-15.7684

>  <SCORE.INTER.norm>
-0.192127

>  <SCORE.INTRA>
-6.4561

>  <SCORE.INTRA.DIHEDRAL>
-13.7975

>  <SCORE.INTRA.DIHEDRAL.0>
21.6909

>  <SCORE.INTRA.POLAR>
0

>  <SCORE.INTRA.POLAR.0>
0

>  <SCORE.INTRA.REPUL>
0

>  <SCORE.INTRA.REPUL.0>
0

>  <SCORE.INTRA.SOLV>
-0.0749601

>  <SCORE.INTRA.SOLV.lig_0>
-116.606

>  <SCORE.INTRA.VDW>
0.480144

>  <SCORE.INTRA.VDW.0>
-6.01229

>  <SCORE.INTRA.norm>
-0.153717

>  <SCORE.RESTR>
0

>  <SCORE.RESTR.CAVITY>
0

>  <SCORE.RESTR.norm>
0

>  <SCORE.SYSTEM>
0

>  <SCORE.SYSTEM.CONST>
0

>  <SCORE.SYSTEM.DIHEDRAL>
0

>  <SCORE.SYSTEM.SOLV>
0

>  <SCORE.SYSTEM.norm>
0

>  <SCORE.heavy>
42

>  <SCORE.norm>
-0.345844

>  <RMSD>
6.762

$$$$
2et4_lig
 OpenBabel11021811423D
libRbt.so/2013.1/901 2013/11/27
 42 45  0  0  0  0  0  0  0  0999 V2000
   12.3385    5.8213    7.4445 C   0  0  2  0  0  0  0  0  0  0  0  0
   12.4001    6.1284    6.0502 O   0  0  0  0  0  0  0  0  0  0  0  0
   12.6854    4.3183    7.5972 C   0  0  2  0  0  0  0  0  0  0  0  0
   13.9795    4.0186    7.0394 N   0  0  0  0  0  0  0  0  0  0  0  0
   11.5737    3.4638    6.9225 C   0  0  1  0  0  0  0  0  0  0  0  0
   11.8797    2.1130    7.0753 O   0  0  0  0  0  0  0  0  0  0  0  0
   10.2027    3.8393    7.5776 C   0  0  2  0  0  0  0  0  0  0  0  0
    9.1609    3.0902    6.9885 O   0  0  0  0  0  0  0  0  0  0  0  0
    9.9040    5.3598    7.4075 C   0  0  2  0  0  0  0  0  0  0  0  0
   10.9804    6.0988    7.9922 O   0  0  0  0  0  0  0  0  0  0  0  0
    8.5596    5.7796    8.0870 C   0  0  0  0  0  0  0  0  0  0  0  0
    7.4334    5.1679    7.4717 N   0  0  0  0  0  0  0  0  0  0  0  0
   13.0062    9.6763    3.6628 C   0  0  2  0  0  0  0  0  0  0  0  0
   12.8267   11.0349    3.1358 N   0  0  0  0  0  0  0  0  0  0  0  0
   11.6441    8.8236    3.4397 C   0  0  0  0  0  0  0  0  0  0  0  0
   11.8386    7.3643    4.0227 C   0  0  2  0  0  0  0  0  0  0  0  0
   10.6136    6.5605    3.8642 N   0  0  0  0  0  0  0  0  0  0  0  0
   12.2124    7.4559    5.5407 C   0  0  2  0  0  0  0  0  0  0  0  0
   13.5109    8.3047    5.7434 C   0  0  2  0  0  0  0  0  0  0  0  0
   13.7597    8.3404    7.1703 O   0  0  0  0  0  0  0  0  0  0  0  0
   13.3000    9.7430    5.1704 C   0  0  1  0  0  0  0  0  0  0  0  0
   14.4700   10.4669    5.3512 O   0  0  0  0  0  0  0  0  0  0  0  0
   13.2536    9.2544    8.0333 C   0  0  1  0  0  0  0  0  0  0  0  0
   11.8095    8.8792    8.4566 C   0  0  2  0  0  0  0  0  0  0  0  0
   10.8406    9.3123    7.5464 O   0  0  0  0  0  0  0  0  0  0  0  0
   11.8048    9.4594    9.8588 C   0  0  1  0  0  0  0  0  0  0  0  0
   13.2038    9.2169   10.4425 C   0  0  2  0  0  0  0  0  0  0  0  0
   13.9993    9.4026    9.2718 O   0  0  0  0  0  0  0  0  0  0  0  0
   13.4324    7.8063   11.0848 C   0  0  0  0  0  0  0  0  0  0  0  0
   13.2277    6.8159   10.0425 O   0  0  0  0  0  0  0  0  0  0  0  0
   10.7510   11.5063   10.7651 C   0  0  2  0  0  0  0  0  0  0  0  0
   11.4994   10.9091    9.7417 O   0  0  0  0  0  0  0  0  0  0  0  0
   10.9034   13.0893   10.7457 C   0  0  1  0  0  0  0  0  0  0  0  0
   10.8861    9.3138   14.6813 N   0  0  0  0  0  0  0  0  0  0  0  0
   10.0220   13.6659   11.9734 C   0  0  1  0  0  0  0  0  0  0  0  0
    8.5874   13.2193   11.7739 O   0  0  0  0  0  0  0  0  0  0  0  0
   10.5974   13.1003   13.3789 C   0  0  2  0  0  0  0  0  0  0  0  0
   11.9637   13.5475   13.5505 O   0  0  0  0  0  0  0  0  0  0  0  0
   10.4594   11.4756   13.3461 C   0  0  1  0  0  0  0  0  0  0  0  0
   11.1886   10.9365   12.1463 O   0  0  0  0  0  0  0  0  0  0  0  0
   11.0098   10.8036   14.6525 C   0  0  0  0  0  0  0  0  0  0  0  0
   12.3527   13.4671   10.8324 N   0  0  0  0  0  0  0  0  0  0  0  0
  1  2  1  6  0  0  0
  1  3  1  0  0  0  0
  1 10  1  0  0  0  0
  3  4  1  6  0  0  0
  3  5  1  0  0  0  0
  5  6  1  1  0  0  0
  5  7  1  0  0  0  0
  7  8  1  6  0  0  0
  7  9  1  0  0  0  0
  9 10  1  0  0  0  0
  9 11  1  1  0  0  0
 11 12  1  0  0  0  0
 13 14  1  1  0  0  0
 13 15  1  0  0  0  0
 13 21  1  0  0  0  0
 16 15  1  0  0  0  0
 16 17  1  1  0  0  0
 18  2  1  6  0  0  0
 18 16  1  0  0  0  0
 19 18  1  0  0  0  0
 19 20  1  1  0  0  0
 21 19  1  0  0  0  0
 21 22  1  6  0  0  0
 23 20  1  6  0  0  0
 23 24  1  0  0  0  0
 23 28  1  0  0  0  0
 24 25  1  6  0  0  0
 24 26  1  0  0  0  0
 26 27  1  0  0  0  0
 26 32  1  6  0  0  0
 27 28  1  0  0  0  0
 27 29  1  6  0  0  0
 29 30  1  0  0  0  0
 31 32  1  6  0  0  0
 31 40  1  0  0  0  0
 33 31  1  0  0  0  0
 33 42  1  1  0  0  0
 35 33  1  0  0  0  0
 35 36  1  6  0  0  0
 37 35  1  0  0  0  0
 37 38  1  6  0  0  0
 37 39  1  0  0  0  0
 39 40  1  0  0  0  0
 39 41  1  1  0  0  0
 41 34  1  0  0  0  0
M  END
>  <CHROM.1>
-176.21942593,-64.87662220,-160.07645737,-88.10613895,82.08109959,145.97945798
60.60958966,161.77663139,179.07697656,11.67313650,8.52084120,8.52168829,1.39926583
-1.20638209,-2.53033692

>  <Name>
2et4_lig

>  <RI>
1.79929e+07

>  <Rbt.Current_Directory>
/home/itssahil/PROJECTS/Mol_Feturizer/New_Systems/rnas/2et4

>  <Rbt.Executable>
rbdock ($Id: //depot/dev/client3/rdock/2013.1/src/exe/rbdock.cxx#4 $)

>  <Rbt.Library>
libRbt.so (2013.1, Build901 2013/11/27)

>  <Rbt.Parameter_File>
/export/apps/rDock/src/rDock_2013.1_src/data/scripts/dock_solv.prm

>  <Rbt.Receptor>
prm/pocket_docking_7.prm

>  <SCORE>
-15.1274

>  <SCORE.INTER>
-10.4322

>  <SCORE.INTER.CONST>
1

>  <SCORE.INTER.POLAR>
-1.76247

>  <SCORE.INTER.ROT>
9

>  <SCORE.INTER.SOLV>
16.3074

>  <SCORE.INTER.VDW>
-16.1157

>  <SCORE.INTER.norm>
-0.248385

>  <SCORE.INTRA>
-4.69526

>  <SCORE.INTRA.DIHEDRAL>
-8.35787

>  <SCORE.INTRA.DIHEDRAL.0>
21.6909

>  <SCORE.INTRA.POLAR>
0

>  <SCORE.INTRA.POLAR.0>
0

>  <SCORE.INTRA.REPUL>
0

>  <SCORE.INTRA.REPUL.0>
0

>  <SCORE.INTRA.SOLV>
-1.4046

>  <SCORE.INTRA.SOLV.lig_0>
-116.606

>  <SCORE.INTRA.VDW>
0.18597

>  <SCORE.INTRA.VDW.0>
-6.01229

>  <SCORE.INTRA.norm>
-0.111792

>  <SCORE.RESTR>
0

>  <SCORE.RESTR.CAVITY>
0

>  <SCORE.RESTR.norm>
0

>  <SCORE.SYSTEM>
0

>  <SCORE.SYSTEM.CONST>
0

>  <SCORE.SYSTEM.DIHEDRAL>
0

>  <SCORE.SYSTEM.SOLV>
0

>  <SCORE.SYSTEM.norm>
0

>  <SCORE.heavy>
42

>  <SCORE.norm>
-0.360177

>  <RMSD>
6.804

$$$$
2et4_lig
 OpenBabel11021811423D
libRbt.so/2013.1/901 2013/11/27
 42 45  0  0  0  0  0  0  0  0999 V2000
   12.1282   10.3469   10.8417 C   0  0  2  0  0  0  0  0  0  0  0  0
   12.8457    9.9119   11.9984 O   0  0  0  0  0  0  0  0  0  0  0  0
   12.6182   11.7800   10.5121 C   0  0  2  0  0  0  0  0  0  0  0  0
   14.0432   11.8126   10.3020 N   0  0  0  0  0  0  0  0  0  0  0  0
   12.1997   12.7425   11.6609 C   0  0  1  0  0  0  0  0  0  0  0  0
   12.6272   14.0329   11.3544 O   0  0  0  0  0  0  0  0  0  0  0  0
   10.6459   12.6566   11.8294 C   0  0  2  0  0  0  0  0  0  0  0  0
   10.2217   13.5117   12.8699 O   0  0  0  0  0  0  0  0  0  0  0  0
   10.2020   11.1969   12.1487 C   0  0  2  0  0  0  0  0  0  0  0  0
   10.6592   10.3457   11.0936 O   0  0  0  0  0  0  0  0  0  0  0  0
    8.6495   11.0653   12.2830 C   0  0  0  0  0  0  0  0  0  0  0  0
    8.1411   11.8085   13.3831 N   0  0  0  0  0  0  0  0  0  0  0  0
   15.3593    6.4150   12.3279 C   0  0  2  0  0  0  0  0  0  0  0  0
   15.7648    5.0185   12.5306 N   0  0  0  0  0  0  0  0  0  0  0  0
   14.6349    6.9696   13.6695 C   0  0  0  0  0  0  0  0  0  0  0  0
   14.1870    8.4710   13.4401 C   0  0  2  0  0  0  0  0  0  0  0  0
   13.4996    9.0084   14.6277 N   0  0  0  0  0  0  0  0  0  0  0  0
   13.2301    8.5453   12.2025 C   0  0  2  0  0  0  0  0  0  0  0  0
   13.9313    7.9807   10.9229 C   0  0  2  0  0  0  0  0  0  0  0  0
   12.9652    8.0798    9.8477 O   0  0  0  0  0  0  0  0  0  0  0  0
   14.3597    6.4974   11.1627 C   0  0  1  0  0  0  0  0  0  0  0  0
   14.9899    6.0287   10.0186 O   0  0  0  0  0  0  0  0  0  0  0  0
   11.9597    7.2026    9.6118 C   0  0  1  0  0  0  0  0  0  0  0  0
   10.7648    7.4567   10.5673 C   0  0  2  0  0  0  0  0  0  0  0  0
   10.9147    6.8356   11.8110 O   0  0  0  0  0  0  0  0  0  0  0  0
    9.6281    7.0159    9.6637 C   0  0  1  0  0  0  0  0  0  0  0  0
    9.9943    7.4641    8.2418 C   0  0  2  0  0  0  0  0  0  0  0  0
   11.4062    7.2554    8.2692 O   0  0  0  0  0  0  0  0  0  0  0  0
    9.6308    8.9461    7.8863 C   0  0  0  0  0  0  0  0  0  0  0  0
    8.1834    9.0595    7.9237 O   0  0  0  0  0  0  0  0  0  0  0  0
    8.5492    4.8934    8.9913 C   0  0  2  0  0  0  0  0  0  0  0  0
    9.5234    5.5370    9.7663 O   0  0  0  0  0  0  0  0  0  0  0  0
    8.3481    3.3839    9.4505 C   0  0  1  0  0  0  0  0  0  0  0  0
    7.5597    3.9919    4.0026 N   0  0  0  0  0  0  0  0  0  0  0  0
    7.2262    2.7383    8.4803 C   0  0  1  0  0  0  0  0  0  0  0  0
    5.9588    3.5586    8.6144 O   0  0  0  0  0  0  0  0  0  0  0  0
    7.7480    2.7552    6.9461 C   0  0  2  0  0  0  0  0  0  0  0  0
    8.9523    1.9583    6.8421 O   0  0  0  0  0  0  0  0  0  0  0  0
    7.9782    4.3137    6.5244 C   0  0  1  0  0  0  0  0  0  0  0  0
    8.9412    4.9543    7.4858 O   0  0  0  0  0  0  0  0  0  0  0  0
    8.5107    4.4621    5.0561 C   0  0  0  0  0  0  0  0  0  0  0  0
    9.6579    2.6539    9.4042 N   0  0  0  0  0  0  0  0  0  0  0  0
  1  2  1  1  0  0  0
  1  3  1  0  0  0  0
  1 10  1  0  0  0  0
  3  4  1  1  0  0  0
  3  5  1  0  0  0  0
  5  6  1  6  0  0  0
  5  7  1  0  0  0  0
  7  8  1  1  0  0  0
  7  9  1  0  0  0  0
  9 10  1  0  0  0  0
  9 11  1  6  0  0  0
 11 12  1  0  0  0  0
 13 14  1  1  0  0  0
 13 15  1  0  0  0  0
 13 21  1  0  0  0  0
 16 15  1  0  0  0  0
 16 17  1  1  0  0  0
 18  2  1  6  0  0  0
 18 16  1  0  0  0  0
 19 18  1  0  0  0  0
 19 20  1  6  0  0  0
 21 19  1  0  0  0  0
 21 22  1  6  0  0  0
 23 20  1  6  0  0  0
 23 24  1  0  0  0  0
 23 28  1  0  0  0  0
 24 25  1  1  0  0  0
 24 26  1  0  0  0  0
 26 27  1  0  0  0  0
 26 32  1  6  0  0  0
 27 28  1  0  0  0  0
 27 29  1  1  0  0  0
 29 30  1  0  0  0  0
 31 32  1  1  0  0  0
 31 40  1  0  0  0  0
 33 31  1  0  0  0  0
 33 42  1  6  0  0  0
 35 33  1  0  0  0  0
 35 36  1  6  0  0  0
 37 35  1  0  0  0  0
 37 38  1  1  0  0  0
 37 39  1  0  0  0  0
 39 40  1  0  0  0  0
 39 41  1  6  0  0  0
 41 34  1  0  0  0  0
M  END
>  <CHROM.1>
-146.06451119,-64.24090181,171.03100932,-81.09960734,79.39130599,-178.77183439
-64.71675938,-167.26673974,64.27452384,10.91781006,7.64293384,10.13819490
1.04536014,-0.51041708,0.32097287

>  <Name>
2et4_lig

>  <RI>
1.79929e+07

>  <Rbt.Current_Directory>
/home/itssahil/PROJECTS/Mol_Feturizer/New_Systems/rnas/2et4

>  <Rbt.Executable>
rbdock ($Id: //depot/dev/client3/rdock/2013.1/src/exe/rbdock.cxx#4 $)

>  <Rbt.Library>
libRbt.so (2013.1, Build901 2013/11/27)

>  <Rbt.Parameter_File>
/export/apps/rDock/src/rDock_2013.1_src/data/scripts/dock_solv.prm

>  <Rbt.Receptor>
prm/pocket_docking_7.prm

>  <SCORE>
-11.8153

>  <SCORE.INTER>
-6.81779

>  <SCORE.INTER.CONST>
1

>  <SCORE.INTER.POLAR>
-1.89725

>  <SCORE.INTER.ROT>
9

>  <SCORE.INTER.SOLV>
19.9161

>  <SCORE.INTER.VDW>
-14.4597

>  <SCORE.INTER.norm>
-0.162328

>  <SCORE.INTRA>
-5.183

>  <SCORE.INTRA.DIHEDRAL>
-12.1186

>  <SCORE.INTRA.DIHEDRAL.0>
21.6909

>  <SCORE.INTRA.POLAR>
0

>  <SCORE.INTRA.POLAR.0>
0

>  <SCORE.INTRA.REPUL>
0

>  <SCORE.INTRA.REPUL.0>
0

>  <SCORE.INTRA.SOLV>
-2.45785

>  <SCORE.INTRA.SOLV.lig_0>
-116.606

>  <SCORE.INTRA.VDW>
2.1052

>  <SCORE.INTRA.VDW.0>
-6.01229

>  <SCORE.INTRA.norm>
-0.123405

>  <SCORE.RESTR>
0.185449

>  <SCORE.RESTR.CAVITY>
0.185449

>  <SCORE.RESTR.norm>
0.00441545

>  <SCORE.SYSTEM>
0

>  <SCORE.SYSTEM.CONST>
0

>  <SCORE.SYSTEM.DIHEDRAL>
0

>  <SCORE.SYSTEM.SOLV>
0

>  <SCORE.SYSTEM.norm>
0

>  <SCORE.heavy>
42

>  <SCORE.norm>
-0.281318

>  <RMSD>
6.811

$$$$
2et4_lig
 OpenBabel11021811423D
libRbt.so/2013.1/901 2013/11/27
 42 45  0  0  0  0  0  0  0  0999 V2000
   18.3342    1.6346    5.3358 C   0  0  2  0  0  0  0  0  0  0  0  0
   17.1037    2.1705    5.8264 O   0  0  0  0  0  0  0  0  0  0  0  0
   19.3092    1.5539    6.5381 C   0  0  2  0  0  0  0  0  0  0  0  0
   18.7635    0.7530    7.6041 N   0  0  0  0  0  0  0  0  0  0  0  0
   19.6369    2.9931    7.0307 C   0  0  1  0  0  0  0  0  0  0  0  0
   20.5260    2.9183    8.1010 O   0  0  0  0  0  0  0  0  0  0  0  0
   20.2253    3.8005    5.8259 C   0  0  2  0  0  0  0  0  0  0  0  0
   20.5313    5.1192    6.2273 O   0  0  0  0  0  0  0  0  0  0  0  0
   19.2143    3.8443    4.6402 C   0  0  2  0  0  0  0  0  0  0  0  0
   18.9028    2.4997    4.2635 O   0  0  0  0  0  0  0  0  0  0  0  0
   19.7859    4.6088    3.4015 C   0  0  0  0  0  0  0  0  0  0  0  0
   20.8219    3.8822    2.7536 N   0  0  0  0  0  0  0  0  0  0  0  0
   14.7918    2.7295    2.2212 C   0  0  2  0  0  0  0  0  0  0  0  0
   13.6477    2.9957    1.3405 N   0  0  0  0  0  0  0  0  0  0  0  0
   14.4766    1.4318    3.1426 C   0  0  0  0  0  0  0  0  0  0  0  0
   15.7076    1.1582    4.1003 C   0  0  2  0  0  0  0  0  0  0  0  0
   15.4534    0.0003    4.9757 N   0  0  0  0  0  0  0  0  0  0  0  0
   15.9777    2.4280    4.9762 C   0  0  2  0  0  0  0  0  0  0  0  0
   16.2514    3.6773    4.0750 C   0  0  2  0  0  0  0  0  0  0  0  0
   16.4724    4.7918    4.9740 O   0  0  0  0  0  0  0  0  0  0  0  0
   15.0252    3.9382    3.1423 C   0  0  1  0  0  0  0  0  0  0  0  0
   15.3016    5.0410    2.3467 O   0  0  0  0  0  0  0  0  0  0  0  0
   15.5494    5.3172    5.8155 C   0  0  1  0  0  0  0  0  0  0  0  0
   16.2184    6.2370    6.8700 C   0  0  2  0  0  0  0  0  0  0  0  0
   16.7161    5.5363    7.9729 O   0  0  0  0  0  0  0  0  0  0  0  0
   15.0899    7.2287    7.0840 C   0  0  1  0  0  0  0  0  0  0  0  0
   14.4292    7.4487    5.7158 C   0  0  2  0  0  0  0  0  0  0  0  0
   14.5320    6.1323    5.1734 O   0  0  0  0  0  0  0  0  0  0  0  0
   15.1187    8.5135    4.7964 C   0  0  0  0  0  0  0  0  0  0  0  0
   14.9770    9.8050    5.4454 O   0  0  0  0  0  0  0  0  0  0  0  0
   13.0020    7.3607    8.4049 C   0  0  2  0  0  0  0  0  0  0  0  0
   14.1462    6.6276    8.0622 O   0  0  0  0  0  0  0  0  0  0  0  0
   13.3842    8.7795    9.0137 C   0  0  1  0  0  0  0  0  0  0  0  0
   10.8600    5.9726   12.1261 N   0  0  0  0  0  0  0  0  0  0  0  0
   11.9979    9.5232    9.3905 C   0  0  1  0  0  0  0  0  0  0  0  0
   11.1672    9.6390    8.1279 O   0  0  0  0  0  0  0  0  0  0  0  0
   11.2005    8.6680   10.5125 C   0  0  2  0  0  0  0  0  0  0  0  0
   12.0092    8.5796   11.7101 O   0  0  0  0  0  0  0  0  0  0  0  0
   10.8597    7.2099    9.8662 C   0  0  1  0  0  0  0  0  0  0  0  0
   12.1352    6.5531    9.4150 O   0  0  0  0  0  0  0  0  0  0  0  0
   10.1032    6.2735   10.8722 C   0  0  0  0  0  0  0  0  0  0  0  0
   14.2977    8.6043   10.1908 N   0  0  0  0  0  0  0  0  0  0  0  0
  1  2  1  1  0  0  0
  1  3  1  0  0  0  0
  1 10  1  0  0  0  0
  3  4  1  1  0  0  0
  3  5  1  0  0  0  0
  5  6  1  1  0  0  0
  5  7  1  0  0  0  0
  7  8  1  1  0  0  0
  7  9  1  0  0  0  0
  9 10  1  0  0  0  0
  9 11  1  6  0  0  0
 11 12  1  0  0  0  0
 13 14  1  6  0  0  0
 13 15  1  0  0  0  0
 13 21  1  0  0  0  0
 16 15  1  0  0  0  0
 16 17  1  1  0  0  0
 18  2  1  1  0  0  0
 18 16  1  0  0  0  0
 19 18  1  0  0  0  0
 19 20  1  1  0  0  0
 21 19  1  0  0  0  0
 21 22  1  6  0  0  0
 23 20  1  6  0  0  0
 23 24  1  0  0  0  0
 23 28  1  0  0  0  0
 24 25  1  1  0  0  0
 24 26  1  0  0  0  0
 26 27  1  0  0  0  0
 26 32  1  1  0  0  0
 27 28  1  0  0  0  0
 27 29  1  6  0  0  0
 29 30  1  0  0  0  0
 31 32  1  1  0  0  0
 31 40  1  0  0  0  0
 33 31  1  0  0  0  0
 33 42  1  1  0  0  0
 35 33  1  0  0  0  0
 35 36  1  6  0  0  0
 37 35  1  0  0  0  0
 37 38  1  1  0  0  0
 37 39  1  0  0  0  0
 39 40  1  0  0  0  0
 39 41  1  1  0  0  0
 41 34  1  0  0  0  0
M  END
>  <CHROM.1>
177.89314605,70.68620397,49.17890676,-64.89186504,165.38907691,-179.07982819
-65.44508791,-58.37463329,-60.42416939,15.57903184,5.12760193,6.43080193
-0.78185157,-0.44186260,1.15921524

>  <Name>
2et4_lig

>  <RI>
0

>  <Rbt.Current_Directory>
/home/itssahil/PROJECTS/Mol_Feturizer/New_Systems/rnas/2et4

>  <Rbt.Executable>
rbdock ($Id: //depot/dev/client3/rdock/2013.1/src/exe/rbdock.cxx#4 $)

>  <Rbt.Library>
libRbt.so (2013.1, Build901 2013/11/27)

>  <Rbt.Parameter_File>
/export/apps/rDock/src/rDock_2013.1_src/data/scripts/dock_solv.prm

>  <Rbt.Receptor>
prm/pocket_docking_8.prm

>  <SCORE>
-13.0269

>  <SCORE.INTER>
-4.27928

>  <SCORE.INTER.CONST>
1

>  <SCORE.INTER.POLAR>
-2.65762

>  <SCORE.INTER.ROT>
9

>  <SCORE.INTER.SOLV>
14.8412

>  <SCORE.INTER.VDW>
-8.54119

>  <SCORE.INTER.norm>
-0.101888

>  <SCORE.INTRA>
-8.74763

>  <SCORE.INTRA.DIHEDRAL>
-19.2747

>  <SCORE.INTRA.DIHEDRAL.0>
21.6909

>  <SCORE.INTRA.POLAR>
0

>  <SCORE.INTRA.POLAR.0>
0

>  <SCORE.INTRA.REPUL>
0

>  <SCORE.INTRA.REPUL.0>
0

>  <SCORE.INTRA.SOLV>
-1.09585

>  <SCORE.INTRA.SOLV.lig_0>
-116.606

>  <SCORE.INTRA.VDW>
1.43767

>  <SCORE.INTRA.VDW.0>
-6.01229

>  <SCORE.INTRA.norm>
-0.208277

>  <SCORE.RESTR>
0

>  <SCORE.RESTR.CAVITY>
0

>  <SCORE.RESTR.norm>
0

>  <SCORE.SYSTEM>
0

>  <SCORE.SYSTEM.CONST>
0

>  <SCORE.SYSTEM.DIHEDRAL>
0

>  <SCORE.SYSTEM.SOLV>
0

>  <SCORE.SYSTEM.norm>
0

>  <SCORE.heavy>
42

>  <SCORE.norm>
-0.310165

>  <RMSD>
6.829

$$$$
2et4_lig
 OpenBabel11021811423D
libRbt.so/2013.1/901 2013/11/27
 42 45  0  0  0  0  0  0  0  0999 V2000
   15.6414    5.6849    9.4773 C   0  0  2  0  0  0  0  0  0  0  0  0
   15.5123    5.3978    8.0833 O   0  0  0  0  0  0  0  0  0  0  0  0
   16.8945    4.9273    9.9857 C   0  0  2  0  0  0  0  0  0  0  0  0
   18.0729    5.3074    9.2493 N   0  0  0  0  0  0  0  0  0  0  0  0
   16.6429    3.3949    9.8872 C   0  0  1  0  0  0  0  0  0  0  0  0
   17.7645    2.7164   10.3599 O   0  0  0  0  0  0  0  0  0  0  0  0
   15.3547    3.0567   10.7092 C   0  0  2  0  0  0  0  0  0  0  0  0
   15.0838    1.6726   10.6412 O   0  0  0  0  0  0  0  0  0  0  0  0
   14.1265    3.8494   10.1678 C   0  0  2  0  0  0  0  0  0  0  0  0
   14.4300    5.2462   10.2266 O   0  0  0  0  0  0  0  0  0  0  0  0
   12.8283    3.5674   10.9927 C   0  0  0  0  0  0  0  0  0  0  0  0
   11.6848    4.1922   10.4242 N   0  0  0  0  0  0  0  0  0  0  0  0
   13.9063    7.6539    4.7689 C   0  0  2  0  0  0  0  0  0  0  0  0
   12.9378    8.3365    3.9018 N   0  0  0  0  0  0  0  0  0  0  0  0
   13.5110    6.0854    4.8939 C   0  0  0  0  0  0  0  0  0  0  0  0
   14.5501    5.3575    5.8415 C   0  0  2  0  0  0  0  0  0  0  0  0
   14.2137    3.9320    6.0044 N   0  0  0  0  0  0  0  0  0  0  0  0
   14.5564    6.0578    7.2422 C   0  0  2  0  0  0  0  0  0  0  0  0
   14.9104    7.5755    7.1035 C   0  0  2  0  0  0  0  0  0  0  0  0
   14.8751    8.1294    8.4418 O   0  0  0  0  0  0  0  0  0  0  0  0
   13.8721    8.2802    6.1726 C   0  0  1  0  0  0  0  0  0  0  0  0
   14.2188    9.6189    6.0572 O   0  0  0  0  0  0  0  0  0  0  0  0
   13.7690    8.5975    9.0692 C   0  0  1  0  0  0  0  0  0  0  0  0
   12.7772    7.4464    9.3801 C   0  0  2  0  0  0  0  0  0  0  0  0
   11.9428    7.1345    8.3023 O   0  0  0  0  0  0  0  0  0  0  0  0
   12.1541    7.9939   10.6509 C   0  0  1  0  0  0  0  0  0  0  0  0
   13.2768    8.6974   11.4263 C   0  0  2  0  0  0  0  0  0  0  0  0
   14.0204    9.2528   10.3417 O   0  0  0  0  0  0  0  0  0  0  0  0
   14.1621    7.7680   12.3247 C   0  0  0  0  0  0  0  0  0  0  0  0
   15.4175    7.5561   11.6261 O   0  0  0  0  0  0  0  0  0  0  0  0
    9.9967    9.1101   11.1210 C   0  0  2  0  0  0  0  0  0  0  0  0
   11.0820    8.9420   10.2504 O   0  0  0  0  0  0  0  0  0  0  0  0
    8.9612   10.1771   10.5562 C   0  0  1  0  0  0  0  0  0  0  0  0
    9.1796   10.2303   16.0955 N   0  0  0  0  0  0  0  0  0  0  0  0
    7.7711   10.3055   11.6443 C   0  0  1  0  0  0  0  0  0  0  0  0
    7.1497    8.9351   11.8267 O   0  0  0  0  0  0  0  0  0  0  0  0
    8.3664   10.8456   13.0515 C   0  0  2  0  0  0  0  0  0  0  0  0
    8.9450   12.1579   12.8534 O   0  0  0  0  0  0  0  0  0  0  0  0
    9.4491    9.7461   13.5793 C   0  0  1  0  0  0  0  0  0  0  0  0
   10.5050    9.5405   12.5282 O   0  0  0  0  0  0  0  0  0  0  0  0
   10.1184   10.1703   14.9333 C   0  0  0  0  0  0  0  0  0  0  0  0
    9.6584   11.4784   10.2892 N   0  0  0  0  0  0  0  0  0  0  0  0
  1  2  1  6  0  0  0
  1  3  1  0  0  0  0
  1 10  1  0  0  0  0
  3  4  1  6  0  0  0
  3  5  1  0  0  0  0
  5  6  1  1  0  0  0
  5  7  1  0  0  0  0
  7  8  1  6  0  0  0
  7  9  1  0  0  0  0
  9 10  1  0  0  0  0
  9 11  1  1  0  0  0
 11 12  1  0  0  0  0
 13 14  1  6  0  0  0
 13 15  1  0  0  0  0
 13 21  1  0  0  0  0
 16 15  1  0  0  0  0
 16 17  1  1  0  0  0
 18  2  1  1  0  0  0
 18 16  1  0  0  0  0
 19 18  1  0  0  0  0
 19 20  1  1  0  0  0
 21 19  1  0  0  0  0
 21 22  1  6  0  0  0
 23 20  1  1  0  0  0
 23 24  1  0  0  0  0
 23 28  1  0  0  0  0
 24 25  1  6  0  0  0
 24 26  1  0  0  0  0
 26 27  1  0  0  0  0
 26 32  1  6  0  0  0
 27 28  1  0  0  0  0
 27 29  1  6  0  0  0
 29 30  1  0  0  0  0
 31 32  1  6  0  0  0
 31 40  1  0  0  0  0
 33 31  1  0  0  0  0
 33 42  1  1  0  0  0
 35 33  1  0  0  0  0
 35 36  1  1  0  0  0
 37 35  1  0  0  0  0
 37 38  1  6  0  0  0
 37 39  1  0  0  0  0
 39 40  1  0  0  0  0
 39 41  1  1  0  0  0
 41 34  1  0  0  0  0
M  END
>  <CHROM.1>
-172.23596131,-174.53512355,-171.89660206,-85.96376595,67.52685198,151.49828925
102.97881086,178.82927771,65.45530623,12.96630555,7.29338108,9.84198858,-0.26263277
-0.80968276,1.89332494

>  <Name>
2et4_lig

>  <RI>
0

>  <Rbt.Current_Directory>
/home/itssahil/PROJECTS/Mol_Feturizer/New_Systems/rnas/2et4

>  <Rbt.Executable>
rbdock ($Id: //depot/dev/client3/rdock/2013.1/src/exe/rbdock.cxx#4 $)

>  <Rbt.Library>
libRbt.so (2013.1, Build901 2013/11/27)

>  <Rbt.Parameter_File>
/export/apps/rDock/src/rDock_2013.1_src/data/scripts/dock_solv.prm

>  <Rbt.Receptor>
prm/pocket_docking_8.prm

>  <SCORE>
-19.3764

>  <SCORE.INTER>
-14.0064

>  <SCORE.INTER.CONST>
1

>  <SCORE.INTER.POLAR>
-2.35712

>  <SCORE.INTER.ROT>
9

>  <SCORE.INTER.SOLV>
11.9997

>  <SCORE.INTER.VDW>
-15.0804

>  <SCORE.INTER.norm>
-0.333485

>  <SCORE.INTRA>
-5.36999

>  <SCORE.INTRA.DIHEDRAL>
-10.1686

>  <SCORE.INTRA.DIHEDRAL.0>
21.6909

>  <SCORE.INTRA.POLAR>
0

>  <SCORE.INTRA.POLAR.0>
0

>  <SCORE.INTRA.REPUL>
0

>  <SCORE.INTRA.REPUL.0>
0

>  <SCORE.INTRA.SOLV>
-0.832159

>  <SCORE.INTRA.SOLV.lig_0>
-116.606

>  <SCORE.INTRA.VDW>
0.130377

>  <SCORE.INTRA.VDW.0>
-6.01229

>  <SCORE.INTRA.norm>
-0.127857

>  <SCORE.RESTR>
0

>  <SCORE.RESTR.CAVITY>
0

>  <SCORE.RESTR.norm>
0

>  <SCORE.SYSTEM>
0

>  <SCORE.SYSTEM.CONST>
0

>  <SCORE.SYSTEM.DIHEDRAL>
0

>  <SCORE.SYSTEM.SOLV>
0

>  <SCORE.SYSTEM.norm>
0

>  <SCORE.heavy>
42

>  <SCORE.norm>
-0.461342

>  <RMSD>
6.844

$$$$
2et4_lig
 OpenBabel11021811423D
libRbt.so/2013.1/901 2013/11/27
 42 45  0  0  0  0  0  0  0  0999 V2000
   15.4985    5.8727    9.3209 C   0  0  2  0  0  0  0  0  0  0  0  0
   15.2106    5.5250    7.9650 O   0  0  0  0  0  0  0  0  0  0  0  0
   17.0335    6.0589    9.4288 C   0  0  2  0  0  0  0  0  0  0  0  0
   17.5073    7.0597    8.5071 N   0  0  0  0  0  0  0  0  0  0  0  0
   17.7351    4.6924    9.1805 C   0  0  1  0  0  0  0  0  0  0  0  0
   19.1139    4.8593    9.2941 O   0  0  0  0  0  0  0  0  0  0  0  0
   17.1752    3.6598   10.2150 C   0  0  2  0  0  0  0  0  0  0  0  0
   17.7813    2.3994   10.0207 O   0  0  0  0  0  0  0  0  0  0  0  0
   15.6295    3.5155   10.0745 C   0  0  2  0  0  0  0  0  0  0  0  0
   15.0381    4.8058   10.2543 O   0  0  0  0  0  0  0  0  0  0  0  0
   15.0292    2.5214   11.1217 C   0  0  0  0  0  0  0  0  0  0  0  0
   15.5214    1.1988   10.9496 N   0  0  0  0  0  0  0  0  0  0  0  0
   13.9125    8.0367    4.6999 C   0  0  2  0  0  0  0  0  0  0  0  0
   13.0378    8.8449    3.8412 N   0  0  0  0  0  0  0  0  0  0  0  0
   13.3483    6.5172    4.7716 C   0  0  0  0  0  0  0  0  0  0  0  0
   14.2870    5.6540    5.7103 C   0  0  2  0  0  0  0  0  0  0  0  0
   13.7961    4.2692    5.8251 N   0  0  0  0  0  0  0  0  0  0  0  0
   14.3455    6.3087    7.1317 C   0  0  2  0  0  0  0  0  0  0  0  0
   14.8634    7.7824    7.0442 C   0  0  2  0  0  0  0  0  0  0  0  0
   14.8658    8.2980    8.3982 O   0  0  0  0  0  0  0  0  0  0  0  0
   13.9227    8.6221    6.1215 C   0  0  1  0  0  0  0  0  0  0  0  0
   14.4137    9.9181    6.0517 O   0  0  0  0  0  0  0  0  0  0  0  0
   13.7952    8.8258    9.0397 C   0  0  1  0  0  0  0  0  0  0  0  0
   12.6253    7.8091    9.0980 C   0  0  2  0  0  0  0  0  0  0  0  0
   11.8391    7.8101    7.9418 O   0  0  0  0  0  0  0  0  0  0  0  0
   11.9937    8.2347   10.4105 C   0  0  1  0  0  0  0  0  0  0  0  0
   13.1445    8.6192   11.3510 C   0  0  2  0  0  0  0  0  0  0  0  0
   14.0417    9.2192   10.4167 O   0  0  0  0  0  0  0  0  0  0  0  0
   13.8138    7.4298   12.1205 C   0  0  0  0  0  0  0  0  0  0  0  0
   13.2054    6.2027   11.6377 O   0  0  0  0  0  0  0  0  0  0  0  0
    9.9352    9.5227   10.8852 C   0  0  2  0  0  0  0  0  0  0  0  0
   11.1049    9.3911   10.1246 O   0  0  0  0  0  0  0  0  0  0  0  0
    9.1361   10.8413   10.4948 C   0  0  1  0  0  0  0  0  0  0  0  0
   10.5730   10.7553   15.1701 N   0  0  0  0  0  0  0  0  0  0  0  0
    7.8270   10.9010   11.4433 C   0  0  1  0  0  0  0  0  0  0  0  0
    7.0171    9.6415   11.2083 O   0  0  0  0  0  0  0  0  0  0  0  0
    8.2759   10.9999   12.9973 C   0  0  2  0  0  0  0  0  0  0  0  0
    9.0388   12.2140   13.1980 O   0  0  0  0  0  0  0  0  0  0  0  0
    9.1227    9.6512   13.3491 C   0  0  1  0  0  0  0  0  0  0  0  0
   10.2850    9.5300   12.4023 O   0  0  0  0  0  0  0  0  0  0  0  0
    9.6373    9.6395   14.8311 C   0  0  0  0  0  0  0  0  0  0  0  0
   10.0239   12.0420   10.6395 N   0  0  0  0  0  0  0  0  0  0  0  0
  1  2  1  6  0  0  0
  1  3  1  0  0  0  0
  1 10  1  0  0  0  0
  3  4  1  6  0  0  0
  3  5  1  0  0  0  0
  5  6  1  1  0  0  0
  5  7  1  0  0  0  0
  7  8  1  6  0  0  0
  7  9  1  0  0  0  0
  9 10  1  0  0  0  0
  9 11  1  1  0  0  0
 11 12  1  0  0  0  0
 13 14  1  6  0  0  0
 13 15  1  0  0  0  0
 13 21  1  0  0  0  0
 16 15  1  0  0  0  0
 16 17  1  1  0  0  0
 18  2  1  1  0  0  0
 18 16  1  0  0  0  0
 19 18  1  0  0  0  0
 19 20  1  1  0  0  0
 21 19  1  0  0  0  0
 21 22  1  6  0  0  0
 23 20  1  1  0  0  0
 23 24  1  0  0  0  0
 23 28  1  0  0  0  0
 24 25  1  6  0  0  0
 24 26  1  0  0  0  0
 26 27  1  0  0  0  0
 26 32  1  6  0  0  0
 27 28  1  0  0  0  0
 27 29  1  6  0  0  0
 29 30  1  0  0  0  0
 31 32  1  6  0  0  0
 31 40  1  0  0  0  0
 33 31  1  0  0  0  0
 33 42  1  1  0  0  0
 35 33  1  0  0  0  0
 35 36  1  1  0  0  0
 37 35  1  0  0  0  0
 37 38  1  6  0  0  0
 37 39  1  0  0  0  0
 39 40  1  0  0  0  0
 39 41  1  1  0  0  0
 41 34  1  0  0  0  0
M  END
>  <CHROM.1>
-120.89418637,-62.96933029,178.69392779,-83.72116461,57.64240679,146.44774878
4.55613758,177.54201876,-61.58168648,13.23131834,7.51892703,9.65619715,-0.20311970
-0.76491168,1.86345634

>  <Name>
2et4_lig

>  <RI>
0

>  <Rbt.Current_Directory>
/home/itssahil/PROJECTS/Mol_Feturizer/New_Systems/rnas/2et4

>  <Rbt.Executable>
rbdock ($Id: //depot/dev/client3/rdock/2013.1/src/exe/rbdock.cxx#4 $)

>  <Rbt.Library>
libRbt.so (2013.1, Build901 2013/11/27)

>  <Rbt.Parameter_File>
/export/apps/rDock/src/rDock_2013.1_src/data/scripts/dock_solv.prm

>  <Rbt.Receptor>
prm/pocket_docking_8.prm

>  <SCORE>
-10.0964

>  <SCORE.INTER>
-11.4297

>  <SCORE.INTER.CONST>
1

>  <SCORE.INTER.POLAR>
-1.6961

>  <SCORE.INTER.ROT>
9

>  <SCORE.INTER.SOLV>
20.1855

>  <SCORE.INTER.VDW>
-18.2946

>  <SCORE.INTER.norm>
-0.272135

>  <SCORE.INTRA>
1.33326

>  <SCORE.INTRA.DIHEDRAL>
-2.52864

>  <SCORE.INTRA.DIHEDRAL.0>
21.6909

>  <SCORE.INTRA.POLAR>
0

>  <SCORE.INTRA.POLAR.0>
0

>  <SCORE.INTRA.REPUL>
0

>  <SCORE.INTRA.REPUL.0>
0

>  <SCORE.INTRA.SOLV>
1.34432

>  <SCORE.INTRA.SOLV.lig_0>
-116.606

>  <SCORE.INTRA.VDW>
1.92542

>  <SCORE.INTRA.VDW.0>
-6.01229

>  <SCORE.INTRA.norm>
0.0317442

>  <SCORE.RESTR>
0

>  <SCORE.RESTR.CAVITY>
0

>  <SCORE.RESTR.norm>
0

>  <SCORE.SYSTEM>
0

>  <SCORE.SYSTEM.CONST>
0

>  <SCORE.SYSTEM.DIHEDRAL>
0

>  <SCORE.SYSTEM.SOLV>
0

>  <SCORE.SYSTEM.norm>
0

>  <SCORE.heavy>
42

>  <SCORE.norm>
-0.240391

>  <RMSD>
6.861

$$$$
2et4_lig
 OpenBabel11021811423D
libRbt.so/2013.1/901 2013/11/27
 42 45  0  0  0  0  0  0  0  0999 V2000
   16.5940    4.1517    9.4190 C   0  0  2  0  0  0  0  0  0  0  0  0
   15.4930    4.1342    8.5082 O   0  0  0  0  0  0  0  0  0  0  0  0
   16.6541    2.7558   10.0901 C   0  0  2  0  0  0  0  0  0  0  0  0
   16.7859    1.7074    9.1108 N   0  0  0  0  0  0  0  0  0  0  0  0
   15.3820    2.5503   10.9623 C   0  0  1  0  0  0  0  0  0  0  0  0
   15.4463    1.3015   11.5771 O   0  0  0  0  0  0  0  0  0  0  0  0
   15.3063    3.7195   12.0002 C   0  0  2  0  0  0  0  0  0  0  0  0
   14.1591    3.5765   12.8108 O   0  0  0  0  0  0  0  0  0  0  0  0
   15.2585    5.1003   11.2785 C   0  0  2  0  0  0  0  0  0  0  0  0
   16.4179    5.2153   10.4482 O   0  0  0  0  0  0  0  0  0  0  0  0
   15.2242    6.2953   12.2866 C   0  0  0  0  0  0  0  0  0  0  0  0
   14.1041    6.2289   13.1596 N   0  0  0  0  0  0  0  0  0  0  0  0
   15.4279    8.1574    6.9382 C   0  0  2  0  0  0  0  0  0  0  0  0
   15.1171    9.2946    6.0630 N   0  0  0  0  0  0  0  0  0  0  0  0
   16.2000    7.0126    6.0863 C   0  0  0  0  0  0  0  0  0  0  0  0
   16.5197    5.7830    7.0314 C   0  0  2  0  0  0  0  0  0  0  0  0
   17.2000    4.7057    6.2909 N   0  0  0  0  0  0  0  0  0  0  0  0
   15.1858    5.2366    7.6436 C   0  0  2  0  0  0  0  0  0  0  0  0
   14.4379    6.3582    8.4374 C   0  0  2  0  0  0  0  0  0  0  0  0
   13.2207    5.7593    8.9462 O   0  0  0  0  0  0  0  0  0  0  0  0
   14.1231    7.5599    7.4897 C   0  0  1  0  0  0  0  0  0  0  0  0
   13.4736    8.5429    8.2228 O   0  0  0  0  0  0  0  0  0  0  0  0
   12.1396    6.4400    9.3981 C   0  0  1  0  0  0  0  0  0  0  0  0
   10.8392    5.6218    9.1862 C   0  0  2  0  0  0  0  0  0  0  0  0
   10.3018    5.7674    7.9036 O   0  0  0  0  0  0  0  0  0  0  0  0
   10.0376    6.1204   10.3743 C   0  0  1  0  0  0  0  0  0  0  0  0
   11.0291    6.3007   11.5324 C   0  0  2  0  0  0  0  0  0  0  0  0
   12.1715    6.7659   10.8139 O   0  0  0  0  0  0  0  0  0  0  0  0
   11.3463    5.0072   12.3575 C   0  0  0  0  0  0  0  0  0  0  0  0
   11.8264    4.0033   11.4243 O   0  0  0  0  0  0  0  0  0  0  0  0
    8.5840    8.0479   10.9157 C   0  0  2  0  0  0  0  0  0  0  0  0
    9.4088    7.4082    9.9806 O   0  0  0  0  0  0  0  0  0  0  0  0
    7.9871    9.4013   10.3311 C   0  0  1  0  0  0  0  0  0  0  0  0
   10.7306   10.0920   14.3232 N   0  0  0  0  0  0  0  0  0  0  0  0
    7.0765   10.0599   11.4945 C   0  0  1  0  0  0  0  0  0  0  0  0
    5.9966    9.0640   11.8680 O   0  0  0  0  0  0  0  0  0  0  0  0
    7.9945   10.4051   12.7846 C   0  0  2  0  0  0  0  0  0  0  0  0
    9.0109   11.3638   12.4051 O   0  0  0  0  0  0  0  0  0  0  0  0
    8.6176    9.0008   13.3320 C   0  0  1  0  0  0  0  0  0  0  0  0
    9.3800    8.3272   12.2243 O   0  0  0  0  0  0  0  0  0  0  0  0
    9.5520    9.2072   14.5752 C   0  0  0  0  0  0  0  0  0  0  0  0
    9.0996   10.2985    9.8746 N   0  0  0  0  0  0  0  0  0  0  0  0
  1  2  1  6  0  0  0
  1  3  1  0  0  0  0
  1 10  1  0  0  0  0
  3  4  1  6  0  0  0
  3  5  1  0  0  0  0
  5  6  1  1  0  0  0
  5  7  1  0  0  0  0
  7  8  1  6  0  0  0
  7  9  1  0  0  0  0
  9 10  1  0  0  0  0
  9 11  1  1  0  0  0
 11 12  1  0  0  0  0
 13 14  1  6  0  0  0
 13 15  1  0  0  0  0
 13 21  1  0  0  0  0
 16 15  1  0  0  0  0
 16 17  1  6  0  0  0
 18  2  1  1  0  0  0
 18 16  1  0  0  0  0
 19 18  1  0  0  0  0
 19 20  1  6  0  0  0
 21 19  1  0  0  0  0
 21 22  1  1  0  0  0
 23 20  1  1  0  0  0
 23 24  1  0  0  0  0
 23 28  1  0  0  0  0
 24 25  1  6  0  0  0
 24 26  1  0  0  0  0
 26 27  1  0  0  0  0
 26 32  1  6  0  0  0
 27 28  1  0  0  0  0
 27 29  1  6  0  0  0
 29 30  1  0  0  0  0
 31 32  1  6  0  0  0
 31 40  1  0  0  0  0
 33 31  1  0  0  0  0
 33 42  1  1  0  0  0
 35 33  1  0  0  0  0
 35 36  1  1  0  0  0
 37 35  1  0  0  0  0
 37 38  1  6  0  0  0
 37 39  1  0  0  0  0
 39 40  1  0  0  0  0
 39 41  1  1  0  0  0
 41 34  1  0  0  0  0
M  END
>  <CHROM.1>
-175.92935631,-58.73938271,42.80435303,-162.78391308,151.22381491,178.45082199
56.00403105,-179.58895471,-59.89593505,12.61438915,6.51029837,10.30289879
0.05910542,-0.65546050,2.20306624

>  <Name>
2et4_lig

>  <RI>
0

>  <Rbt.Current_Directory>
/home/itssahil/PROJECTS/Mol_Feturizer/New_Systems/rnas/2et4

>  <Rbt.Executable>
rbdock ($Id: //depot/dev/client3/rdock/2013.1/src/exe/rbdock.cxx#4 $)

>  <Rbt.Library>
libRbt.so (2013.1, Build901 2013/11/27)

>  <Rbt.Parameter_File>
/export/apps/rDock/src/rDock_2013.1_src/data/scripts/dock_solv.prm

>  <Rbt.Receptor>
prm/pocket_docking_6.prm

>  <SCORE>
-12.3532

>  <SCORE.INTER>
-7.3096

>  <SCORE.INTER.CONST>
1

>  <SCORE.INTER.POLAR>
-0.595557

>  <SCORE.INTER.ROT>
9

>  <SCORE.INTER.SOLV>
17.8885

>  <SCORE.INTER.VDW>
-18.4507

>  <SCORE.INTER.norm>
-0.174038

>  <SCORE.INTRA>
-5.0436

>  <SCORE.INTRA.DIHEDRAL>
-15.255

>  <SCORE.INTRA.DIHEDRAL.0>
21.6909

>  <SCORE.INTRA.POLAR>
0

>  <SCORE.INTRA.POLAR.0>
0

>  <SCORE.INTRA.REPUL>
0

>  <SCORE.INTRA.REPUL.0>
0

>  <SCORE.INTRA.SOLV>
3.56902

>  <SCORE.INTRA.SOLV.lig_0>
-116.606

>  <SCORE.INTRA.VDW>
0.799394

>  <SCORE.INTRA.VDW.0>
-6.01229

>  <SCORE.INTRA.norm>
-0.120086

>  <SCORE.RESTR>
0

>  <SCORE.RESTR.CAVITY>
0

>  <SCORE.RESTR.norm>
0

>  <SCORE.SYSTEM>
0

>  <SCORE.SYSTEM.CONST>
0

>  <SCORE.SYSTEM.DIHEDRAL>
0

>  <SCORE.SYSTEM.SOLV>
0

>  <SCORE.SYSTEM.norm>
0

>  <SCORE.heavy>
42

>  <SCORE.norm>
-0.294124

>  <RMSD>
6.864

$$$$
2et4_lig
 OpenBabel11021811423D
libRbt.so/2013.1/901 2013/11/27
 42 45  0  0  0  0  0  0  0  0999 V2000
   11.8100   10.9175    9.3181 C   0  0  2  0  0  0  0  0  0  0  0  0
   11.6831   10.3858   10.6385 O   0  0  0  0  0  0  0  0  0  0  0  0
   10.6105   10.3845    8.4936 C   0  0  2  0  0  0  0  0  0  0  0  0
    9.3545   10.7476    9.0987 N   0  0  0  0  0  0  0  0  0  0  0  0
   10.7349    8.8406    8.3457 C   0  0  1  0  0  0  0  0  0  0  0  0
    9.6642    8.3662    7.5905 O   0  0  0  0  0  0  0  0  0  0  0  0
   12.1163    8.5224    7.6819 C   0  0  2  0  0  0  0  0  0  0  0  0
   12.2751    7.1272    7.5346 O   0  0  0  0  0  0  0  0  0  0  0  0
   13.2882    9.0866    8.5411 C   0  0  2  0  0  0  0  0  0  0  0  0
   13.0966   10.4960    8.6948 O   0  0  0  0  0  0  0  0  0  0  0  0
   14.6837    8.8230    7.8865 C   0  0  0  0  0  0  0  0  0  0  0  0
   14.7947    9.4198    6.6009 N   0  0  0  0  0  0  0  0  0  0  0  0
   14.4138   12.6280   13.1227 C   0  0  2  0  0  0  0  0  0  0  0  0
   14.9746   13.3033   14.2995 N   0  0  0  0  0  0  0  0  0  0  0  0
   12.9949   13.3102   12.7308 C   0  0  0  0  0  0  0  0  0  0  0  0
   12.3879   12.5687   11.4702 C   0  0  2  0  0  0  0  0  0  0  0  0
   11.0829   13.1407   11.0939 N   0  0  0  0  0  0  0  0  0  0  0  0
   12.2188   11.0458   11.7937 C   0  0  2  0  0  0  0  0  0  0  0  0
   13.5890   10.4077   12.1979 C   0  0  2  0  0  0  0  0  0  0  0  0
   13.3228    9.0137   12.4891 O   0  0  0  0  0  0  0  0  0  0  0  0
   14.1703   11.1450   13.4469 C   0  0  1  0  0  0  0  0  0  0  0  0
   15.3894   10.5680   13.7731 O   0  0  0  0  0  0  0  0  0  0  0  0
   14.1374    7.9766   12.1772 C   0  0  1  0  0  0  0  0  0  0  0  0
   14.7218    7.3244   13.4573 C   0  0  2  0  0  0  0  0  0  0  0  0
   15.8612    7.9786   13.9356 O   0  0  0  0  0  0  0  0  0  0  0  0
   14.8529    5.8941   12.9676 C   0  0  1  0  0  0  0  0  0  0  0  0
   13.6387    5.6213   12.0687 C   0  0  2  0  0  0  0  0  0  0  0  0
   13.4978    6.8972   11.4441 O   0  0  0  0  0  0  0  0  0  0  0  0
   12.3301    5.1895   12.8141 C   0  0  0  0  0  0  0  0  0  0  0  0
   12.6005    3.9209   13.4674 O   0  0  0  0  0  0  0  0  0  0  0  0
   16.4247    4.5802   11.5803 C   0  0  2  0  0  0  0  0  0  0  0  0
   16.1304    5.7947   12.2146 O   0  0  0  0  0  0  0  0  0  0  0  0
   17.3014    4.8075   10.2728 C   0  0  1  0  0  0  0  0  0  0  0  0
   12.9433    2.7439    9.4567 N   0  0  0  0  0  0  0  0  0  0  0  0
   17.5598    3.3521    9.6158 C   0  0  1  0  0  0  0  0  0  0  0  0
   18.2649    2.4897   10.6437 O   0  0  0  0  0  0  0  0  0  0  0  0
   16.1476    2.6802    9.1908 C   0  0  2  0  0  0  0  0  0  0  0  0
   15.4987    3.5164    8.2029 O   0  0  0  0  0  0  0  0  0  0  0  0
   15.2636    2.4979   10.5492 C   0  0  1  0  0  0  0  0  0  0  0  0
   15.1063    3.8319   11.2256 O   0  0  0  0  0  0  0  0  0  0  0  0
   13.8528    1.8739   10.2636 C   0  0  0  0  0  0  0  0  0  0  0  0
   16.6033    5.7574    9.3447 N   0  0  0  0  0  0  0  0  0  0  0  0
  1  2  1  1  0  0  0
  1  3  1  0  0  0  0
  1 10  1  0  0  0  0
  3  4  1  1  0  0  0
  3  5  1  0  0  0  0
  5  6  1  6  0  0  0
  5  7  1  0  0  0  0
  7  8  1  1  0  0  0
  7  9  1  0  0  0  0
  9 10  1  0  0  0  0
  9 11  1  6  0  0  0
 11 12  1  0  0  0  0
 13 14  1  1  0  0  0
 13 15  1  0  0  0  0
 13 21  1  0  0  0  0
 16 15  1  0  0  0  0
 16 17  1  1  0  0  0
 18  2  1  6  0  0  0
 18 16  1  0  0  0  0
 19 18  1  0  0  0  0
 19 20  1  1  0  0  0
 21 19  1  0  0  0  0
 21 22  1  6  0  0  0
 23 20  1  1  0  0  0
 23 24  1  0  0  0  0
 23 28  1  0  0  0  0
 24 25  1  6  0  0  0
 24 26  1  0  0  0  0
 26 27  1  0  0  0  0
 26 32  1  6  0  0  0
 27 28  1  0  0  0  0
 27 29  1  1  0  0  0
 29 30  1  0  0  0  0
 31 32  1  6  0  0  0
 31 40  1  0  0  0  0
 33 31  1  0  0  0  0
 33 42  1  6  0  0  0
 35 33  1  0  0  0  0
 35 36  1  1  0  0  0
 37 35  1  0  0  0  0
 37 38  1  6  0  0  0
 37 39  1  0  0  0  0
 39 40  1  0  0  0  0
 39 41  1  6  0  0  0
 41 34  1  0  0  0  0
M  END
>  <CHROM.1>
-152.97718294,59.81201755,22.62357669,141.88142417,112.70049973,-175.51526117
-63.47765912,149.65740914,-66.01953453,13.84685947,7.69791490,10.75921139
2.21233489,-0.89892803,0.59819761

>  <Name>
2et4_lig

>  <RI>
0

>  <Rbt.Current_Directory>
/home/itssahil/PROJECTS/Mol_Feturizer/New_Systems/rnas/2et4

>  <Rbt.Executable>
rbdock ($Id: //depot/dev/client3/rdock/2013.1/src/exe/rbdock.cxx#4 $)

>  <Rbt.Library>
libRbt.so (2013.1, Build901 2013/11/27)

>  <Rbt.Parameter_File>
/export/apps/rDock/src/rDock_2013.1_src/data/scripts/dock_solv.prm

>  <Rbt.Receptor>
prm/blind_docking_40.prm

>  <SCORE>
39.6328

>  <SCORE.INTER>
7.91677

>  <SCORE.INTER.CONST>
1

>  <SCORE.INTER.POLAR>
-0.565666

>  <SCORE.INTER.ROT>
9

>  <SCORE.INTER.SOLV>
29.5445

>  <SCORE.INTER.VDW>
-12.2848

>  <SCORE.INTER.norm>
0.188494

>  <SCORE.INTRA>
6.93353

>  <SCORE.INTRA.DIHEDRAL>
2.41459

>  <SCORE.INTRA.DIHEDRAL.0>
21.6909

>  <SCORE.INTRA.POLAR>
0

>  <SCORE.INTRA.POLAR.0>
0

>  <SCORE.INTRA.REPUL>
0.000592325

>  <SCORE.INTRA.REPUL.0>
0

>  <SCORE.INTRA.SOLV>
3.09638

>  <SCORE.INTRA.SOLV.lig_0>
-116.606

>  <SCORE.INTRA.VDW>
4.17508

>  <SCORE.INTRA.VDW.0>
-6.01229

>  <SCORE.INTRA.norm>
0.165084

>  <SCORE.RESTR>
24.7825

>  <SCORE.RESTR.CAVITY>
24.7825

>  <SCORE.RESTR.norm>
0.590059

>  <SCORE.SYSTEM>
0

>  <SCORE.SYSTEM.CONST>
0

>  <SCORE.SYSTEM.DIHEDRAL>
0

>  <SCORE.SYSTEM.SOLV>
0

>  <SCORE.SYSTEM.norm>
0

>  <SCORE.heavy>
42

>  <SCORE.norm>
0.943637

>  <RMSD>
6.891

$$$$
2et4_lig
 OpenBabel11021811423D
libRbt.so/2013.1/901 2013/11/27
 42 45  0  0  0  0  0  0  0  0999 V2000
   14.2558    2.6607    7.2845 C   0  0  2  0  0  0  0  0  0  0  0  0
   13.7560    3.9581    7.6146 O   0  0  0  0  0  0  0  0  0  0  0  0
   13.3400    1.6259    7.9868 C   0  0  2  0  0  0  0  0  0  0  0  0
   11.9645    1.7868    7.5898 N   0  0  0  0  0  0  0  0  0  0  0  0
   13.4974    1.7642    9.5287 C   0  0  1  0  0  0  0  0  0  0  0  0
   12.6855    0.8221   10.1571 O   0  0  0  0  0  0  0  0  0  0  0  0
   15.0098    1.5760    9.8850 C   0  0  2  0  0  0  0  0  0  0  0  0
   15.2004    1.7011   11.2784 O   0  0  0  0  0  0  0  0  0  0  0  0
   15.8893    2.6309    9.1477 C   0  0  2  0  0  0  0  0  0  0  0  0
   15.6656    2.5003    7.7407 O   0  0  0  0  0  0  0  0  0  0  0  0
   17.4129    2.4467    9.4481 C   0  0  0  0  0  0  0  0  0  0  0  0
   18.2208    3.3386    8.6911 N   0  0  0  0  0  0  0  0  0  0  0  0
   15.8140    6.4959    4.7899 C   0  0  2  0  0  0  0  0  0  0  0  0
   16.2624    7.7070    4.0914 N   0  0  0  0  0  0  0  0  0  0  0  0
   14.2004    6.3701    4.6761 C   0  0  0  0  0  0  0  0  0  0  0  0
   13.7212    5.0705    5.4432 C   0  0  2  0  0  0  0  0  0  0  0  0
   12.2553    4.9299    5.3874 N   0  0  0  0  0  0  0  0  0  0  0  0
   14.1836    5.1479    6.9375 C   0  0  2  0  0  0  0  0  0  0  0  0
   15.7381    5.2981    7.0314 C   0  0  2  0  0  0  0  0  0  0  0  0
   16.0587    5.3754    8.4422 O   0  0  0  0  0  0  0  0  0  0  0  0
   16.1936    6.5883    6.2769 C   0  0  1  0  0  0  0  0  0  0  0  0
   17.5749    6.6876    6.3650 O   0  0  0  0  0  0  0  0  0  0  0  0
   15.7154    6.3907    9.2713 C   0  0  1  0  0  0  0  0  0  0  0  0
   14.2747    6.2024    9.8139 C   0  0  2  0  0  0  0  0  0  0  0  0
   13.2926    6.6817    8.9416 O   0  0  0  0  0  0  0  0  0  0  0  0
   14.4330    6.8651   11.1698 C   0  0  1  0  0  0  0  0  0  0  0  0
   15.8378    6.5078   11.6754 C   0  0  2  0  0  0  0  0  0  0  0  0
   16.5608    6.5329   10.4448 O   0  0  0  0  0  0  0  0  0  0  0  0
   15.9636    5.1230   12.3973 C   0  0  0  0  0  0  0  0  0  0  0  0
   15.1102    5.1660   13.5716 O   0  0  0  0  0  0  0  0  0  0  0  0
   12.9736    8.8536   10.9761 C   0  0  2  0  0  0  0  0  0  0  0  0
   14.2733    8.3296   10.9729 O   0  0  0  0  0  0  0  0  0  0  0  0
   12.8144   10.0136    9.8996 C   0  0  1  0  0  0  0  0  0  0  0  0
   11.1502    9.3561   15.0625 N   0  0  0  0  0  0  0  0  0  0  0  0
   11.2937   10.5549   10.0067 C   0  0  1  0  0  0  0  0  0  0  0  0
   10.3596    9.3900    9.7460 O   0  0  0  0  0  0  0  0  0  0  0  0
   11.0295   11.1688   11.4831 C   0  0  2  0  0  0  0  0  0  0  0  0
   11.9258   12.2841   11.7042 O   0  0  0  0  0  0  0  0  0  0  0  0
   11.2383    9.9618   12.5598 C   0  0  1  0  0  0  0  0  0  0  0  0
   12.6155    9.3798   12.3969 O   0  0  0  0  0  0  0  0  0  0  0  0
   11.0318   10.4401   14.0396 C   0  0  0  0  0  0  0  0  0  0  0  0
   13.8388   11.0828   10.1410 N   0  0  0  0  0  0  0  0  0  0  0  0
  1  2  1  1  0  0  0
  1  3  1  0  0  0  0
  1 10  1  0  0  0  0
  3  4  1  1  0  0  0
  3  5  1  0  0  0  0
  5  6  1  1  0  0  0
  5  7  1  0  0  0  0
  7  8  1  1  0  0  0
  7  9  1  0  0  0  0
  9 10  1  0  0  0  0
  9 11  1  6  0  0  0
 11 12  1  0  0  0  0
 13 14  1  6  0  0  0
 13 15  1  0  0  0  0
 13 21  1  0  0  0  0
 16 15  1  0  0  0  0
 16 17  1  1  0  0  0
 18  2  1  1  0  0  0
 18 16  1  0  0  0  0
 19 18  1  0  0  0  0
 19 20  1  1  0  0  0
 21 19  1  0  0  0  0
 21 22  1  6  0  0  0
 23 20  1  1  0  0  0
 23 24  1  0  0  0  0
 23 28  1  0  0  0  0
 24 25  1  6  0  0  0
 24 26  1  0  0  0  0
 26 27  1  0  0  0  0
 26 32  1  6  0  0  0
 27 28  1  0  0  0  0
 27 29  1  6  0  0  0
 29 30  1  0  0  0  0
 31 32  1  1  0  0  0
 31 40  1  0  0  0  0
 33 31  1  0  0  0  0
 33 42  1  1  0  0  0
 35 33  1  0  0  0  0
 35 36  1  1  0  0  0
 37 35  1  0  0  0  0
 37 38  1  1  0  0  0
 37 39  1  0  0  0  0
 39 40  1  0  0  0  0
 39 41  1  1  0  0  0
 41 34  1  0  0  0  0
M  END
>  <CHROM.1>
-167.31764564,175.20575088,65.10499609,-66.83562339,84.02450816,85.09438187
-61.76528375,-142.00860874,177.31955851,14.16431868,6.11255441,9.37217500
0.13947017,-1.19867728,2.26390245

>  <Name>
2et4_lig

>  <RI>
0

>  <Rbt.Current_Directory>
/home/itssahil/PROJECTS/Mol_Feturizer/New_Systems/rnas/2et4

>  <Rbt.Executable>
rbdock ($Id: //depot/dev/client3/rdock/2013.1/src/exe/rbdock.cxx#4 $)

>  <Rbt.Library>
libRbt.so (2013.1, Build901 2013/11/27)

>  <Rbt.Parameter_File>
/export/apps/rDock/src/rDock_2013.1_src/data/scripts/dock_solv.prm

>  <Rbt.Receptor>
prm/pocket_docking_6.prm

>  <SCORE>
-16.1049

>  <SCORE.INTER>
-11.6801

>  <SCORE.INTER.CONST>
1

>  <SCORE.INTER.POLAR>
-1.66065

>  <SCORE.INTER.ROT>
9

>  <SCORE.INTER.SOLV>
15.8248

>  <SCORE.INTER.VDW>
-17.1262

>  <SCORE.INTER.norm>
-0.278097

>  <SCORE.INTRA>
-4.42481

>  <SCORE.INTRA.DIHEDRAL>
-10.0861

>  <SCORE.INTRA.DIHEDRAL.0>
21.6909

>  <SCORE.INTRA.POLAR>
0

>  <SCORE.INTRA.POLAR.0>
0

>  <SCORE.INTRA.REPUL>
0

>  <SCORE.INTRA.REPUL.0>
0

>  <SCORE.INTRA.SOLV>
-0.68604

>  <SCORE.INTRA.SOLV.lig_0>
-116.606

>  <SCORE.INTRA.VDW>
0.961241

>  <SCORE.INTRA.VDW.0>
-6.01229

>  <SCORE.INTRA.norm>
-0.105353

>  <SCORE.RESTR>
0

>  <SCORE.RESTR.CAVITY>
0

>  <SCORE.RESTR.norm>
0

>  <SCORE.SYSTEM>
0

>  <SCORE.SYSTEM.CONST>
0

>  <SCORE.SYSTEM.DIHEDRAL>
0

>  <SCORE.SYSTEM.SOLV>
0

>  <SCORE.SYSTEM.norm>
0

>  <SCORE.heavy>
42

>  <SCORE.norm>
-0.38345

>  <RMSD>
6.941

$$$$
2et4_lig
 OpenBabel11021811423D
libRbt.so/2013.1/901 2013/11/27
 42 45  0  0  0  0  0  0  0  0999 V2000
   12.9415    6.8842   10.1391 C   0  0  2  0  0  0  0  0  0  0  0  0
   13.6242    7.7448    9.2251 O   0  0  0  0  0  0  0  0  0  0  0  0
   13.3224    7.3429   11.5699 C   0  0  2  0  0  0  0  0  0  0  0  0
   12.9859    8.7272   11.7847 N   0  0  0  0  0  0  0  0  0  0  0  0
   14.8406    7.0935   11.8019 C   0  0  1  0  0  0  0  0  0  0  0  0
   15.1769    7.4917   13.0942 O   0  0  0  0  0  0  0  0  0  0  0  0
   15.1305    5.5754   11.5545 C   0  0  2  0  0  0  0  0  0  0  0  0
   16.5027    5.3045   11.7475 O   0  0  0  0  0  0  0  0  0  0  0  0
   14.7218    5.1606   10.1085 C   0  0  2  0  0  0  0  0  0  0  0  0
   13.3350    5.4622    9.9280 O   0  0  0  0  0  0  0  0  0  0  0  0
   14.9591    3.6386    9.8388 C   0  0  0  0  0  0  0  0  0  0  0  0
   16.3399    3.3006    9.8498 N   0  0  0  0  0  0  0  0  0  0  0  0
   13.0085    8.7935    5.0807 C   0  0  2  0  0  0  0  0  0  0  0  0
   12.8950    8.6586    3.6231 N   0  0  0  0  0  0  0  0  0  0  0  0
   14.5003    8.3624    5.5507 C   0  0  0  0  0  0  0  0  0  0  0  0
   14.6125    8.4960    7.1245 C   0  0  2  0  0  0  0  0  0  0  0  0
   15.9469    8.0889    7.5992 N   0  0  0  0  0  0  0  0  0  0  0  0
   13.5200    7.6015    7.8019 C   0  0  2  0  0  0  0  0  0  0  0  0
   12.0891    8.0088    7.3177 C   0  0  2  0  0  0  0  0  0  0  0  0
   11.1608    7.1193    7.9855 O   0  0  0  0  0  0  0  0  0  0  0  0
   11.9926    7.8642    5.7649 C   0  0  1  0  0  0  0  0  0  0  0  0
   10.7200    8.2448    5.3636 O   0  0  0  0  0  0  0  0  0  0  0  0
    9.8270    7.0581    7.7540 C   0  0  1  0  0  0  0  0  0  0  0  0
    9.1209    6.1629    8.8055 C   0  0  2  0  0  0  0  0  0  0  0  0
    9.1635    4.8024    8.4856 O   0  0  0  0  0  0  0  0  0  0  0  0
    7.7733    6.8587    8.8570 C   0  0  1  0  0  0  0  0  0  0  0  0
    8.0470    8.3632    8.7216 C   0  0  2  0  0  0  0  0  0  0  0  0
    9.1396    8.3374    7.8033 O   0  0  0  0  0  0  0  0  0  0  0  0
    8.4201    9.1040   10.0509 C   0  0  0  0  0  0  0  0  0  0  0  0
    7.2326    9.1213   10.8867 O   0  0  0  0  0  0  0  0  0  0  0  0
    6.5463    5.0037    7.7731 C   0  0  2  0  0  0  0  0  0  0  0  0
    6.9599    6.3419    7.7256 O   0  0  0  0  0  0  0  0  0  0  0  0
    5.7264    4.6045    6.4699 C   0  0  1  0  0  0  0  0  0  0  0  0
    5.0918    3.6751   11.8004 N   0  0  0  0  0  0  0  0  0  0  0  0
    5.2843    3.0581    6.6427 C   0  0  1  0  0  0  0  0  0  0  0  0
    6.5392    2.2258    6.8156 O   0  0  0  0  0  0  0  0  0  0  0  0
    4.3218    2.9009    7.9371 C   0  0  2  0  0  0  0  0  0  0  0  0
    3.1277    3.6965    7.7441 O   0  0  0  0  0  0  0  0  0  0  0  0
    5.1833    3.3540    9.2457 C   0  0  1  0  0  0  0  0  0  0  0  0
    5.6895    4.7566    9.0494 O   0  0  0  0  0  0  0  0  0  0  0  0
    4.3464    3.2684   10.5698 C   0  0  0  0  0  0  0  0  0  0  0  0
    4.5623    5.5337    6.2905 N   0  0  0  0  0  0  0  0  0  0  0  0
  1  2  1  6  0  0  0
  1  3  1  0  0  0  0
  1 10  1  0  0  0  0
  3  4  1  6  0  0  0
  3  5  1  0  0  0  0
  5  6  1  1  0  0  0
  5  7  1  0  0  0  0
  7  8  1  6  0  0  0
  7  9  1  0  0  0  0
  9 10  1  0  0  0  0
  9 11  1  1  0  0  0
 11 12  1  0  0  0  0
 13 14  1  6  0  0  0
 13 15  1  0  0  0  0
 13 21  1  0  0  0  0
 16 15  1  0  0  0  0
 16 17  1  1  0  0  0
 18  2  1  1  0  0  0
 18 16  1  0  0  0  0
 19 18  1  0  0  0  0
 19 20  1  1  0  0  0
 21 19  1  0  0  0  0
 21 22  1  6  0  0  0
 23 20  1  1  0  0  0
 23 24  1  0  0  0  0
 23 28  1  0  0  0  0
 24 25  1  6  0  0  0
 24 26  1  0  0  0  0
 26 27  1  0  0  0  0
 26 32  1  6  0  0  0
 27 28  1  0  0  0  0
 27 29  1  1  0  0  0
 29 30  1  0  0  0  0
 31 32  1  6  0  0  0
 31 40  1  0  0  0  0
 33 31  1  0  0  0  0
 33 42  1  1  0  0  0
 35 33  1  0  0  0  0
 35 36  1  1  0  0  0
 37 35  1  0  0  0  0
 37 38  1  6  0  0  0
 37 39  1  0  0  0  0
 39 40  1  0  0  0  0
 39 41  1  1  0  0  0
 41 34  1  0  0  0  0
M  END
>  <CHROM.1>
179.13185953,-66.50271765,-168.24073072,-173.86170000,-170.75176660,68.03599128
-68.62766678,-178.30055216,-179.94820238,10.36776443,6.26185971,8.66745920
-0.01851459,0.28598571,2.09362839

>  <Name>
2et4_lig

>  <RI>
0

>  <Rbt.Current_Directory>
/home/itssahil/PROJECTS/Mol_Feturizer/New_Systems/rnas/2et4

>  <Rbt.Executable>
rbdock ($Id: //depot/dev/client3/rdock/2013.1/src/exe/rbdock.cxx#4 $)

>  <Rbt.Library>
libRbt.so (2013.1, Build901 2013/11/27)

>  <Rbt.Parameter_File>
/export/apps/rDock/src/rDock_2013.1_src/data/scripts/dock_solv.prm

>  <Rbt.Receptor>
prm/pocket_docking_6.prm

>  <SCORE>
-12.7351

>  <SCORE.INTER>
-3.64555

>  <SCORE.INTER.CONST>
1

>  <SCORE.INTER.POLAR>
-0.146753

>  <SCORE.INTER.ROT>
9

>  <SCORE.INTER.SOLV>
17.931

>  <SCORE.INTER.VDW>
-17.5182

>  <SCORE.INTER.norm>
-0.0867987

>  <SCORE.INTRA>
-9.08959

>  <SCORE.INTRA.DIHEDRAL>
-19.5038

>  <SCORE.INTRA.DIHEDRAL.0>
21.6909

>  <SCORE.INTRA.POLAR>
0

>  <SCORE.INTRA.POLAR.0>
0

>  <SCORE.INTRA.REPUL>
0

>  <SCORE.INTRA.REPUL.0>
0

>  <SCORE.INTRA.SOLV>
-4.08156

>  <SCORE.INTRA.SOLV.lig_0>
-116.606

>  <SCORE.INTRA.VDW>
2.7031

>  <SCORE.INTRA.VDW.0>
-6.01229

>  <SCORE.INTRA.norm>
-0.216419

>  <SCORE.RESTR>
0

>  <SCORE.RESTR.CAVITY>
0

>  <SCORE.RESTR.norm>
0

>  <SCORE.SYSTEM>
0

>  <SCORE.SYSTEM.CONST>
0

>  <SCORE.SYSTEM.DIHEDRAL>
0

>  <SCORE.SYSTEM.SOLV>
0

>  <SCORE.SYSTEM.norm>
0

>  <SCORE.heavy>
42

>  <SCORE.norm>
-0.303217

>  <RMSD>
6.948

$$$$
2et4_lig
 OpenBabel11021811423D
libRbt.so/2013.1/901 2013/11/27
 42 45  0  0  0  0  0  0  0  0999 V2000
   15.1829    1.5350    7.6725 C   0  0  2  0  0  0  0  0  0  0  0  0
   14.4258    2.7425    7.7770 O   0  0  0  0  0  0  0  0  0  0  0  0
   15.8811    1.3137    9.0386 C   0  0  2  0  0  0  0  0  0  0  0  0
   14.9242    1.2545   10.1140 N   0  0  0  0  0  0  0  0  0  0  0  0
   16.9187    2.4490    9.2746 C   0  0  1  0  0  0  0  0  0  0  0  0
   17.5562    2.2387   10.4957 O   0  0  0  0  0  0  0  0  0  0  0  0
   17.9227    2.4516    8.0738 C   0  0  2  0  0  0  0  0  0  0  0  0
   18.8811    3.4744    8.2435 O   0  0  0  0  0  0  0  0  0  0  0  0
   17.1733    2.6663    6.7240 C   0  0  2  0  0  0  0  0  0  0  0  0
   16.1946    1.6325    6.5823 O   0  0  0  0  0  0  0  0  0  0  0  0
   18.1415    2.6332    5.4964 C   0  0  0  0  0  0  0  0  0  0  0  0
   17.4627    2.8748    4.2709 N   0  0  0  0  0  0  0  0  0  0  0  0
   12.7989    3.1975    3.8019 C   0  0  2  0  0  0  0  0  0  0  0  0
   11.9886    3.7116    2.6907 N   0  0  0  0  0  0  0  0  0  0  0  0
   11.8231    2.6405    4.9724 C   0  0  0  0  0  0  0  0  0  0  0  0
   12.7019    2.1007    6.1739 C   0  0  2  0  0  0  0  0  0  0  0  0
   11.8539    1.6072    7.2735 N   0  0  0  0  0  0  0  0  0  0  0  0
   13.6259    3.2504    6.7003 C   0  0  2  0  0  0  0  0  0  0  0  0
   14.5404    3.7974    5.5547 C   0  0  2  0  0  0  0  0  0  0  0  0
   15.3380    4.8576    6.1368 O   0  0  0  0  0  0  0  0  0  0  0  0
   13.6586    4.3329    4.3812 C   0  0  1  0  0  0  0  0  0  0  0  0
   14.4949    4.7976    3.3761 O   0  0  0  0  0  0  0  0  0  0  0  0
   14.8673    5.8484    6.9325 C   0  0  1  0  0  0  0  0  0  0  0  0
   16.0018    6.8286    7.3296 C   0  0  2  0  0  0  0  0  0  0  0  0
   16.7410    6.3943    8.4341 O   0  0  0  0  0  0  0  0  0  0  0  0
   15.1927    8.1068    7.4498 C   0  0  1  0  0  0  0  0  0  0  0  0
   14.1338    8.0659    6.3390 C   0  0  2  0  0  0  0  0  0  0  0  0
   13.8299    6.6712    6.3337 O   0  0  0  0  0  0  0  0  0  0  0  0
   14.6112    8.5639    4.9323 C   0  0  0  0  0  0  0  0  0  0  0  0
   13.4518    8.5726    4.0578 O   0  0  0  0  0  0  0  0  0  0  0  0
   13.7296    9.1889    9.1260 C   0  0  2  0  0  0  0  0  0  0  0  0
   14.5745    8.1190    8.8012 O   0  0  0  0  0  0  0  0  0  0  0  0
   13.6506    9.4073   10.6995 C   0  0  1  0  0  0  0  0  0  0  0  0
    9.3065    8.3757    8.6976 N   0  0  0  0  0  0  0  0  0  0  0  0
   12.6387   10.6428   10.9568 C   0  0  1  0  0  0  0  0  0  0  0  0
   13.1826   11.8565   10.2299 O   0  0  0  0  0  0  0  0  0  0  0  0
   11.1616   10.2704   10.4037 C   0  0  2  0  0  0  0  0  0  0  0  0
   10.6605    9.1157   11.1189 O   0  0  0  0  0  0  0  0  0  0  0  0
   11.2897   10.0175    8.7976 C   0  0  1  0  0  0  0  0  0  0  0  0
   12.3082    8.9410    8.5411 O   0  0  0  0  0  0  0  0  0  0  0  0
    9.9189    9.6227    8.1447 C   0  0  0  0  0  0  0  0  0  0  0  0
   13.2156    8.1392   11.3730 N   0  0  0  0  0  0  0  0  0  0  0  0
  1  2  1  1  0  0  0
  1  3  1  0  0  0  0
  1 10  1  0  0  0  0
  3  4  1  1  0  0  0
  3  5  1  0  0  0  0
  5  6  1  1  0  0  0
  5  7  1  0  0  0  0
  7  8  1  1  0  0  0
  7  9  1  0  0  0  0
  9 10  1  0  0  0  0
  9 11  1  6  0  0  0
 11 12  1  0  0  0  0
 13 14  1  6  0  0  0
 13 15  1  0  0  0  0
 13 21  1  0  0  0  0
 16 15  1  0  0  0  0
 16 17  1  1  0  0  0
 18  2  1  1  0  0  0
 18 16  1  0  0  0  0
 19 18  1  0  0  0  0
 19 20  1  1  0  0  0
 21 19  1  0  0  0  0
 21 22  1  6  0  0  0
 23 20  1  6  0  0  0
 23 24  1  0  0  0  0
 23 28  1  0  0  0  0
 24 25  1  1  0  0  0
 24 26  1  0  0  0  0
 26 27  1  0  0  0  0
 26 32  1  1  0  0  0
 27 28  1  0  0  0  0
 27 29  1  6  0  0  0
 29 30  1  0  0  0  0
 31 32  1  1  0  0  0
 31 40  1  0  0  0  0
 33 31  1  0  0  0  0
 33 42  1  1  0  0  0
 35 33  1  0  0  0  0
 35 36  1  6  0  0  0
 37 35  1  0  0  0  0
 37 38  1  1  0  0  0
 37 39  1  0  0  0  0
 39 40  1  0  0  0  0
 39 41  1  1  0  0  0
 41 34  1  0  0  0  0
M  END
>  <CHROM.1>
-178.91821446,-177.98883055,50.61878467,-46.11707705,-178.12171575,-177.53897302
-174.63327437,-155.84370346,-59.73759537,14.25463576,5.60272800,7.46897913
-0.88682579,-0.82673024,0.89363587

>  <Name>
2et4_lig

>  <RI>
1.79929e+07

>  <Rbt.Current_Directory>
/home/itssahil/PROJECTS/Mol_Feturizer/New_Systems/rnas/2et4

>  <Rbt.Executable>
rbdock ($Id: //depot/dev/client3/rdock/2013.1/src/exe/rbdock.cxx#4 $)

>  <Rbt.Library>
libRbt.so (2013.1, Build901 2013/11/27)

>  <Rbt.Parameter_File>
/export/apps/rDock/src/rDock_2013.1_src/data/scripts/dock_solv.prm

>  <Rbt.Receptor>
prm/pocket_docking_7.prm

>  <SCORE>
-14.8438

>  <SCORE.INTER>
-6.85416

>  <SCORE.INTER.CONST>
1

>  <SCORE.INTER.POLAR>
-1.21919

>  <SCORE.INTER.ROT>
9

>  <SCORE.INTER.SOLV>
11.497

>  <SCORE.INTER.VDW>
-13.9378

>  <SCORE.INTER.norm>
-0.163194

>  <SCORE.INTRA>
-7.98963

>  <SCORE.INTRA.DIHEDRAL>
-17.5233

>  <SCORE.INTRA.DIHEDRAL.0>
21.6909

>  <SCORE.INTRA.POLAR>
0

>  <SCORE.INTRA.POLAR.0>
0

>  <SCORE.INTRA.REPUL>
0

>  <SCORE.INTRA.REPUL.0>
0

>  <SCORE.INTRA.SOLV>
-0.0737004

>  <SCORE.INTRA.SOLV.lig_0>
-116.606

>  <SCORE.INTRA.VDW>
0.808881

>  <SCORE.INTRA.VDW.0>
-6.01229

>  <SCORE.INTRA.norm>
-0.190229

>  <SCORE.RESTR>
0

>  <SCORE.RESTR.CAVITY>
0

>  <SCORE.RESTR.norm>
0

>  <SCORE.SYSTEM>
0

>  <SCORE.SYSTEM.CONST>
0

>  <SCORE.SYSTEM.DIHEDRAL>
0

>  <SCORE.SYSTEM.SOLV>
0

>  <SCORE.SYSTEM.norm>
0

>  <SCORE.heavy>
42

>  <SCORE.norm>
-0.353424

>  <RMSD>
6.968

$$$$
2et4_lig
 OpenBabel11021811423D
libRbt.so/2013.1/901 2013/11/27
 42 45  0  0  0  0  0  0  0  0999 V2000
   14.1117    6.8332   10.4080 C   0  0  2  0  0  0  0  0  0  0  0  0
   15.3839    7.0250    9.7858 O   0  0  0  0  0  0  0  0  0  0  0  0
   14.0830    7.7267   11.6743 C   0  0  2  0  0  0  0  0  0  0  0  0
   14.3157    9.1102   11.3464 N   0  0  0  0  0  0  0  0  0  0  0  0
   15.1388    7.2077   12.6928 C   0  0  1  0  0  0  0  0  0  0  0  0
   15.0996    8.0027   13.8366 O   0  0  0  0  0  0  0  0  0  0  0  0
   14.8229    5.7064   13.0027 C   0  0  2  0  0  0  0  0  0  0  0  0
   15.7639    5.1909   13.9204 O   0  0  0  0  0  0  0  0  0  0  0  0
   14.8531    4.8522   11.6991 C   0  0  2  0  0  0  0  0  0  0  0  0
   13.9085    5.4035   10.7768 O   0  0  0  0  0  0  0  0  0  0  0  0
   14.5008    3.3520   11.9649 C   0  0  0  0  0  0  0  0  0  0  0  0
   14.5640    2.5678   10.7808 N   0  0  0  0  0  0  0  0  0  0  0  0
   16.9533    7.4315    5.7825 C   0  0  2  0  0  0  0  0  0  0  0  0
   17.1952    7.1646    4.3592 N   0  0  0  0  0  0  0  0  0  0  0  0
   17.4120    6.1467    6.6608 C   0  0  0  0  0  0  0  0  0  0  0  0
   17.1355    6.4344    8.1932 C   0  0  2  0  0  0  0  0  0  0  0  0
   17.5145    5.2806    9.0279 N   0  0  0  0  0  0  0  0  0  0  0  0
   15.6155    6.7518    8.3971 C   0  0  2  0  0  0  0  0  0  0  0  0
   15.1805    7.9741    7.5226 C   0  0  2  0  0  0  0  0  0  0  0  0
   13.7671    8.1741    7.7704 O   0  0  0  0  0  0  0  0  0  0  0  0
   15.4524    7.6714    6.0140 C   0  0  1  0  0  0  0  0  0  0  0  0
   15.0708    8.7759    5.2656 O   0  0  0  0  0  0  0  0  0  0  0  0
   12.7605    7.4918    7.1726 C   0  0  1  0  0  0  0  0  0  0  0  0
   12.7645    6.0026    7.6058 C   0  0  2  0  0  0  0  0  0  0  0  0
   13.6435    5.2151    6.8560 O   0  0  0  0  0  0  0  0  0  0  0  0
   11.2764    5.7172    7.5219 C   0  0  1  0  0  0  0  0  0  0  0  0
   10.5553    6.9846    8.0020 C   0  0  2  0  0  0  0  0  0  0  0  0
   11.4267    7.9840    7.4733 O   0  0  0  0  0  0  0  0  0  0  0  0
   10.3875    7.1192    9.5539 C   0  0  0  0  0  0  0  0  0  0  0  0
    9.6109    5.9789   10.0076 O   0  0  0  0  0  0  0  0  0  0  0  0
    9.6322    5.0958    5.7807 C   0  0  2  0  0  0  0  0  0  0  0  0
   10.9602    5.4062    6.1035 O   0  0  0  0  0  0  0  0  0  0  0  0
    9.1446    3.7833    6.5352 C   0  0  1  0  0  0  0  0  0  0  0  0
    8.9082    3.2932    1.6680 N   0  0  0  0  0  0  0  0  0  0  0  0
    7.6184    3.5102    6.0740 C   0  0  1  0  0  0  0  0  0  0  0  0
    6.7917    4.7279    6.4363 O   0  0  0  0  0  0  0  0  0  0  0  0
    7.5637    3.2479    4.4757 C   0  0  2  0  0  0  0  0  0  0  0  0
    8.3518    2.0761    4.1565 O   0  0  0  0  0  0  0  0  0  0  0  0
    8.1051    4.5985    3.7391 C   0  0  1  0  0  0  0  0  0  0  0  0
    9.4857    4.9217    4.2405 O   0  0  0  0  0  0  0  0  0  0  0  0
    8.1230    4.4595    2.1765 C   0  0  0  0  0  0  0  0  0  0  0  0
   10.0668    2.6407    6.2268 N   0  0  0  0  0  0  0  0  0  0  0  0
  1  2  1  1  0  0  0
  1  3  1  0  0  0  0
  1 10  1  0  0  0  0
  3  4  1  6  0  0  0
  3  5  1  0  0  0  0
  5  6  1  1  0  0  0
  5  7  1  0  0  0  0
  7  8  1  1  0  0  0
  7  9  1  0  0  0  0
  9 10  1  0  0  0  0
  9 11  1  1  0  0  0
 11 12  1  0  0  0  0
 13 14  1  6  0  0  0
 13 15  1  0  0  0  0
 13 21  1  0  0  0  0
 16 15  1  0  0  0  0
 16 17  1  1  0  0  0
 18  2  1  1  0  0  0
 18 16  1  0  0  0  0
 19 18  1  0  0  0  0
 19 20  1  6  0  0  0
 21 19  1  0  0  0  0
 21 22  1  6  0  0  0
 23 20  1  1  0  0  0
 23 24  1  0  0  0  0
 23 28  1  0  0  0  0
 24 25  1  6  0  0  0
 24 26  1  0  0  0  0
 26 27  1  0  0  0  0
 26 32  1  6  0  0  0
 27 28  1  0  0  0  0
 27 29  1  1  0  0  0
 29 30  1  0  0  0  0
 31 32  1  6  0  0  0
 31 40  1  0  0  0  0
 33 31  1  0  0  0  0
 33 42  1  6  0  0  0
 35 33  1  0  0  0  0
 35 36  1  6  0  0  0
 37 35  1  0  0  0  0
 37 38  1  1  0  0  0
 37 39  1  0  0  0  0
 39 40  1  0  0  0  0
 39 41  1  6  0  0  0
 41 34  1  0  0  0  0
M  END
>  <CHROM.1>
-157.78919552,-178.41892637,-154.58100145,-82.30615374,67.17744287,179.48816696
-60.17074936,-62.10536858,-55.62176658,12.71612135,5.83740398,7.93036374
0.68460283,0.40400230,1.64375744

>  <Name>
2et4_lig

>  <RI>
0

>  <Rbt.Current_Directory>
/home/itssahil/PROJECTS/Mol_Feturizer/New_Systems/rnas/2et4

>  <Rbt.Executable>
rbdock ($Id: //depot/dev/client3/rdock/2013.1/src/exe/rbdock.cxx#4 $)

>  <Rbt.Library>
libRbt.so (2013.1, Build901 2013/11/27)

>  <Rbt.Parameter_File>
/export/apps/rDock/src/rDock_2013.1_src/data/scripts/dock_solv.prm

>  <Rbt.Receptor>
prm/pocket_docking_8.prm

>  <SCORE>
-16.269

>  <SCORE.INTER>
-9.48287

>  <SCORE.INTER.CONST>
1

>  <SCORE.INTER.POLAR>
-0.944537

>  <SCORE.INTER.ROT>
9

>  <SCORE.INTER.SOLV>
14.7291

>  <SCORE.INTER.VDW>
-17.6832

>  <SCORE.INTER.norm>
-0.225783

>  <SCORE.INTRA>
-6.78617

>  <SCORE.INTRA.DIHEDRAL>
-14.0664

>  <SCORE.INTRA.DIHEDRAL.0>
21.6909

>  <SCORE.INTRA.POLAR>
0

>  <SCORE.INTRA.POLAR.0>
0

>  <SCORE.INTRA.REPUL>
0

>  <SCORE.INTRA.REPUL.0>
0

>  <SCORE.INTRA.SOLV>
-1.08974

>  <SCORE.INTRA.SOLV.lig_0>
-116.606

>  <SCORE.INTRA.VDW>
0.791917

>  <SCORE.INTRA.VDW.0>
-6.01229

>  <SCORE.INTRA.norm>
-0.161575

>  <SCORE.RESTR>
0

>  <SCORE.RESTR.CAVITY>
0

>  <SCORE.RESTR.norm>
0

>  <SCORE.SYSTEM>
0

>  <SCORE.SYSTEM.CONST>
0

>  <SCORE.SYSTEM.DIHEDRAL>
0

>  <SCORE.SYSTEM.SOLV>
0

>  <SCORE.SYSTEM.norm>
0

>  <SCORE.heavy>
42

>  <SCORE.norm>
-0.387358

>  <RMSD>
6.977

$$$$
2et4_lig
 OpenBabel11021811423D
libRbt.so/2013.1/901 2013/11/27
 42 45  0  0  0  0  0  0  0  0999 V2000
   16.5863   12.1872    2.3929 C   0  0  2  0  0  0  0  0  0  0  0  0
   15.6351   12.8348    1.5455 O   0  0  0  0  0  0  0  0  0  0  0  0
   16.8592   13.1395    3.5850 C   0  0  2  0  0  0  0  0  0  0  0  0
   15.6444   13.4599    4.2902 N   0  0  0  0  0  0  0  0  0  0  0  0
   17.5598   14.4273    3.0633 C   0  0  1  0  0  0  0  0  0  0  0  0
   17.8185   15.2744    4.1390 O   0  0  0  0  0  0  0  0  0  0  0  0
   18.8670   14.0037    2.3138 C   0  0  2  0  0  0  0  0  0  0  0  0
   19.5333   15.1446    1.8157 O   0  0  0  0  0  0  0  0  0  0  0  0
   18.5422   13.0399    1.1326 C   0  0  2  0  0  0  0  0  0  0  0  0
   17.8502   11.9024    1.6560 O   0  0  0  0  0  0  0  0  0  0  0  0
   19.8303   12.5625    0.3855 C   0  0  0  0  0  0  0  0  0  0  0  0
   19.5564   11.5253   -0.5475 N   0  0  0  0  0  0  0  0  0  0  0  0
   12.1295   11.6050   -0.6574 C   0  0  2  0  0  0  0  0  0  0  0  0
   11.2785   10.8753   -1.6055 N   0  0  0  0  0  0  0  0  0  0  0  0
   13.3192   12.3573   -1.4642 C   0  0  0  0  0  0  0  0  0  0  0  0
   14.2418   13.1305   -0.4356 C   0  0  2  0  0  0  0  0  0  0  0  0
   15.3539   13.8093   -1.1243 N   0  0  0  0  0  0  0  0  0  0  0  0
   14.8148   12.1179    0.6127 C   0  0  2  0  0  0  0  0  0  0  0  0
   13.6573   11.3791    1.3624 C   0  0  2  0  0  0  0  0  0  0  0  0
   14.2882   10.4627    2.2905 O   0  0  0  0  0  0  0  0  0  0  0  0
   12.7615   10.6154    0.3350 C   0  0  1  0  0  0  0  0  0  0  0  0
   11.7376    9.9826    1.0257 O   0  0  0  0  0  0  0  0  0  0  0  0
   14.1024   10.4522    3.6327 C   0  0  1  0  0  0  0  0  0  0  0  0
   13.4595    9.1184    4.0944 C   0  0  2  0  0  0  0  0  0  0  0  0
   12.0662    9.1109    3.9765 O   0  0  0  0  0  0  0  0  0  0  0  0
   14.0755    9.0132    5.4773 C   0  0  1  0  0  0  0  0  0  0  0  0
   15.5120    9.5424    5.3629 C   0  0  2  0  0  0  0  0  0  0  0  0
   15.3168   10.5945    4.4180 O   0  0  0  0  0  0  0  0  0  0  0  0
   16.5766    8.5047    4.8684 C   0  0  0  0  0  0  0  0  0  0  0  0
   16.7162    8.6760    3.4330 O   0  0  0  0  0  0  0  0  0  0  0  0
   12.7233    9.2256    7.5384 C   0  0  2  0  0  0  0  0  0  0  0  0
   13.2535    9.8422    6.3970 O   0  0  0  0  0  0  0  0  0  0  0  0
   12.0440   10.2880    8.5077 C   0  0  1  0  0  0  0  0  0  0  0  0
   14.3635    6.3013   11.4694 N   0  0  0  0  0  0  0  0  0  0  0  0
   11.4910    9.4736    9.7912 C   0  0  1  0  0  0  0  0  0  0  0  0
   10.5103    8.4280    9.2990 O   0  0  0  0  0  0  0  0  0  0  0  0
   12.7244    8.7666   10.5692 C   0  0  2  0  0  0  0  0  0  0  0  0
   13.6409    9.7850   11.0371 O   0  0  0  0  0  0  0  0  0  0  0  0
   13.4175    7.7143    9.5337 C   0  0  1  0  0  0  0  0  0  0  0  0
   13.8414    8.4442    8.2889 O   0  0  0  0  0  0  0  0  0  0  0  0
   14.6495    6.9780   10.1671 C   0  0  0  0  0  0  0  0  0  0  0  0
   13.0311   11.3583    8.8694 N   0  0  0  0  0  0  0  0  0  0  0  0
  1  2  1  6  0  0  0
  1  3  1  0  0  0  0
  1 10  1  0  0  0  0
  3  4  1  6  0  0  0
  3  5  1  0  0  0  0
  5  6  1  1  0  0  0
  5  7  1  0  0  0  0
  7  8  1  6  0  0  0
  7  9  1  0  0  0  0
  9 10  1  0  0  0  0
  9 11  1  1  0  0  0
 11 12  1  0  0  0  0
 13 14  1  6  0  0  0
 13 15  1  0  0  0  0
 13 21  1  0  0  0  0
 16 15  1  0  0  0  0
 16 17  1  6  0  0  0
 18  2  1  1  0  0  0
 18 16  1  0  0  0  0
 19 18  1  0  0  0  0
 19 20  1  1  0  0  0
 21 19  1  0  0  0  0
 21 22  1  1  0  0  0
 23 20  1  6  0  0  0
 23 24  1  0  0  0  0
 23 28  1  0  0  0  0
 24 25  1  1  0  0  0
 24 26  1  0  0  0  0
 26 27  1  0  0  0  0
 26 32  1  1  0  0  0
 27 28  1  0  0  0  0
 27 29  1  6  0  0  0
 29 30  1  0  0  0  0
 31 32  1  6  0  0  0
 31 40  1  0  0  0  0
 33 31  1  0  0  0  0
 33 42  1  1  0  0  0
 35 33  1  0  0  0  0
 35 36  1  6  0  0  0
 37 35  1  0  0  0  0
 37 38  1  6  0  0  0
 37 39  1  0  0  0  0
 39 40  1  0  0  0  0
 39 41  1  1  0  0  0
 41 34  1  0  0  0  0
M  END
>  <CHROM.1>
-158.59719860,170.61836014,-162.43986735,122.11591965,117.08349773,124.57977131
95.01502481,172.24776217,53.60157824,14.80371353,10.88413068,4.13466974,-1.19847347
0.44179340,1.85669509

>  <Name>
2et4_lig

>  <RI>
0

>  <Rbt.Current_Directory>
/home/itssahil/PROJECTS/Mol_Feturizer/New_Systems/rnas/2et4

>  <Rbt.Executable>
rbdock ($Id: //depot/dev/client3/rdock/2013.1/src/exe/rbdock.cxx#4 $)

>  <Rbt.Library>
libRbt.so (2013.1, Build901 2013/11/27)

>  <Rbt.Parameter_File>
/export/apps/rDock/src/rDock_2013.1_src/data/scripts/dock_solv.prm

>  <Rbt.Receptor>
prm/blind_docking_40.prm

>  <SCORE>
26.7191

>  <SCORE.INTER>
1.18938

>  <SCORE.INTER.CONST>
1

>  <SCORE.INTER.POLAR>
-1.48561

>  <SCORE.INTER.ROT>
9

>  <SCORE.INTER.SOLV>
34.5341

>  <SCORE.INTER.VDW>
-15.3664

>  <SCORE.INTER.norm>
0.0283187

>  <SCORE.INTRA>
3.7821

>  <SCORE.INTRA.DIHEDRAL>
7.21549

>  <SCORE.INTRA.DIHEDRAL.0>
21.6909

>  <SCORE.INTRA.POLAR>
0

>  <SCORE.INTRA.POLAR.0>
0

>  <SCORE.INTRA.REPUL>
0.0267892

>  <SCORE.INTRA.REPUL.0>
0

>  <SCORE.INTRA.SOLV>
-1.01882

>  <SCORE.INTRA.SOLV.lig_0>
-116.606

>  <SCORE.INTRA.VDW>
0.54982

>  <SCORE.INTRA.VDW.0>
-6.01229

>  <SCORE.INTRA.norm>
0.09005

>  <SCORE.RESTR>
21.7476

>  <SCORE.RESTR.CAVITY>
21.7476

>  <SCORE.RESTR.norm>
0.517799

>  <SCORE.SYSTEM>
0

>  <SCORE.SYSTEM.CONST>
0

>  <SCORE.SYSTEM.DIHEDRAL>
0

>  <SCORE.SYSTEM.SOLV>
0

>  <SCORE.SYSTEM.norm>
0

>  <SCORE.heavy>
42

>  <SCORE.norm>
0.636168

>  <RMSD>
7.031

$$$$
2et4_lig
 OpenBabel11021811423D
libRbt.so/2013.1/901 2013/11/27
 42 45  0  0  0  0  0  0  0  0999 V2000
   17.8829    4.3061    8.7188 C   0  0  2  0  0  0  0  0  0  0  0  0
   17.5163    3.7298    9.9741 O   0  0  0  0  0  0  0  0  0  0  0  0
   18.6464    5.6199    9.0247 C   0  0  2  0  0  0  0  0  0  0  0  0
   19.7958    5.3776    9.8589 N   0  0  0  0  0  0  0  0  0  0  0  0
   17.6742    6.6349    9.6925 C   0  0  1  0  0  0  0  0  0  0  0  0
   18.3588    7.8206    9.9516 O   0  0  0  0  0  0  0  0  0  0  0  0
   16.4567    6.8503    8.7327 C   0  0  2  0  0  0  0  0  0  0  0  0
   15.5424    7.7620    9.3041 O   0  0  0  0  0  0  0  0  0  0  0  0
   15.7293    5.5015    8.4473 C   0  0  2  0  0  0  0  0  0  0  0  0
   16.6774    4.5874    7.8887 O   0  0  0  0  0  0  0  0  0  0  0  0
   14.5307    5.6721    7.4575 C   0  0  0  0  0  0  0  0  0  0  0  0
   14.9605    6.0346    6.1517 N   0  0  0  0  0  0  0  0  0  0  0  0
   13.8315    1.6639    9.0748 C   0  0  2  0  0  0  0  0  0  0  0  0
   12.6869    0.7550    9.2147 N   0  0  0  0  0  0  0  0  0  0  0  0
   15.2092    0.8072    9.0879 C   0  0  0  0  0  0  0  0  0  0  0  0
   16.4404    1.7935    8.9512 C   0  0  2  0  0  0  0  0  0  0  0  0
   17.7171    1.0583    8.9844 N   0  0  0  0  0  0  0  0  0  0  0  0
   16.4050    2.8350   10.1201 C   0  0  2  0  0  0  0  0  0  0  0  0
   15.0595    3.6334   10.1129 C   0  0  2  0  0  0  0  0  0  0  0  0
   15.1208    4.5516   11.2320 O   0  0  0  0  0  0  0  0  0  0  0  0
   13.8560    2.6473   10.2563 C   0  0  1  0  0  0  0  0  0  0  0  0
   12.6782    3.3808   10.2327 O   0  0  0  0  0  0  0  0  0  0  0  0
   14.4748    5.7403   11.3090 C   0  0  1  0  0  0  0  0  0  0  0  0
   13.2241    5.6352   12.2203 C   0  0  2  0  0  0  0  0  0  0  0  0
   12.0964    5.1504   11.5509 O   0  0  0  0  0  0  0  0  0  0  0  0
   13.1966    7.0510   12.7658 C   0  0  1  0  0  0  0  0  0  0  0  0
   14.6578    7.4734   12.9737 C   0  0  2  0  0  0  0  0  0  0  0  0
   15.2661    6.8308   11.8535 O   0  0  0  0  0  0  0  0  0  0  0  0
   15.3051    7.0218   14.3271 C   0  0  0  0  0  0  0  0  0  0  0  0
   15.5248    5.5885   14.2469 O   0  0  0  0  0  0  0  0  0  0  0  0
   12.9997    9.2044   11.5633 C   0  0  2  0  0  0  0  0  0  0  0  0
   12.5134    7.9047   11.7591 O   0  0  0  0  0  0  0  0  0  0  0  0
   13.3168    9.9187   12.9486 C   0  0  1  0  0  0  0  0  0  0  0  0
   10.2576   11.2223    8.9773 N   0  0  0  0  0  0  0  0  0  0  0  0
   13.8460   11.4080   12.6042 C   0  0  1  0  0  0  0  0  0  0  0  0
   15.0732   11.2801   11.7238 O   0  0  0  0  0  0  0  0  0  0  0  0
   12.6872   12.2415   11.8368 C   0  0  2  0  0  0  0  0  0  0  0  0
   11.5309   12.3581   12.7004 O   0  0  0  0  0  0  0  0  0  0  0  0
   12.3634   11.4597   10.4426 C   0  0  1  0  0  0  0  0  0  0  0  0
   11.9714   10.0397   10.7455 O   0  0  0  0  0  0  0  0  0  0  0  0
   11.2311   12.1616    9.6141 C   0  0  0  0  0  0  0  0  0  0  0  0
   12.0958    9.9142   13.8204 N   0  0  0  0  0  0  0  0  0  0  0  0
  1  2  1  1  0  0  0
  1  3  1  0  0  0  0
  1 10  1  0  0  0  0
  3  4  1  1  0  0  0
  3  5  1  0  0  0  0
  5  6  1  6  0  0  0
  5  7  1  0  0  0  0
  7  8  1  1  0  0  0
  7  9  1  0  0  0  0
  9 10  1  0  0  0  0
  9 11  1  6  0  0  0
 11 12  1  0  0  0  0
 13 14  1  1  0  0  0
 13 15  1  0  0  0  0
 13 21  1  0  0  0  0
 16 15  1  0  0  0  0
 16 17  1  1  0  0  0
 18  2  1  6  0  0  0
 18 16  1  0  0  0  0
 19 18  1  0  0  0  0
 19 20  1  1  0  0  0
 21 19  1  0  0  0  0
 21 22  1  6  0  0  0
 23 20  1  1  0  0  0
 23 24  1  0  0  0  0
 23 28  1  0  0  0  0
 24 25  1  6  0  0  0
 24 26  1  0  0  0  0
 26 27  1  0  0  0  0
 26 32  1  6  0  0  0
 27 28  1  0  0  0  0
 27 29  1  1  0  0  0
 29 30  1  0  0  0  0
 31 32  1  1  0  0  0
 31 40  1  0  0  0  0
 33 31  1  0  0  0  0
 33 42  1  1  0  0  0
 35 33  1  0  0  0  0
 35 36  1  6  0  0  0
 37 35  1  0  0  0  0
 37 38  1  1  0  0  0
 37 39  1  0  0  0  0
 39 40  1  0  0  0  0
 39 41  1  1  0  0  0
 41 34  1  0  0  0  0
M  END
>  <CHROM.1>
155.37391270,66.86418594,44.68228311,152.48559857,102.83677235,-142.42193910
72.14433821,-43.82848935,-139.17571662,14.66674035,6.51604573,10.55261198
-1.12772340,0.34408125,0.14815294

>  <Name>
2et4_lig

>  <RI>
0

>  <Rbt.Current_Directory>
/home/itssahil/PROJECTS/Mol_Feturizer/New_Systems/rnas/2et4

>  <Rbt.Executable>
rbdock ($Id: //depot/dev/client3/rdock/2013.1/src/exe/rbdock.cxx#4 $)

>  <Rbt.Library>
libRbt.so (2013.1, Build901 2013/11/27)

>  <Rbt.Parameter_File>
/export/apps/rDock/src/rDock_2013.1_src/data/scripts/dock_solv.prm

>  <Rbt.Receptor>
prm/blind_docking_40.prm

>  <SCORE>
85.5426

>  <SCORE.INTER>
54.6753

>  <SCORE.INTER.CONST>
1

>  <SCORE.INTER.POLAR>
-0.192641

>  <SCORE.INTER.ROT>
9

>  <SCORE.INTER.SOLV>
32.2813

>  <SCORE.INTER.VDW>
16.7319

>  <SCORE.INTER.norm>
1.30179

>  <SCORE.INTRA>
10.3295

>  <SCORE.INTRA.DIHEDRAL>
1.98003

>  <SCORE.INTRA.DIHEDRAL.0>
21.6909

>  <SCORE.INTRA.POLAR>
0

>  <SCORE.INTRA.POLAR.0>
0

>  <SCORE.INTRA.REPUL>
0

>  <SCORE.INTRA.REPUL.0>
0

>  <SCORE.INTRA.SOLV>
1.54561

>  <SCORE.INTRA.SOLV.lig_0>
-116.606

>  <SCORE.INTRA.VDW>
8.56666

>  <SCORE.INTRA.VDW.0>
-6.01229

>  <SCORE.INTRA.norm>
0.24594

>  <SCORE.RESTR>
20.5377

>  <SCORE.RESTR.CAVITY>
20.5377

>  <SCORE.RESTR.norm>
0.488994

>  <SCORE.SYSTEM>
0

>  <SCORE.SYSTEM.CONST>
0

>  <SCORE.SYSTEM.DIHEDRAL>
0

>  <SCORE.SYSTEM.SOLV>
0

>  <SCORE.SYSTEM.norm>
0

>  <SCORE.heavy>
42

>  <SCORE.norm>
2.03673

>  <RMSD>
7.034

$$$$
2et4_lig
 OpenBabel11021811423D
libRbt.so/2013.1/901 2013/11/27
 42 45  0  0  0  0  0  0  0  0999 V2000
   18.1018    3.9673    8.3724 C   0  0  2  0  0  0  0  0  0  0  0  0
   17.9780    3.5827    9.7432 O   0  0  0  0  0  0  0  0  0  0  0  0
   18.7993    5.3514    8.3473 C   0  0  2  0  0  0  0  0  0  0  0  0
   20.0784    5.3070    9.0088 N   0  0  0  0  0  0  0  0  0  0  0  0
   17.8657    6.4086    9.0045 C   0  0  1  0  0  0  0  0  0  0  0  0
   18.4882    7.6547    8.9660 O   0  0  0  0  0  0  0  0  0  0  0  0
   16.5023    6.4026    8.2358 C   0  0  2  0  0  0  0  0  0  0  0  0
   15.6189    7.3455    8.8051 O   0  0  0  0  0  0  0  0  0  0  0  0
   15.8461    4.9893    8.2802 C   0  0  2  0  0  0  0  0  0  0  0  0
   16.7650    4.0478    7.7182 O   0  0  0  0  0  0  0  0  0  0  0  0
   14.5002    4.9352    7.4859 C   0  0  0  0  0  0  0  0  0  0  0  0
   13.5559    4.0602    8.0890 N   0  0  0  0  0  0  0  0  0  0  0  0
   14.2402    1.4395   10.0433 C   0  0  2  0  0  0  0  0  0  0  0  0
   13.2343    0.4726   10.5005 N   0  0  0  0  0  0  0  0  0  0  0  0
   15.5376    0.6460    9.4782 C   0  0  0  0  0  0  0  0  0  0  0  0
   16.6246    1.6934    9.0000 C   0  0  2  0  0  0  0  0  0  0  0  0
   17.8340    1.0149    8.5014 N   0  0  0  0  0  0  0  0  0  0  0  0
   17.0051    2.6309   10.1954 C   0  0  2  0  0  0  0  0  0  0  0  0
   15.7404    3.3673   10.7488 C   0  0  2  0  0  0  0  0  0  0  0  0
   16.1941    4.1904   11.8514 O   0  0  0  0  0  0  0  0  0  0  0  0
   14.6816    2.3207   11.2232 C   0  0  1  0  0  0  0  0  0  0  0  0
   13.5680    3.0011   11.6949 O   0  0  0  0  0  0  0  0  0  0  0  0
   15.5701    5.3022   12.3104 C   0  0  1  0  0  0  0  0  0  0  0  0
   15.4814    6.3863   11.2048 C   0  0  2  0  0  0  0  0  0  0  0  0
   16.6377    7.1663   11.1068 O   0  0  0  0  0  0  0  0  0  0  0  0
   14.1831    7.0545   11.6180 C   0  0  1  0  0  0  0  0  0  0  0  0
   13.2540    5.9416   12.1228 C   0  0  2  0  0  0  0  0  0  0  0  0
   14.2056    5.0928   12.7645 O   0  0  0  0  0  0  0  0  0  0  0  0
   12.4477    5.1810   11.0156 C   0  0  0  0  0  0  0  0  0  0  0  0
   11.9664    6.1726   10.0700 O   0  0  0  0  0  0  0  0  0  0  0  0
   14.4722    9.3956   12.3643 C   0  0  2  0  0  0  0  0  0  0  0  0
   14.5052    8.0328   12.6894 O   0  0  0  0  0  0  0  0  0  0  0  0
   14.2030   10.2914   13.6508 C   0  0  1  0  0  0  0  0  0  0  0  0
   12.3479   10.3420    8.5197 N   0  0  0  0  0  0  0  0  0  0  0  0
   14.1639   11.8313   13.1570 C   0  0  1  0  0  0  0  0  0  0  0  0
   15.4912   12.1484   12.4974 O   0  0  0  0  0  0  0  0  0  0  0  0
   12.9484   12.0429   12.1062 C   0  0  2  0  0  0  0  0  0  0  0  0
   11.6926   11.7434   12.7616 O   0  0  0  0  0  0  0  0  0  0  0  0
   13.2398   11.0825   10.8207 C   0  0  1  0  0  0  0  0  0  0  0  0
   13.3833    9.6587   11.2832 O   0  0  0  0  0  0  0  0  0  0  0  0
   12.1116   11.1806    9.7349 C   0  0  0  0  0  0  0  0  0  0  0  0
   12.9349    9.8560   14.3239 N   0  0  0  0  0  0  0  0  0  0  0  0
  1  2  1  1  0  0  0
  1  3  1  0  0  0  0
  1 10  1  0  0  0  0
  3  4  1  1  0  0  0
  3  5  1  0  0  0  0
  5  6  1  6  0  0  0
  5  7  1  0  0  0  0
  7  8  1  1  0  0  0
  7  9  1  0  0  0  0
  9 10  1  0  0  0  0
  9 11  1  6  0  0  0
 11 12  1  0  0  0  0
 13 14  1  1  0  0  0
 13 15  1  0  0  0  0
 13 21  1  0  0  0  0
 16 15  1  0  0  0  0
 16 17  1  1  0  0  0
 18  2  1  6  0  0  0
 18 16  1  0  0  0  0
 19 18  1  0  0  0  0
 19 20  1  1  0  0  0
 21 19  1  0  0  0  0
 21 22  1  6  0  0  0
 23 20  1  6  0  0  0
 23 24  1  0  0  0  0
 23 28  1  0  0  0  0
 24 25  1  1  0  0  0
 24 26  1  0  0  0  0
 26 27  1  0  0  0  0
 26 32  1  1  0  0  0
 27 28  1  0  0  0  0
 27 29  1  6  0  0  0
 29 30  1  0  0  0  0
 31 32  1  1  0  0  0
 31 40  1  0  0  0  0
 33 31  1  0  0  0  0
 33 42  1  6  0  0  0
 35 33  1  0  0  0  0
 35 36  1  6  0  0  0
 37 35  1  0  0  0  0
 37 38  1  1  0  0  0
 37 39  1  0  0  0  0
 39 40  1  0  0  0  0
 39 41  1  6  0  0  0
 41 34  1  0  0  0  0
M  END
>  <CHROM.1>
157.61508048,-145.55062445,24.82038191,156.00558964,-60.80583765,106.85976551
-42.22944697,155.12797064,178.64208740,15.08574913,6.23846132,10.52238508
-1.17610479,0.52769019,0.11561264

>  <Name>
2et4_lig

>  <RI>
0

>  <Rbt.Current_Directory>
/home/itssahil/PROJECTS/Mol_Feturizer/New_Systems/rnas/2et4

>  <Rbt.Executable>
rbdock ($Id: //depot/dev/client3/rdock/2013.1/src/exe/rbdock.cxx#4 $)

>  <Rbt.Library>
libRbt.so (2013.1, Build901 2013/11/27)

>  <Rbt.Parameter_File>
/export/apps/rDock/src/rDock_2013.1_src/data/scripts/dock_solv.prm

>  <Rbt.Receptor>
prm/blind_docking_40.prm

>  <SCORE>
58.3711

>  <SCORE.INTER>
31.9485

>  <SCORE.INTER.CONST>
1

>  <SCORE.INTER.POLAR>
-0.551928

>  <SCORE.INTER.ROT>
9

>  <SCORE.INTER.SOLV>
33.6814

>  <SCORE.INTER.VDW>
2.3116

>  <SCORE.INTER.norm>
0.760678

>  <SCORE.INTRA>
9.3722

>  <SCORE.INTRA.DIHEDRAL>
0.930073

>  <SCORE.INTRA.DIHEDRAL.0>
21.6909

>  <SCORE.INTRA.POLAR>
0

>  <SCORE.INTRA.POLAR.0>
0

>  <SCORE.INTRA.REPUL>
0

>  <SCORE.INTRA.REPUL.0>
0

>  <SCORE.INTRA.SOLV>
4.84548

>  <SCORE.INTRA.SOLV.lig_0>
-116.606

>  <SCORE.INTRA.VDW>
6.48443

>  <SCORE.INTRA.VDW.0>
-6.01229

>  <SCORE.INTRA.norm>
0.223148

>  <SCORE.RESTR>
17.0504

>  <SCORE.RESTR.CAVITY>
17.0504

>  <SCORE.RESTR.norm>
0.405961

>  <SCORE.SYSTEM>
0

>  <SCORE.SYSTEM.CONST>
0

>  <SCORE.SYSTEM.DIHEDRAL>
0

>  <SCORE.SYSTEM.SOLV>
0

>  <SCORE.SYSTEM.norm>
0

>  <SCORE.heavy>
42

>  <SCORE.norm>
1.38979

>  <RMSD>
7.035

$$$$
2et4_lig
 OpenBabel11021811423D
libRbt.so/2013.1/901 2013/11/27
 42 45  0  0  0  0  0  0  0  0999 V2000
   17.8218    4.0044    9.8196 C   0  0  2  0  0  0  0  0  0  0  0  0
   17.1469    4.1766   11.0675 O   0  0  0  0  0  0  0  0  0  0  0  0
   18.3903    5.3879    9.4129 C   0  0  2  0  0  0  0  0  0  0  0  0
   19.2669    5.9146   10.4277 N   0  0  0  0  0  0  0  0  0  0  0  0
   17.2120    6.3639    9.1297 C   0  0  1  0  0  0  0  0  0  0  0  0
   17.7256    7.6020    8.7486 O   0  0  0  0  0  0  0  0  0  0  0  0
   16.3074    5.7301    8.0206 C   0  0  2  0  0  0  0  0  0  0  0  0
   15.2178    6.5818    7.7363 O   0  0  0  0  0  0  0  0  0  0  0  0
   15.7695    4.3382    8.4713 C   0  0  2  0  0  0  0  0  0  0  0  0
   16.8881    3.4990    8.7736 O   0  0  0  0  0  0  0  0  0  0  0  0
   14.8942    3.6557    7.3697 C   0  0  0  0  0  0  0  0  0  0  0  0
   13.6026    4.2415    7.2714 N   0  0  0  0  0  0  0  0  0  0  0  0
   13.1287    2.7265   10.4309 C   0  0  2  0  0  0  0  0  0  0  0  0
   11.8160    2.1278   10.7033 N   0  0  0  0  0  0  0  0  0  0  0  0
   14.2949    1.6440   10.7481 C   0  0  0  0  0  0  0  0  0  0  0  0
   15.7084    2.2997   10.4664 C   0  0  2  0  0  0  0  0  0  0  0  0
   16.8011    1.3576   10.7666 N   0  0  0  0  0  0  0  0  0  0  0  0
   15.8696    3.5862   11.3448 C   0  0  2  0  0  0  0  0  0  0  0  0
   14.7225    4.6084   11.0496 C   0  0  2  0  0  0  0  0  0  0  0  0
   14.9533    5.7462   11.9163 O   0  0  0  0  0  0  0  0  0  0  0  0
   13.3360    3.9491   11.3397 C   0  0  1  0  0  0  0  0  0  0  0  0
   12.3395    4.8723   11.0562 O   0  0  0  0  0  0  0  0  0  0  0  0
   14.0254    6.3255   12.7160 C   0  0  1  0  0  0  0  0  0  0  0  0
   14.6797    7.3621   13.6662 C   0  0  2  0  0  0  0  0  0  0  0  0
   15.2104    6.7865   14.8247 O   0  0  0  0  0  0  0  0  0  0  0  0
   13.5254    8.3381   13.7991 C   0  0  1  0  0  0  0  0  0  0  0  0
   12.8425    8.4051   12.4258 C   0  0  2  0  0  0  0  0  0  0  0  0
   12.9772    7.0453   12.0125 O   0  0  0  0  0  0  0  0  0  0  0  0
   13.4899    9.3938   11.3972 C   0  0  0  0  0  0  0  0  0  0  0  0
   14.7212    8.7852   10.9253 O   0  0  0  0  0  0  0  0  0  0  0  0
   11.4269    8.5150   15.0978 C   0  0  2  0  0  0  0  0  0  0  0  0
   12.6111    7.8095   14.8448 O   0  0  0  0  0  0  0  0  0  0  0  0
   11.7177    9.8786   15.8632 C   0  0  1  0  0  0  0  0  0  0  0  0
    6.9398    7.7861   17.5535 N   0  0  0  0  0  0  0  0  0  0  0  0
   10.2890   10.5924   16.1202 C   0  0  1  0  0  0  0  0  0  0  0  0
    9.6239   10.8126   14.7761 O   0  0  0  0  0  0  0  0  0  0  0  0
    9.3628    9.6505   17.0591 C   0  0  2  0  0  0  0  0  0  0  0  0
   10.0141    9.4630   18.3384 O   0  0  0  0  0  0  0  0  0  0  0  0
    9.1182    8.2508   16.2586 C   0  0  1  0  0  0  0  0  0  0  0  0
   10.4458    7.6298   15.9211 O   0  0  0  0  0  0  0  0  0  0  0  0
    8.2479    7.2373   17.0813 C   0  0  0  0  0  0  0  0  0  0  0  0
   12.4762    9.6059   17.1286 N   0  0  0  0  0  0  0  0  0  0  0  0
  1  2  1  1  0  0  0
  1  3  1  0  0  0  0
  1 10  1  0  0  0  0
  3  4  1  1  0  0  0
  3  5  1  0  0  0  0
  5  6  1  6  0  0  0
  5  7  1  0  0  0  0
  7  8  1  1  0  0  0
  7  9  1  0  0  0  0
  9 10  1  0  0  0  0
  9 11  1  6  0  0  0
 11 12  1  0  0  0  0
 13 14  1  1  0  0  0
 13 15  1  0  0  0  0
 13 21  1  0  0  0  0
 16 15  1  0  0  0  0
 16 17  1  1  0  0  0
 18  2  1  6  0  0  0
 18 16  1  0  0  0  0
 19 18  1  0  0  0  0
 19 20  1  1  0  0  0
 21 19  1  0  0  0  0
 21 22  1  6  0  0  0
 23 20  1  6  0  0  0
 23 24  1  0  0  0  0
 23 28  1  0  0  0  0
 24 25  1  1  0  0  0
 24 26  1  0  0  0  0
 26 27  1  0  0  0  0
 26 32  1  1  0  0  0
 27 28  1  0  0  0  0
 27 29  1  6  0  0  0
 29 30  1  0  0  0  0
 31 32  1  1  0  0  0
 31 40  1  0  0  0  0
 33 31  1  0  0  0  0
 33 42  1  1  0  0  0
 35 33  1  0  0  0  0
 35 36  1  6  0  0  0
 37 35  1  0  0  0  0
 37 38  1  1  0  0  0
 37 39  1  0  0  0  0
 39 40  1  0  0  0  0
 39 41  1  1  0  0  0
 41 34  1  0  0  0  0
M  END
>  <CHROM.1>
136.72353159,-75.29276831,26.46360433,-130.32576840,170.75199755,-176.86515965
74.25172891,-72.38732534,53.88981663,13.73423367,6.31661797,12.24142844,-0.76306698
0.62103010,0.43387532

>  <Name>
2et4_lig

>  <RI>
0

>  <Rbt.Current_Directory>
/home/itssahil/PROJECTS/Mol_Feturizer/New_Systems/rnas/2et4

>  <Rbt.Executable>
rbdock ($Id: //depot/dev/client3/rdock/2013.1/src/exe/rbdock.cxx#4 $)

>  <Rbt.Library>
libRbt.so (2013.1, Build901 2013/11/27)

>  <Rbt.Parameter_File>
/export/apps/rDock/src/rDock_2013.1_src/data/scripts/dock_solv.prm

>  <Rbt.Receptor>
prm/blind_docking_80.prm

>  <SCORE>
42.9051

>  <SCORE.INTER>
10.7747

>  <SCORE.INTER.CONST>
1

>  <SCORE.INTER.POLAR>
-0.781244

>  <SCORE.INTER.ROT>
9

>  <SCORE.INTER.SOLV>
29.6433

>  <SCORE.INTER.VDW>
-9.69383

>  <SCORE.INTER.norm>
0.25654

>  <SCORE.INTRA>
9.46553

>  <SCORE.INTRA.DIHEDRAL>
-1.8974

>  <SCORE.INTRA.DIHEDRAL.0>
21.6909

>  <SCORE.INTRA.POLAR>
0

>  <SCORE.INTRA.POLAR.0>
0

>  <SCORE.INTRA.REPUL>
0

>  <SCORE.INTRA.REPUL.0>
0

>  <SCORE.INTRA.SOLV>
1.88237

>  <SCORE.INTRA.SOLV.lig_0>
-116.606

>  <SCORE.INTRA.VDW>
9.47304

>  <SCORE.INTRA.VDW.0>
-6.01229

>  <SCORE.INTRA.norm>
0.22537

>  <SCORE.RESTR>
22.6649

>  <SCORE.RESTR.CAVITY>
22.6649

>  <SCORE.RESTR.norm>
0.539641

>  <SCORE.SYSTEM>
0

>  <SCORE.SYSTEM.CONST>
0

>  <SCORE.SYSTEM.DIHEDRAL>
0

>  <SCORE.SYSTEM.SOLV>
0

>  <SCORE.SYSTEM.norm>
0

>  <SCORE.heavy>
42

>  <SCORE.norm>
1.02155

>  <RMSD>
7.079

$$$$
2et4_lig
 OpenBabel11021811423D
libRbt.so/2013.1/901 2013/11/27
 42 45  0  0  0  0  0  0  0  0999 V2000
   17.5917    5.3412    9.1492 C   0  0  2  0  0  0  0  0  0  0  0  0
   16.6103    4.5570    8.4680 O   0  0  0  0  0  0  0  0  0  0  0  0
   17.9334    6.5431    8.2320 C   0  0  2  0  0  0  0  0  0  0  0  0
   16.7576    7.3134    7.9158 N   0  0  0  0  0  0  0  0  0  0  0  0
   18.6255    6.0221    6.9395 C   0  0  1  0  0  0  0  0  0  0  0  0
   18.9461    7.1058    6.1242 O   0  0  0  0  0  0  0  0  0  0  0  0
   19.8901    5.2006    7.3588 C   0  0  2  0  0  0  0  0  0  0  0  0
   20.5473    4.7010    6.2134 O   0  0  0  0  0  0  0  0  0  0  0  0
   19.4971    4.0116    8.2872 C   0  0  2  0  0  0  0  0  0  0  0  0
   18.8155    4.5379    9.4296 O   0  0  0  0  0  0  0  0  0  0  0  0
   20.7421    3.1921    8.7602 C   0  0  0  0  0  0  0  0  0  0  0  0
   21.7561    4.0245    9.3077 N   0  0  0  0  0  0  0  0  0  0  0  0
   13.5018    1.8779    9.8147 C   0  0  2  0  0  0  0  0  0  0  0  0
   12.8508    0.7115   10.4242 N   0  0  0  0  0  0  0  0  0  0  0  0
   14.4648    1.3902    8.6036 C   0  0  0  0  0  0  0  0  0  0  0  0
   15.1751    2.6504    7.9596 C   0  0  2  0  0  0  0  0  0  0  0  0
   16.0817    2.2505    6.8688 N   0  0  0  0  0  0  0  0  0  0  0  0
   15.9860    3.4109    9.0626 C   0  0  2  0  0  0  0  0  0  0  0  0
   15.0505    3.8496   10.2374 C   0  0  2  0  0  0  0  0  0  0  0  0
   15.8931    4.5253   11.2031 O   0  0  0  0  0  0  0  0  0  0  0  0
   14.3639    2.5949   10.8665 C   0  0  1  0  0  0  0  0  0  0  0  0
   13.5314    3.0152   11.8942 O   0  0  0  0  0  0  0  0  0  0  0  0
   15.5257    5.5891   11.9578 C   0  0  1  0  0  0  0  0  0  0  0  0
   14.6022    6.5452   11.1588 C   0  0  2  0  0  0  0  0  0  0  0  0
   15.3082    7.4501   10.3602 O   0  0  0  0  0  0  0  0  0  0  0  0
   13.7576    7.0827   12.2991 C   0  0  1  0  0  0  0  0  0  0  0  0
   13.5307    5.9153   13.2698 C   0  0  2  0  0  0  0  0  0  0  0  0
   14.7922    5.2553   13.1671 O   0  0  0  0  0  0  0  0  0  0  0  0
   12.3420    4.9599   12.9109 C   0  0  0  0  0  0  0  0  0  0  0  0
   11.1300    5.7599   12.8985 O   0  0  0  0  0  0  0  0  0  0  0  0
   14.4198    9.4657   12.3646 C   0  0  2  0  0  0  0  0  0  0  0  0
   14.5182    8.1897   12.9355 O   0  0  0  0  0  0  0  0  0  0  0  0
   13.8898   10.5323   13.4187 C   0  0  1  0  0  0  0  0  0  0  0  0
   10.8878   10.3782    9.5303 N   0  0  0  0  0  0  0  0  0  0  0  0
   13.7953   11.9526   12.6501 C   0  0  1  0  0  0  0  0  0  0  0  0
   15.1742   12.2952   12.1223 O   0  0  0  0  0  0  0  0  0  0  0  0
   12.7347   11.8495   11.4291 C   0  0  2  0  0  0  0  0  0  0  0  0
   11.4255   11.5311   11.9589 O   0  0  0  0  0  0  0  0  0  0  0  0
   13.2919   10.7221   10.3905 C   0  0  1  0  0  0  0  0  0  0  0  0
   13.4841    9.4216   11.1210 O   0  0  0  0  0  0  0  0  0  0  0  0
   12.3321   10.5114    9.1676 C   0  0  0  0  0  0  0  0  0  0  0  0
   12.5771   10.0826   13.9891 N   0  0  0  0  0  0  0  0  0  0  0  0
  1  2  1  6  0  0  0
  1  3  1  0  0  0  0
  1 10  1  0  0  0  0
  3  4  1  6  0  0  0
  3  5  1  0  0  0  0
  5  6  1  6  0  0  0
  5  7  1  0  0  0  0
  7  8  1  6  0  0  0
  7  9  1  0  0  0  0
  9 10  1  0  0  0  0
  9 11  1  1  0  0  0
 11 12  1  0  0  0  0
 13 14  1  1  0  0  0
 13 15  1  0  0  0  0
 13 21  1  0  0  0  0
 16 15  1  0  0  0  0
 16 17  1  6  0  0  0
 18  2  1  6  0  0  0
 18 16  1  0  0  0  0
 19 18  1  0  0  0  0
 19 20  1  1  0  0  0
 21 19  1  0  0  0  0
 21 22  1  1  0  0  0
 23 20  1  6  0  0  0
 23 24  1  0  0  0  0
 23 28  1  0  0  0  0
 24 25  1  1  0  0  0
 24 26  1  0  0  0  0
 26 27  1  0  0  0  0
 26 32  1  1  0  0  0
 27 28  1  0  0  0  0
 27 29  1  6  0  0  0
 29 30  1  0  0  0  0
 31 32  1  1  0  0  0
 31 40  1  0  0  0  0
 33 31  1  0  0  0  0
 33 42  1  6  0  0  0
 35 33  1  0  0  0  0
 35 36  1  6  0  0  0
 37 35  1  0  0  0  0
 37 38  1  1  0  0  0
 37 39  1  0  0  0  0
 39 40  1  0  0  0  0
 39 41  1  6  0  0  0
 41 34  1  0  0  0  0
M  END
>  <CHROM.1>
-175.42019344,50.91215385,-169.71933302,144.49679661,-36.69397168,84.19939382
-60.04730697,122.51069911,-46.43221957,15.33615003,6.31229385,10.30248281
-0.81011805,0.58307087,0.06501517

>  <Name>
2et4_lig

>  <RI>
0

>  <Rbt.Current_Directory>
/home/itssahil/PROJECTS/Mol_Feturizer/New_Systems/rnas/2et4

>  <Rbt.Executable>
rbdock ($Id: //depot/dev/client3/rdock/2013.1/src/exe/rbdock.cxx#4 $)

>  <Rbt.Library>
libRbt.so (2013.1, Build901 2013/11/27)

>  <Rbt.Parameter_File>
/export/apps/rDock/src/rDock_2013.1_src/data/scripts/dock_solv.prm

>  <Rbt.Receptor>
prm/blind_docking_40.prm

>  <SCORE>
34.2744

>  <SCORE.INTER>
8.98242

>  <SCORE.INTER.CONST>
1

>  <SCORE.INTER.POLAR>
-0.699609

>  <SCORE.INTER.ROT>
9

>  <SCORE.INTER.SOLV>
20.9458

>  <SCORE.INTER.VDW>
-8.26161

>  <SCORE.INTER.norm>
0.213867

>  <SCORE.INTRA>
4.02778

>  <SCORE.INTRA.DIHEDRAL>
-3.3737

>  <SCORE.INTRA.DIHEDRAL.0>
21.6909

>  <SCORE.INTRA.POLAR>
0

>  <SCORE.INTRA.POLAR.0>
0

>  <SCORE.INTRA.REPUL>
0

>  <SCORE.INTRA.REPUL.0>
0

>  <SCORE.INTRA.SOLV>
1.44137

>  <SCORE.INTRA.SOLV.lig_0>
-116.606

>  <SCORE.INTRA.VDW>
4.99394

>  <SCORE.INTRA.VDW.0>
-6.01229

>  <SCORE.INTRA.norm>
0.0958994

>  <SCORE.RESTR>
21.2642

>  <SCORE.RESTR.CAVITY>
21.2642

>  <SCORE.RESTR.norm>
0.506292

>  <SCORE.SYSTEM>
0

>  <SCORE.SYSTEM.CONST>
0

>  <SCORE.SYSTEM.DIHEDRAL>
0

>  <SCORE.SYSTEM.SOLV>
0

>  <SCORE.SYSTEM.norm>
0

>  <SCORE.heavy>
42

>  <SCORE.norm>
0.816058

>  <RMSD>
7.100

$$$$
2et4_lig
 OpenBabel11021811423D
libRbt.so/2013.1/901 2013/11/27
 42 45  0  0  0  0  0  0  0  0999 V2000
   13.0729    4.5017    9.9074 C   0  0  2  0  0  0  0  0  0  0  0  0
   13.7931    5.7325    9.8156 O   0  0  0  0  0  0  0  0  0  0  0  0
   12.1499    4.6038   11.1485 C   0  0  2  0  0  0  0  0  0  0  0  0
   11.2647    5.7364   11.0530 N   0  0  0  0  0  0  0  0  0  0  0  0
   13.0242    4.6835   12.4332 C   0  0  1  0  0  0  0  0  0  0  0  0
   12.1919    4.7588   13.5483 O   0  0  0  0  0  0  0  0  0  0  0  0
   13.9542    3.4251   12.4710 C   0  0  2  0  0  0  0  0  0  0  0  0
   14.7731    3.4600   13.6206 O   0  0  0  0  0  0  0  0  0  0  0  0
   14.8536    3.3611   11.1994 C   0  0  2  0  0  0  0  0  0  0  0  0
   14.0053    3.3473   10.0475 O   0  0  0  0  0  0  0  0  0  0  0  0
   15.7679    2.0926   11.1831 C   0  0  0  0  0  0  0  0  0  0  0  0
   16.4885    1.9660    9.9641 N   0  0  0  0  0  0  0  0  0  0  0  0
   17.9343    4.6885    9.1712 C   0  0  2  0  0  0  0  0  0  0  0  0
   19.3165    4.7562    8.6806 N   0  0  0  0  0  0  0  0  0  0  0  0
   16.9153    4.6024    7.9117 C   0  0  0  0  0  0  0  0  0  0  0  0
   15.4260    4.5442    8.4462 C   0  0  2  0  0  0  0  0  0  0  0  0
   14.4627    4.4910    7.3322 N   0  0  0  0  0  0  0  0  0  0  0  0
   15.1394    5.8072    9.3267 C   0  0  2  0  0  0  0  0  0  0  0  0
   16.1473    5.8932   10.5203 C   0  0  2  0  0  0  0  0  0  0  0  0
   15.8090    7.0935   11.2578 O   0  0  0  0  0  0  0  0  0  0  0  0
   17.6106    5.9577    9.9763 C   0  0  1  0  0  0  0  0  0  0  0  0
   18.4811    6.0190   11.0552 O   0  0  0  0  0  0  0  0  0  0  0  0
   14.5573    7.4683   11.6170 C   0  0  1  0  0  0  0  0  0  0  0  0
   14.5235    7.9539   13.0896 C   0  0  2  0  0  0  0  0  0  0  0  0
   14.3942    6.9089   14.0094 O   0  0  0  0  0  0  0  0  0  0  0  0
   13.4080    8.9776   12.9863 C   0  0  1  0  0  0  0  0  0  0  0  0
   13.5619    9.6631   11.6213 C   0  0  2  0  0  0  0  0  0  0  0  0
   13.9971    8.5558   10.8326 O   0  0  0  0  0  0  0  0  0  0  0  0
   14.5831   10.8503   11.5732 C   0  0  0  0  0  0  0  0  0  0  0  0
   14.2662   11.7411   12.6755 O   0  0  0  0  0  0  0  0  0  0  0  0
   11.6572    7.9169   14.3759 C   0  0  2  0  0  0  0  0  0  0  0  0
   12.1188    8.2462   13.0943 O   0  0  0  0  0  0  0  0  0  0  0  0
   10.0869    7.6639   14.3785 C   0  0  1  0  0  0  0  0  0  0  0  0
   11.2627   11.2959   17.4618 N   0  0  0  0  0  0  0  0  0  0  0  0
    9.6648    7.3162   15.9009 C   0  0  1  0  0  0  0  0  0  0  0  0
   10.4492    6.0960   16.3403 O   0  0  0  0  0  0  0  0  0  0  0  0
    9.9952    8.5754   16.8661 C   0  0  2  0  0  0  0  0  0  0  0  0
    9.2280    9.7241   16.4324 O   0  0  0  0  0  0  0  0  0  0  0  0
   11.6055    8.8274   16.8082 C   0  0  1  0  0  0  0  0  0  0  0  0
   12.0257    9.0475   15.3809 O   0  0  0  0  0  0  0  0  0  0  0  0
   12.0507   10.0460   17.6903 C   0  0  0  0  0  0  0  0  0  0  0  0
    9.3724    8.8627   13.8280 N   0  0  0  0  0  0  0  0  0  0  0  0
  1  2  1  1  0  0  0
  1  3  1  0  0  0  0
  1 10  1  0  0  0  0
  3  4  1  6  0  0  0
  3  5  1  0  0  0  0
  5  6  1  1  0  0  0
  5  7  1  0  0  0  0
  7  8  1  1  0  0  0
  7  9  1  0  0  0  0
  9 10  1  0  0  0  0
  9 11  1  1  0  0  0
 11 12  1  0  0  0  0
 13 14  1  6  0  0  0
 13 15  1  0  0  0  0
 13 21  1  0  0  0  0
 16 15  1  0  0  0  0
 16 17  1  6  0  0  0
 18  2  1  1  0  0  0
 18 16  1  0  0  0  0
 19 18  1  0  0  0  0
 19 20  1  6  0  0  0
 21 19  1  0  0  0  0
 21 22  1  1  0  0  0
 23 20  1  6  0  0  0
 23 24  1  0  0  0  0
 23 28  1  0  0  0  0
 24 25  1  1  0  0  0
 24 26  1  0  0  0  0
 26 27  1  0  0  0  0
 26 32  1  6  0  0  0
 27 28  1  0  0  0  0
 27 29  1  1  0  0  0
 29 30  1  0  0  0  0
 31 32  1  6  0  0  0
 31 40  1  0  0  0  0
 33 31  1  0  0  0  0
 33 42  1  1  0  0  0
 35 33  1  0  0  0  0
 35 36  1  1  0  0  0
 37 35  1  0  0  0  0
 37 38  1  6  0  0  0
 37 39  1  0  0  0  0
 39 40  1  0  0  0  0
 39 41  1  1  0  0  0
 41 34  1  0  0  0  0
M  END
>  <CHROM.1>
146.30885924,174.13770618,21.86546698,46.08598100,135.23018400,81.86367641
-50.13925098,158.24458757,-49.82384227,13.69451977,6.62384637,12.34003127
0.73178023,-0.71466273,-2.85279004

>  <Name>
2et4_lig

>  <RI>
0

>  <Rbt.Current_Directory>
/home/itssahil/PROJECTS/Mol_Feturizer/New_Systems/rnas/2et4

>  <Rbt.Executable>
rbdock ($Id: //depot/dev/client3/rdock/2013.1/src/exe/rbdock.cxx#4 $)

>  <Rbt.Library>
libRbt.so (2013.1, Build901 2013/11/27)

>  <Rbt.Parameter_File>
/export/apps/rDock/src/rDock_2013.1_src/data/scripts/dock_solv.prm

>  <Rbt.Receptor>
prm/blind_docking_100.prm

>  <SCORE>
22.0238

>  <SCORE.INTER>
-4.48502

>  <SCORE.INTER.CONST>
1

>  <SCORE.INTER.POLAR>
-0.858779

>  <SCORE.INTER.ROT>
9

>  <SCORE.INTER.SOLV>
17.808

>  <SCORE.INTER.VDW>
-15.6634

>  <SCORE.INTER.norm>
-0.106786

>  <SCORE.INTRA>
7.93878

>  <SCORE.INTRA.DIHEDRAL>
-0.15591

>  <SCORE.INTRA.DIHEDRAL.0>
21.6909

>  <SCORE.INTRA.POLAR>
0

>  <SCORE.INTRA.POLAR.0>
0

>  <SCORE.INTRA.REPUL>
0

>  <SCORE.INTRA.REPUL.0>
0

>  <SCORE.INTRA.SOLV>
7.06358

>  <SCORE.INTRA.SOLV.lig_0>
-116.606

>  <SCORE.INTRA.VDW>
4.48495

>  <SCORE.INTRA.VDW.0>
-6.01229

>  <SCORE.INTRA.norm>
0.189019

>  <SCORE.RESTR>
18.57

>  <SCORE.RESTR.CAVITY>
18.57

>  <SCORE.RESTR.norm>
0.442143

>  <SCORE.SYSTEM>
0

>  <SCORE.SYSTEM.CONST>
0

>  <SCORE.SYSTEM.DIHEDRAL>
0

>  <SCORE.SYSTEM.SOLV>
0

>  <SCORE.SYSTEM.norm>
0

>  <SCORE.heavy>
42

>  <SCORE.norm>
0.524376

>  <RMSD>
7.149

$$$$
2et4_lig
 OpenBabel11021811423D
libRbt.so/2013.1/901 2013/11/27
 42 45  0  0  0  0  0  0  0  0999 V2000
   17.7413    6.0827    8.9139 C   0  0  2  0  0  0  0  0  0  0  0  0
   16.6542    5.1571    8.8526 O   0  0  0  0  0  0  0  0  0  0  0  0
   17.5533    7.0863    7.7476 C   0  0  2  0  0  0  0  0  0  0  0  0
   16.2781    7.7519    7.8279 N   0  0  0  0  0  0  0  0  0  0  0  0
   17.7083    6.3350    6.3939 C   0  0  1  0  0  0  0  0  0  0  0  0
   17.5549    7.2424    5.3475 O   0  0  0  0  0  0  0  0  0  0  0  0
   19.1114    5.6415    6.3769 C   0  0  2  0  0  0  0  0  0  0  0  0
   19.2923    4.9396    5.1653 O   0  0  0  0  0  0  0  0  0  0  0  0
   19.2559    4.6517    7.5725 C   0  0  2  0  0  0  0  0  0  0  0  0
   19.0489    5.3786    8.7871 O   0  0  0  0  0  0  0  0  0  0  0  0
   20.6629    3.9703    7.6113 C   0  0  0  0  0  0  0  0  0  0  0  0
   21.7049    4.9045    7.8618 N   0  0  0  0  0  0  0  0  0  0  0  0
   15.0275    1.6320   10.7452 C   0  0  2  0  0  0  0  0  0  0  0  0
   14.9142    0.4663   11.6307 N   0  0  0  0  0  0  0  0  0  0  0  0
   16.3236    1.4596    9.7847 C   0  0  0  0  0  0  0  0  0  0  0  0
   16.4490    2.7258    8.8423 C   0  0  2  0  0  0  0  0  0  0  0  0
   17.6309    2.6233    7.9680 N   0  0  0  0  0  0  0  0  0  0  0  0
   16.5568    4.0187    9.7195 C   0  0  2  0  0  0  0  0  0  0  0  0
   15.3149    4.1569   10.6610 C   0  0  2  0  0  0  0  0  0  0  0  0
   15.5177    5.3657   11.4335 O   0  0  0  0  0  0  0  0  0  0  0  0
   15.2099    2.9042   11.5890 C   0  0  1  0  0  0  0  0  0  0  0  0
   14.0940    3.0479   12.4012 O   0  0  0  0  0  0  0  0  0  0  0  0
   14.7703    6.4922   11.3403 C   0  0  1  0  0  0  0  0  0  0  0  0
   13.4579    6.3575   12.1557 C   0  0  2  0  0  0  0  0  0  0  0  0
   12.4376    5.7116   11.4509 O   0  0  0  0  0  0  0  0  0  0  0  0
   13.2643    7.8092   12.5534 C   0  0  1  0  0  0  0  0  0  0  0  0
   14.6613    8.3811   12.8331 C   0  0  2  0  0  0  0  0  0  0  0  0
   15.4169    7.6963   11.8342 O   0  0  0  0  0  0  0  0  0  0  0  0
   15.2231    8.1177   14.2717 C   0  0  0  0  0  0  0  0  0  0  0  0
   15.2307    6.6803   14.4789 O   0  0  0  0  0  0  0  0  0  0  0  0
   12.2704    9.8521   11.5736 C   0  0  2  0  0  0  0  0  0  0  0  0
   12.6029    8.4999   11.4157 O   0  0  0  0  0  0  0  0  0  0  0  0
   11.7408   10.4809   10.2121 C   0  0  1  0  0  0  0  0  0  0  0  0
   15.4579   11.8719   13.7044 N   0  0  0  0  0  0  0  0  0  0  0  0
   11.4111   12.0373   10.5048 C   0  0  1  0  0  0  0  0  0  0  0  0
   10.3782   12.0998   11.6124 O   0  0  0  0  0  0  0  0  0  0  0  0
   12.7623   12.8129   10.9507 C   0  0  2  0  0  0  0  0  0  0  0  0
   13.7283   12.7474    9.8742 O   0  0  0  0  0  0  0  0  0  0  0  0
   13.2948   12.1174   12.3263 C   0  0  1  0  0  0  0  0  0  0  0  0
   13.5044   10.6463   12.0936 O   0  0  0  0  0  0  0  0  0  0  0  0
   14.6220   12.7699   12.8498 C   0  0  0  0  0  0  0  0  0  0  0  0
   12.7587   10.2882    9.1269 N   0  0  0  0  0  0  0  0  0  0  0  0
  1  2  1  6  0  0  0
  1  3  1  0  0  0  0
  1 10  1  0  0  0  0
  3  4  1  6  0  0  0
  3  5  1  0  0  0  0
  5  6  1  6  0  0  0
  5  7  1  0  0  0  0
  7  8  1  6  0  0  0
  7  9  1  0  0  0  0
  9 10  1  0  0  0  0
  9 11  1  1  0  0  0
 11 12  1  0  0  0  0
 13 14  1  1  0  0  0
 13 15  1  0  0  0  0
 13 21  1  0  0  0  0
 16 15  1  0  0  0  0
 16 17  1  1  0  0  0
 18  2  1  6  0  0  0
 18 16  1  0  0  0  0
 19 18  1  0  0  0  0
 19 20  1  1  0  0  0
 21 19  1  0  0  0  0
 21 22  1  1  0  0  0
 23 20  1  1  0  0  0
 23 24  1  0  0  0  0
 23 28  1  0  0  0  0
 24 25  1  6  0  0  0
 24 26  1  0  0  0  0
 26 27  1  0  0  0  0
 26 32  1  6  0  0  0
 27 28  1  0  0  0  0
 27 29  1  1  0  0  0
 29 30  1  0  0  0  0
 31 32  1  6  0  0  0
 31 40  1  0  0  0  0
 33 31  1  0  0  0  0
 33 42  1  6  0  0  0
 35 33  1  0  0  0  0
 35 36  1  1  0  0  0
 37 35  1  0  0  0  0
 37 38  1  6  0  0  0
 37 39  1  0  0  0  0
 39 40  1  0  0  0  0
 39 41  1  6  0  0  0
 41 34  1  0  0  0  0
M  END
>  <CHROM.1>
175.00549200,65.35787238,-123.28922173,113.01472824,81.05082132,177.46911072
57.15820379,172.92142120,-155.06451018,15.43498531,6.94612838,10.25557248
-0.65929210,0.82141394,-0.30004791

>  <Name>
2et4_lig

>  <RI>
0

>  <Rbt.Current_Directory>
/home/itssahil/PROJECTS/Mol_Feturizer/New_Systems/rnas/2et4

>  <Rbt.Executable>
rbdock ($Id: //depot/dev/client3/rdock/2013.1/src/exe/rbdock.cxx#4 $)

>  <Rbt.Library>
libRbt.so (2013.1, Build901 2013/11/27)

>  <Rbt.Parameter_File>
/export/apps/rDock/src/rDock_2013.1_src/data/scripts/dock_solv.prm

>  <Rbt.Receptor>
prm/blind_docking_40.prm

>  <SCORE>
20.9027

>  <SCORE.INTER>
-2.68574

>  <SCORE.INTER.CONST>
1

>  <SCORE.INTER.POLAR>
-2.15163

>  <SCORE.INTER.ROT>
9

>  <SCORE.INTER.SOLV>
39.8639

>  <SCORE.INTER.VDW>
-17.5064

>  <SCORE.INTER.norm>
-0.0639463

>  <SCORE.INTRA>
1.58924

>  <SCORE.INTRA.DIHEDRAL>
-2.98912

>  <SCORE.INTRA.DIHEDRAL.0>
21.6909

>  <SCORE.INTRA.POLAR>
0

>  <SCORE.INTRA.POLAR.0>
0

>  <SCORE.INTRA.REPUL>
0

>  <SCORE.INTRA.REPUL.0>
0

>  <SCORE.INTRA.SOLV>
2.60923

>  <SCORE.INTRA.SOLV.lig_0>
-116.606

>  <SCORE.INTRA.VDW>
1.77919

>  <SCORE.INTRA.VDW.0>
-6.01229

>  <SCORE.INTRA.norm>
0.0378391

>  <SCORE.RESTR>
21.9992

>  <SCORE.RESTR.CAVITY>
21.9992

>  <SCORE.RESTR.norm>
0.523792

>  <SCORE.SYSTEM>
0

>  <SCORE.SYSTEM.CONST>
0

>  <SCORE.SYSTEM.DIHEDRAL>
0

>  <SCORE.SYSTEM.SOLV>
0

>  <SCORE.SYSTEM.norm>
0

>  <SCORE.heavy>
42

>  <SCORE.norm>
0.497684

>  <RMSD>
7.150

$$$$
2et4_lig
 OpenBabel11021811423D
libRbt.so/2013.1/901 2013/11/27
 42 45  0  0  0  0  0  0  0  0999 V2000
   18.7937    2.9500    7.9719 C   0  0  2  0  0  0  0  0  0  0  0  0
   18.1581    3.2731    9.2103 O   0  0  0  0  0  0  0  0  0  0  0  0
   20.2030    3.5947    7.9996 C   0  0  2  0  0  0  0  0  0  0  0  0
   20.9686    3.1354    9.1304 N   0  0  0  0  0  0  0  0  0  0  0  0
   20.0585    5.1439    8.0137 C   0  0  1  0  0  0  0  0  0  0  0  0
   21.3269    5.7211    8.0222 O   0  0  0  0  0  0  0  0  0  0  0  0
   19.2219    5.5687    6.7608 C   0  0  2  0  0  0  0  0  0  0  0  0
   19.0595    6.9710    6.7372 O   0  0  0  0  0  0  0  0  0  0  0  0
   17.8198    4.8876    6.7726 C   0  0  2  0  0  0  0  0  0  0  0  0
   18.0076    3.4701    6.8173 O   0  0  0  0  0  0  0  0  0  0  0  0
   16.9706    5.2571    5.5126 C   0  0  0  0  0  0  0  0  0  0  0  0
   15.5751    5.2477    5.7843 N   0  0  0  0  0  0  0  0  0  0  0  0
   14.3893    1.3366   10.0477 C   0  0  2  0  0  0  0  0  0  0  0  0
   13.3964    0.4611   10.6827 N   0  0  0  0  0  0  0  0  0  0  0  0
   15.5975    0.4378    9.4437 C   0  0  0  0  0  0  0  0  0  0  0  0
   16.6721    1.3879    8.7730 C   0  0  2  0  0  0  0  0  0  0  0  0
   17.8032    0.6134    8.2321 N   0  0  0  0  0  0  0  0  0  0  0  0
   17.1980    2.4106    9.8360 C   0  0  2  0  0  0  0  0  0  0  0  0
   16.0193    3.2500   10.4308 C   0  0  2  0  0  0  0  0  0  0  0  0
   16.6052    4.1473   11.4059 O   0  0  0  0  0  0  0  0  0  0  0  0
   14.9724    2.2992   11.0951 C   0  0  1  0  0  0  0  0  0  0  0  0
   13.9341    3.0688   11.6004 O   0  0  0  0  0  0  0  0  0  0  0  0
   16.0392    5.2916   11.8601 C   0  0  1  0  0  0  0  0  0  0  0  0
   15.8528    6.3145   10.7093 C   0  0  2  0  0  0  0  0  0  0  0  0
   17.0011    7.0710   10.4559 O   0  0  0  0  0  0  0  0  0  0  0  0
   14.6073    7.0233   11.2083 C   0  0  1  0  0  0  0  0  0  0  0  0
   13.7218    5.9534   11.8626 C   0  0  2  0  0  0  0  0  0  0  0  0
   14.7237    5.1274   12.4555 O   0  0  0  0  0  0  0  0  0  0  0  0
   12.8042    5.1450   10.8833 C   0  0  0  0  0  0  0  0  0  0  0  0
   12.1881    6.0989    9.9780 O   0  0  0  0  0  0  0  0  0  0  0  0
   14.6334    9.3772   11.9699 C   0  0  2  0  0  0  0  0  0  0  0  0
   15.0414    8.0542   12.1869 O   0  0  0  0  0  0  0  0  0  0  0  0
   14.3908   10.1411   13.3437 C   0  0  1  0  0  0  0  0  0  0  0  0
   10.9229   11.9083    9.4168 N   0  0  0  0  0  0  0  0  0  0  0  0
   13.9057   11.6394   12.9743 C   0  0  1  0  0  0  0  0  0  0  0  0
   14.9852   12.2899   12.1322 O   0  0  0  0  0  0  0  0  0  0  0  0
   12.5100   11.5805   12.1528 C   0  0  2  0  0  0  0  0  0  0  0  0
   11.4941   10.9646   12.9804 O   0  0  0  0  0  0  0  0  0  0  0  0
   12.7891   10.7594   10.7716 C   0  0  1  0  0  0  0  0  0  0  0  0
   13.3413    9.3999   11.1016 O   0  0  0  0  0  0  0  0  0  0  0  0
   11.4974   10.6128    9.8934 C   0  0  0  0  0  0  0  0  0  0  0  0
   13.3980    9.3899   14.1809 N   0  0  0  0  0  0  0  0  0  0  0  0
  1  2  1  1  0  0  0
  1  3  1  0  0  0  0
  1 10  1  0  0  0  0
  3  4  1  1  0  0  0
  3  5  1  0  0  0  0
  5  6  1  6  0  0  0
  5  7  1  0  0  0  0
  7  8  1  1  0  0  0
  7  9  1  0  0  0  0
  9 10  1  0  0  0  0
  9 11  1  6  0  0  0
 11 12  1  0  0  0  0
 13 14  1  1  0  0  0
 13 15  1  0  0  0  0
 13 21  1  0  0  0  0
 16 15  1  0  0  0  0
 16 17  1  1  0  0  0
 18  2  1  6  0  0  0
 18 16  1  0  0  0  0
 19 18  1  0  0  0  0
 19 20  1  1  0  0  0
 21 19  1  0  0  0  0
 21 22  1  6  0  0  0
 23 20  1  6  0  0  0
 23 24  1  0  0  0  0
 23 28  1  0  0  0  0
 24 25  1  1  0  0  0
 24 26  1  0  0  0  0
 26 27  1  0  0  0  0
 26 32  1  1  0  0  0
 27 28  1  0  0  0  0
 27 29  1  6  0  0  0
 29 30  1  0  0  0  0
 31 32  1  1  0  0  0
 31 40  1  0  0  0  0
 33 31  1  0  0  0  0
 33 42  1  1  0  0  0
 35 33  1  0  0  0  0
 35 36  1  6  0  0  0
 37 35  1  0  0  0  0
 37 38  1  1  0  0  0
 37 39  1  0  0  0  0
 39 40  1  0  0  0  0
 39 41  1  1  0  0  0
 41 34  1  0  0  0  0
M  END
>  <CHROM.1>
-149.31893496,-150.26889856,-17.54632393,159.28537374,-62.83648287,125.40235052
-45.10896835,146.57097476,62.45135454,15.67773239,5.95481693,10.07511871
-0.87678123,0.61333556,0.00250450

>  <Name>
2et4_lig

>  <RI>
0

>  <Rbt.Current_Directory>
/home/itssahil/PROJECTS/Mol_Feturizer/New_Systems/rnas/2et4

>  <Rbt.Executable>
rbdock ($Id: //depot/dev/client3/rdock/2013.1/src/exe/rbdock.cxx#4 $)

>  <Rbt.Library>
libRbt.so (2013.1, Build901 2013/11/27)

>  <Rbt.Parameter_File>
/export/apps/rDock/src/rDock_2013.1_src/data/scripts/dock_solv.prm

>  <Rbt.Receptor>
prm/blind_docking_40.prm

>  <SCORE>
58.1887

>  <SCORE.INTER>
24.8151

>  <SCORE.INTER.CONST>
1

>  <SCORE.INTER.POLAR>
-0.573804

>  <SCORE.INTER.ROT>
9

>  <SCORE.INTER.SOLV>
34.9774

>  <SCORE.INTER.VDW>
-2.80304

>  <SCORE.INTER.norm>
0.590836

>  <SCORE.INTRA>
11.1078

>  <SCORE.INTRA.DIHEDRAL>
4.47841

>  <SCORE.INTRA.DIHEDRAL.0>
21.6909

>  <SCORE.INTRA.POLAR>
0

>  <SCORE.INTRA.POLAR.0>
0

>  <SCORE.INTRA.REPUL>
0

>  <SCORE.INTRA.REPUL.0>
0

>  <SCORE.INTRA.SOLV>
-1.32967

>  <SCORE.INTRA.SOLV.lig_0>
-116.606

>  <SCORE.INTRA.VDW>
9.53345

>  <SCORE.INTRA.VDW.0>
-6.01229

>  <SCORE.INTRA.norm>
0.264472

>  <SCORE.RESTR>
22.2657

>  <SCORE.RESTR.CAVITY>
22.2657

>  <SCORE.RESTR.norm>
0.530137

>  <SCORE.SYSTEM>
0

>  <SCORE.SYSTEM.CONST>
0

>  <SCORE.SYSTEM.DIHEDRAL>
0

>  <SCORE.SYSTEM.SOLV>
0

>  <SCORE.SYSTEM.norm>
0

>  <SCORE.heavy>
42

>  <SCORE.norm>
1.38544

>  <RMSD>
7.162

$$$$
2et4_lig
 OpenBabel11021811423D
libRbt.so/2013.1/901 2013/11/27
 42 45  0  0  0  0  0  0  0  0999 V2000
   16.5776    1.8986    4.6254 C   0  0  2  0  0  0  0  0  0  0  0  0
   16.3096    3.0655    5.4056 O   0  0  0  0  0  0  0  0  0  0  0  0
   16.0075    0.6865    5.4053 C   0  0  2  0  0  0  0  0  0  0  0  0
   14.5994    0.8448    5.6659 N   0  0  0  0  0  0  0  0  0  0  0  0
   16.8050    0.5069    6.7293 C   0  0  1  0  0  0  0  0  0  0  0  0
   16.3011   -0.5930    7.4206 O   0  0  0  0  0  0  0  0  0  0  0  0
   18.3190    0.3388    6.3696 C   0  0  2  0  0  0  0  0  0  0  0  0
   19.0835    0.1796    7.5459 O   0  0  0  0  0  0  0  0  0  0  0  0
   18.8423    1.5758    5.5783 C   0  0  2  0  0  0  0  0  0  0  0  0
   18.0418    1.7306    4.4028 O   0  0  0  0  0  0  0  0  0  0  0  0
   20.3429    1.4240    5.1655 C   0  0  0  0  0  0  0  0  0  0  0  0
   20.5512    0.3187    4.2960 N   0  0  0  0  0  0  0  0  0  0  0  0
   13.6035    6.3664    4.7455 C   0  0  2  0  0  0  0  0  0  0  0  0
   12.3532    7.1292    4.6428 N   0  0  0  0  0  0  0  0  0  0  0  0
   13.5674    5.1232    3.7037 C   0  0  0  0  0  0  0  0  0  0  0  0
   14.9117    4.2959    3.8291 C   0  0  2  0  0  0  0  0  0  0  0  0
   14.9115    3.1389    2.9164 N   0  0  0  0  0  0  0  0  0  0  0  0
   15.0814    3.7992    5.3046 C   0  0  2  0  0  0  0  0  0  0  0  0
   15.0854    5.0059    6.3005 C   0  0  2  0  0  0  0  0  0  0  0  0
   15.2311    4.4428    7.6274 O   0  0  0  0  0  0  0  0  0  0  0  0
   13.7501    5.8066    6.1699 C   0  0  1  0  0  0  0  0  0  0  0  0
   13.7879    6.8764    7.0530 O   0  0  0  0  0  0  0  0  0  0  0  0
   14.2211    3.9612    8.3917 C   0  0  1  0  0  0  0  0  0  0  0  0
   13.7228    2.5933    7.8568 C   0  0  2  0  0  0  0  0  0  0  0  0
   12.7855    2.7152    6.8264 O   0  0  0  0  0  0  0  0  0  0  0  0
   13.2902    1.9592    9.1658 C   0  0  1  0  0  0  0  0  0  0  0  0
   14.3043    2.4039   10.2290 C   0  0  2  0  0  0  0  0  0  0  0  0
   14.5645    3.7356    9.7855 O   0  0  0  0  0  0  0  0  0  0  0  0
   15.6154    1.5500   10.3107 C   0  0  0  0  0  0  0  0  0  0  0  0
   15.2310    0.1970   10.6723 O   0  0  0  0  0  0  0  0  0  0  0  0
   11.1911    1.7854   10.4638 C   0  0  2  0  0  0  0  0  0  0  0  0
   11.9209    2.4507    9.4695 O   0  0  0  0  0  0  0  0  0  0  0  0
   10.4968    0.4734    9.8924 C   0  0  1  0  0  0  0  0  0  0  0  0
    7.3195    2.7764   13.7400 N   0  0  0  0  0  0  0  0  0  0  0  0
    9.6707   -0.1957   11.1116 C   0  0  1  0  0  0  0  0  0  0  0  0
   10.6459   -0.4971   12.2321 O   0  0  0  0  0  0  0  0  0  0  0  0
    8.5215    0.8252   11.6250 C   0  0  2  0  0  0  0  0  0  0  0  0
    7.5985    1.0898   10.5414 O   0  0  0  0  0  0  0  0  0  0  0  0
    9.2680    2.1701   12.1672 C   0  0  1  0  0  0  0  0  0  0  0  0
   10.1239    2.7427   11.0711 O   0  0  0  0  0  0  0  0  0  0  0  0
    8.2523    3.2533   12.6733 C   0  0  0  0  0  0  0  0  0  0  0  0
    9.6332    0.8200    8.7156 N   0  0  0  0  0  0  0  0  0  0  0  0
  1  2  1  1  0  0  0
  1  3  1  0  0  0  0
  1 10  1  0  0  0  0
  3  4  1  1  0  0  0
  3  5  1  0  0  0  0
  5  6  1  6  0  0  0
  5  7  1  0  0  0  0
  7  8  1  1  0  0  0
  7  9  1  0  0  0  0
  9 10  1  0  0  0  0
  9 11  1  6  0  0  0
 11 12  1  0  0  0  0
 13 14  1  1  0  0  0
 13 15  1  0  0  0  0
 13 21  1  0  0  0  0
 16 15  1  0  0  0  0
 16 17  1  6  0  0  0
 18  2  1  6  0  0  0
 18 16  1  0  0  0  0
 19 18  1  0  0  0  0
 19 20  1  1  0  0  0
 21 19  1  0  0  0  0
 21 22  1  1  0  0  0
 23 20  1  6  0  0  0
 23 24  1  0  0  0  0
 23 28  1  0  0  0  0
 24 25  1  6  0  0  0
 24 26  1  0  0  0  0
 26 27  1  0  0  0  0
 26 32  1  1  0  0  0
 27 28  1  0  0  0  0
 27 29  1  6  0  0  0
 29 30  1  0  0  0  0
 31 32  1  6  0  0  0
 31 40  1  0  0  0  0
 33 31  1  0  0  0  0
 33 42  1  6  0  0  0
 35 33  1  0  0  0  0
 35 36  1  1  0  0  0
 37 35  1  0  0  0  0
 37 38  1  6  0  0  0
 37 39  1  0  0  0  0
 39 40  1  0  0  0  0
 39 41  1  6  0  0  0
 41 34  1  0  0  0  0
M  END
>  <CHROM.1>
-87.24740955,62.13499887,-59.15744970,-84.02749154,73.72823568,166.08808684
-62.22318602,-82.01186997,56.17202368,13.87192790,2.38802718,7.83843731,-0.46879784
-0.49995933,2.41087332

>  <Name>
2et4_lig

>  <RI>
1.79929e+07

>  <Rbt.Current_Directory>
/home/itssahil/PROJECTS/Mol_Feturizer/New_Systems/rnas/2et4

>  <Rbt.Executable>
rbdock ($Id: //depot/dev/client3/rdock/2013.1/src/exe/rbdock.cxx#4 $)

>  <Rbt.Library>
libRbt.so (2013.1, Build901 2013/11/27)

>  <Rbt.Parameter_File>
/export/apps/rDock/src/rDock_2013.1_src/data/scripts/dock_solv.prm

>  <Rbt.Receptor>
prm/pocket_docking_7.prm

>  <SCORE>
-8.22483

>  <SCORE.INTER>
-5.48025

>  <SCORE.INTER.CONST>
1

>  <SCORE.INTER.POLAR>
-0.916515

>  <SCORE.INTER.ROT>
9

>  <SCORE.INTER.SOLV>
6.80844

>  <SCORE.INTER.VDW>
-12.4679

>  <SCORE.INTER.norm>
-0.130482

>  <SCORE.INTRA>
-2.74458

>  <SCORE.INTRA.DIHEDRAL>
-11.9221

>  <SCORE.INTRA.DIHEDRAL.0>
21.6909

>  <SCORE.INTRA.POLAR>
0

>  <SCORE.INTRA.POLAR.0>
0

>  <SCORE.INTRA.REPUL>
0

>  <SCORE.INTRA.REPUL.0>
0

>  <SCORE.INTRA.SOLV>
3.51116

>  <SCORE.INTRA.SOLV.lig_0>
-116.606

>  <SCORE.INTRA.VDW>
1.46091

>  <SCORE.INTRA.VDW.0>
-6.01229

>  <SCORE.INTRA.norm>
-0.0653472

>  <SCORE.RESTR>
0

>  <SCORE.RESTR.CAVITY>
0

>  <SCORE.RESTR.norm>
0

>  <SCORE.SYSTEM>
0

>  <SCORE.SYSTEM.CONST>
0

>  <SCORE.SYSTEM.DIHEDRAL>
0

>  <SCORE.SYSTEM.SOLV>
0

>  <SCORE.SYSTEM.norm>
0

>  <SCORE.heavy>
42

>  <SCORE.norm>
-0.195829

>  <RMSD>
7.207

$$$$
2et4_lig
 OpenBabel11021811423D
libRbt.so/2013.1/901 2013/11/27
 42 45  0  0  0  0  0  0  0  0999 V2000
   11.7240    8.8659   11.5098 C   0  0  2  0  0  0  0  0  0  0  0  0
   12.2752    8.6580   12.8117 O   0  0  0  0  0  0  0  0  0  0  0  0
   12.8318    9.5172   10.6431 C   0  0  2  0  0  0  0  0  0  0  0  0
   14.0149    8.6963   10.5989 N   0  0  0  0  0  0  0  0  0  0  0  0
   13.1538   10.9336   11.2012 C   0  0  1  0  0  0  0  0  0  0  0  0
   14.1383   11.5232   10.4107 O   0  0  0  0  0  0  0  0  0  0  0  0
   11.8285   11.7661   11.2174 C   0  0  2  0  0  0  0  0  0  0  0  0
   12.0735   13.0605   11.7252 O   0  0  0  0  0  0  0  0  0  0  0  0
   10.7440   11.0663   12.0916 C   0  0  2  0  0  0  0  0  0  0  0  0
   10.5264    9.7510   11.5727 O   0  0  0  0  0  0  0  0  0  0  0  0
    9.3908   11.8500   12.0974 C   0  0  0  0  0  0  0  0  0  0  0  0
    9.5059   13.1150   12.7360 N   0  0  0  0  0  0  0  0  0  0  0  0
   13.9972    4.7013   12.6262 C   0  0  2  0  0  0  0  0  0  0  0  0
   14.5072    3.3943   13.0590 N   0  0  0  0  0  0  0  0  0  0  0  0
   14.8565    5.8808   13.3352 C   0  0  0  0  0  0  0  0  0  0  0  0
   14.2929    7.2875   12.8762 C   0  0  2  0  0  0  0  0  0  0  0  0
   15.0296    8.3908   13.5178 N   0  0  0  0  0  0  0  0  0  0  0  0
   12.7746    7.3859   13.2470 C   0  0  2  0  0  0  0  0  0  0  0  0
   11.9631    6.2262   12.5804 C   0  0  2  0  0  0  0  0  0  0  0  0
   10.5854    6.3981   12.9946 O   0  0  0  0  0  0  0  0  0  0  0  0
   12.5262    4.8462   13.0492 C   0  0  1  0  0  0  0  0  0  0  0  0
   11.7978    3.8389   12.4324 O   0  0  0  0  0  0  0  0  0  0  0  0
    9.4968    6.0585   12.2625 C   0  0  1  0  0  0  0  0  0  0  0  0
    8.2499    5.8846   13.1683 C   0  0  2  0  0  0  0  0  0  0  0  0
    8.1646    4.6146   13.7470 O   0  0  0  0  0  0  0  0  0  0  0  0
    7.1724    6.3149   12.1903 C   0  0  1  0  0  0  0  0  0  0  0  0
    7.7603    7.4670   11.3634 C   0  0  2  0  0  0  0  0  0  0  0  0
    9.1144    7.0293   11.2511 O   0  0  0  0  0  0  0  0  0  0  0  0
    7.6591    8.8874   12.0169 C   0  0  0  0  0  0  0  0  0  0  0  0
    8.3579    8.8314   13.2887 O   0  0  0  0  0  0  0  0  0  0  0  0
    7.6746    4.8668   10.2480 C   0  0  2  0  0  0  0  0  0  0  0  0
    6.8429    5.1394   11.3426 O   0  0  0  0  0  0  0  0  0  0  0  0
    6.8279    4.4557    8.9659 C   0  0  1  0  0  0  0  0  0  0  0  0
    9.8916    1.0049   10.5857 N   0  0  0  0  0  0  0  0  0  0  0  0
    7.8833    4.1446    7.7801 C   0  0  1  0  0  0  0  0  0  0  0  0
    8.7146    5.3911    7.5504 O   0  0  0  0  0  0  0  0  0  0  0  0
    8.8354    2.9026    8.2008 C   0  0  2  0  0  0  0  0  0  0  0  0
    8.0204    1.7235    8.4051 O   0  0  0  0  0  0  0  0  0  0  0  0
    9.6576    3.3468    9.5374 C   0  0  1  0  0  0  0  0  0  0  0  0
    8.6845    3.7401   10.6147 O   0  0  0  0  0  0  0  0  0  0  0  0
   10.6039    2.2103   10.0610 C   0  0  0  0  0  0  0  0  0  0  0  0
    5.9422    3.2882    9.2876 N   0  0  0  0  0  0  0  0  0  0  0  0
  1  2  1  1  0  0  0
  1  3  1  0  0  0  0
  1 10  1  0  0  0  0
  3  4  1  1  0  0  0
  3  5  1  0  0  0  0
  5  6  1  6  0  0  0
  5  7  1  0  0  0  0
  7  8  1  1  0  0  0
  7  9  1  0  0  0  0
  9 10  1  0  0  0  0
  9 11  1  6  0  0  0
 11 12  1  0  0  0  0
 13 14  1  1  0  0  0
 13 15  1  0  0  0  0
 13 21  1  0  0  0  0
 16 15  1  0  0  0  0
 16 17  1  1  0  0  0
 18  2  1  6  0  0  0
 18 16  1  0  0  0  0
 19 18  1  0  0  0  0
 19 20  1  1  0  0  0
 21 19  1  0  0  0  0
 21 22  1  6  0  0  0
 23 20  1  1  0  0  0
 23 24  1  0  0  0  0
 23 28  1  0  0  0  0
 24 25  1  6  0  0  0
 24 26  1  0  0  0  0
 26 27  1  0  0  0  0
 26 32  1  6  0  0  0
 27 28  1  0  0  0  0
 27 29  1  1  0  0  0
 29 30  1  0  0  0  0
 31 32  1  1  0  0  0
 31 40  1  0  0  0  0
 33 31  1  0  0  0  0
 33 42  1  1  0  0  0
 35 33  1  0  0  0  0
 35 36  1  1  0  0  0
 37 35  1  0  0  0  0
 37 38  1  1  0  0  0
 37 39  1  0  0  0  0
 39 40  1  0  0  0  0
 39 41  1  1  0  0  0
 41 34  1  0  0  0  0
M  END
>  <CHROM.1>
-99.62317594,-66.11283175,89.56309232,148.78790065,159.04125861,-82.24073897
58.85038585,-138.01849883,-66.96178318,10.45472594,6.77939850,11.43590038
1.06187935,-0.30861836,0.11565266

>  <Name>
2et4_lig

>  <RI>
1.79929e+07

>  <Rbt.Current_Directory>
/home/itssahil/PROJECTS/Mol_Feturizer/New_Systems/rnas/2et4

>  <Rbt.Executable>
rbdock ($Id: //depot/dev/client3/rdock/2013.1/src/exe/rbdock.cxx#4 $)

>  <Rbt.Library>
libRbt.so (2013.1, Build901 2013/11/27)

>  <Rbt.Parameter_File>
/export/apps/rDock/src/rDock_2013.1_src/data/scripts/dock_solv.prm

>  <Rbt.Receptor>
prm/pocket_docking_7.prm

>  <SCORE>
-6.0446

>  <SCORE.INTER>
-10.3062

>  <SCORE.INTER.CONST>
1

>  <SCORE.INTER.POLAR>
-1.77025

>  <SCORE.INTER.ROT>
9

>  <SCORE.INTER.SOLV>
16.3364

>  <SCORE.INTER.VDW>
-16.0154

>  <SCORE.INTER.norm>
-0.245385

>  <SCORE.INTRA>
4.24207

>  <SCORE.INTRA.DIHEDRAL>
1.26892

>  <SCORE.INTRA.DIHEDRAL.0>
21.6909

>  <SCORE.INTRA.POLAR>
0

>  <SCORE.INTRA.POLAR.0>
0

>  <SCORE.INTRA.REPUL>
0.00606391

>  <SCORE.INTRA.REPUL.0>
0

>  <SCORE.INTRA.SOLV>
4.96872

>  <SCORE.INTRA.SOLV.lig_0>
-116.606

>  <SCORE.INTRA.VDW>
1.09293

>  <SCORE.INTRA.VDW.0>
-6.01229

>  <SCORE.INTRA.norm>
0.101002

>  <SCORE.RESTR>
0.019503

>  <SCORE.RESTR.CAVITY>
0.019503

>  <SCORE.RESTR.norm>
0.000464358

>  <SCORE.SYSTEM>
0

>  <SCORE.SYSTEM.CONST>
0

>  <SCORE.SYSTEM.DIHEDRAL>
0

>  <SCORE.SYSTEM.SOLV>
0

>  <SCORE.SYSTEM.norm>
0

>  <SCORE.heavy>
42

>  <SCORE.norm>
-0.143919

>  <RMSD>
7.221

$$$$
2et4_lig
 OpenBabel11021811423D
libRbt.so/2013.1/901 2013/11/27
 42 45  0  0  0  0  0  0  0  0999 V2000
   14.5600    6.4046    9.2088 C   0  0  2  0  0  0  0  0  0  0  0  0
   13.9560    5.1276    8.9926 O   0  0  0  0  0  0  0  0  0  0  0  0
   16.0810    6.1661    9.3891 C   0  0  2  0  0  0  0  0  0  0  0  0
   16.6460    5.4927    8.2476 N   0  0  0  0  0  0  0  0  0  0  0  0
   16.3220    5.3536   10.6941 C   0  0  1  0  0  0  0  0  0  0  0  0
   17.6909    5.1546   10.8621 O   0  0  0  0  0  0  0  0  0  0  0  0
   15.6865    6.1434   11.8866 C   0  0  2  0  0  0  0  0  0  0  0  0
   15.8760    5.4365   13.0940 O   0  0  0  0  0  0  0  0  0  0  0  0
   14.1614    6.3671   11.6544 C   0  0  2  0  0  0  0  0  0  0  0  0
   13.9914    7.0658   10.4175 O   0  0  0  0  0  0  0  0  0  0  0  0
   13.5004    7.1903   12.8080 C   0  0  0  0  0  0  0  0  0  0  0  0
   12.0851    7.2446   12.6858 N   0  0  0  0  0  0  0  0  0  0  0  0
   10.2334    3.6365    7.3885 C   0  0  2  0  0  0  0  0  0  0  0  0
    8.7910    3.4605    7.1781 N   0  0  0  0  0  0  0  0  0  0  0  0
   10.6045    3.2802    8.9272 C   0  0  0  0  0  0  0  0  0  0  0  0
   12.1584    3.4855    9.1520 C   0  0  2  0  0  0  0  0  0  0  0  0
   12.5369    3.1970   10.5467 N   0  0  0  0  0  0  0  0  0  0  0  0
   12.5447    4.9616    8.7990 C   0  0  2  0  0  0  0  0  0  0  0  0
   12.1549    5.3003    7.3221 C   0  0  2  0  0  0  0  0  0  0  0  0
   12.5372    6.6804    7.1026 O   0  0  0  0  0  0  0  0  0  0  0  0
   10.6187    5.1003    7.1190 C   0  0  1  0  0  0  0  0  0  0  0  0
   10.3052    5.3938    5.7994 O   0  0  0  0  0  0  0  0  0  0  0  0
   12.1366    7.7353    7.8529 C   0  0  1  0  0  0  0  0  0  0  0  0
   12.0819    9.0323    7.0041 C   0  0  2  0  0  0  0  0  0  0  0  0
   13.3205    9.6725    6.8995 O   0  0  0  0  0  0  0  0  0  0  0  0
   10.9491    9.7466    7.7177 C   0  0  1  0  0  0  0  0  0  0  0  0
    9.9314    8.6700    8.1204 C   0  0  2  0  0  0  0  0  0  0  0  0
   10.8162    7.5975    8.4439 O   0  0  0  0  0  0  0  0  0  0  0  0
    8.9038    8.2633    7.0099 C   0  0  0  0  0  0  0  0  0  0  0  0
    7.9690    7.3250    7.6056 O   0  0  0  0  0  0  0  0  0  0  0  0
   10.7114   11.3235    9.6094 C   0  0  2  0  0  0  0  0  0  0  0  0
   11.5282   10.4296    8.9039 O   0  0  0  0  0  0  0  0  0  0  0  0
   11.5625   12.2167   10.6132 C   0  0  1  0  0  0  0  0  0  0  0  0
    6.9231    9.4629   10.9836 N   0  0  0  0  0  0  0  0  0  0  0  0
   10.5225   13.1874   11.3831 C   0  0  1  0  0  0  0  0  0  0  0  0
    9.7945   14.0168   10.3440 O   0  0  0  0  0  0  0  0  0  0  0  0
    9.4674   12.3002   12.2353 C   0  0  2  0  0  0  0  0  0  0  0  0
   10.1850   11.5254   13.2257 O   0  0  0  0  0  0  0  0  0  0  0  0
    8.6416   11.3726   11.1782 C   0  0  1  0  0  0  0  0  0  0  0  0
    9.6090   10.5410   10.3816 O   0  0  0  0  0  0  0  0  0  0  0  0
    7.5973   10.4428   11.8896 C   0  0  0  0  0  0  0  0  0  0  0  0
   12.3478   11.3390   11.5425 N   0  0  0  0  0  0  0  0  0  0  0  0
  1  2  1  1  0  0  0
  1  3  1  0  0  0  0
  1 10  1  0  0  0  0
  3  4  1  6  0  0  0
  3  5  1  0  0  0  0
  5  6  1  1  0  0  0
  5  7  1  0  0  0  0
  7  8  1  1  0  0  0
  7  9  1  0  0  0  0
  9 10  1  0  0  0  0
  9 11  1  1  0  0  0
 11 12  1  0  0  0  0
 13 14  1  1  0  0  0
 13 15  1  0  0  0  0
 13 21  1  0  0  0  0
 16 15  1  0  0  0  0
 16 17  1  1  0  0  0
 18  2  1  6  0  0  0
 18 16  1  0  0  0  0
 19 18  1  0  0  0  0
 19 20  1  1  0  0  0
 21 19  1  0  0  0  0
 21 22  1  6  0  0  0
 23 20  1  6  0  0  0
 23 24  1  0  0  0  0
 23 28  1  0  0  0  0
 24 25  1  1  0  0  0
 24 26  1  0  0  0  0
 26 27  1  0  0  0  0
 26 32  1  1  0  0  0
 27 28  1  0  0  0  0
 27 29  1  6  0  0  0
 29 30  1  0  0  0  0
 31 32  1  1  0  0  0
 31 40  1  0  0  0  0
 33 31  1  0  0  0  0
 33 42  1  1  0  0  0
 35 33  1  0  0  0  0
 35 36  1  6  0  0  0
 37 35  1  0  0  0  0
 37 38  1  1  0  0  0
 37 39  1  0  0  0  0
 39 40  1  0  0  0  0
 39 41  1  1  0  0  0
 41 34  1  0  0  0  0
M  END
>  <CHROM.1>
179.32323194,-172.32603456,-157.95674901,-55.30044511,-150.55039014,170.52003231
-175.52687265,-166.36249311,-173.44656273,11.86068272,7.72635370,9.57463658
-0.88446668,-0.50202139,0.55839841

>  <Name>
2et4_lig

>  <RI>
0

>  <Rbt.Current_Directory>
/home/itssahil/PROJECTS/Mol_Feturizer/New_Systems/rnas/2et4

>  <Rbt.Executable>
rbdock ($Id: //depot/dev/client3/rdock/2013.1/src/exe/rbdock.cxx#4 $)

>  <Rbt.Library>
libRbt.so (2013.1, Build901 2013/11/27)

>  <Rbt.Parameter_File>
/export/apps/rDock/src/rDock_2013.1_src/data/scripts/dock_solv.prm

>  <Rbt.Receptor>
prm/pocket_docking_8.prm

>  <SCORE>
-18.5994

>  <SCORE.INTER>
-10.6661

>  <SCORE.INTER.CONST>
1

>  <SCORE.INTER.POLAR>
-1.14202

>  <SCORE.INTER.ROT>
9

>  <SCORE.INTER.SOLV>
13.5151

>  <SCORE.INTER.VDW>
-17.409

>  <SCORE.INTER.norm>
-0.253954

>  <SCORE.INTRA>
-7.93333

>  <SCORE.INTRA.DIHEDRAL>
-14.0449

>  <SCORE.INTRA.DIHEDRAL.0>
21.6909

>  <SCORE.INTRA.POLAR>
0

>  <SCORE.INTRA.POLAR.0>
0

>  <SCORE.INTRA.REPUL>
0

>  <SCORE.INTRA.REPUL.0>
0

>  <SCORE.INTRA.SOLV>
-2.84992

>  <SCORE.INTRA.SOLV.lig_0>
-116.606

>  <SCORE.INTRA.VDW>
0.514059

>  <SCORE.INTRA.VDW.0>
-6.01229

>  <SCORE.INTRA.norm>
-0.188889

>  <SCORE.RESTR>
0

>  <SCORE.RESTR.CAVITY>
0

>  <SCORE.RESTR.norm>
0

>  <SCORE.SYSTEM>
0

>  <SCORE.SYSTEM.CONST>
0

>  <SCORE.SYSTEM.DIHEDRAL>
0

>  <SCORE.SYSTEM.SOLV>
0

>  <SCORE.SYSTEM.norm>
0

>  <SCORE.heavy>
42

>  <SCORE.norm>
-0.442843

>  <RMSD>
7.279

$$$$
2et4_lig
 OpenBabel11021811423D
libRbt.so/2013.1/901 2013/11/27
 42 45  0  0  0  0  0  0  0  0999 V2000
   11.3308    3.9287    7.3579 C   0  0  2  0  0  0  0  0  0  0  0  0
   12.4609    4.7251    7.7194 O   0  0  0  0  0  0  0  0  0  0  0  0
   10.0737    4.6337    7.9282 C   0  0  2  0  0  0  0  0  0  0  0  0
    9.9584    5.9824    7.4346 N   0  0  0  0  0  0  0  0  0  0  0  0
   10.1327    4.6099    9.4829 C   0  0  1  0  0  0  0  0  0  0  0  0
    8.9937    5.2299    9.9929 O   0  0  0  0  0  0  0  0  0  0  0  0
   10.2543    3.1195    9.9451 C   0  0  2  0  0  0  0  0  0  0  0  0
   10.3184    3.0509   11.3539 O   0  0  0  0  0  0  0  0  0  0  0  0
   11.5255    2.4519    9.3383 C   0  0  2  0  0  0  0  0  0  0  0  0
   11.4499    2.5507    7.9131 O   0  0  0  0  0  0  0  0  0  0  0  0
   11.6574    0.9480    9.7459 C   0  0  0  0  0  0  0  0  0  0  0  0
   10.5609    0.1690    9.2854 N   0  0  0  0  0  0  0  0  0  0  0  0
   14.4581    8.2877    6.3144 C   0  0  2  0  0  0  0  0  0  0  0  0
   14.6607    9.6602    5.8339 N   0  0  0  0  0  0  0  0  0  0  0  0
   13.4967    7.4876    5.2810 C   0  0  0  0  0  0  0  0  0  0  0  0
   13.2701    6.0130    5.8115 C   0  0  2  0  0  0  0  0  0  0  0  0
   12.3793    5.2559    4.9143 N   0  0  0  0  0  0  0  0  0  0  0  0
   12.6458    6.0666    7.2468 C   0  0  2  0  0  0  0  0  0  0  0  0
   13.5690    6.8654    8.2253 C   0  0  2  0  0  0  0  0  0  0  0  0
   12.8999    6.8690    9.5103 O   0  0  0  0  0  0  0  0  0  0  0  0
   13.7762    8.3194    7.6920 C   0  0  1  0  0  0  0  0  0  0  0  0
   14.6084    8.9982    8.5707 O   0  0  0  0  0  0  0  0  0  0  0  0
   13.2097    7.6745   10.5550 C   0  0  1  0  0  0  0  0  0  0  0  0
   12.4944    7.2063   11.8491 C   0  0  2  0  0  0  0  0  0  0  0  0
   11.1874    7.6904   11.9598 O   0  0  0  0  0  0  0  0  0  0  0  0
   13.5246    7.6457   12.8732 C   0  0  1  0  0  0  0  0  0  0  0  0
   14.9041    7.3992   12.2465 C   0  0  2  0  0  0  0  0  0  0  0  0
   14.6237    7.7282   10.8860 O   0  0  0  0  0  0  0  0  0  0  0  0
   15.4608    5.9418   12.3909 C   0  0  0  0  0  0  0  0  0  0  0  0
   15.3725    5.5801   13.7947 O   0  0  0  0  0  0  0  0  0  0  0  0
   12.1490    9.4407   13.8767 C   0  0  2  0  0  0  0  0  0  0  0  0
   13.2936    9.0876   13.1493 O   0  0  0  0  0  0  0  0  0  0  0  0
   11.7067   10.9374   13.5699 C   0  0  1  0  0  0  0  0  0  0  0  0
   10.5729    9.5410   18.7961 N   0  0  0  0  0  0  0  0  0  0  0  0
   10.3998   11.2407   14.4736 C   0  0  1  0  0  0  0  0  0  0  0  0
    9.3288   10.2330   14.1062 O   0  0  0  0  0  0  0  0  0  0  0  0
   10.7748   11.1158   16.0452 C   0  0  2  0  0  0  0  0  0  0  0  0
   11.7913   12.0933   16.3731 O   0  0  0  0  0  0  0  0  0  0  0  0
   11.2582    9.5813   16.3128 C   0  0  1  0  0  0  0  0  0  0  0  0
   12.4081    9.2536   15.4005 O   0  0  0  0  0  0  0  0  0  0  0  0
   11.6747    9.3388   17.8058 C   0  0  0  0  0  0  0  0  0  0  0  0
   12.8443   11.8760   13.8452 N   0  0  0  0  0  0  0  0  0  0  0  0
  1  2  1  1  0  0  0
  1  3  1  0  0  0  0
  1 10  1  0  0  0  0
  3  4  1  6  0  0  0
  3  5  1  0  0  0  0
  5  6  1  1  0  0  0
  5  7  1  0  0  0  0
  7  8  1  1  0  0  0
  7  9  1  0  0  0  0
  9 10  1  0  0  0  0
  9 11  1  6  0  0  0
 11 12  1  0  0  0  0
 13 14  1  6  0  0  0
 13 15  1  0  0  0  0
 13 21  1  0  0  0  0
 16 15  1  0  0  0  0
 16 17  1  6  0  0  0
 18  2  1  1  0  0  0
 18 16  1  0  0  0  0
 19 18  1  0  0  0  0
 19 20  1  1  0  0  0
 21 19  1  0  0  0  0
 21 22  1  1  0  0  0
 23 20  1  6  0  0  0
 23 24  1  0  0  0  0
 23 28  1  0  0  0  0
 24 25  1  1  0  0  0
 24 26  1  0  0  0  0
 26 27  1  0  0  0  0
 26 32  1  6  0  0  0
 27 28  1  0  0  0  0
 27 29  1  6  0  0  0
 29 30  1  0  0  0  0
 31 32  1  6  0  0  0
 31 40  1  0  0  0  0
 33 31  1  0  0  0  0
 33 42  1  1  0  0  0
 35 33  1  0  0  0  0
 35 36  1  6  0  0  0
 37 35  1  0  0  0  0
 37 38  1  6  0  0  0
 37 39  1  0  0  0  0
 39 40  1  0  0  0  0
 39 41  1  1  0  0  0
 41 34  1  0  0  0  0
M  END
>  <CHROM.1>
-63.51007958,61.30849327,-82.12878362,-165.41617011,-168.17083202,71.18104911
-51.31271596,-155.66617386,62.07331171,12.22608062,7.04397223,10.92621445
1.51120051,-1.06970517,-2.23014009

>  <Name>
2et4_lig

>  <RI>
1.79929e+07

>  <Rbt.Current_Directory>
/home/itssahil/PROJECTS/Mol_Feturizer/New_Systems/rnas/2et4

>  <Rbt.Executable>
rbdock ($Id: //depot/dev/client3/rdock/2013.1/src/exe/rbdock.cxx#4 $)

>  <Rbt.Library>
libRbt.so (2013.1, Build901 2013/11/27)

>  <Rbt.Parameter_File>
/export/apps/rDock/src/rDock_2013.1_src/data/scripts/dock_solv.prm

>  <Rbt.Receptor>
prm/pocket_docking_7.prm

>  <SCORE>
-11.9172

>  <SCORE.INTER>
-8.53225

>  <SCORE.INTER.CONST>
1

>  <SCORE.INTER.POLAR>
-1.85039

>  <SCORE.INTER.ROT>
9

>  <SCORE.INTER.SOLV>
12.1732

>  <SCORE.INTER.VDW>
-13.1779

>  <SCORE.INTER.norm>
-0.203149

>  <SCORE.INTRA>
-3.38498

>  <SCORE.INTRA.DIHEDRAL>
-14.246

>  <SCORE.INTRA.DIHEDRAL.0>
21.6909

>  <SCORE.INTRA.POLAR>
0

>  <SCORE.INTRA.POLAR.0>
0

>  <SCORE.INTRA.REPUL>
0

>  <SCORE.INTRA.REPUL.0>
0

>  <SCORE.INTRA.SOLV>
0.956074

>  <SCORE.INTRA.SOLV.lig_0>
-116.606

>  <SCORE.INTRA.VDW>
3.25999

>  <SCORE.INTRA.VDW.0>
-6.01229

>  <SCORE.INTRA.norm>
-0.0805948

>  <SCORE.RESTR>
0

>  <SCORE.RESTR.CAVITY>
0

>  <SCORE.RESTR.norm>
0

>  <SCORE.SYSTEM>
0

>  <SCORE.SYSTEM.CONST>
0

>  <SCORE.SYSTEM.DIHEDRAL>
0

>  <SCORE.SYSTEM.SOLV>
0

>  <SCORE.SYSTEM.norm>
0

>  <SCORE.heavy>
42

>  <SCORE.norm>
-0.283743

>  <RMSD>
7.285

$$$$
2et4_lig
 OpenBabel11021811423D
libRbt.so/2013.1/901 2013/11/27
 42 45  0  0  0  0  0  0  0  0999 V2000
   17.3591    2.8715    8.5015 C   0  0  2  0  0  0  0  0  0  0  0  0
   17.1511    2.8246    9.9146 O   0  0  0  0  0  0  0  0  0  0  0  0
   18.7959    3.4043    8.2685 C   0  0  2  0  0  0  0  0  0  0  0  0
   19.7757    2.5783    8.9269 N   0  0  0  0  0  0  0  0  0  0  0  0
   18.8834    4.8775    8.7618 C   0  0  1  0  0  0  0  0  0  0  0  0
   20.1714    5.3592    8.5364 O   0  0  0  0  0  0  0  0  0  0  0  0
   17.7969    5.7122    8.0051 C   0  0  2  0  0  0  0  0  0  0  0  0
   17.8357    7.0586    8.4285 O   0  0  0  0  0  0  0  0  0  0  0  0
   16.3729    5.1322    8.2615 C   0  0  2  0  0  0  0  0  0  0  0  0
   16.3618    3.7636    7.8450 O   0  0  0  0  0  0  0  0  0  0  0  0
   15.2645    5.9173    7.4865 C   0  0  0  0  0  0  0  0  0  0  0  0
   13.9581    5.4544    7.8031 N   0  0  0  0  0  0  0  0  0  0  0  0
   12.8596    2.7716   10.3994 C   0  0  2  0  0  0  0  0  0  0  0  0
   11.5385    2.5248   10.9905 N   0  0  0  0  0  0  0  0  0  0  0  0
   13.6247    1.3590   10.1725 C   0  0  0  0  0  0  0  0  0  0  0  0
   15.0542    1.6321    9.5485 C   0  0  2  0  0  0  0  0  0  0  0  0
   15.7965    0.3748    9.3488 N   0  0  0  0  0  0  0  0  0  0  0  0
   15.8660    2.5744   10.5001 C   0  0  2  0  0  0  0  0  0  0  0  0
   15.1033    3.9204   10.7330 C   0  0  2  0  0  0  0  0  0  0  0  0
   15.9241    4.7076   11.6306 O   0  0  0  0  0  0  0  0  0  0  0  0
   13.6991    3.6343   11.3558 C   0  0  1  0  0  0  0  0  0  0  0  0
   13.0416    4.8426   11.5378 O   0  0  0  0  0  0  0  0  0  0  0  0
   15.7034    6.0021   11.9651 C   0  0  1  0  0  0  0  0  0  0  0  0
   14.8284    6.7104   10.8983 C   0  0  2  0  0  0  0  0  0  0  0  0
   15.5681    7.1942    9.8148 O   0  0  0  0  0  0  0  0  0  0  0  0
   14.1066    7.7031   11.7907 C   0  0  1  0  0  0  0  0  0  0  0  0
   13.8285    6.9837   13.1180 C   0  0  2  0  0  0  0  0  0  0  0  0
   15.0142    6.1967   13.2296 O   0  0  0  0  0  0  0  0  0  0  0  0
   12.5362    6.0985   13.1484 C   0  0  0  0  0  0  0  0  0  0  0  0
   11.4017    6.9909   13.3081 O   0  0  0  0  0  0  0  0  0  0  0  0
   14.4778   10.1485   11.7270 C   0  0  2  0  0  0  0  0  0  0  0  0
   15.0040    8.8734   11.9748 O   0  0  0  0  0  0  0  0  0  0  0  0
   14.0275   10.8611   13.0758 C   0  0  1  0  0  0  0  0  0  0  0  0
   10.1041   10.8792   10.0251 N   0  0  0  0  0  0  0  0  0  0  0  0
   13.4204   12.3045   12.6699 C   0  0  1  0  0  0  0  0  0  0  0  0
   14.4972   13.0792   11.9367 O   0  0  0  0  0  0  0  0  0  0  0  0
   12.1217   12.1094   11.7203 C   0  0  2  0  0  0  0  0  0  0  0  0
   11.1054   11.3761   12.4452 O   0  0  0  0  0  0  0  0  0  0  0  0
   12.6151   11.3439   10.3673 C   0  0  1  0  0  0  0  0  0  0  0  0
   13.2773   10.0463   10.7409 O   0  0  0  0  0  0  0  0  0  0  0  0
   11.4342   11.0736    9.3705 C   0  0  0  0  0  0  0  0  0  0  0  0
   13.0477    9.9956   13.8118 N   0  0  0  0  0  0  0  0  0  0  0  0
  1  2  1  1  0  0  0
  1  3  1  0  0  0  0
  1 10  1  0  0  0  0
  3  4  1  1  0  0  0
  3  5  1  0  0  0  0
  5  6  1  6  0  0  0
  5  7  1  0  0  0  0
  7  8  1  1  0  0  0
  7  9  1  0  0  0  0
  9 10  1  0  0  0  0
  9 11  1  6  0  0  0
 11 12  1  0  0  0  0
 13 14  1  1  0  0  0
 13 15  1  0  0  0  0
 13 21  1  0  0  0  0
 16 15  1  0  0  0  0
 16 17  1  1  0  0  0
 18  2  1  6  0  0  0
 18 16  1  0  0  0  0
 19 18  1  0  0  0  0
 19 20  1  1  0  0  0
 21 19  1  0  0  0  0
 21 22  1  6  0  0  0
 23 20  1  6  0  0  0
 23 24  1  0  0  0  0
 23 28  1  0  0  0  0
 24 25  1  6  0  0  0
 24 26  1  0  0  0  0
 26 27  1  0  0  0  0
 26 32  1  1  0  0  0
 27 28  1  0  0  0  0
 27 29  1  6  0  0  0
 29 30  1  0  0  0  0
 31 32  1  1  0  0  0
 31 40  1  0  0  0  0
 33 31  1  0  0  0  0
 33 42  1  6  0  0  0
 35 33  1  0  0  0  0
 35 36  1  6  0  0  0
 37 35  1  0  0  0  0
 37 38  1  1  0  0  0
 37 39  1  0  0  0  0
 39 40  1  0  0  0  0
 39 41  1  6  0  0  0
 41 34  1  0  0  0  0
M  END
>  <CHROM.1>
170.26131493,-175.38119646,31.57071974,171.92301060,-21.99150146,128.88141139
-77.90983906,98.14241670,-30.07103221,14.77421556,6.44291294,10.58534380
-1.03521417,0.50297110,0.05787596

>  <Name>
2et4_lig

>  <RI>
0

>  <Rbt.Current_Directory>
/home/itssahil/PROJECTS/Mol_Feturizer/New_Systems/rnas/2et4

>  <Rbt.Executable>
rbdock ($Id: //depot/dev/client3/rdock/2013.1/src/exe/rbdock.cxx#4 $)

>  <Rbt.Library>
libRbt.so (2013.1, Build901 2013/11/27)

>  <Rbt.Parameter_File>
/export/apps/rDock/src/rDock_2013.1_src/data/scripts/dock_solv.prm

>  <Rbt.Receptor>
prm/blind_docking_40.prm

>  <SCORE>
50.5184

>  <SCORE.INTER>
10.0429

>  <SCORE.INTER.CONST>
1

>  <SCORE.INTER.POLAR>
-0.274823

>  <SCORE.INTER.ROT>
9

>  <SCORE.INTER.SOLV>
23.6429

>  <SCORE.INTER.VDW>
-9.86963

>  <SCORE.INTER.norm>
0.239117

>  <SCORE.INTRA>
22.9642

>  <SCORE.INTRA.DIHEDRAL>
3.18657

>  <SCORE.INTRA.DIHEDRAL.0>
21.6909

>  <SCORE.INTRA.POLAR>
0

>  <SCORE.INTRA.POLAR.0>
0

>  <SCORE.INTRA.REPUL>
0

>  <SCORE.INTRA.REPUL.0>
0

>  <SCORE.INTRA.SOLV>
6.58353

>  <SCORE.INTRA.SOLV.lig_0>
-116.606

>  <SCORE.INTRA.VDW>
18.0791

>  <SCORE.INTRA.VDW.0>
-6.01229

>  <SCORE.INTRA.norm>
0.546765

>  <SCORE.RESTR>
17.5113

>  <SCORE.RESTR.CAVITY>
17.5113

>  <SCORE.RESTR.norm>
0.416936

>  <SCORE.SYSTEM>
0

>  <SCORE.SYSTEM.CONST>
0

>  <SCORE.SYSTEM.DIHEDRAL>
0

>  <SCORE.SYSTEM.SOLV>
0

>  <SCORE.SYSTEM.norm>
0

>  <SCORE.heavy>
42

>  <SCORE.norm>
1.20282

>  <RMSD>
7.300

$$$$
2et4_lig
 OpenBabel11021811423D
libRbt.so/2013.1/901 2013/11/27
 42 45  0  0  0  0  0  0  0  0999 V2000
   17.9247    5.7876    8.7126 C   0  0  2  0  0  0  0  0  0  0  0  0
   16.7806    4.9381    8.6041 O   0  0  0  0  0  0  0  0  0  0  0  0
   18.1423    6.4407    7.3238 C   0  0  2  0  0  0  0  0  0  0  0  0
   16.9741    7.1676    6.8963 N   0  0  0  0  0  0  0  0  0  0  0  0
   18.5246    5.3396    6.2929 C   0  0  1  0  0  0  0  0  0  0  0  0
   18.7354    5.9315    5.0492 O   0  0  0  0  0  0  0  0  0  0  0  0
   19.7975    4.5968    6.8199 C   0  0  2  0  0  0  0  0  0  0  0  0
   20.1769    3.5808    5.9158 O   0  0  0  0  0  0  0  0  0  0  0  0
   19.5328    3.9672    8.2211 C   0  0  2  0  0  0  0  0  0  0  0  0
   19.1305    5.0094    9.1149 O   0  0  0  0  0  0  0  0  0  0  0  0
   20.7976    3.2512    8.7980 C   0  0  0  0  0  0  0  0  0  0  0  0
   21.8151    4.1732    9.1663 N   0  0  0  0  0  0  0  0  0  0  0  0
   14.8444    1.5312   10.4202 C   0  0  2  0  0  0  0  0  0  0  0  0
   14.6211    0.3697   11.2902 N   0  0  0  0  0  0  0  0  0  0  0  0
   16.1462    1.2685    9.4883 C   0  0  0  0  0  0  0  0  0  0  0  0
   16.3906    2.5299    8.5628 C   0  0  2  0  0  0  0  0  0  0  0  0
   17.5818    2.3449    7.7151 N   0  0  0  0  0  0  0  0  0  0  0  0
   16.5758    3.8028    9.4561 C   0  0  2  0  0  0  0  0  0  0  0  0
   15.3259    4.0273   10.3700 C   0  0  2  0  0  0  0  0  0  0  0  0
   15.6018    5.2100   11.1600 O   0  0  0  0  0  0  0  0  0  0  0  0
   15.1032    2.7780   11.2817 C   0  0  1  0  0  0  0  0  0  0  0  0
   13.9824    2.9995   12.0692 O   0  0  0  0  0  0  0  0  0  0  0  0
   14.9496    6.3933   11.0570 C   0  0  1  0  0  0  0  0  0  0  0  0
   13.5510    6.3169   11.7230 C   0  0  2  0  0  0  0  0  0  0  0  0
   12.5695    5.7875   10.8797 O   0  0  0  0  0  0  0  0  0  0  0  0
   13.4182    7.7567   12.1838 C   0  0  1  0  0  0  0  0  0  0  0  0
   14.8137    8.2056   12.6397 C   0  0  2  0  0  0  0  0  0  0  0  0
   15.6223    7.5177   11.6854 O   0  0  0  0  0  0  0  0  0  0  0  0
   15.1980    7.8267   14.1105 C   0  0  0  0  0  0  0  0  0  0  0  0
   15.1559    6.3785   14.2113 O   0  0  0  0  0  0  0  0  0  0  0  0
   12.1840    9.7075   11.2936 C   0  0  2  0  0  0  0  0  0  0  0  0
   12.9328    8.5533   11.0269 O   0  0  0  0  0  0  0  0  0  0  0  0
   11.1121    9.9794   10.1504 C   0  0  1  0  0  0  0  0  0  0  0  0
   14.5916   13.1160   12.9305 N   0  0  0  0  0  0  0  0  0  0  0  0
   10.3277   11.3369   10.5486 C   0  0  1  0  0  0  0  0  0  0  0  0
    9.6870   11.1298   11.9065 O   0  0  0  0  0  0  0  0  0  0  0  0
   11.3669   12.5794   10.6001 C   0  0  2  0  0  0  0  0  0  0  0  0
   11.9577   12.7628    9.2911 O   0  0  0  0  0  0  0  0  0  0  0  0
   12.4697   12.2478   11.7549 C   0  0  1  0  0  0  0  0  0  0  0  0
   13.1322   10.9325   11.4500 O   0  0  0  0  0  0  0  0  0  0  0  0
   13.5536   13.3744   11.8858 C   0  0  0  0  0  0  0  0  0  0  0  0
   11.7934   10.0622    8.8163 N   0  0  0  0  0  0  0  0  0  0  0  0
  1  2  1  6  0  0  0
  1  3  1  0  0  0  0
  1 10  1  0  0  0  0
  3  4  1  6  0  0  0
  3  5  1  0  0  0  0
  5  6  1  6  0  0  0
  5  7  1  0  0  0  0
  7  8  1  6  0  0  0
  7  9  1  0  0  0  0
  9 10  1  0  0  0  0
  9 11  1  1  0  0  0
 11 12  1  0  0  0  0
 13 14  1  1  0  0  0
 13 15  1  0  0  0  0
 13 21  1  0  0  0  0
 16 15  1  0  0  0  0
 16 17  1  1  0  0  0
 18  2  1  6  0  0  0
 18 16  1  0  0  0  0
 19 18  1  0  0  0  0
 19 20  1  1  0  0  0
 21 19  1  0  0  0  0
 21 22  1  1  0  0  0
 23 20  1  1  0  0  0
 23 24  1  0  0  0  0
 23 28  1  0  0  0  0
 24 25  1  6  0  0  0
 24 26  1  0  0  0  0
 26 27  1  0  0  0  0
 26 32  1  6  0  0  0
 27 28  1  0  0  0  0
 27 29  1  1  0  0  0
 29 30  1  0  0  0  0
 31 32  1  6  0  0  0
 31 40  1  0  0  0  0
 33 31  1  0  0  0  0
 33 42  1  6  0  0  0
 35 33  1  0  0  0  0
 35 36  1  1  0  0  0
 37 35  1  0  0  0  0
 37 38  1  6  0  0  0
 37 39  1  0  0  0  0
 39 40  1  0  0  0  0
 39 41  1  6  0  0  0
 41 34  1  0  0  0  0
M  END
>  <CHROM.1>
154.62022690,69.95066629,-124.15985582,112.66434184,75.88315306,152.14952970
60.32210370,-148.37582870,-179.85417020,15.34977559,6.65919074,10.07661914
-0.66621764,0.69888256,-0.30127100

>  <Name>
2et4_lig

>  <RI>
0

>  <Rbt.Current_Directory>
/home/itssahil/PROJECTS/Mol_Feturizer/New_Systems/rnas/2et4

>  <Rbt.Executable>
rbdock ($Id: //depot/dev/client3/rdock/2013.1/src/exe/rbdock.cxx#4 $)

>  <Rbt.Library>
libRbt.so (2013.1, Build901 2013/11/27)

>  <Rbt.Parameter_File>
/export/apps/rDock/src/rDock_2013.1_src/data/scripts/dock_solv.prm

>  <Rbt.Receptor>
prm/blind_docking_40.prm

>  <SCORE>
29.6577

>  <SCORE.INTER>
2.93471

>  <SCORE.INTER.CONST>
1

>  <SCORE.INTER.POLAR>
-0.677633

>  <SCORE.INTER.ROT>
9

>  <SCORE.INTER.SOLV>
27.8109

>  <SCORE.INTER.VDW>
-14.655

>  <SCORE.INTER.norm>
0.069874

>  <SCORE.INTRA>
3.90199

>  <SCORE.INTRA.DIHEDRAL>
3.82808

>  <SCORE.INTRA.DIHEDRAL.0>
21.6909

>  <SCORE.INTRA.POLAR>
0

>  <SCORE.INTRA.POLAR.0>
0

>  <SCORE.INTRA.REPUL>
0

>  <SCORE.INTRA.REPUL.0>
0

>  <SCORE.INTRA.SOLV>
0.895937

>  <SCORE.INTRA.SOLV.lig_0>
-116.606

>  <SCORE.INTRA.VDW>
1.53998

>  <SCORE.INTRA.VDW.0>
-6.01229

>  <SCORE.INTRA.norm>
0.0929045

>  <SCORE.RESTR>
22.821

>  <SCORE.RESTR.CAVITY>
22.821

>  <SCORE.RESTR.norm>
0.543357

>  <SCORE.SYSTEM>
0

>  <SCORE.SYSTEM.CONST>
0

>  <SCORE.SYSTEM.DIHEDRAL>
0

>  <SCORE.SYSTEM.SOLV>
0

>  <SCORE.SYSTEM.norm>
0

>  <SCORE.heavy>
42

>  <SCORE.norm>
0.706135

>  <RMSD>
7.318

$$$$
2et4_lig
 OpenBabel11021811423D
libRbt.so/2013.1/901 2013/11/27
 42 45  0  0  0  0  0  0  0  0999 V2000
   16.0481    5.3405    9.9680 C   0  0  2  0  0  0  0  0  0  0  0  0
   16.1492    5.3189    8.5427 O   0  0  0  0  0  0  0  0  0  0  0  0
   17.2734    4.5716   10.5249 C   0  0  2  0  0  0  0  0  0  0  0  0
   18.5100    5.1517   10.0669 N   0  0  0  0  0  0  0  0  0  0  0  0
   17.1708    3.0747   10.1124 C   0  0  1  0  0  0  0  0  0  0  0  0
   18.2650    2.3827   10.6279 O   0  0  0  0  0  0  0  0  0  0  0  0
   15.8098    2.5130   10.6435 C   0  0  2  0  0  0  0  0  0  0  0  0
   15.6710    1.1546   10.2844 O   0  0  0  0  0  0  0  0  0  0  0  0
   14.6108    3.3240   10.0650 C   0  0  2  0  0  0  0  0  0  0  0  0
   14.7820    4.6986   10.4226 O   0  0  0  0  0  0  0  0  0  0  0  0
   13.2348    2.8163   10.6074 C   0  0  0  0  0  0  0  0  0  0  0  0
   12.5121    2.0784    9.6305 N   0  0  0  0  0  0  0  0  0  0  0  0
   15.1835    8.9535    6.4186 C   0  0  2  0  0  0  0  0  0  0  0  0
   14.4624    9.9045    5.5635 N   0  0  0  0  0  0  0  0  0  0  0  0
   15.5830    7.6407    5.5530 C   0  0  0  0  0  0  0  0  0  0  0  0
   16.3475    6.6126    6.4835 C   0  0  2  0  0  0  0  0  0  0  0  0
   16.7078    5.3907    5.7428 N   0  0  0  0  0  0  0  0  0  0  0  0
   15.4379    6.2377    7.7020 C   0  0  2  0  0  0  0  0  0  0  0  0
   15.0368    7.5156    8.5105 C   0  0  2  0  0  0  0  0  0  0  0  0
   14.1914    7.0654    9.5975 O   0  0  0  0  0  0  0  0  0  0  0  0
   14.2772    8.5156    7.5808 C   0  0  1  0  0  0  0  0  0  0  0  0
   13.9471    9.6428    8.3198 O   0  0  0  0  0  0  0  0  0  0  0  0
   14.0674    7.6758   10.8010 C   0  0  1  0  0  0  0  0  0  0  0  0
   12.9816    6.9841   11.6659 C   0  0  2  0  0  0  0  0  0  0  0  0
   11.6879    7.4355   11.3872 O   0  0  0  0  0  0  0  0  0  0  0  0
   13.5631    7.2408   13.0438 C   0  0  1  0  0  0  0  0  0  0  0  0
   15.0873    7.1144   12.9111 C   0  0  2  0  0  0  0  0  0  0  0  0
   15.2731    7.6764   11.6121 O   0  0  0  0  0  0  0  0  0  0  0  0
   15.6545    5.6567   13.0021 C   0  0  0  0  0  0  0  0  0  0  0  0
   15.2150    5.0977   14.2683 O   0  0  0  0  0  0  0  0  0  0  0  0
   13.5070    9.6764   12.6127 C   0  0  2  0  0  0  0  0  0  0  0  0
   13.1566    8.6106   13.4525 O   0  0  0  0  0  0  0  0  0  0  0  0
   13.7181   11.0192   13.4387 C   0  0  1  0  0  0  0  0  0  0  0  0
   11.2188    9.7754    8.7709 N   0  0  0  0  0  0  0  0  0  0  0  0
   14.0942   12.1772   12.3737 C   0  0  1  0  0  0  0  0  0  0  0  0
   15.3461   11.7487   11.6343 O   0  0  0  0  0  0  0  0  0  0  0  0
   12.8700   12.3881   11.3329 C   0  0  2  0  0  0  0  0  0  0  0  0
   11.6903   12.8056   12.0610 O   0  0  0  0  0  0  0  0  0  0  0  0
   12.6596   10.9824   10.5332 C   0  0  1  0  0  0  0  0  0  0  0  0
   12.4134    9.8768   11.5228 O   0  0  0  0  0  0  0  0  0  0  0  0
   11.4769   11.0523    9.5049 C   0  0  0  0  0  0  0  0  0  0  0  0
   12.4866   11.3303   14.2371 N   0  0  0  0  0  0  0  0  0  0  0  0
  1  2  1  6  0  0  0
  1  3  1  0  0  0  0
  1 10  1  0  0  0  0
  3  4  1  6  0  0  0
  3  5  1  0  0  0  0
  5  6  1  1  0  0  0
  5  7  1  0  0  0  0
  7  8  1  6  0  0  0
  7  9  1  0  0  0  0
  9 10  1  0  0  0  0
  9 11  1  1  0  0  0
 11 12  1  0  0  0  0
 13 14  1  6  0  0  0
 13 15  1  0  0  0  0
 13 21  1  0  0  0  0
 16 15  1  0  0  0  0
 16 17  1  6  0  0  0
 18  2  1  1  0  0  0
 18 16  1  0  0  0  0
 19 18  1  0  0  0  0
 19 20  1  1  0  0  0
 21 19  1  0  0  0  0
 21 22  1  1  0  0  0
 23 20  1  6  0  0  0
 23 24  1  0  0  0  0
 23 28  1  0  0  0  0
 24 25  1  1  0  0  0
 24 26  1  0  0  0  0
 26 27  1  0  0  0  0
 26 32  1  6  0  0  0
 27 28  1  0  0  0  0
 27 29  1  6  0  0  0
 29 30  1  0  0  0  0
 31 32  1  1  0  0  0
 31 40  1  0  0  0  0
 33 31  1  0  0  0  0
 33 42  1  6  0  0  0
 35 33  1  0  0  0  0
 35 36  1  6  0  0  0
 37 35  1  0  0  0  0
 37 38  1  1  0  0  0
 37 39  1  0  0  0  0
 39 40  1  0  0  0  0
 39 41  1  6  0  0  0
 41 34  1  0  0  0  0
M  END
>  <CHROM.1>
-161.16098460,-105.76832266,143.40639408,151.39694509,174.95422930,-56.89569279
-56.66668687,-150.19610037,-178.44025991,14.49942515,7.28121842,10.34369494
0.25988012,-1.16649408,2.08625643

>  <Name>
2et4_lig

>  <RI>
0

>  <Rbt.Current_Directory>
/home/itssahil/PROJECTS/Mol_Feturizer/New_Systems/rnas/2et4

>  <Rbt.Executable>
rbdock ($Id: //depot/dev/client3/rdock/2013.1/src/exe/rbdock.cxx#4 $)

>  <Rbt.Library>
libRbt.so (2013.1, Build901 2013/11/27)

>  <Rbt.Parameter_File>
/export/apps/rDock/src/rDock_2013.1_src/data/scripts/dock_solv.prm

>  <Rbt.Receptor>
prm/blind_docking_40.prm

>  <SCORE>
28.9836

>  <SCORE.INTER>
-0.691607

>  <SCORE.INTER.CONST>
1

>  <SCORE.INTER.POLAR>
-0.919057

>  <SCORE.INTER.ROT>
9

>  <SCORE.INTER.SOLV>
23.434

>  <SCORE.INTER.VDW>
-14.8089

>  <SCORE.INTER.norm>
-0.0164668

>  <SCORE.INTRA>
3.15833

>  <SCORE.INTRA.DIHEDRAL>
-3.42828

>  <SCORE.INTRA.DIHEDRAL.0>
21.6909

>  <SCORE.INTRA.POLAR>
0

>  <SCORE.INTRA.POLAR.0>
0

>  <SCORE.INTRA.REPUL>
0

>  <SCORE.INTRA.REPUL.0>
0

>  <SCORE.INTRA.SOLV>
0.845289

>  <SCORE.INTRA.SOLV.lig_0>
-116.606

>  <SCORE.INTRA.VDW>
4.44982

>  <SCORE.INTRA.VDW.0>
-6.01229

>  <SCORE.INTRA.norm>
0.0751983

>  <SCORE.RESTR>
26.5169

>  <SCORE.RESTR.CAVITY>
26.5169

>  <SCORE.RESTR.norm>
0.631355

>  <SCORE.SYSTEM>
0

>  <SCORE.SYSTEM.CONST>
0

>  <SCORE.SYSTEM.DIHEDRAL>
0

>  <SCORE.SYSTEM.SOLV>
0

>  <SCORE.SYSTEM.norm>
0

>  <SCORE.heavy>
42

>  <SCORE.norm>
0.690086

>  <RMSD>
7.340

$$$$
2et4_lig
 OpenBabel11021811423D
libRbt.so/2013.1/901 2013/11/27
 42 45  0  0  0  0  0  0  0  0999 V2000
   15.2969    3.0367   10.9726 C   0  0  2  0  0  0  0  0  0  0  0  0
   15.5880    3.9279    9.8941 O   0  0  0  0  0  0  0  0  0  0  0  0
   13.7736    2.7527   10.9323 C   0  0  2  0  0  0  0  0  0  0  0  0
   13.3752    2.2035    9.6613 N   0  0  0  0  0  0  0  0  0  0  0  0
   12.9982    4.0656   11.2425 C   0  0  1  0  0  0  0  0  0  0  0  0
   11.6297    3.8039   11.2215 O   0  0  0  0  0  0  0  0  0  0  0  0
   13.4787    4.6008   12.6327 C   0  0  2  0  0  0  0  0  0  0  0  0
   12.8040    5.7992   12.9520 O   0  0  0  0  0  0  0  0  0  0  0  0
   15.0157    4.8607   12.6265 C   0  0  2  0  0  0  0  0  0  0  0  0
   15.6779    3.6405   12.2810 O   0  0  0  0  0  0  0  0  0  0  0  0
   15.5386    5.3576   14.0139 C   0  0  0  0  0  0  0  0  0  0  0  0
   15.0708    6.6630   14.3276 N   0  0  0  0  0  0  0  0  0  0  0  0
   19.5001    4.4072    8.1276 C   0  0  2  0  0  0  0  0  0  0  0  0
   20.6401    4.2184    7.2218 N   0  0  0  0  0  0  0  0  0  0  0  0
   19.1583    3.0050    8.8690 C   0  0  0  0  0  0  0  0  0  0  0  0
   17.9195    3.2111    9.8333 C   0  0  2  0  0  0  0  0  0  0  0  0
   17.5571    1.9531   10.5101 N   0  0  0  0  0  0  0  0  0  0  0  0
   16.6964    3.7317    9.0053 C   0  0  2  0  0  0  0  0  0  0  0  0
   17.0493    5.0685    8.2729 C   0  0  2  0  0  0  0  0  0  0  0  0
   15.8668    5.4543    7.5301 O   0  0  0  0  0  0  0  0  0  0  0  0
   18.2677    4.8465    7.3202 C   0  0  1  0  0  0  0  0  0  0  0  0
   18.5660    6.0495    6.6964 O   0  0  0  0  0  0  0  0  0  0  0  0
   14.8169    6.1499    8.0305 C   0  0  1  0  0  0  0  0  0  0  0  0
   15.3017    7.3644    8.8645 C   0  0  2  0  0  0  0  0  0  0  0  0
   15.6159    7.0327   10.1859 O   0  0  0  0  0  0  0  0  0  0  0  0
   14.1494    8.3173    8.6054 C   0  0  1  0  0  0  0  0  0  0  0  0
   13.7194    8.1051    7.1471 C   0  0  2  0  0  0  0  0  0  0  0  0
   13.9144    6.6958    7.0309 O   0  0  0  0  0  0  0  0  0  0  0  0
   14.5451    8.8980    6.0774 C   0  0  0  0  0  0  0  0  0  0  0  0
   15.9169    8.4267    6.1505 O   0  0  0  0  0  0  0  0  0  0  0  0
   12.5202    9.0039   10.3363 C   0  0  2  0  0  0  0  0  0  0  0  0
   13.0614    7.9722    9.5573 O   0  0  0  0  0  0  0  0  0  0  0  0
   11.7789   10.0833    9.4334 C   0  0  1  0  0  0  0  0  0  0  0  0
   14.1666   12.6156   13.6392 N   0  0  0  0  0  0  0  0  0  0  0  0
   11.2175   11.2288   10.4281 C   0  0  1  0  0  0  0  0  0  0  0  0
   10.2864   10.5707   11.4267 O   0  0  0  0  0  0  0  0  0  0  0  0
   12.4515   11.9454   11.1964 C   0  0  2  0  0  0  0  0  0  0  0  0
   13.3201   12.5737   10.2233 O   0  0  0  0  0  0  0  0  0  0  0  0
   13.2081   10.8023   12.0799 C   0  0  1  0  0  0  0  0  0  0  0  0
   13.6422    9.6797   11.1780 O   0  0  0  0  0  0  0  0  0  0  0  0
   14.4457   11.3717   12.8580 C   0  0  0  0  0  0  0  0  0  0  0  0
   12.7192   10.6157    8.3927 N   0  0  0  0  0  0  0  0  0  0  0  0
  1  2  1  6  0  0  0
  1  3  1  0  0  0  0
  1 10  1  0  0  0  0
  3  4  1  6  0  0  0
  3  5  1  0  0  0  0
  5  6  1  1  0  0  0
  5  7  1  0  0  0  0
  7  8  1  6  0  0  0
  7  9  1  0  0  0  0
  9 10  1  0  0  0  0
  9 11  1  1  0  0  0
 11 12  1  0  0  0  0
 13 14  1  6  0  0  0
 13 15  1  0  0  0  0
 13 21  1  0  0  0  0
 16 15  1  0  0  0  0
 16 17  1  6  0  0  0
 18  2  1  1  0  0  0
 18 16  1  0  0  0  0
 19 18  1  0  0  0  0
 19 20  1  6  0  0  0
 21 19  1  0  0  0  0
 21 22  1  1  0  0  0
 23 20  1  6  0  0  0
 23 24  1  0  0  0  0
 23 28  1  0  0  0  0
 24 25  1  1  0  0  0
 24 26  1  0  0  0  0
 26 27  1  0  0  0  0
 26 32  1  1  0  0  0
 27 28  1  0  0  0  0
 27 29  1  6  0  0  0
 29 30  1  0  0  0  0
 31 32  1  6  0  0  0
 31 40  1  0  0  0  0
 33 31  1  0  0  0  0
 33 42  1  6  0  0  0
 35 33  1  0  0  0  0
 35 36  1  1  0  0  0
 37 35  1  0  0  0  0
 37 38  1  6  0  0  0
 37 39  1  0  0  0  0
 39 40  1  0  0  0  0
 39 41  1  6  0  0  0
 41 34  1  0  0  0  0
M  END
>  <CHROM.1>
-134.03759323,-68.40808967,-38.85162727,84.61184205,45.83971383,128.08050644
62.57847308,64.82206740,49.74915807,14.79741054,6.73807767,9.96875905,0.58366208
-0.88408061,2.52296169

>  <Name>
2et4_lig

>  <RI>
0

>  <Rbt.Current_Directory>
/home/itssahil/PROJECTS/Mol_Feturizer/New_Systems/rnas/2et4

>  <Rbt.Executable>
rbdock ($Id: //depot/dev/client3/rdock/2013.1/src/exe/rbdock.cxx#4 $)

>  <Rbt.Library>
libRbt.so (2013.1, Build901 2013/11/27)

>  <Rbt.Parameter_File>
/export/apps/rDock/src/rDock_2013.1_src/data/scripts/dock_solv.prm

>  <Rbt.Receptor>
prm/blind_docking_40.prm

>  <SCORE>
39.2295

>  <SCORE.INTER>
11.0011

>  <SCORE.INTER.CONST>
1

>  <SCORE.INTER.POLAR>
-0.336698

>  <SCORE.INTER.ROT>
9

>  <SCORE.INTER.SOLV>
30.3564

>  <SCORE.INTER.VDW>
-11.2624

>  <SCORE.INTER.norm>
0.26193

>  <SCORE.INTRA>
3.57433

>  <SCORE.INTRA.DIHEDRAL>
-2.13875

>  <SCORE.INTRA.DIHEDRAL.0>
21.6909

>  <SCORE.INTRA.POLAR>
0

>  <SCORE.INTRA.POLAR.0>
0

>  <SCORE.INTRA.REPUL>
0

>  <SCORE.INTRA.REPUL.0>
0

>  <SCORE.INTRA.SOLV>
2.95256

>  <SCORE.INTRA.SOLV.lig_0>
-116.606

>  <SCORE.INTRA.VDW>
3.16743

>  <SCORE.INTRA.VDW.0>
-6.01229

>  <SCORE.INTRA.norm>
0.0851032

>  <SCORE.RESTR>
24.6541

>  <SCORE.RESTR.CAVITY>
24.6541

>  <SCORE.RESTR.norm>
0.587002

>  <SCORE.SYSTEM>
0

>  <SCORE.SYSTEM.CONST>
0

>  <SCORE.SYSTEM.DIHEDRAL>
0

>  <SCORE.SYSTEM.SOLV>
0

>  <SCORE.SYSTEM.norm>
0

>  <SCORE.heavy>
42

>  <SCORE.norm>
0.934035

>  <RMSD>
7.347

$$$$
2et4_lig
 OpenBabel11021811423D
libRbt.so/2013.1/901 2013/11/27
 42 45  0  0  0  0  0  0  0  0999 V2000
   17.0066    2.9753   10.1725 C   0  0  2  0  0  0  0  0  0  0  0  0
   16.6312    3.6385    8.9636 O   0  0  0  0  0  0  0  0  0  0  0  0
   16.0974    1.7275   10.3105 C   0  0  2  0  0  0  0  0  0  0  0  0
   16.2166    0.8615    9.1653 N   0  0  0  0  0  0  0  0  0  0  0  0
   14.6245    2.1857   10.5149 C   0  0  1  0  0  0  0  0  0  0  0  0
   13.8118    1.0625   10.6549 O   0  0  0  0  0  0  0  0  0  0  0  0
   14.5717    3.1166   11.7721 C   0  0  2  0  0  0  0  0  0  0  0  0
   13.2503    3.5631   11.9914 O   0  0  0  0  0  0  0  0  0  0  0  0
   15.5085    4.3491   11.5900 C   0  0  2  0  0  0  0  0  0  0  0  0
   16.8364    3.8744   11.3490 O   0  0  0  0  0  0  0  0  0  0  0  0
   15.5129    5.2812   12.8457 C   0  0  0  0  0  0  0  0  0  0  0  0
   15.5146    4.5441   14.0613 N   0  0  0  0  0  0  0  0  0  0  0  0
   20.2011    5.1274    7.0417 C   0  0  2  0  0  0  0  0  0  0  0  0
   21.1700    5.4530    5.9877 N   0  0  0  0  0  0  0  0  0  0  0  0
   19.9624    3.5231    7.0823 C   0  0  0  0  0  0  0  0  0  0  0  0
   18.9062    3.1793    8.2107 C   0  0  2  0  0  0  0  0  0  0  0  0
   18.6391    1.7311    8.2659 N   0  0  0  0  0  0  0  0  0  0  0  0
   17.5717    3.9478    7.9259 C   0  0  2  0  0  0  0  0  0  0  0  0
   17.8216    5.4908    7.8607 C   0  0  2  0  0  0  0  0  0  0  0  0
   16.5388    6.1032    7.5804 O   0  0  0  0  0  0  0  0  0  0  0  0
   18.8593    5.8139    6.7381 C   0  0  1  0  0  0  0  0  0  0  0  0
   19.0712    7.1850    6.7131 O   0  0  0  0  0  0  0  0  0  0  0  0
   15.8945    6.9812    8.3868 C   0  0  1  0  0  0  0  0  0  0  0  0
   14.5614    7.4488    7.7466 C   0  0  2  0  0  0  0  0  0  0  0  0
   14.7254    8.5082    6.8489 O   0  0  0  0  0  0  0  0  0  0  0  0
   13.7497    7.6799    9.0078 C   0  0  1  0  0  0  0  0  0  0  0  0
   14.1492    6.5776    9.9989 C   0  0  2  0  0  0  0  0  0  0  0  0
   15.5392    6.4601    9.6959 O   0  0  0  0  0  0  0  0  0  0  0  0
   13.3982    5.2130    9.8299 C   0  0  0  0  0  0  0  0  0  0  0  0
   14.0098    4.5160    8.7122 O   0  0  0  0  0  0  0  0  0  0  0  0
   13.4723    9.4647   10.6985 C   0  0  2  0  0  0  0  0  0  0  0  0
   14.0932    9.0325    9.5189 O   0  0  0  0  0  0  0  0  0  0  0  0
   13.1999   11.0315   10.6689 C   0  0  1  0  0  0  0  0  0  0  0  0
   15.1104    7.5704   14.4068 N   0  0  0  0  0  0  0  0  0  0  0  0
   12.5067   11.4193   12.0781 C   0  0  1  0  0  0  0  0  0  0  0  0
   11.2311   10.6118   12.2136 O   0  0  0  0  0  0  0  0  0  0  0  0
   13.5171   11.0851   13.3003 C   0  0  2  0  0  0  0  0  0  0  0  0
   14.7219   11.8744   13.1537 O   0  0  0  0  0  0  0  0  0  0  0  0
   13.8016    9.4794   13.2751 C   0  0  1  0  0  0  0  0  0  0  0  0
   14.3489    9.0901   11.9294 O   0  0  0  0  0  0  0  0  0  0  0  0
   14.7933    9.0315   14.4052 C   0  0  0  0  0  0  0  0  0  0  0  0
   14.4811   11.7711   10.4192 N   0  0  0  0  0  0  0  0  0  0  0  0
  1  2  1  6  0  0  0
  1  3  1  0  0  0  0
  1 10  1  0  0  0  0
  3  4  1  6  0  0  0
  3  5  1  0  0  0  0
  5  6  1  1  0  0  0
  5  7  1  0  0  0  0
  7  8  1  6  0  0  0
  7  9  1  0  0  0  0
  9 10  1  0  0  0  0
  9 11  1  1  0  0  0
 11 12  1  0  0  0  0
 13 14  1  6  0  0  0
 13 15  1  0  0  0  0
 13 21  1  0  0  0  0
 16 15  1  0  0  0  0
 16 17  1  6  0  0  0
 18  2  1  1  0  0  0
 18 16  1  0  0  0  0
 19 18  1  0  0  0  0
 19 20  1  6  0  0  0
 21 19  1  0  0  0  0
 21 22  1  1  0  0  0
 23 20  1  6  0  0  0
 23 24  1  0  0  0  0
 23 28  1  0  0  0  0
 24 25  1  1  0  0  0
 24 26  1  0  0  0  0
 26 27  1  0  0  0  0
 26 32  1  1  0  0  0
 27 28  1  0  0  0  0
 27 29  1  6  0  0  0
 29 30  1  0  0  0  0
 31 32  1  6  0  0  0
 31 40  1  0  0  0  0
 33 31  1  0  0  0  0
 33 42  1  1  0  0  0
 35 33  1  0  0  0  0
 35 36  1  1  0  0  0
 37 35  1  0  0  0  0
 37 38  1  6  0  0  0
 37 39  1  0  0  0  0
 39 40  1  0  0  0  0
 39 41  1  1  0  0  0
 41 34  1  0  0  0  0
M  END
>  <CHROM.1>
-125.18375822,40.43173069,12.24702233,118.59470248,178.75663705,-179.21940865
78.49746959,-145.72711642,-178.75077467,15.58401452,6.19501668,10.07510743
0.71838606,-0.87667807,2.92533386

>  <Name>
2et4_lig

>  <RI>
0

>  <Rbt.Current_Directory>
/home/itssahil/PROJECTS/Mol_Feturizer/New_Systems/rnas/2et4

>  <Rbt.Executable>
rbdock ($Id: //depot/dev/client3/rdock/2013.1/src/exe/rbdock.cxx#4 $)

>  <Rbt.Library>
libRbt.so (2013.1, Build901 2013/11/27)

>  <Rbt.Parameter_File>
/export/apps/rDock/src/rDock_2013.1_src/data/scripts/dock_solv.prm

>  <Rbt.Receptor>
prm/blind_docking_40.prm

>  <SCORE>
33.3202

>  <SCORE.INTER>
-0.91752

>  <SCORE.INTER.CONST>
1

>  <SCORE.INTER.POLAR>
-1.30295

>  <SCORE.INTER.ROT>
9

>  <SCORE.INTER.SOLV>
38.0962

>  <SCORE.INTER.VDW>
-18.5673

>  <SCORE.INTER.norm>
-0.0218457

>  <SCORE.INTRA>
9.76805

>  <SCORE.INTRA.DIHEDRAL>
5.9309

>  <SCORE.INTRA.DIHEDRAL.0>
21.6909

>  <SCORE.INTRA.POLAR>
0

>  <SCORE.INTRA.POLAR.0>
0

>  <SCORE.INTRA.REPUL>
0

>  <SCORE.INTRA.REPUL.0>
0

>  <SCORE.INTRA.SOLV>
6.40492

>  <SCORE.INTRA.SOLV.lig_0>
-116.606

>  <SCORE.INTRA.VDW>
3.60014

>  <SCORE.INTRA.VDW.0>
-6.01229

>  <SCORE.INTRA.norm>
0.232573

>  <SCORE.RESTR>
24.4696

>  <SCORE.RESTR.CAVITY>
24.4696

>  <SCORE.RESTR.norm>
0.582611

>  <SCORE.SYSTEM>
0

>  <SCORE.SYSTEM.CONST>
0

>  <SCORE.SYSTEM.DIHEDRAL>
0

>  <SCORE.SYSTEM.SOLV>
0

>  <SCORE.SYSTEM.norm>
0

>  <SCORE.heavy>
42

>  <SCORE.norm>
0.793337

>  <RMSD>
7.403

$$$$
2et4_lig
 OpenBabel11021811423D
libRbt.so/2013.1/901 2013/11/27
 42 45  0  0  0  0  0  0  0  0999 V2000
   18.1131    4.7169    9.3938 C   0  0  2  0  0  0  0  0  0  0  0  0
   17.4561    3.5223    8.9655 O   0  0  0  0  0  0  0  0  0  0  0  0
   17.7429    5.8303    8.3809 C   0  0  2  0  0  0  0  0  0  0  0  0
   16.3157    6.0064    8.2922 N   0  0  0  0  0  0  0  0  0  0  0  0
   18.3514    5.4833    6.9915 C   0  0  1  0  0  0  0  0  0  0  0  0
   18.0308    6.4936    6.0870 O   0  0  0  0  0  0  0  0  0  0  0  0
   19.8974    5.3099    7.1639 C   0  0  2  0  0  0  0  0  0  0  0  0
   20.4916    4.9861    5.9247 O   0  0  0  0  0  0  0  0  0  0  0  0
   20.2184    4.1886    8.1981 C   0  0  2  0  0  0  0  0  0  0  0  0
   19.5906    4.5263    9.4385 O   0  0  0  0  0  0  0  0  0  0  0  0
   21.7556    4.0156    8.4270 C   0  0  0  0  0  0  0  0  0  0  0  0
   22.0495    2.9353    9.3032 N   0  0  0  0  0  0  0  0  0  0  0  0
   13.4180    2.3384    9.9386 C   0  0  2  0  0  0  0  0  0  0  0  0
   12.2881    1.7502   10.6688 N   0  0  0  0  0  0  0  0  0  0  0  0
   14.4925    1.1782    9.5760 C   0  0  0  0  0  0  0  0  0  0  0  0
   15.7152    1.8206    8.8016 C   0  0  2  0  0  0  0  0  0  0  0  0
   16.7307    0.8041    8.4739 N   0  0  0  0  0  0  0  0  0  0  0  0
   16.3610    2.9402    9.6859 C   0  0  2  0  0  0  0  0  0  0  0  0
   15.3068    4.0368   10.0520 C   0  0  2  0  0  0  0  0  0  0  0  0
   15.9952    5.0093   10.8763 O   0  0  0  0  0  0  0  0  0  0  0  0
   14.1116    3.3885   10.8218 C   0  0  1  0  0  0  0  0  0  0  0  0
   13.1880    4.3802   11.1204 O   0  0  0  0  0  0  0  0  0  0  0  0
   15.7765    6.3466   10.8619 C   0  0  1  0  0  0  0  0  0  0  0  0
   14.2607    6.6629   10.9509 C   0  0  2  0  0  0  0  0  0  0  0  0
   13.6172    6.6195    9.7103 O   0  0  0  0  0  0  0  0  0  0  0  0
   14.3277    7.9851   11.6925 C   0  0  1  0  0  0  0  0  0  0  0  0
   15.4721    7.8647   12.7087 C   0  0  2  0  0  0  0  0  0  0  0  0
   16.3945    7.0778   11.9551 O   0  0  0  0  0  0  0  0  0  0  0  0
   15.0987    7.1821   14.0686 C   0  0  0  0  0  0  0  0  0  0  0  0
   13.7360    7.5689   14.3892 O   0  0  0  0  0  0  0  0  0  0  0  0
   14.2501   10.3656   11.0228 C   0  0  2  0  0  0  0  0  0  0  0  0
   14.5913    9.0482   10.6880 O   0  0  0  0  0  0  0  0  0  0  0  0
   14.2448   10.5796   12.5989 C   0  0  1  0  0  0  0  0  0  0  0  0
   10.4118   13.7093   10.1386 N   0  0  0  0  0  0  0  0  0  0  0  0
   13.8194   12.1170   12.8675 C   0  0  1  0  0  0  0  0  0  0  0  0
   14.8201   13.0124   12.1644 O   0  0  0  0  0  0  0  0  0  0  0  0
   12.3265   12.3840   12.2964 C   0  0  2  0  0  0  0  0  0  0  0  0
   11.3891   11.5251   12.9891 O   0  0  0  0  0  0  0  0  0  0  0  0
   12.3630   12.1188   10.6877 C   0  0  1  0  0  0  0  0  0  0  0  0
   12.8591   10.7240   10.4225 O   0  0  0  0  0  0  0  0  0  0  0  0
   10.9594   12.3233   10.0173 C   0  0  0  0  0  0  0  0  0  0  0  0
   13.3223    9.5908   13.2486 N   0  0  0  0  0  0  0  0  0  0  0  0
  1  2  1  6  0  0  0
  1  3  1  0  0  0  0
  1 10  1  0  0  0  0
  3  4  1  6  0  0  0
  3  5  1  0  0  0  0
  5  6  1  6  0  0  0
  5  7  1  0  0  0  0
  7  8  1  6  0  0  0
  7  9  1  0  0  0  0
  9 10  1  0  0  0  0
  9 11  1  1  0  0  0
 11 12  1  0  0  0  0
 13 14  1  1  0  0  0
 13 15  1  0  0  0  0
 13 21  1  0  0  0  0
 16 15  1  0  0  0  0
 16 17  1  1  0  0  0
 18  2  1  6  0  0  0
 18 16  1  0  0  0  0
 19 18  1  0  0  0  0
 19 20  1  1  0  0  0
 21 19  1  0  0  0  0
 21 22  1  6  0  0  0
 23 20  1  1  0  0  0
 23 24  1  0  0  0  0
 23 28  1  0  0  0  0
 24 25  1  6  0  0  0
 24 26  1  0  0  0  0
 26 27  1  0  0  0  0
 26 32  1  6  0  0  0
 27 28  1  0  0  0  0
 27 29  1  1  0  0  0
 29 30  1  0  0  0  0
 31 32  1  1  0  0  0
 31 40  1  0  0  0  0
 33 31  1  0  0  0  0
 33 42  1  1  0  0  0
 35 33  1  0  0  0  0
 35 36  1  6  0  0  0
 37 35  1  0  0  0  0
 37 38  1  1  0  0  0
 37 39  1  0  0  0  0
 39 40  1  0  0  0  0
 39 41  1  1  0  0  0
 41 34  1  0  0  0  0
M  END
>  <CHROM.1>
-110.23524228,-176.15146338,169.17788623,144.17774629,48.64994126,158.52305389
-35.24350486,25.27701954,61.92029691,15.51514012,6.70408975,10.29109519,-0.89837440
0.49339744,0.04626648

>  <Name>
2et4_lig

>  <RI>
0

>  <Rbt.Current_Directory>
/home/itssahil/PROJECTS/Mol_Feturizer/New_Systems/rnas/2et4

>  <Rbt.Executable>
rbdock ($Id: //depot/dev/client3/rdock/2013.1/src/exe/rbdock.cxx#4 $)

>  <Rbt.Library>
libRbt.so (2013.1, Build901 2013/11/27)

>  <Rbt.Parameter_File>
/export/apps/rDock/src/rDock_2013.1_src/data/scripts/dock_solv.prm

>  <Rbt.Receptor>
prm/blind_docking_40.prm

>  <SCORE>
36.7288

>  <SCORE.INTER>
4.05343

>  <SCORE.INTER.CONST>
1

>  <SCORE.INTER.POLAR>
-1.12802

>  <SCORE.INTER.ROT>
9

>  <SCORE.INTER.SOLV>
22.5749

>  <SCORE.INTER.VDW>
-10.6626

>  <SCORE.INTER.norm>
0.0965102

>  <SCORE.INTRA>
14.4294

>  <SCORE.INTRA.DIHEDRAL>
-0.557605

>  <SCORE.INTRA.DIHEDRAL.0>
21.6909

>  <SCORE.INTRA.POLAR>
0

>  <SCORE.INTRA.POLAR.0>
0

>  <SCORE.INTRA.REPUL>
0

>  <SCORE.INTRA.REPUL.0>
0

>  <SCORE.INTRA.SOLV>
5.14924

>  <SCORE.INTRA.SOLV.lig_0>
-116.606

>  <SCORE.INTRA.VDW>
12.1336

>  <SCORE.INTRA.VDW.0>
-6.01229

>  <SCORE.INTRA.norm>
0.343557

>  <SCORE.RESTR>
18.2459

>  <SCORE.RESTR.CAVITY>
18.2459

>  <SCORE.RESTR.norm>
0.434427

>  <SCORE.SYSTEM>
0

>  <SCORE.SYSTEM.CONST>
0

>  <SCORE.SYSTEM.DIHEDRAL>
0

>  <SCORE.SYSTEM.SOLV>
0

>  <SCORE.SYSTEM.norm>
0

>  <SCORE.heavy>
42

>  <SCORE.norm>
0.874495

>  <RMSD>
7.428

$$$$
2et4_lig
 OpenBabel11021811423D
libRbt.so/2013.1/901 2013/11/27
 42 45  0  0  0  0  0  0  0  0999 V2000
   17.5884    3.1769    8.0438 C   0  0  2  0  0  0  0  0  0  0  0  0
   17.3851    2.3414    9.1852 O   0  0  0  0  0  0  0  0  0  0  0  0
   19.0971    3.1134    7.6939 C   0  0  2  0  0  0  0  0  0  0  0  0
   19.5230    1.7590    7.4489 N   0  0  0  0  0  0  0  0  0  0  0  0
   19.9191    3.7586    8.8469 C   0  0  1  0  0  0  0  0  0  0  0  0
   21.2735    3.7147    8.5225 O   0  0  0  0  0  0  0  0  0  0  0  0
   19.4056    5.2226    9.0539 C   0  0  2  0  0  0  0  0  0  0  0  0
   20.1214    5.8457   10.0994 O   0  0  0  0  0  0  0  0  0  0  0  0
   17.8841    5.2347    9.3925 C   0  0  2  0  0  0  0  0  0  0  0  0
   17.1810    4.5814    8.3316 O   0  0  0  0  0  0  0  0  0  0  0  0
   17.3267    6.6855    9.5655 C   0  0  0  0  0  0  0  0  0  0  0  0
   17.0284    7.2981    8.3177 N   0  0  0  0  0  0  0  0  0  0  0  0
   13.0815    2.0149    9.3488 C   0  0  2  0  0  0  0  0  0  0  0  0
   11.7426    1.5990    9.7847 N   0  0  0  0  0  0  0  0  0  0  0  0
   13.9343    0.7107    8.8971 C   0  0  0  0  0  0  0  0  0  0  0  0
   15.3817    1.1636    8.4419 C   0  0  2  0  0  0  0  0  0  0  0  0
   16.2018    0.0048    8.0463 N   0  0  0  0  0  0  0  0  0  0  0  0
   16.0826    1.9246    9.6175 C   0  0  2  0  0  0  0  0  0  0  0  0
   15.2354    3.1625   10.0620 C   0  0  2  0  0  0  0  0  0  0  0  0
   15.9569    3.7832   11.1543 O   0  0  0  0  0  0  0  0  0  0  0  0
   13.8139    2.6982   10.5151 C   0  0  1  0  0  0  0  0  0  0  0  0
   13.0821    3.8162   10.8895 O   0  0  0  0  0  0  0  0  0  0  0  0
   15.5921    4.9235   11.7892 C   0  0  1  0  0  0  0  0  0  0  0  0
   14.4522    5.6453   11.0243 C   0  0  2  0  0  0  0  0  0  0  0  0
   14.9170    6.4597    9.9871 O   0  0  0  0  0  0  0  0  0  0  0  0
   13.7395    6.2927   12.1972 C   0  0  1  0  0  0  0  0  0  0  0  0
   13.8015    5.2918   13.3595 C   0  0  2  0  0  0  0  0  0  0  0  0
   15.0989    4.7370   13.1433 O   0  0  0  0  0  0  0  0  0  0  0  0
   12.6887    4.1890   13.3612 C   0  0  0  0  0  0  0  0  0  0  0  0
   11.4049    4.8670   13.3280 O   0  0  0  0  0  0  0  0  0  0  0  0
   14.1697    8.6864   11.7423 C   0  0  2  0  0  0  0  0  0  0  0  0
   14.4580    7.5540   12.5160 O   0  0  0  0  0  0  0  0  0  0  0  0
   14.4583   10.0269   12.5481 C   0  0  1  0  0  0  0  0  0  0  0  0
   10.1070   10.7894    9.3494 N   0  0  0  0  0  0  0  0  0  0  0  0
   14.0721   11.2588   11.5735 C   0  0  1  0  0  0  0  0  0  0  0  0
   14.9115   11.1461   10.3165 O   0  0  0  0  0  0  0  0  0  0  0  0
   12.4952   11.1971   11.2048 C   0  0  2  0  0  0  0  0  0  0  0  0
   11.7155   11.3160   12.4189 O   0  0  0  0  0  0  0  0  0  0  0  0
   12.2318    9.7949   10.4146 C   0  0  1  0  0  0  0  0  0  0  0  0
   12.6863    8.6456   11.2715 O   0  0  0  0  0  0  0  0  0  0  0  0
   10.7247    9.6054   10.0219 C   0  0  0  0  0  0  0  0  0  0  0  0
   13.6867   10.0293   13.8348 N   0  0  0  0  0  0  0  0  0  0  0  0
  1  2  1  1  0  0  0
  1  3  1  0  0  0  0
  1 10  1  0  0  0  0
  3  4  1  1  0  0  0
  3  5  1  0  0  0  0
  5  6  1  6  0  0  0
  5  7  1  0  0  0  0
  7  8  1  1  0  0  0
  7  9  1  0  0  0  0
  9 10  1  0  0  0  0
  9 11  1  6  0  0  0
 11 12  1  0  0  0  0
 13 14  1  1  0  0  0
 13 15  1  0  0  0  0
 13 21  1  0  0  0  0
 16 15  1  0  0  0  0
 16 17  1  1  0  0  0
 18  2  1  6  0  0  0
 18 16  1  0  0  0  0
 19 18  1  0  0  0  0
 19 20  1  1  0  0  0
 21 19  1  0  0  0  0
 21 22  1  6  0  0  0
 23 20  1  6  0  0  0
 23 24  1  0  0  0  0
 23 28  1  0  0  0  0
 24 25  1  6  0  0  0
 24 26  1  0  0  0  0
 26 27  1  0  0  0  0
 26 32  1  1  0  0  0
 27 28  1  0  0  0  0
 27 29  1  6  0  0  0
 29 30  1  0  0  0  0
 31 32  1  1  0  0  0
 31 40  1  0  0  0  0
 33 31  1  0  0  0  0
 33 42  1  1  0  0  0
 35 33  1  0  0  0  0
 35 36  1  6  0  0  0
 37 35  1  0  0  0  0
 37 38  1  1  0  0  0
 37 39  1  0  0  0  0
 39 40  1  0  0  0  0
 39 41  1  1  0  0  0
 41 34  1  0  0  0  0
M  END
>  <CHROM.1>
-166.12868435,81.56873867,57.75806826,176.95577770,-11.20472277,81.40112731
-55.60590697,154.24330024,48.90167770,15.13783349,5.64343214,10.41791410
-0.95263210,0.35388143,0.14066574

>  <Name>
2et4_lig

>  <RI>
0

>  <Rbt.Current_Directory>
/home/itssahil/PROJECTS/Mol_Feturizer/New_Systems/rnas/2et4

>  <Rbt.Executable>
rbdock ($Id: //depot/dev/client3/rdock/2013.1/src/exe/rbdock.cxx#4 $)

>  <Rbt.Library>
libRbt.so (2013.1, Build901 2013/11/27)

>  <Rbt.Parameter_File>
/export/apps/rDock/src/rDock_2013.1_src/data/scripts/dock_solv.prm

>  <Rbt.Receptor>
prm/blind_docking_40.prm

>  <SCORE>
64.3411

>  <SCORE.INTER>
32.0771

>  <SCORE.INTER.CONST>
1

>  <SCORE.INTER.POLAR>
-1.79754

>  <SCORE.INTER.ROT>
9

>  <SCORE.INTER.SOLV>
29.2591

>  <SCORE.INTER.VDW>
8.0235

>  <SCORE.INTER.norm>
0.763741

>  <SCORE.INTRA>
14.0133

>  <SCORE.INTRA.DIHEDRAL>
-7.12358

>  <SCORE.INTRA.DIHEDRAL.0>
21.6909

>  <SCORE.INTRA.POLAR>
0

>  <SCORE.INTRA.POLAR.0>
0

>  <SCORE.INTRA.REPUL>
0

>  <SCORE.INTRA.REPUL.0>
0

>  <SCORE.INTRA.SOLV>
2.09602

>  <SCORE.INTRA.SOLV.lig_0>
-116.606

>  <SCORE.INTRA.VDW>
16.5271

>  <SCORE.INTRA.VDW.0>
-6.01229

>  <SCORE.INTRA.norm>
0.33365

>  <SCORE.RESTR>
18.2506

>  <SCORE.RESTR.CAVITY>
18.2506

>  <SCORE.RESTR.norm>
0.434539

>  <SCORE.SYSTEM>
0

>  <SCORE.SYSTEM.CONST>
0

>  <SCORE.SYSTEM.DIHEDRAL>
0

>  <SCORE.SYSTEM.SOLV>
0

>  <SCORE.SYSTEM.norm>
0

>  <SCORE.heavy>
42

>  <SCORE.norm>
1.53193

>  <RMSD>
7.443

$$$$
2et4_lig
 OpenBabel11021811423D
libRbt.so/2013.1/901 2013/11/27
 42 45  0  0  0  0  0  0  0  0999 V2000
   15.5817    1.8028   11.0861 C   0  0  2  0  0  0  0  0  0  0  0  0
   16.7468    2.6091   10.9003 O   0  0  0  0  0  0  0  0  0  0  0  0
   14.6716    2.0232    9.8509 C   0  0  2  0  0  0  0  0  0  0  0  0
   15.3588    1.6974    8.6273 N   0  0  0  0  0  0  0  0  0  0  0  0
   14.1728    3.4970    9.8373 C   0  0  1  0  0  0  0  0  0  0  0  0
   13.3420    3.6881    8.7350 O   0  0  0  0  0  0  0  0  0  0  0  0
   13.4372    3.7771   11.1902 C   0  0  2  0  0  0  0  0  0  0  0  0
   12.9726    5.1100   11.2243 O   0  0  0  0  0  0  0  0  0  0  0  0
   14.3885    3.5319   12.4005 C   0  0  2  0  0  0  0  0  0  0  0  0
   14.8630    2.1838   12.3350 O   0  0  0  0  0  0  0  0  0  0  0  0
   13.6742    3.7624   13.7724 C   0  0  0  0  0  0  0  0  0  0  0  0
   12.2826    3.4787   13.7072 N   0  0  0  0  0  0  0  0  0  0  0  0
   18.8053    5.0366    7.9806 C   0  0  2  0  0  0  0  0  0  0  0  0
   19.0585    5.8147    6.7615 N   0  0  0  0  0  0  0  0  0  0  0  0
   18.4262    3.5105    7.5811 C   0  0  0  0  0  0  0  0  0  0  0  0
   18.1402    2.6800    8.8986 C   0  0  2  0  0  0  0  0  0  0  0  0
   17.7658    1.2906    8.5809 N   0  0  0  0  0  0  0  0  0  0  0  0
   16.9836    3.3633    9.7036 C   0  0  2  0  0  0  0  0  0  0  0  0
   17.3504    4.8427   10.0568 C   0  0  2  0  0  0  0  0  0  0  0  0
   16.2189    5.3846   10.7813 O   0  0  0  0  0  0  0  0  0  0  0  0
   17.6219    5.6499    8.7468 C   0  0  1  0  0  0  0  0  0  0  0  0
   17.9578    6.9515    9.0911 O   0  0  0  0  0  0  0  0  0  0  0  0
   15.9153    6.7005   10.8937 C   0  0  1  0  0  0  0  0  0  0  0  0
   14.4863    6.9885   10.3641 C   0  0  2  0  0  0  0  0  0  0  0  0
   14.4412    7.1729    8.9788 O   0  0  0  0  0  0  0  0  0  0  0  0
   14.1179    8.1508   11.2674 C   0  0  1  0  0  0  0  0  0  0  0  0
   14.7236    7.8492   12.6454 C   0  0  2  0  0  0  0  0  0  0  0  0
   15.9424    7.2193   12.2509 O   0  0  0  0  0  0  0  0  0  0  0  0
   13.8637    6.9251   13.5734 C   0  0  0  0  0  0  0  0  0  0  0  0
   12.7006    7.6886   13.9896 O   0  0  0  0  0  0  0  0  0  0  0  0
   13.9314   10.5567   10.7211 C   0  0  2  0  0  0  0  0  0  0  0  0
   14.6949    9.3826   10.6687 O   0  0  0  0  0  0  0  0  0  0  0  0
   14.0381   11.2535   12.1469 C   0  0  1  0  0  0  0  0  0  0  0  0
    9.9212   10.3364    8.6574 N   0  0  0  0  0  0  0  0  0  0  0  0
   13.1072   12.5756   12.0996 C   0  0  1  0  0  0  0  0  0  0  0  0
   13.6096   13.4658   10.9804 O   0  0  0  0  0  0  0  0  0  0  0  0
   11.5647   12.1550   11.8350 C   0  0  2  0  0  0  0  0  0  0  0  0
   11.1057   11.3141   12.9206 O   0  0  0  0  0  0  0  0  0  0  0  0
   11.5018   11.4118   10.3846 C   0  0  1  0  0  0  0  0  0  0  0  0
   12.4451   10.2404   10.3822 O   0  0  0  0  0  0  0  0  0  0  0  0
   10.0528   10.9318   10.0226 C   0  0  0  0  0  0  0  0  0  0  0  0
   13.6359   10.2878   13.2222 N   0  0  0  0  0  0  0  0  0  0  0  0
  1  2  1  6  0  0  0
  1  3  1  0  0  0  0
  1 10  1  0  0  0  0
  3  4  1  6  0  0  0
  3  5  1  0  0  0  0
  5  6  1  6  0  0  0
  5  7  1  0  0  0  0
  7  8  1  6  0  0  0
  7  9  1  0  0  0  0
  9 10  1  0  0  0  0
  9 11  1  1  0  0  0
 11 12  1  0  0  0  0
 13 14  1  6  0  0  0
 13 15  1  0  0  0  0
 13 21  1  0  0  0  0
 16 15  1  0  0  0  0
 16 17  1  6  0  0  0
 18  2  1  1  0  0  0
 18 16  1  0  0  0  0
 19 18  1  0  0  0  0
 19 20  1  6  0  0  0
 21 19  1  0  0  0  0
 21 22  1  1  0  0  0
 23 20  1  1  0  0  0
 23 24  1  0  0  0  0
 23 28  1  0  0  0  0
 24 25  1  6  0  0  0
 24 26  1  0  0  0  0
 26 27  1  0  0  0  0
 26 32  1  6  0  0  0
 27 28  1  0  0  0  0
 27 29  1  1  0  0  0
 29 30  1  0  0  0  0
 31 32  1  1  0  0  0
 31 40  1  0  0  0  0
 33 31  1  0  0  0  0
 33 42  1  1  0  0  0
 35 33  1  0  0  0  0
 35 36  1  6  0  0  0
 37 35  1  0  0  0  0
 37 38  1  1  0  0  0
 37 39  1  0  0  0  0
 39 40  1  0  0  0  0
 39 41  1  1  0  0  0
 41 34  1  0  0  0  0
M  END
>  <CHROM.1>
-4.46289915,29.64821559,-108.22157590,-157.13875697,122.65992970,141.04574783
-70.24380627,80.05102487,175.59673371,14.63575460,6.55626432,10.72656654
0.93566266,-0.70420274,2.92020047

>  <Name>
2et4_lig

>  <RI>
0

>  <Rbt.Current_Directory>
/home/itssahil/PROJECTS/Mol_Feturizer/New_Systems/rnas/2et4

>  <Rbt.Executable>
rbdock ($Id: //depot/dev/client3/rdock/2013.1/src/exe/rbdock.cxx#4 $)

>  <Rbt.Library>
libRbt.so (2013.1, Build901 2013/11/27)

>  <Rbt.Parameter_File>
/export/apps/rDock/src/rDock_2013.1_src/data/scripts/dock_solv.prm

>  <Rbt.Receptor>
prm/blind_docking_40.prm

>  <SCORE>
30.7236

>  <SCORE.INTER>
-0.261934

>  <SCORE.INTER.CONST>
1

>  <SCORE.INTER.POLAR>
-1.20156

>  <SCORE.INTER.ROT>
9

>  <SCORE.INTER.SOLV>
27.8572

>  <SCORE.INTER.VDW>
-15.0551

>  <SCORE.INTER.norm>
-0.00623652

>  <SCORE.INTRA>
17.0934

>  <SCORE.INTRA.DIHEDRAL>
11.667

>  <SCORE.INTRA.DIHEDRAL.0>
21.6909

>  <SCORE.INTRA.POLAR>
0

>  <SCORE.INTRA.POLAR.0>
0

>  <SCORE.INTRA.REPUL>
0.0329431

>  <SCORE.INTRA.REPUL.0>
0

>  <SCORE.INTRA.SOLV>
9.02721

>  <SCORE.INTRA.SOLV.lig_0>
-116.606

>  <SCORE.INTRA.VDW>
6.58153

>  <SCORE.INTRA.VDW.0>
-6.01229

>  <SCORE.INTRA.norm>
0.406985

>  <SCORE.RESTR>
13.8922

>  <SCORE.RESTR.CAVITY>
13.8922

>  <SCORE.RESTR.norm>
0.330766

>  <SCORE.SYSTEM>
0

>  <SCORE.SYSTEM.CONST>
0

>  <SCORE.SYSTEM.DIHEDRAL>
0

>  <SCORE.SYSTEM.SOLV>
0

>  <SCORE.SYSTEM.norm>
0

>  <SCORE.heavy>
42

>  <SCORE.norm>
0.731514

>  <RMSD>
7.448

$$$$
2et4_lig
 OpenBabel11021811423D
libRbt.so/2013.1/901 2013/11/27
 42 45  0  0  0  0  0  0  0  0999 V2000
   11.6836    7.6158   10.3461 C   0  0  2  0  0  0  0  0  0  0  0  0
   10.5435    7.8826    9.5269 O   0  0  0  0  0  0  0  0  0  0  0  0
   12.3238    8.9830   10.6977 C   0  0  2  0  0  0  0  0  0  0  0  0
   11.3813    9.8501   11.3575 N   0  0  0  0  0  0  0  0  0  0  0  0
   12.8755    9.6403    9.3997 C   0  0  1  0  0  0  0  0  0  0  0  0
   13.4647   10.8616    9.7208 O   0  0  0  0  0  0  0  0  0  0  0  0
   13.8902    8.6470    8.7413 C   0  0  2  0  0  0  0  0  0  0  0  0
   14.4119    9.2017    7.5523 O   0  0  0  0  0  0  0  0  0  0  0  0
   13.2034    7.2858    8.4167 C   0  0  2  0  0  0  0  0  0  0  0  0
   12.6647    6.7520    9.6299 O   0  0  0  0  0  0  0  0  0  0  0  0
   14.1990    6.2527    7.7948 C   0  0  0  0  0  0  0  0  0  0  0  0
   14.6777    6.6678    6.5221 N   0  0  0  0  0  0  0  0  0  0  0  0
    6.9742    5.6309    8.6081 C   0  0  2  0  0  0  0  0  0  0  0  0
    6.1066    4.5703    8.0806 N   0  0  0  0  0  0  0  0  0  0  0  0
    7.7742    6.3355    7.3851 C   0  0  0  0  0  0  0  0  0  0  0  0
    8.7187    7.4684    7.9611 C   0  0  2  0  0  0  0  0  0  0  0  0
    9.4859    8.1197    6.8846 N   0  0  0  0  0  0  0  0  0  0  0  0
    9.7059    6.8427    9.0034 C   0  0  2  0  0  0  0  0  0  0  0  0
    8.9212    6.1419   10.1614 C   0  0  2  0  0  0  0  0  0  0  0  0
    9.9172    5.5877   11.0558 O   0  0  0  0  0  0  0  0  0  0  0  0
    8.0006    5.0225    9.5776 C   0  0  1  0  0  0  0  0  0  0  0  0
    7.3082    4.4292   10.6237 O   0  0  0  0  0  0  0  0  0  0  0  0
    9.6743    5.1000   12.2965 C   0  0  1  0  0  0  0  0  0  0  0  0
   10.9922    4.6725   12.9936 C   0  0  2  0  0  0  0  0  0  0  0  0
   11.4025    3.3814   12.6474 O   0  0  0  0  0  0  0  0  0  0  0  0
   10.6121    4.9556   14.4351 C   0  0  1  0  0  0  0  0  0  0  0  0
    9.7543    6.2287   14.4243 C   0  0  2  0  0  0  0  0  0  0  0  0
    9.0356    6.0362   13.2061 O   0  0  0  0  0  0  0  0  0  0  0  0
   10.5494    7.5787   14.4251 C   0  0  0  0  0  0  0  0  0  0  0  0
   11.2462    7.6720   15.6958 O   0  0  0  0  0  0  0  0  0  0  0  0
    9.2499    3.8793   16.1979 C   0  0  2  0  0  0  0  0  0  0  0  0
    9.8507    3.7815   14.9355 O   0  0  0  0  0  0  0  0  0  0  0  0
   10.2885    3.5609   17.3597 C   0  0  1  0  0  0  0  0  0  0  0  0
    5.0665    2.0585   18.5979 N   0  0  0  0  0  0  0  0  0  0  0  0
    9.4863    3.6811   18.7592 C   0  0  1  0  0  0  0  0  0  0  0  0
    8.9181    5.0828   18.8578 O   0  0  0  0  0  0  0  0  0  0  0  0
    8.2932    2.5854   18.8069 C   0  0  2  0  0  0  0  0  0  0  0  0
    8.8611    1.2564   18.7208 O   0  0  0  0  0  0  0  0  0  0  0  0
    7.2711    2.9209   17.5811 C   0  0  1  0  0  0  0  0  0  0  0  0
    8.0298    2.9158   16.2825 O   0  0  0  0  0  0  0  0  0  0  0  0
    6.0764    1.9068   17.5059 C   0  0  0  0  0  0  0  0  0  0  0  0
   10.9004    2.2080   17.1454 N   0  0  0  0  0  0  0  0  0  0  0  0
  1  2  1  6  0  0  0
  1  3  1  0  0  0  0
  1 10  1  0  0  0  0
  3  4  1  6  0  0  0
  3  5  1  0  0  0  0
  5  6  1  1  0  0  0
  5  7  1  0  0  0  0
  7  8  1  6  0  0  0
  7  9  1  0  0  0  0
  9 10  1  0  0  0  0
  9 11  1  1  0  0  0
 11 12  1  0  0  0  0
 13 14  1  6  0  0  0
 13 15  1  0  0  0  0
 13 21  1  0  0  0  0
 16 15  1  0  0  0  0
 16 17  1  6  0  0  0
 18  2  1  1  0  0  0
 18 16  1  0  0  0  0
 19 18  1  0  0  0  0
 19 20  1  1  0  0  0
 21 19  1  0  0  0  0
 21 22  1  1  0  0  0
 23 20  1  6  0  0  0
 23 24  1  0  0  0  0
 23 28  1  0  0  0  0
 24 25  1  1  0  0  0
 24 26  1  0  0  0  0
 26 27  1  0  0  0  0
 26 32  1  6  0  0  0
 27 28  1  0  0  0  0
 27 29  1  6  0  0  0
 29 30  1  0  0  0  0
 31 32  1  6  0  0  0
 31 40  1  0  0  0  0
 33 31  1  0  0  0  0
 33 42  1  6  0  0  0
 35 33  1  0  0  0  0
 35 36  1  6  0  0  0
 37 35  1  0  0  0  0
 37 38  1  6  0  0  0
 37 39  1  0  0  0  0
 39 40  1  0  0  0  0
 39 41  1  6  0  0  0
 41 34  1  0  0  0  0
M  END
>  <CHROM.1>
179.61068963,-65.15444969,-170.23726859,168.04487188,-176.47452977,-172.33619932
-66.01435582,-82.97089384,71.86239930,10.10485369,5.74174868,12.40326479
-1.18602216,0.52832960,1.86101508

>  <Name>
2et4_lig

>  <RI>
0

>  <Rbt.Current_Directory>
/home/itssahil/PROJECTS/Mol_Feturizer/New_Systems/rnas/2et4

>  <Rbt.Executable>
rbdock ($Id: //depot/dev/client3/rdock/2013.1/src/exe/rbdock.cxx#4 $)

>  <Rbt.Library>
libRbt.so (2013.1, Build901 2013/11/27)

>  <Rbt.Parameter_File>
/export/apps/rDock/src/rDock_2013.1_src/data/scripts/dock_solv.prm

>  <Rbt.Receptor>
prm/pocket_docking_8.prm

>  <SCORE>
-11.1931

>  <SCORE.INTER>
-2.51809

>  <SCORE.INTER.CONST>
1

>  <SCORE.INTER.POLAR>
-1.09097

>  <SCORE.INTER.ROT>
9

>  <SCORE.INTER.SOLV>
13.3731

>  <SCORE.INTER.VDW>
-12.0998

>  <SCORE.INTER.norm>
-0.0599545

>  <SCORE.INTRA>
-8.67497

>  <SCORE.INTRA.DIHEDRAL>
-17.0211

>  <SCORE.INTRA.DIHEDRAL.0>
21.6909

>  <SCORE.INTRA.POLAR>
0

>  <SCORE.INTRA.POLAR.0>
0

>  <SCORE.INTRA.REPUL>
0

>  <SCORE.INTRA.REPUL.0>
0

>  <SCORE.INTRA.SOLV>
-3.69617

>  <SCORE.INTRA.SOLV.lig_0>
-116.606

>  <SCORE.INTRA.VDW>
1.68366

>  <SCORE.INTRA.VDW.0>
-6.01229

>  <SCORE.INTRA.norm>
-0.206547

>  <SCORE.RESTR>
0

>  <SCORE.RESTR.CAVITY>
0

>  <SCORE.RESTR.norm>
0

>  <SCORE.SYSTEM>
0

>  <SCORE.SYSTEM.CONST>
0

>  <SCORE.SYSTEM.DIHEDRAL>
0

>  <SCORE.SYSTEM.SOLV>
0

>  <SCORE.SYSTEM.norm>
0

>  <SCORE.heavy>
42

>  <SCORE.norm>
-0.266501

>  <RMSD>
7.459

$$$$
2et4_lig
 OpenBabel11021811423D
libRbt.so/2013.1/901 2013/11/27
 42 45  0  0  0  0  0  0  0  0999 V2000
   14.2054    7.2012    9.5753 C   0  0  2  0  0  0  0  0  0  0  0  0
   12.9993    6.4387    9.6526 O   0  0  0  0  0  0  0  0  0  0  0  0
   15.3384    6.2243    9.1694 C   0  0  2  0  0  0  0  0  0  0  0  0
   15.0415    5.5641    7.9238 N   0  0  0  0  0  0  0  0  0  0  0  0
   15.5592    5.1912   10.3118 C   0  0  1  0  0  0  0  0  0  0  0  0
   16.5890    4.3244    9.9513 O   0  0  0  0  0  0  0  0  0  0  0  0
   15.8783    5.9770   11.6273 C   0  0  2  0  0  0  0  0  0  0  0  0
   16.0794    5.0759   12.6954 O   0  0  0  0  0  0  0  0  0  0  0  0
   14.7165    6.9520   11.9873 C   0  0  2  0  0  0  0  0  0  0  0  0
   14.5164    7.8415   10.8848 O   0  0  0  0  0  0  0  0  0  0  0  0
   15.0195    7.7853   13.2754 C   0  0  0  0  0  0  0  0  0  0  0  0
   13.9716    8.6948   13.5850 N   0  0  0  0  0  0  0  0  0  0  0  0
   10.0474    9.4471   10.5963 C   0  0  2  0  0  0  0  0  0  0  0  0
    8.7444   10.0696   10.8614 N   0  0  0  0  0  0  0  0  0  0  0  0
   10.0548    8.8208    9.0996 C   0  0  0  0  0  0  0  0  0  0  0  0
   11.4570    8.1384    8.8246 C   0  0  2  0  0  0  0  0  0  0  0  0
   11.4993    7.5322    7.4821 N   0  0  0  0  0  0  0  0  0  0  0  0
   11.7203    7.0364    9.9057 C   0  0  2  0  0  0  0  0  0  0  0  0
   11.6816    7.6488   11.3449 C   0  0  2  0  0  0  0  0  0  0  0  0
   11.9196    6.5541   12.2636 O   0  0  0  0  0  0  0  0  0  0  0  0
   10.2900    8.3108   11.6031 C   0  0  1  0  0  0  0  0  0  0  0  0
   10.2899    8.8564   12.8790 O   0  0  0  0  0  0  0  0  0  0  0  0
   11.3226    5.3388   12.2090 C   0  0  1  0  0  0  0  0  0  0  0  0
   11.9968    4.3438   13.1893 C   0  0  2  0  0  0  0  0  0  0  0  0
   13.1313    3.7278   12.6522 O   0  0  0  0  0  0  0  0  0  0  0  0
   10.7945    3.4848   13.5347 C   0  0  1  0  0  0  0  0  0  0  0  0
    9.5842    4.4266   13.6068 C   0  0  2  0  0  0  0  0  0  0  0  0
    9.9115    5.3359   12.5562 O   0  0  0  0  0  0  0  0  0  0  0  0
    9.3830    5.1640   14.9744 C   0  0  0  0  0  0  0  0  0  0  0  0
    9.1643    4.1474   15.9882 O   0  0  0  0  0  0  0  0  0  0  0  0
    9.7555    1.4109   12.6741 C   0  0  2  0  0  0  0  0  0  0  0  0
   10.6431    2.4733   12.4564 O   0  0  0  0  0  0  0  0  0  0  0  0
    9.9737    0.2473   11.6120 C   0  0  1  0  0  0  0  0  0  0  0  0
    5.5678    2.6424   13.7839 N   0  0  0  0  0  0  0  0  0  0  0  0
    8.8895   -0.9067   11.9429 C   0  0  1  0  0  0  0  0  0  0  0  0
    9.1167   -1.3721   13.3674 O   0  0  0  0  0  0  0  0  0  0  0  0
    7.3889   -0.3179   11.7756 C   0  0  2  0  0  0  0  0  0  0  0  0
    7.1936    0.1106   10.4065 O   0  0  0  0  0  0  0  0  0  0  0  0
    7.2159    0.8947   12.8524 C   0  0  1  0  0  0  0  0  0  0  0  0
    8.2869    1.9250   12.6208 O   0  0  0  0  0  0  0  0  0  0  0  0
    5.8009    1.5673   12.7712 C   0  0  0  0  0  0  0  0  0  0  0  0
    9.8481    0.7921   10.2198 N   0  0  0  0  0  0  0  0  0  0  0  0
  1  2  1  1  0  0  0
  1  3  1  0  0  0  0
  1 10  1  0  0  0  0
  3  4  1  6  0  0  0
  3  5  1  0  0  0  0
  5  6  1  6  0  0  0
  5  7  1  0  0  0  0
  7  8  1  1  0  0  0
  7  9  1  0  0  0  0
  9 10  1  0  0  0  0
  9 11  1  1  0  0  0
 11 12  1  0  0  0  0
 13 14  1  1  0  0  0
 13 15  1  0  0  0  0
 13 21  1  0  0  0  0
 16 15  1  0  0  0  0
 16 17  1  6  0  0  0
 18  2  1  6  0  0  0
 18 16  1  0  0  0  0
 19 18  1  0  0  0  0
 19 20  1  1  0  0  0
 21 19  1  0  0  0  0
 21 22  1  1  0  0  0
 23 20  1  1  0  0  0
 23 24  1  0  0  0  0
 23 28  1  0  0  0  0
 24 25  1  6  0  0  0
 24 26  1  0  0  0  0
 26 27  1  0  0  0  0
 26 32  1  6  0  0  0
 27 28  1  0  0  0  0
 27 29  1  1  0  0  0
 29 30  1  0  0  0  0
 31 32  1  6  0  0  0
 31 40  1  0  0  0  0
 33 31  1  0  0  0  0
 33 42  1  6  0  0  0
 35 33  1  0  0  0  0
 35 36  1  1  0  0  0
 37 35  1  0  0  0  0
 37 38  1  6  0  0  0
 37 39  1  0  0  0  0
 39 40  1  0  0  0  0
 39 41  1  6  0  0  0
 41 34  1  0  0  0  0
M  END
>  <CHROM.1>
-175.15539902,178.69702263,56.12055989,-46.13266074,170.01609003,168.36875230
-61.79487564,-165.83435371,177.18209281,11.25718369,4.85991165,11.71104999
-0.84381284,-0.24931102,3.05548729

>  <Name>
2et4_lig

>  <RI>
1.79929e+07

>  <Rbt.Current_Directory>
/home/itssahil/PROJECTS/Mol_Feturizer/New_Systems/rnas/2et4

>  <Rbt.Executable>
rbdock ($Id: //depot/dev/client3/rdock/2013.1/src/exe/rbdock.cxx#4 $)

>  <Rbt.Library>
libRbt.so (2013.1, Build901 2013/11/27)

>  <Rbt.Parameter_File>
/export/apps/rDock/src/rDock_2013.1_src/data/scripts/dock_solv.prm

>  <Rbt.Receptor>
prm/pocket_docking_7.prm

>  <SCORE>
-16.1267

>  <SCORE.INTER>
-6.73721

>  <SCORE.INTER.CONST>
1

>  <SCORE.INTER.POLAR>
-0.824621

>  <SCORE.INTER.ROT>
9

>  <SCORE.INTER.SOLV>
7.65307

>  <SCORE.INTER.VDW>
-13.8938

>  <SCORE.INTER.norm>
-0.16041

>  <SCORE.INTRA>
-9.38954

>  <SCORE.INTRA.DIHEDRAL>
-18.3034

>  <SCORE.INTRA.DIHEDRAL.0>
21.6909

>  <SCORE.INTRA.POLAR>
0

>  <SCORE.INTRA.POLAR.0>
0

>  <SCORE.INTRA.REPUL>
0

>  <SCORE.INTRA.REPUL.0>
0

>  <SCORE.INTRA.SOLV>
-1.26222

>  <SCORE.INTRA.SOLV.lig_0>
-116.606

>  <SCORE.INTRA.VDW>
0.393256

>  <SCORE.INTRA.VDW.0>
-6.01229

>  <SCORE.INTRA.norm>
-0.22356

>  <SCORE.RESTR>
0

>  <SCORE.RESTR.CAVITY>
0

>  <SCORE.RESTR.norm>
0

>  <SCORE.SYSTEM>
0

>  <SCORE.SYSTEM.CONST>
0

>  <SCORE.SYSTEM.DIHEDRAL>
0

>  <SCORE.SYSTEM.SOLV>
0

>  <SCORE.SYSTEM.norm>
0

>  <SCORE.heavy>
42

>  <SCORE.norm>
-0.38397

>  <RMSD>
7.467

$$$$
2et4_lig
 OpenBabel11021811423D
libRbt.so/2013.1/901 2013/11/27
 42 45  0  0  0  0  0  0  0  0999 V2000
   10.5111    5.2111    5.0981 C   0  0  2  0  0  0  0  0  0  0  0  0
   10.1461    6.3882    5.8214 O   0  0  0  0  0  0  0  0  0  0  0  0
    9.3414    4.8856    4.1346 C   0  0  2  0  0  0  0  0  0  0  0  0
    9.0636    5.9910    3.2533 N   0  0  0  0  0  0  0  0  0  0  0  0
    8.0830    4.5026    4.9658 C   0  0  1  0  0  0  0  0  0  0  0  0
    7.0378    4.1949    4.0972 O   0  0  0  0  0  0  0  0  0  0  0  0
    8.4572    3.2989    5.8937 C   0  0  2  0  0  0  0  0  0  0  0  0
    7.3427    2.9216    6.6741 O   0  0  0  0  0  0  0  0  0  0  0  0
    9.6430    3.6710    6.8347 C   0  0  2  0  0  0  0  0  0  0  0  0
   10.7532    4.0692    6.0250 O   0  0  0  0  0  0  0  0  0  0  0  0
   10.0719    2.4768    7.7486 C   0  0  0  0  0  0  0  0  0  0  0  0
   11.0308    2.8647    8.7238 N   0  0  0  0  0  0  0  0  0  0  0  0
   12.2032    9.5071    7.9883 C   0  0  2  0  0  0  0  0  0  0  0  0
   13.0974   10.1625    8.9509 N   0  0  0  0  0  0  0  0  0  0  0  0
   11.1133    8.6080    8.7857 C   0  0  0  0  0  0  0  0  0  0  0  0
   10.1610    7.8924    7.7425 C   0  0  2  0  0  0  0  0  0  0  0  0
    9.1686    7.0424    8.4239 N   0  0  0  0  0  0  0  0  0  0  0  0
   11.0202    7.0171    6.7688 C   0  0  2  0  0  0  0  0  0  0  0  0
   12.0856    7.8915    6.0285 C   0  0  2  0  0  0  0  0  0  0  0  0
   12.8309    6.9924    5.1711 O   0  0  0  0  0  0  0  0  0  0  0  0
   13.0214    8.5839    7.0708 C   0  0  1  0  0  0  0  0  0  0  0  0
   13.9451    9.3619    6.3874 O   0  0  0  0  0  0  0  0  0  0  0  0
   13.5720    5.9391    5.5925 C   0  0  1  0  0  0  0  0  0  0  0  0
   14.0479    5.0789    4.3929 C   0  0  2  0  0  0  0  0  0  0  0  0
   13.0948    4.1453    3.9744 O   0  0  0  0  0  0  0  0  0  0  0  0
   15.3639    4.5758    4.9566 C   0  0  1  0  0  0  0  0  0  0  0  0
   15.9663    5.7296    5.7706 C   0  0  2  0  0  0  0  0  0  0  0  0
   14.7771    6.2940    6.3229 O   0  0  0  0  0  0  0  0  0  0  0  0
   16.7833    6.7826    4.9470 C   0  0  0  0  0  0  0  0  0  0  0  0
   17.5431    7.5800    5.8935 O   0  0  0  0  0  0  0  0  0  0  0  0
   15.9516    3.0974    6.8515 C   0  0  2  0  0  0  0  0  0  0  0  0
   15.0630    3.3967    5.8099 O   0  0  0  0  0  0  0  0  0  0  0  0
   15.6723    1.6519    7.4534 C   0  0  1  0  0  0  0  0  0  0  0  0
   17.5032    5.1758   11.3176 N   0  0  0  0  0  0  0  0  0  0  0  0
   16.7334    1.4242    8.6529 C   0  0  1  0  0  0  0  0  0  0  0  0
   18.1297    1.5525    8.0774 O   0  0  0  0  0  0  0  0  0  0  0  0
   16.4992    2.5305    9.8138 C   0  0  2  0  0  0  0  0  0  0  0  0
   15.1640    2.3816   10.3534 O   0  0  0  0  0  0  0  0  0  0  0  0
   16.7573    3.9981    9.1509 C   0  0  1  0  0  0  0  0  0  0  0  0
   15.8474    4.1784    7.9670 O   0  0  0  0  0  0  0  0  0  0  0  0
   16.5361    5.1637   10.1774 C   0  0  0  0  0  0  0  0  0  0  0  0
   14.2444    1.5493    7.9023 N   0  0  0  0  0  0  0  0  0  0  0  0
  1  2  1  1  0  0  0
  1  3  1  0  0  0  0
  1 10  1  0  0  0  0
  3  4  1  1  0  0  0
  3  5  1  0  0  0  0
  5  6  1  6  0  0  0
  5  7  1  0  0  0  0
  7  8  1  1  0  0  0
  7  9  1  0  0  0  0
  9 10  1  0  0  0  0
  9 11  1  6  0  0  0
 11 12  1  0  0  0  0
 13 14  1  1  0  0  0
 13 15  1  0  0  0  0
 13 21  1  0  0  0  0
 16 15  1  0  0  0  0
 16 17  1  1  0  0  0
 18  2  1  6  0  0  0
 18 16  1  0  0  0  0
 19 18  1  0  0  0  0
 19 20  1  6  0  0  0
 21 19  1  0  0  0  0
 21 22  1  6  0  0  0
 23 20  1  6  0  0  0
 23 24  1  0  0  0  0
 23 28  1  0  0  0  0
 24 25  1  1  0  0  0
 24 26  1  0  0  0  0
 26 27  1  0  0  0  0
 26 32  1  1  0  0  0
 27 28  1  0  0  0  0
 27 29  1  6  0  0  0
 29 30  1  0  0  0  0
 31 32  1  6  0  0  0
 31 40  1  0  0  0  0
 33 31  1  0  0  0  0
 33 42  1  1  0  0  0
 35 33  1  0  0  0  0
 35 36  1  6  0  0  0
 37 35  1  0  0  0  0
 37 38  1  6  0  0  0
 37 39  1  0  0  0  0
 39 40  1  0  0  0  0
 39 41  1  1  0  0  0
 41 34  1  0  0  0  0
M  END
>  <CHROM.1>
-177.26988822,-172.31986551,-158.52241378,-61.44975205,171.33361657,-153.76407015
-165.77192840,-167.44991695,64.86223015,12.99758591,5.12795743,6.84301075
2.91878600,-0.30812340,-0.10336408

>  <Name>
2et4_lig

>  <RI>
1.79929e+07

>  <Rbt.Current_Directory>
/home/itssahil/PROJECTS/Mol_Feturizer/New_Systems/rnas/2et4

>  <Rbt.Executable>
rbdock ($Id: //depot/dev/client3/rdock/2013.1/src/exe/rbdock.cxx#4 $)

>  <Rbt.Library>
libRbt.so (2013.1, Build901 2013/11/27)

>  <Rbt.Parameter_File>
/export/apps/rDock/src/rDock_2013.1_src/data/scripts/dock_solv.prm

>  <Rbt.Receptor>
prm/pocket_docking_7.prm

>  <SCORE>
-9.19836

>  <SCORE.INTER>
-2.27789

>  <SCORE.INTER.CONST>
1

>  <SCORE.INTER.POLAR>
-1.43392

>  <SCORE.INTER.ROT>
9

>  <SCORE.INTER.SOLV>
19.9805

>  <SCORE.INTER.VDW>
-12.999

>  <SCORE.INTER.norm>
-0.0542354

>  <SCORE.INTRA>
-6.92047

>  <SCORE.INTRA.DIHEDRAL>
-14.5085

>  <SCORE.INTRA.DIHEDRAL.0>
21.6909

>  <SCORE.INTRA.POLAR>
0

>  <SCORE.INTRA.POLAR.0>
0

>  <SCORE.INTRA.REPUL>
0.0174902

>  <SCORE.INTRA.REPUL.0>
0

>  <SCORE.INTRA.SOLV>
-2.40586

>  <SCORE.INTRA.SOLV.lig_0>
-116.606

>  <SCORE.INTRA.VDW>
1.44924

>  <SCORE.INTRA.VDW.0>
-6.01229

>  <SCORE.INTRA.norm>
-0.164773

>  <SCORE.RESTR>
0

>  <SCORE.RESTR.CAVITY>
0

>  <SCORE.RESTR.norm>
0

>  <SCORE.SYSTEM>
0

>  <SCORE.SYSTEM.CONST>
0

>  <SCORE.SYSTEM.DIHEDRAL>
0

>  <SCORE.SYSTEM.SOLV>
0

>  <SCORE.SYSTEM.norm>
0

>  <SCORE.heavy>
42

>  <SCORE.norm>
-0.219009

>  <RMSD>
7.469

$$$$
2et4_lig
 OpenBabel11021811423D
libRbt.so/2013.1/901 2013/11/27
 42 45  0  0  0  0  0  0  0  0999 V2000
   12.5438   10.8256    9.2989 C   0  0  2  0  0  0  0  0  0  0  0  0
   13.2444    9.9679   10.2021 O   0  0  0  0  0  0  0  0  0  0  0  0
   11.0400   10.4635    9.3985 C   0  0  2  0  0  0  0  0  0  0  0  0
   10.5557   10.5975   10.7488 N   0  0  0  0  0  0  0  0  0  0  0  0
   10.8240    9.0169    8.8675 C   0  0  1  0  0  0  0  0  0  0  0  0
    9.4692    8.6999    8.9430 O   0  0  0  0  0  0  0  0  0  0  0  0
   11.3688    8.9474    7.4017 C   0  0  2  0  0  0  0  0  0  0  0  0
   11.1992    7.6459    6.8812 O   0  0  0  0  0  0  0  0  0  0  0  0
   12.8793    9.3294    7.3521 C   0  0  2  0  0  0  0  0  0  0  0  0
   13.0308   10.6413    7.9023 O   0  0  0  0  0  0  0  0  0  0  0  0
   13.4480    9.3110    5.8955 C   0  0  0  0  0  0  0  0  0  0  0  0
   14.7176    9.9445    5.8071 N   0  0  0  0  0  0  0  0  0  0  0  0
   13.2718    9.5925   14.5048 C   0  0  2  0  0  0  0  0  0  0  0  0
   12.8099    9.3176   15.8711 N   0  0  0  0  0  0  0  0  0  0  0  0
   12.3434   10.7451   13.8400 C   0  0  0  0  0  0  0  0  0  0  0  0
   12.8368   11.0271   12.3620 C   0  0  2  0  0  0  0  0  0  0  0  0
   12.0033   12.0522   11.7094 N   0  0  0  0  0  0  0  0  0  0  0  0
   12.7805    9.7000   11.5325 C   0  0  2  0  0  0  0  0  0  0  0  0
   13.6567    8.5891   12.2004 C   0  0  2  0  0  0  0  0  0  0  0  0
   13.5255    7.4085   11.3710 O   0  0  0  0  0  0  0  0  0  0  0  0
   13.1524    8.3174   13.6541 C   0  0  1  0  0  0  0  0  0  0  0  0
   13.9551    7.3401   14.2252 O   0  0  0  0  0  0  0  0  0  0  0  0
   14.5530    6.7125   10.8269 C   0  0  1  0  0  0  0  0  0  0  0  0
   15.7014    6.5241   11.8523 C   0  0  2  0  0  0  0  0  0  0  0  0
   16.5706    7.6178   11.9100 O   0  0  0  0  0  0  0  0  0  0  0  0
   16.2404    5.1878   11.3763 C   0  0  1  0  0  0  0  0  0  0  0  0
   15.0287    4.3526   10.9391 C   0  0  2  0  0  0  0  0  0  0  0  0
   14.2111    5.3757   10.3712 O   0  0  0  0  0  0  0  0  0  0  0  0
   14.2884    3.5847   12.0867 C   0  0  0  0  0  0  0  0  0  0  0  0
   14.9812    2.3234   12.2829 O   0  0  0  0  0  0  0  0  0  0  0  0
   17.8943    4.3791    9.7235 C   0  0  2  0  0  0  0  0  0  0  0  0
   17.1635    5.4562   10.2430 O   0  0  0  0  0  0  0  0  0  0  0  0
   18.7700    4.8234    8.4723 C   0  0  1  0  0  0  0  0  0  0  0  0
   15.4579    0.7118    9.4955 N   0  0  0  0  0  0  0  0  0  0  0  0
   19.5472    3.5062    7.9453 C   0  0  1  0  0  0  0  0  0  0  0  0
   20.3927    2.9711    9.0838 O   0  0  0  0  0  0  0  0  0  0  0  0
   18.4760    2.3885    7.4661 C   0  0  2  0  0  0  0  0  0  0  0  0
   17.6881    2.9193    6.3735 O   0  0  0  0  0  0  0  0  0  0  0  0
   17.5740    1.9866    8.7640 C   0  0  1  0  0  0  0  0  0  0  0  0
   16.9295    3.2234    9.3268 O   0  0  0  0  0  0  0  0  0  0  0  0
   16.4754    0.9207    8.4201 C   0  0  0  0  0  0  0  0  0  0  0  0
   17.8933    5.4479    7.4272 N   0  0  0  0  0  0  0  0  0  0  0  0
  1  2  1  1  0  0  0
  1  3  1  0  0  0  0
  1 10  1  0  0  0  0
  3  4  1  1  0  0  0
  3  5  1  0  0  0  0
  5  6  1  6  0  0  0
  5  7  1  0  0  0  0
  7  8  1  1  0  0  0
  7  9  1  0  0  0  0
  9 10  1  0  0  0  0
  9 11  1  6  0  0  0
 11 12  1  0  0  0  0
 13 14  1  1  0  0  0
 13 15  1  0  0  0  0
 13 21  1  0  0  0  0
 16 15  1  0  0  0  0
 16 17  1  6  0  0  0
 18  2  1  6  0  0  0
 18 16  1  0  0  0  0
 19 18  1  0  0  0  0
 19 20  1  6  0  0  0
 21 19  1  0  0  0  0
 21 22  1  1  0  0  0
 23 20  1  1  0  0  0
 23 24  1  0  0  0  0
 23 28  1  0  0  0  0
 24 25  1  6  0  0  0
 24 26  1  0  0  0  0
 26 27  1  0  0  0  0
 26 32  1  6  0  0  0
 27 28  1  0  0  0  0
 27 29  1  1  0  0  0
 29 30  1  0  0  0  0
 31 32  1  6  0  0  0
 31 40  1  0  0  0  0
 33 31  1  0  0  0  0
 33 42  1  6  0  0  0
 35 33  1  0  0  0  0
 35 36  1  1  0  0  0
 37 35  1  0  0  0  0
 37 38  1  6  0  0  0
 37 39  1  0  0  0  0
 39 40  1  0  0  0  0
 39 41  1  6  0  0  0
 41 34  1  0  0  0  0
M  END
>  <CHROM.1>
-44.24555032,166.56383021,-65.56783116,125.48100708,43.22607216,173.54692718
-85.24065933,176.98606896,-168.78354320,14.54360102,6.86737284,10.09296295
2.96528763,-0.90835108,1.61585789

>  <Name>
2et4_lig

>  <RI>
0

>  <Rbt.Current_Directory>
/home/itssahil/PROJECTS/Mol_Feturizer/New_Systems/rnas/2et4

>  <Rbt.Executable>
rbdock ($Id: //depot/dev/client3/rdock/2013.1/src/exe/rbdock.cxx#4 $)

>  <Rbt.Library>
libRbt.so (2013.1, Build901 2013/11/27)

>  <Rbt.Parameter_File>
/export/apps/rDock/src/rDock_2013.1_src/data/scripts/dock_solv.prm

>  <Rbt.Receptor>
prm/blind_docking_40.prm

>  <SCORE>
42.4648

>  <SCORE.INTER>
10.0131

>  <SCORE.INTER.CONST>
1

>  <SCORE.INTER.POLAR>
-0.651415

>  <SCORE.INTER.ROT>
9

>  <SCORE.INTER.SOLV>
26.1012

>  <SCORE.INTER.VDW>
-9.45363

>  <SCORE.INTER.norm>
0.238406

>  <SCORE.INTRA>
5.5372

>  <SCORE.INTRA.DIHEDRAL>
-8.59417

>  <SCORE.INTRA.DIHEDRAL.0>
21.6909

>  <SCORE.INTRA.POLAR>
0

>  <SCORE.INTRA.POLAR.0>
0

>  <SCORE.INTRA.REPUL>
0

>  <SCORE.INTRA.REPUL.0>
0

>  <SCORE.INTRA.SOLV>
3.97985

>  <SCORE.INTRA.SOLV.lig_0>
-116.606

>  <SCORE.INTRA.VDW>
7.84436

>  <SCORE.INTRA.VDW.0>
-6.01229

>  <SCORE.INTRA.norm>
0.131838

>  <SCORE.RESTR>
26.9145

>  <SCORE.RESTR.CAVITY>
26.9145

>  <SCORE.RESTR.norm>
0.640822

>  <SCORE.SYSTEM>
0

>  <SCORE.SYSTEM.CONST>
0

>  <SCORE.SYSTEM.DIHEDRAL>
0

>  <SCORE.SYSTEM.SOLV>
0

>  <SCORE.SYSTEM.norm>
0

>  <SCORE.heavy>
42

>  <SCORE.norm>
1.01107

>  <RMSD>
7.518

$$$$
2et4_lig
 OpenBabel11021811423D
libRbt.so/2013.1/901 2013/11/27
 42 45  0  0  0  0  0  0  0  0999 V2000
   14.6983    6.9747    8.9657 C   0  0  2  0  0  0  0  0  0  0  0  0
   13.3411    7.2233    9.3378 O   0  0  0  0  0  0  0  0  0  0  0  0
   14.7232    6.7860    7.4274 C   0  0  2  0  0  0  0  0  0  0  0  0
   14.1838    7.9364    6.7482 N   0  0  0  0  0  0  0  0  0  0  0  0
   13.9357    5.4965    7.0556 C   0  0  1  0  0  0  0  0  0  0  0  0
   13.9733    5.3205    5.6738 O   0  0  0  0  0  0  0  0  0  0  0  0
   14.5764    4.2931    7.8246 C   0  0  2  0  0  0  0  0  0  0  0  0
   13.8861    3.0993    7.5214 O   0  0  0  0  0  0  0  0  0  0  0  0
   14.5374    4.5341    9.3642 C   0  0  2  0  0  0  0  0  0  0  0  0
   15.2236    5.7573    9.6465 O   0  0  0  0  0  0  0  0  0  0  0  0
   15.2074    3.3692   10.1638 C   0  0  0  0  0  0  0  0  0  0  0  0
   14.4317    2.1783   10.1284 N   0  0  0  0  0  0  0  0  0  0  0  0
   11.7126    8.3841   13.1660 C   0  0  2  0  0  0  0  0  0  0  0  0
   11.3373    9.2225   14.3114 N   0  0  0  0  0  0  0  0  0  0  0  0
   13.3233    8.4173   12.9743 C   0  0  0  0  0  0  0  0  0  0  0  0
   13.7209    7.5234   11.7293 C   0  0  2  0  0  0  0  0  0  0  0  0
   15.1768    7.5452   11.5019 N   0  0  0  0  0  0  0  0  0  0  0  0
   12.9833    8.0515   10.4527 C   0  0  2  0  0  0  0  0  0  0  0  0
   11.4329    8.0413   10.6622 C   0  0  2  0  0  0  0  0  0  0  0  0
   10.8500    8.5574    9.4403 O   0  0  0  0  0  0  0  0  0  0  0  0
   11.0567    8.9334   11.8885 C   0  0  1  0  0  0  0  0  0  0  0  0
    9.6800    8.8940   12.0582 O   0  0  0  0  0  0  0  0  0  0  0  0
   10.7799    7.8927    8.2615 C   0  0  1  0  0  0  0  0  0  0  0  0
    9.9426    6.5949    8.4041 C   0  0  2  0  0  0  0  0  0  0  0  0
   10.6855    5.5124    8.8850 O   0  0  0  0  0  0  0  0  0  0  0  0
    9.3649    6.5188    7.0029 C   0  0  1  0  0  0  0  0  0  0  0  0
    9.0656    7.9606    6.5690 C   0  0  2  0  0  0  0  0  0  0  0  0
   10.1656    8.6383    7.1760 O   0  0  0  0  0  0  0  0  0  0  0  0
    7.6897    8.5378    7.0470 C   0  0  0  0  0  0  0  0  0  0  0  0
    7.7260    8.6028    8.4974 O   0  0  0  0  0  0  0  0  0  0  0  0
   10.0353    5.6030    4.8044 C   0  0  2  0  0  0  0  0  0  0  0  0
   10.3868    5.8814    6.1322 O   0  0  0  0  0  0  0  0  0  0  0  0
    8.7890    4.6177    4.7298 C   0  0  1  0  0  0  0  0  0  0  0  0
   12.7294    2.7214    2.5206 N   0  0  0  0  0  0  0  0  0  0  0  0
    8.4883    4.3508    3.1630 C   0  0  1  0  0  0  0  0  0  0  0  0
    8.2114    5.6866    2.5022 O   0  0  0  0  0  0  0  0  0  0  0  0
    9.7662    3.6343    2.4702 C   0  0  2  0  0  0  0  0  0  0  0  0
   10.0042    2.3582    3.1114 O   0  0  0  0  0  0  0  0  0  0  0  0
   11.0303    4.6566    2.5995 C   0  0  1  0  0  0  0  0  0  0  0  0
   11.2528    4.9954    4.0478 O   0  0  0  0  0  0  0  0  0  0  0  0
   12.3441    4.0619    1.9818 C   0  0  0  0  0  0  0  0  0  0  0  0
    9.0807    3.3613    5.4961 N   0  0  0  0  0  0  0  0  0  0  0  0
  1  2  1  1  0  0  0
  1  3  1  0  0  0  0
  1 10  1  0  0  0  0
  3  4  1  6  0  0  0
  3  5  1  0  0  0  0
  5  6  1  6  0  0  0
  5  7  1  0  0  0  0
  7  8  1  1  0  0  0
  7  9  1  0  0  0  0
  9 10  1  0  0  0  0
  9 11  1  1  0  0  0
 11 12  1  0  0  0  0
 13 14  1  1  0  0  0
 13 15  1  0  0  0  0
 13 21  1  0  0  0  0
 16 15  1  0  0  0  0
 16 17  1  6  0  0  0
 18  2  1  6  0  0  0
 18 16  1  0  0  0  0
 19 18  1  0  0  0  0
 19 20  1  6  0  0  0
 21 19  1  0  0  0  0
 21 22  1  1  0  0  0
 23 20  1  1  0  0  0
 23 24  1  0  0  0  0
 23 28  1  0  0  0  0
 24 25  1  6  0  0  0
 24 26  1  0  0  0  0
 26 27  1  0  0  0  0
 26 32  1  6  0  0  0
 27 28  1  0  0  0  0
 27 29  1  1  0  0  0
 29 30  1  0  0  0  0
 31 32  1  1  0  0  0
 31 40  1  0  0  0  0
 33 31  1  0  0  0  0
 33 42  1  1  0  0  0
 35 33  1  0  0  0  0
 35 36  1  6  0  0  0
 37 35  1  0  0  0  0
 37 38  1  1  0  0  0
 37 39  1  0  0  0  0
 39 40  1  0  0  0  0
 39 41  1  1  0  0  0
 41 34  1  0  0  0  0
M  END
>  <CHROM.1>
-148.60803931,-70.66932840,-54.11763307,73.16426044,61.22803907,174.89896073
64.24953059,-59.65379000,-54.32157717,11.68339854,6.15530235,7.68037453,-1.27679192
0.47702451,-2.12116542

>  <Name>
2et4_lig

>  <RI>
1.79929e+07

>  <Rbt.Current_Directory>
/home/itssahil/PROJECTS/Mol_Feturizer/New_Systems/rnas/2et4

>  <Rbt.Executable>
rbdock ($Id: //depot/dev/client3/rdock/2013.1/src/exe/rbdock.cxx#4 $)

>  <Rbt.Library>
libRbt.so (2013.1, Build901 2013/11/27)

>  <Rbt.Parameter_File>
/export/apps/rDock/src/rDock_2013.1_src/data/scripts/dock_solv.prm

>  <Rbt.Receptor>
prm/pocket_docking_7.prm

>  <SCORE>
-9.15556

>  <SCORE.INTER>
-4.20678

>  <SCORE.INTER.CONST>
1

>  <SCORE.INTER.POLAR>
-0.824621

>  <SCORE.INTER.ROT>
9

>  <SCORE.INTER.SOLV>
8.66842

>  <SCORE.INTER.VDW>
-12.5453

>  <SCORE.INTER.norm>
-0.100161

>  <SCORE.INTRA>
-4.94877

>  <SCORE.INTRA.DIHEDRAL>
-15.9611

>  <SCORE.INTRA.DIHEDRAL.0>
21.6909

>  <SCORE.INTRA.POLAR>
0

>  <SCORE.INTRA.POLAR.0>
0

>  <SCORE.INTRA.REPUL>
0

>  <SCORE.INTRA.REPUL.0>
0

>  <SCORE.INTRA.SOLV>
2.6173

>  <SCORE.INTRA.SOLV.lig_0>
-116.606

>  <SCORE.INTRA.VDW>
1.7231

>  <SCORE.INTRA.VDW.0>
-6.01229

>  <SCORE.INTRA.norm>
-0.117828

>  <SCORE.RESTR>
0

>  <SCORE.RESTR.CAVITY>
0

>  <SCORE.RESTR.norm>
0

>  <SCORE.SYSTEM>
0

>  <SCORE.SYSTEM.CONST>
0

>  <SCORE.SYSTEM.DIHEDRAL>
0

>  <SCORE.SYSTEM.SOLV>
0

>  <SCORE.SYSTEM.norm>
0

>  <SCORE.heavy>
42

>  <SCORE.norm>
-0.217989

>  <RMSD>
7.530

$$$$
2et4_lig
 OpenBabel11021811423D
libRbt.so/2013.1/901 2013/11/27
 42 45  0  0  0  0  0  0  0  0999 V2000
   18.5545    4.6711    9.1768 C   0  0  2  0  0  0  0  0  0  0  0  0
   18.0100    3.4575    8.6542 O   0  0  0  0  0  0  0  0  0  0  0  0
   18.0197    5.8287    8.2956 C   0  0  2  0  0  0  0  0  0  0  0  0
   16.5793    5.8523    8.2770 N   0  0  0  0  0  0  0  0  0  0  0  0
   18.5957    5.6872    6.8571 C   0  0  1  0  0  0  0  0  0  0  0  0
   18.1263    6.7380    6.0715 O   0  0  0  0  0  0  0  0  0  0  0  0
   20.1578    5.6714    6.9549 C   0  0  2  0  0  0  0  0  0  0  0  0
   20.7243    5.5367    5.6687 O   0  0  0  0  0  0  0  0  0  0  0  0
   20.6456    4.4984    7.8583 C   0  0  2  0  0  0  0  0  0  0  0  0
   20.0445    4.6428    9.1484 O   0  0  0  0  0  0  0  0  0  0  0  0
   22.2016    4.4765    8.0126 C   0  0  0  0  0  0  0  0  0  0  0  0
   22.6558    5.3918    9.0010 N   0  0  0  0  0  0  0  0  0  0  0  0
   14.4084    1.3843    9.8308 C   0  0  2  0  0  0  0  0  0  0  0  0
   13.4936    0.5296   10.5979 N   0  0  0  0  0  0  0  0  0  0  0  0
   15.6679    0.5027    9.3125 C   0  0  0  0  0  0  0  0  0  0  0  0
   16.6580    1.4324    8.4985 C   0  0  2  0  0  0  0  0  0  0  0  0
   17.8327    0.6764    8.0292 N   0  0  0  0  0  0  0  0  0  0  0  0
   17.1269    2.6168    9.4094 C   0  0  2  0  0  0  0  0  0  0  0  0
   15.9009    3.4406    9.9254 C   0  0  2  0  0  0  0  0  0  0  0  0
   16.4371    4.4939   10.7633 O   0  0  0  0  0  0  0  0  0  0  0  0
   14.9384    2.5112   10.7324 C   0  0  1  0  0  0  0  0  0  0  0  0
   13.8559    3.2643   11.1645 O   0  0  0  0  0  0  0  0  0  0  0  0
   15.9298    5.7457   10.8726 C   0  0  1  0  0  0  0  0  0  0  0  0
   14.3866    5.7088   11.0227 C   0  0  2  0  0  0  0  0  0  0  0  0
   13.7177    5.6252    9.7977 O   0  0  0  0  0  0  0  0  0  0  0  0
   14.1921    6.9477   11.8773 C   0  0  1  0  0  0  0  0  0  0  0  0
   15.3759    7.0019   12.8533 C   0  0  2  0  0  0  0  0  0  0  0  0
   16.4167    6.5040   12.0126 O   0  0  0  0  0  0  0  0  0  0  0  0
   15.2177    6.1445   14.1550 C   0  0  0  0  0  0  0  0  0  0  0  0
   15.2295    4.7473   13.7592 O   0  0  0  0  0  0  0  0  0  0  0  0
   13.3628    9.2095   11.3137 C   0  0  2  0  0  0  0  0  0  0  0  0
   14.1744    8.1213   10.9657 O   0  0  0  0  0  0  0  0  0  0  0  0
   12.6819    9.8576   10.0307 C   0  0  1  0  0  0  0  0  0  0  0  0
   15.0408   13.5313   12.4260 N   0  0  0  0  0  0  0  0  0  0  0  0
   11.7936   11.1077   10.5454 C   0  0  1  0  0  0  0  0  0  0  0  0
   10.7761   10.5848   11.5398 O   0  0  0  0  0  0  0  0  0  0  0  0
   12.7499   12.2123   11.2467 C   0  0  2  0  0  0  0  0  0  0  0  0
   13.7054   12.7026   10.2758 O   0  0  0  0  0  0  0  0  0  0  0  0
   13.4576   11.5014   12.5326 C   0  0  1  0  0  0  0  0  0  0  0  0
   14.2010   10.2751   12.0791 O   0  0  0  0  0  0  0  0  0  0  0  0
   14.4344   12.4699   13.2870 C   0  0  0  0  0  0  0  0  0  0  0  0
   13.7327   10.2518    9.0351 N   0  0  0  0  0  0  0  0  0  0  0  0
  1  2  1  6  0  0  0
  1  3  1  0  0  0  0
  1 10  1  0  0  0  0
  3  4  1  6  0  0  0
  3  5  1  0  0  0  0
  5  6  1  6  0  0  0
  5  7  1  0  0  0  0
  7  8  1  6  0  0  0
  7  9  1  0  0  0  0
  9 10  1  0  0  0  0
  9 11  1  1  0  0  0
 11 12  1  0  0  0  0
 13 14  1  1  0  0  0
 13 15  1  0  0  0  0
 13 21  1  0  0  0  0
 16 15  1  0  0  0  0
 16 17  1  1  0  0  0
 18  2  1  6  0  0  0
 18 16  1  0  0  0  0
 19 18  1  0  0  0  0
 19 20  1  1  0  0  0
 21 19  1  0  0  0  0
 21 22  1  6  0  0  0
 23 20  1  1  0  0  0
 23 24  1  0  0  0  0
 23 28  1  0  0  0  0
 24 25  1  6  0  0  0
 24 26  1  0  0  0  0
 26 27  1  0  0  0  0
 26 32  1  6  0  0  0
 27 28  1  0  0  0  0
 27 29  1  1  0  0  0
 29 30  1  0  0  0  0
 31 32  1  6  0  0  0
 31 40  1  0  0  0  0
 33 31  1  0  0  0  0
 33 42  1  6  0  0  0
 35 33  1  0  0  0  0
 35 36  1  1  0  0  0
 37 35  1  0  0  0  0
 37 38  1  6  0  0  0
 37 39  1  0  0  0  0
 39 40  1  0  0  0  0
 39 41  1  6  0  0  0
 41 34  1  0  0  0  0
M  END
>  <CHROM.1>
-117.02551190,81.62710996,176.38734593,145.24339384,45.06502435,147.04166235
67.46627775,-142.30966104,-27.79244860,15.98133347,6.29583006,10.09777797
-0.90100804,0.54708190,0.00534813

>  <Name>
2et4_lig

>  <RI>
0

>  <Rbt.Current_Directory>
/home/itssahil/PROJECTS/Mol_Feturizer/New_Systems/rnas/2et4

>  <Rbt.Executable>
rbdock ($Id: //depot/dev/client3/rdock/2013.1/src/exe/rbdock.cxx#4 $)

>  <Rbt.Library>
libRbt.so (2013.1, Build901 2013/11/27)

>  <Rbt.Parameter_File>
/export/apps/rDock/src/rDock_2013.1_src/data/scripts/dock_solv.prm

>  <Rbt.Receptor>
prm/blind_docking_40.prm

>  <SCORE>
33.1537

>  <SCORE.INTER>
4.30196

>  <SCORE.INTER.CONST>
1

>  <SCORE.INTER.POLAR>
-1.94963

>  <SCORE.INTER.ROT>
9

>  <SCORE.INTER.SOLV>
30.9424

>  <SCORE.INTER.VDW>
-10.5474

>  <SCORE.INTER.norm>
0.102428

>  <SCORE.INTRA>
9.05456

>  <SCORE.INTRA.DIHEDRAL>
4.95063

>  <SCORE.INTRA.DIHEDRAL.0>
21.6909

>  <SCORE.INTRA.POLAR>
0

>  <SCORE.INTRA.POLAR.0>
0

>  <SCORE.INTRA.REPUL>
0.0252983

>  <SCORE.INTRA.REPUL.0>
0

>  <SCORE.INTRA.SOLV>
3.44528

>  <SCORE.INTRA.SOLV.lig_0>
-116.606

>  <SCORE.INTRA.VDW>
4.73012

>  <SCORE.INTRA.VDW.0>
-6.01229

>  <SCORE.INTRA.norm>
0.215585

>  <SCORE.RESTR>
19.7972

>  <SCORE.RESTR.CAVITY>
19.7972

>  <SCORE.RESTR.norm>
0.471362

>  <SCORE.SYSTEM>
0

>  <SCORE.SYSTEM.CONST>
0

>  <SCORE.SYSTEM.DIHEDRAL>
0

>  <SCORE.SYSTEM.SOLV>
0

>  <SCORE.SYSTEM.norm>
0

>  <SCORE.heavy>
42

>  <SCORE.norm>
0.789375

>  <RMSD>
7.535

$$$$
2et4_lig
 OpenBabel11021811423D
libRbt.so/2013.1/901 2013/11/27
 42 45  0  0  0  0  0  0  0  0999 V2000
   16.9161    3.3269    8.6123 C   0  0  2  0  0  0  0  0  0  0  0  0
   16.6968    2.9831    9.9820 O   0  0  0  0  0  0  0  0  0  0  0  0
   18.4182    3.6795    8.4645 C   0  0  2  0  0  0  0  0  0  0  0  0
   19.2580    2.5863    8.8833 N   0  0  0  0  0  0  0  0  0  0  0  0
   18.7262    4.9669    9.2823 C   0  0  1  0  0  0  0  0  0  0  0  0
   20.0735    5.2907    9.1346 O   0  0  0  0  0  0  0  0  0  0  0  0
   17.7827    6.1073    8.7732 C   0  0  2  0  0  0  0  0  0  0  0  0
   18.0237    7.2965    9.4952 O   0  0  0  0  0  0  0  0  0  0  0  0
   16.2859    5.7021    8.9325 C   0  0  2  0  0  0  0  0  0  0  0  0
   16.0690    4.4858    8.2112 O   0  0  0  0  0  0  0  0  0  0  0  0
   15.3133    6.8023    8.3949 C   0  0  0  0  0  0  0  0  0  0  0  0
   13.9888    6.3133    8.2293 N   0  0  0  0  0  0  0  0  0  0  0  0
   12.4334    2.3100   10.1405 C   0  0  2  0  0  0  0  0  0  0  0  0
   11.1174    1.8954   10.6424 N   0  0  0  0  0  0  0  0  0  0  0  0
   13.4123    1.0191   10.0543 C   0  0  0  0  0  0  0  0  0  0  0  0
   14.8340    1.4744    9.5264 C   0  0  2  0  0  0  0  0  0  0  0  0
   15.7657    0.3347    9.4566 N   0  0  0  0  0  0  0  0  0  0  0  0
   15.4173    2.5702   10.4813 C   0  0  2  0  0  0  0  0  0  0  0  0
   14.4498    3.7959   10.5775 C   0  0  2  0  0  0  0  0  0  0  0  0
   15.0690    4.7373   11.4883 O   0  0  0  0  0  0  0  0  0  0  0  0
   13.0550    3.3314   11.1069 C   0  0  1  0  0  0  0  0  0  0  0  0
   12.2156    4.4347   11.1684 O   0  0  0  0  0  0  0  0  0  0  0  0
   15.0785    6.0842   11.3393 C   0  0  1  0  0  0  0  0  0  0  0  0
   13.6659    6.6795   11.5754 C   0  0  2  0  0  0  0  0  0  0  0  0
   12.8539    6.6341   10.4381 O   0  0  0  0  0  0  0  0  0  0  0  0
   14.0594    8.0329   12.1378 C   0  0  1  0  0  0  0  0  0  0  0  0
   15.3004    7.8047   13.0122 C   0  0  2  0  0  0  0  0  0  0  0  0
   15.9602    6.7929   12.2515 O   0  0  0  0  0  0  0  0  0  0  0  0
   15.0153    7.3375   14.4803 C   0  0  0  0  0  0  0  0  0  0  0  0
   13.7035    7.8397   14.8492 O   0  0  0  0  0  0  0  0  0  0  0  0
   14.1981   10.3075   11.1741 C   0  0  2  0  0  0  0  0  0  0  0  0
   14.3519    8.9271   10.9873 O   0  0  0  0  0  0  0  0  0  0  0  0
   14.1754   10.6836   12.7194 C   0  0  1  0  0  0  0  0  0  0  0  0
   10.0618   11.8887   10.3625 N   0  0  0  0  0  0  0  0  0  0  0  0
   13.9727   12.2856   12.8148 C   0  0  1  0  0  0  0  0  0  0  0  0
   15.1156   12.9501   12.0733 O   0  0  0  0  0  0  0  0  0  0  0  0
   12.5538   12.7025   12.1521 C   0  0  2  0  0  0  0  0  0  0  0  0
   11.4792   12.0638   12.8825 O   0  0  0  0  0  0  0  0  0  0  0  0
   12.6008   12.2681   10.5808 C   0  0  1  0  0  0  0  0  0  0  0  0
   12.8943   10.7966   10.4780 O   0  0  0  0  0  0  0  0  0  0  0  0
   11.2641   12.6002    9.8298 C   0  0  0  0  0  0  0  0  0  0  0  0
   13.0977    9.9105   13.4206 N   0  0  0  0  0  0  0  0  0  0  0  0
  1  2  1  1  0  0  0
  1  3  1  0  0  0  0
  1 10  1  0  0  0  0
  3  4  1  1  0  0  0
  3  5  1  0  0  0  0
  5  6  1  6  0  0  0
  5  7  1  0  0  0  0
  7  8  1  1  0  0  0
  7  9  1  0  0  0  0
  9 10  1  0  0  0  0
  9 11  1  6  0  0  0
 11 12  1  0  0  0  0
 13 14  1  1  0  0  0
 13 15  1  0  0  0  0
 13 21  1  0  0  0  0
 16 15  1  0  0  0  0
 16 17  1  1  0  0  0
 18  2  1  6  0  0  0
 18 16  1  0  0  0  0
 19 18  1  0  0  0  0
 19 20  1  1  0  0  0
 21 19  1  0  0  0  0
 21 22  1  6  0  0  0
 23 20  1  1  0  0  0
 23 24  1  0  0  0  0
 23 28  1  0  0  0  0
 24 25  1  6  0  0  0
 24 26  1  0  0  0  0
 26 27  1  0  0  0  0
 26 32  1  6  0  0  0
 27 28  1  0  0  0  0
 27 29  1  1  0  0  0
 29 30  1  0  0  0  0
 31 32  1  1  0  0  0
 31 40  1  0  0  0  0
 33 31  1  0  0  0  0
 33 42  1  1  0  0  0
 35 33  1  0  0  0  0
 35 36  1  6  0  0  0
 37 35  1  0  0  0  0
 37 38  1  1  0  0  0
 37 39  1  0  0  0  0
 39 40  1  0  0  0  0
 39 41  1  1  0  0  0
 41 34  1  0  0  0  0
M  END
>  <CHROM.1>
-178.56448670,165.35352482,48.09560329,140.53739703,70.66482872,154.17388118
-27.19231613,18.00045623,-61.86062058,14.68770725,6.70039946,10.74250038
-1.20488095,0.31407477,0.15548868

>  <Name>
2et4_lig

>  <RI>
0

>  <Rbt.Current_Directory>
/home/itssahil/PROJECTS/Mol_Feturizer/New_Systems/rnas/2et4

>  <Rbt.Executable>
rbdock ($Id: //depot/dev/client3/rdock/2013.1/src/exe/rbdock.cxx#4 $)

>  <Rbt.Library>
libRbt.so (2013.1, Build901 2013/11/27)

>  <Rbt.Parameter_File>
/export/apps/rDock/src/rDock_2013.1_src/data/scripts/dock_solv.prm

>  <Rbt.Receptor>
prm/blind_docking_40.prm

>  <SCORE>
36.7778

>  <SCORE.INTER>
10.8586

>  <SCORE.INTER.CONST>
1

>  <SCORE.INTER.POLAR>
-0.727768

>  <SCORE.INTER.ROT>
9

>  <SCORE.INTER.SOLV>
25.6035

>  <SCORE.INTER.VDW>
-8.46952

>  <SCORE.INTER.norm>
0.258539

>  <SCORE.INTRA>
10.9956

>  <SCORE.INTRA.DIHEDRAL>
-2.87187

>  <SCORE.INTRA.DIHEDRAL.0>
21.6909

>  <SCORE.INTRA.POLAR>
0

>  <SCORE.INTRA.POLAR.0>
0

>  <SCORE.INTRA.REPUL>
0

>  <SCORE.INTRA.REPUL.0>
0

>  <SCORE.INTRA.SOLV>
7.99337

>  <SCORE.INTRA.SOLV.lig_0>
-116.606

>  <SCORE.INTRA.VDW>
8.43485

>  <SCORE.INTRA.VDW.0>
-6.01229

>  <SCORE.INTRA.norm>
0.2618

>  <SCORE.RESTR>
14.9236

>  <SCORE.RESTR.CAVITY>
14.9236

>  <SCORE.RESTR.norm>
0.355323

>  <SCORE.SYSTEM>
0

>  <SCORE.SYSTEM.CONST>
0

>  <SCORE.SYSTEM.DIHEDRAL>
0

>  <SCORE.SYSTEM.SOLV>
0

>  <SCORE.SYSTEM.norm>
0

>  <SCORE.heavy>
42

>  <SCORE.norm>
0.875662

>  <RMSD>
7.546

$$$$
2et4_lig
 OpenBabel11021811423D
libRbt.so/2013.1/901 2013/11/27
 42 45  0  0  0  0  0  0  0  0999 V2000
   15.1434    3.1275   10.7292 C   0  0  2  0  0  0  0  0  0  0  0  0
   15.8070    2.9497    9.4761 O   0  0  0  0  0  0  0  0  0  0  0  0
   14.5698    1.7480   11.1423 C   0  0  2  0  0  0  0  0  0  0  0  0
   15.6064    0.7506   11.2220 N   0  0  0  0  0  0  0  0  0  0  0  0
   13.4651    1.3275   10.1303 C   0  0  1  0  0  0  0  0  0  0  0  0
   12.9400    0.0948   10.5131 O   0  0  0  0  0  0  0  0  0  0  0  0
   12.3768    2.4520   10.0988 C   0  0  2  0  0  0  0  0  0  0  0  0
   11.3550    2.1143    9.1848 O   0  0  0  0  0  0  0  0  0  0  0  0
   13.0031    3.8195    9.6893 C   0  0  2  0  0  0  0  0  0  0  0  0
   14.0482    4.1319   10.6150 O   0  0  0  0  0  0  0  0  0  0  0  0
   11.9513    4.9766    9.6874 C   0  0  0  0  0  0  0  0  0  0  0  0
   11.7459    5.5173   10.9861 N   0  0  0  0  0  0  0  0  0  0  0  0
   19.1637    4.8966    7.5797 C   0  0  2  0  0  0  0  0  0  0  0  0
   19.9823    5.9438    6.9560 N   0  0  0  0  0  0  0  0  0  0  0  0
   17.8126    4.6740    6.7095 C   0  0  0  0  0  0  0  0  0  0  0  0
   16.9272    3.5541    7.3945 C   0  0  2  0  0  0  0  0  0  0  0  0
   15.6745    3.3367    6.6496 N   0  0  0  0  0  0  0  0  0  0  0  0
   16.5955    3.9799    8.8646 C   0  0  2  0  0  0  0  0  0  0  0  0
   17.9069    4.2192    9.6836 C   0  0  2  0  0  0  0  0  0  0  0  0
   17.4935    4.6199   11.0132 O   0  0  0  0  0  0  0  0  0  0  0  0
   18.7649    5.3315    8.9994 C   0  0  1  0  0  0  0  0  0  0  0  0
   19.9255    5.5119    9.7383 O   0  0  0  0  0  0  0  0  0  0  0  0
   16.8476    5.7705   11.3216 C   0  0  1  0  0  0  0  0  0  0  0  0
   15.6219    5.9851   10.3958 C   0  0  2  0  0  0  0  0  0  0  0  0
   15.9529    6.5851    9.1771 O   0  0  0  0  0  0  0  0  0  0  0  0
   14.7158    6.7338   11.3557 C   0  0  1  0  0  0  0  0  0  0  0  0
   14.9318    6.1130   12.7430 C   0  0  2  0  0  0  0  0  0  0  0  0
   16.3305    5.8353   12.6781 O   0  0  0  0  0  0  0  0  0  0  0  0
   14.0946    4.8232   13.0433 C   0  0  0  0  0  0  0  0  0  0  0  0
   14.7259    4.1462   14.1624 O   0  0  0  0  0  0  0  0  0  0  0  0
   14.1223    9.1282   11.5466 C   0  0  2  0  0  0  0  0  0  0  0  0
   15.1154    8.1649   11.3232 O   0  0  0  0  0  0  0  0  0  0  0  0
   13.2299    9.3512   10.2490 C   0  0  1  0  0  0  0  0  0  0  0  0
   15.7454   12.5993   13.6840 N   0  0  0  0  0  0  0  0  0  0  0  0
   12.1402   10.4902   10.6127 C   0  0  1  0  0  0  0  0  0  0  0  0
   11.3291   10.0050   11.7976 O   0  0  0  0  0  0  0  0  0  0  0  0
   12.8936   11.8781   10.9766 C   0  0  2  0  0  0  0  0  0  0  0  0
   13.6528   12.3253    9.8278 O   0  0  0  0  0  0  0  0  0  0  0  0
   13.8255   11.6005   12.2860 C   0  0  1  0  0  0  0  0  0  0  0  0
   14.7732   10.4698   11.9940 O   0  0  0  0  0  0  0  0  0  0  0  0
   14.6311   12.8730   12.7255 C   0  0  0  0  0  0  0  0  0  0  0  0
   14.1003    9.7191    9.0838 N   0  0  0  0  0  0  0  0  0  0  0  0
  1  2  1  6  0  0  0
  1  3  1  0  0  0  0
  1 10  1  0  0  0  0
  3  4  1  6  0  0  0
  3  5  1  0  0  0  0
  5  6  1  1  0  0  0
  5  7  1  0  0  0  0
  7  8  1  6  0  0  0
  7  9  1  0  0  0  0
  9 10  1  0  0  0  0
  9 11  1  1  0  0  0
 11 12  1  0  0  0  0
 13 14  1  6  0  0  0
 13 15  1  0  0  0  0
 13 21  1  0  0  0  0
 16 15  1  0  0  0  0
 16 17  1  6  0  0  0
 18  2  1  1  0  0  0
 18 16  1  0  0  0  0
 19 18  1  0  0  0  0
 19 20  1  1  0  0  0
 21 19  1  0  0  0  0
 21 22  1  1  0  0  0
 23 20  1  6  0  0  0
 23 24  1  0  0  0  0
 23 28  1  0  0  0  0
 24 25  1  6  0  0  0
 24 26  1  0  0  0  0
 26 27  1  0  0  0  0
 26 32  1  1  0  0  0
 27 28  1  0  0  0  0
 27 29  1  6  0  0  0
 29 30  1  0  0  0  0
 31 32  1  6  0  0  0
 31 40  1  0  0  0  0
 33 31  1  0  0  0  0
 33 42  1  6  0  0  0
 35 33  1  0  0  0  0
 35 36  1  1  0  0  0
 37 35  1  0  0  0  0
 37 38  1  6  0  0  0
 37 39  1  0  0  0  0
 39 40  1  0  0  0  0
 39 41  1  6  0  0  0
 41 34  1  0  0  0  0
M  END
>  <CHROM.1>
-172.33751448,82.78984405,-168.75789597,-66.23573852,49.72802352,148.97682493
161.60923426,-78.20224302,-165.28636266,15.01711966,6.04012743,10.45341353
1.37187164,-0.41305586,-2.98296990

>  <Name>
2et4_lig

>  <RI>
0

>  <Rbt.Current_Directory>
/home/itssahil/PROJECTS/Mol_Feturizer/New_Systems/rnas/2et4

>  <Rbt.Executable>
rbdock ($Id: //depot/dev/client3/rdock/2013.1/src/exe/rbdock.cxx#4 $)

>  <Rbt.Library>
libRbt.so (2013.1, Build901 2013/11/27)

>  <Rbt.Parameter_File>
/export/apps/rDock/src/rDock_2013.1_src/data/scripts/dock_solv.prm

>  <Rbt.Receptor>
prm/blind_docking_40.prm

>  <SCORE>
33.8474

>  <SCORE.INTER>
11.6295

>  <SCORE.INTER.CONST>
1

>  <SCORE.INTER.POLAR>
-1.72223

>  <SCORE.INTER.ROT>
9

>  <SCORE.INTER.SOLV>
38.2704

>  <SCORE.INTER.VDW>
-8.86303

>  <SCORE.INTER.norm>
0.276893

>  <SCORE.INTRA>
4.4551

>  <SCORE.INTRA.DIHEDRAL>
-11.1378

>  <SCORE.INTRA.DIHEDRAL.0>
21.6909

>  <SCORE.INTRA.POLAR>
0

>  <SCORE.INTRA.POLAR.0>
0

>  <SCORE.INTRA.REPUL>
0

>  <SCORE.INTRA.REPUL.0>
0

>  <SCORE.INTRA.SOLV>
2.45657

>  <SCORE.INTRA.SOLV.lig_0>
-116.606

>  <SCORE.INTRA.VDW>
8.79571

>  <SCORE.INTRA.VDW.0>
-6.01229

>  <SCORE.INTRA.norm>
0.106074

>  <SCORE.RESTR>
17.7627

>  <SCORE.RESTR.CAVITY>
17.7627

>  <SCORE.RESTR.norm>
0.422923

>  <SCORE.SYSTEM>
0

>  <SCORE.SYSTEM.CONST>
0

>  <SCORE.SYSTEM.DIHEDRAL>
0

>  <SCORE.SYSTEM.SOLV>
0

>  <SCORE.SYSTEM.norm>
0

>  <SCORE.heavy>
42

>  <SCORE.norm>
0.80589

>  <RMSD>
7.549

$$$$
2et4_lig
 OpenBabel11021811423D
libRbt.so/2013.1/901 2013/11/27
 42 45  0  0  0  0  0  0  0  0999 V2000
   14.7833    2.9547   10.3796 C   0  0  2  0  0  0  0  0  0  0  0  0
   14.6672    4.1220    9.5634 O   0  0  0  0  0  0  0  0  0  0  0  0
   13.3934    2.2687   10.3964 C   0  0  2  0  0  0  0  0  0  0  0  0
   12.9496    1.9484    9.0636 N   0  0  0  0  0  0  0  0  0  0  0  0
   12.3726    3.1948   11.1187 C   0  0  1  0  0  0  0  0  0  0  0  0
   11.1280    2.5688   11.1466 O   0  0  0  0  0  0  0  0  0  0  0  0
   12.9171    3.4970   12.5547 C   0  0  2  0  0  0  0  0  0  0  0  0
   12.0226    4.3430   13.2459 O   0  0  0  0  0  0  0  0  0  0  0  0
   14.3188    4.1754   12.4856 C   0  0  2  0  0  0  0  0  0  0  0  0
   15.2026    3.3119   11.7646 O   0  0  0  0  0  0  0  0  0  0  0  0
   14.9130    4.4548   13.9049 C   0  0  0  0  0  0  0  0  0  0  0  0
   16.1893    5.0774   13.8393 N   0  0  0  0  0  0  0  0  0  0  0  0
   18.7070    4.7452    8.1681 C   0  0  2  0  0  0  0  0  0  0  0  0
   19.8776    5.4011    7.5723 N   0  0  0  0  0  0  0  0  0  0  0  0
   17.5198    4.6492    7.0664 C   0  0  0  0  0  0  0  0  0  0  0  0
   16.2553    3.9543    7.7186 C   0  0  2  0  0  0  0  0  0  0  0  0
   15.1407    3.8691    6.7583 N   0  0  0  0  0  0  0  0  0  0  0  0
   15.8027    4.7716    8.9755 C   0  0  2  0  0  0  0  0  0  0  0  0
   16.9658    4.8808   10.0161 C   0  0  2  0  0  0  0  0  0  0  0  0
   16.4536    5.6611   11.1242 O   0  0  0  0  0  0  0  0  0  0  0  0
   18.2022    5.5751    9.3598 C   0  0  1  0  0  0  0  0  0  0  0  0
   19.2205    5.6454   10.2999 O   0  0  0  0  0  0  0  0  0  0  0  0
   15.6976    6.7802   11.0138 C   0  0  1  0  0  0  0  0  0  0  0  0
   14.1946    6.4583   11.2210 C   0  0  2  0  0  0  0  0  0  0  0  0
   13.5642    6.0075   10.0572 O   0  0  0  0  0  0  0  0  0  0  0  0
   13.7433    7.7712   11.8338 C   0  0  1  0  0  0  0  0  0  0  0  0
   14.8849    8.2514   12.7410 C   0  0  2  0  0  0  0  0  0  0  0  0
   16.0107    7.8254   11.9736 O   0  0  0  0  0  0  0  0  0  0  0  0
   14.9005    7.6444   14.1853 C   0  0  0  0  0  0  0  0  0  0  0  0
   13.5796    7.8441   14.7549 O   0  0  0  0  0  0  0  0  0  0  0  0
   12.6018    9.7810   10.9511 C   0  0  2  0  0  0  0  0  0  0  0  0
   13.4879    8.7204   10.7190 O   0  0  0  0  0  0  0  0  0  0  0  0
   12.9225   11.0205   10.0074 C   0  0  1  0  0  0  0  0  0  0  0  0
   11.8470   10.4386   15.2666 N   0  0  0  0  0  0  0  0  0  0  0  0
   11.8606   12.1840   10.3750 C   0  0  1  0  0  0  0  0  0  0  0  0
   10.4650   11.6346   10.1558 O   0  0  0  0  0  0  0  0  0  0  0  0
   12.0512   12.6370   11.9193 C   0  0  2  0  0  0  0  0  0  0  0  0
   13.3866   13.1661   12.1007 O   0  0  0  0  0  0  0  0  0  0  0  0
   11.7514   11.3334   12.8524 C   0  0  1  0  0  0  0  0  0  0  0  0
   12.6636   10.2085   12.4470 O   0  0  0  0  0  0  0  0  0  0  0  0
   11.9281   11.6403   14.3807 C   0  0  0  0  0  0  0  0  0  0  0  0
   14.3496   11.4471   10.1867 N   0  0  0  0  0  0  0  0  0  0  0  0
  1  2  1  6  0  0  0
  1  3  1  0  0  0  0
  1 10  1  0  0  0  0
  3  4  1  6  0  0  0
  3  5  1  0  0  0  0
  5  6  1  1  0  0  0
  5  7  1  0  0  0  0
  7  8  1  6  0  0  0
  7  9  1  0  0  0  0
  9 10  1  0  0  0  0
  9 11  1  1  0  0  0
 11 12  1  0  0  0  0
 13 14  1  6  0  0  0
 13 15  1  0  0  0  0
 13 21  1  0  0  0  0
 16 15  1  0  0  0  0
 16 17  1  6  0  0  0
 18  2  1  1  0  0  0
 18 16  1  0  0  0  0
 19 18  1  0  0  0  0
 19 20  1  1  0  0  0
 21 19  1  0  0  0  0
 21 22  1  1  0  0  0
 23 20  1  1  0  0  0
 23 24  1  0  0  0  0
 23 28  1  0  0  0  0
 24 25  1  6  0  0  0
 24 26  1  0  0  0  0
 26 27  1  0  0  0  0
 26 32  1  6  0  0  0
 27 28  1  0  0  0  0
 27 29  1  1  0  0  0
 29 30  1  0  0  0  0
 31 32  1  1  0  0  0
 31 40  1  0  0  0  0
 33 31  1  0  0  0  0
 33 42  1  1  0  0  0
 35 33  1  0  0  0  0
 35 36  1  1  0  0  0
 37 35  1  0  0  0  0
 37 38  1  6  0  0  0
 37 39  1  0  0  0  0
 39 40  1  0  0  0  0
 39 41  1  1  0  0  0
 41 34  1  0  0  0  0
M  END
>  <CHROM.1>
-159.95387292,-179.81248351,78.06316492,-42.54767066,99.47934046,155.82867823
-51.96599881,153.67105880,-172.12295022,14.38463833,6.77301373,11.11578862
1.00554601,-0.70785870,3.10670896

>  <Name>
2et4_lig

>  <RI>
0

>  <Rbt.Current_Directory>
/home/itssahil/PROJECTS/Mol_Feturizer/New_Systems/rnas/2et4

>  <Rbt.Executable>
rbdock ($Id: //depot/dev/client3/rdock/2013.1/src/exe/rbdock.cxx#4 $)

>  <Rbt.Library>
libRbt.so (2013.1, Build901 2013/11/27)

>  <Rbt.Parameter_File>
/export/apps/rDock/src/rDock_2013.1_src/data/scripts/dock_solv.prm

>  <Rbt.Receptor>
prm/blind_docking_40.prm

>  <SCORE>
40.2531

>  <SCORE.INTER>
13.7828

>  <SCORE.INTER.CONST>
1

>  <SCORE.INTER.POLAR>
-0.364778

>  <SCORE.INTER.ROT>
9

>  <SCORE.INTER.SOLV>
27.5005

>  <SCORE.INTER.VDW>
-8.36238

>  <SCORE.INTER.norm>
0.328162

>  <SCORE.INTRA>
6.99317

>  <SCORE.INTRA.DIHEDRAL>
-5.69203

>  <SCORE.INTRA.DIHEDRAL.0>
21.6909

>  <SCORE.INTRA.POLAR>
0

>  <SCORE.INTRA.POLAR.0>
0

>  <SCORE.INTRA.REPUL>
0.0314471

>  <SCORE.INTRA.REPUL.0>
0

>  <SCORE.INTRA.SOLV>
6.18128

>  <SCORE.INTRA.SOLV.lig_0>
-116.606

>  <SCORE.INTRA.VDW>
6.59131

>  <SCORE.INTRA.VDW.0>
-6.01229

>  <SCORE.INTRA.norm>
0.166504

>  <SCORE.RESTR>
19.4771

>  <SCORE.RESTR.CAVITY>
19.4771

>  <SCORE.RESTR.norm>
0.463741

>  <SCORE.SYSTEM>
0

>  <SCORE.SYSTEM.CONST>
0

>  <SCORE.SYSTEM.DIHEDRAL>
0

>  <SCORE.SYSTEM.SOLV>
0

>  <SCORE.SYSTEM.norm>
0

>  <SCORE.heavy>
42

>  <SCORE.norm>
0.958407

>  <RMSD>
7.565

$$$$
2et4_lig
 OpenBabel11021811423D
libRbt.so/2013.1/901 2013/11/27
 42 45  0  0  0  0  0  0  0  0999 V2000
   14.7282    2.4472   10.3525 C   0  0  2  0  0  0  0  0  0  0  0  0
   14.7643    3.4810    9.3665 O   0  0  0  0  0  0  0  0  0  0  0  0
   13.3113    1.8205   10.3060 C   0  0  2  0  0  0  0  0  0  0  0  0
   13.0020    1.3180    8.9917 N   0  0  0  0  0  0  0  0  0  0  0  0
   12.2662    2.8801   10.7602 C   0  0  1  0  0  0  0  0  0  0  0  0
   10.9953    2.3093   10.7330 O   0  0  0  0  0  0  0  0  0  0  0  0
   12.6630    3.3768   12.1905 C   0  0  2  0  0  0  0  0  0  0  0  0
   11.7425    4.3483   12.6407 O   0  0  0  0  0  0  0  0  0  0  0  0
   14.0971    3.9878   12.1881 C   0  0  2  0  0  0  0  0  0  0  0  0
   15.0093    2.9949   11.7099 O   0  0  0  0  0  0  0  0  0  0  0  0
   14.5438    4.4577   13.6111 C   0  0  0  0  0  0  0  0  0  0  0  0
   15.8844    4.9307   13.6238 N   0  0  0  0  0  0  0  0  0  0  0  0
   18.9437    4.5585    9.2064 C   0  0  2  0  0  0  0  0  0  0  0  0
   20.1636    5.3247    8.9224 N   0  0  0  0  0  0  0  0  0  0  0  0
   18.1867    4.2085    7.8148 C   0  0  0  0  0  0  0  0  0  0  0  0
   16.8648    3.3950    8.1281 C   0  0  2  0  0  0  0  0  0  0  0  0
   16.1300    3.0770    6.8910 N   0  0  0  0  0  0  0  0  0  0  0  0
   15.9491    4.2365    9.0799 C   0  0  2  0  0  0  0  0  0  0  0  0
   16.7015    4.5914   10.4049 C   0  0  2  0  0  0  0  0  0  0  0  0
   15.7810    5.3763   11.2023 O   0  0  0  0  0  0  0  0  0  0  0  0
   17.9982    5.4000   10.0792 C   0  0  1  0  0  0  0  0  0  0  0  0
   18.6505    5.6879   11.2697 O   0  0  0  0  0  0  0  0  0  0  0  0
   15.5763    6.7102   11.0803 C   0  0  1  0  0  0  0  0  0  0  0  0
   14.0620    7.0349   10.9973 C   0  0  2  0  0  0  0  0  0  0  0  0
   13.5445    6.9126    9.7041 O   0  0  0  0  0  0  0  0  0  0  0  0
   14.0663    8.4022   11.6555 C   0  0  1  0  0  0  0  0  0  0  0  0
   15.1030    8.3454   12.7862 C   0  0  2  0  0  0  0  0  0  0  0  0
   16.0889    7.5095   12.1805 O   0  0  0  0  0  0  0  0  0  0  0  0
   14.5905    7.7532   14.1432 C   0  0  0  0  0  0  0  0  0  0  0  0
   13.5729    8.6546   14.6540 O   0  0  0  0  0  0  0  0  0  0  0  0
   13.8383   10.6629   10.6764 C   0  0  2  0  0  0  0  0  0  0  0  0
   14.4374    9.3975   10.6160 O   0  0  0  0  0  0  0  0  0  0  0  0
   14.2765   11.4490   11.9878 C   0  0  1  0  0  0  0  0  0  0  0  0
    9.0871   12.6798   10.8243 N   0  0  0  0  0  0  0  0  0  0  0  0
   13.5135   12.8752   11.9634 C   0  0  1  0  0  0  0  0  0  0  0  0
   13.9109   13.6003   10.6931 O   0  0  0  0  0  0  0  0  0  0  0  0
   11.9100   12.6436   12.0013 C   0  0  2  0  0  0  0  0  0  0  0  0
   11.5549   11.9588   13.2265 O   0  0  0  0  0  0  0  0  0  0  0  0
   11.5048   11.8041   10.6631 C   0  0  1  0  0  0  0  0  0  0  0  0
   12.2888   10.5213   10.6217 O   0  0  0  0  0  0  0  0  0  0  0  0
    9.9684   11.4938   10.5959 C   0  0  0  0  0  0  0  0  0  0  0  0
   13.9604   10.6324   13.2061 N   0  0  0  0  0  0  0  0  0  0  0  0
  1  2  1  6  0  0  0
  1  3  1  0  0  0  0
  1 10  1  0  0  0  0
  3  4  1  6  0  0  0
  3  5  1  0  0  0  0
  5  6  1  1  0  0  0
  5  7  1  0  0  0  0
  7  8  1  6  0  0  0
  7  9  1  0  0  0  0
  9 10  1  0  0  0  0
  9 11  1  1  0  0  0
 11 12  1  0  0  0  0
 13 14  1  6  0  0  0
 13 15  1  0  0  0  0
 13 21  1  0  0  0  0
 16 15  1  0  0  0  0
 16 17  1  6  0  0  0
 18  2  1  1  0  0  0
 18 16  1  0  0  0  0
 19 18  1  0  0  0  0
 19 20  1  1  0  0  0
 21 19  1  0  0  0  0
 21 22  1  1  0  0  0
 23 20  1  1  0  0  0
 23 24  1  0  0  0  0
 23 28  1  0  0  0  0
 24 25  1  6  0  0  0
 24 26  1  0  0  0  0
 26 27  1  0  0  0  0
 26 32  1  6  0  0  0
 27 28  1  0  0  0  0
 27 29  1  1  0  0  0
 29 30  1  0  0  0  0
 31 32  1  1  0  0  0
 31 40  1  0  0  0  0
 33 31  1  0  0  0  0
 33 42  1  1  0  0  0
 35 33  1  0  0  0  0
 35 36  1  6  0  0  0
 37 35  1  0  0  0  0
 37 38  1  1  0  0  0
 37 39  1  0  0  0  0
 39 40  1  0  0  0  0
 39 41  1  1  0  0  0
 41 34  1  0  0  0  0
M  END
>  <CHROM.1>
-176.73406081,176.01374462,80.74592921,-83.39122167,130.74291147,144.99328626
-64.84242678,65.05278142,49.70177376,14.38763566,6.81062100,11.06415619,1.18552944
-0.26998110,-3.03267393

>  <Name>
2et4_lig

>  <RI>
0

>  <Rbt.Current_Directory>
/home/itssahil/PROJECTS/Mol_Feturizer/New_Systems/rnas/2et4

>  <Rbt.Executable>
rbdock ($Id: //depot/dev/client3/rdock/2013.1/src/exe/rbdock.cxx#4 $)

>  <Rbt.Library>
libRbt.so (2013.1, Build901 2013/11/27)

>  <Rbt.Parameter_File>
/export/apps/rDock/src/rDock_2013.1_src/data/scripts/dock_solv.prm

>  <Rbt.Receptor>
prm/blind_docking_40.prm

>  <SCORE>
36.1241

>  <SCORE.INTER>
9.86227

>  <SCORE.INTER.CONST>
1

>  <SCORE.INTER.POLAR>
-1.0596

>  <SCORE.INTER.ROT>
9

>  <SCORE.INTER.SOLV>
30.9627

>  <SCORE.INTER.VDW>
-9.81406

>  <SCORE.INTER.norm>
0.234816

>  <SCORE.INTRA>
9.41916

>  <SCORE.INTRA.DIHEDRAL>
-5.37555

>  <SCORE.INTRA.DIHEDRAL.0>
21.6909

>  <SCORE.INTRA.POLAR>
0

>  <SCORE.INTRA.POLAR.0>
0

>  <SCORE.INTRA.REPUL>
0.0197402

>  <SCORE.INTRA.REPUL.0>
0

>  <SCORE.INTRA.SOLV>
7.41007

>  <SCORE.INTRA.SOLV.lig_0>
-116.606

>  <SCORE.INTRA.VDW>
8.30321

>  <SCORE.INTRA.VDW.0>
-6.01229

>  <SCORE.INTRA.norm>
0.224266

>  <SCORE.RESTR>
16.8426

>  <SCORE.RESTR.CAVITY>
16.8426

>  <SCORE.RESTR.norm>
0.401015

>  <SCORE.SYSTEM>
0

>  <SCORE.SYSTEM.CONST>
0

>  <SCORE.SYSTEM.DIHEDRAL>
0

>  <SCORE.SYSTEM.SOLV>
0

>  <SCORE.SYSTEM.norm>
0

>  <SCORE.heavy>
42

>  <SCORE.norm>
0.860097

>  <RMSD>
7.566

$$$$
2et4_lig
 OpenBabel11021811423D
libRbt.so/2013.1/901 2013/11/27
 42 45  0  0  0  0  0  0  0  0999 V2000
   13.8115    7.9966    9.0063 C   0  0  2  0  0  0  0  0  0  0  0  0
   14.8253    7.5051    9.8853 O   0  0  0  0  0  0  0  0  0  0  0  0
   13.0658    9.1294    9.7568 C   0  0  2  0  0  0  0  0  0  0  0  0
   13.9710   10.1726   10.1665 N   0  0  0  0  0  0  0  0  0  0  0  0
   12.3152    8.5275   10.9797 C   0  0  1  0  0  0  0  0  0  0  0  0
   11.6326    9.5452   11.6431 O   0  0  0  0  0  0  0  0  0  0  0  0
   11.3524    7.4080   10.4603 C   0  0  2  0  0  0  0  0  0  0  0  0
   10.6538    6.8274   11.5412 O   0  0  0  0  0  0  0  0  0  0  0  0
   12.1463    6.2994    9.7049 C   0  0  2  0  0  0  0  0  0  0  0  0
   12.8619    6.9118    8.6280 O   0  0  0  0  0  0  0  0  0  0  0  0
   11.2104    5.1837    9.1351 C   0  0  0  0  0  0  0  0  0  0  0  0
   10.2675    5.6980    8.2037 N   0  0  0  0  0  0  0  0  0  0  0  0
   18.4304    5.1933    9.3255 C   0  0  2  0  0  0  0  0  0  0  0  0
   19.3144    4.0742    8.9761 N   0  0  0  0  0  0  0  0  0  0  0  0
   17.3854    4.7211   10.4731 C   0  0  0  0  0  0  0  0  0  0  0  0
   16.4256    5.9272   10.8355 C   0  0  2  0  0  0  0  0  0  0  0  0
   15.4404    5.5343   11.8587 N   0  0  0  0  0  0  0  0  0  0  0  0
   15.6783    6.4037    9.5443 C   0  0  2  0  0  0  0  0  0  0  0  0
   16.6981    6.8283    8.4364 C   0  0  2  0  0  0  0  0  0  0  0  0
   15.9124    7.2344    7.2889 O   0  0  0  0  0  0  0  0  0  0  0  0
   17.6318    5.6258    8.0850 C   0  0  1  0  0  0  0  0  0  0  0  0
   18.5327    6.0352    7.1121 O   0  0  0  0  0  0  0  0  0  0  0  0
   15.2918    6.3950    6.4249 C   0  0  1  0  0  0  0  0  0  0  0  0
   14.4913    7.1871    5.3584 C   0  0  2  0  0  0  0  0  0  0  0  0
   13.2165    7.5608    5.7945 O   0  0  0  0  0  0  0  0  0  0  0  0
   14.6103    6.2220    4.1934 C   0  0  1  0  0  0  0  0  0  0  0  0
   16.0191    5.6159    4.2634 C   0  0  2  0  0  0  0  0  0  0  0  0
   16.1808    5.5208    5.6785 O   0  0  0  0  0  0  0  0  0  0  0  0
   17.1549    6.4693    3.6029 C   0  0  0  0  0  0  0  0  0  0  0  0
   17.2018    7.7432    4.2987 O   0  0  0  0  0  0  0  0  0  0  0  0
   13.1372    4.4890    3.2198 C   0  0  2  0  0  0  0  0  0  0  0  0
   13.5559    5.1880    4.3600 O   0  0  0  0  0  0  0  0  0  0  0  0
   12.1512    5.3666    2.3323 C   0  0  1  0  0  0  0  0  0  0  0  0
   10.0958    1.2294    3.9450 N   0  0  0  0  0  0  0  0  0  0  0  0
   11.7181    4.4587    1.0654 C   0  0  1  0  0  0  0  0  0  0  0  0
   12.9756    4.0641    0.3168 O   0  0  0  0  0  0  0  0  0  0  0  0
   10.9296    3.1384    1.5768 C   0  0  2  0  0  0  0  0  0  0  0  0
    9.7294    3.5408    2.2794 O   0  0  0  0  0  0  0  0  0  0  0  0
   11.9582    2.2853    2.5117 C   0  0  1  0  0  0  0  0  0  0  0  0
   12.4501    3.1553    3.6356 O   0  0  0  0  0  0  0  0  0  0  0  0
   11.2988    0.9852    3.0915 C   0  0  0  0  0  0  0  0  0  0  0  0
   10.9839    5.8213    3.1579 N   0  0  0  0  0  0  0  0  0  0  0  0
  1  2  1  1  0  0  0
  1  3  1  0  0  0  0
  1 10  1  0  0  0  0
  3  4  1  1  0  0  0
  3  5  1  0  0  0  0
  5  6  1  6  0  0  0
  5  7  1  0  0  0  0
  7  8  1  1  0  0  0
  7  9  1  0  0  0  0
  9 10  1  0  0  0  0
  9 11  1  6  0  0  0
 11 12  1  0  0  0  0
 13 14  1  6  0  0  0
 13 15  1  0  0  0  0
 13 21  1  0  0  0  0
 16 15  1  0  0  0  0
 16 17  1  1  0  0  0
 18  2  1  1  0  0  0
 18 16  1  0  0  0  0
 19 18  1  0  0  0  0
 19 20  1  6  0  0  0
 21 19  1  0  0  0  0
 21 22  1  6  0  0  0
 23 20  1  1  0  0  0
 23 24  1  0  0  0  0
 23 28  1  0  0  0  0
 24 25  1  1  0  0  0
 24 26  1  0  0  0  0
 26 27  1  0  0  0  0
 26 32  1  1  0  0  0
 27 28  1  0  0  0  0
 27 29  1  1  0  0  0
 29 30  1  0  0  0  0
 31 32  1  1  0  0  0
 31 40  1  0  0  0  0
 33 31  1  0  0  0  0
 33 42  1  1  0  0  0
 35 33  1  0  0  0  0
 35 36  1  1  0  0  0
 37 35  1  0  0  0  0
 37 38  1  1  0  0  0
 37 39  1  0  0  0  0
 39 40  1  0  0  0  0
 39 41  1  1  0  0  0
 41 34  1  0  0  0  0
M  END
>  <CHROM.1>
177.09391956,60.59261708,-167.03946995,-76.72059572,177.37348392,157.31177616
60.51501293,-77.59409762,-59.84316666,13.91204552,5.84892648,6.70254355,1.25706949
0.03183800,1.16164035

>  <Name>
2et4_lig

>  <RI>
0

>  <Rbt.Current_Directory>
/home/itssahil/PROJECTS/Mol_Feturizer/New_Systems/rnas/2et4

>  <Rbt.Executable>
rbdock ($Id: //depot/dev/client3/rdock/2013.1/src/exe/rbdock.cxx#4 $)

>  <Rbt.Library>
libRbt.so (2013.1, Build901 2013/11/27)

>  <Rbt.Parameter_File>
/export/apps/rDock/src/rDock_2013.1_src/data/scripts/dock_solv.prm

>  <Rbt.Receptor>
prm/pocket_docking_8.prm

>  <SCORE>
-13.0909

>  <SCORE.INTER>
-6.11831

>  <SCORE.INTER.CONST>
1

>  <SCORE.INTER.POLAR>
-1.73253

>  <SCORE.INTER.ROT>
9

>  <SCORE.INTER.SOLV>
15.0375

>  <SCORE.INTER.VDW>
-12.9163

>  <SCORE.INTER.norm>
-0.145674

>  <SCORE.INTRA>
-6.97254

>  <SCORE.INTRA.DIHEDRAL>
-15.6996

>  <SCORE.INTRA.DIHEDRAL.0>
21.6909

>  <SCORE.INTRA.POLAR>
0

>  <SCORE.INTRA.POLAR.0>
0

>  <SCORE.INTRA.REPUL>
0

>  <SCORE.INTRA.REPUL.0>
0

>  <SCORE.INTRA.SOLV>
0.0919904

>  <SCORE.INTRA.SOLV.lig_0>
-116.606

>  <SCORE.INTRA.VDW>
0.831279

>  <SCORE.INTRA.VDW.0>
-6.01229

>  <SCORE.INTRA.norm>
-0.166013

>  <SCORE.RESTR>
0

>  <SCORE.RESTR.CAVITY>
0

>  <SCORE.RESTR.norm>
0

>  <SCORE.SYSTEM>
0

>  <SCORE.SYSTEM.CONST>
0

>  <SCORE.SYSTEM.DIHEDRAL>
0

>  <SCORE.SYSTEM.SOLV>
0

>  <SCORE.SYSTEM.norm>
0

>  <SCORE.heavy>
42

>  <SCORE.norm>
-0.311687

>  <RMSD>
7.571

$$$$
2et4_lig
 OpenBabel11021811423D
libRbt.so/2013.1/901 2013/11/27
 42 45  0  0  0  0  0  0  0  0999 V2000
   17.3219    4.6790    9.7319 C   0  0  2  0  0  0  0  0  0  0  0  0
   16.3457    3.9336    9.0014 O   0  0  0  0  0  0  0  0  0  0  0  0
   17.4685    6.0524    9.0284 C   0  0  2  0  0  0  0  0  0  0  0  0
   16.2070    6.7449    8.9599 N   0  0  0  0  0  0  0  0  0  0  0  0
   18.0683    5.8404    7.6083 C   0  0  1  0  0  0  0  0  0  0  0  0
   18.2142    7.0778    6.9844 O   0  0  0  0  0  0  0  0  0  0  0  0
   19.4326    5.0883    7.7608 C   0  0  2  0  0  0  0  0  0  0  0  0
   20.0107    4.8677    6.4917 O   0  0  0  0  0  0  0  0  0  0  0  0
   19.2350    3.7206    8.4819 C   0  0  2  0  0  0  0  0  0  0  0  0
   18.6302    3.9654    9.7551 O   0  0  0  0  0  0  0  0  0  0  0  0
   20.5850    2.9590    8.6889 C   0  0  0  0  0  0  0  0  0  0  0  0
   21.2644    2.7277    7.4616 N   0  0  0  0  0  0  0  0  0  0  0  0
   12.5449    2.2408   10.1603 C   0  0  2  0  0  0  0  0  0  0  0  0
   11.5632    1.3637   10.8104 N   0  0  0  0  0  0  0  0  0  0  0  0
   13.5267    1.3538    9.2214 C   0  0  0  0  0  0  0  0  0  0  0  0
   14.5920    2.3027    8.5343 C   0  0  2  0  0  0  0  0  0  0  0  0
   15.5232    1.5336    7.6899 N   0  0  0  0  0  0  0  0  0  0  0  0
   15.3964    3.0678    9.6389 C   0  0  2  0  0  0  0  0  0  0  0  0
   14.4348    3.8955   10.5543 C   0  0  2  0  0  0  0  0  0  0  0  0
   15.2691    4.5476   11.5431 O   0  0  0  0  0  0  0  0  0  0  0  0
   13.3956    2.9444   11.2303 C   0  0  1  0  0  0  0  0  0  0  0  0
   12.5493    3.7063   12.0232 O   0  0  0  0  0  0  0  0  0  0  0  0
   14.9415    5.6678   12.2317 C   0  0  1  0  0  0  0  0  0  0  0  0
   15.1091    6.9319   11.3488 C   0  0  2  0  0  0  0  0  0  0  0  0
   16.4201    7.4175   11.3285 O   0  0  0  0  0  0  0  0  0  0  0  0
   14.0187    7.7992   11.9502 C   0  0  1  0  0  0  0  0  0  0  0  0
   12.8508    6.8648   12.2962 C   0  0  2  0  0  0  0  0  0  0  0  0
   13.5724    5.7073   12.7172 O   0  0  0  0  0  0  0  0  0  0  0  0
   11.8706    6.5437   11.1169 C   0  0  0  0  0  0  0  0  0  0  0  0
   12.5972    5.7318   10.1567 O   0  0  0  0  0  0  0  0  0  0  0  0
   14.0481    9.6857   13.5507 C   0  0  2  0  0  0  0  0  0  0  0  0
   14.5824    8.4499   13.1616 O   0  0  0  0  0  0  0  0  0  0  0  0
   12.5952    9.9057   12.9421 C   0  0  1  0  0  0  0  0  0  0  0  0
   15.0401   14.5439   12.4476 N   0  0  0  0  0  0  0  0  0  0  0  0
   12.0899   11.3613   13.4346 C   0  0  1  0  0  0  0  0  0  0  0  0
   12.0911   11.3724   14.9503 O   0  0  0  0  0  0  0  0  0  0  0  0
   13.0784   12.5111   12.8624 C   0  0  2  0  0  0  0  0  0  0  0  0
   13.0527   12.4864   11.4151 O   0  0  0  0  0  0  0  0  0  0  0  0
   14.5628   12.2307   13.4770 C   0  0  1  0  0  0  0  0  0  0  0  0
   14.9992   10.8381   13.1134 O   0  0  0  0  0  0  0  0  0  0  0  0
   15.6232   13.2716   12.9736 C   0  0  0  0  0  0  0  0  0  0  0  0
   12.6379    9.7711   11.4485 N   0  0  0  0  0  0  0  0  0  0  0  0
  1  2  1  6  0  0  0
  1  3  1  0  0  0  0
  1 10  1  0  0  0  0
  3  4  1  6  0  0  0
  3  5  1  0  0  0  0
  5  6  1  1  0  0  0
  5  7  1  0  0  0  0
  7  8  1  6  0  0  0
  7  9  1  0  0  0  0
  9 10  1  0  0  0  0
  9 11  1  1  0  0  0
 11 12  1  0  0  0  0
 13 14  1  1  0  0  0
 13 15  1  0  0  0  0
 13 21  1  0  0  0  0
 16 15  1  0  0  0  0
 16 17  1  1  0  0  0
 18  2  1  6  0  0  0
 18 16  1  0  0  0  0
 19 18  1  0  0  0  0
 19 20  1  1  0  0  0
 21 19  1  0  0  0  0
 21 22  1  1  0  0  0
 23 20  1  6  0  0  0
 23 24  1  0  0  0  0
 23 28  1  0  0  0  0
 24 25  1  1  0  0  0
 24 26  1  0  0  0  0
 26 27  1  0  0  0  0
 26 32  1  1  0  0  0
 27 28  1  0  0  0  0
 27 29  1  6  0  0  0
 29 30  1  0  0  0  0
 31 32  1  6  0  0  0
 31 40  1  0  0  0  0
 33 31  1  0  0  0  0
 33 42  1  6  0  0  0
 35 33  1  0  0  0  0
 35 36  1  1  0  0  0
 37 35  1  0  0  0  0
 37 38  1  6  0  0  0
 37 39  1  0  0  0  0
 39 40  1  0  0  0  0
 39 41  1  6  0  0  0
 41 34  1  0  0  0  0
M  END
>  <CHROM.1>
-142.72250845,-57.50690410,-173.99590447,156.92048043,-77.30063111,152.44038971
68.30330824,21.08218229,19.99898610,15.18401860,6.53645109,10.72675811,-1.13374066
0.47648903,0.29074220

>  <Name>
2et4_lig

>  <RI>
0

>  <Rbt.Current_Directory>
/home/itssahil/PROJECTS/Mol_Feturizer/New_Systems/rnas/2et4

>  <Rbt.Executable>
rbdock ($Id: //depot/dev/client3/rdock/2013.1/src/exe/rbdock.cxx#4 $)

>  <Rbt.Library>
libRbt.so (2013.1, Build901 2013/11/27)

>  <Rbt.Parameter_File>
/export/apps/rDock/src/rDock_2013.1_src/data/scripts/dock_solv.prm

>  <Rbt.Receptor>
prm/blind_docking_40.prm

>  <SCORE>
47.2936

>  <SCORE.INTER>
10.6628

>  <SCORE.INTER.CONST>
1

>  <SCORE.INTER.POLAR>
-0.0500646

>  <SCORE.INTER.ROT>
9

>  <SCORE.INTER.SOLV>
21.5411

>  <SCORE.INTER.VDW>
-9.50496

>  <SCORE.INTER.norm>
0.253875

>  <SCORE.INTRA>
12.5104

>  <SCORE.INTRA.DIHEDRAL>
-0.200489

>  <SCORE.INTRA.DIHEDRAL.0>
21.6909

>  <SCORE.INTRA.POLAR>
0

>  <SCORE.INTRA.POLAR.0>
0

>  <SCORE.INTRA.REPUL>
0.00836694

>  <SCORE.INTRA.REPUL.0>
0

>  <SCORE.INTRA.SOLV>
7.03519

>  <SCORE.INTRA.SOLV.lig_0>
-116.606

>  <SCORE.INTRA.VDW>
9.05123

>  <SCORE.INTRA.VDW.0>
-6.01229

>  <SCORE.INTRA.norm>
0.297867

>  <SCORE.RESTR>
24.1204

>  <SCORE.RESTR.CAVITY>
24.1204

>  <SCORE.RESTR.norm>
0.574295

>  <SCORE.SYSTEM>
0

>  <SCORE.SYSTEM.CONST>
0

>  <SCORE.SYSTEM.DIHEDRAL>
0

>  <SCORE.SYSTEM.SOLV>
0

>  <SCORE.SYSTEM.norm>
0

>  <SCORE.heavy>
42

>  <SCORE.norm>
1.12604

>  <RMSD>
7.578

$$$$
2et4_lig
 OpenBabel11021811423D
libRbt.so/2013.1/901 2013/11/27
 42 45  0  0  0  0  0  0  0  0999 V2000
   14.7867    1.9868   10.0351 C   0  0  2  0  0  0  0  0  0  0  0  0
   14.8691    2.8732    8.9172 O   0  0  0  0  0  0  0  0  0  0  0  0
   13.2979    1.5845   10.1907 C   0  0  2  0  0  0  0  0  0  0  0  0
   12.7893    0.9773    8.9872 N   0  0  0  0  0  0  0  0  0  0  0  0
   12.4648    2.8400   10.5793 C   0  0  1  0  0  0  0  0  0  0  0  0
   11.1297    2.4724   10.7342 O   0  0  0  0  0  0  0  0  0  0  0  0
   13.0705    3.4423   11.8909 C   0  0  2  0  0  0  0  0  0  0  0  0
   12.3472    4.5917   12.2773 O   0  0  0  0  0  0  0  0  0  0  0  0
   14.5690    3.8205   11.6878 C   0  0  2  0  0  0  0  0  0  0  0  0
   15.2783    2.6478   11.2773 O   0  0  0  0  0  0  0  0  0  0  0  0
   15.2193    4.3879   12.9918 C   0  0  0  0  0  0  0  0  0  0  0  0
   14.8170    3.6674   14.1495 N   0  0  0  0  0  0  0  0  0  0  0  0
   18.8787    4.4403    9.2654 C   0  0  2  0  0  0  0  0  0  0  0  0
   20.0929    5.2095    8.9655 N   0  0  0  0  0  0  0  0  0  0  0  0
   18.5476    3.4452    8.0275 C   0  0  0  0  0  0  0  0  0  0  0  0
   17.2296    2.6290    8.3501 C   0  0  2  0  0  0  0  0  0  0  0  0
   16.8761    1.7284    7.2385 N   0  0  0  0  0  0  0  0  0  0  0  0
   16.0508    3.6262    8.6117 C   0  0  2  0  0  0  0  0  0  0  0  0
   16.3955    4.5982    9.7882 C   0  0  2  0  0  0  0  0  0  0  0  0
   15.2568    5.4815    9.9383 O   0  0  0  0  0  0  0  0  0  0  0  0
   17.6929    5.4011    9.4512 C   0  0  1  0  0  0  0  0  0  0  0  0
   17.9812    6.2427   10.5161 O   0  0  0  0  0  0  0  0  0  0  0  0
   15.3195    6.7956   10.2629 C   0  0  1  0  0  0  0  0  0  0  0  0
   13.9096    7.4416   10.2401 C   0  0  2  0  0  0  0  0  0  0  0  0
   13.5146    7.8524    8.9633 O   0  0  0  0  0  0  0  0  0  0  0  0
   14.1021    8.4924   11.3179 C   0  0  1  0  0  0  0  0  0  0  0  0
   14.9875    7.8587   12.4001 C   0  0  2  0  0  0  0  0  0  0  0  0
   15.8564    7.0729   11.5845 O   0  0  0  0  0  0  0  0  0  0  0  0
   14.2359    6.9850   13.4614 C   0  0  0  0  0  0  0  0  0  0  0  0
   15.1568    6.7462   14.5586 O   0  0  0  0  0  0  0  0  0  0  0  0
   14.3972   10.9423   11.1385 C   0  0  2  0  0  0  0  0  0  0  0  0
   14.7585    9.6663   10.6855 O   0  0  0  0  0  0  0  0  0  0  0  0
   14.3758   11.0079   12.7276 C   0  0  1  0  0  0  0  0  0  0  0  0
   10.0646   11.9010   10.5983 N   0  0  0  0  0  0  0  0  0  0  0  0
   13.9280   12.5081   13.1345 C   0  0  1  0  0  0  0  0  0  0  0  0
   14.9226   13.4776   12.5277 O   0  0  0  0  0  0  0  0  0  0  0  0
   12.4365   12.8090   12.5765 C   0  0  2  0  0  0  0  0  0  0  0  0
   11.5048   11.8776   13.1769 O   0  0  0  0  0  0  0  0  0  0  0  0
   12.4900   12.6958   10.9504 C   0  0  1  0  0  0  0  0  0  0  0  0
   13.0066   11.3381   10.5609 O   0  0  0  0  0  0  0  0  0  0  0  0
   11.0895   12.9447   10.2886 C   0  0  0  0  0  0  0  0  0  0  0  0
   13.4610    9.9515   13.2732 N   0  0  0  0  0  0  0  0  0  0  0  0
  1  2  1  6  0  0  0
  1  3  1  0  0  0  0
  1 10  1  0  0  0  0
  3  4  1  6  0  0  0
  3  5  1  0  0  0  0
  5  6  1  1  0  0  0
  5  7  1  0  0  0  0
  7  8  1  6  0  0  0
  7  9  1  0  0  0  0
  9 10  1  0  0  0  0
  9 11  1  1  0  0  0
 11 12  1  0  0  0  0
 13 14  1  6  0  0  0
 13 15  1  0  0  0  0
 13 21  1  0  0  0  0
 16 15  1  0  0  0  0
 16 17  1  6  0  0  0
 18  2  1  1  0  0  0
 18 16  1  0  0  0  0
 19 18  1  0  0  0  0
 19 20  1  6  0  0  0
 21 19  1  0  0  0  0
 21 22  1  1  0  0  0
 23 20  1  1  0  0  0
 23 24  1  0  0  0  0
 23 28  1  0  0  0  0
 24 25  1  6  0  0  0
 24 26  1  0  0  0  0
 26 27  1  0  0  0  0
 26 32  1  6  0  0  0
 27 28  1  0  0  0  0
 27 29  1  1  0  0  0
 29 30  1  0  0  0  0
 31 32  1  1  0  0  0
 31 40  1  0  0  0  0
 33 31  1  0  0  0  0
 33 42  1  6  0  0  0
 35 33  1  0  0  0  0
 35 36  1  6  0  0  0
 37 35  1  0  0  0  0
 37 38  1  1  0  0  0
 37 39  1  0  0  0  0
 39 40  1  0  0  0  0
 39 41  1  6  0  0  0
 41 34  1  0  0  0  0
M  END
>  <CHROM.1>
169.12344893,41.24841662,60.34079088,-143.54436851,176.18936688,144.55178056
-166.51741715,46.30113413,-66.33916966,14.57998774,6.65233208,10.92935893
1.26458980,-0.36773758,-3.00941360

>  <Name>
2et4_lig

>  <RI>
0

>  <Rbt.Current_Directory>
/home/itssahil/PROJECTS/Mol_Feturizer/New_Systems/rnas/2et4

>  <Rbt.Executable>
rbdock ($Id: //depot/dev/client3/rdock/2013.1/src/exe/rbdock.cxx#4 $)

>  <Rbt.Library>
libRbt.so (2013.1, Build901 2013/11/27)

>  <Rbt.Parameter_File>
/export/apps/rDock/src/rDock_2013.1_src/data/scripts/dock_solv.prm

>  <Rbt.Receptor>
prm/blind_docking_40.prm

>  <SCORE>
30.3206

>  <SCORE.INTER>
6.8012

>  <SCORE.INTER.CONST>
1

>  <SCORE.INTER.POLAR>
-0.305106

>  <SCORE.INTER.ROT>
9

>  <SCORE.INTER.SOLV>
31.1574

>  <SCORE.INTER.VDW>
-14.4346

>  <SCORE.INTER.norm>
0.161933

>  <SCORE.INTRA>
8.8122

>  <SCORE.INTRA.DIHEDRAL>
-8.72624

>  <SCORE.INTRA.DIHEDRAL.0>
21.6909

>  <SCORE.INTRA.POLAR>
0

>  <SCORE.INTRA.POLAR.0>
0

>  <SCORE.INTRA.REPUL>
0

>  <SCORE.INTRA.REPUL.0>
0

>  <SCORE.INTRA.SOLV>
4.97198

>  <SCORE.INTRA.SOLV.lig_0>
-116.606

>  <SCORE.INTRA.VDW>
10.6893

>  <SCORE.INTRA.VDW.0>
-6.01229

>  <SCORE.INTRA.norm>
0.209814

>  <SCORE.RESTR>
14.7072

>  <SCORE.RESTR.CAVITY>
14.7072

>  <SCORE.RESTR.norm>
0.350171

>  <SCORE.SYSTEM>
0

>  <SCORE.SYSTEM.CONST>
0

>  <SCORE.SYSTEM.DIHEDRAL>
0

>  <SCORE.SYSTEM.SOLV>
0

>  <SCORE.SYSTEM.norm>
0

>  <SCORE.heavy>
42

>  <SCORE.norm>
0.721919

>  <RMSD>
7.636

$$$$
2et4_lig
 OpenBabel11021811423D
libRbt.so/2013.1/901 2013/11/27
 42 45  0  0  0  0  0  0  0  0999 V2000
   10.4759    4.3088    9.0625 C   0  0  2  0  0  0  0  0  0  0  0  0
   11.5427    4.6218    8.1647 O   0  0  0  0  0  0  0  0  0  0  0  0
   10.9880    3.1940   10.0099 C   0  0  2  0  0  0  0  0  0  0  0  0
   12.1759    3.6068   10.7129 N   0  0  0  0  0  0  0  0  0  0  0  0
   11.2465    1.8993    9.1865 C   0  0  1  0  0  0  0  0  0  0  0  0
   11.6913    0.8942   10.0430 O   0  0  0  0  0  0  0  0  0  0  0  0
    9.9180    1.5110    8.4555 C   0  0  2  0  0  0  0  0  0  0  0  0
   10.1093    0.3415    7.6879 O   0  0  0  0  0  0  0  0  0  0  0  0
    9.4386    2.6657    7.5245 C   0  0  2  0  0  0  0  0  0  0  0  0
    9.2711    3.8444    8.3179 O   0  0  0  0  0  0  0  0  0  0  0  0
    8.0899    2.3288    6.8084 C   0  0  0  0  0  0  0  0  0  0  0  0
    7.6764    3.3654    5.9277 N   0  0  0  0  0  0  0  0  0  0  0  0
   12.5008    8.1643    5.8872 C   0  0  2  0  0  0  0  0  0  0  0  0
   12.4058    9.2257    4.8771 N   0  0  0  0  0  0  0  0  0  0  0  0
   12.6148    6.7232    5.1506 C   0  0  0  0  0  0  0  0  0  0  0  0
   12.7023    5.5817    6.2445 C   0  0  2  0  0  0  0  0  0  0  0  0
   12.7816    4.2500    5.6184 N   0  0  0  0  0  0  0  0  0  0  0  0
   11.4416    5.6509    7.1709 C   0  0  2  0  0  0  0  0  0  0  0  0
   11.3282    7.0550    7.8517 C   0  0  2  0  0  0  0  0  0  0  0  0
   10.1319    7.0202    8.6682 O   0  0  0  0  0  0  0  0  0  0  0  0
   11.2350    8.1687    6.7598 C   0  0  1  0  0  0  0  0  0  0  0  0
   11.1498    9.4013    7.3916 O   0  0  0  0  0  0  0  0  0  0  0  0
    9.7766    7.9561    9.5814 C   0  0  1  0  0  0  0  0  0  0  0  0
    8.2420    7.9591    9.8061 C   0  0  2  0  0  0  0  0  0  0  0  0
    7.5506    8.7250    8.8624 O   0  0  0  0  0  0  0  0  0  0  0  0
    8.2064    8.3877   11.2613 C   0  0  1  0  0  0  0  0  0  0  0  0
    9.4021    7.7147   11.9499 C   0  0  2  0  0  0  0  0  0  0  0  0
   10.3652    7.7783   10.8981 O   0  0  0  0  0  0  0  0  0  0  0  0
    9.1629    6.2436   12.4330 C   0  0  0  0  0  0  0  0  0  0  0  0
    8.7977    5.4575   11.2677 O   0  0  0  0  0  0  0  0  0  0  0  0
    8.1317   10.5134   12.5251 C   0  0  2  0  0  0  0  0  0  0  0  0
    8.3135    9.8697   11.2936 O   0  0  0  0  0  0  0  0  0  0  0  0
    8.3922   12.0778   12.4047 C   0  0  1  0  0  0  0  0  0  0  0  0
    9.7582    8.2602   16.0518 N   0  0  0  0  0  0  0  0  0  0  0  0
    8.1772   12.7095   13.8783 C   0  0  1  0  0  0  0  0  0  0  0  0
    6.7649   12.3899   14.3264 O   0  0  0  0  0  0  0  0  0  0  0  0
    9.2527   12.0763   14.9121 C   0  0  2  0  0  0  0  0  0  0  0  0
   10.5916   12.4027   14.4683 O   0  0  0  0  0  0  0  0  0  0  0  0
    8.9791   10.4699   14.9802 C   0  0  1  0  0  0  0  0  0  0  0  0
    9.0726    9.8882   13.5964 O   0  0  0  0  0  0  0  0  0  0  0  0
    9.9806    9.7343   15.9379 C   0  0  0  0  0  0  0  0  0  0  0  0
    9.7633   12.3293   11.8501 N   0  0  0  0  0  0  0  0  0  0  0  0
  1  2  1  6  0  0  0
  1  3  1  0  0  0  0
  1 10  1  0  0  0  0
  3  4  1  6  0  0  0
  3  5  1  0  0  0  0
  5  6  1  1  0  0  0
  5  7  1  0  0  0  0
  7  8  1  6  0  0  0
  7  9  1  0  0  0  0
  9 10  1  0  0  0  0
  9 11  1  1  0  0  0
 11 12  1  0  0  0  0
 13 14  1  6  0  0  0
 13 15  1  0  0  0  0
 13 21  1  0  0  0  0
 16 15  1  0  0  0  0
 16 17  1  6  0  0  0
 18  2  1  1  0  0  0
 18 16  1  0  0  0  0
 19 18  1  0  0  0  0
 19 20  1  1  0  0  0
 21 19  1  0  0  0  0
 21 22  1  1  0  0  0
 23 20  1  6  0  0  0
 23 24  1  0  0  0  0
 23 28  1  0  0  0  0
 24 25  1  6  0  0  0
 24 26  1  0  0  0  0
 26 27  1  0  0  0  0
 26 32  1  6  0  0  0
 27 28  1  0  0  0  0
 27 29  1  6  0  0  0
 29 30  1  0  0  0  0
 31 32  1  6  0  0  0
 31 40  1  0  0  0  0
 33 31  1  0  0  0  0
 33 42  1  1  0  0  0
 35 33  1  0  0  0  0
 35 36  1  1  0  0  0
 37 35  1  0  0  0  0
 37 38  1  6  0  0  0
 37 39  1  0  0  0  0
 39 40  1  0  0  0  0
 39 41  1  1  0  0  0
 41 34  1  0  0  0  0
M  END
>  <CHROM.1>
-177.73958384,-178.13540976,-172.06071786,169.28377895,155.25280117,172.03218082
58.69339026,175.50669749,179.10138031,9.97522140,7.06202007,10.01304680,0.89606230
-1.25955900,-3.09878807

>  <Name>
2et4_lig

>  <RI>
0

>  <Rbt.Current_Directory>
/home/itssahil/PROJECTS/Mol_Feturizer/New_Systems/rnas/2et4

>  <Rbt.Executable>
rbdock ($Id: //depot/dev/client3/rdock/2013.1/src/exe/rbdock.cxx#4 $)

>  <Rbt.Library>
libRbt.so (2013.1, Build901 2013/11/27)

>  <Rbt.Parameter_File>
/export/apps/rDock/src/rDock_2013.1_src/data/scripts/dock_solv.prm

>  <Rbt.Receptor>
prm/pocket_docking_8.prm

>  <SCORE>
-6.89859

>  <SCORE.INTER>
2.18043

>  <SCORE.INTER.CONST>
1

>  <SCORE.INTER.POLAR>
0

>  <SCORE.INTER.ROT>
9

>  <SCORE.INTER.SOLV>
8.95842

>  <SCORE.INTER.VDW>
-11.1325

>  <SCORE.INTER.norm>
0.051915

>  <SCORE.INTRA>
-9.07902

>  <SCORE.INTRA.DIHEDRAL>
-17.5788

>  <SCORE.INTRA.DIHEDRAL.0>
21.6909

>  <SCORE.INTRA.POLAR>
0

>  <SCORE.INTRA.POLAR.0>
0

>  <SCORE.INTRA.REPUL>
0

>  <SCORE.INTRA.REPUL.0>
0

>  <SCORE.INTRA.SOLV>
-3.03916

>  <SCORE.INTRA.SOLV.lig_0>
-116.606

>  <SCORE.INTRA.VDW>
1.22999

>  <SCORE.INTRA.VDW.0>
-6.01229

>  <SCORE.INTRA.norm>
-0.216167

>  <SCORE.RESTR>
0

>  <SCORE.RESTR.CAVITY>
0

>  <SCORE.RESTR.norm>
0

>  <SCORE.SYSTEM>
0

>  <SCORE.SYSTEM.CONST>
0

>  <SCORE.SYSTEM.DIHEDRAL>
0

>  <SCORE.SYSTEM.SOLV>
0

>  <SCORE.SYSTEM.norm>
0

>  <SCORE.heavy>
42

>  <SCORE.norm>
-0.164252

>  <RMSD>
7.648

$$$$
2et4_lig
 OpenBabel11021811423D
libRbt.so/2013.1/901 2013/11/27
 42 45  0  0  0  0  0  0  0  0999 V2000
   11.8270    6.6858   11.5021 C   0  0  2  0  0  0  0  0  0  0  0  0
   12.0685    5.9095   10.3268 O   0  0  0  0  0  0  0  0  0  0  0  0
   10.3007    6.6476   11.7694 C   0  0  2  0  0  0  0  0  0  0  0  0
    9.8265    5.2948   11.9143 N   0  0  0  0  0  0  0  0  0  0  0  0
    9.5587    7.3800   10.6143 C   0  0  1  0  0  0  0  0  0  0  0  0
    8.1882    7.3582   10.8653 O   0  0  0  0  0  0  0  0  0  0  0  0
   10.1212    8.8375   10.5181 C   0  0  2  0  0  0  0  0  0  0  0  0
    9.4789    9.5386    9.4744 O   0  0  0  0  0  0  0  0  0  0  0  0
   11.6584    8.8234   10.2598 C   0  0  2  0  0  0  0  0  0  0  0  0
   12.2864    8.0915   11.3165 O   0  0  0  0  0  0  0  0  0  0  0  0
   12.2627   10.2644   10.1990 C   0  0  0  0  0  0  0  0  0  0  0  0
   13.6786   10.2478   10.0728 N   0  0  0  0  0  0  0  0  0  0  0  0
   16.2228    6.4411    9.2716 C   0  0  2  0  0  0  0  0  0  0  0  0
   17.5774    6.1364    8.7942 N   0  0  0  0  0  0  0  0  0  0  0  0
   15.8672    5.4903   10.5372 C   0  0  0  0  0  0  0  0  0  0  0  0
   14.4003    5.8130   11.0387 C   0  0  2  0  0  0  0  0  0  0  0  0
   14.0248    4.9521   12.1743 N   0  0  0  0  0  0  0  0  0  0  0  0
   13.3893    5.5988    9.8620 C   0  0  2  0  0  0  0  0  0  0  0  0
   13.7611    6.5000    8.6384 C   0  0  2  0  0  0  0  0  0  0  0  0
   12.7823    6.2180    7.6081 O   0  0  0  0  0  0  0  0  0  0  0  0
   15.2071    6.1640    8.1512 C   0  0  1  0  0  0  0  0  0  0  0  0
   15.5140    6.9866    7.0766 O   0  0  0  0  0  0  0  0  0  0  0  0
   12.5474    6.9856    6.5164 C   0  0  1  0  0  0  0  0  0  0  0  0
   11.6661    6.2322    5.4862 C   0  0  2  0  0  0  0  0  0  0  0  0
   12.4019    5.3920    4.6450 O   0  0  0  0  0  0  0  0  0  0  0  0
   10.9327    7.4134    4.8782 C   0  0  1  0  0  0  0  0  0  0  0  0
   10.6608    8.4012    6.0215 C   0  0  2  0  0  0  0  0  0  0  0  0
   11.8547    8.2344    6.7860 O   0  0  0  0  0  0  0  0  0  0  0  0
    9.3780    8.1117    6.8731 C   0  0  0  0  0  0  0  0  0  0  0  0
    8.2270    8.4408    6.0508 O   0  0  0  0  0  0  0  0  0  0  0  0
   12.8810    8.8094    4.2643 C   0  0  2  0  0  0  0  0  0  0  0  0
   11.8173    8.0020    3.8391 O   0  0  0  0  0  0  0  0  0  0  0  0
   12.9105   10.1906    3.4762 C   0  0  1  0  0  0  0  0  0  0  0  0
   16.5570    6.4608    4.6394 N   0  0  0  0  0  0  0  0  0  0  0  0
   14.1815   11.0250    4.0287 C   0  0  1  0  0  0  0  0  0  0  0  0
   14.0078   11.2137    5.5226 O   0  0  0  0  0  0  0  0  0  0  0  0
   15.5503   10.2145    3.7190 C   0  0  2  0  0  0  0  0  0  0  0  0
   15.6980   10.0555    2.2876 O   0  0  0  0  0  0  0  0  0  0  0  0
   15.4668    8.7917    4.5117 C   0  0  1  0  0  0  0  0  0  0  0  0
   14.2293    8.0525    4.0823 O   0  0  0  0  0  0  0  0  0  0  0  0
   16.7337    7.8987    4.2696 C   0  0  0  0  0  0  0  0  0  0  0  0
   12.9688    9.9379    1.9986 N   0  0  0  0  0  0  0  0  0  0  0  0
  1  2  1  6  0  0  0
  1  3  1  0  0  0  0
  1 10  1  0  0  0  0
  3  4  1  6  0  0  0
  3  5  1  0  0  0  0
  5  6  1  1  0  0  0
  5  7  1  0  0  0  0
  7  8  1  6  0  0  0
  7  9  1  0  0  0  0
  9 10  1  0  0  0  0
  9 11  1  1  0  0  0
 11 12  1  0  0  0  0
 13 14  1  6  0  0  0
 13 15  1  0  0  0  0
 13 21  1  0  0  0  0
 16 15  1  0  0  0  0
 16 17  1  1  0  0  0
 18  2  1  1  0  0  0
 18 16  1  0  0  0  0
 19 18  1  0  0  0  0
 19 20  1  6  0  0  0
 21 19  1  0  0  0  0
 21 22  1  6  0  0  0
 23 20  1  1  0  0  0
 23 24  1  0  0  0  0
 23 28  1  0  0  0  0
 24 25  1  6  0  0  0
 24 26  1  0  0  0  0
 26 27  1  0  0  0  0
 26 32  1  6  0  0  0
 27 28  1  0  0  0  0
 27 29  1  1  0  0  0
 29 30  1  0  0  0  0
 31 32  1  6  0  0  0
 31 40  1  0  0  0  0
 33 31  1  0  0  0  0
 33 42  1  6  0  0  0
 35 33  1  0  0  0  0
 35 36  1  1  0  0  0
 37 35  1  0  0  0  0
 37 38  1  6  0  0  0
 37 39  1  0  0  0  0
 39 40  1  0  0  0  0
 39 41  1  6  0  0  0
 41 34  1  0  0  0  0
M  END
>  <CHROM.1>
-172.90433232,175.19561098,18.34629562,163.93613351,167.61721181,-77.62179518
-72.11253200,-130.18199724,-163.64704323,12.84604753,7.75365052,7.49193073
-1.95568910,0.25294281,-1.18624037

>  <Name>
2et4_lig

>  <RI>
0

>  <Rbt.Current_Directory>
/home/itssahil/PROJECTS/Mol_Feturizer/New_Systems/rnas/2et4

>  <Rbt.Executable>
rbdock ($Id: //depot/dev/client3/rdock/2013.1/src/exe/rbdock.cxx#4 $)

>  <Rbt.Library>
libRbt.so (2013.1, Build901 2013/11/27)

>  <Rbt.Parameter_File>
/export/apps/rDock/src/rDock_2013.1_src/data/scripts/dock_solv.prm

>  <Rbt.Receptor>
prm/pocket_docking_3.prm

>  <SCORE>
-10.8923

>  <SCORE.INTER>
-10.7183

>  <SCORE.INTER.CONST>
1

>  <SCORE.INTER.POLAR>
-1.8302

>  <SCORE.INTER.ROT>
9

>  <SCORE.INTER.SOLV>
17.7065

>  <SCORE.INTER.VDW>
-16.547

>  <SCORE.INTER.norm>
-0.255198

>  <SCORE.INTRA>
-0.301381

>  <SCORE.INTRA.DIHEDRAL>
-4.12306

>  <SCORE.INTRA.DIHEDRAL.0>
21.6909

>  <SCORE.INTRA.POLAR>
0

>  <SCORE.INTRA.POLAR.0>
0

>  <SCORE.INTRA.REPUL>
0

>  <SCORE.INTRA.REPUL.0>
0

>  <SCORE.INTRA.SOLV>
0.392557

>  <SCORE.INTRA.SOLV.lig_0>
-116.606

>  <SCORE.INTRA.VDW>
1.56387

>  <SCORE.INTRA.VDW.0>
-6.01229

>  <SCORE.INTRA.norm>
-0.00717573

>  <SCORE.RESTR>
0.127393

>  <SCORE.RESTR.CAVITY>
0.127393

>  <SCORE.RESTR.norm>
0.00303316

>  <SCORE.SYSTEM>
0

>  <SCORE.SYSTEM.CONST>
0

>  <SCORE.SYSTEM.DIHEDRAL>
0

>  <SCORE.SYSTEM.SOLV>
0

>  <SCORE.SYSTEM.norm>
0

>  <SCORE.heavy>
42

>  <SCORE.norm>
-0.259341

>  <RMSD>
7.690

$$$$
2et4_lig
 OpenBabel11021811423D
libRbt.so/2013.1/901 2013/11/27
 42 45  0  0  0  0  0  0  0  0999 V2000
   15.6322    2.5586   10.2148 C   0  0  2  0  0  0  0  0  0  0  0  0
   15.4191    3.6510    9.3185 O   0  0  0  0  0  0  0  0  0  0  0  0
   14.6987    1.4070    9.7619 C   0  0  2  0  0  0  0  0  0  0  0  0
   14.9508    1.0339    8.3933 N   0  0  0  0  0  0  0  0  0  0  0  0
   13.2171    1.8390    9.9604 C   0  0  1  0  0  0  0  0  0  0  0  0
   12.3805    0.7961    9.5677 O   0  0  0  0  0  0  0  0  0  0  0  0
   13.0175    2.2258   11.4638 C   0  0  2  0  0  0  0  0  0  0  0  0
   11.6842    2.6326   11.6884 O   0  0  0  0  0  0  0  0  0  0  0  0
   13.9838    3.3783   11.8736 C   0  0  2  0  0  0  0  0  0  0  0  0
   15.3259    2.9533   11.6190 O   0  0  0  0  0  0  0  0  0  0  0  0
   13.8411    3.7634   13.3825 C   0  0  0  0  0  0  0  0  0  0  0  0
   12.4830    3.9356   13.7663 N   0  0  0  0  0  0  0  0  0  0  0  0
   19.4154    4.7536    8.1067 C   0  0  2  0  0  0  0  0  0  0  0  0
   20.5256    5.5455    7.5626 N   0  0  0  0  0  0  0  0  0  0  0  0
   18.2997    4.5191    6.9523 C   0  0  0  0  0  0  0  0  0  0  0  0
   17.0984    3.6773    7.5486 C   0  0  2  0  0  0  0  0  0  0  0  0
   16.0470    3.4618    6.5388 N   0  0  0  0  0  0  0  0  0  0  0  0
   16.4948    4.4324    8.7806 C   0  0  2  0  0  0  0  0  0  0  0  0
   17.5879    4.6773    9.8729 C   0  0  2  0  0  0  0  0  0  0  0  0
   16.9364    5.3888   10.9537 O   0  0  0  0  0  0  0  0  0  0  0  0
   18.7615    5.5152    9.2712 C   0  0  1  0  0  0  0  0  0  0  0  0
   19.7202    5.7044   10.2565 O   0  0  0  0  0  0  0  0  0  0  0  0
   16.0130    6.3694   10.8046 C   0  0  1  0  0  0  0  0  0  0  0  0
   14.5862    5.8393   11.1024 C   0  0  2  0  0  0  0  0  0  0  0  0
   13.9918    5.2148   10.0016 O   0  0  0  0  0  0  0  0  0  0  0  0
   13.9597    7.1096   11.6471 C   0  0  1  0  0  0  0  0  0  0  0  0
   15.0451    7.8219   12.4664 C   0  0  2  0  0  0  0  0  0  0  0  0
   16.1951    7.5169   11.6774 O   0  0  0  0  0  0  0  0  0  0  0  0
   15.2060    7.3308   13.9454 C   0  0  0  0  0  0  0  0  0  0  0  0
   15.2155    8.5082   14.7956 O   0  0  0  0  0  0  0  0  0  0  0  0
   12.7862    9.0908   10.7421 C   0  0  2  0  0  0  0  0  0  0  0  0
   13.5210    7.9255   10.4849 O   0  0  0  0  0  0  0  0  0  0  0  0
   12.3880    9.8337    9.3933 C   0  0  1  0  0  0  0  0  0  0  0  0
   15.1966   12.5267   12.3573 N   0  0  0  0  0  0  0  0  0  0  0  0
   11.5692   11.1654    9.8090 C   0  0  1  0  0  0  0  0  0  0  0  0
   10.3584   10.7412   10.6162 O   0  0  0  0  0  0  0  0  0  0  0  0
   12.5166   12.1439   10.6873 C   0  0  2  0  0  0  0  0  0  0  0  0
   13.6593   12.5422    9.8925 O   0  0  0  0  0  0  0  0  0  0  0  0
   12.9340   11.3356   12.0409 C   0  0  1  0  0  0  0  0  0  0  0  0
   13.6035   10.0426   11.6642 O   0  0  0  0  0  0  0  0  0  0  0  0
   13.8786   12.1756   12.9700 C   0  0  0  0  0  0  0  0  0  0  0  0
   13.6179   10.1264    8.5855 N   0  0  0  0  0  0  0  0  0  0  0  0
  1  2  1  6  0  0  0
  1  3  1  0  0  0  0
  1 10  1  0  0  0  0
  3  4  1  6  0  0  0
  3  5  1  0  0  0  0
  5  6  1  1  0  0  0
  5  7  1  0  0  0  0
  7  8  1  6  0  0  0
  7  9  1  0  0  0  0
  9 10  1  0  0  0  0
  9 11  1  1  0  0  0
 11 12  1  0  0  0  0
 13 14  1  6  0  0  0
 13 15  1  0  0  0  0
 13 21  1  0  0  0  0
 16 15  1  0  0  0  0
 16 17  1  6  0  0  0
 18  2  1  1  0  0  0
 18 16  1  0  0  0  0
 19 18  1  0  0  0  0
 19 20  1  1  0  0  0
 21 19  1  0  0  0  0
 21 22  1  1  0  0  0
 23 20  1  1  0  0  0
 23 24  1  0  0  0  0
 23 28  1  0  0  0  0
 24 25  1  6  0  0  0
 24 26  1  0  0  0  0
 26 27  1  0  0  0  0
 26 32  1  6  0  0  0
 27 28  1  0  0  0  0
 27 29  1  1  0  0  0
 29 30  1  0  0  0  0
 31 32  1  6  0  0  0
 31 40  1  0  0  0  0
 33 31  1  0  0  0  0
 33 42  1  1  0  0  0
 35 33  1  0  0  0  0
 35 36  1  1  0  0  0
 37 35  1  0  0  0  0
 37 38  1  6  0  0  0
 37 39  1  0  0  0  0
 39 40  1  0  0  0  0
 39 41  1  1  0  0  0
 41 34  1  0  0  0  0
M  END
>  <CHROM.1>
-136.94335314,-47.87141666,82.34921599,-39.38608786,103.79147089,173.61661876
-130.94233008,-179.50080302,-62.54055768,14.83541026,6.28065718,10.56311063
1.22404992,-0.49133162,-3.07656867

>  <Name>
2et4_lig

>  <RI>
0

>  <Rbt.Current_Directory>
/home/itssahil/PROJECTS/Mol_Feturizer/New_Systems/rnas/2et4

>  <Rbt.Executable>
rbdock ($Id: //depot/dev/client3/rdock/2013.1/src/exe/rbdock.cxx#4 $)

>  <Rbt.Library>
libRbt.so (2013.1, Build901 2013/11/27)

>  <Rbt.Parameter_File>
/export/apps/rDock/src/rDock_2013.1_src/data/scripts/dock_solv.prm

>  <Rbt.Receptor>
prm/blind_docking_40.prm

>  <SCORE>
56.8745

>  <SCORE.INTER>
33.4024

>  <SCORE.INTER.CONST>
1

>  <SCORE.INTER.POLAR>
-0.987408

>  <SCORE.INTER.ROT>
9

>  <SCORE.INTER.SOLV>
34.8019

>  <SCORE.INTER.VDW>
4.359

>  <SCORE.INTER.norm>
0.795295

>  <SCORE.INTRA>
9.80182

>  <SCORE.INTRA.DIHEDRAL>
-0.176582

>  <SCORE.INTRA.DIHEDRAL.0>
21.6909

>  <SCORE.INTRA.POLAR>
0

>  <SCORE.INTRA.POLAR.0>
0

>  <SCORE.INTRA.REPUL>
0

>  <SCORE.INTRA.REPUL.0>
0

>  <SCORE.INTRA.SOLV>
3.19039

>  <SCORE.INTRA.SOLV.lig_0>
-116.606

>  <SCORE.INTRA.VDW>
8.29492

>  <SCORE.INTRA.VDW.0>
-6.01229

>  <SCORE.INTRA.norm>
0.233377

>  <SCORE.RESTR>
13.6703

>  <SCORE.RESTR.CAVITY>
13.6703

>  <SCORE.RESTR.norm>
0.325484

>  <SCORE.SYSTEM>
0

>  <SCORE.SYSTEM.CONST>
0

>  <SCORE.SYSTEM.DIHEDRAL>
0

>  <SCORE.SYSTEM.SOLV>
0

>  <SCORE.SYSTEM.norm>
0

>  <SCORE.heavy>
42

>  <SCORE.norm>
1.35416

>  <RMSD>
7.707

$$$$
2et4_lig
 OpenBabel11021811423D
libRbt.so/2013.1/901 2013/11/27
 42 45  0  0  0  0  0  0  0  0999 V2000
   17.3542    3.3189   10.4279 C   0  0  2  0  0  0  0  0  0  0  0  0
   16.0387    3.4352    9.8818 O   0  0  0  0  0  0  0  0  0  0  0  0
   17.7877    4.7364   10.8813 C   0  0  2  0  0  0  0  0  0  0  0  0
   16.8594    5.2899   11.8339 N   0  0  0  0  0  0  0  0  0  0  0  0
   17.9234    5.6555    9.6331 C   0  0  1  0  0  0  0  0  0  0  0  0
   18.3289    6.9244   10.0420 O   0  0  0  0  0  0  0  0  0  0  0  0
   18.9449    4.9950    8.6480 C   0  0  2  0  0  0  0  0  0  0  0  0
   19.0939    5.7945    7.4938 O   0  0  0  0  0  0  0  0  0  0  0  0
   18.4711    3.5700    8.2301 C   0  0  2  0  0  0  0  0  0  0  0  0
   18.3070    2.7841    9.4142 O   0  0  0  0  0  0  0  0  0  0  0  0
   19.4893    2.8624    7.2771 C   0  0  0  0  0  0  0  0  0  0  0  0
   19.8160    3.6646    6.1498 N   0  0  0  0  0  0  0  0  0  0  0  0
   11.9401    2.2110   10.4800 C   0  0  2  0  0  0  0  0  0  0  0  0
   10.7593    1.5856   11.0884 N   0  0  0  0  0  0  0  0  0  0  0  0
   13.0399    1.0699   10.1326 C   0  0  0  0  0  0  0  0  0  0  0  0
   14.3166    1.7516    9.4902 C   0  0  2  0  0  0  0  0  0  0  0  0
   15.3546    0.7522    9.1815 N   0  0  0  0  0  0  0  0  0  0  0  0
   14.8932    2.8163   10.4834 C   0  0  2  0  0  0  0  0  0  0  0  0
   13.8135    3.8936   10.8322 C   0  0  2  0  0  0  0  0  0  0  0  0
   14.4373    4.8148   11.7603 O   0  0  0  0  0  0  0  0  0  0  0  0
   12.5646    3.2062   11.4716 C   0  0  1  0  0  0  0  0  0  0  0  0
   11.6203    4.1822   11.7569 O   0  0  0  0  0  0  0  0  0  0  0  0
   14.6408    6.1360   11.5384 C   0  0  1  0  0  0  0  0  0  0  0  0
   13.2944    6.8808   11.3438 C   0  0  2  0  0  0  0  0  0  0  0  0
   12.8130    6.8110   10.0329 O   0  0  0  0  0  0  0  0  0  0  0  0
   13.6779    8.2358   11.9093 C   0  0  1  0  0  0  0  0  0  0  0  0
   14.6082    7.9703   13.1013 C   0  0  2  0  0  0  0  0  0  0  0  0
   15.3249    6.8368   12.6120 O   0  0  0  0  0  0  0  0  0  0  0  0
   13.8928    7.6650   14.4613 C   0  0  0  0  0  0  0  0  0  0  0  0
   13.1962    8.8731   14.8667 O   0  0  0  0  0  0  0  0  0  0  0  0
   13.8418   10.2405   10.4687 C   0  0  2  0  0  0  0  0  0  0  0  0
   14.3655    8.9920   10.8304 O   0  0  0  0  0  0  0  0  0  0  0  0
   13.8050   11.2346   11.7098 C   0  0  1  0  0  0  0  0  0  0  0  0
    9.3275   10.4954    9.8614 N   0  0  0  0  0  0  0  0  0  0  0  0
   13.1668   12.6253   11.1850 C   0  0  1  0  0  0  0  0  0  0  0  0
   14.0319   13.1431   10.0532 O   0  0  0  0  0  0  0  0  0  0  0  0
   11.6516   12.3761   10.6669 C   0  0  2  0  0  0  0  0  0  0  0  0
   10.8442   11.8916   11.7665 O   0  0  0  0  0  0  0  0  0  0  0  0
   11.7266   11.3256    9.4216 C   0  0  1  0  0  0  0  0  0  0  0  0
   12.4146   10.0661    9.8714 O   0  0  0  0  0  0  0  0  0  0  0  0
   10.3088   10.9829    8.8440 C   0  0  0  0  0  0  0  0  0  0  0  0
   13.0305   10.6195   12.8379 N   0  0  0  0  0  0  0  0  0  0  0  0
  1  2  1  6  0  0  0
  1  3  1  0  0  0  0
  1 10  1  0  0  0  0
  3  4  1  1  0  0  0
  3  5  1  0  0  0  0
  5  6  1  1  0  0  0
  5  7  1  0  0  0  0
  7  8  1  6  0  0  0
  7  9  1  0  0  0  0
  9 10  1  0  0  0  0
  9 11  1  6  0  0  0
 11 12  1  0  0  0  0
 13 14  1  1  0  0  0
 13 15  1  0  0  0  0
 13 21  1  0  0  0  0
 16 15  1  0  0  0  0
 16 17  1  1  0  0  0
 18  2  1  6  0  0  0
 18 16  1  0  0  0  0
 19 18  1  0  0  0  0
 19 20  1  1  0  0  0
 21 19  1  0  0  0  0
 21 22  1  6  0  0  0
 23 20  1  1  0  0  0
 23 24  1  0  0  0  0
 23 28  1  0  0  0  0
 24 25  1  6  0  0  0
 24 26  1  0  0  0  0
 26 27  1  0  0  0  0
 26 32  1  6  0  0  0
 27 28  1  0  0  0  0
 27 29  1  1  0  0  0
 29 30  1  0  0  0  0
 31 32  1  1  0  0  0
 31 40  1  0  0  0  0
 33 31  1  0  0  0  0
 33 42  1  1  0  0  0
 35 33  1  0  0  0  0
 35 36  1  6  0  0  0
 37 35  1  0  0  0  0
 37 38  1  1  0  0  0
 37 39  1  0  0  0  0
 39 40  1  0  0  0  0
 39 41  1  1  0  0  0
 41 34  1  0  0  0  0
M  END
>  <CHROM.1>
-114.69811575,-52.95592579,-116.24209860,118.00354045,62.04611314,123.41084521
-66.25226015,58.55622332,-53.82377255,14.55264581,6.52736652,10.57884834
-1.01326826,0.38659691,0.00382713

>  <Name>
2et4_lig

>  <RI>
0

>  <Rbt.Current_Directory>
/home/itssahil/PROJECTS/Mol_Feturizer/New_Systems/rnas/2et4

>  <Rbt.Executable>
rbdock ($Id: //depot/dev/client3/rdock/2013.1/src/exe/rbdock.cxx#4 $)

>  <Rbt.Library>
libRbt.so (2013.1, Build901 2013/11/27)

>  <Rbt.Parameter_File>
/export/apps/rDock/src/rDock_2013.1_src/data/scripts/dock_solv.prm

>  <Rbt.Receptor>
prm/blind_docking_40.prm

>  <SCORE>
47.3889

>  <SCORE.INTER>
13.5192

>  <SCORE.INTER.CONST>
1

>  <SCORE.INTER.POLAR>
-0.997624

>  <SCORE.INTER.ROT>
9

>  <SCORE.INTER.SOLV>
23.9384

>  <SCORE.INTER.VDW>
-5.24128

>  <SCORE.INTER.norm>
0.321885

>  <SCORE.INTRA>
17.2558

>  <SCORE.INTRA.DIHEDRAL>
7.40351

>  <SCORE.INTRA.DIHEDRAL.0>
21.6909

>  <SCORE.INTRA.POLAR>
0

>  <SCORE.INTRA.POLAR.0>
0

>  <SCORE.INTRA.REPUL>
0.344868

>  <SCORE.INTRA.REPUL.0>
0

>  <SCORE.INTRA.SOLV>
7.59213

>  <SCORE.INTRA.SOLV.lig_0>
-116.606

>  <SCORE.INTRA.VDW>
8.03364

>  <SCORE.INTRA.VDW.0>
-6.01229

>  <SCORE.INTRA.norm>
0.410852

>  <SCORE.RESTR>
16.6139

>  <SCORE.RESTR.CAVITY>
16.6139

>  <SCORE.RESTR.norm>
0.395569

>  <SCORE.SYSTEM>
0

>  <SCORE.SYSTEM.CONST>
0

>  <SCORE.SYSTEM.DIHEDRAL>
0

>  <SCORE.SYSTEM.SOLV>
0

>  <SCORE.SYSTEM.norm>
0

>  <SCORE.heavy>
42

>  <SCORE.norm>
1.12831

>  <RMSD>
7.715

$$$$
2et4_lig
 OpenBabel11021811423D
libRbt.so/2013.1/901 2013/11/27
 42 45  0  0  0  0  0  0  0  0999 V2000
   15.1351    5.5248    9.6829 C   0  0  2  0  0  0  0  0  0  0  0  0
   15.5021    5.8777   11.0182 O   0  0  0  0  0  0  0  0  0  0  0  0
   14.8965    3.9934    9.6642 C   0  0  2  0  0  0  0  0  0  0  0  0
   13.8869    3.6074   10.6168 N   0  0  0  0  0  0  0  0  0  0  0  0
   16.2403    3.2610    9.9451 C   0  0  1  0  0  0  0  0  0  0  0  0
   16.0262    1.8845    9.9116 O   0  0  0  0  0  0  0  0  0  0  0  0
   17.2837    3.7253    8.8747 C   0  0  2  0  0  0  0  0  0  0  0  0
   18.5243    3.0888    9.0968 O   0  0  0  0  0  0  0  0  0  0  0  0
   17.4810    5.2708    8.9256 C   0  0  2  0  0  0  0  0  0  0  0  0
   16.2102    5.8945    8.7190 O   0  0  0  0  0  0  0  0  0  0  0  0
   18.4873    5.7761    7.8405 C   0  0  0  0  0  0  0  0  0  0  0  0
   17.8551    6.0066    6.5882 N   0  0  0  0  0  0  0  0  0  0  0  0
   12.0209    4.6929   13.2837 C   0  0  2  0  0  0  0  0  0  0  0  0
   11.1265    4.4665   14.4258 N   0  0  0  0  0  0  0  0  0  0  0  0
   13.3976    3.8621   13.4999 C   0  0  0  0  0  0  0  0  0  0  0  0
   14.3639    4.1214   12.2725 C   0  0  2  0  0  0  0  0  0  0  0  0
   15.6405    3.4045   12.4398 N   0  0  0  0  0  0  0  0  0  0  0  0
   14.6388    5.6577   12.1422 C   0  0  2  0  0  0  0  0  0  0  0  0
   13.3009    6.4488   11.9634 C   0  0  2  0  0  0  0  0  0  0  0  0
   13.6613    7.8489   11.8681 O   0  0  0  0  0  0  0  0  0  0  0  0
   12.3627    6.1886   13.1854 C   0  0  1  0  0  0  0  0  0  0  0  0
   11.1810    6.8903   12.9928 O   0  0  0  0  0  0  0  0  0  0  0  0
   12.9395    8.8815   12.3672 C   0  0  1  0  0  0  0  0  0  0  0  0
   13.5212    9.3627   13.7220 C   0  0  2  0  0  0  0  0  0  0  0  0
   13.0653    8.6148   14.8118 O   0  0  0  0  0  0  0  0  0  0  0  0
   13.1532   10.8326   13.6405 C   0  0  1  0  0  0  0  0  0  0  0  0
   13.3293   11.2519   12.1742 C   0  0  2  0  0  0  0  0  0  0  0  0
   12.8942   10.0606   11.5190 O   0  0  0  0  0  0  0  0  0  0  0  0
   14.7860   11.6486   11.7556 C   0  0  0  0  0  0  0  0  0  0  0  0
   15.1938   12.7580   12.5995 O   0  0  0  0  0  0  0  0  0  0  0  0
   11.3574   10.2931   15.2547 C   0  0  2  0  0  0  0  0  0  0  0  0
   11.7418   10.9654   14.0866 O   0  0  0  0  0  0  0  0  0  0  0  0
   10.6357    8.9161   14.9193 C   0  0  1  0  0  0  0  0  0  0  0  0
    9.5777   13.0333   18.2231 N   0  0  0  0  0  0  0  0  0  0  0  0
   10.2195    8.2426   16.3300 C   0  0  1  0  0  0  0  0  0  0  0  0
   11.4794    8.0518   17.1508 O   0  0  0  0  0  0  0  0  0  0  0  0
    9.1771    9.2044   17.1141 C   0  0  2  0  0  0  0  0  0  0  0  0
    7.9801    9.3634   16.3153 O   0  0  0  0  0  0  0  0  0  0  0  0
    9.9388   10.6165   17.4065 C   0  0  1  0  0  0  0  0  0  0  0  0
   10.4238   11.2007   16.1083 O   0  0  0  0  0  0  0  0  0  0  0  0
    9.0179   11.6490   18.1462 C   0  0  0  0  0  0  0  0  0  0  0  0
    9.4645    9.1571   14.0132 N   0  0  0  0  0  0  0  0  0  0  0  0
  1  2  1  1  0  0  0
  1  3  1  0  0  0  0
  1 10  1  0  0  0  0
  3  4  1  1  0  0  0
  3  5  1  0  0  0  0
  5  6  1  6  0  0  0
  5  7  1  0  0  0  0
  7  8  1  1  0  0  0
  7  9  1  0  0  0  0
  9 10  1  0  0  0  0
  9 11  1  6  0  0  0
 11 12  1  0  0  0  0
 13 14  1  1  0  0  0
 13 15  1  0  0  0  0
 13 21  1  0  0  0  0
 16 15  1  0  0  0  0
 16 17  1  1  0  0  0
 18  2  1  6  0  0  0
 18 16  1  0  0  0  0
 19 18  1  0  0  0  0
 19 20  1  1  0  0  0
 21 19  1  0  0  0  0
 21 22  1  6  0  0  0
 23 20  1  6  0  0  0
 23 24  1  0  0  0  0
 23 28  1  0  0  0  0
 24 25  1  1  0  0  0
 24 26  1  0  0  0  0
 26 27  1  0  0  0  0
 26 32  1  6  0  0  0
 27 28  1  0  0  0  0
 27 29  1  1  0  0  0
 29 30  1  0  0  0  0
 31 32  1  6  0  0  0
 31 40  1  0  0  0  0
 33 31  1  0  0  0  0
 33 42  1  6  0  0  0
 35 33  1  0  0  0  0
 35 36  1  1  0  0  0
 37 35  1  0  0  0  0
 37 38  1  6  0  0  0
 37 39  1  0  0  0  0
 39 40  1  0  0  0  0
 39 41  1  6  0  0  0
 41 34  1  0  0  0  0
M  END
>  <CHROM.1>
-60.67586636,85.48967321,61.27768499,-144.27394189,99.68163347,46.17960642
-59.02496211,-98.38206320,-169.68620806,13.31674283,7.44675678,12.77671922
-0.63288936,0.79649911,0.05561304

>  <Name>
2et4_lig

>  <RI>
0

>  <Rbt.Current_Directory>
/home/itssahil/PROJECTS/Mol_Feturizer/New_Systems/rnas/2et4

>  <Rbt.Executable>
rbdock ($Id: //depot/dev/client3/rdock/2013.1/src/exe/rbdock.cxx#4 $)

>  <Rbt.Library>
libRbt.so (2013.1, Build901 2013/11/27)

>  <Rbt.Parameter_File>
/export/apps/rDock/src/rDock_2013.1_src/data/scripts/dock_solv.prm

>  <Rbt.Receptor>
prm/blind_docking_80.prm

>  <SCORE>
59.944

>  <SCORE.INTER>
8.22186

>  <SCORE.INTER.CONST>
1

>  <SCORE.INTER.POLAR>
0

>  <SCORE.INTER.ROT>
9

>  <SCORE.INTER.SOLV>
16.4981

>  <SCORE.INTER.VDW>
-9.61811

>  <SCORE.INTER.norm>
0.195759

>  <SCORE.INTRA>
32.1628

>  <SCORE.INTRA.DIHEDRAL>
-3.10986

>  <SCORE.INTRA.DIHEDRAL.0>
21.6909

>  <SCORE.INTRA.POLAR>
0

>  <SCORE.INTRA.POLAR.0>
0

>  <SCORE.INTRA.REPUL>
0

>  <SCORE.INTRA.REPUL.0>
0

>  <SCORE.INTRA.SOLV>
10.0881

>  <SCORE.INTRA.SOLV.lig_0>
-116.606

>  <SCORE.INTRA.VDW>
28.6737

>  <SCORE.INTRA.VDW.0>
-6.01229

>  <SCORE.INTRA.norm>
0.765781

>  <SCORE.RESTR>
19.5593

>  <SCORE.RESTR.CAVITY>
19.5593

>  <SCORE.RESTR.norm>
0.465698

>  <SCORE.SYSTEM>
0

>  <SCORE.SYSTEM.CONST>
0

>  <SCORE.SYSTEM.DIHEDRAL>
0

>  <SCORE.SYSTEM.SOLV>
0

>  <SCORE.SYSTEM.norm>
0

>  <SCORE.heavy>
42

>  <SCORE.norm>
1.42724

>  <RMSD>
7.743

$$$$
2et4_lig
 OpenBabel11021811423D
libRbt.so/2013.1/901 2013/11/27
 42 45  0  0  0  0  0  0  0  0999 V2000
   11.0072    8.3724   12.5751 C   0  0  2  0  0  0  0  0  0  0  0  0
   11.6940    7.2056   13.0324 O   0  0  0  0  0  0  0  0  0  0  0  0
    9.9640    8.7432   13.6599 C   0  0  2  0  0  0  0  0  0  0  0  0
   10.5903    8.9575   14.9395 N   0  0  0  0  0  0  0  0  0  0  0  0
    8.8894    7.6209   13.7436 C   0  0  1  0  0  0  0  0  0  0  0  0
    7.9441    7.9644   14.7080 O   0  0  0  0  0  0  0  0  0  0  0  0
    8.2527    7.4463   12.3244 C   0  0  2  0  0  0  0  0  0  0  0  0
    7.2738    6.4292   12.3524 O   0  0  0  0  0  0  0  0  0  0  0  0
    9.3409    7.0852   11.2683 C   0  0  2  0  0  0  0  0  0  0  0  0
   10.3319    8.1171   11.2711 O   0  0  0  0  0  0  0  0  0  0  0  0
    8.7464    6.9436    9.8289 C   0  0  0  0  0  0  0  0  0  0  0  0
    7.8876    5.8167    9.7115 N   0  0  0  0  0  0  0  0  0  0  0  0
   15.3542    5.2183   11.8886 C   0  0  2  0  0  0  0  0  0  0  0  0
   16.3402    4.5016   11.0702 N   0  0  0  0  0  0  0  0  0  0  0  0
   14.0035    4.3283   12.0139 C   0  0  0  0  0  0  0  0  0  0  0  0
   12.9388    5.1123   12.8852 C   0  0  2  0  0  0  0  0  0  0  0  0
   11.6834    4.3498   13.0039 N   0  0  0  0  0  0  0  0  0  0  0  0
   12.6474    6.5019   12.2244 C   0  0  2  0  0  0  0  0  0  0  0  0
   13.9626    7.3374   12.0835 C   0  0  2  0  0  0  0  0  0  0  0  0
   13.5896    8.5875   11.4533 O   0  0  0  0  0  0  0  0  0  0  0  0
   14.9990    6.5540   11.2153 C   0  0  1  0  0  0  0  0  0  0  0  0
   16.1578    7.3114   11.1195 O   0  0  0  0  0  0  0  0  0  0  0  0
   13.5314    8.8070   10.1173 C   0  0  1  0  0  0  0  0  0  0  0  0
   12.4047    7.9647    9.4642 C   0  0  2  0  0  0  0  0  0  0  0  0
   12.8024    6.6600    9.1571 O   0  0  0  0  0  0  0  0  0  0  0  0
   12.0249    8.8981    8.3296 C   0  0  1  0  0  0  0  0  0  0  0  0
   12.1310   10.3278    8.8787 C   0  0  2  0  0  0  0  0  0  0  0  0
   13.2631   10.1834    9.7362 O   0  0  0  0  0  0  0  0  0  0  0  0
   10.8737   10.8477    9.6557 C   0  0  0  0  0  0  0  0  0  0  0  0
    9.7099   10.5757    8.8307 O   0  0  0  0  0  0  0  0  0  0  0  0
   12.6028    7.7703    6.2046 C   0  0  2  0  0  0  0  0  0  0  0  0
   12.9818    8.6619    7.2172 O   0  0  0  0  0  0  0  0  0  0  0  0
   11.2602    8.2395    5.4926 C   0  0  1  0  0  0  0  0  0  0  0  0
   13.1033    3.5201    7.3858 N   0  0  0  0  0  0  0  0  0  0  0  0
   10.9088    7.1331    4.3661 C   0  0  1  0  0  0  0  0  0  0  0  0
   12.0775    7.0527    3.4041 O   0  0  0  0  0  0  0  0  0  0  0  0
   10.6562    5.6937    5.0665 C   0  0  2  0  0  0  0  0  0  0  0  0
    9.5310    5.7939    5.9721 O   0  0  0  0  0  0  0  0  0  0  0  0
   12.0396    5.2644    5.8160 C   0  0  1  0  0  0  0  0  0  0  0  0
   12.4328    6.3386    6.7924 O   0  0  0  0  0  0  0  0  0  0  0  0
   11.9137    3.8879    6.5581 C   0  0  0  0  0  0  0  0  0  0  0  0
   10.1714    8.4104    6.5105 N   0  0  0  0  0  0  0  0  0  0  0  0
  1  2  1  1  0  0  0
  1  3  1  0  0  0  0
  1 10  1  0  0  0  0
  3  4  1  1  0  0  0
  3  5  1  0  0  0  0
  5  6  1  1  0  0  0
  5  7  1  0  0  0  0
  7  8  1  1  0  0  0
  7  9  1  0  0  0  0
  9 10  1  0  0  0  0
  9 11  1  6  0  0  0
 11 12  1  0  0  0  0
 13 14  1  6  0  0  0
 13 15  1  0  0  0  0
 13 21  1  0  0  0  0
 16 15  1  0  0  0  0
 16 17  1  6  0  0  0
 18  2  1  1  0  0  0
 18 16  1  0  0  0  0
 19 18  1  0  0  0  0
 19 20  1  6  0  0  0
 21 19  1  0  0  0  0
 21 22  1  1  0  0  0
 23 20  1  1  0  0  0
 23 24  1  0  0  0  0
 23 28  1  0  0  0  0
 24 25  1  6  0  0  0
 24 26  1  0  0  0  0
 26 27  1  0  0  0  0
 26 32  1  6  0  0  0
 27 28  1  0  0  0  0
 27 29  1  1  0  0  0
 29 30  1  0  0  0  0
 31 32  1  1  0  0  0
 31 40  1  0  0  0  0
 33 31  1  0  0  0  0
 33 42  1  1  0  0  0
 35 33  1  0  0  0  0
 35 36  1  6  0  0  0
 37 35  1  0  0  0  0
 37 38  1  1  0  0  0
 37 39  1  0  0  0  0
 39 40  1  0  0  0  0
 39 41  1  1  0  0  0
 41 34  1  0  0  0  0
M  END
>  <CHROM.1>
173.94820429,-67.69207624,-166.60540289,-88.15763154,66.27339537,95.16344918
-49.25954683,58.86900844,-173.57482555,11.65539977,7.22200405,9.83040579
1.70904581,-0.36647315,1.53749542

>  <Name>
2et4_lig

>  <RI>
3.65815e+07

>  <Rbt.Current_Directory>
/home/itssahil/PROJECTS/Mol_Feturizer/New_Systems/rnas/2et4

>  <Rbt.Executable>
rbdock ($Id: //depot/dev/client3/rdock/2013.1/src/exe/rbdock.cxx#4 $)

>  <Rbt.Library>
libRbt.so (2013.1, Build901 2013/11/27)

>  <Rbt.Parameter_File>
/export/apps/rDock/src/rDock_2013.1_src/data/scripts/dock_solv.prm

>  <Rbt.Receptor>
prm/pocket_docking_4.prm

>  <SCORE>
-8.87076

>  <SCORE.INTER>
-5.46679

>  <SCORE.INTER.CONST>
1

>  <SCORE.INTER.POLAR>
-0.991796

>  <SCORE.INTER.ROT>
9

>  <SCORE.INTER.SOLV>
11.6092

>  <SCORE.INTER.VDW>
-13.8083

>  <SCORE.INTER.norm>
-0.130162

>  <SCORE.INTRA>
-3.40396

>  <SCORE.INTRA.DIHEDRAL>
-11.7912

>  <SCORE.INTRA.DIHEDRAL.0>
21.6909

>  <SCORE.INTRA.POLAR>
0

>  <SCORE.INTRA.POLAR.0>
0

>  <SCORE.INTRA.REPUL>
0

>  <SCORE.INTRA.REPUL.0>
0

>  <SCORE.INTRA.SOLV>
2.30872

>  <SCORE.INTRA.SOLV.lig_0>
-116.606

>  <SCORE.INTRA.VDW>
1.33728

>  <SCORE.INTRA.VDW.0>
-6.01229

>  <SCORE.INTRA.norm>
-0.0810468

>  <SCORE.RESTR>
0

>  <SCORE.RESTR.CAVITY>
0

>  <SCORE.RESTR.norm>
0

>  <SCORE.SYSTEM>
0

>  <SCORE.SYSTEM.CONST>
0

>  <SCORE.SYSTEM.DIHEDRAL>
0

>  <SCORE.SYSTEM.SOLV>
0

>  <SCORE.SYSTEM.norm>
0

>  <SCORE.heavy>
42

>  <SCORE.norm>
-0.211209

>  <RMSD>
7.748

$$$$
2et4_lig
 OpenBabel11021811423D
libRbt.so/2013.1/901 2013/11/27
 42 45  0  0  0  0  0  0  0  0999 V2000
    9.9804    7.3047    9.4940 C   0  0  2  0  0  0  0  0  0  0  0  0
   10.7749    6.1515    9.2092 O   0  0  0  0  0  0  0  0  0  0  0  0
   10.1242    8.2680    8.2882 C   0  0  2  0  0  0  0  0  0  0  0  0
    9.7249    7.6330    7.0581 N   0  0  0  0  0  0  0  0  0  0  0  0
   11.5940    8.7721    8.2064 C   0  0  1  0  0  0  0  0  0  0  0  0
   11.7167    9.6503    7.1315 O   0  0  0  0  0  0  0  0  0  0  0  0
   11.9555    9.4496    9.5703 C   0  0  2  0  0  0  0  0  0  0  0  0
   13.2875    9.9170    9.5432 O   0  0  0  0  0  0  0  0  0  0  0  0
   11.7854    8.4461   10.7510 C   0  0  2  0  0  0  0  0  0  0  0  0
   10.4363    7.9702   10.7473 O   0  0  0  0  0  0  0  0  0  0  0  0
   12.0985    9.1014   12.1359 C   0  0  0  0  0  0  0  0  0  0  0  0
   13.4408    9.5623   12.2203 N   0  0  0  0  0  0  0  0  0  0  0  0
    9.9183    3.5576   12.5547 C   0  0  2  0  0  0  0  0  0  0  0  0
    9.8910    2.3597   13.4032 N   0  0  0  0  0  0  0  0  0  0  0  0
    9.2194    3.2278   11.1281 C   0  0  0  0  0  0  0  0  0  0  0  0
    9.2646    4.5187   10.2121 C   0  0  2  0  0  0  0  0  0  0  0  0
    8.6618    4.2564    8.8932 N   0  0  0  0  0  0  0  0  0  0  0  0
   10.7516    4.9739   10.0274 C   0  0  2  0  0  0  0  0  0  0  0  0
   11.4215    5.2604   11.4120 C   0  0  2  0  0  0  0  0  0  0  0  0
   12.7870    5.6565   11.1334 O   0  0  0  0  0  0  0  0  0  0  0  0
   11.3757    3.9757   12.3001 C   0  0  1  0  0  0  0  0  0  0  0  0
   11.9630    4.2633   13.5241 O   0  0  0  0  0  0  0  0  0  0  0  0
   13.2341    6.1620    9.9583 C   0  0  1  0  0  0  0  0  0  0  0  0
   14.7216    6.5878   10.0666 C   0  0  2  0  0  0  0  0  0  0  0  0
   14.8880    7.8711   10.5963 O   0  0  0  0  0  0  0  0  0  0  0  0
   15.1578    6.3262    8.6368 C   0  0  1  0  0  0  0  0  0  0  0  0
   14.4228    5.0600    8.1749 C   0  0  2  0  0  0  0  0  0  0  0  0
   13.1702    5.2427    8.8347 O   0  0  0  0  0  0  0  0  0  0  0  0
   15.0990    3.7038    8.5727 C   0  0  0  0  0  0  0  0  0  0  0  0
   16.5057    3.8012    8.2252 O   0  0  0  0  0  0  0  0  0  0  0  0
   14.8587    7.4105    6.4331 C   0  0  2  0  0  0  0  0  0  0  0  0
   14.7743    7.5128    7.8283 O   0  0  0  0  0  0  0  0  0  0  0  0
   15.2106    8.8128    5.7701 C   0  0  1  0  0  0  0  0  0  0  0  0
   11.9558    5.7322    2.5059 N   0  0  0  0  0  0  0  0  0  0  0  0
   15.2601    8.5818    4.1698 C   0  0  1  0  0  0  0  0  0  0  0  0
   16.3061    7.5242    3.8785 O   0  0  0  0  0  0  0  0  0  0  0  0
   13.8077    8.0989    3.6370 C   0  0  2  0  0  0  0  0  0  0  0  0
   12.8292    9.1283    3.9180 O   0  0  0  0  0  0  0  0  0  0  0  0
   13.4658    6.6805    4.3657 C   0  0  1  0  0  0  0  0  0  0  0  0
   13.5210    6.8594    5.8580 O   0  0  0  0  0  0  0  0  0  0  0  0
   12.0627    6.1175    3.9467 C   0  0  0  0  0  0  0  0  0  0  0  0
   14.2041    9.8447    6.1857 N   0  0  0  0  0  0  0  0  0  0  0  0
  1  2  1  6  0  0  0
  1  3  1  0  0  0  0
  1 10  1  0  0  0  0
  3  4  1  6  0  0  0
  3  5  1  0  0  0  0
  5  6  1  6  0  0  0
  5  7  1  0  0  0  0
  7  8  1  6  0  0  0
  7  9  1  0  0  0  0
  9 10  1  0  0  0  0
  9 11  1  1  0  0  0
 11 12  1  0  0  0  0
 13 14  1  1  0  0  0
 13 15  1  0  0  0  0
 13 21  1  0  0  0  0
 16 15  1  0  0  0  0
 16 17  1  6  0  0  0
 18  2  1  6  0  0  0
 18 16  1  0  0  0  0
 19 18  1  0  0  0  0
 19 20  1  6  0  0  0
 21 19  1  0  0  0  0
 21 22  1  1  0  0  0
 23 20  1  1  0  0  0
 23 24  1  0  0  0  0
 23 28  1  0  0  0  0
 24 25  1  6  0  0  0
 24 26  1  0  0  0  0
 26 27  1  0  0  0  0
 26 32  1  6  0  0  0
 27 28  1  0  0  0  0
 27 29  1  1  0  0  0
 29 30  1  0  0  0  0
 31 32  1  1  0  0  0
 31 40  1  0  0  0  0
 33 31  1  0  0  0  0
 33 42  1  6  0  0  0
 35 33  1  0  0  0  0
 35 36  1  1  0  0  0
 37 35  1  0  0  0  0
 37 38  1  1  0  0  0
 37 39  1  0  0  0  0
 39 40  1  0  0  0  0
 39 41  1  1  0  0  0
 41 34  1  0  0  0  0
M  END
>  <CHROM.1>
-171.97154993,-61.42442728,52.03099733,22.46407364,174.97423477,-168.89504171
-48.01289609,-148.69016691,65.52785895,12.59542036,6.71161725,8.57809204
-2.67661618,-1.11029562,-2.22335533

>  <Name>
2et4_lig

>  <RI>
0

>  <Rbt.Current_Directory>
/home/itssahil/PROJECTS/Mol_Feturizer/New_Systems/rnas/2et4

>  <Rbt.Executable>
rbdock ($Id: //depot/dev/client3/rdock/2013.1/src/exe/rbdock.cxx#4 $)

>  <Rbt.Library>
libRbt.so (2013.1, Build901 2013/11/27)

>  <Rbt.Parameter_File>
/export/apps/rDock/src/rDock_2013.1_src/data/scripts/dock_solv.prm

>  <Rbt.Receptor>
prm/pocket_docking_3.prm

>  <SCORE>
-1.15556

>  <SCORE.INTER>
-1.39831

>  <SCORE.INTER.CONST>
1

>  <SCORE.INTER.POLAR>
-1.74325

>  <SCORE.INTER.ROT>
9

>  <SCORE.INTER.SOLV>
14.2295

>  <SCORE.INTER.VDW>
-9.46454

>  <SCORE.INTER.norm>
-0.0332931

>  <SCORE.INTRA>
-0.273212

>  <SCORE.INTRA.DIHEDRAL>
-10.8027

>  <SCORE.INTRA.DIHEDRAL.0>
21.6909

>  <SCORE.INTRA.POLAR>
0

>  <SCORE.INTRA.POLAR.0>
0

>  <SCORE.INTRA.REPUL>
0.0736706

>  <SCORE.INTRA.REPUL.0>
0

>  <SCORE.INTRA.SOLV>
4.75111

>  <SCORE.INTRA.SOLV.lig_0>
-116.606

>  <SCORE.INTRA.VDW>
2.38421

>  <SCORE.INTRA.VDW.0>
-6.01229

>  <SCORE.INTRA.norm>
-0.00650505

>  <SCORE.RESTR>
0.515964

>  <SCORE.RESTR.CAVITY>
0.515964

>  <SCORE.RESTR.norm>
0.0122849

>  <SCORE.SYSTEM>
0

>  <SCORE.SYSTEM.CONST>
0

>  <SCORE.SYSTEM.DIHEDRAL>
0

>  <SCORE.SYSTEM.SOLV>
0

>  <SCORE.SYSTEM.norm>
0

>  <SCORE.heavy>
42

>  <SCORE.norm>
-0.0275133

>  <RMSD>
7.750

$$$$
2et4_lig
 OpenBabel11021811423D
libRbt.so/2013.1/901 2013/11/27
 42 45  0  0  0  0  0  0  0  0999 V2000
   13.8258    7.8814   12.0331 C   0  0  2  0  0  0  0  0  0  0  0  0
   14.2503    6.6001   12.5023 O   0  0  0  0  0  0  0  0  0  0  0  0
   13.7120    8.8069   13.2713 C   0  0  2  0  0  0  0  0  0  0  0  0
   14.9609    8.8850   13.9853 N   0  0  0  0  0  0  0  0  0  0  0  0
   12.5707    8.2910   14.1946 C   0  0  1  0  0  0  0  0  0  0  0  0
   12.4599    9.1339   15.2987 O   0  0  0  0  0  0  0  0  0  0  0  0
   11.2504    8.2351   13.3559 C   0  0  2  0  0  0  0  0  0  0  0  0
   10.1861    7.7637   14.1552 O   0  0  0  0  0  0  0  0  0  0  0  0
   11.4178    7.3021   12.1184 C   0  0  2  0  0  0  0  0  0  0  0  0
   12.5127    7.7853   11.3344 O   0  0  0  0  0  0  0  0  0  0  0  0
   10.1296    7.2545   11.2331 C   0  0  0  0  0  0  0  0  0  0  0  0
    9.0509    6.6019   11.8900 N   0  0  0  0  0  0  0  0  0  0  0  0
   16.4013    3.3928   10.5681 C   0  0  2  0  0  0  0  0  0  0  0  0
   16.6940    2.2720    9.6660 N   0  0  0  0  0  0  0  0  0  0  0  0
   15.1420    3.0107   11.5170 C   0  0  0  0  0  0  0  0  0  0  0  0
   14.8217    4.2282   12.4775 C   0  0  2  0  0  0  0  0  0  0  0  0
   13.6652    3.9338   13.3420 N   0  0  0  0  0  0  0  0  0  0  0  0
   14.5231    5.5036   11.6191 C   0  0  2  0  0  0  0  0  0  0  0  0
   15.7339    5.8434   10.6883 C   0  0  2  0  0  0  0  0  0  0  0  0
   15.3536    7.0196    9.9327 O   0  0  0  0  0  0  0  0  0  0  0  0
   16.0318    4.6359    9.7424 C   0  0  1  0  0  0  0  0  0  0  0  0
   17.1167    4.9600    8.9401 O   0  0  0  0  0  0  0  0  0  0  0  0
   14.4618    7.0436    8.9127 C   0  0  1  0  0  0  0  0  0  0  0  0
   14.3841    8.4555    8.2754 C   0  0  2  0  0  0  0  0  0  0  0  0
   13.5177    9.3175    8.9547 O   0  0  0  0  0  0  0  0  0  0  0  0
   14.0526    8.0637    6.8474 C   0  0  1  0  0  0  0  0  0  0  0  0
   14.8390    6.7799    6.5471 C   0  0  2  0  0  0  0  0  0  0  0  0
   14.7614    6.1355    7.8185 O   0  0  0  0  0  0  0  0  0  0  0  0
   16.3226    6.9883    6.0888 C   0  0  0  0  0  0  0  0  0  0  0  0
   17.1105    7.2611    7.2778 O   0  0  0  0  0  0  0  0  0  0  0  0
   12.1065    6.9304    5.8229 C   0  0  2  0  0  0  0  0  0  0  0  0
   12.5849    7.8418    6.7740 O   0  0  0  0  0  0  0  0  0  0  0  0
   12.1279    7.5550    4.3603 C   0  0  1  0  0  0  0  0  0  0  0  0
    8.5415    4.5696    7.1730 N   0  0  0  0  0  0  0  0  0  0  0  0
   11.5385    6.4321    3.3562 C   0  0  1  0  0  0  0  0  0  0  0  0
   12.4069    5.1951    3.4708 O   0  0  0  0  0  0  0  0  0  0  0  0
   10.0071    6.0839    3.7559 C   0  0  2  0  0  0  0  0  0  0  0  0
    9.1971    7.2772    3.6295 O   0  0  0  0  0  0  0  0  0  0  0  0
   10.0214    5.4825    5.2718 C   0  0  1  0  0  0  0  0  0  0  0  0
   10.6648    6.4777    6.1979 O   0  0  0  0  0  0  0  0  0  0  0  0
    8.5826    5.1266    5.7860 C   0  0  0  0  0  0  0  0  0  0  0  0
   11.3461    8.8353    4.3369 N   0  0  0  0  0  0  0  0  0  0  0  0
  1  2  1  1  0  0  0
  1  3  1  0  0  0  0
  1 10  1  0  0  0  0
  3  4  1  1  0  0  0
  3  5  1  0  0  0  0
  5  6  1  1  0  0  0
  5  7  1  0  0  0  0
  7  8  1  1  0  0  0
  7  9  1  0  0  0  0
  9 10  1  0  0  0  0
  9 11  1  6  0  0  0
 11 12  1  0  0  0  0
 13 14  1  6  0  0  0
 13 15  1  0  0  0  0
 13 21  1  0  0  0  0
 16 15  1  0  0  0  0
 16 17  1  6  0  0  0
 18  2  1  1  0  0  0
 18 16  1  0  0  0  0
 19 18  1  0  0  0  0
 19 20  1  6  0  0  0
 21 19  1  0  0  0  0
 21 22  1  6  0  0  0
 23 20  1  1  0  0  0
 23 24  1  0  0  0  0
 23 28  1  0  0  0  0
 24 25  1  1  0  0  0
 24 26  1  0  0  0  0
 26 27  1  0  0  0  0
 26 32  1  1  0  0  0
 27 28  1  0  0  0  0
 27 29  1  1  0  0  0
 29 30  1  0  0  0  0
 31 32  1  1  0  0  0
 31 40  1  0  0  0  0
 33 31  1  0  0  0  0
 33 42  1  1  0  0  0
 35 33  1  0  0  0  0
 35 36  1  1  0  0  0
 37 35  1  0  0  0  0
 37 38  1  1  0  0  0
 37 39  1  0  0  0  0
 39 40  1  0  0  0  0
 39 41  1  1  0  0  0
 41 34  1  0  0  0  0
M  END
>  <CHROM.1>
-176.98243032,-68.30726513,-174.40291997,-73.49682267,-175.86156239,-151.44882507
78.72835459,-76.16641368,179.95790464,13.10220847,6.62046561,9.14731597,1.28594043
-0.32081709,1.44142690

>  <Name>
2et4_lig

>  <RI>
0

>  <Rbt.Current_Directory>
/home/itssahil/PROJECTS/Mol_Feturizer/New_Systems/rnas/2et4

>  <Rbt.Executable>
rbdock ($Id: //depot/dev/client3/rdock/2013.1/src/exe/rbdock.cxx#4 $)

>  <Rbt.Library>
libRbt.so (2013.1, Build901 2013/11/27)

>  <Rbt.Parameter_File>
/export/apps/rDock/src/rDock_2013.1_src/data/scripts/dock_solv.prm

>  <Rbt.Receptor>
prm/pocket_docking_5.prm

>  <SCORE>
-13.2339

>  <SCORE.INTER>
-6.97163

>  <SCORE.INTER.CONST>
1

>  <SCORE.INTER.POLAR>
-0.708177

>  <SCORE.INTER.ROT>
9

>  <SCORE.INTER.SOLV>
21.8575

>  <SCORE.INTER.VDW>
-19.173

>  <SCORE.INTER.norm>
-0.165991

>  <SCORE.INTRA>
-6.26232

>  <SCORE.INTRA.DIHEDRAL>
-14.5263

>  <SCORE.INTRA.DIHEDRAL.0>
21.6909

>  <SCORE.INTRA.POLAR>
0

>  <SCORE.INTRA.POLAR.0>
0

>  <SCORE.INTRA.REPUL>
0

>  <SCORE.INTRA.REPUL.0>
0

>  <SCORE.INTRA.SOLV>
-2.27619

>  <SCORE.INTRA.SOLV.lig_0>
-116.606

>  <SCORE.INTRA.VDW>
2.13893

>  <SCORE.INTRA.VDW.0>
-6.01229

>  <SCORE.INTRA.norm>
-0.149103

>  <SCORE.RESTR>
0

>  <SCORE.RESTR.CAVITY>
0

>  <SCORE.RESTR.norm>
0

>  <SCORE.SYSTEM>
0

>  <SCORE.SYSTEM.CONST>
0

>  <SCORE.SYSTEM.DIHEDRAL>
0

>  <SCORE.SYSTEM.SOLV>
0

>  <SCORE.SYSTEM.norm>
0

>  <SCORE.heavy>
42

>  <SCORE.norm>
-0.315094

>  <RMSD>
7.764

$$$$
2et4_lig
 OpenBabel11021811423D
libRbt.so/2013.1/901 2013/11/27
 42 45  0  0  0  0  0  0  0  0999 V2000
   14.4614   11.2592   11.6547 C   0  0  2  0  0  0  0  0  0  0  0  0
   14.2958    9.9845   11.0303 O   0  0  0  0  0  0  0  0  0  0  0  0
   14.1788   11.0676   13.1667 C   0  0  2  0  0  0  0  0  0  0  0  0
   15.0480   10.0727   13.7415 N   0  0  0  0  0  0  0  0  0  0  0  0
   12.6834   10.6863   13.3651 C   0  0  1  0  0  0  0  0  0  0  0  0
   12.4282   10.5305   14.7261 O   0  0  0  0  0  0  0  0  0  0  0  0
   11.8027   11.8085   12.7210 C   0  0  2  0  0  0  0  0  0  0  0  0
   10.4334   11.4988   12.8720 O   0  0  0  0  0  0  0  0  0  0  0  0
   12.1304   11.9703   11.2056 C   0  0  2  0  0  0  0  0  0  0  0  0
   13.5246   12.2629   11.0747 O   0  0  0  0  0  0  0  0  0  0  0  0
   11.2975   13.1128   10.5376 C   0  0  0  0  0  0  0  0  0  0  0  0
   11.1665   12.9311    9.1337 N   0  0  0  0  0  0  0  0  0  0  0  0
   10.0014    9.6450   10.7184 C   0  0  2  0  0  0  0  0  0  0  0  0
    8.6789    9.1108   10.3699 N   0  0  0  0  0  0  0  0  0  0  0  0
   10.8511    9.9163    9.3632 C   0  0  0  0  0  0  0  0  0  0  0  0
   12.2812   10.4785    9.7456 C   0  0  2  0  0  0  0  0  0  0  0  0
   13.0986   10.7158    8.5426 N   0  0  0  0  0  0  0  0  0  0  0  0
   13.0097    9.4549   10.6805 C   0  0  2  0  0  0  0  0  0  0  0  0
   12.1659    9.1807   11.9692 C   0  0  2  0  0  0  0  0  0  0  0  0
   12.9137    8.2184   12.7527 O   0  0  0  0  0  0  0  0  0  0  0  0
   10.7618    8.6196   11.5752 C   0  0  1  0  0  0  0  0  0  0  0  0
   10.0323    8.3996   12.7350 O   0  0  0  0  0  0  0  0  0  0  0  0
   13.8613    7.3787   12.2697 C   0  0  1  0  0  0  0  0  0  0  0  0
   14.7969    6.8850   13.4039 C   0  0  2  0  0  0  0  0  0  0  0  0
   15.8365    7.7767   13.6850 O   0  0  0  0  0  0  0  0  0  0  0  0
   15.1410    5.5110   12.8594 C   0  0  1  0  0  0  0  0  0  0  0  0
   13.8703    4.9701   12.1888 C   0  0  2  0  0  0  0  0  0  0  0  0
   13.3459    6.1770   11.6356 O   0  0  0  0  0  0  0  0  0  0  0  0
   12.8447    4.2744   13.1474 C   0  0  0  0  0  0  0  0  0  0  0  0
   11.8847    3.5679   12.3178 O   0  0  0  0  0  0  0  0  0  0  0  0
   16.6893    4.5481   11.1870 C   0  0  2  0  0  0  0  0  0  0  0  0
   16.2497    5.6814   11.8844 O   0  0  0  0  0  0  0  0  0  0  0  0
   17.0464    4.8996    9.6775 C   0  0  1  0  0  0  0  0  0  0  0  0
   13.5683    1.4336    9.8317 N   0  0  0  0  0  0  0  0  0  0  0  0
   17.5169    3.5239    8.9685 C   0  0  1  0  0  0  0  0  0  0  0  0
   18.7073    2.9822    9.7346 O   0  0  0  0  0  0  0  0  0  0  0  0
   16.3018    2.4516    8.9844 C   0  0  2  0  0  0  0  0  0  0  0  0
   15.1820    2.9874    8.2394 O   0  0  0  0  0  0  0  0  0  0  0  0
   15.9396    2.1454   10.5448 C   0  0  1  0  0  0  0  0  0  0  0  0
   15.6023    3.4348   11.2416 O   0  0  0  0  0  0  0  0  0  0  0  0
   14.7520    1.1310   10.6935 C   0  0  0  0  0  0  0  0  0  0  0  0
   15.8658    5.5355    9.0048 N   0  0  0  0  0  0  0  0  0  0  0  0
  1  2  1  6  0  0  0
  1  3  1  0  0  0  0
  1 10  1  0  0  0  0
  3  4  1  6  0  0  0
  3  5  1  0  0  0  0
  5  6  1  1  0  0  0
  5  7  1  0  0  0  0
  7  8  1  6  0  0  0
  7  9  1  0  0  0  0
  9 10  1  0  0  0  0
  9 11  1  1  0  0  0
 11 12  1  0  0  0  0
 13 14  1  6  0  0  0
 13 15  1  0  0  0  0
 13 21  1  0  0  0  0
 16 15  1  0  0  0  0
 16 17  1  6  0  0  0
 18  2  1  1  0  0  0
 18 16  1  0  0  0  0
 19 18  1  0  0  0  0
 19 20  1  1  0  0  0
 21 19  1  0  0  0  0
 21 22  1  1  0  0  0
 23 20  1  1  0  0  0
 23 24  1  0  0  0  0
 23 28  1  0  0  0  0
 24 25  1  6  0  0  0
 24 26  1  0  0  0  0
 26 27  1  0  0  0  0
 26 32  1  6  0  0  0
 27 28  1  0  0  0  0
 27 29  1  1  0  0  0
 29 30  1  0  0  0  0
 31 32  1  6  0  0  0
 31 40  1  0  0  0  0
 33 31  1  0  0  0  0
 33 42  1  6  0  0  0
 35 33  1  0  0  0  0
 35 36  1  1  0  0  0
 37 35  1  0  0  0  0
 37 38  1  6  0  0  0
 37 39  1  0  0  0  0
 39 40  1  0  0  0  0
 39 41  1  6  0  0  0
 41 34  1  0  0  0  0
M  END
>  <CHROM.1>
80.66769033,-156.23560259,56.34705984,-21.61714920,159.06861305,-176.34671792
-167.04960487,141.60412207,-47.30211401,13.62630537,7.55569931,11.33351197
-2.03156968,0.02077616,-2.98659629

>  <Name>
2et4_lig

>  <RI>
0

>  <Rbt.Current_Directory>
/home/itssahil/PROJECTS/Mol_Feturizer/New_Systems/rnas/2et4

>  <Rbt.Executable>
rbdock ($Id: //depot/dev/client3/rdock/2013.1/src/exe/rbdock.cxx#4 $)

>  <Rbt.Library>
libRbt.so (2013.1, Build901 2013/11/27)

>  <Rbt.Parameter_File>
/export/apps/rDock/src/rDock_2013.1_src/data/scripts/dock_solv.prm

>  <Rbt.Receptor>
prm/blind_docking_40.prm

>  <SCORE>
67.9525

>  <SCORE.INTER>
0.35843

>  <SCORE.INTER.CONST>
1

>  <SCORE.INTER.POLAR>
-0.663248

>  <SCORE.INTER.ROT>
9

>  <SCORE.INTER.SOLV>
26.0501

>  <SCORE.INTER.VDW>
-15.8336

>  <SCORE.INTER.norm>
0.00853405

>  <SCORE.INTRA>
45.5533

>  <SCORE.INTRA.DIHEDRAL>
-4.40681

>  <SCORE.INTRA.DIHEDRAL.0>
21.6909

>  <SCORE.INTRA.POLAR>
0

>  <SCORE.INTRA.POLAR.0>
0

>  <SCORE.INTRA.REPUL>
0

>  <SCORE.INTRA.REPUL.0>
0

>  <SCORE.INTRA.SOLV>
13.6407

>  <SCORE.INTRA.SOLV.lig_0>
-116.606

>  <SCORE.INTRA.VDW>
40.9364

>  <SCORE.INTRA.VDW.0>
-6.01229

>  <SCORE.INTRA.norm>
1.0846

>  <SCORE.RESTR>
22.0407

>  <SCORE.RESTR.CAVITY>
22.0407

>  <SCORE.RESTR.norm>
0.52478

>  <SCORE.SYSTEM>
0

>  <SCORE.SYSTEM.CONST>
0

>  <SCORE.SYSTEM.DIHEDRAL>
0

>  <SCORE.SYSTEM.SOLV>
0

>  <SCORE.SYSTEM.norm>
0

>  <SCORE.heavy>
42

>  <SCORE.norm>
1.61792

>  <RMSD>
7.767

$$$$
2et4_lig
 OpenBabel11021811423D
libRbt.so/2013.1/901 2013/11/27
 42 45  0  0  0  0  0  0  0  0999 V2000
   17.2483    4.8566   10.7364 C   0  0  2  0  0  0  0  0  0  0  0  0
   15.8383    4.7888   10.5136 O   0  0  0  0  0  0  0  0  0  0  0  0
   17.7043    6.2859   10.3469 C   0  0  2  0  0  0  0  0  0  0  0  0
   16.9942    7.2875   11.1008 N   0  0  0  0  0  0  0  0  0  0  0  0
   17.5036    6.4898    8.8174 C   0  0  1  0  0  0  0  0  0  0  0  0
   17.9293    7.7697    8.4673 O   0  0  0  0  0  0  0  0  0  0  0  0
   18.3019    5.3727    8.0659 C   0  0  2  0  0  0  0  0  0  0  0  0
   18.1415    5.5156    6.6704 O   0  0  0  0  0  0  0  0  0  0  0  0
   17.8153    3.9563    8.4983 C   0  0  2  0  0  0  0  0  0  0  0  0
   17.9672    3.8408    9.9161 O   0  0  0  0  0  0  0  0  0  0  0  0
   18.6202    2.8134    7.7974 C   0  0  0  0  0  0  0  0  0  0  0  0
   18.1428    1.5231    8.1557 N   0  0  0  0  0  0  0  0  0  0  0  0
   13.1789    1.4378    9.9199 C   0  0  2  0  0  0  0  0  0  0  0  0
   12.3787    0.2406   10.2068 N   0  0  0  0  0  0  0  0  0  0  0  0
   14.7419    1.1326   10.2301 C   0  0  0  0  0  0  0  0  0  0  0  0
   15.5978    2.4312    9.9328 C   0  0  2  0  0  0  0  0  0  0  0  0
   17.0244    2.2067   10.2262 N   0  0  0  0  0  0  0  0  0  0  0  0
   15.0639    3.6173   10.8050 C   0  0  2  0  0  0  0  0  0  0  0  0
   13.5490    3.8814   10.5169 C   0  0  2  0  0  0  0  0  0  0  0  0
   13.1523    4.9776   11.3773 O   0  0  0  0  0  0  0  0  0  0  0  0
   12.7179    2.5940   10.8223 C   0  0  1  0  0  0  0  0  0  0  0  0
   11.3832    2.8532   10.5449 O   0  0  0  0  0  0  0  0  0  0  0  0
   13.7547    6.1901   11.4330 C   0  0  1  0  0  0  0  0  0  0  0  0
   12.9531    7.1682   12.3309 C   0  0  2  0  0  0  0  0  0  0  0  0
   11.9066    7.8022   11.6543 O   0  0  0  0  0  0  0  0  0  0  0  0
   14.0979    8.0125   12.8594 C   0  0  1  0  0  0  0  0  0  0  0  0
   15.2834    7.0623   13.0792 C   0  0  2  0  0  0  0  0  0  0  0  0
   15.1034    6.1773   11.9737 O   0  0  0  0  0  0  0  0  0  0  0  0
   15.2895    6.2949   14.4452 C   0  0  0  0  0  0  0  0  0  0  0  0
   15.9554    5.0230   14.2262 O   0  0  0  0  0  0  0  0  0  0  0  0
   13.4758   10.0824   11.6552 C   0  0  2  0  0  0  0  0  0  0  0  0
   14.4014    9.0456   11.8350 O   0  0  0  0  0  0  0  0  0  0  0  0
   14.1454   11.3404   10.9491 C   0  0  1  0  0  0  0  0  0  0  0  0
   11.4040   10.7198   15.3768 N   0  0  0  0  0  0  0  0  0  0  0  0
   12.9996   12.4742   10.8138 C   0  0  1  0  0  0  0  0  0  0  0  0
   11.8570   11.8950   10.0037 O   0  0  0  0  0  0  0  0  0  0  0  0
   12.4809   12.9126   12.2853 C   0  0  2  0  0  0  0  0  0  0  0  0
   13.5866   13.4705   13.0351 O   0  0  0  0  0  0  0  0  0  0  0  0
   11.8365   11.5910   12.9909 C   0  0  1  0  0  0  0  0  0  0  0  0
   12.8634   10.4928   13.0265 O   0  0  0  0  0  0  0  0  0  0  0  0
   11.3161   11.8833   14.4418 C   0  0  0  0  0  0  0  0  0  0  0  0
   15.3372   11.7981   11.7372 N   0  0  0  0  0  0  0  0  0  0  0  0
  1  2  1  6  0  0  0
  1  3  1  0  0  0  0
  1 10  1  0  0  0  0
  3  4  1  1  0  0  0
  3  5  1  0  0  0  0
  5  6  1  6  0  0  0
  5  7  1  0  0  0  0
  7  8  1  6  0  0  0
  7  9  1  0  0  0  0
  9 10  1  0  0  0  0
  9 11  1  6  0  0  0
 11 12  1  0  0  0  0
 13 14  1  1  0  0  0
 13 15  1  0  0  0  0
 13 21  1  0  0  0  0
 16 15  1  0  0  0  0
 16 17  1  1  0  0  0
 18  2  1  6  0  0  0
 18 16  1  0  0  0  0
 19 18  1  0  0  0  0
 19 20  1  1  0  0  0
 21 19  1  0  0  0  0
 21 22  1  6  0  0  0
 23 20  1  1  0  0  0
 23 24  1  0  0  0  0
 23 28  1  0  0  0  0
 24 25  1  6  0  0  0
 24 26  1  0  0  0  0
 26 27  1  0  0  0  0
 26 32  1  6  0  0  0
 27 28  1  0  0  0  0
 27 29  1  1  0  0  0
 29 30  1  0  0  0  0
 31 32  1  1  0  0  0
 31 40  1  0  0  0  0
 33 31  1  0  0  0  0
 33 42  1  1  0  0  0
 35 33  1  0  0  0  0
 35 36  1  6  0  0  0
 37 35  1  0  0  0  0
 37 38  1  1  0  0  0
 37 39  1  0  0  0  0
 39 40  1  0  0  0  0
 39 41  1  1  0  0  0
 41 34  1  0  0  0  0
M  END
>  <CHROM.1>
-178.14175836,-177.85679685,-60.94210240,54.72454493,172.78242954,71.16690771
149.99765937,159.59360845,-148.84626398,14.78164939,6.62478345,11.04729029
-1.14450238,0.56164186,0.11630675

>  <Name>
2et4_lig

>  <RI>
0

>  <Rbt.Current_Directory>
/home/itssahil/PROJECTS/Mol_Feturizer/New_Systems/rnas/2et4

>  <Rbt.Executable>
rbdock ($Id: //depot/dev/client3/rdock/2013.1/src/exe/rbdock.cxx#4 $)

>  <Rbt.Library>
libRbt.so (2013.1, Build901 2013/11/27)

>  <Rbt.Parameter_File>
/export/apps/rDock/src/rDock_2013.1_src/data/scripts/dock_solv.prm

>  <Rbt.Receptor>
prm/blind_docking_40.prm

>  <SCORE>
63.6075

>  <SCORE.INTER>
14.9743

>  <SCORE.INTER.CONST>
1

>  <SCORE.INTER.POLAR>
-0.408908

>  <SCORE.INTER.ROT>
9

>  <SCORE.INTER.SOLV>
33.8983

>  <SCORE.INTER.VDW>
-9.55354

>  <SCORE.INTER.norm>
0.356531

>  <SCORE.INTRA>
28.9286

>  <SCORE.INTRA.DIHEDRAL>
-13.2815

>  <SCORE.INTRA.DIHEDRAL.0>
21.6909

>  <SCORE.INTRA.POLAR>
0

>  <SCORE.INTRA.POLAR.0>
0

>  <SCORE.INTRA.REPUL>
0.75428

>  <SCORE.INTRA.REPUL.0>
0

>  <SCORE.INTRA.SOLV>
9.24935

>  <SCORE.INTRA.SOLV.lig_0>
-116.606

>  <SCORE.INTRA.VDW>
27.1733

>  <SCORE.INTRA.VDW.0>
-6.01229

>  <SCORE.INTRA.norm>
0.688776

>  <SCORE.RESTR>
19.7046

>  <SCORE.RESTR.CAVITY>
19.7046

>  <SCORE.RESTR.norm>
0.469158

>  <SCORE.SYSTEM>
0

>  <SCORE.SYSTEM.CONST>
0

>  <SCORE.SYSTEM.DIHEDRAL>
0

>  <SCORE.SYSTEM.SOLV>
0

>  <SCORE.SYSTEM.norm>
0

>  <SCORE.heavy>
42

>  <SCORE.norm>
1.51446

>  <RMSD>
7.775

$$$$
2et4_lig
 OpenBabel11021811423D
libRbt.so/2013.1/901 2013/11/27
 42 45  0  0  0  0  0  0  0  0999 V2000
   14.5380   11.7787   11.0024 C   0  0  2  0  0  0  0  0  0  0  0  0
   14.4455   11.5208   12.4049 O   0  0  0  0  0  0  0  0  0  0  0  0
   13.3601   12.7154   10.6313 C   0  0  2  0  0  0  0  0  0  0  0  0
   13.3932   13.9317   11.4028 N   0  0  0  0  0  0  0  0  0  0  0  0
   12.0169   11.9578   10.8382 C   0  0  1  0  0  0  0  0  0  0  0  0
   10.9606   12.7966   10.4885 O   0  0  0  0  0  0  0  0  0  0  0  0
   12.0516   10.6548    9.9717 C   0  0  2  0  0  0  0  0  0  0  0  0
   10.8510    9.9299   10.1351 O   0  0  0  0  0  0  0  0  0  0  0  0
   13.2573    9.7523   10.3742 C   0  0  2  0  0  0  0  0  0  0  0  0
   14.4599   10.5119   10.2209 O   0  0  0  0  0  0  0  0  0  0  0  0
   13.3478    8.4591    9.4997 C   0  0  0  0  0  0  0  0  0  0  0  0
   13.4008    8.7536    8.1099 N   0  0  0  0  0  0  0  0  0  0  0  0
   12.0995    9.4451   15.3785 C   0  0  2  0  0  0  0  0  0  0  0  0
   11.0574    8.5986   15.9730 N   0  0  0  0  0  0  0  0  0  0  0  0
   11.4077   10.6719   14.5731 C   0  0  0  0  0  0  0  0  0  0  0  0
   12.5355   11.5729   13.9223 C   0  0  2  0  0  0  0  0  0  0  0  0
   11.9499   12.6881   13.1573 N   0  0  0  0  0  0  0  0  0  0  0  0
   13.4204   10.6950   12.9743 C   0  0  2  0  0  0  0  0  0  0  0  0
   14.0576    9.4997   13.7575 C   0  0  2  0  0  0  0  0  0  0  0  0
   14.8376    8.7477   12.7957 O   0  0  0  0  0  0  0  0  0  0  0  0
   12.9323    8.6168   14.3865 C   0  0  1  0  0  0  0  0  0  0  0  0
   13.5262    7.5751   15.0849 O   0  0  0  0  0  0  0  0  0  0  0  0
   14.4457    7.5993   12.1924 C   0  0  1  0  0  0  0  0  0  0  0  0
   15.6204    6.9513   11.4143 C   0  0  2  0  0  0  0  0  0  0  0  0
   15.7872    7.4808   10.1310 O   0  0  0  0  0  0  0  0  0  0  0  0
   15.2347    5.4905   11.5566 C   0  0  1  0  0  0  0  0  0  0  0  0
   14.6428    5.3245   12.9633 C   0  0  2  0  0  0  0  0  0  0  0  0
   13.9591    6.5705   13.0961 O   0  0  0  0  0  0  0  0  0  0  0  0
   15.6847    5.1058   14.1128 C   0  0  0  0  0  0  0  0  0  0  0  0
   15.5196    6.1929   15.0615 O   0  0  0  0  0  0  0  0  0  0  0  0
   14.2581    3.9086    9.9240 C   0  0  2  0  0  0  0  0  0  0  0  0
   14.2363    5.1868   10.4985 O   0  0  0  0  0  0  0  0  0  0  0  0
   13.6249    2.8243   10.9003 C   0  0  1  0  0  0  0  0  0  0  0  0
   18.3581    2.5055    9.6030 N   0  0  0  0  0  0  0  0  0  0  0  0
   13.7227    1.3950   10.1491 C   0  0  1  0  0  0  0  0  0  0  0  0
   12.9730    1.5006    8.8360 O   0  0  0  0  0  0  0  0  0  0  0  0
   15.2759    1.0174    9.8818 C   0  0  2  0  0  0  0  0  0  0  0  0
   15.9673    0.9132   11.1495 O   0  0  0  0  0  0  0  0  0  0  0  0
   15.8994    2.1693    8.9101 C   0  0  1  0  0  0  0  0  0  0  0  0
   15.7185    3.5168    9.5530 O   0  0  0  0  0  0  0  0  0  0  0  0
   17.4172    1.9268    8.5954 C   0  0  0  0  0  0  0  0  0  0  0  0
   14.3352    2.8453   12.2215 N   0  0  0  0  0  0  0  0  0  0  0  0
  1  2  1  1  0  0  0
  1  3  1  0  0  0  0
  1 10  1  0  0  0  0
  3  4  1  1  0  0  0
  3  5  1  0  0  0  0
  5  6  1  6  0  0  0
  5  7  1  0  0  0  0
  7  8  1  1  0  0  0
  7  9  1  0  0  0  0
  9 10  1  0  0  0  0
  9 11  1  6  0  0  0
 11 12  1  0  0  0  0
 13 14  1  6  0  0  0
 13 15  1  0  0  0  0
 13 21  1  0  0  0  0
 16 15  1  0  0  0  0
 16 17  1  6  0  0  0
 18  2  1  1  0  0  0
 18 16  1  0  0  0  0
 19 18  1  0  0  0  0
 19 20  1  6  0  0  0
 21 19  1  0  0  0  0
 21 22  1  1  0  0  0
 23 20  1  1  0  0  0
 23 24  1  0  0  0  0
 23 28  1  0  0  0  0
 24 25  1  6  0  0  0
 24 26  1  0  0  0  0
 26 27  1  0  0  0  0
 26 32  1  6  0  0  0
 27 28  1  0  0  0  0
 27 29  1  1  0  0  0
 29 30  1  0  0  0  0
 31 32  1  1  0  0  0
 31 40  1  0  0  0  0
 33 31  1  0  0  0  0
 33 42  1  1  0  0  0
 35 33  1  0  0  0  0
 35 36  1  6  0  0  0
 37 35  1  0  0  0  0
 37 38  1  1  0  0  0
 37 39  1  0  0  0  0
 39 40  1  0  0  0  0
 39 41  1  1  0  0  0
 41 34  1  0  0  0  0
M  END
>  <CHROM.1>
71.19633514,55.39473612,-116.52387808,-100.50528642,-170.37131784,145.51687373
120.15527101,75.90498804,-86.94131186,13.97598321,7.39445663,11.60918608
-3.00558503,-1.27610883,1.93054150

>  <Name>
2et4_lig

>  <RI>
0

>  <Rbt.Current_Directory>
/home/itssahil/PROJECTS/Mol_Feturizer/New_Systems/rnas/2et4

>  <Rbt.Executable>
rbdock ($Id: //depot/dev/client3/rdock/2013.1/src/exe/rbdock.cxx#4 $)

>  <Rbt.Library>
libRbt.so (2013.1, Build901 2013/11/27)

>  <Rbt.Parameter_File>
/export/apps/rDock/src/rDock_2013.1_src/data/scripts/dock_solv.prm

>  <Rbt.Receptor>
prm/blind_docking_40.prm

>  <SCORE>
54.106

>  <SCORE.INTER>
14.7854

>  <SCORE.INTER.CONST>
1

>  <SCORE.INTER.POLAR>
-0.822815

>  <SCORE.INTER.ROT>
9

>  <SCORE.INTER.SOLV>
28.7023

>  <SCORE.INTER.VDW>
-6.56781

>  <SCORE.INTER.norm>
0.352033

>  <SCORE.INTRA>
20.9391

>  <SCORE.INTRA.DIHEDRAL>
5.08583

>  <SCORE.INTRA.DIHEDRAL.0>
21.6909

>  <SCORE.INTRA.POLAR>
0

>  <SCORE.INTRA.POLAR.0>
0

>  <SCORE.INTRA.REPUL>
0.0403846

>  <SCORE.INTRA.REPUL.0>
0

>  <SCORE.INTRA.SOLV>
11.4627

>  <SCORE.INTRA.SOLV.lig_0>
-116.606

>  <SCORE.INTRA.VDW>
12.4629

>  <SCORE.INTRA.VDW.0>
-6.01229

>  <SCORE.INTRA.norm>
0.49855

>  <SCORE.RESTR>
18.3815

>  <SCORE.RESTR.CAVITY>
18.3815

>  <SCORE.RESTR.norm>
0.437655

>  <SCORE.SYSTEM>
0

>  <SCORE.SYSTEM.CONST>
0

>  <SCORE.SYSTEM.DIHEDRAL>
0

>  <SCORE.SYSTEM.SOLV>
0

>  <SCORE.SYSTEM.norm>
0

>  <SCORE.heavy>
42

>  <SCORE.norm>
1.28824

>  <RMSD>
7.798

$$$$
2et4_lig
 OpenBabel11021811423D
libRbt.so/2013.1/901 2013/11/27
 42 45  0  0  0  0  0  0  0  0999 V2000
   12.3989    4.5197    9.4724 C   0  0  2  0  0  0  0  0  0  0  0  0
   11.7626    3.5745    8.6100 O   0  0  0  0  0  0  0  0  0  0  0  0
   12.7350    5.7665    8.6151 C   0  0  2  0  0  0  0  0  0  0  0  0
   11.5536    6.3144    7.9989 N   0  0  0  0  0  0  0  0  0  0  0  0
   13.7975    5.3825    7.5451 C   0  0  1  0  0  0  0  0  0  0  0  0
   14.1098    6.5088    6.7864 O   0  0  0  0  0  0  0  0  0  0  0  0
   15.0480    4.7998    8.2844 C   0  0  2  0  0  0  0  0  0  0  0  0
   16.0380    4.4300    7.3481 O   0  0  0  0  0  0  0  0  0  0  0  0
   14.6578    3.5565    9.1399 C   0  0  2  0  0  0  0  0  0  0  0  0
   13.6406    3.9481   10.0665 O   0  0  0  0  0  0  0  0  0  0  0  0
   15.8763    2.9720    9.9267 C   0  0  0  0  0  0  0  0  0  0  0  0
   15.5246    1.8205   10.6826 N   0  0  0  0  0  0  0  0  0  0  0  0
    9.4580    0.0617    9.6121 C   0  0  2  0  0  0  0  0  0  0  0  0
    9.1390   -1.3083   10.0330 N   0  0  0  0  0  0  0  0  0  0  0  0
   10.3856    0.0183    8.2817 C   0  0  0  0  0  0  0  0  0  0  0  0
   10.7384    1.4977    7.8410 C   0  0  2  0  0  0  0  0  0  0  0  0
   11.6032    1.5054    6.6478 N   0  0  0  0  0  0  0  0  0  0  0  0
   11.4636    2.2325    9.0185 C   0  0  2  0  0  0  0  0  0  0  0  0
   10.5700    2.2415   10.3028 C   0  0  2  0  0  0  0  0  0  0  0  0
   11.3316    2.9251   11.3283 O   0  0  0  0  0  0  0  0  0  0  0  0
   10.2376    0.7753   10.7287 C   0  0  1  0  0  0  0  0  0  0  0  0
    9.4343    0.8148   11.8595 O   0  0  0  0  0  0  0  0  0  0  0  0
   10.9485    3.0810   12.6187 C   0  0  1  0  0  0  0  0  0  0  0  0
   11.7989    4.1700   13.3233 C   0  0  2  0  0  0  0  0  0  0  0  0
   13.0118    3.6833   13.8202 O   0  0  0  0  0  0  0  0  0  0  0  0
   10.7659    4.6936   14.3040 C   0  0  1  0  0  0  0  0  0  0  0  0
    9.4149    4.6752   13.5750 C   0  0  2  0  0  0  0  0  0  0  0  0
    9.5647    3.4859   12.7998 O   0  0  0  0  0  0  0  0  0  0  0  0
    9.1156    5.9231   12.6762 C   0  0  0  0  0  0  0  0  0  0  0  0
    9.0723    7.0850   13.5464 O   0  0  0  0  0  0  0  0  0  0  0  0
   10.0554    4.1897   16.6197 C   0  0  2  0  0  0  0  0  0  0  0  0
   10.7693    3.7882   15.4825 O   0  0  0  0  0  0  0  0  0  0  0  0
   10.1647    3.1104   17.7829 C   0  0  1  0  0  0  0  0  0  0  0  0
    5.2479    5.6172   17.8650 N   0  0  0  0  0  0  0  0  0  0  0  0
    9.2917    3.6639   19.0272 C   0  0  1  0  0  0  0  0  0  0  0  0
    9.8524    5.0123   19.4332 O   0  0  0  0  0  0  0  0  0  0  0  0
    7.7380    3.8088   18.5898 C   0  0  2  0  0  0  0  0  0  0  0  0
    7.2235    2.5082   18.2161 O   0  0  0  0  0  0  0  0  0  0  0  0
    7.6710    4.8929   17.3732 C   0  0  1  0  0  0  0  0  0  0  0  0
    8.5637    4.4398   16.2507 O   0  0  0  0  0  0  0  0  0  0  0  0
    6.2100    5.1040   16.8420 C   0  0  0  0  0  0  0  0  0  0  0  0
    9.7017    1.7722   17.2873 N   0  0  0  0  0  0  0  0  0  0  0  0
  1  2  1  6  0  0  0
  1  3  1  0  0  0  0
  1 10  1  0  0  0  0
  3  4  1  6  0  0  0
  3  5  1  0  0  0  0
  5  6  1  1  0  0  0
  5  7  1  0  0  0  0
  7  8  1  6  0  0  0
  7  9  1  0  0  0  0
  9 10  1  0  0  0  0
  9 11  1  1  0  0  0
 11 12  1  0  0  0  0
 13 14  1  1  0  0  0
 13 15  1  0  0  0  0
 13 21  1  0  0  0  0
 16 15  1  0  0  0  0
 16 17  1  6  0  0  0
 18  2  1  6  0  0  0
 18 16  1  0  0  0  0
 19 18  1  0  0  0  0
 19 20  1  1  0  0  0
 21 19  1  0  0  0  0
 21 22  1  1  0  0  0
 23 20  1  6  0  0  0
 23 24  1  0  0  0  0
 23 28  1  0  0  0  0
 24 25  1  1  0  0  0
 24 26  1  0  0  0  0
 26 27  1  0  0  0  0
 26 32  1  1  0  0  0
 27 28  1  0  0  0  0
 27 29  1  6  0  0  0
 29 30  1  0  0  0  0
 31 32  1  6  0  0  0
 31 40  1  0  0  0  0
 33 31  1  0  0  0  0
 33 42  1  6  0  0  0
 35 33  1  0  0  0  0
 35 36  1  6  0  0  0
 37 35  1  0  0  0  0
 37 38  1  6  0  0  0
 37 39  1  0  0  0  0
 39 40  1  0  0  0  0
 39 41  1  6  0  0  0
 41 34  1  0  0  0  0
M  END
>  <CHROM.1>
171.83214705,-178.68800940,178.51756656,-175.96504763,-164.58614182,169.67898198
-62.55862153,-179.95583095,60.61246442,10.90312559,3.56990687,12.34137227
-0.81385962,0.81292278,0.89958540

>  <Name>
2et4_lig

>  <RI>
1.79929e+07

>  <Rbt.Current_Directory>
/home/itssahil/PROJECTS/Mol_Feturizer/New_Systems/rnas/2et4

>  <Rbt.Executable>
rbdock ($Id: //depot/dev/client3/rdock/2013.1/src/exe/rbdock.cxx#4 $)

>  <Rbt.Library>
libRbt.so (2013.1, Build901 2013/11/27)

>  <Rbt.Parameter_File>
/export/apps/rDock/src/rDock_2013.1_src/data/scripts/dock_solv.prm

>  <Rbt.Receptor>
prm/pocket_docking_7.prm

>  <SCORE>
-9.19944

>  <SCORE.INTER>
0.6484

>  <SCORE.INTER.CONST>
1

>  <SCORE.INTER.POLAR>
0

>  <SCORE.INTER.ROT>
9

>  <SCORE.INTER.SOLV>
10.4451

>  <SCORE.INTER.VDW>
-12.6494

>  <SCORE.INTER.norm>
0.0154381

>  <SCORE.INTRA>
-9.84784

>  <SCORE.INTRA.DIHEDRAL>
-19.4445

>  <SCORE.INTRA.DIHEDRAL.0>
21.6909

>  <SCORE.INTRA.POLAR>
0

>  <SCORE.INTRA.POLAR.0>
0

>  <SCORE.INTRA.REPUL>
0

>  <SCORE.INTRA.REPUL.0>
0

>  <SCORE.INTRA.SOLV>
-4.71466

>  <SCORE.INTRA.SOLV.lig_0>
-116.606

>  <SCORE.INTRA.VDW>
2.23174

>  <SCORE.INTRA.VDW.0>
-6.01229

>  <SCORE.INTRA.norm>
-0.234472

>  <SCORE.RESTR>
0

>  <SCORE.RESTR.CAVITY>
0

>  <SCORE.RESTR.norm>
0

>  <SCORE.SYSTEM>
0

>  <SCORE.SYSTEM.CONST>
0

>  <SCORE.SYSTEM.DIHEDRAL>
0

>  <SCORE.SYSTEM.SOLV>
0

>  <SCORE.SYSTEM.norm>
0

>  <SCORE.heavy>
42

>  <SCORE.norm>
-0.219034

>  <RMSD>
7.806

$$$$
2et4_lig
 OpenBabel11021811423D
libRbt.so/2013.1/901 2013/11/27
 42 45  0  0  0  0  0  0  0  0999 V2000
   15.2531    2.8665   11.4430 C   0  0  2  0  0  0  0  0  0  0  0  0
   15.7170    3.9768   10.6723 O   0  0  0  0  0  0  0  0  0  0  0  0
   14.5376    1.8990   10.4659 C   0  0  2  0  0  0  0  0  0  0  0  0
   15.4154    1.4829    9.4019 N   0  0  0  0  0  0  0  0  0  0  0  0
   13.2624    2.5894    9.9018 C   0  0  1  0  0  0  0  0  0  0  0  0
   12.6125    1.7116    9.0363 O   0  0  0  0  0  0  0  0  0  0  0  0
   12.3590    3.0099   11.1088 C   0  0  2  0  0  0  0  0  0  0  0  0
   11.1898    3.6490   10.6418 O   0  0  0  0  0  0  0  0  0  0  0  0
   13.1248    3.9723   12.0665 C   0  0  2  0  0  0  0  0  0  0  0  0
   14.3144    3.3136   12.5110 O   0  0  0  0  0  0  0  0  0  0  0  0
   12.2658    4.3811   13.3077 C   0  0  0  0  0  0  0  0  0  0  0  0
   12.4065    3.4626   14.3837 N   0  0  0  0  0  0  0  0  0  0  0  0
   19.3462    4.4180    8.3725 C   0  0  2  0  0  0  0  0  0  0  0  0
   20.3118    4.2830    7.2747 N   0  0  0  0  0  0  0  0  0  0  0  0
   18.9808    2.9493    8.9571 C   0  0  0  0  0  0  0  0  0  0  0  0
   17.9285    3.0999   10.1307 C   0  0  2  0  0  0  0  0  0  0  0  0
   17.5476    1.7847   10.6757 N   0  0  0  0  0  0  0  0  0  0  0  0
   16.6533    3.8344    9.5952 C   0  0  2  0  0  0  0  0  0  0  0  0
   17.0245    5.2365    9.0085 C   0  0  2  0  0  0  0  0  0  0  0  0
   15.7884    5.8221    8.5307 O   0  0  0  0  0  0  0  0  0  0  0  0
   18.0567    5.0700    7.8474 C   0  0  1  0  0  0  0  0  0  0  0  0
   18.3772    6.3279    7.3569 O   0  0  0  0  0  0  0  0  0  0  0  0
   15.1561    6.8842    9.0862 C   0  0  1  0  0  0  0  0  0  0  0  0
   13.7015    6.5202    9.4824 C   0  0  2  0  0  0  0  0  0  0  0  0
   12.7988    6.6329    8.4206 O   0  0  0  0  0  0  0  0  0  0  0  0
   13.5359    7.4356   10.6813 C   0  0  1  0  0  0  0  0  0  0  0  0
   14.8861    7.4564   11.4116 C   0  0  2  0  0  0  0  0  0  0  0  0
   15.7751    7.3985   10.2962 O   0  0  0  0  0  0  0  0  0  0  0  0
   15.1302    6.2769   12.4135 C   0  0  0  0  0  0  0  0  0  0  0  0
   14.3366    6.5434   13.6002 O   0  0  0  0  0  0  0  0  0  0  0  0
   12.7610    9.7478   11.0992 C   0  0  2  0  0  0  0  0  0  0  0  0
   13.1648    8.7805   10.1691 O   0  0  0  0  0  0  0  0  0  0  0  0
   11.8670   10.8714   10.4150 C   0  0  1  0  0  0  0  0  0  0  0  0
   15.6700   13.1263   12.6527 N   0  0  0  0  0  0  0  0  0  0  0  0
   11.4802   11.9376   11.5683 C   0  0  1  0  0  0  0  0  0  0  0  0
   10.7414   11.1975   12.6655 O   0  0  0  0  0  0  0  0  0  0  0  0
   12.8245   12.6236   12.1587 C   0  0  2  0  0  0  0  0  0  0  0  0
   13.5064   13.3312   11.0954 O   0  0  0  0  0  0  0  0  0  0  0  0
   13.7306   11.4381   12.8169 C   0  0  1  0  0  0  0  0  0  0  0  0
   14.0081   10.3863   11.7782 O   0  0  0  0  0  0  0  0  0  0  0  0
   15.0812   11.9768   13.4060 C   0  0  0  0  0  0  0  0  0  0  0  0
   12.6084   11.4890    9.2662 N   0  0  0  0  0  0  0  0  0  0  0  0
  1  2  1  6  0  0  0
  1  3  1  0  0  0  0
  1 10  1  0  0  0  0
  3  4  1  6  0  0  0
  3  5  1  0  0  0  0
  5  6  1  6  0  0  0
  5  7  1  0  0  0  0
  7  8  1  6  0  0  0
  7  9  1  0  0  0  0
  9 10  1  0  0  0  0
  9 11  1  1  0  0  0
 11 12  1  0  0  0  0
 13 14  1  6  0  0  0
 13 15  1  0  0  0  0
 13 21  1  0  0  0  0
 16 15  1  0  0  0  0
 16 17  1  6  0  0  0
 18  2  1  1  0  0  0
 18 16  1  0  0  0  0
 19 18  1  0  0  0  0
 19 20  1  6  0  0  0
 21 19  1  0  0  0  0
 21 22  1  1  0  0  0
 23 20  1  1  0  0  0
 23 24  1  0  0  0  0
 23 28  1  0  0  0  0
 24 25  1  6  0  0  0
 24 26  1  0  0  0  0
 26 27  1  0  0  0  0
 26 32  1  6  0  0  0
 27 28  1  0  0  0  0
 27 29  1  1  0  0  0
 29 30  1  0  0  0  0
 31 32  1  6  0  0  0
 31 40  1  0  0  0  0
 33 31  1  0  0  0  0
 33 42  1  6  0  0  0
 35 33  1  0  0  0  0
 35 36  1  1  0  0  0
 37 35  1  0  0  0  0
 37 38  1  6  0  0  0
 37 39  1  0  0  0  0
 39 40  1  0  0  0  0
 39 41  1  6  0  0  0
 41 34  1  0  0  0  0
M  END
>  <CHROM.1>
-60.73788717,88.09963498,-54.92763013,110.49934784,-122.91409576,170.56411869
-75.30579519,-156.96557430,-33.66390763,14.62287672,6.47712098,10.64771888
1.16799910,-0.52595919,-3.11641865

>  <Name>
2et4_lig

>  <RI>
0

>  <Rbt.Current_Directory>
/home/itssahil/PROJECTS/Mol_Feturizer/New_Systems/rnas/2et4

>  <Rbt.Executable>
rbdock ($Id: //depot/dev/client3/rdock/2013.1/src/exe/rbdock.cxx#4 $)

>  <Rbt.Library>
libRbt.so (2013.1, Build901 2013/11/27)

>  <Rbt.Parameter_File>
/export/apps/rDock/src/rDock_2013.1_src/data/scripts/dock_solv.prm

>  <Rbt.Receptor>
prm/blind_docking_40.prm

>  <SCORE>
28.3028

>  <SCORE.INTER>
5.50494

>  <SCORE.INTER.CONST>
1

>  <SCORE.INTER.POLAR>
-1.74759

>  <SCORE.INTER.ROT>
9

>  <SCORE.INTER.SOLV>
36.4561

>  <SCORE.INTER.VDW>
-12.2568

>  <SCORE.INTER.norm>
0.13107

>  <SCORE.INTRA>
5.48342

>  <SCORE.INTRA.DIHEDRAL>
0.559634

>  <SCORE.INTRA.DIHEDRAL.0>
21.6909

>  <SCORE.INTRA.POLAR>
0

>  <SCORE.INTRA.POLAR.0>
0

>  <SCORE.INTRA.REPUL>
0

>  <SCORE.INTRA.REPUL.0>
0

>  <SCORE.INTRA.SOLV>
5.3296

>  <SCORE.INTRA.SOLV.lig_0>
-116.606

>  <SCORE.INTRA.VDW>
2.53881

>  <SCORE.INTRA.VDW.0>
-6.01229

>  <SCORE.INTRA.norm>
0.130558

>  <SCORE.RESTR>
17.3144

>  <SCORE.RESTR.CAVITY>
17.3144

>  <SCORE.RESTR.norm>
0.412249

>  <SCORE.SYSTEM>
0

>  <SCORE.SYSTEM.CONST>
0

>  <SCORE.SYSTEM.DIHEDRAL>
0

>  <SCORE.SYSTEM.SOLV>
0

>  <SCORE.SYSTEM.norm>
0

>  <SCORE.heavy>
42

>  <SCORE.norm>
0.673876

>  <RMSD>
7.814

$$$$
2et4_lig
 OpenBabel11021811423D
libRbt.so/2013.1/901 2013/11/27
 42 45  0  0  0  0  0  0  0  0999 V2000
   11.9555    9.2397    9.5356 C   0  0  2  0  0  0  0  0  0  0  0  0
   12.2762    8.6887   10.8146 O   0  0  0  0  0  0  0  0  0  0  0  0
   11.8770   10.7782    9.7074 C   0  0  2  0  0  0  0  0  0  0  0  0
   13.1101   11.3124   10.2267 N   0  0  0  0  0  0  0  0  0  0  0  0
   10.6793   11.1305   10.6363 C   0  0  1  0  0  0  0  0  0  0  0  0
   10.6012   12.5147   10.7760 O   0  0  0  0  0  0  0  0  0  0  0  0
    9.3796   10.5230   10.0105 C   0  0  2  0  0  0  0  0  0  0  0  0
    8.2651   10.8133   10.8272 O   0  0  0  0  0  0  0  0  0  0  0  0
    9.5111    8.9782    9.8482 C   0  0  2  0  0  0  0  0  0  0  0  0
   10.6567    8.7063    9.0355 O   0  0  0  0  0  0  0  0  0  0  0  0
    8.2452    8.3417    9.1866 C   0  0  0  0  0  0  0  0  0  0  0  0
    8.3625    6.9314    9.0508 N   0  0  0  0  0  0  0  0  0  0  0  0
   14.4073    5.3361   12.5097 C   0  0  2  0  0  0  0  0  0  0  0  0
   14.9214    3.9724   12.6877 N   0  0  0  0  0  0  0  0  0  0  0  0
   12.7854    5.3134   12.5460 C   0  0  0  0  0  0  0  0  0  0  0  0
   12.2364    6.7841   12.3391 C   0  0  2  0  0  0  0  0  0  0  0  0
   10.7629    6.8069   12.3395 N   0  0  0  0  0  0  0  0  0  0  0  0
   12.7689    7.3520   10.9802 C   0  0  2  0  0  0  0  0  0  0  0  0
   14.3331    7.3411   10.9477 C   0  0  2  0  0  0  0  0  0  0  0  0
   14.7207    7.8669    9.6545 O   0  0  0  0  0  0  0  0  0  0  0  0
   14.8582    5.8828   11.1452 C   0  0  1  0  0  0  0  0  0  0  0  0
   16.2455    5.9060   11.1260 O   0  0  0  0  0  0  0  0  0  0  0  0
   14.3471    7.3580    8.4555 C   0  0  1  0  0  0  0  0  0  0  0  0
   14.7448    8.3114    7.2987 C   0  0  2  0  0  0  0  0  0  0  0  0
   13.8081    9.3253    7.0763 O   0  0  0  0  0  0  0  0  0  0  0  0
   14.9844    7.2865    6.2055 C   0  0  1  0  0  0  0  0  0  0  0  0
   15.6312    6.0668    6.8769 C   0  0  2  0  0  0  0  0  0  0  0  0
   14.9406    6.0730    8.1262 O   0  0  0  0  0  0  0  0  0  0  0  0
   17.1841    6.1460    7.0689 C   0  0  0  0  0  0  0  0  0  0  0  0
   17.7787    6.2798    5.7507 O   0  0  0  0  0  0  0  0  0  0  0  0
   13.6483    6.4077    4.3177 C   0  0  2  0  0  0  0  0  0  0  0  0
   13.6649    6.9528    5.6087 O   0  0  0  0  0  0  0  0  0  0  0  0
   12.1790    5.9723    3.8920 C   0  0  1  0  0  0  0  0  0  0  0  0
   16.0079    2.6420    1.6839 N   0  0  0  0  0  0  0  0  0  0  0  0
   12.2829    5.3416    2.4060 C   0  0  1  0  0  0  0  0  0  0  0  0
   12.8642    6.3967    1.4860 O   0  0  0  0  0  0  0  0  0  0  0  0
   13.2334    4.0292    2.4289 C   0  0  2  0  0  0  0  0  0  0  0  0
   12.6529    3.0341    3.3058 O   0  0  0  0  0  0  0  0  0  0  0  0
   14.7179    4.5082    2.9051 C   0  0  1  0  0  0  0  0  0  0  0  0
   14.6176    5.1917    4.2410 O   0  0  0  0  0  0  0  0  0  0  0  0
   15.7312    3.3136    2.9908 C   0  0  0  0  0  0  0  0  0  0  0  0
   11.6142    5.0154    4.9000 N   0  0  0  0  0  0  0  0  0  0  0  0
  1  2  1  1  0  0  0
  1  3  1  0  0  0  0
  1 10  1  0  0  0  0
  3  4  1  1  0  0  0
  3  5  1  0  0  0  0
  5  6  1  6  0  0  0
  5  7  1  0  0  0  0
  7  8  1  1  0  0  0
  7  9  1  0  0  0  0
  9 10  1  0  0  0  0
  9 11  1  6  0  0  0
 11 12  1  0  0  0  0
 13 14  1  6  0  0  0
 13 15  1  0  0  0  0
 13 21  1  0  0  0  0
 16 15  1  0  0  0  0
 16 17  1  6  0  0  0
 18  2  1  1  0  0  0
 18 16  1  0  0  0  0
 19 18  1  0  0  0  0
 19 20  1  6  0  0  0
 21 19  1  0  0  0  0
 21 22  1  1  0  0  0
 23 20  1  1  0  0  0
 23 24  1  0  0  0  0
 23 28  1  0  0  0  0
 24 25  1  6  0  0  0
 24 26  1  0  0  0  0
 26 27  1  0  0  0  0
 26 32  1  1  0  0  0
 27 28  1  0  0  0  0
 27 29  1  1  0  0  0
 29 30  1  0  0  0  0
 31 32  1  1  0  0  0
 31 40  1  0  0  0  0
 33 31  1  0  0  0  0
 33 42  1  1  0  0  0
 35 33  1  0  0  0  0
 35 36  1  6  0  0  0
 37 35  1  0  0  0  0
 37 38  1  1  0  0  0
 37 39  1  0  0  0  0
 39 40  1  0  0  0  0
 39 41  1  1  0  0  0
 41 34  1  0  0  0  0
M  END
>  <CHROM.1>
-163.32025775,-179.46357518,-146.74518682,-57.57743853,170.25452446,158.39986478
-60.29270380,174.13814898,63.47132930,13.09697547,7.06416763,7.90700271,2.01293291
-0.61120084,1.31611307

>  <Name>
2et4_lig

>  <RI>
0

>  <Rbt.Current_Directory>
/home/itssahil/PROJECTS/Mol_Feturizer/New_Systems/rnas/2et4

>  <Rbt.Executable>
rbdock ($Id: //depot/dev/client3/rdock/2013.1/src/exe/rbdock.cxx#4 $)

>  <Rbt.Library>
libRbt.so (2013.1, Build901 2013/11/27)

>  <Rbt.Parameter_File>
/export/apps/rDock/src/rDock_2013.1_src/data/scripts/dock_solv.prm

>  <Rbt.Receptor>
prm/pocket_docking_8.prm

>  <SCORE>
-17.3649

>  <SCORE.INTER>
-10.365

>  <SCORE.INTER.CONST>
1

>  <SCORE.INTER.POLAR>
-1.80918

>  <SCORE.INTER.ROT>
9

>  <SCORE.INTER.SOLV>
13.3933

>  <SCORE.INTER.VDW>
-14.9438

>  <SCORE.INTER.norm>
-0.246786

>  <SCORE.INTRA>
-6.99984

>  <SCORE.INTRA.DIHEDRAL>
-13.2809

>  <SCORE.INTRA.DIHEDRAL.0>
21.6909

>  <SCORE.INTRA.POLAR>
0

>  <SCORE.INTRA.POLAR.0>
0

>  <SCORE.INTRA.REPUL>
0

>  <SCORE.INTRA.REPUL.0>
0

>  <SCORE.INTRA.SOLV>
-1.94414

>  <SCORE.INTRA.SOLV.lig_0>
-116.606

>  <SCORE.INTRA.VDW>
0.612691

>  <SCORE.INTRA.VDW.0>
-6.01229

>  <SCORE.INTRA.norm>
-0.166663

>  <SCORE.RESTR>
0

>  <SCORE.RESTR.CAVITY>
0

>  <SCORE.RESTR.norm>
0

>  <SCORE.SYSTEM>
0

>  <SCORE.SYSTEM.CONST>
0

>  <SCORE.SYSTEM.DIHEDRAL>
0

>  <SCORE.SYSTEM.SOLV>
0

>  <SCORE.SYSTEM.norm>
0

>  <SCORE.heavy>
42

>  <SCORE.norm>
-0.413449

>  <RMSD>
7.863

$$$$
2et4_lig
 OpenBabel11021811423D
libRbt.so/2013.1/901 2013/11/27
 42 45  0  0  0  0  0  0  0  0999 V2000
   12.2504   10.2189   11.6244 C   0  0  2  0  0  0  0  0  0  0  0  0
   13.5081    9.5651   11.8059 O   0  0  0  0  0  0  0  0  0  0  0  0
   12.5317   11.5557   10.8921 C   0  0  2  0  0  0  0  0  0  0  0  0
   13.2068   11.3359    9.6384 N   0  0  0  0  0  0  0  0  0  0  0  0
   13.3654   12.4846   11.8213 C   0  0  1  0  0  0  0  0  0  0  0  0
   13.6030   13.6916   11.1668 O   0  0  0  0  0  0  0  0  0  0  0  0
   12.5725   12.6798   13.1567 C   0  0  2  0  0  0  0  0  0  0  0  0
   13.2981   13.5132   14.0356 O   0  0  0  0  0  0  0  0  0  0  0  0
   12.3053   11.3091   13.8492 C   0  0  2  0  0  0  0  0  0  0  0  0
   11.5881   10.4744   12.9350 O   0  0  0  0  0  0  0  0  0  0  0  0
   11.4780   11.4621   15.1674 C   0  0  0  0  0  0  0  0  0  0  0  0
   10.2045   12.0503   14.9365 N   0  0  0  0  0  0  0  0  0  0  0  0
   15.1465    5.6414   12.5641 C   0  0  2  0  0  0  0  0  0  0  0  0
   15.2704    4.2705   13.0751 N   0  0  0  0  0  0  0  0  0  0  0  0
   15.0197    6.6747   13.8085 C   0  0  0  0  0  0  0  0  0  0  0  0
   14.8718    8.1495   13.2515 C   0  0  2  0  0  0  0  0  0  0  0  0
   14.7275    9.1211   14.3500 N   0  0  0  0  0  0  0  0  0  0  0  0
   13.6197    8.2286   12.3142 C   0  0  2  0  0  0  0  0  0  0  0  0
   13.7420    7.2071   11.1355 C   0  0  2  0  0  0  0  0  0  0  0  0
   12.5375    7.3484   10.3428 O   0  0  0  0  0  0  0  0  0  0  0  0
   13.8792    5.7571   11.7014 C   0  0  1  0  0  0  0  0  0  0  0  0
   13.9997    4.8762   10.6360 O   0  0  0  0  0  0  0  0  0  0  0  0
   12.2745    6.6883    9.1890 C   0  0  1  0  0  0  0  0  0  0  0  0
   10.8175    6.9434    8.7224 C   0  0  2  0  0  0  0  0  0  0  0  0
    9.8891    6.0944    9.3325 O   0  0  0  0  0  0  0  0  0  0  0  0
   11.0186    6.8469    7.2214 C   0  0  1  0  0  0  0  0  0  0  0  0
   12.3824    7.4823    6.9161 C   0  0  2  0  0  0  0  0  0  0  0  0
   13.1171    7.0629    8.0659 O   0  0  0  0  0  0  0  0  0  0  0  0
   12.3814    9.0415    6.7617 C   0  0  0  0  0  0  0  0  0  0  0  0
   13.7549    9.4568    6.5377 O   0  0  0  0  0  0  0  0  0  0  0  0
   11.2805    5.0578    5.5325 C   0  0  2  0  0  0  0  0  0  0  0  0
   10.9875    5.4061    6.8580 O   0  0  0  0  0  0  0  0  0  0  0  0
   10.1653    5.5938    4.5330 C   0  0  1  0  0  0  0  0  0  0  0  0
   12.8990    0.9014    5.0259 N   0  0  0  0  0  0  0  0  0  0  0  0
   10.5920    5.1182    3.0469 C   0  0  1  0  0  0  0  0  0  0  0  0
   11.9634    5.6891    2.7452 O   0  0  0  0  0  0  0  0  0  0  0  0
   10.6277    3.4996    2.9747 C   0  0  2  0  0  0  0  0  0  0  0  0
    9.3063    2.9795    3.2568 O   0  0  0  0  0  0  0  0  0  0  0  0
   11.7533    2.9868    4.0376 C   0  0  1  0  0  0  0  0  0  0  0  0
   11.4230    3.5125    5.4075 O   0  0  0  0  0  0  0  0  0  0  0  0
   11.8664    1.4226    4.0785 C   0  0  0  0  0  0  0  0  0  0  0  0
    8.8159    5.0870    4.9491 N   0  0  0  0  0  0  0  0  0  0  0  0
  1  2  1  1  0  0  0
  1  3  1  0  0  0  0
  1 10  1  0  0  0  0
  3  4  1  6  0  0  0
  3  5  1  0  0  0  0
  5  6  1  6  0  0  0
  5  7  1  0  0  0  0
  7  8  1  1  0  0  0
  7  9  1  0  0  0  0
  9 10  1  0  0  0  0
  9 11  1  1  0  0  0
 11 12  1  0  0  0  0
 13 14  1  1  0  0  0
 13 15  1  0  0  0  0
 13 21  1  0  0  0  0
 16 15  1  0  0  0  0
 16 17  1  1  0  0  0
 18  2  1  6  0  0  0
 18 16  1  0  0  0  0
 19 18  1  0  0  0  0
 19 20  1  6  0  0  0
 21 19  1  0  0  0  0
 21 22  1  6  0  0  0
 23 20  1  1  0  0  0
 23 24  1  0  0  0  0
 23 28  1  0  0  0  0
 24 25  1  1  0  0  0
 24 26  1  0  0  0  0
 26 27  1  0  0  0  0
 26 32  1  1  0  0  0
 27 28  1  0  0  0  0
 27 29  1  1  0  0  0
 29 30  1  0  0  0  0
 31 32  1  1  0  0  0
 31 40  1  0  0  0  0
 33 31  1  0  0  0  0
 33 42  1  1  0  0  0
 35 33  1  0  0  0  0
 35 36  1  1  0  0  0
 37 35  1  0  0  0  0
 37 38  1  1  0  0  0
 37 39  1  0  0  0  0
 39 40  1  0  0  0  0
 39 41  1  1  0  0  0
 41 34  1  0  0  0  0
M  END
>  <CHROM.1>
-172.69851931,60.22324906,-142.13111418,176.60919515,172.30403903,-174.03106971
177.51855594,-66.47368739,179.22823492,12.37542767,7.49356031,9.24954515
1.17356828,-1.11109502,0.53877580

>  <Name>
2et4_lig

>  <RI>
1.79929e+07

>  <Rbt.Current_Directory>
/home/itssahil/PROJECTS/Mol_Feturizer/New_Systems/rnas/2et4

>  <Rbt.Executable>
rbdock ($Id: //depot/dev/client3/rdock/2013.1/src/exe/rbdock.cxx#4 $)

>  <Rbt.Library>
libRbt.so (2013.1, Build901 2013/11/27)

>  <Rbt.Parameter_File>
/export/apps/rDock/src/rDock_2013.1_src/data/scripts/dock_solv.prm

>  <Rbt.Receptor>
prm/pocket_docking_7.prm

>  <SCORE>
-17.2369

>  <SCORE.INTER>
-10.4329

>  <SCORE.INTER.CONST>
1

>  <SCORE.INTER.POLAR>
-2.49936

>  <SCORE.INTER.ROT>
9

>  <SCORE.INTER.SOLV>
19.4799

>  <SCORE.INTER.VDW>
-14.7174

>  <SCORE.INTER.norm>
-0.248403

>  <SCORE.INTRA>
-6.94572

>  <SCORE.INTRA.DIHEDRAL>
-15.4751

>  <SCORE.INTRA.DIHEDRAL.0>
21.6909

>  <SCORE.INTRA.POLAR>
0

>  <SCORE.INTRA.POLAR.0>
0

>  <SCORE.INTRA.REPUL>
0

>  <SCORE.INTRA.REPUL.0>
0

>  <SCORE.INTRA.SOLV>
-1.31197

>  <SCORE.INTRA.SOLV.lig_0>
-116.606

>  <SCORE.INTRA.VDW>
1.44783

>  <SCORE.INTRA.VDW.0>
-6.01229

>  <SCORE.INTRA.norm>
-0.165374

>  <SCORE.RESTR>
0.141797

>  <SCORE.RESTR.CAVITY>
0.141797

>  <SCORE.RESTR.norm>
0.00337611

>  <SCORE.SYSTEM>
0

>  <SCORE.SYSTEM.CONST>
0

>  <SCORE.SYSTEM.DIHEDRAL>
0

>  <SCORE.SYSTEM.SOLV>
0

>  <SCORE.SYSTEM.norm>
0

>  <SCORE.heavy>
42

>  <SCORE.norm>
-0.410401

>  <RMSD>
7.867

$$$$
2et4_lig
 OpenBabel11021811423D
libRbt.so/2013.1/901 2013/11/27
 42 45  0  0  0  0  0  0  0  0999 V2000
   13.9030    9.0079    8.0525 C   0  0  2  0  0  0  0  0  0  0  0  0
   14.4641    8.3462    9.1881 O   0  0  0  0  0  0  0  0  0  0  0  0
   12.6305    8.2208    7.6476 C   0  0  2  0  0  0  0  0  0  0  0  0
   11.6927    8.1412    8.7385 N   0  0  0  0  0  0  0  0  0  0  0  0
   13.0390    6.8021    7.1561 C   0  0  1  0  0  0  0  0  0  0  0  0
   11.8948    6.1026    6.7776 O   0  0  0  0  0  0  0  0  0  0  0  0
   14.0520    6.9666    5.9743 C   0  0  2  0  0  0  0  0  0  0  0  0
   14.4564    5.6996    5.5005 O   0  0  0  0  0  0  0  0  0  0  0  0
   15.3074    7.7721    6.4272 C   0  0  2  0  0  0  0  0  0  0  0  0
   14.8736    9.0425    6.9219 O   0  0  0  0  0  0  0  0  0  0  0  0
   16.3239    7.9920    5.2593 C   0  0  0  0  0  0  0  0  0  0  0  0
   15.7757    8.7822    4.2123 N   0  0  0  0  0  0  0  0  0  0  0  0
   14.0025    8.8205   13.4562 C   0  0  2  0  0  0  0  0  0  0  0  0
   13.3787    8.8397   14.7852 N   0  0  0  0  0  0  0  0  0  0  0  0
   13.2304    9.8609   12.4796 C   0  0  0  0  0  0  0  0  0  0  0  0
   13.8980    9.8253   11.0442 C   0  0  2  0  0  0  0  0  0  0  0  0
   13.2101   10.7390   10.1148 N   0  0  0  0  0  0  0  0  0  0  0  0
   13.8426    8.3652   10.4806 C   0  0  2  0  0  0  0  0  0  0  0  0
   14.5654    7.3687   11.4461 C   0  0  2  0  0  0  0  0  0  0  0  0
   14.4456    6.0555   10.8460 O   0  0  0  0  0  0  0  0  0  0  0  0
   13.8903    7.4100   12.8547 C   0  0  1  0  0  0  0  0  0  0  0  0
   14.5597    6.5287   13.6918 O   0  0  0  0  0  0  0  0  0  0  0  0
   15.3263    5.5067    9.9746 C   0  0  1  0  0  0  0  0  0  0  0  0
   16.6149    5.0445   10.7037 C   0  0  2  0  0  0  0  0  0  0  0  0
   17.5449    6.0736   10.8801 O   0  0  0  0  0  0  0  0  0  0  0  0
   16.9880    3.8667    9.8225 C   0  0  1  0  0  0  0  0  0  0  0  0
   15.6736    3.1899    9.4090 C   0  0  2  0  0  0  0  0  0  0  0  0
   14.8355    4.3366    9.2663 O   0  0  0  0  0  0  0  0  0  0  0  0
   15.0886    2.1649   10.4394 C   0  0  0  0  0  0  0  0  0  0  0  0
   16.0342    1.0678   10.5457 O   0  0  0  0  0  0  0  0  0  0  0  0
   18.4336    3.4949    7.8494 C   0  0  2  0  0  0  0  0  0  0  0  0
   17.7258    4.4025    8.6489 O   0  0  0  0  0  0  0  0  0  0  0  0
   19.9530    3.3834    8.3062 C   0  0  1  0  0  0  0  0  0  0  0  0
   19.3786    4.9829    3.7199 N   0  0  0  0  0  0  0  0  0  0  0  0
   20.6729    2.3340    7.3076 C   0  0  1  0  0  0  0  0  0  0  0  0
   19.9395    1.0111    7.4059 O   0  0  0  0  0  0  0  0  0  0  0  0
   20.6214    2.8945    5.7878 C   0  0  2  0  0  0  0  0  0  0  0  0
   21.3355    4.1520    5.7179 O   0  0  0  0  0  0  0  0  0  0  0  0
   19.0510    3.0308    5.3693 C   0  0  1  0  0  0  0  0  0  0  0  0
   18.3469    3.9224    6.3548 O   0  0  0  0  0  0  0  0  0  0  0  0
   18.8676    3.5914    3.9155 C   0  0  0  0  0  0  0  0  0  0  0  0
   20.5934    4.7401    8.2965 N   0  0  0  0  0  0  0  0  0  0  0  0
  1  2  1  1  0  0  0
  1  3  1  0  0  0  0
  1 10  1  0  0  0  0
  3  4  1  1  0  0  0
  3  5  1  0  0  0  0
  5  6  1  6  0  0  0
  5  7  1  0  0  0  0
  7  8  1  1  0  0  0
  7  9  1  0  0  0  0
  9 10  1  0  0  0  0
  9 11  1  6  0  0  0
 11 12  1  0  0  0  0
 13 14  1  1  0  0  0
 13 15  1  0  0  0  0
 13 21  1  0  0  0  0
 16 15  1  0  0  0  0
 16 17  1  6  0  0  0
 18  2  1  6  0  0  0
 18 16  1  0  0  0  0
 19 18  1  0  0  0  0
 19 20  1  6  0  0  0
 21 19  1  0  0  0  0
 21 22  1  1  0  0  0
 23 20  1  1  0  0  0
 23 24  1  0  0  0  0
 23 28  1  0  0  0  0
 24 25  1  6  0  0  0
 24 26  1  0  0  0  0
 26 27  1  0  0  0  0
 26 32  1  6  0  0  0
 27 28  1  0  0  0  0
 27 29  1  1  0  0  0
 29 30  1  0  0  0  0
 31 32  1  1  0  0  0
 31 40  1  0  0  0  0
 33 31  1  0  0  0  0
 33 42  1  6  0  0  0
 35 33  1  0  0  0  0
 35 36  1  6  0  0  0
 37 35  1  0  0  0  0
 37 38  1  1  0  0  0
 37 39  1  0  0  0  0
 39 40  1  0  0  0  0
 39 41  1  6  0  0  0
 41 34  1  0  0  0  0
M  END
>  <CHROM.1>
-70.18108822,63.64189054,-67.47937255,89.78134029,74.67162943,165.86974377
-64.31680083,-93.61387907,-63.54178973,15.97455742,5.91359566,8.62740581
2.80677066,-0.81368692,1.85237914

>  <Name>
2et4_lig

>  <RI>
0

>  <Rbt.Current_Directory>
/home/itssahil/PROJECTS/Mol_Feturizer/New_Systems/rnas/2et4

>  <Rbt.Executable>
rbdock ($Id: //depot/dev/client3/rdock/2013.1/src/exe/rbdock.cxx#4 $)

>  <Rbt.Library>
libRbt.so (2013.1, Build901 2013/11/27)

>  <Rbt.Parameter_File>
/export/apps/rDock/src/rDock_2013.1_src/data/scripts/dock_solv.prm

>  <Rbt.Receptor>
prm/pocket_docking_6.prm

>  <SCORE>
-15.8045

>  <SCORE.INTER>
-12.8531

>  <SCORE.INTER.CONST>
1

>  <SCORE.INTER.POLAR>
-2.16429

>  <SCORE.INTER.ROT>
9

>  <SCORE.INTER.SOLV>
22.5558

>  <SCORE.INTER.VDW>
-18.4731

>  <SCORE.INTER.norm>
-0.306026

>  <SCORE.INTRA>
-2.95141

>  <SCORE.INTRA.DIHEDRAL>
-10.8218

>  <SCORE.INTRA.DIHEDRAL.0>
21.6909

>  <SCORE.INTRA.POLAR>
0

>  <SCORE.INTRA.POLAR.0>
0

>  <SCORE.INTRA.REPUL>
0.00485555

>  <SCORE.INTRA.REPUL.0>
0

>  <SCORE.INTRA.SOLV>
2.178

>  <SCORE.INTRA.SOLV.lig_0>
-116.606

>  <SCORE.INTRA.VDW>
1.34622

>  <SCORE.INTRA.VDW.0>
-6.01229

>  <SCORE.INTRA.norm>
-0.0702717

>  <SCORE.RESTR>
0

>  <SCORE.RESTR.CAVITY>
0

>  <SCORE.RESTR.norm>
0

>  <SCORE.SYSTEM>
0

>  <SCORE.SYSTEM.CONST>
0

>  <SCORE.SYSTEM.DIHEDRAL>
0

>  <SCORE.SYSTEM.SOLV>
0

>  <SCORE.SYSTEM.norm>
0

>  <SCORE.heavy>
42

>  <SCORE.norm>
-0.376298

>  <RMSD>
7.904

$$$$
2et4_lig
 OpenBabel11021811423D
libRbt.so/2013.1/901 2013/11/27
 42 45  0  0  0  0  0  0  0  0999 V2000
   13.1498    8.5700    9.6023 C   0  0  2  0  0  0  0  0  0  0  0  0
   14.4160    8.3034    8.9959 O   0  0  0  0  0  0  0  0  0  0  0  0
   13.4163    9.4549   10.8467 C   0  0  2  0  0  0  0  0  0  0  0  0
   14.1055   10.6688   10.4902 N   0  0  0  0  0  0  0  0  0  0  0  0
   14.2272    8.6377   11.8935 C   0  0  1  0  0  0  0  0  0  0  0  0
   14.4513    9.4301   13.0177 O   0  0  0  0  0  0  0  0  0  0  0  0
   13.4199    7.3405   12.2335 C   0  0  2  0  0  0  0  0  0  0  0  0
   14.1247    6.5626   13.1777 O   0  0  0  0  0  0  0  0  0  0  0  0
   13.1684    6.4910   10.9509 C   0  0  2  0  0  0  0  0  0  0  0  0
   12.4723    7.3037   10.0012 O   0  0  0  0  0  0  0  0  0  0  0  0
   12.3274    5.2061   11.2462 C   0  0  0  0  0  0  0  0  0  0  0  0
   11.0271    5.5153   11.7307 N   0  0  0  0  0  0  0  0  0  0  0  0
   13.3920    5.9380    5.5302 C   0  0  2  0  0  0  0  0  0  0  0  0
   13.5120    5.2702    4.2282 N   0  0  0  0  0  0  0  0  0  0  0  0
   13.5843    7.5376    5.3391 C   0  0  0  0  0  0  0  0  0  0  0  0
   13.4684    8.2509    6.7481 C   0  0  2  0  0  0  0  0  0  0  0  0
   13.6628    9.7065    6.6250 N   0  0  0  0  0  0  0  0  0  0  0  0
   14.5435    7.6591    7.7209 C   0  0  2  0  0  0  0  0  0  0  0  0
   14.3644    6.1123    7.8731 C   0  0  2  0  0  0  0  0  0  0  0  0
   15.4076    5.6646    8.7733 O   0  0  0  0  0  0  0  0  0  0  0  0
   14.4891    5.4232    6.4763 C   0  0  1  0  0  0  0  0  0  0  0  0
   14.3124    4.0566    6.6401 O   0  0  0  0  0  0  0  0  0  0  0  0
   15.8749    4.3959    8.8652 C   0  0  1  0  0  0  0  0  0  0  0  0
   17.1314    4.3307    9.7721 C   0  0  2  0  0  0  0  0  0  0  0  0
   18.3146    4.6381    9.0936 O   0  0  0  0  0  0  0  0  0  0  0  0
   16.9558    2.9332   10.3368 C   0  0  1  0  0  0  0  0  0  0  0  0
   15.4497    2.7299   10.5538 C   0  0  2  0  0  0  0  0  0  0  0  0
   14.9362    3.4389    9.4263 O   0  0  0  0  0  0  0  0  0  0  0  0
   14.8803    3.2883   11.9023 C   0  0  0  0  0  0  0  0  0  0  0  0
   15.3493    4.6559   12.0389 O   0  0  0  0  0  0  0  0  0  0  0  0
   16.8474    1.8663    8.1071 C   0  0  2  0  0  0  0  0  0  0  0  0
   17.5039    1.9763    9.3403 O   0  0  0  0  0  0  0  0  0  0  0  0
   16.9497    0.3891    7.5264 C   0  0  1  0  0  0  0  0  0  0  0  0
   17.0450    4.0184    3.4137 N   0  0  0  0  0  0  0  0  0  0  0  0
   16.1826    0.3849    6.1022 C   0  0  1  0  0  0  0  0  0  0  0  0
   14.7490    0.8170    6.3380 O   0  0  0  0  0  0  0  0  0  0  0  0
   16.9164    1.4038    5.0776 C   0  0  2  0  0  0  0  0  0  0  0  0
   18.2791    0.9651    4.8615 O   0  0  0  0  0  0  0  0  0  0  0  0
   16.8243    2.8985    5.7234 C   0  0  1  0  0  0  0  0  0  0  0  0
   17.4418    2.8890    7.0948 O   0  0  0  0  0  0  0  0  0  0  0  0
   17.5262    3.9793    4.8287 C   0  0  0  0  0  0  0  0  0  0  0  0
   18.3883   -0.0235    7.4221 N   0  0  0  0  0  0  0  0  0  0  0  0
  1  2  1  1  0  0  0
  1  3  1  0  0  0  0
  1 10  1  0  0  0  0
  3  4  1  6  0  0  0
  3  5  1  0  0  0  0
  5  6  1  1  0  0  0
  5  7  1  0  0  0  0
  7  8  1  1  0  0  0
  7  9  1  0  0  0  0
  9 10  1  0  0  0  0
  9 11  1  1  0  0  0
 11 12  1  0  0  0  0
 13 14  1  6  0  0  0
 13 15  1  0  0  0  0
 13 21  1  0  0  0  0
 16 15  1  0  0  0  0
 16 17  1  6  0  0  0
 18  2  1  1  0  0  0
 18 16  1  0  0  0  0
 19 18  1  0  0  0  0
 19 20  1  1  0  0  0
 21 19  1  0  0  0  0
 21 22  1  1  0  0  0
 23 20  1  1  0  0  0
 23 24  1  0  0  0  0
 23 28  1  0  0  0  0
 24 25  1  6  0  0  0
 24 26  1  0  0  0  0
 26 27  1  0  0  0  0
 26 32  1  6  0  0  0
 27 28  1  0  0  0  0
 27 29  1  1  0  0  0
 29 30  1  0  0  0  0
 31 32  1  1  0  0  0
 31 40  1  0  0  0  0
 33 31  1  0  0  0  0
 33 42  1  6  0  0  0
 35 33  1  0  0  0  0
 35 36  1  1  0  0  0
 37 35  1  0  0  0  0
 37 38  1  1  0  0  0
 37 39  1  0  0  0  0
 39 40  1  0  0  0  0
 39 41  1  6  0  0  0
 41 34  1  0  0  0  0
M  END
>  <CHROM.1>
-171.59528487,62.59100635,42.39400532,-158.76665497,171.26945532,-66.08535862
49.67128850,-147.74102214,54.41353198,15.12754011,5.01062765,8.54973557,2.67945886
-1.09899340,1.68568591

>  <Name>
2et4_lig

>  <RI>
1.79929e+07

>  <Rbt.Current_Directory>
/home/itssahil/PROJECTS/Mol_Feturizer/New_Systems/rnas/2et4

>  <Rbt.Executable>
rbdock ($Id: //depot/dev/client3/rdock/2013.1/src/exe/rbdock.cxx#4 $)

>  <Rbt.Library>
libRbt.so (2013.1, Build901 2013/11/27)

>  <Rbt.Parameter_File>
/export/apps/rDock/src/rDock_2013.1_src/data/scripts/dock_solv.prm

>  <Rbt.Receptor>
prm/pocket_docking_7.prm

>  <SCORE>
-18.1938

>  <SCORE.INTER>
-15.2314

>  <SCORE.INTER.CONST>
1

>  <SCORE.INTER.POLAR>
-3.03662

>  <SCORE.INTER.ROT>
9

>  <SCORE.INTER.SOLV>
17.4501

>  <SCORE.INTER.VDW>
-15.4489

>  <SCORE.INTER.norm>
-0.362651

>  <SCORE.INTRA>
-2.96242

>  <SCORE.INTRA.DIHEDRAL>
-12.6747

>  <SCORE.INTRA.DIHEDRAL.0>
21.6909

>  <SCORE.INTRA.POLAR>
0

>  <SCORE.INTRA.POLAR.0>
0

>  <SCORE.INTRA.REPUL>
0

>  <SCORE.INTRA.REPUL.0>
0

>  <SCORE.INTRA.SOLV>
3.07419

>  <SCORE.INTRA.SOLV.lig_0>
-116.606

>  <SCORE.INTRA.VDW>
1.83786

>  <SCORE.INTRA.VDW.0>
-6.01229

>  <SCORE.INTRA.norm>
-0.0705338

>  <SCORE.RESTR>
0

>  <SCORE.RESTR.CAVITY>
0

>  <SCORE.RESTR.norm>
0

>  <SCORE.SYSTEM>
0

>  <SCORE.SYSTEM.CONST>
0

>  <SCORE.SYSTEM.DIHEDRAL>
0

>  <SCORE.SYSTEM.SOLV>
0

>  <SCORE.SYSTEM.norm>
0

>  <SCORE.heavy>
42

>  <SCORE.norm>
-0.433185

>  <RMSD>
7.908

$$$$
2et4_lig
 OpenBabel11021811423D
libRbt.so/2013.1/901 2013/11/27
 42 45  0  0  0  0  0  0  0  0999 V2000
   11.5400    8.3111   10.5867 C   0  0  2  0  0  0  0  0  0  0  0  0
   11.8004    7.9323   11.9398 O   0  0  0  0  0  0  0  0  0  0  0  0
   12.6945    9.2457   10.1435 C   0  0  2  0  0  0  0  0  0  0  0  0
   13.9752    8.6005   10.2820 N   0  0  0  0  0  0  0  0  0  0  0  0
   12.6377   10.5608   10.9733 C   0  0  1  0  0  0  0  0  0  0  0  0
   13.6667   11.4056   10.5617 O   0  0  0  0  0  0  0  0  0  0  0  0
   11.2253   11.2049   10.7733 C   0  0  2  0  0  0  0  0  0  0  0  0
   11.1267   12.4011   11.5168 O   0  0  0  0  0  0  0  0  0  0  0  0
   10.0995   10.2247   11.2223 C   0  0  2  0  0  0  0  0  0  0  0  0
   10.2305    9.0136   10.4722 O   0  0  0  0  0  0  0  0  0  0  0  0
    8.6709   10.8198   10.9977 C   0  0  0  0  0  0  0  0  0  0  0  0
    8.4346   11.9669   11.8036 N   0  0  0  0  0  0  0  0  0  0  0  0
   10.5250    5.0438   14.8868 C   0  0  2  0  0  0  0  0  0  0  0  0
    9.6573    4.1339   15.6450 N   0  0  0  0  0  0  0  0  0  0  0  0
    9.9508    6.5573   14.9957 C   0  0  0  0  0  0  0  0  0  0  0  0
   10.8820    7.5317   14.1645 C   0  0  2  0  0  0  0  0  0  0  0  0
   10.3819    8.9169   14.2146 N   0  0  0  0  0  0  0  0  0  0  0  0
   10.9421    7.0498   12.6756 C   0  0  2  0  0  0  0  0  0  0  0  0
   11.4698    5.5796   12.5878 C   0  0  2  0  0  0  0  0  0  0  0  0
   11.4730    5.2276   11.1824 O   0  0  0  0  0  0  0  0  0  0  0  0
   10.5364    4.6305   13.4060 C   0  0  1  0  0  0  0  0  0  0  0  0
   11.0360    3.3386   13.3216 O   0  0  0  0  0  0  0  0  0  0  0  0
   10.3756    5.1381   10.3925 C   0  0  1  0  0  0  0  0  0  0  0  0
    9.5059    3.9156   10.7859 C   0  0  2  0  0  0  0  0  0  0  0  0
    9.9361    2.7233   10.1959 O   0  0  0  0  0  0  0  0  0  0  0  0
    8.1369    4.4587   10.4198 C   0  0  1  0  0  0  0  0  0  0  0  0
    8.1406    5.9498   10.7850 C   0  0  2  0  0  0  0  0  0  0  0  0
    9.4868    6.2864   10.4502 O   0  0  0  0  0  0  0  0  0  0  0  0
    7.8121    6.2794   12.2810 C   0  0  0  0  0  0  0  0  0  0  0  0
    7.5858    7.7111   12.3710 O   0  0  0  0  0  0  0  0  0  0  0  0
    8.7925    4.9425    8.0837 C   0  0  2  0  0  0  0  0  0  0  0  0
    7.9482    4.2483    8.9607 O   0  0  0  0  0  0  0  0  0  0  0  0
    8.0902    5.1898    6.6782 C   0  0  1  0  0  0  0  0  0  0  0  0
   12.1783    2.5238    6.3323 N   0  0  0  0  0  0  0  0  0  0  0  0
    9.1560    5.9725    5.7464 C   0  0  1  0  0  0  0  0  0  0  0  0
    9.5303    7.2657    6.4429 O   0  0  0  0  0  0  0  0  0  0  0  0
   10.4715    5.0531    5.5214 C   0  0  2  0  0  0  0  0  0  0  0  0
   10.0901    3.8300    4.8472 O   0  0  0  0  0  0  0  0  0  0  0  0
   11.1414    4.7904    6.9850 C   0  0  1  0  0  0  0  0  0  0  0  0
   10.1237    4.1577    7.8938 O   0  0  0  0  0  0  0  0  0  0  0  0
   12.4199    3.8849    6.9020 C   0  0  0  0  0  0  0  0  0  0  0  0
    7.6414    3.8842    6.0912 N   0  0  0  0  0  0  0  0  0  0  0  0
  1  2  1  1  0  0  0
  1  3  1  0  0  0  0
  1 10  1  0  0  0  0
  3  4  1  1  0  0  0
  3  5  1  0  0  0  0
  5  6  1  6  0  0  0
  5  7  1  0  0  0  0
  7  8  1  1  0  0  0
  7  9  1  0  0  0  0
  9 10  1  0  0  0  0
  9 11  1  6  0  0  0
 11 12  1  0  0  0  0
 13 14  1  1  0  0  0
 13 15  1  0  0  0  0
 13 21  1  0  0  0  0
 16 15  1  0  0  0  0
 16 17  1  6  0  0  0
 18  2  1  6  0  0  0
 18 16  1  0  0  0  0
 19 18  1  0  0  0  0
 19 20  1  6  0  0  0
 21 19  1  0  0  0  0
 21 22  1  1  0  0  0
 23 20  1  1  0  0  0
 23 24  1  0  0  0  0
 23 28  1  0  0  0  0
 24 25  1  6  0  0  0
 24 26  1  0  0  0  0
 26 27  1  0  0  0  0
 26 32  1  6  0  0  0
 27 28  1  0  0  0  0
 27 29  1  1  0  0  0
 29 30  1  0  0  0  0
 31 32  1  1  0  0  0
 31 40  1  0  0  0  0
 33 31  1  0  0  0  0
 33 42  1  6  0  0  0
 35 33  1  0  0  0  0
 35 36  1  1  0  0  0
 37 35  1  0  0  0  0
 37 38  1  1  0  0  0
 37 39  1  0  0  0  0
 39 40  1  0  0  0  0
 39 41  1  6  0  0  0
 41 34  1  0  0  0  0
M  END
>  <CHROM.1>
-179.14331082,-64.62976008,-143.18368687,-63.98645070,-69.73308841,-65.01903898
-168.24284897,-152.67123150,-60.15442909,10.27385625,6.61669291,10.37792869
-0.91240934,-1.35086809,-1.69610230

>  <Name>
2et4_lig

>  <RI>
0

>  <Rbt.Current_Directory>
/home/itssahil/PROJECTS/Mol_Feturizer/New_Systems/rnas/2et4

>  <Rbt.Executable>
rbdock ($Id: //depot/dev/client3/rdock/2013.1/src/exe/rbdock.cxx#4 $)

>  <Rbt.Library>
libRbt.so (2013.1, Build901 2013/11/27)

>  <Rbt.Parameter_File>
/export/apps/rDock/src/rDock_2013.1_src/data/scripts/dock_solv.prm

>  <Rbt.Receptor>
prm/pocket_docking_8.prm

>  <SCORE>
-7.087

>  <SCORE.INTER>
-4.20075

>  <SCORE.INTER.CONST>
1

>  <SCORE.INTER.POLAR>
-1.78379

>  <SCORE.INTER.ROT>
9

>  <SCORE.INTER.SOLV>
10.6215

>  <SCORE.INTER.VDW>
-9.99505

>  <SCORE.INTER.norm>
-0.100018

>  <SCORE.INTRA>
-2.88624

>  <SCORE.INTRA.DIHEDRAL>
-12.4086

>  <SCORE.INTRA.DIHEDRAL.0>
21.6909

>  <SCORE.INTRA.POLAR>
0

>  <SCORE.INTRA.POLAR.0>
0

>  <SCORE.INTRA.REPUL>
0.0482778

>  <SCORE.INTRA.REPUL.0>
0

>  <SCORE.INTRA.SOLV>
3.22617

>  <SCORE.INTRA.SOLV.lig_0>
-116.606

>  <SCORE.INTRA.VDW>
1.46359

>  <SCORE.INTRA.VDW.0>
-6.01229

>  <SCORE.INTRA.norm>
-0.0687201

>  <SCORE.RESTR>
0

>  <SCORE.RESTR.CAVITY>
0

>  <SCORE.RESTR.norm>
0

>  <SCORE.SYSTEM>
0

>  <SCORE.SYSTEM.CONST>
0

>  <SCORE.SYSTEM.DIHEDRAL>
0

>  <SCORE.SYSTEM.SOLV>
0

>  <SCORE.SYSTEM.norm>
0

>  <SCORE.heavy>
42

>  <SCORE.norm>
-0.168738

>  <RMSD>
7.941

$$$$
2et4_lig
 OpenBabel11021811423D
libRbt.so/2013.1/901 2013/11/27
 42 45  0  0  0  0  0  0  0  0999 V2000
   13.5589    8.6169   13.5147 C   0  0  2  0  0  0  0  0  0  0  0  0
   14.3341    9.1483   12.4382 O   0  0  0  0  0  0  0  0  0  0  0  0
   14.4461    7.5786   14.2478 C   0  0  2  0  0  0  0  0  0  0  0  0
   15.6734    8.1721   14.7137 N   0  0  0  0  0  0  0  0  0  0  0  0
   14.7297    6.3817   13.2948 C   0  0  1  0  0  0  0  0  0  0  0  0
   15.5138    5.4425   13.9616 O   0  0  0  0  0  0  0  0  0  0  0  0
   13.3570    5.7881   12.8330 C   0  0  2  0  0  0  0  0  0  0  0  0
   13.5674    4.7003   11.9578 O   0  0  0  0  0  0  0  0  0  0  0  0
   12.4982    6.8709   12.1120 C   0  0  2  0  0  0  0  0  0  0  0  0
   12.3148    7.9710   13.0080 O   0  0  0  0  0  0  0  0  0  0  0  0
   11.1007    6.3236   11.6727 C   0  0  0  0  0  0  0  0  0  0  0  0
   11.2092    5.3005   10.6916 N   0  0  0  0  0  0  0  0  0  0  0  0
   11.5813   11.3907    9.9789 C   0  0  2  0  0  0  0  0  0  0  0  0
   11.0638   12.4234    9.0726 N   0  0  0  0  0  0  0  0  0  0  0  0
   12.1500   12.0891   11.3284 C   0  0  0  0  0  0  0  0  0  0  0  0
   12.7198   10.9723   12.2957 C   0  0  2  0  0  0  0  0  0  0  0  0
   13.2717   11.5656   13.5265 N   0  0  0  0  0  0  0  0  0  0  0  0
   13.8392   10.1647   11.5557 C   0  0  2  0  0  0  0  0  0  0  0  0
   13.2844    9.5212   10.2420 C   0  0  2  0  0  0  0  0  0  0  0  0
   14.3924    8.8155    9.6307 O   0  0  0  0  0  0  0  0  0  0  0  0
   12.7336   10.6361    9.2959 C   0  0  1  0  0  0  0  0  0  0  0  0
   12.2367   10.0359    8.1477 O   0  0  0  0  0  0  0  0  0  0  0  0
   14.5049    7.4691    9.5271 C   0  0  1  0  0  0  0  0  0  0  0  0
   15.3246    7.0748    8.2709 C   0  0  2  0  0  0  0  0  0  0  0  0
   14.5536    7.0254    7.1056 O   0  0  0  0  0  0  0  0  0  0  0  0
   15.9583    5.7941    8.7817 C   0  0  1  0  0  0  0  0  0  0  0  0
   16.2873    6.0239   10.2635 C   0  0  2  0  0  0  0  0  0  0  0  0
   15.1693    6.8242   10.6472 O   0  0  0  0  0  0  0  0  0  0  0  0
   17.6474    6.7474   10.5489 C   0  0  0  0  0  0  0  0  0  0  0  0
   18.6954    5.9693    9.9123 O   0  0  0  0  0  0  0  0  0  0  0  0
   14.7468    3.8305    9.6750 C   0  0  2  0  0  0  0  0  0  0  0  0
   14.9674    4.7015    8.5995 O   0  0  0  0  0  0  0  0  0  0  0  0
   16.0991    3.1386   10.1465 C   0  0  1  0  0  0  0  0  0  0  0  0
   11.2450    0.3239   10.7945 N   0  0  0  0  0  0  0  0  0  0  0  0
   15.7237    2.1464   11.3677 C   0  0  1  0  0  0  0  0  0  0  0  0
   15.0816    2.9717   12.4650 O   0  0  0  0  0  0  0  0  0  0  0  0
   14.6997    1.0007   10.8526 C   0  0  2  0  0  0  0  0  0  0  0  0
   15.3384    0.2212    9.8131 O   0  0  0  0  0  0  0  0  0  0  0  0
   13.3432    1.7495   10.3435 C   0  0  1  0  0  0  0  0  0  0  0  0
   13.6956    2.7523    9.2795 O   0  0  0  0  0  0  0  0  0  0  0  0
   12.2751    0.7403    9.7940 C   0  0  0  0  0  0  0  0  0  0  0  0
   16.7452    2.4328    8.9911 N   0  0  0  0  0  0  0  0  0  0  0  0
  1  2  1  6  0  0  0
  1  3  1  0  0  0  0
  1 10  1  0  0  0  0
  3  4  1  6  0  0  0
  3  5  1  0  0  0  0
  5  6  1  1  0  0  0
  5  7  1  0  0  0  0
  7  8  1  6  0  0  0
  7  9  1  0  0  0  0
  9 10  1  0  0  0  0
  9 11  1  1  0  0  0
 11 12  1  0  0  0  0
 13 14  1  6  0  0  0
 13 15  1  0  0  0  0
 13 21  1  0  0  0  0
 16 15  1  0  0  0  0
 16 17  1  1  0  0  0
 18  2  1  1  0  0  0
 18 16  1  0  0  0  0
 19 18  1  0  0  0  0
 19 20  1  6  0  0  0
 21 19  1  0  0  0  0
 21 22  1  6  0  0  0
 23 20  1  1  0  0  0
 23 24  1  0  0  0  0
 23 28  1  0  0  0  0
 24 25  1  6  0  0  0
 24 26  1  0  0  0  0
 26 27  1  0  0  0  0
 26 32  1  1  0  0  0
 27 28  1  0  0  0  0
 27 29  1  6  0  0  0
 29 30  1  0  0  0  0
 31 32  1  6  0  0  0
 31 40  1  0  0  0  0
 33 31  1  0  0  0  0
 33 42  1  6  0  0  0
 35 33  1  0  0  0  0
 35 36  1  1  0  0  0
 37 35  1  0  0  0  0
 37 38  1  6  0  0  0
 37 39  1  0  0  0  0
 39 40  1  0  0  0  0
 39 41  1  6  0  0  0
 41 34  1  0  0  0  0
M  END
>  <CHROM.1>
-178.61684659,-64.72051550,24.48732800,110.92805252,150.47988485,-133.14703794
-56.30678478,-56.55182380,95.37556161,14.10701537,6.37140127,10.85577215
2.80928317,1.34874361,-1.12947355

>  <Name>
2et4_lig

>  <RI>
0

>  <Rbt.Current_Directory>
/home/itssahil/PROJECTS/Mol_Feturizer/New_Systems/rnas/2et4

>  <Rbt.Executable>
rbdock ($Id: //depot/dev/client3/rdock/2013.1/src/exe/rbdock.cxx#4 $)

>  <Rbt.Library>
libRbt.so (2013.1, Build901 2013/11/27)

>  <Rbt.Parameter_File>
/export/apps/rDock/src/rDock_2013.1_src/data/scripts/dock_solv.prm

>  <Rbt.Receptor>
prm/blind_docking_40.prm

>  <SCORE>
40.9959

>  <SCORE.INTER>
14.3689

>  <SCORE.INTER.CONST>
1

>  <SCORE.INTER.POLAR>
-0.824614

>  <SCORE.INTER.ROT>
9

>  <SCORE.INTER.SOLV>
34.2358

>  <SCORE.INTER.VDW>
-8.68398

>  <SCORE.INTER.norm>
0.342116

>  <SCORE.INTRA>
6.04205

>  <SCORE.INTRA.DIHEDRAL>
3.26527

>  <SCORE.INTRA.DIHEDRAL.0>
21.6909

>  <SCORE.INTRA.POLAR>
0

>  <SCORE.INTRA.POLAR.0>
0

>  <SCORE.INTRA.REPUL>
0.12689

>  <SCORE.INTRA.REPUL.0>
0

>  <SCORE.INTRA.SOLV>
2.42544

>  <SCORE.INTRA.SOLV.lig_0>
-116.606

>  <SCORE.INTRA.VDW>
2.56225

>  <SCORE.INTRA.VDW.0>
-6.01229

>  <SCORE.INTRA.norm>
0.143858

>  <SCORE.RESTR>
20.585

>  <SCORE.RESTR.CAVITY>
20.585

>  <SCORE.RESTR.norm>
0.490119

>  <SCORE.SYSTEM>
0

>  <SCORE.SYSTEM.CONST>
0

>  <SCORE.SYSTEM.DIHEDRAL>
0

>  <SCORE.SYSTEM.SOLV>
0

>  <SCORE.SYSTEM.norm>
0

>  <SCORE.heavy>
42

>  <SCORE.norm>
0.976093

>  <RMSD>
7.952

$$$$
2et4_lig
 OpenBabel11021811423D
libRbt.so/2013.1/901 2013/11/27
 42 45  0  0  0  0  0  0  0  0999 V2000
    9.3755    6.2643    8.3010 C   0  0  2  0  0  0  0  0  0  0  0  0
    9.9708    6.3484    9.5974 O   0  0  0  0  0  0  0  0  0  0  0  0
    8.6463    4.8988    8.2206 C   0  0  2  0  0  0  0  0  0  0  0  0
    7.6676    4.7635    9.2692 N   0  0  0  0  0  0  0  0  0  0  0  0
    9.6960    3.7519    8.2834 C   0  0  1  0  0  0  0  0  0  0  0  0
    9.0393    2.5261    8.1947 O   0  0  0  0  0  0  0  0  0  0  0  0
   10.7203    3.9618    7.1186 C   0  0  2  0  0  0  0  0  0  0  0  0
   11.6986    2.9440    7.1421 O   0  0  0  0  0  0  0  0  0  0  0  0
   11.4185    5.3505    7.2369 C   0  0  2  0  0  0  0  0  0  0  0  0
   10.4092    6.3644    7.2319 O   0  0  0  0  0  0  0  0  0  0  0  0
   12.4200    5.6124    6.0648 C   0  0  0  0  0  0  0  0  0  0  0  0
   13.5110    4.7011    6.0774 N   0  0  0  0  0  0  0  0  0  0  0  0
   12.2748    9.9966    9.4049 C   0  0  2  0  0  0  0  0  0  0  0  0
   13.0473   11.1677    9.8376 N   0  0  0  0  0  0  0  0  0  0  0  0
   10.7866   10.0607   10.0479 C   0  0  0  0  0  0  0  0  0  0  0  0
    9.9630    8.7883    9.5898 C   0  0  2  0  0  0  0  0  0  0  0  0
    8.6096    8.7923   10.1729 N   0  0  0  0  0  0  0  0  0  0  0  0
   10.7204    7.4910   10.0324 C   0  0  2  0  0  0  0  0  0  0  0  0
   12.1635    7.4565    9.4290 C   0  0  2  0  0  0  0  0  0  0  0  0
   12.7793    6.2351    9.9067 O   0  0  0  0  0  0  0  0  0  0  0  0
   12.9649    8.7137    9.8965 C   0  0  1  0  0  0  0  0  0  0  0  0
   14.2333    8.6632    9.3358 O   0  0  0  0  0  0  0  0  0  0  0  0
   14.0262    5.8086    9.5912 C   0  0  1  0  0  0  0  0  0  0  0  0
   14.9530    5.8327   10.8346 C   0  0  2  0  0  0  0  0  0  0  0  0
   15.5227    7.0876   11.0704 O   0  0  0  0  0  0  0  0  0  0  0  0
   15.8650    4.6712   10.4851 C   0  0  1  0  0  0  0  0  0  0  0  0
   14.9885    3.6095    9.8060 C   0  0  2  0  0  0  0  0  0  0  0  0
   14.0951    4.4511    9.0771 O   0  0  0  0  0  0  0  0  0  0  0  0
   14.2219    2.6462   10.7750 C   0  0  0  0  0  0  0  0  0  0  0  0
   15.2177    1.8931   11.5168 O   0  0  0  0  0  0  0  0  0  0  0  0
   17.8652    4.2792    9.0826 C   0  0  2  0  0  0  0  0  0  0  0  0
   16.9155    5.1876    9.5693 O   0  0  0  0  0  0  0  0  0  0  0  0
   19.0619    5.0292    8.3510 C   0  0  1  0  0  0  0  0  0  0  0  0
   16.6404    1.9698    5.3983 N   0  0  0  0  0  0  0  0  0  0  0  0
   20.0782    3.8906    7.8147 C   0  0  1  0  0  0  0  0  0  0  0  0
   20.5454    3.0774    9.0054 O   0  0  0  0  0  0  0  0  0  0  0  0
   19.3229    2.9374    6.7435 C   0  0  2  0  0  0  0  0  0  0  0  0
   18.8952    3.7344    5.6130 O   0  0  0  0  0  0  0  0  0  0  0  0
   18.0826    2.2164    7.5190 C   0  0  1  0  0  0  0  0  0  0  0  0
   17.1861    3.2677    8.1133 O   0  0  0  0  0  0  0  0  0  0  0  0
   17.2527    1.2784    6.5741 C   0  0  0  0  0  0  0  0  0  0  0  0
   18.5270    5.9046    7.2563 N   0  0  0  0  0  0  0  0  0  0  0  0
  1  2  1  1  0  0  0
  1  3  1  0  0  0  0
  1 10  1  0  0  0  0
  3  4  1  1  0  0  0
  3  5  1  0  0  0  0
  5  6  1  6  0  0  0
  5  7  1  0  0  0  0
  7  8  1  1  0  0  0
  7  9  1  0  0  0  0
  9 10  1  0  0  0  0
  9 11  1  6  0  0  0
 11 12  1  0  0  0  0
 13 14  1  1  0  0  0
 13 15  1  0  0  0  0
 13 21  1  0  0  0  0
 16 15  1  0  0  0  0
 16 17  1  1  0  0  0
 18  2  1  6  0  0  0
 18 16  1  0  0  0  0
 19 18  1  0  0  0  0
 19 20  1  1  0  0  0
 21 19  1  0  0  0  0
 21 22  1  6  0  0  0
 23 20  1  1  0  0  0
 23 24  1  0  0  0  0
 23 28  1  0  0  0  0
 24 25  1  6  0  0  0
 24 26  1  0  0  0  0
 26 27  1  0  0  0  0
 26 32  1  6  0  0  0
 27 28  1  0  0  0  0
 27 29  1  1  0  0  0
 29 30  1  0  0  0  0
 31 32  1  6  0  0  0
 31 40  1  0  0  0  0
 33 31  1  0  0  0  0
 33 42  1  6  0  0  0
 35 33  1  0  0  0  0
 35 36  1  1  0  0  0
 37 35  1  0  0  0  0
 37 38  1  6  0  0  0
 37 39  1  0  0  0  0
 39 40  1  0  0  0  0
 39 41  1  6  0  0  0
 41 34  1  0  0  0  0
M  END
>  <CHROM.1>
-179.31683073,-64.43306264,43.03168504,178.51612325,113.01608493,-178.56545359
-63.22987343,-169.25987476,-59.73852578,13.86563864,5.29317455,8.68442285
2.70995017,-0.03587926,0.39376131

>  <Name>
2et4_lig

>  <RI>
0

>  <Rbt.Current_Directory>
/home/itssahil/PROJECTS/Mol_Feturizer/New_Systems/rnas/2et4

>  <Rbt.Executable>
rbdock ($Id: //depot/dev/client3/rdock/2013.1/src/exe/rbdock.cxx#4 $)

>  <Rbt.Library>
libRbt.so (2013.1, Build901 2013/11/27)

>  <Rbt.Parameter_File>
/export/apps/rDock/src/rDock_2013.1_src/data/scripts/dock_solv.prm

>  <Rbt.Receptor>
prm/pocket_docking_5.prm

>  <SCORE>
-9.01408

>  <SCORE.INTER>
-4.03997

>  <SCORE.INTER.CONST>
1

>  <SCORE.INTER.POLAR>
-1.81455

>  <SCORE.INTER.ROT>
9

>  <SCORE.INTER.SOLV>
12.8742

>  <SCORE.INTER.VDW>
-10.5362

>  <SCORE.INTER.norm>
-0.0961899

>  <SCORE.INTRA>
-5.09569

>  <SCORE.INTRA.DIHEDRAL>
-12.5383

>  <SCORE.INTRA.DIHEDRAL.0>
21.6909

>  <SCORE.INTRA.POLAR>
0

>  <SCORE.INTRA.POLAR.0>
0

>  <SCORE.INTRA.REPUL>
0.0121971

>  <SCORE.INTRA.REPUL.0>
0

>  <SCORE.INTRA.SOLV>
1.29628

>  <SCORE.INTRA.SOLV.lig_0>
-116.606

>  <SCORE.INTRA.VDW>
0.46431

>  <SCORE.INTRA.VDW.0>
-6.01229

>  <SCORE.INTRA.norm>
-0.121326

>  <SCORE.RESTR>
0.12158

>  <SCORE.RESTR.CAVITY>
0.12158

>  <SCORE.RESTR.norm>
0.00289477

>  <SCORE.SYSTEM>
0

>  <SCORE.SYSTEM.CONST>
0

>  <SCORE.SYSTEM.DIHEDRAL>
0

>  <SCORE.SYSTEM.SOLV>
0

>  <SCORE.SYSTEM.norm>
0

>  <SCORE.heavy>
42

>  <SCORE.norm>
-0.214621

>  <RMSD>
7.981

$$$$
2et4_lig
 OpenBabel11021811423D
libRbt.so/2013.1/901 2013/11/27
 42 45  0  0  0  0  0  0  0  0999 V2000
   12.6589    8.2769    7.8646 C   0  0  2  0  0  0  0  0  0  0  0  0
   12.8128    6.9103    7.4761 O   0  0  0  0  0  0  0  0  0  0  0  0
   13.0068    8.3653    9.3725 C   0  0  2  0  0  0  0  0  0  0  0  0
   14.3383    7.8810    9.6336 N   0  0  0  0  0  0  0  0  0  0  0  0
   11.9506    7.5675   10.1906 C   0  0  1  0  0  0  0  0  0  0  0  0
   12.2565    7.6621   11.5468 O   0  0  0  0  0  0  0  0  0  0  0  0
   10.5351    8.1480    9.8598 C   0  0  2  0  0  0  0  0  0  0  0  0
    9.5420    7.4464   10.5773 O   0  0  0  0  0  0  0  0  0  0  0  0
   10.2364    8.0466    8.3332 C   0  0  2  0  0  0  0  0  0  0  0  0
   11.2644    8.7456    7.6252 O   0  0  0  0  0  0  0  0  0  0  0  0
    8.8455    8.6557    7.9595 C   0  0  0  0  0  0  0  0  0  0  0  0
    8.4430    8.3058    6.6416 N   0  0  0  0  0  0  0  0  0  0  0  0
   13.0076    4.8528    3.6836 C   0  0  2  0  0  0  0  0  0  0  0  0
   13.4820    4.4446    2.3554 N   0  0  0  0  0  0  0  0  0  0  0  0
   12.6850    6.4428    3.6793 C   0  0  0  0  0  0  0  0  0  0  0  0
   12.1878    6.8800    5.1177 C   0  0  2  0  0  0  0  0  0  0  0  0
   11.9069    8.3258    5.1668 N   0  0  0  0  0  0  0  0  0  0  0  0
   13.2836    6.5228    6.1780 C   0  0  2  0  0  0  0  0  0  0  0  0
   13.6055    4.9920    6.1510 C   0  0  2  0  0  0  0  0  0  0  0  0
   14.6322    4.7705    7.1489 O   0  0  0  0  0  0  0  0  0  0  0  0
   14.1018    4.5786    4.7282 C   0  0  1  0  0  0  0  0  0  0  0  0
   14.3656    3.2162    4.7305 O   0  0  0  0  0  0  0  0  0  0  0  0
   15.1465    3.5648    7.4927 C   0  0  1  0  0  0  0  0  0  0  0  0
   15.4169    3.4903    9.0181 C   0  0  2  0  0  0  0  0  0  0  0  0
   16.6504    4.0374    9.3843 O   0  0  0  0  0  0  0  0  0  0  0  0
   15.1820    2.0074    9.2382 C   0  0  1  0  0  0  0  0  0  0  0  0
   14.0185    1.6031    8.3219 C   0  0  2  0  0  0  0  0  0  0  0  0
   14.2928    2.4284    7.1899 O   0  0  0  0  0  0  0  0  0  0  0  0
   12.5844    1.8610    8.8976 C   0  0  0  0  0  0  0  0  0  0  0  0
   12.4261    1.0129   10.0657 O   0  0  0  0  0  0  0  0  0  0  0  0
   16.9232    1.4418    7.5740 C   0  0  2  0  0  0  0  0  0  0  0  0
   16.4381    1.2980    8.8809 O   0  0  0  0  0  0  0  0  0  0  0  0
   16.2517    0.3896    6.5881 C   0  0  1  0  0  0  0  0  0  0  0  0
   21.0975    0.1680    7.3258 N   0  0  0  0  0  0  0  0  0  0  0  0
   16.8976    0.6313    5.1248 C   0  0  1  0  0  0  0  0  0  0  0  0
   16.6205    2.0650    4.7185 O   0  0  0  0  0  0  0  0  0  0  0  0
   18.4943    0.3589    5.1749 C   0  0  2  0  0  0  0  0  0  0  0  0
   18.7326   -1.0175    5.5556 O   0  0  0  0  0  0  0  0  0  0  0  0
   19.1410    1.4293    6.2217 C   0  0  1  0  0  0  0  0  0  0  0  0
   18.4721    1.2848    7.5610 O   0  0  0  0  0  0  0  0  0  0  0  0
   20.6918    1.2498    6.3768 C   0  0  0  0  0  0  0  0  0  0  0  0
   16.4626   -1.0038    7.1025 N   0  0  0  0  0  0  0  0  0  0  0  0
  1  2  1  1  0  0  0
  1  3  1  0  0  0  0
  1 10  1  0  0  0  0
  3  4  1  6  0  0  0
  3  5  1  0  0  0  0
  5  6  1  1  0  0  0
  5  7  1  0  0  0  0
  7  8  1  1  0  0  0
  7  9  1  0  0  0  0
  9 10  1  0  0  0  0
  9 11  1  1  0  0  0
 11 12  1  0  0  0  0
 13 14  1  6  0  0  0
 13 15  1  0  0  0  0
 13 21  1  0  0  0  0
 16 15  1  0  0  0  0
 16 17  1  6  0  0  0
 18  2  1  1  0  0  0
 18 16  1  0  0  0  0
 19 18  1  0  0  0  0
 19 20  1  1  0  0  0
 21 19  1  0  0  0  0
 21 22  1  1  0  0  0
 23 20  1  1  0  0  0
 23 24  1  0  0  0  0
 23 28  1  0  0  0  0
 24 25  1  6  0  0  0
 24 26  1  0  0  0  0
 26 27  1  0  0  0  0
 26 32  1  6  0  0  0
 27 28  1  0  0  0  0
 27 29  1  1  0  0  0
 29 30  1  0  0  0  0
 31 32  1  1  0  0  0
 31 40  1  0  0  0  0
 33 31  1  0  0  0  0
 33 42  1  1  0  0  0
 35 33  1  0  0  0  0
 35 36  1  1  0  0  0
 37 35  1  0  0  0  0
 37 38  1  1  0  0  0
 37 39  1  0  0  0  0
 39 40  1  0  0  0  0
 39 41  1  1  0  0  0
 41 34  1  0  0  0  0
M  END
>  <CHROM.1>
-145.52164837,-167.00259806,-69.21356936,176.47328737,-142.14098767,-59.33950905
-64.35186289,-85.65918999,-81.99674843,14.31956107,4.24772441,7.26423722
3.04181031,-0.81479290,1.64507418

>  <Name>
2et4_lig

>  <RI>
0

>  <Rbt.Current_Directory>
/home/itssahil/PROJECTS/Mol_Feturizer/New_Systems/rnas/2et4

>  <Rbt.Executable>
rbdock ($Id: //depot/dev/client3/rdock/2013.1/src/exe/rbdock.cxx#4 $)

>  <Rbt.Library>
libRbt.so (2013.1, Build901 2013/11/27)

>  <Rbt.Parameter_File>
/export/apps/rDock/src/rDock_2013.1_src/data/scripts/dock_solv.prm

>  <Rbt.Receptor>
prm/pocket_docking_8.prm

>  <SCORE>
-3.94724

>  <SCORE.INTER>
-6.31532

>  <SCORE.INTER.CONST>
1

>  <SCORE.INTER.POLAR>
-1.87992

>  <SCORE.INTER.ROT>
9

>  <SCORE.INTER.SOLV>
21.0202

>  <SCORE.INTER.VDW>
-14.5506

>  <SCORE.INTER.norm>
-0.150365

>  <SCORE.INTRA>
2.36808

>  <SCORE.INTRA.DIHEDRAL>
-6.55969

>  <SCORE.INTRA.DIHEDRAL.0>
21.6909

>  <SCORE.INTRA.POLAR>
0

>  <SCORE.INTRA.POLAR.0>
0

>  <SCORE.INTRA.REPUL>
0.0557636

>  <SCORE.INTRA.REPUL.0>
0

>  <SCORE.INTRA.SOLV>
2.36225

>  <SCORE.INTRA.SOLV.lig_0>
-116.606

>  <SCORE.INTRA.VDW>
4.18799

>  <SCORE.INTRA.VDW.0>
-6.01229

>  <SCORE.INTRA.norm>
0.0563829

>  <SCORE.RESTR>
0

>  <SCORE.RESTR.CAVITY>
0

>  <SCORE.RESTR.norm>
0

>  <SCORE.SYSTEM>
0

>  <SCORE.SYSTEM.CONST>
0

>  <SCORE.SYSTEM.DIHEDRAL>
0

>  <SCORE.SYSTEM.SOLV>
0

>  <SCORE.SYSTEM.norm>
0

>  <SCORE.heavy>
42

>  <SCORE.norm>
-0.0939819

>  <RMSD>
7.992

$$$$
2et4_lig
 OpenBabel11021811423D
libRbt.so/2013.1/901 2013/11/27
 42 45  0  0  0  0  0  0  0  0999 V2000
    9.9208    6.4980   10.2355 C   0  0  2  0  0  0  0  0  0  0  0  0
   10.8727    5.5132    9.8276 O   0  0  0  0  0  0  0  0  0  0  0  0
    8.6962    6.3672    9.2943 C   0  0  2  0  0  0  0  0  0  0  0  0
    8.1422    5.0378    9.3347 N   0  0  0  0  0  0  0  0  0  0  0  0
    9.1173    6.7543    7.8472 C   0  0  1  0  0  0  0  0  0  0  0  0
    8.0109    6.6515    7.0064 O   0  0  0  0  0  0  0  0  0  0  0  0
    9.7048    8.2047    7.8800 C   0  0  2  0  0  0  0  0  0  0  0  0
   10.1079    8.5955    6.5845 O   0  0  0  0  0  0  0  0  0  0  0  0
   10.9251    8.2877    8.8464 C   0  0  2  0  0  0  0  0  0  0  0  0
   10.4999    7.8685   10.1465 O   0  0  0  0  0  0  0  0  0  0  0  0
   11.5129    9.7340    8.9363 C   0  0  0  0  0  0  0  0  0  0  0  0
   12.4625    9.8630    9.9864 N   0  0  0  0  0  0  0  0  0  0  0  0
   14.1707    6.1321   12.5469 C   0  0  2  0  0  0  0  0  0  0  0  0
   15.4139    5.8896   13.2896 N   0  0  0  0  0  0  0  0  0  0  0  0
   13.0945    4.9693   12.8964 C   0  0  0  0  0  0  0  0  0  0  0  0
   11.7615    5.2278   12.0820 C   0  0  2  0  0  0  0  0  0  0  0  0
   10.7623    4.1783   12.3500 N   0  0  0  0  0  0  0  0  0  0  0  0
   12.0860    5.2633   10.5503 C   0  0  2  0  0  0  0  0  0  0  0  0
   13.1461    6.3690   10.2320 C   0  0  2  0  0  0  0  0  0  0  0  0
   13.3856    6.3096    8.8044 O   0  0  0  0  0  0  0  0  0  0  0  0
   14.4571    6.0954   11.0368 C   0  0  1  0  0  0  0  0  0  0  0  0
   15.3719    7.0975   10.7459 O   0  0  0  0  0  0  0  0  0  0  0  0
   14.5328    6.6780    8.1843 C   0  0  1  0  0  0  0  0  0  0  0  0
   14.7125    5.9126    6.8473 C   0  0  2  0  0  0  0  0  0  0  0  0
   15.2935    4.6513    7.0107 O   0  0  0  0  0  0  0  0  0  0  0  0
   15.4669    6.9671    6.0588 C   0  0  1  0  0  0  0  0  0  0  0  0
   14.8760    8.3260    6.4597 C   0  0  2  0  0  0  0  0  0  0  0  0
   14.6165    8.0880    7.8431 O   0  0  0  0  0  0  0  0  0  0  0  0
   13.5806    8.7530    5.6887 C   0  0  0  0  0  0  0  0  0  0  0  0
   13.2922   10.1291    6.0524 O   0  0  0  0  0  0  0  0  0  0  0  0
   17.5771    5.6759    6.0977 C   0  0  2  0  0  0  0  0  0  0  0  0
   16.9025    6.8592    6.4277 O   0  0  0  0  0  0  0  0  0  0  0  0
   19.1034    5.7367    6.5407 C   0  0  1  0  0  0  0  0  0  0  0  0
   16.5028    4.0777    2.0710 N   0  0  0  0  0  0  0  0  0  0  0  0
   19.7833    4.3387    6.0936 C   0  0  1  0  0  0  0  0  0  0  0  0
   19.0286    3.2107    6.7685 O   0  0  0  0  0  0  0  0  0  0  0  0
   19.7102    4.1801    4.4824 C   0  0  2  0  0  0  0  0  0  0  0  0
   20.4451    5.2621    3.8619 O   0  0  0  0  0  0  0  0  0  0  0  0
   18.1341    4.1594    4.0636 C   0  0  1  0  0  0  0  0  0  0  0  0
   17.4668    5.4095    4.5678 O   0  0  0  0  0  0  0  0  0  0  0  0
   17.9304    4.0331    2.5132 C   0  0  0  0  0  0  0  0  0  0  0  0
   19.7677    6.9362    5.9318 N   0  0  0  0  0  0  0  0  0  0  0  0
  1  2  1  6  0  0  0
  1  3  1  0  0  0  0
  1 10  1  0  0  0  0
  3  4  1  6  0  0  0
  3  5  1  0  0  0  0
  5  6  1  6  0  0  0
  5  7  1  0  0  0  0
  7  8  1  6  0  0  0
  7  9  1  0  0  0  0
  9 10  1  0  0  0  0
  9 11  1  1  0  0  0
 11 12  1  0  0  0  0
 13 14  1  1  0  0  0
 13 15  1  0  0  0  0
 13 21  1  0  0  0  0
 16 15  1  0  0  0  0
 16 17  1  6  0  0  0
 18  2  1  6  0  0  0
 18 16  1  0  0  0  0
 19 18  1  0  0  0  0
 19 20  1  6  0  0  0
 21 19  1  0  0  0  0
 21 22  1  1  0  0  0
 23 20  1  6  0  0  0
 23 24  1  0  0  0  0
 23 28  1  0  0  0  0
 24 25  1  1  0  0  0
 24 26  1  0  0  0  0
 26 27  1  0  0  0  0
 26 32  1  1  0  0  0
 27 28  1  0  0  0  0
 27 29  1  6  0  0  0
 29 30  1  0  0  0  0
 31 32  1  6  0  0  0
 31 40  1  0  0  0  0
 33 31  1  0  0  0  0
 33 42  1  6  0  0  0
 35 33  1  0  0  0  0
 35 36  1  1  0  0  0
 37 35  1  0  0  0  0
 37 38  1  6  0  0  0
 37 39  1  0  0  0  0
 39 40  1  0  0  0  0
 39 41  1  6  0  0  0
 41 34  1  0  0  0  0
M  END
>  <CHROM.1>
-174.37863180,169.49835722,43.82760621,-152.72198325,153.54769911,64.28044239
-171.55701234,179.06654407,-177.12405899,14.11012525,6.35659080,7.91992133
-2.65242459,0.33702302,-1.34441205

>  <Name>
2et4_lig

>  <RI>
0

>  <Rbt.Current_Directory>
/home/itssahil/PROJECTS/Mol_Feturizer/New_Systems/rnas/2et4

>  <Rbt.Executable>
rbdock ($Id: //depot/dev/client3/rdock/2013.1/src/exe/rbdock.cxx#4 $)

>  <Rbt.Library>
libRbt.so (2013.1, Build901 2013/11/27)

>  <Rbt.Parameter_File>
/export/apps/rDock/src/rDock_2013.1_src/data/scripts/dock_solv.prm

>  <Rbt.Receptor>
prm/pocket_docking_5.prm

>  <SCORE>
-10.9857

>  <SCORE.INTER>
-5.96597

>  <SCORE.INTER.CONST>
1

>  <SCORE.INTER.POLAR>
-1.74114

>  <SCORE.INTER.ROT>
9

>  <SCORE.INTER.SOLV>
15.1566

>  <SCORE.INTER.VDW>
-12.8257

>  <SCORE.INTER.norm>
-0.142047

>  <SCORE.INTRA>
-5.0197

>  <SCORE.INTRA.DIHEDRAL>
-13.3862

>  <SCORE.INTRA.DIHEDRAL.0>
21.6909

>  <SCORE.INTRA.POLAR>
0

>  <SCORE.INTRA.POLAR.0>
0

>  <SCORE.INTRA.REPUL>
0

>  <SCORE.INTRA.REPUL.0>
0

>  <SCORE.INTRA.SOLV>
-0.715231

>  <SCORE.INTRA.SOLV.lig_0>
-116.606

>  <SCORE.INTRA.VDW>
2.03101

>  <SCORE.INTRA.VDW.0>
-6.01229

>  <SCORE.INTRA.norm>
-0.119517

>  <SCORE.RESTR>
0

>  <SCORE.RESTR.CAVITY>
0

>  <SCORE.RESTR.norm>
0

>  <SCORE.SYSTEM>
0

>  <SCORE.SYSTEM.CONST>
0

>  <SCORE.SYSTEM.DIHEDRAL>
0

>  <SCORE.SYSTEM.SOLV>
0

>  <SCORE.SYSTEM.norm>
0

>  <SCORE.heavy>
42

>  <SCORE.norm>
-0.261564

>  <RMSD>
8.018

$$$$
2et4_lig
 OpenBabel11021811423D
libRbt.so/2013.1/901 2013/11/27
 42 45  0  0  0  0  0  0  0  0999 V2000
   13.8823    9.6334   13.7634 C   0  0  2  0  0  0  0  0  0  0  0  0
   14.5038    9.8114   12.4890 O   0  0  0  0  0  0  0  0  0  0  0  0
   14.6251    8.4746   14.4762 C   0  0  2  0  0  0  0  0  0  0  0  0
   16.0334    8.7516   14.6012 N   0  0  0  0  0  0  0  0  0  0  0  0
   14.3822    7.1513   13.6944 C   0  0  1  0  0  0  0  0  0  0  0  0
   15.0376    6.1086   14.3463 O   0  0  0  0  0  0  0  0  0  0  0  0
   12.8378    6.9149   13.6007 C   0  0  2  0  0  0  0  0  0  0  0  0
   12.5703    5.7243   12.8903 O   0  0  0  0  0  0  0  0  0  0  0  0
   12.1355    8.1096   12.8871 C   0  0  2  0  0  0  0  0  0  0  0  0
   12.4361    9.3067   13.6106 O   0  0  0  0  0  0  0  0  0  0  0  0
   10.5842    7.9267   12.8123 C   0  0  0  0  0  0  0  0  0  0  0  0
    9.9419    9.0366   12.1985 N   0  0  0  0  0  0  0  0  0  0  0  0
   11.6543   12.0373   10.1266 C   0  0  2  0  0  0  0  0  0  0  0  0
   11.1140   12.9483    9.1098 N   0  0  0  0  0  0  0  0  0  0  0  0
   12.6319   12.8595   11.1269 C   0  0  0  0  0  0  0  0  0  0  0  0
   13.2228   11.8696   12.2123 C   0  0  2  0  0  0  0  0  0  0  0  0
   14.1391   12.5708   13.1291 N   0  0  0  0  0  0  0  0  0  0  0  0
   13.9881   10.7070   11.4945 C   0  0  2  0  0  0  0  0  0  0  0  0
   13.0413    9.9414   10.5119 C   0  0  2  0  0  0  0  0  0  0  0  0
   13.8426    8.9050    9.8933 O   0  0  0  0  0  0  0  0  0  0  0  0
   12.4733   10.9299    9.4435 C   0  0  1  0  0  0  0  0  0  0  0  0
   11.6280   10.2274    8.5963 O   0  0  0  0  0  0  0  0  0  0  0  0
   14.2249    7.7482   10.4867 C   0  0  1  0  0  0  0  0  0  0  0  0
   13.7986    6.5213    9.6391 C   0  0  2  0  0  0  0  0  0  0  0  0
   12.4803    6.1209    9.8772 O   0  0  0  0  0  0  0  0  0  0  0  0
   14.9260    5.5706    9.9966 C   0  0  1  0  0  0  0  0  0  0  0  0
   16.2001    6.4192   10.1123 C   0  0  2  0  0  0  0  0  0  0  0  0
   15.6576    7.6087   10.6856 O   0  0  0  0  0  0  0  0  0  0  0  0
   16.9436    6.7085    8.7639 C   0  0  0  0  0  0  0  0  0  0  0  0
   17.0264    5.4548    8.0357 O   0  0  0  0  0  0  0  0  0  0  0  0
   14.5731    3.5247   11.3423 C   0  0  2  0  0  0  0  0  0  0  0  0
   14.5738    4.9251   11.2881 O   0  0  0  0  0  0  0  0  0  0  0  0
   16.0323    2.9356   11.1109 C   0  0  1  0  0  0  0  0  0  0  0  0
   12.9197    1.2155    7.7281 N   0  0  0  0  0  0  0  0  0  0  0  0
   15.9084    1.3239   11.1720 C   0  0  1  0  0  0  0  0  0  0  0  0
   15.3387    0.9461   12.5248 O   0  0  0  0  0  0  0  0  0  0  0  0
   14.9365    0.8000    9.9857 C   0  0  2  0  0  0  0  0  0  0  0  0
   15.5061    1.1642    8.7054 O   0  0  0  0  0  0  0  0  0  0  0  0
   13.4632    1.4534   10.2353 C   0  0  1  0  0  0  0  0  0  0  0  0
   13.5834    2.9518   10.2859 O   0  0  0  0  0  0  0  0  0  0  0  0
   12.4309    1.0371    9.1298 C   0  0  0  0  0  0  0  0  0  0  0  0
   16.5876    3.4351    9.8098 N   0  0  0  0  0  0  0  0  0  0  0  0
  1  2  1  6  0  0  0
  1  3  1  0  0  0  0
  1 10  1  0  0  0  0
  3  4  1  6  0  0  0
  3  5  1  0  0  0  0
  5  6  1  1  0  0  0
  5  7  1  0  0  0  0
  7  8  1  6  0  0  0
  7  9  1  0  0  0  0
  9 10  1  0  0  0  0
  9 11  1  1  0  0  0
 11 12  1  0  0  0  0
 13 14  1  6  0  0  0
 13 15  1  0  0  0  0
 13 21  1  0  0  0  0
 16 15  1  0  0  0  0
 16 17  1  1  0  0  0
 18  2  1  1  0  0  0
 18 16  1  0  0  0  0
 19 18  1  0  0  0  0
 19 20  1  6  0  0  0
 21 19  1  0  0  0  0
 21 22  1  6  0  0  0
 23 20  1  6  0  0  0
 23 24  1  0  0  0  0
 23 28  1  0  0  0  0
 24 25  1  1  0  0  0
 24 26  1  0  0  0  0
 26 27  1  0  0  0  0
 26 32  1  1  0  0  0
 27 28  1  0  0  0  0
 27 29  1  6  0  0  0
 29 30  1  0  0  0  0
 31 32  1  6  0  0  0
 31 40  1  0  0  0  0
 33 31  1  0  0  0  0
 33 42  1  6  0  0  0
 35 33  1  0  0  0  0
 35 36  1  1  0  0  0
 37 35  1  0  0  0  0
 37 38  1  6  0  0  0
 37 39  1  0  0  0  0
 39 40  1  0  0  0  0
 39 41  1  6  0  0  0
 41 34  1  0  0  0  0
M  END
>  <CHROM.1>
173.27258754,178.16347961,28.22981228,75.74862307,125.29191561,125.88481255
-46.13631152,64.58513876,-49.36010004,13.90830266,6.81667956,11.12805818
-2.31244838,1.22730992,-2.25614789

>  <Name>
2et4_lig

>  <RI>
0

>  <Rbt.Current_Directory>
/home/itssahil/PROJECTS/Mol_Feturizer/New_Systems/rnas/2et4

>  <Rbt.Executable>
rbdock ($Id: //depot/dev/client3/rdock/2013.1/src/exe/rbdock.cxx#4 $)

>  <Rbt.Library>
libRbt.so (2013.1, Build901 2013/11/27)

>  <Rbt.Parameter_File>
/export/apps/rDock/src/rDock_2013.1_src/data/scripts/dock_solv.prm

>  <Rbt.Receptor>
prm/blind_docking_40.prm

>  <SCORE>
32.6526

>  <SCORE.INTER>
10.8454

>  <SCORE.INTER.CONST>
1

>  <SCORE.INTER.POLAR>
-1.02937

>  <SCORE.INTER.ROT>
9

>  <SCORE.INTER.SOLV>
33.2984

>  <SCORE.INTER.VDW>
-10.038

>  <SCORE.INTER.norm>
0.258223

>  <SCORE.INTRA>
1.75508

>  <SCORE.INTRA.DIHEDRAL>
-1.06557

>  <SCORE.INTRA.DIHEDRAL.0>
21.6909

>  <SCORE.INTRA.POLAR>
0

>  <SCORE.INTRA.POLAR.0>
0

>  <SCORE.INTRA.REPUL>
0.0926725

>  <SCORE.INTRA.REPUL.0>
0

>  <SCORE.INTRA.SOLV>
5.42156

>  <SCORE.INTRA.SOLV.lig_0>
-116.606

>  <SCORE.INTRA.VDW>
-0.88628

>  <SCORE.INTRA.VDW.0>
-6.01229

>  <SCORE.INTRA.norm>
0.0417876

>  <SCORE.RESTR>
20.0522

>  <SCORE.RESTR.CAVITY>
20.0522

>  <SCORE.RESTR.norm>
0.477433

>  <SCORE.SYSTEM>
0

>  <SCORE.SYSTEM.CONST>
0

>  <SCORE.SYSTEM.DIHEDRAL>
0

>  <SCORE.SYSTEM.SOLV>
0

>  <SCORE.SYSTEM.norm>
0

>  <SCORE.heavy>
42

>  <SCORE.norm>
0.777443

>  <RMSD>
8.031

$$$$
2et4_lig
 OpenBabel11021811423D
libRbt.so/2013.1/901 2013/11/27
 42 45  0  0  0  0  0  0  0  0999 V2000
    8.7341    7.6840   11.2388 C   0  0  2  0  0  0  0  0  0  0  0  0
   10.0224    7.0884   11.4049 O   0  0  0  0  0  0  0  0  0  0  0  0
    7.6902    6.6730   11.7781 C   0  0  2  0  0  0  0  0  0  0  0  0
    7.9499    6.3334   13.1539 N   0  0  0  0  0  0  0  0  0  0  0  0
    7.6926    5.4036   10.8782 C   0  0  1  0  0  0  0  0  0  0  0  0
    6.7421    4.5033   11.3555 O   0  0  0  0  0  0  0  0  0  0  0  0
    7.4026    5.8473    9.4055 C   0  0  2  0  0  0  0  0  0  0  0  0
    7.4026    4.7239    8.5502 O   0  0  0  0  0  0  0  0  0  0  0  0
    8.4711    6.8699    8.9131 C   0  0  2  0  0  0  0  0  0  0  0  0
    8.4684    7.9890    9.8043 O   0  0  0  0  0  0  0  0  0  0  0  0
    8.1892    7.3676    7.4576 C   0  0  0  0  0  0  0  0  0  0  0  0
    7.0076    8.1542    7.3789 N   0  0  0  0  0  0  0  0  0  0  0  0
   12.6823   10.4317   10.7711 C   0  0  2  0  0  0  0  0  0  0  0  0
   13.9239   11.2020   10.6265 N   0  0  0  0  0  0  0  0  0  0  0  0
   12.6284    9.7620   12.2478 C   0  0  0  0  0  0  0  0  0  0  0  0
   11.2946    8.9210   12.3930 C   0  0  2  0  0  0  0  0  0  0  0  0
   11.2159    8.2722   13.7138 N   0  0  0  0  0  0  0  0  0  0  0  0
   11.2420    7.8309   11.2698 C   0  0  2  0  0  0  0  0  0  0  0  0
   11.3240    8.4885    9.8525 C   0  0  2  0  0  0  0  0  0  0  0  0
   11.2830    7.4034    8.8933 O   0  0  0  0  0  0  0  0  0  0  0  0
   12.6483    9.3075    9.7228 C   0  0  1  0  0  0  0  0  0  0  0  0
   12.6869    9.8894    8.4636 O   0  0  0  0  0  0  0  0  0  0  0  0
   12.1652    6.3767    8.8304 C   0  0  1  0  0  0  0  0  0  0  0  0
   11.7317    5.3358    7.7654 C   0  0  2  0  0  0  0  0  0  0  0  0
   10.8026    4.4098    8.2493 O   0  0  0  0  0  0  0  0  0  0  0  0
   13.0995    4.8400    7.3340 C   0  0  1  0  0  0  0  0  0  0  0  0
   14.0344    6.0577    7.3431 C   0  0  2  0  0  0  0  0  0  0  0  0
   13.5218    6.7586    8.4761 O   0  0  0  0  0  0  0  0  0  0  0  0
   14.0057    6.9407    6.0492 C   0  0  0  0  0  0  0  0  0  0  0  0
   14.9416    8.0333    6.2479 O   0  0  0  0  0  0  0  0  0  0  0  0
   14.7752    3.1959    8.1152 C   0  0  2  0  0  0  0  0  0  0  0  0
   13.5294    3.8069    8.3120 O   0  0  0  0  0  0  0  0  0  0  0  0
   15.0516    2.0780    9.2123 C   0  0  1  0  0  0  0  0  0  0  0  0
   19.7058    4.6085    7.5390 N   0  0  0  0  0  0  0  0  0  0  0  0
   16.5144    1.4608    8.9027 C   0  0  1  0  0  0  0  0  0  0  0  0
   16.5008    0.9001    7.4946 O   0  0  0  0  0  0  0  0  0  0  0  0
   17.6410    2.6180    9.0370 C   0  0  2  0  0  0  0  0  0  0  0  0
   17.6408    3.1303   10.3912 O   0  0  0  0  0  0  0  0  0  0  0  0
   17.3033    3.7615    7.9243 C   0  0  1  0  0  0  0  0  0  0  0  0
   15.9035    4.2684    8.1380 O   0  0  0  0  0  0  0  0  0  0  0  0
   18.3176    4.9574    7.9711 C   0  0  0  0  0  0  0  0  0  0  0  0
   14.9400    2.6684   10.5870 N   0  0  0  0  0  0  0  0  0  0  0  0
  1  2  1  6  0  0  0
  1  3  1  0  0  0  0
  1 10  1  0  0  0  0
  3  4  1  1  0  0  0
  3  5  1  0  0  0  0
  5  6  1  1  0  0  0
  5  7  1  0  0  0  0
  7  8  1  6  0  0  0
  7  9  1  0  0  0  0
  9 10  1  0  0  0  0
  9 11  1  6  0  0  0
 11 12  1  0  0  0  0
 13 14  1  1  0  0  0
 13 15  1  0  0  0  0
 13 21  1  0  0  0  0
 16 15  1  0  0  0  0
 16 17  1  1  0  0  0
 18  2  1  6  0  0  0
 18 16  1  0  0  0  0
 19 18  1  0  0  0  0
 19 20  1  6  0  0  0
 21 19  1  0  0  0  0
 21 22  1  6  0  0  0
 23 20  1  6  0  0  0
 23 24  1  0  0  0  0
 23 28  1  0  0  0  0
 24 25  1  1  0  0  0
 24 26  1  0  0  0  0
 26 27  1  0  0  0  0
 26 32  1  1  0  0  0
 27 28  1  0  0  0  0
 27 29  1  6  0  0  0
 29 30  1  0  0  0  0
 31 32  1  1  0  0  0
 31 40  1  0  0  0  0
 33 31  1  0  0  0  0
 33 42  1  1  0  0  0
 35 33  1  0  0  0  0
 35 36  1  6  0  0  0
 37 35  1  0  0  0  0
 37 38  1  1  0  0  0
 37 39  1  0  0  0  0
 39 40  1  0  0  0  0
 39 41  1  1  0  0  0
 41 34  1  0  0  0  0
M  END
>  <CHROM.1>
-167.07455445,67.17592890,63.95412630,-58.64705782,174.63981751,179.83819022
179.80746900,-177.65530034,67.94620852,12.35467755,6.08686345,9.33712225
-2.67105461,-0.16991764,-2.93509948

>  <Name>
2et4_lig

>  <RI>
0

>  <Rbt.Current_Directory>
/home/itssahil/PROJECTS/Mol_Feturizer/New_Systems/rnas/2et4

>  <Rbt.Executable>
rbdock ($Id: //depot/dev/client3/rdock/2013.1/src/exe/rbdock.cxx#4 $)

>  <Rbt.Library>
libRbt.so (2013.1, Build901 2013/11/27)

>  <Rbt.Parameter_File>
/export/apps/rDock/src/rDock_2013.1_src/data/scripts/dock_solv.prm

>  <Rbt.Receptor>
prm/pocket_docking_5.prm

>  <SCORE>
-10.9017

>  <SCORE.INTER>
-1.09292

>  <SCORE.INTER.CONST>
1

>  <SCORE.INTER.POLAR>
-0.957115

>  <SCORE.INTER.ROT>
9

>  <SCORE.INTER.SOLV>
17.8766

>  <SCORE.INTER.VDW>
-13.0971

>  <SCORE.INTER.norm>
-0.026022

>  <SCORE.INTRA>
-9.81423

>  <SCORE.INTRA.DIHEDRAL>
-20.062

>  <SCORE.INTRA.DIHEDRAL.0>
21.6909

>  <SCORE.INTRA.POLAR>
0

>  <SCORE.INTRA.POLAR.0>
0

>  <SCORE.INTRA.REPUL>
0

>  <SCORE.INTRA.REPUL.0>
0

>  <SCORE.INTRA.SOLV>
-1.56163

>  <SCORE.INTRA.SOLV.lig_0>
-116.606

>  <SCORE.INTRA.VDW>
0.997579

>  <SCORE.INTRA.VDW.0>
-6.01229

>  <SCORE.INTRA.norm>
-0.233672

>  <SCORE.RESTR>
0.00545034

>  <SCORE.RESTR.CAVITY>
0.00545034

>  <SCORE.RESTR.norm>
0.00012977

>  <SCORE.SYSTEM>
0

>  <SCORE.SYSTEM.CONST>
0

>  <SCORE.SYSTEM.DIHEDRAL>
0

>  <SCORE.SYSTEM.SOLV>
0

>  <SCORE.SYSTEM.norm>
0

>  <SCORE.heavy>
42

>  <SCORE.norm>
-0.259564

>  <RMSD>
8.031

$$$$
2et4_lig
 OpenBabel11021811423D
libRbt.so/2013.1/901 2013/11/27
 42 45  0  0  0  0  0  0  0  0999 V2000
   17.3964    3.4425   10.4159 C   0  0  2  0  0  0  0  0  0  0  0  0
   16.1191    3.3927    9.7769 O   0  0  0  0  0  0  0  0  0  0  0  0
   17.6642    4.9235   10.7871 C   0  0  2  0  0  0  0  0  0  0  0  0
   16.6222    5.4501   11.6312 N   0  0  0  0  0  0  0  0  0  0  0  0
   17.8060    5.7618    9.4839 C   0  0  1  0  0  0  0  0  0  0  0  0
   18.0628    7.0894    9.8203 O   0  0  0  0  0  0  0  0  0  0  0  0
   18.9527    5.1358    8.6218 C   0  0  2  0  0  0  0  0  0  0  0  0
   19.1117    5.8632    7.4222 O   0  0  0  0  0  0  0  0  0  0  0  0
   18.6430    3.6459    8.2838 C   0  0  2  0  0  0  0  0  0  0  0  0
   18.4656    2.9326    9.5112 O   0  0  0  0  0  0  0  0  0  0  0  0
   19.7884    2.9750    7.4571 C   0  0  0  0  0  0  0  0  0  0  0  0
   19.6137    1.5689    7.3410 N   0  0  0  0  0  0  0  0  0  0  0  0
   12.1037    1.8675   10.2298 C   0  0  2  0  0  0  0  0  0  0  0  0
   10.9249    1.2376   10.8375 N   0  0  0  0  0  0  0  0  0  0  0  0
   13.3298    0.8055   10.1969 C   0  0  0  0  0  0  0  0  0  0  0  0
   14.6023    1.4946    9.5539 C   0  0  2  0  0  0  0  0  0  0  0  0
   15.7507    0.5716    9.5274 N   0  0  0  0  0  0  0  0  0  0  0  0
   14.9755    2.7718   10.3798 C   0  0  2  0  0  0  0  0  0  0  0  0
   13.7748    3.7737   10.4276 C   0  0  2  0  0  0  0  0  0  0  0  0
   14.2142    4.9039   11.2204 O   0  0  0  0  0  0  0  0  0  0  0  0
   12.5307    3.0814   11.0712 C   0  0  1  0  0  0  0  0  0  0  0  0
   11.4796    3.9873   11.0873 O   0  0  0  0  0  0  0  0  0  0  0  0
   13.7535    6.1728   11.1024 C   0  0  1  0  0  0  0  0  0  0  0  0
   12.7367    6.5018   12.2264 C   0  0  2  0  0  0  0  0  0  0  0  0
   11.4364    6.0815   11.9305 O   0  0  0  0  0  0  0  0  0  0  0  0
   13.0071    7.9874   12.3767 C   0  0  1  0  0  0  0  0  0  0  0  0
   14.5182    8.1830   12.1898 C   0  0  2  0  0  0  0  0  0  0  0  0
   14.7751    7.2030   11.1840 O   0  0  0  0  0  0  0  0  0  0  0  0
   15.3927    7.9490   13.4685 C   0  0  0  0  0  0  0  0  0  0  0  0
   14.9380    8.8837   14.4828 O   0  0  0  0  0  0  0  0  0  0  0  0
   11.9912   10.0639   11.4949 C   0  0  2  0  0  0  0  0  0  0  0  0
   12.2255    8.6924   11.3275 O   0  0  0  0  0  0  0  0  0  0  0  0
   11.7966   10.7932   10.0949 C   0  0  1  0  0  0  0  0  0  0  0  0
   15.5778   12.6733   12.5823 N   0  0  0  0  0  0  0  0  0  0  0  0
   11.5570   12.3623   10.4065 C   0  0  1  0  0  0  0  0  0  0  0  0
   10.3375   12.4847   11.2983 O   0  0  0  0  0  0  0  0  0  0  0  0
   12.8591   12.9830   11.1452 C   0  0  2  0  0  0  0  0  0  0  0  0
   14.0070   12.8630   10.2711 O   0  0  0  0  0  0  0  0  0  0  0  0
   13.0479   12.1865   12.5558 C   0  0  1  0  0  0  0  0  0  0  0  0
   13.1660   10.7118   12.2849 O   0  0  0  0  0  0  0  0  0  0  0  0
   14.3003   12.6842   13.3590 C   0  0  0  0  0  0  0  0  0  0  0  0
   12.9854   10.5420    9.2150 N   0  0  0  0  0  0  0  0  0  0  0  0
  1  2  1  6  0  0  0
  1  3  1  0  0  0  0
  1 10  1  0  0  0  0
  3  4  1  1  0  0  0
  3  5  1  0  0  0  0
  5  6  1  1  0  0  0
  5  7  1  0  0  0  0
  7  8  1  6  0  0  0
  7  9  1  0  0  0  0
  9 10  1  0  0  0  0
  9 11  1  1  0  0  0
 11 12  1  0  0  0  0
 13 14  1  1  0  0  0
 13 15  1  0  0  0  0
 13 21  1  0  0  0  0
 16 15  1  0  0  0  0
 16 17  1  1  0  0  0
 18  2  1  6  0  0  0
 18 16  1  0  0  0  0
 19 18  1  0  0  0  0
 19 20  1  1  0  0  0
 21 19  1  0  0  0  0
 21 22  1  6  0  0  0
 23 20  1  1  0  0  0
 23 24  1  0  0  0  0
 23 28  1  0  0  0  0
 24 25  1  6  0  0  0
 24 26  1  0  0  0  0
 26 27  1  0  0  0  0
 26 32  1  6  0  0  0
 27 28  1  0  0  0  0
 27 29  1  1  0  0  0
 29 30  1  0  0  0  0
 31 32  1  6  0  0  0
 31 40  1  0  0  0  0
 33 31  1  0  0  0  0
 33 42  1  6  0  0  0
 35 33  1  0  0  0  0
 35 36  1  1  0  0  0
 37 35  1  0  0  0  0
 37 38  1  6  0  0  0
 37 39  1  0  0  0  0
 39 40  1  0  0  0  0
 39 41  1  6  0  0  0
 41 34  1  0  0  0  0
M  END
>  <CHROM.1>
-111.25325305,170.17881866,-112.40059721,152.57101079,101.79368245,161.52368754
-59.25381413,152.92549968,-53.21314837,14.67524599,6.57547077,10.72524340
-1.16278258,0.31435856,0.13309341

>  <Name>
2et4_lig

>  <RI>
0

>  <Rbt.Current_Directory>
/home/itssahil/PROJECTS/Mol_Feturizer/New_Systems/rnas/2et4

>  <Rbt.Executable>
rbdock ($Id: //depot/dev/client3/rdock/2013.1/src/exe/rbdock.cxx#4 $)

>  <Rbt.Library>
libRbt.so (2013.1, Build901 2013/11/27)

>  <Rbt.Parameter_File>
/export/apps/rDock/src/rDock_2013.1_src/data/scripts/dock_solv.prm

>  <Rbt.Receptor>
prm/blind_docking_40.prm

>  <SCORE>
24.7874

>  <SCORE.INTER>
-2.15555

>  <SCORE.INTER.CONST>
1

>  <SCORE.INTER.POLAR>
-2.12016

>  <SCORE.INTER.ROT>
9

>  <SCORE.INTER.SOLV>
32.8744

>  <SCORE.INTER.VDW>
-14.9279

>  <SCORE.INTER.norm>
-0.0513227

>  <SCORE.INTRA>
8.83355

>  <SCORE.INTRA.DIHEDRAL>
6.08851

>  <SCORE.INTRA.DIHEDRAL.0>
21.6909

>  <SCORE.INTRA.POLAR>
0

>  <SCORE.INTRA.POLAR.0>
0

>  <SCORE.INTRA.REPUL>
0.0292358

>  <SCORE.INTRA.REPUL.0>
0

>  <SCORE.INTRA.SOLV>
3.87277

>  <SCORE.INTRA.SOLV.lig_0>
-116.606

>  <SCORE.INTRA.VDW>
3.70673

>  <SCORE.INTRA.VDW.0>
-6.01229

>  <SCORE.INTRA.norm>
0.210323

>  <SCORE.RESTR>
18.1094

>  <SCORE.RESTR.CAVITY>
18.1094

>  <SCORE.RESTR.norm>
0.431175

>  <SCORE.SYSTEM>
0

>  <SCORE.SYSTEM.CONST>
0

>  <SCORE.SYSTEM.DIHEDRAL>
0

>  <SCORE.SYSTEM.SOLV>
0

>  <SCORE.SYSTEM.norm>
0

>  <SCORE.heavy>
42

>  <SCORE.norm>
0.590175

>  <RMSD>
8.037

$$$$
2et4_lig
 OpenBabel11021811423D
libRbt.so/2013.1/901 2013/11/27
 42 45  0  0  0  0  0  0  0  0999 V2000
   13.0176    4.1406   12.6157 C   0  0  2  0  0  0  0  0  0  0  0  0
   12.9704    4.2551   11.1921 O   0  0  0  0  0  0  0  0  0  0  0  0
   11.5556    4.0037   13.1120 C   0  0  2  0  0  0  0  0  0  0  0  0
   10.8986    2.8741   12.5054 N   0  0  0  0  0  0  0  0  0  0  0  0
   10.7871    5.3238   12.8153 C   0  0  1  0  0  0  0  0  0  0  0  0
    9.4778    5.2039   13.2769 O   0  0  0  0  0  0  0  0  0  0  0  0
   11.5536    6.5017   13.5044 C   0  0  2  0  0  0  0  0  0  0  0  0
   10.8929    7.7242   13.2543 O   0  0  0  0  0  0  0  0  0  0  0  0
   13.0193    6.5916   12.9813 C   0  0  2  0  0  0  0  0  0  0  0  0
   13.6630    5.3376   13.2259 O   0  0  0  0  0  0  0  0  0  0  0  0
   13.8290    7.7330   13.6793 C   0  0  0  0  0  0  0  0  0  0  0  0
   15.1721    7.7976   13.2180 N   0  0  0  0  0  0  0  0  0  0  0  0
   17.1111    3.7382   10.0774 C   0  0  2  0  0  0  0  0  0  0  0  0
   18.3185    3.6547    9.2463 N   0  0  0  0  0  0  0  0  0  0  0  0
   16.0392    2.6218    9.5905 C   0  0  0  0  0  0  0  0  0  0  0  0
   14.7338    2.7261   10.4806 C   0  0  2  0  0  0  0  0  0  0  0  0
   13.7201    1.7446   10.0553 N   0  0  0  0  0  0  0  0  0  0  0  0
   14.1422    4.1719   10.3693 C   0  0  2  0  0  0  0  0  0  0  0  0
   15.1958    5.2395   10.8142 C   0  0  2  0  0  0  0  0  0  0  0  0
   14.5603    6.5325   10.6610 O   0  0  0  0  0  0  0  0  0  0  0  0
   16.4737    5.1286    9.9219 C   0  0  1  0  0  0  0  0  0  0  0  0
   17.3938    6.0760   10.3477 O   0  0  0  0  0  0  0  0  0  0  0  0
   14.0778    7.0379    9.5000 C   0  0  1  0  0  0  0  0  0  0  0  0
   12.5548    6.7751    9.3697 C   0  0  2  0  0  0  0  0  0  0  0  0
   12.2583    5.5093    8.8551 O   0  0  0  0  0  0  0  0  0  0  0  0
   12.1608    8.0003    8.5658 C   0  0  1  0  0  0  0  0  0  0  0  0
   13.0207    9.1629    9.0815 C   0  0  2  0  0  0  0  0  0  0  0  0
   14.2427    8.4733    9.3441 O   0  0  0  0  0  0  0  0  0  0  0  0
   12.4764    9.8912   10.3574 C   0  0  0  0  0  0  0  0  0  0  0  0
   11.1335   10.3536   10.0543 O   0  0  0  0  0  0  0  0  0  0  0  0
   13.6227    8.1968    6.5794 C   0  0  2  0  0  0  0  0  0  0  0  0
   12.4346    7.7036    7.1355 O   0  0  0  0  0  0  0  0  0  0  0  0
   13.4857    8.3998    5.0078 C   0  0  1  0  0  0  0  0  0  0  0  0
   18.6105    6.8726    6.3067 N   0  0  0  0  0  0  0  0  0  0  0  0
   14.9115    8.9465    4.4740 C   0  0  1  0  0  0  0  0  0  0  0  0
   15.2221   10.2400    5.2006 O   0  0  0  0  0  0  0  0  0  0  0  0
   16.0669    7.8474    4.7627 C   0  0  2  0  0  0  0  0  0  0  0  0
   15.7529    6.6260    4.0514 O   0  0  0  0  0  0  0  0  0  0  0  0
   16.1516    7.6388    6.3780 C   0  0  1  0  0  0  0  0  0  0  0  0
   14.8014    7.2317    6.9006 O   0  0  0  0  0  0  0  0  0  0  0  0
   17.2266    6.5715    6.7861 C   0  0  0  0  0  0  0  0  0  0  0  0
   13.0670    7.1140    4.3582 N   0  0  0  0  0  0  0  0  0  0  0  0
  1  2  1  6  0  0  0
  1  3  1  0  0  0  0
  1 10  1  0  0  0  0
  3  4  1  6  0  0  0
  3  5  1  0  0  0  0
  5  6  1  1  0  0  0
  5  7  1  0  0  0  0
  7  8  1  6  0  0  0
  7  9  1  0  0  0  0
  9 10  1  0  0  0  0
  9 11  1  1  0  0  0
 11 12  1  0  0  0  0
 13 14  1  6  0  0  0
 13 15  1  0  0  0  0
 13 21  1  0  0  0  0
 16 15  1  0  0  0  0
 16 17  1  6  0  0  0
 18  2  1  1  0  0  0
 18 16  1  0  0  0  0
 19 18  1  0  0  0  0
 19 20  1  6  0  0  0
 21 19  1  0  0  0  0
 21 22  1  1  0  0  0
 23 20  1  1  0  0  0
 23 24  1  0  0  0  0
 23 28  1  0  0  0  0
 24 25  1  6  0  0  0
 24 26  1  0  0  0  0
 26 27  1  0  0  0  0
 26 32  1  6  0  0  0
 27 28  1  0  0  0  0
 27 29  1  1  0  0  0
 29 30  1  0  0  0  0
 31 32  1  6  0  0  0
 31 40  1  0  0  0  0
 33 31  1  0  0  0  0
 33 42  1  6  0  0  0
 35 33  1  0  0  0  0
 35 36  1  1  0  0  0
 37 35  1  0  0  0  0
 37 38  1  6  0  0  0
 37 39  1  0  0  0  0
 39 40  1  0  0  0  0
 39 41  1  6  0  0  0
 41 34  1  0  0  0  0
M  END
>  <CHROM.1>
-169.17698671,178.94775677,65.49024799,-59.78934312,96.08427842,-99.11841237
-56.44501264,-153.90324201,57.48622271,13.97533928,6.40484335,9.52407318
-2.10075439,0.69125605,-0.86178359

>  <Name>
2et4_lig

>  <RI>
0

>  <Rbt.Current_Directory>
/home/itssahil/PROJECTS/Mol_Feturizer/New_Systems/rnas/2et4

>  <Rbt.Executable>
rbdock ($Id: //depot/dev/client3/rdock/2013.1/src/exe/rbdock.cxx#4 $)

>  <Rbt.Library>
libRbt.so (2013.1, Build901 2013/11/27)

>  <Rbt.Parameter_File>
/export/apps/rDock/src/rDock_2013.1_src/data/scripts/dock_solv.prm

>  <Rbt.Receptor>
prm/pocket_docking_8.prm

>  <SCORE>
-13.2215

>  <SCORE.INTER>
-11.2864

>  <SCORE.INTER.CONST>
1

>  <SCORE.INTER.POLAR>
-1.44629

>  <SCORE.INTER.ROT>
9

>  <SCORE.INTER.SOLV>
20.4702

>  <SCORE.INTER.VDW>
-19.1267

>  <SCORE.INTER.norm>
-0.268723

>  <SCORE.INTRA>
-1.93515

>  <SCORE.INTRA.DIHEDRAL>
-7.95403

>  <SCORE.INTRA.DIHEDRAL.0>
21.6909

>  <SCORE.INTRA.POLAR>
0

>  <SCORE.INTRA.POLAR.0>
0

>  <SCORE.INTRA.REPUL>
0

>  <SCORE.INTRA.REPUL.0>
0

>  <SCORE.INTRA.SOLV>
1.5707

>  <SCORE.INTRA.SOLV.lig_0>
-116.606

>  <SCORE.INTRA.VDW>
1.25652

>  <SCORE.INTRA.VDW.0>
-6.01229

>  <SCORE.INTRA.norm>
-0.0460749

>  <SCORE.RESTR>
0

>  <SCORE.RESTR.CAVITY>
0

>  <SCORE.RESTR.norm>
0

>  <SCORE.SYSTEM>
0

>  <SCORE.SYSTEM.CONST>
0

>  <SCORE.SYSTEM.DIHEDRAL>
0

>  <SCORE.SYSTEM.SOLV>
0

>  <SCORE.SYSTEM.norm>
0

>  <SCORE.heavy>
42

>  <SCORE.norm>
-0.314798

>  <RMSD>
8.055

$$$$
2et4_lig
 OpenBabel11021811423D
libRbt.so/2013.1/901 2013/11/27
 42 45  0  0  0  0  0  0  0  0999 V2000
   14.1142   12.6584   11.2464 C   0  0  2  0  0  0  0  0  0  0  0  0
   14.0711   11.2471   11.4667 O   0  0  0  0  0  0  0  0  0  0  0  0
   14.7229   13.3011   12.5188 C   0  0  2  0  0  0  0  0  0  0  0  0
   16.0285   12.7637   12.8055 N   0  0  0  0  0  0  0  0  0  0  0  0
   13.7536   13.0856   13.7168 C   0  0  1  0  0  0  0  0  0  0  0  0
   14.2956   13.6783   14.8555 O   0  0  0  0  0  0  0  0  0  0  0  0
   12.3625   13.6940   13.3362 C   0  0  2  0  0  0  0  0  0  0  0  0
   11.4467   13.5138   14.3955 O   0  0  0  0  0  0  0  0  0  0  0  0
   11.7976   13.0242   12.0470 C   0  0  2  0  0  0  0  0  0  0  0  0
   12.7491   13.2006   10.9933 O   0  0  0  0  0  0  0  0  0  0  0  0
   10.4260   13.6369   11.6127 C   0  0  0  0  0  0  0  0  0  0  0  0
    9.3378   13.0910   12.3470 N   0  0  0  0  0  0  0  0  0  0  0  0
   10.1548    9.7083   10.4922 C   0  0  2  0  0  0  0  0  0  0  0  0
    9.1103    8.8513    9.9175 N   0  0  0  0  0  0  0  0  0  0  0  0
   11.0468   10.3505    9.2988 C   0  0  0  0  0  0  0  0  0  0  0  0
   12.1802   11.2620    9.9247 C   0  0  2  0  0  0  0  0  0  0  0  0
   13.0328   11.8470    8.8746 N   0  0  0  0  0  0  0  0  0  0  0  0
   13.0597   10.4050   10.8966 C   0  0  2  0  0  0  0  0  0  0  0  0
   12.1825    9.7685   12.0250 C   0  0  2  0  0  0  0  0  0  0  0  0
   13.0808    8.9908   12.8540 O   0  0  0  0  0  0  0  0  0  0  0  0
   11.0748    8.8668   11.3917 C   0  0  1  0  0  0  0  0  0  0  0  0
   10.3055    8.3281   12.4133 O   0  0  0  0  0  0  0  0  0  0  0  0
   13.9269    8.0304   12.4091 C   0  0  1  0  0  0  0  0  0  0  0  0
   14.7125    7.3935   13.5849 C   0  0  2  0  0  0  0  0  0  0  0  0
   15.8494    8.1235   13.9448 O   0  0  0  0  0  0  0  0  0  0  0  0
   14.8902    5.9914   13.0323 C   0  0  1  0  0  0  0  0  0  0  0  0
   13.5985    5.6465   12.2777 C   0  0  2  0  0  0  0  0  0  0  0  0
   13.2853    6.9230   11.7207 O   0  0  0  0  0  0  0  0  0  0  0  0
   12.4284    5.0925   13.1602 C   0  0  0  0  0  0  0  0  0  0  0  0
   12.8801    3.8429   13.7462 O   0  0  0  0  0  0  0  0  0  0  0  0
   16.4044    4.8288   11.4584 C   0  0  2  0  0  0  0  0  0  0  0  0
   16.0688    6.0138   12.1271 O   0  0  0  0  0  0  0  0  0  0  0  0
   17.2941    5.1215   10.1729 C   0  0  1  0  0  0  0  0  0  0  0  0
   13.0204    2.9576    9.1863 N   0  0  0  0  0  0  0  0  0  0  0  0
   17.6004    3.6955    9.4732 C   0  0  1  0  0  0  0  0  0  0  0  0
   18.3126    2.8183   10.4835 O   0  0  0  0  0  0  0  0  0  0  0  0
   16.2128    3.0017    9.0044 C   0  0  2  0  0  0  0  0  0  0  0  0
   15.5570    3.8529    8.0341 O   0  0  0  0  0  0  0  0  0  0  0  0
   15.3139    2.7521   10.3421 C   0  0  1  0  0  0  0  0  0  0  0  0
   15.1115    4.0587   11.0589 O   0  0  0  0  0  0  0  0  0  0  0  0
   13.9244    2.1016   10.0144 C   0  0  0  0  0  0  0  0  0  0  0  0
   16.5851    6.0830    9.2654 N   0  0  0  0  0  0  0  0  0  0  0  0
  1  2  1  1  0  0  0
  1  3  1  0  0  0  0
  1 10  1  0  0  0  0
  3  4  1  1  0  0  0
  3  5  1  0  0  0  0
  5  6  1  1  0  0  0
  5  7  1  0  0  0  0
  7  8  1  1  0  0  0
  7  9  1  0  0  0  0
  9 10  1  0  0  0  0
  9 11  1  6  0  0  0
 11 12  1  0  0  0  0
 13 14  1  6  0  0  0
 13 15  1  0  0  0  0
 13 21  1  0  0  0  0
 16 15  1  0  0  0  0
 16 17  1  6  0  0  0
 18  2  1  1  0  0  0
 18 16  1  0  0  0  0
 19 18  1  0  0  0  0
 19 20  1  1  0  0  0
 21 19  1  0  0  0  0
 21 22  1  1  0  0  0
 23 20  1  1  0  0  0
 23 24  1  0  0  0  0
 23 28  1  0  0  0  0
 24 25  1  6  0  0  0
 24 26  1  0  0  0  0
 26 27  1  0  0  0  0
 26 32  1  6  0  0  0
 27 28  1  0  0  0  0
 27 29  1  1  0  0  0
 29 30  1  0  0  0  0
 31 32  1  6  0  0  0
 31 40  1  0  0  0  0
 33 31  1  0  0  0  0
 33 42  1  6  0  0  0
 35 33  1  0  0  0  0
 35 36  1  1  0  0  0
 37 35  1  0  0  0  0
 37 38  1  6  0  0  0
 37 39  1  0  0  0  0
 39 40  1  0  0  0  0
 39 41  1  6  0  0  0
 41 34  1  0  0  0  0
M  END
>  <CHROM.1>
148.73224061,-81.41730534,6.04499442,-53.67414617,-178.89730884,-177.92661554
-62.64050668,158.95821706,-64.23674538,13.65867653,8.39899904,11.54907717
-1.93672819,0.24815478,-2.85141368

>  <Name>
2et4_lig

>  <RI>
0

>  <Rbt.Current_Directory>
/home/itssahil/PROJECTS/Mol_Feturizer/New_Systems/rnas/2et4

>  <Rbt.Executable>
rbdock ($Id: //depot/dev/client3/rdock/2013.1/src/exe/rbdock.cxx#4 $)

>  <Rbt.Library>
libRbt.so (2013.1, Build901 2013/11/27)

>  <Rbt.Parameter_File>
/export/apps/rDock/src/rDock_2013.1_src/data/scripts/dock_solv.prm

>  <Rbt.Receptor>
prm/blind_docking_40.prm

>  <SCORE>
40.5871

>  <SCORE.INTER>
2.36656

>  <SCORE.INTER.CONST>
1

>  <SCORE.INTER.POLAR>
-1.00364

>  <SCORE.INTER.ROT>
9

>  <SCORE.INTER.SOLV>
27.8251

>  <SCORE.INTER.VDW>
-13.9519

>  <SCORE.INTER.norm>
0.0563468

>  <SCORE.INTRA>
11.9957

>  <SCORE.INTRA.DIHEDRAL>
-6.90304

>  <SCORE.INTRA.DIHEDRAL.0>
21.6909

>  <SCORE.INTRA.POLAR>
0

>  <SCORE.INTRA.POLAR.0>
0

>  <SCORE.INTRA.REPUL>
0

>  <SCORE.INTRA.REPUL.0>
0

>  <SCORE.INTRA.SOLV>
2.5158

>  <SCORE.INTRA.SOLV.lig_0>
-116.606

>  <SCORE.INTRA.VDW>
14.1894

>  <SCORE.INTRA.VDW.0>
-6.01229

>  <SCORE.INTRA.norm>
0.285613

>  <SCORE.RESTR>
26.2248

>  <SCORE.RESTR.CAVITY>
26.2248

>  <SCORE.RESTR.norm>
0.624399

>  <SCORE.SYSTEM>
0

>  <SCORE.SYSTEM.CONST>
0

>  <SCORE.SYSTEM.DIHEDRAL>
0

>  <SCORE.SYSTEM.SOLV>
0

>  <SCORE.SYSTEM.norm>
0

>  <SCORE.heavy>
42

>  <SCORE.norm>
0.966359

>  <RMSD>
8.084

$$$$
2et4_lig
 OpenBabel11021811423D
libRbt.so/2013.1/901 2013/11/27
 42 45  0  0  0  0  0  0  0  0999 V2000
   17.4103    4.4439   10.6191 C   0  0  2  0  0  0  0  0  0  0  0  0
   16.0828    4.9525   10.4734 O   0  0  0  0  0  0  0  0  0  0  0  0
   18.3385    5.3352    9.7550 C   0  0  2  0  0  0  0  0  0  0  0  0
   18.2495    6.7193   10.1449 N   0  0  0  0  0  0  0  0  0  0  0  0
   17.9738    5.1521    8.2535 C   0  0  1  0  0  0  0  0  0  0  0  0
   18.8203    5.9419    7.4780 O   0  0  0  0  0  0  0  0  0  0  0  0
   18.0946    3.6315    7.9026 C   0  0  2  0  0  0  0  0  0  0  0  0
   17.7643    3.4176    6.5466 O   0  0  0  0  0  0  0  0  0  0  0  0
   17.1519    2.7773    8.8035 C   0  0  2  0  0  0  0  0  0  0  0  0
   17.4898    3.0245   10.1715 O   0  0  0  0  0  0  0  0  0  0  0  0
   17.2768    1.2466    8.5087 C   0  0  0  0  0  0  0  0  0  0  0  0
   16.5108    0.8537    7.3773 N   0  0  0  0  0  0  0  0  0  0  0  0
   12.0316    4.4145   11.8710 C   0  0  2  0  0  0  0  0  0  0  0  0
   10.9004    3.9545   12.6862 N   0  0  0  0  0  0  0  0  0  0  0  0
   12.8044    3.1334   11.2435 C   0  0  0  0  0  0  0  0  0  0  0  0
   14.0315    3.6347   10.3774 C   0  0  2  0  0  0  0  0  0  0  0  0
   14.7794    2.5000    9.8076 N   0  0  0  0  0  0  0  0  0  0  0  0
   14.9855    4.4934   11.2748 C   0  0  2  0  0  0  0  0  0  0  0  0
   14.2203    5.7083   11.8962 C   0  0  2  0  0  0  0  0  0  0  0  0
   15.1796    6.4235   12.7132 O   0  0  0  0  0  0  0  0  0  0  0  0
   13.0182    5.1967   12.7533 C   0  0  1  0  0  0  0  0  0  0  0  0
   12.3514    6.2942   13.2792 O   0  0  0  0  0  0  0  0  0  0  0  0
   15.1843    7.7612   12.9297 C   0  0  1  0  0  0  0  0  0  0  0  0
   14.0014    8.4469   12.1976 C   0  0  2  0  0  0  0  0  0  0  0  0
   14.2791    8.7379   10.8585 O   0  0  0  0  0  0  0  0  0  0  0  0
   13.7499    9.5954   13.1571 C   0  0  1  0  0  0  0  0  0  0  0  0
   13.9781    9.0471   14.5727 C   0  0  2  0  0  0  0  0  0  0  0  0
   15.0637    8.1543   14.3235 O   0  0  0  0  0  0  0  0  0  0  0  0
   12.7543    8.3112   15.2173 C   0  0  0  0  0  0  0  0  0  0  0  0
   11.6638    9.2672   15.2945 O   0  0  0  0  0  0  0  0  0  0  0  0
   14.2438   11.7632   12.0717 C   0  0  2  0  0  0  0  0  0  0  0  0
   14.7130   10.6767   12.8222 O   0  0  0  0  0  0  0  0  0  0  0  0
   13.8418   12.9838   13.0089 C   0  0  1  0  0  0  0  0  0  0  0  0
   10.0484   11.3891   10.3531 N   0  0  0  0  0  0  0  0  0  0  0  0
   13.2979   14.1633   12.0448 C   0  0  1  0  0  0  0  0  0  0  0  0
   14.4014   14.5207   11.0691 O   0  0  0  0  0  0  0  0  0  0  0  0
   11.9812   13.6593   11.2455 C   0  0  2  0  0  0  0  0  0  0  0  0
   10.9400   13.3335   12.1973 O   0  0  0  0  0  0  0  0  0  0  0  0
   12.4237   12.3868   10.3264 C   0  0  1  0  0  0  0  0  0  0  0  0
   13.0291   11.3245   11.2022 O   0  0  0  0  0  0  0  0  0  0  0  0
   11.2206   11.7894    9.5158 C   0  0  0  0  0  0  0  0  0  0  0  0
   12.8311   12.5403   14.0251 N   0  0  0  0  0  0  0  0  0  0  0  0
  1  2  1  6  0  0  0
  1  3  1  0  0  0  0
  1 10  1  0  0  0  0
  3  4  1  1  0  0  0
  3  5  1  0  0  0  0
  5  6  1  6  0  0  0
  5  7  1  0  0  0  0
  7  8  1  6  0  0  0
  7  9  1  0  0  0  0
  9 10  1  0  0  0  0
  9 11  1  6  0  0  0
 11 12  1  0  0  0  0
 13 14  1  1  0  0  0
 13 15  1  0  0  0  0
 13 21  1  0  0  0  0
 16 15  1  0  0  0  0
 16 17  1  1  0  0  0
 18  2  1  6  0  0  0
 18 16  1  0  0  0  0
 19 18  1  0  0  0  0
 19 20  1  1  0  0  0
 21 19  1  0  0  0  0
 21 22  1  6  0  0  0
 23 20  1  1  0  0  0
 23 24  1  0  0  0  0
 23 28  1  0  0  0  0
 24 25  1  6  0  0  0
 24 26  1  0  0  0  0
 26 27  1  0  0  0  0
 26 32  1  6  0  0  0
 27 28  1  0  0  0  0
 27 29  1  6  0  0  0
 29 30  1  0  0  0  0
 31 32  1  1  0  0  0
 31 40  1  0  0  0  0
 33 31  1  0  0  0  0
 33 42  1  1  0  0  0
 35 33  1  0  0  0  0
 35 36  1  6  0  0  0
 37 35  1  0  0  0  0
 37 38  1  1  0  0  0
 37 39  1  0  0  0  0
 39 40  1  0  0  0  0
 39 41  1  1  0  0  0
 41 34  1  0  0  0  0
M  END
>  <CHROM.1>
-171.03965934,-81.55913767,-108.70857787,148.18048183,0.81648750,101.14878852
-60.29414071,96.38071188,-55.51186538,14.50608625,7.48034881,11.25203870
-0.98680212,0.76609506,-0.07785379

>  <Name>
2et4_lig

>  <RI>
0

>  <Rbt.Current_Directory>
/home/itssahil/PROJECTS/Mol_Feturizer/New_Systems/rnas/2et4

>  <Rbt.Executable>
rbdock ($Id: //depot/dev/client3/rdock/2013.1/src/exe/rbdock.cxx#4 $)

>  <Rbt.Library>
libRbt.so (2013.1, Build901 2013/11/27)

>  <Rbt.Parameter_File>
/export/apps/rDock/src/rDock_2013.1_src/data/scripts/dock_solv.prm

>  <Rbt.Receptor>
prm/blind_docking_40.prm

>  <SCORE>
29.9673

>  <SCORE.INTER>
-2.43308

>  <SCORE.INTER.CONST>
1

>  <SCORE.INTER.POLAR>
-0.824621

>  <SCORE.INTER.ROT>
9

>  <SCORE.INTER.SOLV>
21.1121

>  <SCORE.INTER.VDW>
-15.5107

>  <SCORE.INTER.norm>
-0.0579305

>  <SCORE.INTRA>
9.92981

>  <SCORE.INTRA.DIHEDRAL>
8.44632

>  <SCORE.INTRA.DIHEDRAL.0>
21.6909

>  <SCORE.INTRA.POLAR>
0

>  <SCORE.INTRA.POLAR.0>
0

>  <SCORE.INTRA.REPUL>
0

>  <SCORE.INTRA.REPUL.0>
0

>  <SCORE.INTRA.SOLV>
5.13124

>  <SCORE.INTRA.SOLV.lig_0>
-116.606

>  <SCORE.INTRA.VDW>
3.14103

>  <SCORE.INTRA.VDW.0>
-6.01229

>  <SCORE.INTRA.norm>
0.236424

>  <SCORE.RESTR>
22.4706

>  <SCORE.RESTR.CAVITY>
22.4706

>  <SCORE.RESTR.norm>
0.535014

>  <SCORE.SYSTEM>
0

>  <SCORE.SYSTEM.CONST>
0

>  <SCORE.SYSTEM.DIHEDRAL>
0

>  <SCORE.SYSTEM.SOLV>
0

>  <SCORE.SYSTEM.norm>
0

>  <SCORE.heavy>
42

>  <SCORE.norm>
0.713508

>  <RMSD>
8.157

$$$$
2et4_lig
 OpenBabel11021811423D
libRbt.so/2013.1/901 2013/11/27
 42 45  0  0  0  0  0  0  0  0999 V2000
    8.3022    5.8335    9.0478 C   0  0  2  0  0  0  0  0  0  0  0  0
    9.6004    5.2433    9.1398 O   0  0  0  0  0  0  0  0  0  0  0  0
    8.0839    6.2286    7.5649 C   0  0  2  0  0  0  0  0  0  0  0  0
    8.2174    5.0897    6.6927 N   0  0  0  0  0  0  0  0  0  0  0  0
    9.0909    7.3503    7.1789 C   0  0  1  0  0  0  0  0  0  0  0  0
    8.8816    7.7148    5.8503 O   0  0  0  0  0  0  0  0  0  0  0  0
    8.8871    8.5505    8.1626 C   0  0  2  0  0  0  0  0  0  0  0  0
    9.7886    9.5920    7.8524 O   0  0  0  0  0  0  0  0  0  0  0  0
    9.1066    8.1017    9.6392 C   0  0  2  0  0  0  0  0  0  0  0  0
    8.1986    7.0338    9.9254 O   0  0  0  0  0  0  0  0  0  0  0  0
    8.8702    9.2672   10.6546 C   0  0  0  0  0  0  0  0  0  0  0  0
    9.8267   10.3087   10.5083 N   0  0  0  0  0  0  0  0  0  0  0  0
    9.8613    4.1829   13.3186 C   0  0  2  0  0  0  0  0  0  0  0  0
   10.3729    3.6093   14.5695 N   0  0  0  0  0  0  0  0  0  0  0  0
    9.6153    2.9971   12.2389 C   0  0  0  0  0  0  0  0  0  0  0  0
    9.0775    3.6229   10.8874 C   0  0  2  0  0  0  0  0  0  0  0  0
    8.8639    2.5815    9.8669 N   0  0  0  0  0  0  0  0  0  0  0  0
   10.1081    4.6749   10.3547 C   0  0  2  0  0  0  0  0  0  0  0  0
   10.3576    5.7962   11.4170 C   0  0  2  0  0  0  0  0  0  0  0  0
   11.3283    6.7022   10.8375 O   0  0  0  0  0  0  0  0  0  0  0  0
   10.8949    5.1636   12.7408 C   0  0  1  0  0  0  0  0  0  0  0  0
   11.0932    6.1778   13.6668 O   0  0  0  0  0  0  0  0  0  0  0  0
   12.4484    6.3319   10.1706 C   0  0  1  0  0  0  0  0  0  0  0  0
   13.3476    7.5592    9.8699 C   0  0  2  0  0  0  0  0  0  0  0  0
   12.9727    8.2433    8.7095 O   0  0  0  0  0  0  0  0  0  0  0  0
   14.7068    6.8858    9.9132 C   0  0  1  0  0  0  0  0  0  0  0  0
   14.6442    5.8347   11.0304 C   0  0  2  0  0  0  0  0  0  0  0  0
   13.2967    5.3885   10.8792 O   0  0  0  0  0  0  0  0  0  0  0  0
   14.9225    6.3690   12.4767 C   0  0  0  0  0  0  0  0  0  0  0  0
   14.9637    5.2201   13.3640 O   0  0  0  0  0  0  0  0  0  0  0  0
   15.2291    7.1121    7.5054 C   0  0  2  0  0  0  0  0  0  0  0  0
   14.9404    6.2645    8.5835 O   0  0  0  0  0  0  0  0  0  0  0  0
   14.0592    7.0974    6.4280 C   0  0  1  0  0  0  0  0  0  0  0  0
   18.3251    5.6212    4.5297 N   0  0  0  0  0  0  0  0  0  0  0  0
   14.5067    8.0858    5.2282 C   0  0  1  0  0  0  0  0  0  0  0  0
   14.7373    9.4643    5.8146 O   0  0  0  0  0  0  0  0  0  0  0  0
   15.8644    7.5340    4.5364 C   0  0  2  0  0  0  0  0  0  0  0  0
   15.6164    6.2221    3.9764 O   0  0  0  0  0  0  0  0  0  0  0  0
   17.0284    7.5281    5.6788 C   0  0  1  0  0  0  0  0  0  0  0  0
   16.5773    6.6958    6.8474 O   0  0  0  0  0  0  0  0  0  0  0  0
   18.3964    6.9870    5.1338 C   0  0  0  0  0  0  0  0  0  0  0  0
   13.8010    5.6926    5.9689 N   0  0  0  0  0  0  0  0  0  0  0  0
  1  2  1  6  0  0  0
  1  3  1  0  0  0  0
  1 10  1  0  0  0  0
  3  4  1  6  0  0  0
  3  5  1  0  0  0  0
  5  6  1  6  0  0  0
  5  7  1  0  0  0  0
  7  8  1  6  0  0  0
  7  9  1  0  0  0  0
  9 10  1  0  0  0  0
  9 11  1  1  0  0  0
 11 12  1  0  0  0  0
 13 14  1  1  0  0  0
 13 15  1  0  0  0  0
 13 21  1  0  0  0  0
 16 15  1  0  0  0  0
 16 17  1  6  0  0  0
 18  2  1  6  0  0  0
 18 16  1  0  0  0  0
 19 18  1  0  0  0  0
 19 20  1  6  0  0  0
 21 19  1  0  0  0  0
 21 22  1  1  0  0  0
 23 20  1  1  0  0  0
 23 24  1  0  0  0  0
 23 28  1  0  0  0  0
 24 25  1  6  0  0  0
 24 26  1  0  0  0  0
 26 27  1  0  0  0  0
 26 32  1  6  0  0  0
 27 28  1  0  0  0  0
 27 29  1  1  0  0  0
 29 30  1  0  0  0  0
 31 32  1  1  0  0  0
 31 40  1  0  0  0  0
 33 31  1  0  0  0  0
 33 42  1  6  0  0  0
 35 33  1  0  0  0  0
 35 36  1  1  0  0  0
 37 35  1  0  0  0  0
 37 38  1  1  0  0  0
 37 39  1  0  0  0  0
 39 40  1  0  0  0  0
 39 41  1  6  0  0  0
 41 34  1  0  0  0  0
M  END
>  <CHROM.1>
-175.72632787,-65.38954652,53.68954899,-43.95516830,-171.93137505,72.99008951
-173.91363240,-113.18250432,-55.97656429,12.13733853,6.49385146,9.01335672
2.42752764,-0.10118671,1.96820826

>  <Name>
2et4_lig

>  <RI>
3.65815e+07

>  <Rbt.Current_Directory>
/home/itssahil/PROJECTS/Mol_Feturizer/New_Systems/rnas/2et4

>  <Rbt.Executable>
rbdock ($Id: //depot/dev/client3/rdock/2013.1/src/exe/rbdock.cxx#4 $)

>  <Rbt.Library>
libRbt.so (2013.1, Build901 2013/11/27)

>  <Rbt.Parameter_File>
/export/apps/rDock/src/rDock_2013.1_src/data/scripts/dock_solv.prm

>  <Rbt.Receptor>
prm/pocket_docking_4.prm

>  <SCORE>
-10.919

>  <SCORE.INTER>
-6.71167

>  <SCORE.INTER.CONST>
1

>  <SCORE.INTER.POLAR>
-0.868774

>  <SCORE.INTER.ROT>
9

>  <SCORE.INTER.SOLV>
9.46627

>  <SCORE.INTER.VDW>
-14.334

>  <SCORE.INTER.norm>
-0.159802

>  <SCORE.INTRA>
-4.20863

>  <SCORE.INTRA.DIHEDRAL>
-11.7192

>  <SCORE.INTRA.DIHEDRAL.0>
21.6909

>  <SCORE.INTRA.POLAR>
0

>  <SCORE.INTRA.POLAR.0>
0

>  <SCORE.INTRA.REPUL>
0

>  <SCORE.INTRA.REPUL.0>
0

>  <SCORE.INTRA.SOLV>
0.308782

>  <SCORE.INTRA.SOLV.lig_0>
-116.606

>  <SCORE.INTRA.VDW>
1.49659

>  <SCORE.INTRA.VDW.0>
-6.01229

>  <SCORE.INTRA.norm>
-0.100206

>  <SCORE.RESTR>
0.00129437

>  <SCORE.RESTR.CAVITY>
0.00129437

>  <SCORE.RESTR.norm>
3.08184e-05

>  <SCORE.SYSTEM>
0

>  <SCORE.SYSTEM.CONST>
0

>  <SCORE.SYSTEM.DIHEDRAL>
0

>  <SCORE.SYSTEM.SOLV>
0

>  <SCORE.SYSTEM.norm>
0

>  <SCORE.heavy>
42

>  <SCORE.norm>
-0.259976

>  <RMSD>
8.157

$$$$
2et4_lig
 OpenBabel11021811423D
libRbt.so/2013.1/901 2013/11/27
 42 45  0  0  0  0  0  0  0  0999 V2000
    8.2903    7.1150    8.9546 C   0  0  2  0  0  0  0  0  0  0  0  0
    9.1380    6.1963    9.6473 O   0  0  0  0  0  0  0  0  0  0  0  0
    8.3330    6.7330    7.4530 C   0  0  2  0  0  0  0  0  0  0  0  0
    7.9241    5.3670    7.2466 N   0  0  0  0  0  0  0  0  0  0  0  0
    9.7675    6.9772    6.9018 C   0  0  1  0  0  0  0  0  0  0  0  0
    9.7989    6.6484    5.5480 O   0  0  0  0  0  0  0  0  0  0  0  0
   10.1413    8.4755    7.1573 C   0  0  2  0  0  0  0  0  0  0  0  0
   11.4425    8.7406    6.6776 O   0  0  0  0  0  0  0  0  0  0  0  0
   10.0738    8.8131    8.6776 C   0  0  2  0  0  0  0  0  0  0  0  0
    8.7548    8.5181    9.1467 O   0  0  0  0  0  0  0  0  0  0  0  0
   10.4015   10.3146    8.9667 C   0  0  0  0  0  0  0  0  0  0  0  0
   10.4769   10.5889   10.3596 N   0  0  0  0  0  0  0  0  0  0  0  0
    9.3544    7.7207   13.6826 C   0  0  2  0  0  0  0  0  0  0  0  0
    9.5196    7.7520   15.1412 N   0  0  0  0  0  0  0  0  0  0  0  0
    8.1217    6.7387   13.2974 C   0  0  0  0  0  0  0  0  0  0  0  0
    7.9575    6.6976   11.7230 C   0  0  2  0  0  0  0  0  0  0  0  0
    6.8624    5.7950   11.3258 N   0  0  0  0  0  0  0  0  0  0  0  0
    9.2974    6.2136   11.0725 C   0  0  2  0  0  0  0  0  0  0  0  0
   10.4821    7.1525   11.4758 C   0  0  2  0  0  0  0  0  0  0  0  0
   11.6675    6.6141   10.8402 O   0  0  0  0  0  0  0  0  0  0  0  0
   10.6357    7.1760   13.0305 C   0  0  1  0  0  0  0  0  0  0  0  0
   11.6826    8.0257   13.3586 O   0  0  0  0  0  0  0  0  0  0  0  0
   12.2936    7.1489    9.7640 C   0  0  1  0  0  0  0  0  0  0  0  0
   13.8344    7.0920    9.9321 C   0  0  2  0  0  0  0  0  0  0  0  0
   14.3462    8.1642   10.6693 O   0  0  0  0  0  0  0  0  0  0  0  0
   14.2364    6.9495    8.4758 C   0  0  1  0  0  0  0  0  0  0  0  0
   13.1837    6.0505    7.8123 C   0  0  2  0  0  0  0  0  0  0  0  0
   12.0121    6.4856    8.5021 O   0  0  0  0  0  0  0  0  0  0  0  0
   13.4151    4.5091    7.9712 C   0  0  0  0  0  0  0  0  0  0  0  0
   13.3160    4.1985    9.3864 O   0  0  0  0  0  0  0  0  0  0  0  0
   15.0977    8.5391    6.7867 C   0  0  2  0  0  0  0  0  0  0  0  0
   14.2526    8.3116    7.8813 O   0  0  0  0  0  0  0  0  0  0  0  0
   14.2740    8.6356    5.4295 C   0  0  1  0  0  0  0  0  0  0  0  0
   18.7011    6.0173    6.9768 N   0  0  0  0  0  0  0  0  0  0  0  0
   15.3446    8.8751    4.2408 C   0  0  1  0  0  0  0  0  0  0  0  0
   16.1103   10.1472    4.5456 O   0  0  0  0  0  0  0  0  0  0  0  0
   16.3596    7.6150    4.1504 C   0  0  2  0  0  0  0  0  0  0  0  0
   15.6067    6.4155    3.8495 O   0  0  0  0  0  0  0  0  0  0  0  0
   17.1571    7.5259    5.5702 C   0  0  1  0  0  0  0  0  0  0  0  0
   16.1645    7.4090    6.6941 O   0  0  0  0  0  0  0  0  0  0  0  0
   18.1608    6.3210    5.6162 C   0  0  0  0  0  0  0  0  0  0  0  0
   13.4499    7.3964    5.2394 N   0  0  0  0  0  0  0  0  0  0  0  0
  1  2  1  1  0  0  0
  1  3  1  0  0  0  0
  1 10  1  0  0  0  0
  3  4  1  1  0  0  0
  3  5  1  0  0  0  0
  5  6  1  6  0  0  0
  5  7  1  0  0  0  0
  7  8  1  1  0  0  0
  7  9  1  0  0  0  0
  9 10  1  0  0  0  0
  9 11  1  6  0  0  0
 11 12  1  0  0  0  0
 13 14  1  1  0  0  0
 13 15  1  0  0  0  0
 13 21  1  0  0  0  0
 16 15  1  0  0  0  0
 16 17  1  1  0  0  0
 18  2  1  6  0  0  0
 18 16  1  0  0  0  0
 19 18  1  0  0  0  0
 19 20  1  6  0  0  0
 21 19  1  0  0  0  0
 21 22  1  6  0  0  0
 23 20  1  1  0  0  0
 23 24  1  0  0  0  0
 23 28  1  0  0  0  0
 24 25  1  6  0  0  0
 24 26  1  0  0  0  0
 26 27  1  0  0  0  0
 26 32  1  6  0  0  0
 27 28  1  0  0  0  0
 27 29  1  1  0  0  0
 29 30  1  0  0  0  0
 31 32  1  1  0  0  0
 31 40  1  0  0  0  0
 33 31  1  0  0  0  0
 33 42  1  6  0  0  0
 35 33  1  0  0  0  0
 35 36  1  1  0  0  0
 37 35  1  0  0  0  0
 37 38  1  1  0  0  0
 37 39  1  0  0  0  0
 39 40  1  0  0  0  0
 39 41  1  6  0  0  0
 41 34  1  0  0  0  0
M  END
>  <CHROM.1>
-177.28655695,-173.85138306,31.68638856,106.17746247,138.66151989,153.35074523
63.95401330,105.57203684,-167.71700179,12.11186150,7.33573483,8.58445828
2.42684847,0.00297516,1.62538080

>  <Name>
2et4_lig

>  <RI>
0

>  <Rbt.Current_Directory>
/home/itssahil/PROJECTS/Mol_Feturizer/New_Systems/rnas/2et4

>  <Rbt.Executable>
rbdock ($Id: //depot/dev/client3/rdock/2013.1/src/exe/rbdock.cxx#4 $)

>  <Rbt.Library>
libRbt.so (2013.1, Build901 2013/11/27)

>  <Rbt.Parameter_File>
/export/apps/rDock/src/rDock_2013.1_src/data/scripts/dock_solv.prm

>  <Rbt.Receptor>
prm/pocket_docking_3.prm

>  <SCORE>
-1.56643

>  <SCORE.INTER>
-4.64875

>  <SCORE.INTER.CONST>
1

>  <SCORE.INTER.POLAR>
-0.58415

>  <SCORE.INTER.ROT>
9

>  <SCORE.INTER.SOLV>
10.3947

>  <SCORE.INTER.VDW>
-14.2169

>  <SCORE.INTER.norm>
-0.110685

>  <SCORE.INTRA>
3.06233

>  <SCORE.INTRA.DIHEDRAL>
3.53143

>  <SCORE.INTRA.DIHEDRAL.0>
21.6909

>  <SCORE.INTRA.POLAR>
0

>  <SCORE.INTRA.POLAR.0>
0

>  <SCORE.INTRA.REPUL>
0.125284

>  <SCORE.INTRA.REPUL.0>
0

>  <SCORE.INTRA.SOLV>
3.81953

>  <SCORE.INTRA.SOLV.lig_0>
-116.606

>  <SCORE.INTRA.VDW>
-1.23957

>  <SCORE.INTRA.VDW.0>
-6.01229

>  <SCORE.INTRA.norm>
0.0729127

>  <SCORE.RESTR>
0.0199853

>  <SCORE.RESTR.CAVITY>
0.0199853

>  <SCORE.RESTR.norm>
0.00047584

>  <SCORE.SYSTEM>
0

>  <SCORE.SYSTEM.CONST>
0

>  <SCORE.SYSTEM.DIHEDRAL>
0

>  <SCORE.SYSTEM.SOLV>
0

>  <SCORE.SYSTEM.norm>
0

>  <SCORE.heavy>
42

>  <SCORE.norm>
-0.037296

>  <RMSD>
8.174

$$$$
2et4_lig
 OpenBabel11021811423D
libRbt.so/2013.1/901 2013/11/27
 42 45  0  0  0  0  0  0  0  0999 V2000
   12.5071    9.3686   11.4850 C   0  0  2  0  0  0  0  0  0  0  0  0
   13.5624    8.5968   12.0620 O   0  0  0  0  0  0  0  0  0  0  0  0
   12.9700   10.8479   11.4852 C   0  0  2  0  0  0  0  0  0  0  0  0
   14.2077   11.0111   10.7661 N   0  0  0  0  0  0  0  0  0  0  0  0
   13.1067   11.3428   12.9541 C   0  0  1  0  0  0  0  0  0  0  0  0
   13.5072   12.6775   12.9512 O   0  0  0  0  0  0  0  0  0  0  0  0
   11.7297   11.1382   13.6695 C   0  0  2  0  0  0  0  0  0  0  0  0
   11.8102   11.5688   15.0117 O   0  0  0  0  0  0  0  0  0  0  0  0
   11.3028    9.6394   13.6338 C   0  0  2  0  0  0  0  0  0  0  0  0
   11.2475    9.2188   12.2675 O   0  0  0  0  0  0  0  0  0  0  0  0
    9.9098    9.4035   14.3041 C   0  0  0  0  0  0  0  0  0  0  0  0
    8.8656   10.0919   13.6281 N   0  0  0  0  0  0  0  0  0  0  0  0
   14.5855    4.4682   11.3123 C   0  0  2  0  0  0  0  0  0  0  0  0
   14.5515    3.0018   11.3789 N   0  0  0  0  0  0  0  0  0  0  0  0
   14.8631    5.0720   12.7924 C   0  0  0  0  0  0  0  0  0  0  0  0
   14.8843    6.6535   12.7172 C   0  0  2  0  0  0  0  0  0  0  0  0
   15.1086    7.2464   14.0475 N   0  0  0  0  0  0  0  0  0  0  0  0
   13.5221    7.1652   12.1383 C   0  0  2  0  0  0  0  0  0  0  0  0
   13.2537    6.5526   10.7239 C   0  0  2  0  0  0  0  0  0  0  0  0
   11.9739    7.0726   10.2873 O   0  0  0  0  0  0  0  0  0  0  0  0
   13.2281    4.9931   10.8168 C   0  0  1  0  0  0  0  0  0  0  0  0
   13.0027    4.4783    9.5480 O   0  0  0  0  0  0  0  0  0  0  0  0
   11.6159    7.2993    9.0001 C   0  0  1  0  0  0  0  0  0  0  0  0
   10.0766    7.2180    8.8287 C   0  0  2  0  0  0  0  0  0  0  0  0
    9.6125    5.9113    8.6495 O   0  0  0  0  0  0  0  0  0  0  0  0
    9.9009    8.2163    7.6994 C   0  0  1  0  0  0  0  0  0  0  0  0
   10.9060    9.3492    7.9503 C   0  0  2  0  0  0  0  0  0  0  0  0
   12.0001    8.6007    8.4800 O   0  0  0  0  0  0  0  0  0  0  0  0
   10.4307   10.4667    8.9402 C   0  0  0  0  0  0  0  0  0  0  0  0
   11.5629   11.3436    9.1817 O   0  0  0  0  0  0  0  0  0  0  0  0
   10.9752    8.1524    5.4715 C   0  0  2  0  0  0  0  0  0  0  0  0
   10.1796    7.5035    6.4254 O   0  0  0  0  0  0  0  0  0  0  0  0
   10.8037    7.4976    4.0323 C   0  0  1  0  0  0  0  0  0  0  0  0
   15.9628    9.2636    4.7017 N   0  0  0  0  0  0  0  0  0  0  0  0
   11.7771    8.3057    3.0242 C   0  0  1  0  0  0  0  0  0  0  0  0
   11.3724    9.7662    3.0484 O   0  0  0  0  0  0  0  0  0  0  0  0
   13.3188    8.1408    3.4957 C   0  0  2  0  0  0  0  0  0  0  0  0
   13.6837    6.7404    3.4551 O   0  0  0  0  0  0  0  0  0  0  0  0
   13.4467    8.7885    4.9870 C   0  0  1  0  0  0  0  0  0  0  0  0
   12.4687    8.1147    5.9097 O   0  0  0  0  0  0  0  0  0  0  0  0
   14.8992    8.6677    5.5673 C   0  0  0  0  0  0  0  0  0  0  0  0
   11.1087    6.0300    4.0958 N   0  0  0  0  0  0  0  0  0  0  0  0
  1  2  1  1  0  0  0
  1  3  1  0  0  0  0
  1 10  1  0  0  0  0
  3  4  1  1  0  0  0
  3  5  1  0  0  0  0
  5  6  1  6  0  0  0
  5  7  1  0  0  0  0
  7  8  1  1  0  0  0
  7  9  1  0  0  0  0
  9 10  1  0  0  0  0
  9 11  1  6  0  0  0
 11 12  1  0  0  0  0
 13 14  1  1  0  0  0
 13 15  1  0  0  0  0
 13 21  1  0  0  0  0
 16 15  1  0  0  0  0
 16 17  1  1  0  0  0
 18  2  1  6  0  0  0
 18 16  1  0  0  0  0
 19 18  1  0  0  0  0
 19 20  1  1  0  0  0
 21 19  1  0  0  0  0
 21 22  1  6  0  0  0
 23 20  1  1  0  0  0
 23 24  1  0  0  0  0
 23 28  1  0  0  0  0
 24 25  1  6  0  0  0
 24 26  1  0  0  0  0
 26 27  1  0  0  0  0
 26 32  1  6  0  0  0
 27 28  1  0  0  0  0
 27 29  1  1  0  0  0
 29 30  1  0  0  0  0
 31 32  1  1  0  0  0
 31 40  1  0  0  0  0
 33 31  1  0  0  0  0
 33 42  1  1  0  0  0
 35 33  1  0  0  0  0
 35 36  1  1  0  0  0
 37 35  1  0  0  0  0
 37 38  1  1  0  0  0
 37 39  1  0  0  0  0
 39 40  1  0  0  0  0
 39 41  1  1  0  0  0
 41 34  1  0  0  0  0
M  END
>  <CHROM.1>
-175.48484161,62.42045707,175.39129406,149.62955534,153.95532307,-135.84548388
172.80492705,-161.94512054,55.84706175,12.36190073,8.27864469,9.34483085
1.48946214,-1.15762905,1.34105783

>  <Name>
2et4_lig

>  <RI>
0

>  <Rbt.Current_Directory>
/home/itssahil/PROJECTS/Mol_Feturizer/New_Systems/rnas/2et4

>  <Rbt.Executable>
rbdock ($Id: //depot/dev/client3/rdock/2013.1/src/exe/rbdock.cxx#4 $)

>  <Rbt.Library>
libRbt.so (2013.1, Build901 2013/11/27)

>  <Rbt.Parameter_File>
/export/apps/rDock/src/rDock_2013.1_src/data/scripts/dock_solv.prm

>  <Rbt.Receptor>
prm/pocket_docking_8.prm

>  <SCORE>
-10.3476

>  <SCORE.INTER>
-8.4631

>  <SCORE.INTER.CONST>
1

>  <SCORE.INTER.POLAR>
-0.959166

>  <SCORE.INTER.ROT>
9

>  <SCORE.INTER.SOLV>
21.8484

>  <SCORE.INTER.VDW>
-19.3276

>  <SCORE.INTER.norm>
-0.201502

>  <SCORE.INTRA>
-1.88452

>  <SCORE.INTRA.DIHEDRAL>
-7.04341

>  <SCORE.INTRA.DIHEDRAL.0>
21.6909

>  <SCORE.INTRA.POLAR>
0

>  <SCORE.INTRA.POLAR.0>
0

>  <SCORE.INTRA.REPUL>
0

>  <SCORE.INTRA.REPUL.0>
0

>  <SCORE.INTRA.SOLV>
-1.34301

>  <SCORE.INTRA.SOLV.lig_0>
-116.606

>  <SCORE.INTRA.VDW>
2.30869

>  <SCORE.INTRA.VDW.0>
-6.01229

>  <SCORE.INTRA.norm>
-0.0448694

>  <SCORE.RESTR>
0

>  <SCORE.RESTR.CAVITY>
0

>  <SCORE.RESTR.norm>
0

>  <SCORE.SYSTEM>
0

>  <SCORE.SYSTEM.CONST>
0

>  <SCORE.SYSTEM.DIHEDRAL>
0

>  <SCORE.SYSTEM.SOLV>
0

>  <SCORE.SYSTEM.norm>
0

>  <SCORE.heavy>
42

>  <SCORE.norm>
-0.246372

>  <RMSD>
8.190

$$$$
2et4_lig
 OpenBabel11021811423D
libRbt.so/2013.1/901 2013/11/27
 42 45  0  0  0  0  0  0  0  0999 V2000
    9.2604    5.0636   12.8289 C   0  0  2  0  0  0  0  0  0  0  0  0
    9.8681    5.2938   11.5562 O   0  0  0  0  0  0  0  0  0  0  0  0
    7.7785    4.6918   12.5672 C   0  0  2  0  0  0  0  0  0  0  0  0
    7.6696    3.5420   11.7059 N   0  0  0  0  0  0  0  0  0  0  0  0
    7.0413    5.9193   11.9580 C   0  0  1  0  0  0  0  0  0  0  0  0
    5.7057    5.5875   11.7387 O   0  0  0  0  0  0  0  0  0  0  0  0
    7.1991    7.1240   12.9447 C   0  0  2  0  0  0  0  0  0  0  0  0
    6.5491    8.2653   12.4265 O   0  0  0  0  0  0  0  0  0  0  0  0
    8.7041    7.4522   13.1839 C   0  0  2  0  0  0  0  0  0  0  0  0
    9.3468    6.2780   13.6887 O   0  0  0  0  0  0  0  0  0  0  0  0
    8.9010    8.6258   14.1984 C   0  0  0  0  0  0  0  0  0  0  0  0
   10.2716    8.8458   14.5051 N   0  0  0  0  0  0  0  0  0  0  0  0
   14.0665    5.4935   12.5506 C   0  0  2  0  0  0  0  0  0  0  0  0
   15.5208    5.6144   12.3891 N   0  0  0  0  0  0  0  0  0  0  0  0
   13.5339    4.2051   11.7206 C   0  0  0  0  0  0  0  0  0  0  0  0
   11.9635    4.0881   11.8865 C   0  0  2  0  0  0  0  0  0  0  0  0
   11.4321    2.9431   11.1261 N   0  0  0  0  0  0  0  0  0  0  0  0
   11.2875    5.4089   11.3855 C   0  0  2  0  0  0  0  0  0  0  0  0
   11.8314    6.6458   12.1742 C   0  0  2  0  0  0  0  0  0  0  0  0
   11.1599    7.8082   11.6292 O   0  0  0  0  0  0  0  0  0  0  0  0
   13.3799    6.7515   11.9941 C   0  0  1  0  0  0  0  0  0  0  0  0
   13.8351    7.8468   12.7144 O   0  0  0  0  0  0  0  0  0  0  0  0
   11.3313    8.2996   10.3780 C   0  0  1  0  0  0  0  0  0  0  0  0
   10.2682    9.3819   10.0556 C   0  0  2  0  0  0  0  0  0  0  0  0
    9.0601    8.8460    9.5992 O   0  0  0  0  0  0  0  0  0  0  0  0
   11.0808   10.2540    9.1164 C   0  0  1  0  0  0  0  0  0  0  0  0
   12.5163   10.2716    9.6603 C   0  0  2  0  0  0  0  0  0  0  0  0
   12.6183    8.9315   10.1415 O   0  0  0  0  0  0  0  0  0  0  0  0
   12.7974   11.3197   10.7904 C   0  0  0  0  0  0  0  0  0  0  0  0
   11.8866   11.0335   11.8848 O   0  0  0  0  0  0  0  0  0  0  0  0
   11.6344    8.4008    7.5735 C   0  0  2  0  0  0  0  0  0  0  0  0
   11.0106    9.6411    7.7643 O   0  0  0  0  0  0  0  0  0  0  0  0
   13.2140    8.5568    7.4712 C   0  0  1  0  0  0  0  0  0  0  0  0
   11.3988    4.4189    4.2895 N   0  0  0  0  0  0  0  0  0  0  0  0
   13.8223    7.0772    7.2313 C   0  0  1  0  0  0  0  0  0  0  0  0
   13.4006    6.2003    8.3934 O   0  0  0  0  0  0  0  0  0  0  0  0
   13.2633    6.4705    5.8364 C   0  0  2  0  0  0  0  0  0  0  0  0
   13.6866    7.3192    4.7424 O   0  0  0  0  0  0  0  0  0  0  0  0
   11.6412    6.3608    5.9654 C   0  0  1  0  0  0  0  0  0  0  0  0
   11.0735    7.7143    6.2936 O   0  0  0  0  0  0  0  0  0  0  0  0
   10.9751    5.8045    4.6584 C   0  0  0  0  0  0  0  0  0  0  0  0
   13.5652    9.5227    6.3783 N   0  0  0  0  0  0  0  0  0  0  0  0
  1  2  1  6  0  0  0
  1  3  1  0  0  0  0
  1 10  1  0  0  0  0
  3  4  1  6  0  0  0
  3  5  1  0  0  0  0
  5  6  1  1  0  0  0
  5  7  1  0  0  0  0
  7  8  1  6  0  0  0
  7  9  1  0  0  0  0
  9 10  1  0  0  0  0
  9 11  1  1  0  0  0
 11 12  1  0  0  0  0
 13 14  1  6  0  0  0
 13 15  1  0  0  0  0
 13 21  1  0  0  0  0
 16 15  1  0  0  0  0
 16 17  1  6  0  0  0
 18  2  1  1  0  0  0
 18 16  1  0  0  0  0
 19 18  1  0  0  0  0
 19 20  1  6  0  0  0
 21 19  1  0  0  0  0
 21 22  1  1  0  0  0
 23 20  1  1  0  0  0
 23 24  1  0  0  0  0
 23 28  1  0  0  0  0
 24 25  1  6  0  0  0
 24 26  1  0  0  0  0
 26 27  1  0  0  0  0
 26 32  1  6  0  0  0
 27 28  1  0  0  0  0
 27 29  1  1  0  0  0
 29 30  1  0  0  0  0
 31 32  1  6  0  0  0
 31 40  1  0  0  0  0
 33 31  1  0  0  0  0
 33 42  1  6  0  0  0
 35 33  1  0  0  0  0
 35 36  1  1  0  0  0
 37 35  1  0  0  0  0
 37 38  1  6  0  0  0
 37 39  1  0  0  0  0
 39 40  1  0  0  0  0
 39 41  1  6  0  0  0
 41 34  1  0  0  0  0
M  END
>  <CHROM.1>
-167.77283033,174.82564903,58.98721549,-67.49417563,169.51597480,-67.20185089
58.44040192,-75.99770396,61.91716718,11.09061466,7.15668942,10.25843445,2.44738445
0.82223744,1.02064937

>  <Name>
2et4_lig

>  <RI>
0

>  <Rbt.Current_Directory>
/home/itssahil/PROJECTS/Mol_Feturizer/New_Systems/rnas/2et4

>  <Rbt.Executable>
rbdock ($Id: //depot/dev/client3/rdock/2013.1/src/exe/rbdock.cxx#4 $)

>  <Rbt.Library>
libRbt.so (2013.1, Build901 2013/11/27)

>  <Rbt.Parameter_File>
/export/apps/rDock/src/rDock_2013.1_src/data/scripts/dock_solv.prm

>  <Rbt.Receptor>
prm/pocket_docking_5.prm

>  <SCORE>
-9.35053

>  <SCORE.INTER>
-3.48282

>  <SCORE.INTER.CONST>
1

>  <SCORE.INTER.POLAR>
-0.703646

>  <SCORE.INTER.ROT>
9

>  <SCORE.INTER.SOLV>
10.1531

>  <SCORE.INTER.VDW>
-12.9608

>  <SCORE.INTER.norm>
-0.0829243

>  <SCORE.INTRA>
-5.86771

>  <SCORE.INTRA.DIHEDRAL>
-18.4399

>  <SCORE.INTRA.DIHEDRAL.0>
21.6909

>  <SCORE.INTRA.POLAR>
0

>  <SCORE.INTRA.POLAR.0>
0

>  <SCORE.INTRA.REPUL>
0

>  <SCORE.INTRA.REPUL.0>
0

>  <SCORE.INTRA.SOLV>
2.32266

>  <SCORE.INTRA.SOLV.lig_0>
-116.606

>  <SCORE.INTRA.VDW>
2.19092

>  <SCORE.INTRA.VDW.0>
-6.01229

>  <SCORE.INTRA.norm>
-0.139707

>  <SCORE.RESTR>
0

>  <SCORE.RESTR.CAVITY>
0

>  <SCORE.RESTR.norm>
0

>  <SCORE.SYSTEM>
0

>  <SCORE.SYSTEM.CONST>
0

>  <SCORE.SYSTEM.DIHEDRAL>
0

>  <SCORE.SYSTEM.SOLV>
0

>  <SCORE.SYSTEM.norm>
0

>  <SCORE.heavy>
42

>  <SCORE.norm>
-0.222632

>  <RMSD>
8.194

$$$$
2et4_lig
 OpenBabel11021811423D
libRbt.so/2013.1/901 2013/11/27
 42 45  0  0  0  0  0  0  0  0999 V2000
   13.3099    4.6933   11.2022 C   0  0  2  0  0  0  0  0  0  0  0  0
   13.3230    5.5720   10.0753 O   0  0  0  0  0  0  0  0  0  0  0  0
   14.0435    3.3953   10.7782 C   0  0  2  0  0  0  0  0  0  0  0  0
   15.3846    3.6722   10.3306 N   0  0  0  0  0  0  0  0  0  0  0  0
   13.2199    2.6792    9.6690 C   0  0  1  0  0  0  0  0  0  0  0  0
   13.8733    1.5047    9.3012 O   0  0  0  0  0  0  0  0  0  0  0  0
   11.7819    2.4091   10.2248 C   0  0  2  0  0  0  0  0  0  0  0  0
   10.9951    1.7647    9.2453 O   0  0  0  0  0  0  0  0  0  0  0  0
   11.0905    3.7410   10.6468 C   0  0  2  0  0  0  0  0  0  0  0  0
   11.9134    4.3865   11.6230 O   0  0  0  0  0  0  0  0  0  0  0  0
    9.6655    3.5053   11.2462 C   0  0  0  0  0  0  0  0  0  0  0  0
    9.0522    4.7176   11.6649 N   0  0  0  0  0  0  0  0  0  0  0  0
   11.7388    9.2399   11.7160 C   0  0  2  0  0  0  0  0  0  0  0  0
   11.3378   10.6486   11.8178 N   0  0  0  0  0  0  0  0  0  0  0  0
   13.3346    9.1490   11.4375 C   0  0  0  0  0  0  0  0  0  0  0  0
   13.7587    7.6284   11.3143 C   0  0  2  0  0  0  0  0  0  0  0  0
   15.1999    7.4990   11.0349 N   0  0  0  0  0  0  0  0  0  0  0  0
   12.9393    6.9511   10.1644 C   0  0  2  0  0  0  0  0  0  0  0  0
   11.4024    7.0716   10.4313 C   0  0  2  0  0  0  0  0  0  0  0  0
   10.7398    6.4328    9.3124 O   0  0  0  0  0  0  0  0  0  0  0  0
   10.9991    8.5771   10.5424 C   0  0  1  0  0  0  0  0  0  0  0  0
    9.6362    8.6524   10.7927 O   0  0  0  0  0  0  0  0  0  0  0  0
   10.7983    6.8477    8.0237 C   0  0  1  0  0  0  0  0  0  0  0  0
   10.0157    5.8845    7.0935 C   0  0  2  0  0  0  0  0  0  0  0  0
   10.7681    4.7763    6.6928 O   0  0  0  0  0  0  0  0  0  0  0  0
    9.5588    6.8762    6.0397 C   0  0  1  0  0  0  0  0  0  0  0  0
    9.2268    8.1820    6.7755 C   0  0  2  0  0  0  0  0  0  0  0  0
   10.2396    8.1671    7.7814 O   0  0  0  0  0  0  0  0  0  0  0  0
    7.7902    8.2610    7.3958 C   0  0  0  0  0  0  0  0  0  0  0  0
    7.6899    7.2118    8.3948 O   0  0  0  0  0  0  0  0  0  0  0  0
   11.8425    7.6845    5.5367 C   0  0  2  0  0  0  0  0  0  0  0  0
   10.6780    7.0539    5.0781 O   0  0  0  0  0  0  0  0  0  0  0  0
   12.5373    8.5284    4.3814 C   0  0  1  0  0  0  0  0  0  0  0  0
   15.4248    4.9898    6.1390 N   0  0  0  0  0  0  0  0  0  0  0  0
   13.8722    9.1885    5.0132 C   0  0  1  0  0  0  0  0  0  0  0  0
   13.4602   10.0483    6.1915 O   0  0  0  0  0  0  0  0  0  0  0  0
   14.8889    8.0223    5.4955 C   0  0  2  0  0  0  0  0  0  0  0  0
   15.2746    7.2218    4.3525 O   0  0  0  0  0  0  0  0  0  0  0  0
   14.1291    7.1573    6.6506 C   0  0  1  0  0  0  0  0  0  0  0  0
   12.8325    6.6256    6.1048 O   0  0  0  0  0  0  0  0  0  0  0  0
   15.0092    5.9737    7.1853 C   0  0  0  0  0  0  0  0  0  0  0  0
   12.8180    7.6479    3.1995 N   0  0  0  0  0  0  0  0  0  0  0  0
  1  2  1  6  0  0  0
  1  3  1  0  0  0  0
  1 10  1  0  0  0  0
  3  4  1  6  0  0  0
  3  5  1  0  0  0  0
  5  6  1  1  0  0  0
  5  7  1  0  0  0  0
  7  8  1  6  0  0  0
  7  9  1  0  0  0  0
  9 10  1  0  0  0  0
  9 11  1  1  0  0  0
 11 12  1  0  0  0  0
 13 14  1  6  0  0  0
 13 15  1  0  0  0  0
 13 21  1  0  0  0  0
 16 15  1  0  0  0  0
 16 17  1  6  0  0  0
 18  2  1  1  0  0  0
 18 16  1  0  0  0  0
 19 18  1  0  0  0  0
 19 20  1  6  0  0  0
 21 19  1  0  0  0  0
 21 22  1  1  0  0  0
 23 20  1  1  0  0  0
 23 24  1  0  0  0  0
 23 28  1  0  0  0  0
 24 25  1  6  0  0  0
 24 26  1  0  0  0  0
 26 27  1  0  0  0  0
 26 32  1  6  0  0  0
 27 28  1  0  0  0  0
 27 29  1  1  0  0  0
 29 30  1  0  0  0  0
 31 32  1  6  0  0  0
 31 40  1  0  0  0  0
 33 31  1  0  0  0  0
 33 42  1  6  0  0  0
 35 33  1  0  0  0  0
 35 36  1  1  0  0  0
 37 35  1  0  0  0  0
 37 38  1  6  0  0  0
 37 39  1  0  0  0  0
 39 40  1  0  0  0  0
 39 41  1  6  0  0  0
 41 34  1  0  0  0  0
M  END
>  <CHROM.1>
-169.01625999,178.34854332,52.81578348,-63.76117768,177.55356547,-67.38349275
62.40626527,-147.21905565,-59.01353131,12.06391476,6.41600459,8.50697341
-1.67728421,0.71284475,-0.89251951

>  <Name>
2et4_lig

>  <RI>
0

>  <Rbt.Current_Directory>
/home/itssahil/PROJECTS/Mol_Feturizer/New_Systems/rnas/2et4

>  <Rbt.Executable>
rbdock ($Id: //depot/dev/client3/rdock/2013.1/src/exe/rbdock.cxx#4 $)

>  <Rbt.Library>
libRbt.so (2013.1, Build901 2013/11/27)

>  <Rbt.Parameter_File>
/export/apps/rDock/src/rDock_2013.1_src/data/scripts/dock_solv.prm

>  <Rbt.Receptor>
prm/pocket_docking_6.prm

>  <SCORE>
-15.1702

>  <SCORE.INTER>
-8.99674

>  <SCORE.INTER.CONST>
1

>  <SCORE.INTER.POLAR>
-1.74114

>  <SCORE.INTER.ROT>
9

>  <SCORE.INTER.SOLV>
8.26914

>  <SCORE.INTER.VDW>
-12.5504

>  <SCORE.INTER.norm>
-0.214208

>  <SCORE.INTRA>
-6.17348

>  <SCORE.INTRA.DIHEDRAL>
-16.1978

>  <SCORE.INTRA.DIHEDRAL.0>
21.6909

>  <SCORE.INTRA.POLAR>
0

>  <SCORE.INTRA.POLAR.0>
0

>  <SCORE.INTRA.REPUL>
0

>  <SCORE.INTRA.REPUL.0>
0

>  <SCORE.INTRA.SOLV>
2.6103

>  <SCORE.INTRA.SOLV.lig_0>
-116.606

>  <SCORE.INTRA.VDW>
0.620247

>  <SCORE.INTRA.VDW.0>
-6.01229

>  <SCORE.INTRA.norm>
-0.146988

>  <SCORE.RESTR>
0

>  <SCORE.RESTR.CAVITY>
0

>  <SCORE.RESTR.norm>
0

>  <SCORE.SYSTEM>
0

>  <SCORE.SYSTEM.CONST>
0

>  <SCORE.SYSTEM.DIHEDRAL>
0

>  <SCORE.SYSTEM.SOLV>
0

>  <SCORE.SYSTEM.norm>
0

>  <SCORE.heavy>
42

>  <SCORE.norm>
-0.361196

>  <RMSD>
8.205

$$$$
2et4_lig
 OpenBabel11021811423D
libRbt.so/2013.1/901 2013/11/27
 42 45  0  0  0  0  0  0  0  0999 V2000
   16.0578    5.5058    5.5065 C   0  0  2  0  0  0  0  0  0  0  0  0
   16.0412    6.9314    5.4089 O   0  0  0  0  0  0  0  0  0  0  0  0
   17.0459    5.1370    6.6424 C   0  0  2  0  0  0  0  0  0  0  0  0
   16.6683    5.7546    7.8881 N   0  0  0  0  0  0  0  0  0  0  0  0
   18.4860    5.5530    6.2253 C   0  0  1  0  0  0  0  0  0  0  0  0
   19.3743    5.2057    7.2412 O   0  0  0  0  0  0  0  0  0  0  0  0
   18.8270    4.8453    4.8715 C   0  0  2  0  0  0  0  0  0  0  0  0
   20.1267    5.2015    4.4504 O   0  0  0  0  0  0  0  0  0  0  0  0
   17.8011    5.2386    3.7656 C   0  0  2  0  0  0  0  0  0  0  0  0
   16.4909    4.8883    4.2209 O   0  0  0  0  0  0  0  0  0  0  0  0
   18.0868    4.5168    2.4081 C   0  0  0  0  0  0  0  0  0  0  0  0
   18.0838    3.1015    2.5418 N   0  0  0  0  0  0  0  0  0  0  0  0
   13.4458   10.0567    3.9421 C   0  0  2  0  0  0  0  0  0  0  0  0
   12.5207   10.7879    3.0674 N   0  0  0  0  0  0  0  0  0  0  0  0
   14.8334    9.7752    3.1498 C   0  0  0  0  0  0  0  0  0  0  0  0
   15.8215    8.9741    4.0926 C   0  0  2  0  0  0  0  0  0  0  0  0
   17.0886    8.6735    3.4028 N   0  0  0  0  0  0  0  0  0  0  0  0
   15.1410    7.6378    4.5442 C   0  0  2  0  0  0  0  0  0  0  0  0
   13.7905    7.9228    5.2810 C   0  0  2  0  0  0  0  0  0  0  0  0
   13.2388    6.6324    5.6410 O   0  0  0  0  0  0  0  0  0  0  0  0
   12.8247    8.7064    4.3352 C   0  0  1  0  0  0  0  0  0  0  0  0
   11.6433    8.9567    5.0188 O   0  0  0  0  0  0  0  0  0  0  0  0
   12.8542    5.6710    4.7669 C   0  0  1  0  0  0  0  0  0  0  0  0
   12.4280    4.3798    5.5130 C   0  0  2  0  0  0  0  0  0  0  0  0
   13.5067    3.5506    5.8353 O   0  0  0  0  0  0  0  0  0  0  0  0
   11.3791    3.8689    4.5426 C   0  0  1  0  0  0  0  0  0  0  0  0
   10.6421    5.1010    3.9990 C   0  0  2  0  0  0  0  0  0  0  0  0
   11.7250    6.0281    3.9249 O   0  0  0  0  0  0  0  0  0  0  0  0
    9.4744    5.6389    4.8944 C   0  0  0  0  0  0  0  0  0  0  0  0
    9.0515    6.9121    4.3383 O   0  0  0  0  0  0  0  0  0  0  0  0
   12.6520    3.8760    2.4210 C   0  0  2  0  0  0  0  0  0  0  0  0
   12.0886    3.1305    3.4655 O   0  0  0  0  0  0  0  0  0  0  0  0
   11.5669    4.2345    1.3147 C   0  0  1  0  0  0  0  0  0  0  0  0
   15.2691    1.5307   -0.3913 N   0  0  0  0  0  0  0  0  0  0  0  0
   12.3278    5.0693    0.1568 C   0  0  1  0  0  0  0  0  0  0  0  0
   12.9393    6.3032    0.7901 O   0  0  0  0  0  0  0  0  0  0  0  0
   13.4813    4.1520   -0.5172 C   0  0  2  0  0  0  0  0  0  0  0  0
   12.8720    2.9864   -1.1225 O   0  0  0  0  0  0  0  0  0  0  0  0
   14.5525    3.7743    0.6532 C   0  0  1  0  0  0  0  0  0  0  0  0
   13.8357    3.0900    1.7845 O   0  0  0  0  0  0  0  0  0  0  0  0
   15.7142    2.8609    0.1264 C   0  0  0  0  0  0  0  0  0  0  0  0
   10.9170    2.9811    0.8072 N   0  0  0  0  0  0  0  0  0  0  0  0
  1  2  1  6  0  0  0
  1  3  1  0  0  0  0
  1 10  1  0  0  0  0
  3  4  1  1  0  0  0
  3  5  1  0  0  0  0
  5  6  1  1  0  0  0
  5  7  1  0  0  0  0
  7  8  1  6  0  0  0
  7  9  1  0  0  0  0
  9 10  1  0  0  0  0
  9 11  1  6  0  0  0
 11 12  1  0  0  0  0
 13 14  1  6  0  0  0
 13 15  1  0  0  0  0
 13 21  1  0  0  0  0
 16 15  1  0  0  0  0
 16 17  1  6  0  0  0
 18  2  1  1  0  0  0
 18 16  1  0  0  0  0
 19 18  1  0  0  0  0
 19 20  1  6  0  0  0
 21 19  1  0  0  0  0
 21 22  1  1  0  0  0
 23 20  1  1  0  0  0
 23 24  1  0  0  0  0
 23 28  1  0  0  0  0
 24 25  1  6  0  0  0
 24 26  1  0  0  0  0
 26 27  1  0  0  0  0
 26 32  1  6  0  0  0
 27 28  1  0  0  0  0
 27 29  1  1  0  0  0
 29 30  1  0  0  0  0
 31 32  1  1  0  0  0
 31 40  1  0  0  0  0
 33 31  1  0  0  0  0
 33 42  1  6  0  0  0
 35 33  1  0  0  0  0
 35 36  1  1  0  0  0
 37 35  1  0  0  0  0
 37 38  1  1  0  0  0
 37 39  1  0  0  0  0
 39 40  1  0  0  0  0
 39 41  1  6  0  0  0
 41 34  1  0  0  0  0
M  END
>  <CHROM.1>
-173.99543254,57.55454033,-150.29014338,-63.20058693,175.07977407,-81.74454440
170.84313673,-82.75109304,-61.99808727,14.34081191,5.58318731,3.60193854
0.40070271,-0.25850838,0.73607059

>  <Name>
2et4_lig

>  <RI>
0

>  <Rbt.Current_Directory>
/home/itssahil/PROJECTS/Mol_Feturizer/New_Systems/rnas/2et4

>  <Rbt.Executable>
rbdock ($Id: //depot/dev/client3/rdock/2013.1/src/exe/rbdock.cxx#4 $)

>  <Rbt.Library>
libRbt.so (2013.1, Build901 2013/11/27)

>  <Rbt.Parameter_File>
/export/apps/rDock/src/rDock_2013.1_src/data/scripts/dock_solv.prm

>  <Rbt.Receptor>
prm/pocket_docking_8.prm

>  <SCORE>
-6.65172

>  <SCORE.INTER>
-2.42763

>  <SCORE.INTER.CONST>
1

>  <SCORE.INTER.POLAR>
0

>  <SCORE.INTER.ROT>
9

>  <SCORE.INTER.SOLV>
19.0703

>  <SCORE.INTER.VDW>
-17.5752

>  <SCORE.INTER.norm>
-0.0578008

>  <SCORE.INTRA>
-4.22409

>  <SCORE.INTRA.DIHEDRAL>
-12.9662

>  <SCORE.INTRA.DIHEDRAL.0>
21.6909

>  <SCORE.INTRA.POLAR>
0

>  <SCORE.INTRA.POLAR.0>
0

>  <SCORE.INTRA.REPUL>
0

>  <SCORE.INTRA.REPUL.0>
0

>  <SCORE.INTRA.SOLV>
2.40357

>  <SCORE.INTRA.SOLV.lig_0>
-116.606

>  <SCORE.INTRA.VDW>
1.05723

>  <SCORE.INTRA.VDW.0>
-6.01229

>  <SCORE.INTRA.norm>
-0.100573

>  <SCORE.RESTR>
0

>  <SCORE.RESTR.CAVITY>
0

>  <SCORE.RESTR.norm>
0

>  <SCORE.SYSTEM>
0

>  <SCORE.SYSTEM.CONST>
0

>  <SCORE.SYSTEM.DIHEDRAL>
0

>  <SCORE.SYSTEM.SOLV>
0

>  <SCORE.SYSTEM.norm>
0

>  <SCORE.heavy>
42

>  <SCORE.norm>
-0.158374

>  <RMSD>
8.221

$$$$
2et4_lig
 OpenBabel11021811423D
libRbt.so/2013.1/901 2013/11/27
 42 45  0  0  0  0  0  0  0  0999 V2000
   10.4136   10.1247   11.2094 C   0  0  2  0  0  0  0  0  0  0  0  0
    9.8852    8.8076   11.3780 O   0  0  0  0  0  0  0  0  0  0  0  0
   10.7476   10.2940    9.7052 C   0  0  2  0  0  0  0  0  0  0  0  0
    9.5866   10.0732    8.8813 N   0  0  0  0  0  0  0  0  0  0  0  0
   11.8991    9.3200    9.3223 C   0  0  1  0  0  0  0  0  0  0  0  0
   12.2083    9.4858    7.9737 O   0  0  0  0  0  0  0  0  0  0  0  0
   13.1221    9.6185   10.2524 C   0  0  2  0  0  0  0  0  0  0  0  0
   14.1914    8.7497    9.9436 O   0  0  0  0  0  0  0  0  0  0  0  0
   12.7342    9.4454   11.7523 C   0  0  2  0  0  0  0  0  0  0  0  0
   11.6374   10.3184   12.0379 O   0  0  0  0  0  0  0  0  0  0  0  0
   13.9221    9.7763   12.7139 C   0  0  0  0  0  0  0  0  0  0  0  0
   14.2625   11.1564   12.6913 N   0  0  0  0  0  0  0  0  0  0  0  0
    7.9794    6.6791   14.6171 C   0  0  2  0  0  0  0  0  0  0  0  0
    7.0042    6.3327   15.6586 N   0  0  0  0  0  0  0  0  0  0  0  0
    8.6011    8.1463   14.9225 C   0  0  0  0  0  0  0  0  0  0  0  0
    9.6411    8.5206   13.7886 C   0  0  2  0  0  0  0  0  0  0  0  0
   10.2131    9.8601   14.0126 N   0  0  0  0  0  0  0  0  0  0  0  0
    8.9279    8.4818   12.3949 C   0  0  2  0  0  0  0  0  0  0  0  0
    8.3084    7.0705   12.1264 C   0  0  2  0  0  0  0  0  0  0  0  0
    7.6651    7.1442   10.8303 O   0  0  0  0  0  0  0  0  0  0  0  0
    7.2795    6.7198   13.2488 C   0  0  1  0  0  0  0  0  0  0  0  0
    6.7580    5.4596   12.9925 O   0  0  0  0  0  0  0  0  0  0  0  0
    8.2999    7.0932    9.6342 C   0  0  1  0  0  0  0  0  0  0  0  0
    8.9559    5.7054    9.4118 C   0  0  2  0  0  0  0  0  0  0  0  0
   10.2183    5.5940   10.0025 O   0  0  0  0  0  0  0  0  0  0  0  0
    8.8471    5.6204    7.9006 C   0  0  1  0  0  0  0  0  0  0  0  0
    7.5051    6.2598    7.5172 C   0  0  2  0  0  0  0  0  0  0  0  0
    7.4450    7.3123    8.4797 O   0  0  0  0  0  0  0  0  0  0  0  0
    6.2575    5.3163    7.6064 C   0  0  0  0  0  0  0  0  0  0  0  0
    6.0916    4.9460    9.0009 O   0  0  0  0  0  0  0  0  0  0  0  0
   11.2670    5.7782    7.4101 C   0  0  2  0  0  0  0  0  0  0  0  0
    9.9976    6.3661    7.3270 O   0  0  0  0  0  0  0  0  0  0  0  0
   12.3616    6.6554    6.6603 C   0  0  1  0  0  0  0  0  0  0  0  0
   11.2252    1.3458    6.8603 N   0  0  0  0  0  0  0  0  0  0  0  0
   13.7720    5.8760    6.8011 C   0  0  1  0  0  0  0  0  0  0  0  0
   14.0736    5.7106    8.2773 O   0  0  0  0  0  0  0  0  0  0  0  0
   13.6762    4.4276    6.0804 C   0  0  2  0  0  0  0  0  0  0  0  0
   13.3973    4.6124    4.6717 O   0  0  0  0  0  0  0  0  0  0  0  0
   12.5205    3.5729    6.8508 C   0  0  1  0  0  0  0  0  0  0  0  0
   11.2268    4.3391    6.8175 O   0  0  0  0  0  0  0  0  0  0  0  0
   12.3147    2.1490    6.2252 C   0  0  0  0  0  0  0  0  0  0  0  0
   11.9519    6.8796    5.2346 N   0  0  0  0  0  0  0  0  0  0  0  0
  1  2  1  6  0  0  0
  1  3  1  0  0  0  0
  1 10  1  0  0  0  0
  3  4  1  6  0  0  0
  3  5  1  0  0  0  0
  5  6  1  6  0  0  0
  5  7  1  0  0  0  0
  7  8  1  6  0  0  0
  7  9  1  0  0  0  0
  9 10  1  0  0  0  0
  9 11  1  1  0  0  0
 11 12  1  0  0  0  0
 13 14  1  1  0  0  0
 13 15  1  0  0  0  0
 13 21  1  0  0  0  0
 16 15  1  0  0  0  0
 16 17  1  1  0  0  0
 18  2  1  6  0  0  0
 18 16  1  0  0  0  0
 19 18  1  0  0  0  0
 19 20  1  6  0  0  0
 21 19  1  0  0  0  0
 21 22  1  6  0  0  0
 23 20  1  1  0  0  0
 23 24  1  0  0  0  0
 23 28  1  0  0  0  0
 24 25  1  6  0  0  0
 24 26  1  0  0  0  0
 26 27  1  0  0  0  0
 26 32  1  6  0  0  0
 27 28  1  0  0  0  0
 27 29  1  1  0  0  0
 29 30  1  0  0  0  0
 31 32  1  6  0  0  0
 31 40  1  0  0  0  0
 33 31  1  0  0  0  0
 33 42  1  6  0  0  0
 35 33  1  0  0  0  0
 35 36  1  1  0  0  0
 37 35  1  0  0  0  0
 37 38  1  6  0  0  0
 37 39  1  0  0  0  0
 39 40  1  0  0  0  0
 39 41  1  6  0  0  0
 41 34  1  0  0  0  0
M  END
>  <CHROM.1>
-150.14029404,67.65528472,-70.98422665,77.85708629,65.72201875,73.37068264
64.17187534,175.94304212,-177.57195783,10.43499611,7.05959335,9.76474708
-1.95509491,-0.48027014,-2.26030461

>  <Name>
2et4_lig

>  <RI>
1.79929e+07

>  <Rbt.Current_Directory>
/home/itssahil/PROJECTS/Mol_Feturizer/New_Systems/rnas/2et4

>  <Rbt.Executable>
rbdock ($Id: //depot/dev/client3/rdock/2013.1/src/exe/rbdock.cxx#4 $)

>  <Rbt.Library>
libRbt.so (2013.1, Build901 2013/11/27)

>  <Rbt.Parameter_File>
/export/apps/rDock/src/rDock_2013.1_src/data/scripts/dock_solv.prm

>  <Rbt.Receptor>
prm/pocket_docking_7.prm

>  <SCORE>
-6.23516

>  <SCORE.INTER>
-0.973959

>  <SCORE.INTER.CONST>
1

>  <SCORE.INTER.POLAR>
-0.711221

>  <SCORE.INTER.ROT>
9

>  <SCORE.INTER.SOLV>
12.31

>  <SCORE.INTER.VDW>
-11.9819

>  <SCORE.INTER.norm>
-0.0231895

>  <SCORE.INTRA>
-5.2612

>  <SCORE.INTRA.DIHEDRAL>
-14.5399

>  <SCORE.INTRA.DIHEDRAL.0>
21.6909

>  <SCORE.INTRA.POLAR>
0

>  <SCORE.INTRA.POLAR.0>
0

>  <SCORE.INTRA.REPUL>
0

>  <SCORE.INTRA.REPUL.0>
0

>  <SCORE.INTRA.SOLV>
2.51702

>  <SCORE.INTRA.SOLV.lig_0>
-116.606

>  <SCORE.INTRA.VDW>
0.750231

>  <SCORE.INTRA.VDW.0>
-6.01229

>  <SCORE.INTRA.norm>
-0.125267

>  <SCORE.RESTR>
0

>  <SCORE.RESTR.CAVITY>
0

>  <SCORE.RESTR.norm>
0

>  <SCORE.SYSTEM>
0

>  <SCORE.SYSTEM.CONST>
0

>  <SCORE.SYSTEM.DIHEDRAL>
0

>  <SCORE.SYSTEM.SOLV>
0

>  <SCORE.SYSTEM.norm>
0

>  <SCORE.heavy>
42

>  <SCORE.norm>
-0.148456

>  <RMSD>
8.223

$$$$
2et4_lig
 OpenBabel11021811423D
libRbt.so/2013.1/901 2013/11/27
 42 45  0  0  0  0  0  0  0  0999 V2000
   12.6835    5.4796    5.4249 C   0  0  2  0  0  0  0  0  0  0  0  0
   11.9702    6.7034    5.6139 O   0  0  0  0  0  0  0  0  0  0  0  0
   13.4020    5.5764    4.0548 C   0  0  2  0  0  0  0  0  0  0  0  0
   14.2765    6.7201    4.0000 N   0  0  0  0  0  0  0  0  0  0  0  0
   12.3385    5.6302    2.9202 C   0  0  1  0  0  0  0  0  0  0  0  0
   12.9872    5.7008    1.6889 O   0  0  0  0  0  0  0  0  0  0  0  0
   11.4303    4.3610    3.0403 C   0  0  2  0  0  0  0  0  0  0  0  0
   10.4430    4.3723    2.0310 O   0  0  0  0  0  0  0  0  0  0  0  0
   10.7394    4.3029    4.4364 C   0  0  2  0  0  0  0  0  0  0  0  0
   11.7558    4.3132    5.4432 O   0  0  0  0  0  0  0  0  0  0  0  0
    9.8552    3.0245    4.6077 C   0  0  0  0  0  0  0  0  0  0  0  0
    9.2080    2.9852    5.8728 N   0  0  0  0  0  0  0  0  0  0  0  0
   10.2542    8.8934    8.9175 C   0  0  2  0  0  0  0  0  0  0  0  0
    9.4720    9.1838   10.1257 N   0  0  0  0  0  0  0  0  0  0  0  0
    9.2635    8.3763    7.7413 C   0  0  0  0  0  0  0  0  0  0  0  0
   10.1140    8.0510    6.4459 C   0  0  2  0  0  0  0  0  0  0  0  0
    9.2553    7.5521    5.3571 N   0  0  0  0  0  0  0  0  0  0  0  0
   11.1989    6.9759    6.7920 C   0  0  2  0  0  0  0  0  0  0  0  0
   12.1285    7.4758    7.9469 C   0  0  2  0  0  0  0  0  0  0  0  0
   13.0789    6.4117    8.1989 O   0  0  0  0  0  0  0  0  0  0  0  0
   11.2756    7.7846    9.2192 C   0  0  1  0  0  0  0  0  0  0  0  0
   12.1230    8.2383   10.2201 O   0  0  0  0  0  0  0  0  0  0  0  0
   14.2921    6.2860    7.6084 C   0  0  1  0  0  0  0  0  0  0  0  0
   15.2325    7.4497    8.0171 C   0  0  2  0  0  0  0  0  0  0  0  0
   15.0555    8.5976    7.2387 O   0  0  0  0  0  0  0  0  0  0  0  0
   16.5639    6.7243    7.9557 C   0  0  1  0  0  0  0  0  0  0  0  0
   16.3152    5.2992    8.4694 C   0  0  2  0  0  0  0  0  0  0  0  0
   15.0095    5.0668    7.9414 O   0  0  0  0  0  0  0  0  0  0  0  0
   16.3537    5.1262   10.0261 C   0  0  0  0  0  0  0  0  0  0  0  0
   16.2227    3.7078   10.3092 O   0  0  0  0  0  0  0  0  0  0  0  0
   18.2718    6.1921    6.2465 C   0  0  2  0  0  0  0  0  0  0  0  0
   17.0109    6.7297    6.5383 O   0  0  0  0  0  0  0  0  0  0  0  0
   18.7815    6.6563    4.8131 C   0  0  1  0  0  0  0  0  0  0  0  0
   19.0649    1.8838    7.5684 N   0  0  0  0  0  0  0  0  0  0  0  0
   20.2238    5.9636    4.5752 C   0  0  1  0  0  0  0  0  0  0  0  0
   21.1491    6.4069    5.6908 O   0  0  0  0  0  0  0  0  0  0  0  0
   20.0685    4.3505    4.5801 C   0  0  2  0  0  0  0  0  0  0  0  0
   19.1890    3.9518    3.5014 O   0  0  0  0  0  0  0  0  0  0  0  0
   19.5096    3.9169    6.0496 C   0  0  1  0  0  0  0  0  0  0  0  0
   18.2191    4.6382    6.3260 O   0  0  0  0  0  0  0  0  0  0  0  0
   19.2930    2.3680    6.1723 C   0  0  0  0  0  0  0  0  0  0  0  0
   17.7720    6.2903    3.7654 N   0  0  0  0  0  0  0  0  0  0  0  0
  1  2  1  6  0  0  0
  1  3  1  0  0  0  0
  1 10  1  0  0  0  0
  3  4  1  1  0  0  0
  3  5  1  0  0  0  0
  5  6  1  6  0  0  0
  5  7  1  0  0  0  0
  7  8  1  6  0  0  0
  7  9  1  0  0  0  0
  9 10  1  0  0  0  0
  9 11  1  6  0  0  0
 11 12  1  0  0  0  0
 13 14  1  1  0  0  0
 13 15  1  0  0  0  0
 13 21  1  0  0  0  0
 16 15  1  0  0  0  0
 16 17  1  6  0  0  0
 18  2  1  6  0  0  0
 18 16  1  0  0  0  0
 19 18  1  0  0  0  0
 19 20  1  1  0  0  0
 21 19  1  0  0  0  0
 21 22  1  1  0  0  0
 23 20  1  1  0  0  0
 23 24  1  0  0  0  0
 23 28  1  0  0  0  0
 24 25  1  6  0  0  0
 24 26  1  0  0  0  0
 26 27  1  0  0  0  0
 26 32  1  6  0  0  0
 27 28  1  0  0  0  0
 27 29  1  1  0  0  0
 29 30  1  0  0  0  0
 31 32  1  6  0  0  0
 31 40  1  0  0  0  0
 33 31  1  0  0  0  0
 33 42  1  6  0  0  0
 35 33  1  0  0  0  0
 35 36  1  1  0  0  0
 37 35  1  0  0  0  0
 37 38  1  6  0  0  0
 37 39  1  0  0  0  0
 39 40  1  0  0  0  0
 39 41  1  6  0  0  0
 41 34  1  0  0  0  0
M  END
>  <CHROM.1>
-179.12068055,-178.98909365,-156.48509626,91.19834828,65.51574707,175.68697329
-174.84098224,-162.85551809,167.60888999,14.37553338,5.83590169,6.27380231
2.98653238,-0.16108746,1.13802663

>  <Name>
2et4_lig

>  <RI>
0

>  <Rbt.Current_Directory>
/home/itssahil/PROJECTS/Mol_Feturizer/New_Systems/rnas/2et4

>  <Rbt.Executable>
rbdock ($Id: //depot/dev/client3/rdock/2013.1/src/exe/rbdock.cxx#4 $)

>  <Rbt.Library>
libRbt.so (2013.1, Build901 2013/11/27)

>  <Rbt.Parameter_File>
/export/apps/rDock/src/rDock_2013.1_src/data/scripts/dock_solv.prm

>  <Rbt.Receptor>
prm/pocket_docking_8.prm

>  <SCORE>
-8.08808

>  <SCORE.INTER>
-1.76047

>  <SCORE.INTER.CONST>
1

>  <SCORE.INTER.POLAR>
-0.576751

>  <SCORE.INTER.ROT>
9

>  <SCORE.INTER.SOLV>
14.2976

>  <SCORE.INTER.VDW>
-13.617

>  <SCORE.INTER.norm>
-0.0419159

>  <SCORE.INTRA>
-6.32762

>  <SCORE.INTRA.DIHEDRAL>
-13.0757

>  <SCORE.INTRA.DIHEDRAL.0>
21.6909

>  <SCORE.INTRA.POLAR>
0

>  <SCORE.INTRA.POLAR.0>
0

>  <SCORE.INTRA.REPUL>
0.00318308

>  <SCORE.INTRA.REPUL.0>
0

>  <SCORE.INTRA.SOLV>
-2.15886

>  <SCORE.INTRA.SOLV.lig_0>
-116.606

>  <SCORE.INTRA.VDW>
1.27376

>  <SCORE.INTRA.VDW.0>
-6.01229

>  <SCORE.INTRA.norm>
-0.150658

>  <SCORE.RESTR>
0

>  <SCORE.RESTR.CAVITY>
0

>  <SCORE.RESTR.norm>
0

>  <SCORE.SYSTEM>
0

>  <SCORE.SYSTEM.CONST>
0

>  <SCORE.SYSTEM.DIHEDRAL>
0

>  <SCORE.SYSTEM.SOLV>
0

>  <SCORE.SYSTEM.norm>
0

>  <SCORE.heavy>
42

>  <SCORE.norm>
-0.192573

>  <RMSD>
8.223

$$$$
2et4_lig
 OpenBabel11021811423D
libRbt.so/2013.1/901 2013/11/27
 42 45  0  0  0  0  0  0  0  0999 V2000
    9.7063    3.7821   11.2736 C   0  0  2  0  0  0  0  0  0  0  0  0
   10.3874    4.5599   10.2870 O   0  0  0  0  0  0  0  0  0  0  0  0
    8.2849    3.4935   10.7268 C   0  0  2  0  0  0  0  0  0  0  0  0
    8.3383    2.8180    9.4554 N   0  0  0  0  0  0  0  0  0  0  0  0
    7.4958    4.8301   10.6176 C   0  0  1  0  0  0  0  0  0  0  0  0
    6.2132    4.5659   10.1413 O   0  0  0  0  0  0  0  0  0  0  0  0
    7.4769    5.5039   12.0303 C   0  0  2  0  0  0  0  0  0  0  0  0
    6.7747    6.7277   11.9760 O   0  0  0  0  0  0  0  0  0  0  0  0
    8.9266    5.7638   12.5409 C   0  0  2  0  0  0  0  0  0  0  0  0
    9.6253    4.5157   12.5685 O   0  0  0  0  0  0  0  0  0  0  0  0
    8.9470    6.3993   13.9696 C   0  0  0  0  0  0  0  0  0  0  0  0
   10.2579    6.7757   14.3708 N   0  0  0  0  0  0  0  0  0  0  0  0
   14.1048    5.7702   12.1229 C   0  0  2  0  0  0  0  0  0  0  0  0
   15.5127    6.1618   12.2655 N   0  0  0  0  0  0  0  0  0  0  0  0
   14.0176    4.2879   11.4691 C   0  0  0  0  0  0  0  0  0  0  0  0
   12.4974    3.8770   11.3044 C   0  0  2  0  0  0  0  0  0  0  0  0
   12.3703    2.5441   10.6887 N   0  0  0  0  0  0  0  0  0  0  0  0
   11.7652    4.9372   10.4142 C   0  0  2  0  0  0  0  0  0  0  0  0
   11.8821    6.3658   11.0414 C   0  0  2  0  0  0  0  0  0  0  0  0
   11.1912    7.2671   10.1416 O   0  0  0  0  0  0  0  0  0  0  0  0
   13.3869    6.7591   11.1899 C   0  0  1  0  0  0  0  0  0  0  0  0
   13.4596    8.0221   11.7603 O   0  0  0  0  0  0  0  0  0  0  0  0
   11.4871    7.4492    8.8319 C   0  0  1  0  0  0  0  0  0  0  0  0
   10.6343    6.5151    7.9342 C   0  0  2  0  0  0  0  0  0  0  0  0
   11.1783    5.2339    7.8022 O   0  0  0  0  0  0  0  0  0  0  0  0
   10.5238    7.3918    6.7006 C   0  0  1  0  0  0  0  0  0  0  0  0
   10.3899    8.8385    7.1966 C   0  0  2  0  0  0  0  0  0  0  0  0
   11.2512    8.7939    8.3341 O   0  0  0  0  0  0  0  0  0  0  0  0
    8.9394    9.2890    7.5810 C   0  0  0  0  0  0  0  0  0  0  0  0
    8.0197    8.5898    6.7010 O   0  0  0  0  0  0  0  0  0  0  0  0
   12.9919    7.2852    6.5634 C   0  0  2  0  0  0  0  0  0  0  0  0
   11.7606    7.1952    5.9002 O   0  0  0  0  0  0  0  0  0  0  0  0
   13.5108    8.7876    6.6194 C   0  0  1  0  0  0  0  0  0  0  0  0
   16.7626    5.9194    4.3205 N   0  0  0  0  0  0  0  0  0  0  0  0
   14.9378    8.7686    7.3810 C   0  0  1  0  0  0  0  0  0  0  0  0
   14.7279    8.1762    8.7602 O   0  0  0  0  0  0  0  0  0  0  0  0
   15.9994    7.8775    6.5411 C   0  0  2  0  0  0  0  0  0  0  0  0
   16.1898    8.4681    5.2330 O   0  0  0  0  0  0  0  0  0  0  0  0
   15.4159    6.3561    6.4732 C   0  0  1  0  0  0  0  0  0  0  0  0
   14.0420    6.3748    5.8617 O   0  0  0  0  0  0  0  0  0  0  0  0
   16.3504    5.3946    5.6585 C   0  0  0  0  0  0  0  0  0  0  0  0
   13.5902    9.3559    5.2332 N   0  0  0  0  0  0  0  0  0  0  0  0
  1  2  1  6  0  0  0
  1  3  1  0  0  0  0
  1 10  1  0  0  0  0
  3  4  1  6  0  0  0
  3  5  1  0  0  0  0
  5  6  1  1  0  0  0
  5  7  1  0  0  0  0
  7  8  1  6  0  0  0
  7  9  1  0  0  0  0
  9 10  1  0  0  0  0
  9 11  1  1  0  0  0
 11 12  1  0  0  0  0
 13 14  1  6  0  0  0
 13 15  1  0  0  0  0
 13 21  1  0  0  0  0
 16 15  1  0  0  0  0
 16 17  1  6  0  0  0
 18  2  1  1  0  0  0
 18 16  1  0  0  0  0
 19 18  1  0  0  0  0
 19 20  1  6  0  0  0
 21 19  1  0  0  0  0
 21 22  1  1  0  0  0
 23 20  1  1  0  0  0
 23 24  1  0  0  0  0
 23 28  1  0  0  0  0
 24 25  1  6  0  0  0
 24 26  1  0  0  0  0
 26 27  1  0  0  0  0
 26 32  1  6  0  0  0
 27 28  1  0  0  0  0
 27 29  1  1  0  0  0
 29 30  1  0  0  0  0
 31 32  1  6  0  0  0
 31 40  1  0  0  0  0
 33 31  1  0  0  0  0
 33 42  1  6  0  0  0
 35 33  1  0  0  0  0
 35 36  1  1  0  0  0
 37 35  1  0  0  0  0
 37 38  1  6  0  0  0
 37 39  1  0  0  0  0
 39 40  1  0  0  0  0
 39 41  1  6  0  0  0
 41 34  1  0  0  0  0
M  END
>  <CHROM.1>
-175.66930810,-173.29421464,26.78315714,-58.11342983,92.95295984,-49.06590971
-32.86661221,-87.02302834,-49.56166583,11.67538912,6.39596786,9.21898164
-2.36500108,0.05376935,-1.10707721

>  <Name>
2et4_lig

>  <RI>
0

>  <Rbt.Current_Directory>
/home/itssahil/PROJECTS/Mol_Feturizer/New_Systems/rnas/2et4

>  <Rbt.Executable>
rbdock ($Id: //depot/dev/client3/rdock/2013.1/src/exe/rbdock.cxx#4 $)

>  <Rbt.Library>
libRbt.so (2013.1, Build901 2013/11/27)

>  <Rbt.Parameter_File>
/export/apps/rDock/src/rDock_2013.1_src/data/scripts/dock_solv.prm

>  <Rbt.Receptor>
prm/pocket_docking_2.prm

>  <SCORE>
13.7956

>  <SCORE.INTER>
4.14253

>  <SCORE.INTER.CONST>
1

>  <SCORE.INTER.POLAR>
-0.191289

>  <SCORE.INTER.ROT>
9

>  <SCORE.INTER.SOLV>
11.3702

>  <SCORE.INTER.VDW>
-9.99074

>  <SCORE.INTER.norm>
0.0986316

>  <SCORE.INTRA>
2.19699

>  <SCORE.INTRA.DIHEDRAL>
-6.80717

>  <SCORE.INTRA.DIHEDRAL.0>
21.6909

>  <SCORE.INTRA.POLAR>
0

>  <SCORE.INTRA.POLAR.0>
0

>  <SCORE.INTRA.REPUL>
0

>  <SCORE.INTRA.REPUL.0>
0

>  <SCORE.INTRA.SOLV>
1.83445

>  <SCORE.INTRA.SOLV.lig_0>
-116.606

>  <SCORE.INTRA.VDW>
4.68335

>  <SCORE.INTRA.VDW.0>
-6.01229

>  <SCORE.INTRA.norm>
0.0523092

>  <SCORE.RESTR>
7.45606

>  <SCORE.RESTR.CAVITY>
7.45606

>  <SCORE.RESTR.norm>
0.177525

>  <SCORE.SYSTEM>
0

>  <SCORE.SYSTEM.CONST>
0

>  <SCORE.SYSTEM.DIHEDRAL>
0

>  <SCORE.SYSTEM.SOLV>
0

>  <SCORE.SYSTEM.norm>
0

>  <SCORE.heavy>
42

>  <SCORE.norm>
0.328466

>  <RMSD>
8.284

$$$$
2et4_lig
 OpenBabel11021811423D
libRbt.so/2013.1/901 2013/11/27
 42 45  0  0  0  0  0  0  0  0999 V2000
   16.1516   13.5199    1.5883 C   0  0  2  0  0  0  0  0  0  0  0  0
   15.6062   14.0067    0.3604 O   0  0  0  0  0  0  0  0  0  0  0  0
   17.1432   14.5933    2.1052 C   0  0  2  0  0  0  0  0  0  0  0  0
   16.4950   15.8686    2.2754 N   0  0  0  0  0  0  0  0  0  0  0  0
   18.3420   14.7019    1.1192 C   0  0  1  0  0  0  0  0  0  0  0  0
   19.2396   15.6558    1.5946 O   0  0  0  0  0  0  0  0  0  0  0  0
   18.9959   13.2861    0.9862 C   0  0  2  0  0  0  0  0  0  0  0  0
   20.0875   13.3367    0.0921 O   0  0  0  0  0  0  0  0  0  0  0  0
   17.9586   12.2413    0.4743 C   0  0  2  0  0  0  0  0  0  0  0  0
   16.8533   12.2211    1.3824 O   0  0  0  0  0  0  0  0  0  0  0  0
   18.5669   10.8045    0.3686 C   0  0  0  0  0  0  0  0  0  0  0  0
   19.6291   10.7395   -0.5741 N   0  0  0  0  0  0  0  0  0  0  0  0
   12.3516   12.4543   -2.0172 C   0  0  2  0  0  0  0  0  0  0  0  0
   11.6065   11.5993   -2.9496 N   0  0  0  0  0  0  0  0  0  0  0  0
   13.6131   13.1249   -2.7861 C   0  0  0  0  0  0  0  0  0  0  0  0
   14.4210   14.0341   -1.7723 C   0  0  2  0  0  0  0  0  0  0  0  0
   15.5936   14.6447   -2.4234 N   0  0  0  0  0  0  0  0  0  0  0  0
   14.8899   13.1669   -0.5554 C   0  0  2  0  0  0  0  0  0  0  0  0
   13.6662   12.5032    0.1587 C   0  0  2  0  0  0  0  0  0  0  0  0
   14.2043   11.7180    1.2509 O   0  0  0  0  0  0  0  0  0  0  0  0
   12.8847   11.6041   -0.8524 C   0  0  1  0  0  0  0  0  0  0  0  0
   11.7994   11.0411   -0.1961 O   0  0  0  0  0  0  0  0  0  0  0  0
   13.4835   11.1956    2.2725 C   0  0  1  0  0  0  0  0  0  0  0  0
   13.6031    9.6496    2.3036 C   0  0  2  0  0  0  0  0  0  0  0  0
   12.7049    9.0120    1.4424 O   0  0  0  0  0  0  0  0  0  0  0  0
   13.4683    9.4217    3.7979 C   0  0  1  0  0  0  0  0  0  0  0  0
   14.2000   10.5804    4.4897 C   0  0  2  0  0  0  0  0  0  0  0  0
   13.8835   11.6465    3.5948 O   0  0  0  0  0  0  0  0  0  0  0  0
   15.7473   10.3986    4.6559 C   0  0  0  0  0  0  0  0  0  0  0  0
   16.2851   10.0416    3.3550 O   0  0  0  0  0  0  0  0  0  0  0  0
   11.2822    8.2630    3.8078 C   0  0  2  0  0  0  0  0  0  0  0  0
   12.0174    9.4146    4.1198 O   0  0  0  0  0  0  0  0  0  0  0  0
   10.3475    7.8271    5.0186 C   0  0  1  0  0  0  0  0  0  0  0  0
   12.1622    3.4378    2.1851 N   0  0  0  0  0  0  0  0  0  0  0  0
    9.5694    6.4857    4.5583 C   0  0  1  0  0  0  0  0  0  0  0  0
    8.7813    6.8053    3.3037 O   0  0  0  0  0  0  0  0  0  0  0  0
   10.6368    5.3016    4.2663 C   0  0  2  0  0  0  0  0  0  0  0  0
   11.3693    5.0086    5.4802 O   0  0  0  0  0  0  0  0  0  0  0  0
   11.5990    5.7995    3.0473 C   0  0  1  0  0  0  0  0  0  0  0  0
   12.2473    7.1034    3.4234 O   0  0  0  0  0  0  0  0  0  0  0  0
   12.6986    4.7409    2.6848 C   0  0  0  0  0  0  0  0  0  0  0  0
   11.1694    7.6353    6.2590 N   0  0  0  0  0  0  0  0  0  0  0  0
  1  2  1  6  0  0  0
  1  3  1  0  0  0  0
  1 10  1  0  0  0  0
  3  4  1  6  0  0  0
  3  5  1  0  0  0  0
  5  6  1  1  0  0  0
  5  7  1  0  0  0  0
  7  8  1  6  0  0  0
  7  9  1  0  0  0  0
  9 10  1  0  0  0  0
  9 11  1  1  0  0  0
 11 12  1  0  0  0  0
 13 14  1  6  0  0  0
 13 15  1  0  0  0  0
 13 21  1  0  0  0  0
 16 15  1  0  0  0  0
 16 17  1  6  0  0  0
 18  2  1  1  0  0  0
 18 16  1  0  0  0  0
 19 18  1  0  0  0  0
 19 20  1  1  0  0  0
 21 19  1  0  0  0  0
 21 22  1  1  0  0  0
 23 20  1  6  0  0  0
 23 24  1  0  0  0  0
 23 28  1  0  0  0  0
 24 25  1  6  0  0  0
 24 26  1  0  0  0  0
 26 27  1  0  0  0  0
 26 32  1  1  0  0  0
 27 28  1  0  0  0  0
 27 29  1  6  0  0  0
 29 30  1  0  0  0  0
 31 32  1  1  0  0  0
 31 40  1  0  0  0  0
 33 31  1  0  0  0  0
 33 42  1  1  0  0  0
 35 33  1  0  0  0  0
 35 36  1  6  0  0  0
 37 35  1  0  0  0  0
 37 38  1  1  0  0  0
 37 39  1  0  0  0  0
 39 40  1  0  0  0  0
 39 41  1  1  0  0  0
 41 34  1  0  0  0  0
M  END
>  <CHROM.1>
165.50583380,-62.78010660,179.09380333,166.36208288,119.64813219,76.98023165
51.01263181,133.78641678,62.76430756,14.23217078,10.62232327,1.77357046,-0.83779479
0.48160791,2.26818925

>  <Name>
2et4_lig

>  <RI>
0

>  <Rbt.Current_Directory>
/home/itssahil/PROJECTS/Mol_Feturizer/New_Systems/rnas/2et4

>  <Rbt.Executable>
rbdock ($Id: //depot/dev/client3/rdock/2013.1/src/exe/rbdock.cxx#4 $)

>  <Rbt.Library>
libRbt.so (2013.1, Build901 2013/11/27)

>  <Rbt.Parameter_File>
/export/apps/rDock/src/rDock_2013.1_src/data/scripts/dock_solv.prm

>  <Rbt.Receptor>
prm/pocket_docking_8.prm

>  <SCORE>
-15.4139

>  <SCORE.INTER>
-14.4878

>  <SCORE.INTER.CONST>
1

>  <SCORE.INTER.POLAR>
-0.0038769

>  <SCORE.INTER.ROT>
9

>  <SCORE.INTER.SOLV>
25.637

>  <SCORE.INTER.VDW>
-27.7913

>  <SCORE.INTER.norm>
-0.344947

>  <SCORE.INTRA>
-0.926125

>  <SCORE.INTRA.DIHEDRAL>
-4.51565

>  <SCORE.INTRA.DIHEDRAL.0>
21.6909

>  <SCORE.INTRA.POLAR>
0

>  <SCORE.INTRA.POLAR.0>
0

>  <SCORE.INTRA.REPUL>
0

>  <SCORE.INTRA.REPUL.0>
0

>  <SCORE.INTRA.SOLV>
-1.64307

>  <SCORE.INTRA.SOLV.lig_0>
-116.606

>  <SCORE.INTRA.VDW>
2.15324

>  <SCORE.INTRA.VDW.0>
-6.01229

>  <SCORE.INTRA.norm>
-0.0220506

>  <SCORE.RESTR>
0

>  <SCORE.RESTR.CAVITY>
0

>  <SCORE.RESTR.norm>
0

>  <SCORE.SYSTEM>
0

>  <SCORE.SYSTEM.CONST>
0

>  <SCORE.SYSTEM.DIHEDRAL>
0

>  <SCORE.SYSTEM.SOLV>
0

>  <SCORE.SYSTEM.norm>
0

>  <SCORE.heavy>
42

>  <SCORE.norm>
-0.366998

>  <RMSD>
8.289

$$$$
2et4_lig
 OpenBabel11021811423D
libRbt.so/2013.1/901 2013/11/27
 42 45  0  0  0  0  0  0  0  0999 V2000
   10.4861    6.4888   10.6632 C   0  0  2  0  0  0  0  0  0  0  0  0
   10.8534    5.3824    9.8367 O   0  0  0  0  0  0  0  0  0  0  0  0
    9.2487    7.1560   10.0102 C   0  0  2  0  0  0  0  0  0  0  0  0
    8.1655    6.2183    9.8580 N   0  0  0  0  0  0  0  0  0  0  0  0
    9.6582    7.7655    8.6384 C   0  0  1  0  0  0  0  0  0  0  0  0
    8.5480    8.3786    8.0611 O   0  0  0  0  0  0  0  0  0  0  0  0
   10.8323    8.7717    8.8811 C   0  0  2  0  0  0  0  0  0  0  0  0
   11.2420    9.3452    7.6577 O   0  0  0  0  0  0  0  0  0  0  0  0
   12.0469    8.0573    9.5476 C   0  0  2  0  0  0  0  0  0  0  0  0
   11.6054    7.4668   10.7736 O   0  0  0  0  0  0  0  0  0  0  0  0
   13.2250    9.0423    9.8433 C   0  0  0  0  0  0  0  0  0  0  0  0
   14.3004    8.4049   10.5203 N   0  0  0  0  0  0  0  0  0  0  0  0
    9.8761    1.1857    9.5406 C   0  0  2  0  0  0  0  0  0  0  0  0
    9.0807   -0.0447    9.4452 N   0  0  0  0  0  0  0  0  0  0  0  0
    9.5059    1.9658   10.9141 C   0  0  0  0  0  0  0  0  0  0  0  0
   10.3557    3.2987   11.0047 C   0  0  2  0  0  0  0  0  0  0  0  0
   10.0318    4.0542   12.2278 N   0  0  0  0  0  0  0  0  0  0  0  0
   10.0657    4.1871    9.7480 C   0  0  2  0  0  0  0  0  0  0  0  0
   10.3997    3.4124    8.4303 C   0  0  2  0  0  0  0  0  0  0  0  0
   10.0852    4.3085    7.3361 O   0  0  0  0  0  0  0  0  0  0  0  0
    9.5479    2.1048    8.3526 C   0  0  1  0  0  0  0  0  0  0  0  0
    9.8748    1.4331    7.1832 O   0  0  0  0  0  0  0  0  0  0  0  0
   10.9026    5.2751    6.8527 C   0  0  1  0  0  0  0  0  0  0  0  0
   12.1011    4.6575    6.0862 C   0  0  2  0  0  0  0  0  0  0  0  0
   13.1573    4.2879    6.9246 O   0  0  0  0  0  0  0  0  0  0  0  0
   12.3311    5.7542    5.0628 C   0  0  1  0  0  0  0  0  0  0  0  0
   10.9467    6.2853    4.6651 C   0  0  2  0  0  0  0  0  0  0  0  0
   10.2740    6.1963    5.9210 O   0  0  0  0  0  0  0  0  0  0  0  0
   10.2069    5.4725    3.5485 C   0  0  0  0  0  0  0  0  0  0  0  0
    8.9503    6.1488    3.2791 O   0  0  0  0  0  0  0  0  0  0  0  0
   13.9240    7.6391    4.8853 C   0  0  2  0  0  0  0  0  0  0  0  0
   13.1595    6.8041    5.7113 O   0  0  0  0  0  0  0  0  0  0  0  0
   14.9731    8.4854    5.7295 C   0  0  1  0  0  0  0  0  0  0  0  0
   13.1539   11.2863    1.3102 N   0  0  0  0  0  0  0  0  0  0  0  0
   15.7780    9.4218    4.6845 C   0  0  1  0  0  0  0  0  0  0  0  0
   16.4463    8.5223    3.6639 O   0  0  0  0  0  0  0  0  0  0  0  0
   14.7512   10.4392    3.9516 C   0  0  2  0  0  0  0  0  0  0  0  0
   14.1337   11.2926    4.9448 O   0  0  0  0  0  0  0  0  0  0  0  0
   13.6709    9.5360    3.1288 C   0  0  1  0  0  0  0  0  0  0  0  0
   12.9904    8.5858    4.0753 O   0  0  0  0  0  0  0  0  0  0  0  0
   12.6001   10.4128    2.3899 C   0  0  0  0  0  0  0  0  0  0  0  0
   14.2637    9.2670    6.7957 N   0  0  0  0  0  0  0  0  0  0  0  0
  1  2  1  6  0  0  0
  1  3  1  0  0  0  0
  1 10  1  0  0  0  0
  3  4  1  6  0  0  0
  3  5  1  0  0  0  0
  5  6  1  1  0  0  0
  5  7  1  0  0  0  0
  7  8  1  6  0  0  0
  7  9  1  0  0  0  0
  9 10  1  0  0  0  0
  9 11  1  1  0  0  0
 11 12  1  0  0  0  0
 13 14  1  6  0  0  0
 13 15  1  0  0  0  0
 13 21  1  0  0  0  0
 16 15  1  0  0  0  0
 16 17  1  1  0  0  0
 18  2  1  1  0  0  0
 18 16  1  0  0  0  0
 19 18  1  0  0  0  0
 19 20  1  6  0  0  0
 21 19  1  0  0  0  0
 21 22  1  6  0  0  0
 23 20  1  6  0  0  0
 23 24  1  0  0  0  0
 23 28  1  0  0  0  0
 24 25  1  1  0  0  0
 24 26  1  0  0  0  0
 26 27  1  0  0  0  0
 26 32  1  1  0  0  0
 27 28  1  0  0  0  0
 27 29  1  6  0  0  0
 29 30  1  0  0  0  0
 31 32  1  1  0  0  0
 31 40  1  0  0  0  0
 33 31  1  0  0  0  0
 33 42  1  1  0  0  0
 35 33  1  0  0  0  0
 35 36  1  6  0  0  0
 37 35  1  0  0  0  0
 37 38  1  1  0  0  0
 37 39  1  0  0  0  0
 39 40  1  0  0  0  0
 39 41  1  1  0  0  0
 41 34  1  0  0  0  0
M  END
>  <CHROM.1>
-70.76900467,176.62226098,-79.09289112,83.50718798,70.93349183,155.99944235
-178.01820801,-167.87285389,64.54427209,11.61217015,6.54532262,7.15987567
-2.75320492,-1.07533914,-1.87347794

>  <Name>
2et4_lig

>  <RI>
1.79929e+07

>  <Rbt.Current_Directory>
/home/itssahil/PROJECTS/Mol_Feturizer/New_Systems/rnas/2et4

>  <Rbt.Executable>
rbdock ($Id: //depot/dev/client3/rdock/2013.1/src/exe/rbdock.cxx#4 $)

>  <Rbt.Library>
libRbt.so (2013.1, Build901 2013/11/27)

>  <Rbt.Parameter_File>
/export/apps/rDock/src/rDock_2013.1_src/data/scripts/dock_solv.prm

>  <Rbt.Receptor>
prm/pocket_docking_7.prm

>  <SCORE>
-18.1542

>  <SCORE.INTER>
-12.5808

>  <SCORE.INTER.CONST>
1

>  <SCORE.INTER.POLAR>
-2.22942

>  <SCORE.INTER.ROT>
9

>  <SCORE.INTER.SOLV>
16.7516

>  <SCORE.INTER.VDW>
-16.1397

>  <SCORE.INTER.norm>
-0.299542

>  <SCORE.INTRA>
-5.57344

>  <SCORE.INTRA.DIHEDRAL>
-13.0499

>  <SCORE.INTRA.DIHEDRAL.0>
21.6909

>  <SCORE.INTRA.POLAR>
0

>  <SCORE.INTRA.POLAR.0>
0

>  <SCORE.INTRA.REPUL>
0.00788079

>  <SCORE.INTRA.REPUL.0>
0

>  <SCORE.INTRA.SOLV>
2.54911

>  <SCORE.INTRA.SOLV.lig_0>
-116.606

>  <SCORE.INTRA.VDW>
-0.362451

>  <SCORE.INTRA.VDW.0>
-6.01229

>  <SCORE.INTRA.norm>
-0.132701

>  <SCORE.RESTR>
0

>  <SCORE.RESTR.CAVITY>
0

>  <SCORE.RESTR.norm>
0

>  <SCORE.SYSTEM>
0

>  <SCORE.SYSTEM.CONST>
0

>  <SCORE.SYSTEM.DIHEDRAL>
0

>  <SCORE.SYSTEM.SOLV>
0

>  <SCORE.SYSTEM.norm>
0

>  <SCORE.heavy>
42

>  <SCORE.norm>
-0.432243

>  <RMSD>
8.302

$$$$
2et4_lig
 OpenBabel11021811423D
libRbt.so/2013.1/901 2013/11/27
 42 45  0  0  0  0  0  0  0  0999 V2000
   11.1639    5.1274   11.7327 C   0  0  2  0  0  0  0  0  0  0  0  0
   12.0497    6.0721   11.1284 O   0  0  0  0  0  0  0  0  0  0  0  0
    9.9733    4.9303   10.7599 C   0  0  2  0  0  0  0  0  0  0  0  0
   10.4216    4.4907    9.4632 N   0  0  0  0  0  0  0  0  0  0  0  0
    9.1716    6.2597   10.6539 C   0  0  1  0  0  0  0  0  0  0  0  0
    8.0926    6.0751    9.7916 O   0  0  0  0  0  0  0  0  0  0  0  0
    8.7166    6.6728   12.0934 C   0  0  2  0  0  0  0  0  0  0  0  0
    7.9892    7.8820   12.0452 O   0  0  0  0  0  0  0  0  0  0  0  0
    9.9462    6.8483   13.0353 C   0  0  2  0  0  0  0  0  0  0  0  0
   10.6792    5.6198   13.0533 O   0  0  0  0  0  0  0  0  0  0  0  0
    9.5266    7.2212   14.4949 C   0  0  0  0  0  0  0  0  0  0  0  0
    8.7484    6.2009   15.1068 N   0  0  0  0  0  0  0  0  0  0  0  0
   15.8865    5.4000    9.2626 C   0  0  2  0  0  0  0  0  0  0  0  0
   16.8868    5.0280    8.2542 N   0  0  0  0  0  0  0  0  0  0  0  0
   14.9682    4.1104    9.6171 C   0  0  0  0  0  0  0  0  0  0  0  0
   13.8824    4.5210   10.6940 C   0  0  2  0  0  0  0  0  0  0  0  0
   13.0071    3.3833   11.0276 N   0  0  0  0  0  0  0  0  0  0  0  0
   13.0174    5.7017   10.1368 C   0  0  2  0  0  0  0  0  0  0  0  0
   13.9187    6.9275    9.7721 C   0  0  2  0  0  0  0  0  0  0  0  0
   13.0317    7.9505    9.2567 O   0  0  0  0  0  0  0  0  0  0  0  0
   14.9788    6.5079    8.7037 C   0  0  1  0  0  0  0  0  0  0  0  0
   15.7710    7.6090    8.4107 O   0  0  0  0  0  0  0  0  0  0  0  0
   12.7301    8.1430    7.9497 C   0  0  1  0  0  0  0  0  0  0  0  0
   11.9779    6.9184    7.3666 C   0  0  2  0  0  0  0  0  0  0  0  0
   12.8352    5.8988    6.9417 O   0  0  0  0  0  0  0  0  0  0  0  0
   11.1172    7.6252    6.3359 C   0  0  1  0  0  0  0  0  0  0  0  0
   10.6934    8.9638    6.9567 C   0  0  2  0  0  0  0  0  0  0  0  0
   11.8787    9.2899    7.6823 O   0  0  0  0  0  0  0  0  0  0  0  0
    9.4358    8.9075    7.8894 C   0  0  0  0  0  0  0  0  0  0  0  0
    8.3012    8.5272    7.0666 O   0  0  0  0  0  0  0  0  0  0  0  0
   12.9723    8.7738    5.1693 C   0  0  2  0  0  0  0  0  0  0  0  0
   11.9470    7.8197    5.1184 O   0  0  0  0  0  0  0  0  0  0  0  0
   12.7904    9.8801    4.0411 C   0  0  1  0  0  0  0  0  0  0  0  0
   16.9394    7.3178    3.6665 N   0  0  0  0  0  0  0  0  0  0  0  0
   14.0321   10.9075    4.1795 C   0  0  1  0  0  0  0  0  0  0  0  0
   14.0044   11.4946    5.5767 O   0  0  0  0  0  0  0  0  0  0  0  0
   15.4277   10.1236    3.9259 C   0  0  2  0  0  0  0  0  0  0  0  0
   15.4338    9.5809    2.5836 O   0  0  0  0  0  0  0  0  0  0  0  0
   15.5604    8.9756    5.0766 C   0  0  1  0  0  0  0  0  0  0  0  0
   14.3565    8.0756    5.0257 O   0  0  0  0  0  0  0  0  0  0  0  0
   16.8700    8.1254    4.9229 C   0  0  0  0  0  0  0  0  0  0  0  0
   12.7115    9.2295    2.6916 N   0  0  0  0  0  0  0  0  0  0  0  0
  1  2  1  6  0  0  0
  1  3  1  0  0  0  0
  1 10  1  0  0  0  0
  3  4  1  6  0  0  0
  3  5  1  0  0  0  0
  5  6  1  6  0  0  0
  5  7  1  0  0  0  0
  7  8  1  6  0  0  0
  7  9  1  0  0  0  0
  9 10  1  0  0  0  0
  9 11  1  1  0  0  0
 11 12  1  0  0  0  0
 13 14  1  6  0  0  0
 13 15  1  0  0  0  0
 13 21  1  0  0  0  0
 16 15  1  0  0  0  0
 16 17  1  6  0  0  0
 18  2  1  1  0  0  0
 18 16  1  0  0  0  0
 19 18  1  0  0  0  0
 19 20  1  6  0  0  0
 21 19  1  0  0  0  0
 21 22  1  1  0  0  0
 23 20  1  1  0  0  0
 23 24  1  0  0  0  0
 23 28  1  0  0  0  0
 24 25  1  6  0  0  0
 24 26  1  0  0  0  0
 26 27  1  0  0  0  0
 26 32  1  6  0  0  0
 27 28  1  0  0  0  0
 27 29  1  1  0  0  0
 29 30  1  0  0  0  0
 31 32  1  6  0  0  0
 31 40  1  0  0  0  0
 33 31  1  0  0  0  0
 33 42  1  6  0  0  0
 35 33  1  0  0  0  0
 35 36  1  1  0  0  0
 37 35  1  0  0  0  0
 37 38  1  6  0  0  0
 37 39  1  0  0  0  0
 39 40  1  0  0  0  0
 39 41  1  6  0  0  0
 41 34  1  0  0  0  0
M  END
>  <CHROM.1>
-82.31379892,62.50675880,-52.97509624,-93.19548338,63.90193213,-71.80371787
-64.49996725,-122.14427605,-64.21401639,12.45152928,7.28767458,8.28719252
-2.13022036,0.35647321,-0.98795861

>  <Name>
2et4_lig

>  <RI>
0

>  <Rbt.Current_Directory>
/home/itssahil/PROJECTS/Mol_Feturizer/New_Systems/rnas/2et4

>  <Rbt.Executable>
rbdock ($Id: //depot/dev/client3/rdock/2013.1/src/exe/rbdock.cxx#4 $)

>  <Rbt.Library>
libRbt.so (2013.1, Build901 2013/11/27)

>  <Rbt.Parameter_File>
/export/apps/rDock/src/rDock_2013.1_src/data/scripts/dock_solv.prm

>  <Rbt.Receptor>
prm/pocket_docking_2.prm

>  <SCORE>
5.22928

>  <SCORE.INTER>
-1.07005

>  <SCORE.INTER.CONST>
1

>  <SCORE.INTER.POLAR>
-0.343478

>  <SCORE.INTER.ROT>
9

>  <SCORE.INTER.SOLV>
13.8741

>  <SCORE.INTER.VDW>
-13.7931

>  <SCORE.INTER.norm>
-0.0254775

>  <SCORE.INTRA>
1.91331

>  <SCORE.INTRA.DIHEDRAL>
-6.85061

>  <SCORE.INTRA.DIHEDRAL.0>
21.6909

>  <SCORE.INTRA.POLAR>
0

>  <SCORE.INTRA.POLAR.0>
0

>  <SCORE.INTRA.REPUL>
0

>  <SCORE.INTRA.REPUL.0>
0

>  <SCORE.INTRA.SOLV>
4.90112

>  <SCORE.INTRA.SOLV.lig_0>
-116.606

>  <SCORE.INTRA.VDW>
2.88805

>  <SCORE.INTRA.VDW.0>
-6.01229

>  <SCORE.INTRA.norm>
0.045555

>  <SCORE.RESTR>
4.38602

>  <SCORE.RESTR.CAVITY>
4.38602

>  <SCORE.RESTR.norm>
0.104429

>  <SCORE.SYSTEM>
0

>  <SCORE.SYSTEM.CONST>
0

>  <SCORE.SYSTEM.DIHEDRAL>
0

>  <SCORE.SYSTEM.SOLV>
0

>  <SCORE.SYSTEM.norm>
0

>  <SCORE.heavy>
42

>  <SCORE.norm>
0.124507

>  <RMSD>
8.306

$$$$
2et4_lig
 OpenBabel11021811423D
libRbt.so/2013.1/901 2013/11/27
 42 45  0  0  0  0  0  0  0  0999 V2000
   11.0412    4.7610   10.1515 C   0  0  2  0  0  0  0  0  0  0  0  0
   11.6473    5.7818   10.9471 O   0  0  0  0  0  0  0  0  0  0  0  0
   11.8642    4.6529    8.8424 C   0  0  2  0  0  0  0  0  0  0  0  0
   13.2498    4.3675    9.1151 N   0  0  0  0  0  0  0  0  0  0  0  0
   11.7136    5.9721    8.0311 C   0  0  1  0  0  0  0  0  0  0  0  0
   12.4411    5.8660    6.8473 O   0  0  0  0  0  0  0  0  0  0  0  0
   10.1894    6.2152    7.7709 C   0  0  2  0  0  0  0  0  0  0  0  0
   10.0052    7.4098    7.0411 O   0  0  0  0  0  0  0  0  0  0  0  0
    9.4044    6.3058    9.1146 C   0  0  2  0  0  0  0  0  0  0  0  0
    9.6213    5.0956    9.8459 O   0  0  0  0  0  0  0  0  0  0  0  0
    7.8697    6.5074    8.8922 C   0  0  0  0  0  0  0  0  0  0  0  0
    7.5839    7.6976    8.1692 N   0  0  0  0  0  0  0  0  0  0  0  0
    9.1055    6.0069   14.4318 C   0  0  2  0  0  0  0  0  0  0  0  0
    8.6535    6.3095   15.7955 N   0  0  0  0  0  0  0  0  0  0  0  0
   10.4111    5.0457   14.4939 C   0  0  0  0  0  0  0  0  0  0  0  0
   10.9027    4.7345   13.0213 C   0  0  2  0  0  0  0  0  0  0  0  0
   12.1053    3.8829   13.0307 N   0  0  0  0  0  0  0  0  0  0  0  0
   11.2185    6.0791   12.2830 C   0  0  2  0  0  0  0  0  0  0  0  0
    9.9596    7.0076   12.2560 C   0  0  2  0  0  0  0  0  0  0  0  0
   10.3582    8.2202   11.5705 O   0  0  0  0  0  0  0  0  0  0  0  0
    9.4922    7.3113   13.7157 C   0  0  1  0  0  0  0  0  0  0  0  0
    8.3684    8.1234   13.6602 O   0  0  0  0  0  0  0  0  0  0  0  0
   11.0885    8.2741   10.4303 C   0  0  1  0  0  0  0  0  0  0  0  0
   10.8079    9.5860    9.6521 C   0  0  2  0  0  0  0  0  0  0  0  0
    9.6758    9.5082    8.8351 O   0  0  0  0  0  0  0  0  0  0  0  0
   12.1649    9.7824    9.0020 C   0  0  1  0  0  0  0  0  0  0  0  0
   13.2155    9.3329   10.0272 C   0  0  2  0  0  0  0  0  0  0  0  0
   12.5280    8.2340   10.6251 O   0  0  0  0  0  0  0  0  0  0  0  0
   13.6277   10.4096   11.0881 C   0  0  0  0  0  0  0  0  0  0  0  0
   12.4586   10.6850   11.9045 O   0  0  0  0  0  0  0  0  0  0  0  0
   13.3022    9.0755    6.9215 C   0  0  2  0  0  0  0  0  0  0  0  0
   12.1980    8.9450    7.7746 O   0  0  0  0  0  0  0  0  0  0  0  0
   12.8469    9.2470    5.4073 C   0  0  1  0  0  0  0  0  0  0  0  0
   16.7325    6.3557    7.9105 N   0  0  0  0  0  0  0  0  0  0  0  0
   14.1927    9.3653    4.5176 C   0  0  1  0  0  0  0  0  0  0  0  0
   14.9878   10.5532    5.0218 O   0  0  0  0  0  0  0  0  0  0  0  0
   15.0646    8.0060    4.6529 C   0  0  2  0  0  0  0  0  0  0  0  0
   14.2883    6.8890    4.1569 O   0  0  0  0  0  0  0  0  0  0  0  0
   15.4802    7.8450    6.2217 C   0  0  1  0  0  0  0  0  0  0  0  0
   14.2380    7.8400    7.0695 O   0  0  0  0  0  0  0  0  0  0  0  0
   16.3137    6.5427    6.4874 C   0  0  0  0  0  0  0  0  0  0  0  0
   11.9709    8.0988    5.0009 N   0  0  0  0  0  0  0  0  0  0  0  0
  1  2  1  1  0  0  0
  1  3  1  0  0  0  0
  1 10  1  0  0  0  0
  3  4  1  1  0  0  0
  3  5  1  0  0  0  0
  5  6  1  6  0  0  0
  5  7  1  0  0  0  0
  7  8  1  1  0  0  0
  7  9  1  0  0  0  0
  9 10  1  0  0  0  0
  9 11  1  6  0  0  0
 11 12  1  0  0  0  0
 13 14  1  1  0  0  0
 13 15  1  0  0  0  0
 13 21  1  0  0  0  0
 16 15  1  0  0  0  0
 16 17  1  1  0  0  0
 18  2  1  6  0  0  0
 18 16  1  0  0  0  0
 19 18  1  0  0  0  0
 19 20  1  1  0  0  0
 21 19  1  0  0  0  0
 21 22  1  6  0  0  0
 23 20  1  1  0  0  0
 23 24  1  0  0  0  0
 23 28  1  0  0  0  0
 24 25  1  6  0  0  0
 24 26  1  0  0  0  0
 26 27  1  0  0  0  0
 26 32  1  6  0  0  0
 27 28  1  0  0  0  0
 27 29  1  1  0  0  0
 29 30  1  0  0  0  0
 31 32  1  1  0  0  0
 31 40  1  0  0  0  0
 33 31  1  0  0  0  0
 33 42  1  6  0  0  0
 35 33  1  0  0  0  0
 35 36  1  1  0  0  0
 37 35  1  0  0  0  0
 37 38  1  1  0  0  0
 37 39  1  0  0  0  0
 39 40  1  0  0  0  0
 39 41  1  6  0  0  0
 41 34  1  0  0  0  0
M  END
>  <CHROM.1>
-174.54075653,-59.75754412,40.08297355,44.23844595,154.70933877,173.05017921
65.28276200,-131.81293908,179.38408191,11.77148933,7.35743274,9.30847443
-2.59280407,0.93084006,-0.40835354

>  <Name>
2et4_lig

>  <RI>
3.65815e+07

>  <Rbt.Current_Directory>
/home/itssahil/PROJECTS/Mol_Feturizer/New_Systems/rnas/2et4

>  <Rbt.Executable>
rbdock ($Id: //depot/dev/client3/rdock/2013.1/src/exe/rbdock.cxx#4 $)

>  <Rbt.Library>
libRbt.so (2013.1, Build901 2013/11/27)

>  <Rbt.Parameter_File>
/export/apps/rDock/src/rDock_2013.1_src/data/scripts/dock_solv.prm

>  <Rbt.Receptor>
prm/pocket_docking_4.prm

>  <SCORE>
-6.68726

>  <SCORE.INTER>
-4.77211

>  <SCORE.INTER.CONST>
1

>  <SCORE.INTER.POLAR>
-0.897173

>  <SCORE.INTER.ROT>
9

>  <SCORE.INTER.SOLV>
12.5702

>  <SCORE.INTER.VDW>
-13.9809

>  <SCORE.INTER.norm>
-0.113622

>  <SCORE.INTRA>
-1.91515

>  <SCORE.INTRA.DIHEDRAL>
-8.89491

>  <SCORE.INTRA.DIHEDRAL.0>
21.6909

>  <SCORE.INTRA.POLAR>
0

>  <SCORE.INTRA.POLAR.0>
0

>  <SCORE.INTRA.REPUL>
0.128712

>  <SCORE.INTRA.REPUL.0>
0

>  <SCORE.INTRA.SOLV>
5.51205

>  <SCORE.INTRA.SOLV.lig_0>
-116.606

>  <SCORE.INTRA.VDW>
-0.867277

>  <SCORE.INTRA.VDW.0>
-6.01229

>  <SCORE.INTRA.norm>
-0.0455987

>  <SCORE.RESTR>
0

>  <SCORE.RESTR.CAVITY>
0

>  <SCORE.RESTR.norm>
0

>  <SCORE.SYSTEM>
0

>  <SCORE.SYSTEM.CONST>
0

>  <SCORE.SYSTEM.DIHEDRAL>
0

>  <SCORE.SYSTEM.SOLV>
0

>  <SCORE.SYSTEM.norm>
0

>  <SCORE.heavy>
42

>  <SCORE.norm>
-0.15922

>  <RMSD>
8.321

$$$$
2et4_lig
 OpenBabel11021811423D
libRbt.so/2013.1/901 2013/11/27
 42 45  0  0  0  0  0  0  0  0999 V2000
   12.2169    5.1130   11.0440 C   0  0  2  0  0  0  0  0  0  0  0  0
   11.2233    5.4260   10.0657 O   0  0  0  0  0  0  0  0  0  0  0  0
   11.9925    3.6390   11.4679 C   0  0  2  0  0  0  0  0  0  0  0  0
   12.0578    2.7510   10.3352 N   0  0  0  0  0  0  0  0  0  0  0  0
   10.6230    3.5172   12.1964 C   0  0  1  0  0  0  0  0  0  0  0  0
   10.4313    2.1944   12.5906 O   0  0  0  0  0  0  0  0  0  0  0  0
   10.6257    4.5039   13.4115 C   0  0  2  0  0  0  0  0  0  0  0  0
    9.3949    4.4314   14.0995 O   0  0  0  0  0  0  0  0  0  0  0  0
   10.8650    5.9691   12.9362 C   0  0  2  0  0  0  0  0  0  0  0  0
   12.1054    6.0155   12.2249 O   0  0  0  0  0  0  0  0  0  0  0  0
   10.9153    6.9787   14.1294 C   0  0  0  0  0  0  0  0  0  0  0  0
    9.6776    7.0492   14.8253 N   0  0  0  0  0  0  0  0  0  0  0  0
   13.0339    8.6766    7.8726 C   0  0  2  0  0  0  0  0  0  0  0  0
   13.2509    9.6911    6.8337 N   0  0  0  0  0  0  0  0  0  0  0  0
   13.0332    7.2011    7.1980 C   0  0  0  0  0  0  0  0  0  0  0  0
   12.7843    6.1124    8.3206 C   0  0  2  0  0  0  0  0  0  0  0  0
   12.7502    4.7552    7.7472 N   0  0  0  0  0  0  0  0  0  0  0  0
   11.4270    6.4103    9.0427 C   0  0  2  0  0  0  0  0  0  0  0  0
   11.4308    7.8466    9.6632 C   0  0  2  0  0  0  0  0  0  0  0  0
   10.1367    8.0271   10.2890 O   0  0  0  0  0  0  0  0  0  0  0  0
   11.6696    8.9087    8.5423 C   0  0  1  0  0  0  0  0  0  0  0  0
   11.6819   10.1690    9.1229 O   0  0  0  0  0  0  0  0  0  0  0  0
    9.9285    8.5110   11.5375 C   0  0  1  0  0  0  0  0  0  0  0  0
   10.4229    9.9764   11.6552 C   0  0  2  0  0  0  0  0  0  0  0  0
   11.7912   10.0739   11.9261 O   0  0  0  0  0  0  0  0  0  0  0  0
    9.4361   10.4875   12.6885 C   0  0  1  0  0  0  0  0  0  0  0  0
    8.0887    9.8187   12.3819 C   0  0  2  0  0  0  0  0  0  0  0  0
    8.5383    8.5311   11.9603 O   0  0  0  0  0  0  0  0  0  0  0  0
    7.2204   10.5215   11.2834 C   0  0  0  0  0  0  0  0  0  0  0  0
    5.9626    9.8007   11.1966 O   0  0  0  0  0  0  0  0  0  0  0  0
    9.1909   10.4570   15.1502 C   0  0  2  0  0  0  0  0  0  0  0  0
    9.9514   10.1019   14.0280 O   0  0  0  0  0  0  0  0  0  0  0  0
    9.2055   12.0300   15.3854 C   0  0  1  0  0  0  0  0  0  0  0  0
    9.6095    7.6846   18.6761 N   0  0  0  0  0  0  0  0  0  0  0  0
    8.3214   12.3201   16.7087 C   0  0  1  0  0  0  0  0  0  0  0  0
    6.9245   11.7829   16.4691 O   0  0  0  0  0  0  0  0  0  0  0  0
    8.9926   11.5913   17.9911 C   0  0  2  0  0  0  0  0  0  0  0  0
   10.3204   12.1274   18.2047 O   0  0  0  0  0  0  0  0  0  0  0  0
    8.9940    9.9871   17.6974 C   0  0  1  0  0  0  0  0  0  0  0  0
    9.7243    9.7155   16.4110 O   0  0  0  0  0  0  0  0  0  0  0  0
    9.6460    9.1673   18.8654 C   0  0  0  0  0  0  0  0  0  0  0  0
   10.6190   12.5189   15.5022 N   0  0  0  0  0  0  0  0  0  0  0  0
  1  2  1  6  0  0  0
  1  3  1  0  0  0  0
  1 10  1  0  0  0  0
  3  4  1  6  0  0  0
  3  5  1  0  0  0  0
  5  6  1  1  0  0  0
  5  7  1  0  0  0  0
  7  8  1  6  0  0  0
  7  9  1  0  0  0  0
  9 10  1  0  0  0  0
  9 11  1  1  0  0  0
 11 12  1  0  0  0  0
 13 14  1  6  0  0  0
 13 15  1  0  0  0  0
 13 21  1  0  0  0  0
 16 15  1  0  0  0  0
 16 17  1  6  0  0  0
 18  2  1  1  0  0  0
 18 16  1  0  0  0  0
 19 18  1  0  0  0  0
 19 20  1  6  0  0  0
 21 19  1  0  0  0  0
 21 22  1  1  0  0  0
 23 20  1  6  0  0  0
 23 24  1  0  0  0  0
 23 28  1  0  0  0  0
 24 25  1  1  0  0  0
 24 26  1  0  0  0  0
 26 27  1  0  0  0  0
 26 32  1  1  0  0  0
 27 28  1  0  0  0  0
 27 29  1  6  0  0  0
 29 30  1  0  0  0  0
 31 32  1  6  0  0  0
 31 40  1  0  0  0  0
 33 31  1  0  0  0  0
 33 42  1  1  0  0  0
 35 33  1  0  0  0  0
 35 36  1  6  0  0  0
 37 35  1  0  0  0  0
 37 38  1  6  0  0  0
 37 39  1  0  0  0  0
 39 40  1  0  0  0  0
 39 41  1  1  0  0  0
 41 34  1  0  0  0  0
M  END
>  <CHROM.1>
-151.83482144,-63.72185697,50.95526354,132.56220581,63.28040940,-179.27204810
-176.42322026,-69.33879818,177.05195800,10.36001248,8.16337920,12.63344662
-0.00462237,-1.24311652,2.54698093

>  <Name>
2et4_lig

>  <RI>
0

>  <Rbt.Current_Directory>
/home/itssahil/PROJECTS/Mol_Feturizer/New_Systems/rnas/2et4

>  <Rbt.Executable>
rbdock ($Id: //depot/dev/client3/rdock/2013.1/src/exe/rbdock.cxx#4 $)

>  <Rbt.Library>
libRbt.so (2013.1, Build901 2013/11/27)

>  <Rbt.Parameter_File>
/export/apps/rDock/src/rDock_2013.1_src/data/scripts/dock_solv.prm

>  <Rbt.Receptor>
prm/pocket_docking_8.prm

>  <SCORE>
-5.58031

>  <SCORE.INTER>
-2.27498

>  <SCORE.INTER.CONST>
1

>  <SCORE.INTER.POLAR>
-0.573169

>  <SCORE.INTER.ROT>
9

>  <SCORE.INTER.SOLV>
12.4512

>  <SCORE.INTER.VDW>
-13.3565

>  <SCORE.INTER.norm>
-0.0541662

>  <SCORE.INTRA>
-3.30567

>  <SCORE.INTRA.DIHEDRAL>
-10.8215

>  <SCORE.INTRA.DIHEDRAL.0>
21.6909

>  <SCORE.INTRA.POLAR>
0

>  <SCORE.INTRA.POLAR.0>
0

>  <SCORE.INTRA.REPUL>
0

>  <SCORE.INTRA.REPUL.0>
0

>  <SCORE.INTRA.SOLV>
4.1978

>  <SCORE.INTRA.SOLV.lig_0>
-116.606

>  <SCORE.INTRA.VDW>
0.00615973

>  <SCORE.INTRA.VDW.0>
-6.01229

>  <SCORE.INTRA.norm>
-0.0787065

>  <SCORE.RESTR>
0.000343625

>  <SCORE.RESTR.CAVITY>
0.000343625

>  <SCORE.RESTR.norm>
8.18154e-06

>  <SCORE.SYSTEM>
0

>  <SCORE.SYSTEM.CONST>
0

>  <SCORE.SYSTEM.DIHEDRAL>
0

>  <SCORE.SYSTEM.SOLV>
0

>  <SCORE.SYSTEM.norm>
0

>  <SCORE.heavy>
42

>  <SCORE.norm>
-0.132865

>  <RMSD>
8.326

$$$$
2et4_lig
 OpenBabel11021811423D
libRbt.so/2013.1/901 2013/11/27
 42 45  0  0  0  0  0  0  0  0999 V2000
    9.0267    7.3764   12.4738 C   0  0  2  0  0  0  0  0  0  0  0  0
   10.1300    6.4682   12.4729 O   0  0  0  0  0  0  0  0  0  0  0  0
    7.7792    6.5804   12.0123 C   0  0  2  0  0  0  0  0  0  0  0  0
    7.5375    5.4431   12.8631 N   0  0  0  0  0  0  0  0  0  0  0  0
    7.9693    6.1414   10.5317 C   0  0  1  0  0  0  0  0  0  0  0  0
    6.8397    5.4402   10.1144 O   0  0  0  0  0  0  0  0  0  0  0  0
    8.2237    7.4232    9.6701 C   0  0  2  0  0  0  0  0  0  0  0  0
    8.4095    7.0698    8.3158 O   0  0  0  0  0  0  0  0  0  0  0  0
    9.4798    8.1936   10.1787 C   0  0  2  0  0  0  0  0  0  0  0  0
    9.2793    8.5234   11.5562 O   0  0  0  0  0  0  0  0  0  0  0  0
    9.7408    9.5040    9.3662 C   0  0  0  0  0  0  0  0  0  0  0  0
   10.8659   10.2231    9.8543 N   0  0  0  0  0  0  0  0  0  0  0  0
   13.6440    8.8419   13.2928 C   0  0  2  0  0  0  0  0  0  0  0  0
   14.9720    9.2177   13.7938 N   0  0  0  0  0  0  0  0  0  0  0  0
   12.6938    8.4202   14.5385 C   0  0  0  0  0  0  0  0  0  0  0  0
   11.2679    8.0022   13.9912 C   0  0  2  0  0  0  0  0  0  0  0  0
   10.3777    7.5859   15.0894 N   0  0  0  0  0  0  0  0  0  0  0  0
   11.4269    6.8250   12.9707 C   0  0  2  0  0  0  0  0  0  0  0  0
   12.3683    7.2355   11.7905 C   0  0  2  0  0  0  0  0  0  0  0  0
   12.4604    6.0822   10.9183 O   0  0  0  0  0  0  0  0  0  0  0  0
   13.7723    7.6373   12.3461 C   0  0  1  0  0  0  0  0  0  0  0  0
   14.5797    8.0092   11.2805 O   0  0  0  0  0  0  0  0  0  0  0  0
   13.1988    6.0119    9.7842 C   0  0  1  0  0  0  0  0  0  0  0  0
   13.1165    4.5971    9.1542 C   0  0  2  0  0  0  0  0  0  0  0  0
   14.0254    3.6936    9.7132 O   0  0  0  0  0  0  0  0  0  0  0  0
   13.2643    4.9697    7.6906 C   0  0  1  0  0  0  0  0  0  0  0  0
   12.5085    6.2911    7.4922 C   0  0  2  0  0  0  0  0  0  0  0  0
   12.7947    6.9325    8.7349 O   0  0  0  0  0  0  0  0  0  0  0  0
   10.9669    6.1569    7.2469 C   0  0  0  0  0  0  0  0  0  0  0  0
   10.5103    7.4039    6.6589 O   0  0  0  0  0  0  0  0  0  0  0  0
   15.1010    5.4816    6.1140 C   0  0  2  0  0  0  0  0  0  0  0  0
   14.7166    5.1174    7.4115 O   0  0  0  0  0  0  0  0  0  0  0  0
   16.6729    5.3419    5.9151 C   0  0  1  0  0  0  0  0  0  0  0  0
   15.0032    9.8978    5.2998 N   0  0  0  0  0  0  0  0  0  0  0  0
   17.0027    5.8060    4.4010 C   0  0  1  0  0  0  0  0  0  0  0  0
   16.2178    4.9193    3.4549 O   0  0  0  0  0  0  0  0  0  0  0  0
   16.5835    7.3580    4.1961 C   0  0  2  0  0  0  0  0  0  0  0  0
   17.3524    8.1844    5.1028 O   0  0  0  0  0  0  0  0  0  0  0  0
   14.9754    7.4676    4.4444 C   0  0  1  0  0  0  0  0  0  0  0  0
   14.6441    6.9392    5.8129 O   0  0  0  0  0  0  0  0  0  0  0  0
   14.4479    8.9378    4.2971 C   0  0  0  0  0  0  0  0  0  0  0  0
   17.3958    6.1521    6.9505 N   0  0  0  0  0  0  0  0  0  0  0  0
  1  2  1  6  0  0  0
  1  3  1  0  0  0  0
  1 10  1  0  0  0  0
  3  4  1  1  0  0  0
  3  5  1  0  0  0  0
  5  6  1  6  0  0  0
  5  7  1  0  0  0  0
  7  8  1  6  0  0  0
  7  9  1  0  0  0  0
  9 10  1  0  0  0  0
  9 11  1  6  0  0  0
 11 12  1  0  0  0  0
 13 14  1  1  0  0  0
 13 15  1  0  0  0  0
 13 21  1  0  0  0  0
 16 15  1  0  0  0  0
 16 17  1  1  0  0  0
 18  2  1  6  0  0  0
 18 16  1  0  0  0  0
 19 18  1  0  0  0  0
 19 20  1  6  0  0  0
 21 19  1  0  0  0  0
 21 22  1  6  0  0  0
 23 20  1  1  0  0  0
 23 24  1  0  0  0  0
 23 28  1  0  0  0  0
 24 25  1  1  0  0  0
 24 26  1  0  0  0  0
 26 27  1  0  0  0  0
 26 32  1  1  0  0  0
 27 28  1  0  0  0  0
 27 29  1  1  0  0  0
 29 30  1  0  0  0  0
 31 32  1  1  0  0  0
 31 40  1  0  0  0  0
 33 31  1  0  0  0  0
 33 42  1  1  0  0  0
 35 33  1  0  0  0  0
 35 36  1  6  0  0  0
 37 35  1  0  0  0  0
 37 38  1  1  0  0  0
 37 39  1  0  0  0  0
 39 40  1  0  0  0  0
 39 41  1  1  0  0  0
 41 34  1  0  0  0  0
M  END
>  <CHROM.1>
-173.78732772,178.44472922,23.67460928,-178.92032249,176.82229292,-179.09419903
-161.64797822,-169.78472157,-63.29722017,12.45934706,6.98609103,9.23508277
2.28198219,0.08892769,1.40022679

>  <Name>
2et4_lig

>  <RI>
3.65815e+07

>  <Rbt.Current_Directory>
/home/itssahil/PROJECTS/Mol_Feturizer/New_Systems/rnas/2et4

>  <Rbt.Executable>
rbdock ($Id: //depot/dev/client3/rdock/2013.1/src/exe/rbdock.cxx#4 $)

>  <Rbt.Library>
libRbt.so (2013.1, Build901 2013/11/27)

>  <Rbt.Parameter_File>
/export/apps/rDock/src/rDock_2013.1_src/data/scripts/dock_solv.prm

>  <Rbt.Receptor>
prm/pocket_docking_4.prm

>  <SCORE>
-11.7526

>  <SCORE.INTER>
-5.5425

>  <SCORE.INTER.CONST>
1

>  <SCORE.INTER.POLAR>
-1.74114

>  <SCORE.INTER.ROT>
9

>  <SCORE.INTER.SOLV>
14.1063

>  <SCORE.INTER.VDW>
-12.1933

>  <SCORE.INTER.norm>
-0.131964

>  <SCORE.INTRA>
-6.21011

>  <SCORE.INTRA.DIHEDRAL>
-14.9047

>  <SCORE.INTRA.DIHEDRAL.0>
21.6909

>  <SCORE.INTRA.POLAR>
0

>  <SCORE.INTRA.POLAR.0>
0

>  <SCORE.INTRA.REPUL>
0

>  <SCORE.INTRA.REPUL.0>
0

>  <SCORE.INTRA.SOLV>
-0.497081

>  <SCORE.INTRA.SOLV.lig_0>
-116.606

>  <SCORE.INTRA.VDW>
1.49077

>  <SCORE.INTRA.VDW.0>
-6.01229

>  <SCORE.INTRA.norm>
-0.14786

>  <SCORE.RESTR>
0

>  <SCORE.RESTR.CAVITY>
0

>  <SCORE.RESTR.norm>
0

>  <SCORE.SYSTEM>
0

>  <SCORE.SYSTEM.CONST>
0

>  <SCORE.SYSTEM.DIHEDRAL>
0

>  <SCORE.SYSTEM.SOLV>
0

>  <SCORE.SYSTEM.norm>
0

>  <SCORE.heavy>
42

>  <SCORE.norm>
-0.279824

>  <RMSD>
8.329

$$$$
2et4_lig
 OpenBabel11021811423D
libRbt.so/2013.1/901 2013/11/27
 42 45  0  0  0  0  0  0  0  0999 V2000
   10.2948    7.1451   11.2440 C   0  0  2  0  0  0  0  0  0  0  0  0
   11.1264    6.0038   11.4634 O   0  0  0  0  0  0  0  0  0  0  0  0
    9.0910    7.0266   12.2132 C   0  0  2  0  0  0  0  0  0  0  0  0
    9.5267    6.9369   13.5835 N   0  0  0  0  0  0  0  0  0  0  0  0
    8.2326    5.7907   11.8168 C   0  0  1  0  0  0  0  0  0  0  0  0
    7.1424    5.6959   12.6794 O   0  0  0  0  0  0  0  0  0  0  0  0
    7.7947    5.9578   10.3234 C   0  0  2  0  0  0  0  0  0  0  0  0
    7.0170    4.8513    9.9180 O   0  0  0  0  0  0  0  0  0  0  0  0
    9.0377    6.0833    9.3911 C   0  0  2  0  0  0  0  0  0  0  0  0
    9.8212    7.1963    9.8317 O   0  0  0  0  0  0  0  0  0  0  0  0
    8.6372    6.2935    7.8941 C   0  0  0  0  0  0  0  0  0  0  0  0
    7.9109    7.4996    7.6971 N   0  0  0  0  0  0  0  0  0  0  0  0
   15.1786    4.8986   10.4572 C   0  0  2  0  0  0  0  0  0  0  0  0
   16.3759    4.6176    9.6552 N   0  0  0  0  0  0  0  0  0  0  0  0
   13.9767    3.9080   10.0029 C   0  0  0  0  0  0  0  0  0  0  0  0
   12.6842    4.2252   10.8609 C   0  0  2  0  0  0  0  0  0  0  0  0
   11.5568    3.3637   10.4629 N   0  0  0  0  0  0  0  0  0  0  0  0
   12.2883    5.7282   10.6690 C   0  0  2  0  0  0  0  0  0  0  0  0
   13.4663    6.6708   11.0834 C   0  0  2  0  0  0  0  0  0  0  0  0
   13.0073    8.0261   10.8560 O   0  0  0  0  0  0  0  0  0  0  0  0
   14.7306    6.3505   10.2229 C   0  0  1  0  0  0  0  0  0  0  0  0
   15.7608    7.1904   10.6212 O   0  0  0  0  0  0  0  0  0  0  0  0
   13.1606    8.7247    9.7051 C   0  0  1  0  0  0  0  0  0  0  0  0
   12.5716    7.9464    8.4997 C   0  0  2  0  0  0  0  0  0  0  0  0
   13.4612    7.0107    7.9629 O   0  0  0  0  0  0  0  0  0  0  0  0
   12.1367    9.1177    7.6385 C   0  0  1  0  0  0  0  0  0  0  0  0
   11.6103   10.1978    8.5940 C   0  0  2  0  0  0  0  0  0  0  0  0
   12.5100   10.0240    9.6885 O   0  0  0  0  0  0  0  0  0  0  0  0
   10.1159   10.0376    9.0368 C   0  0  0  0  0  0  0  0  0  0  0  0
    9.3217    9.8687    7.8327 O   0  0  0  0  0  0  0  0  0  0  0  0
   13.1498    9.9587    5.5438 C   0  0  2  0  0  0  0  0  0  0  0  0
   13.3283    9.5832    6.8822 O   0  0  0  0  0  0  0  0  0  0  0  0
   13.3171    8.7152    4.5664 C   0  0  1  0  0  0  0  0  0  0  0  0
   15.1406   13.3312    2.1721 N   0  0  0  0  0  0  0  0  0  0  0  0
   13.1140    9.2659    3.0590 C   0  0  1  0  0  0  0  0  0  0  0  0
   11.7372    9.8933    2.9682 O   0  0  0  0  0  0  0  0  0  0  0  0
   14.2563   10.3624    2.7137 C   0  0  2  0  0  0  0  0  0  0  0  0
   15.5596    9.7375    2.7979 O   0  0  0  0  0  0  0  0  0  0  0  0
   14.0767   11.6020    3.7583 C   0  0  1  0  0  0  0  0  0  0  0  0
   14.1586   11.0834    5.1676 O   0  0  0  0  0  0  0  0  0  0  0  0
   15.1485   12.7265    3.5395 C   0  0  0  0  0  0  0  0  0  0  0  0
   14.6533    8.0680    4.7822 N   0  0  0  0  0  0  0  0  0  0  0  0
  1  2  1  6  0  0  0
  1  3  1  0  0  0  0
  1 10  1  0  0  0  0
  3  4  1  1  0  0  0
  3  5  1  0  0  0  0
  5  6  1  1  0  0  0
  5  7  1  0  0  0  0
  7  8  1  6  0  0  0
  7  9  1  0  0  0  0
  9 10  1  0  0  0  0
  9 11  1  6  0  0  0
 11 12  1  0  0  0  0
 13 14  1  6  0  0  0
 13 15  1  0  0  0  0
 13 21  1  0  0  0  0
 16 15  1  0  0  0  0
 16 17  1  6  0  0  0
 18  2  1  1  0  0  0
 18 16  1  0  0  0  0
 19 18  1  0  0  0  0
 19 20  1  6  0  0  0
 21 19  1  0  0  0  0
 21 22  1  1  0  0  0
 23 20  1  1  0  0  0
 23 24  1  0  0  0  0
 23 28  1  0  0  0  0
 24 25  1  6  0  0  0
 24 26  1  0  0  0  0
 26 27  1  0  0  0  0
 26 32  1  1  0  0  0
 27 28  1  0  0  0  0
 27 29  1  1  0  0  0
 29 30  1  0  0  0  0
 31 32  1  1  0  0  0
 31 40  1  0  0  0  0
 33 31  1  0  0  0  0
 33 42  1  6  0  0  0
 35 33  1  0  0  0  0
 35 36  1  1  0  0  0
 37 35  1  0  0  0  0
 37 38  1  1  0  0  0
 37 39  1  0  0  0  0
 39 40  1  0  0  0  0
 39 41  1  6  0  0  0
 41 34  1  0  0  0  0
M  END
>  <CHROM.1>
175.29440843,62.22327670,-162.18938221,-90.48311925,55.13274971,139.88272964
-51.21677660,-88.73795066,58.88257285,12.06444940,7.84627059,8.32430161,2.02102275
-0.14258711,2.22678653

>  <Name>
2et4_lig

>  <RI>
0

>  <Rbt.Current_Directory>
/home/itssahil/PROJECTS/Mol_Feturizer/New_Systems/rnas/2et4

>  <Rbt.Executable>
rbdock ($Id: //depot/dev/client3/rdock/2013.1/src/exe/rbdock.cxx#4 $)

>  <Rbt.Library>
libRbt.so (2013.1, Build901 2013/11/27)

>  <Rbt.Parameter_File>
/export/apps/rDock/src/rDock_2013.1_src/data/scripts/dock_solv.prm

>  <Rbt.Receptor>
prm/pocket_docking_3.prm

>  <SCORE>
-17.5233

>  <SCORE.INTER>
-15.265

>  <SCORE.INTER.CONST>
1

>  <SCORE.INTER.POLAR>
-2.06378

>  <SCORE.INTER.ROT>
9

>  <SCORE.INTER.SOLV>
15.1194

>  <SCORE.INTER.VDW>
-17.9372

>  <SCORE.INTER.norm>
-0.363453

>  <SCORE.INTRA>
-2.27503

>  <SCORE.INTRA.DIHEDRAL>
-7.1666

>  <SCORE.INTRA.DIHEDRAL.0>
21.6909

>  <SCORE.INTRA.POLAR>
0

>  <SCORE.INTRA.POLAR.0>
0

>  <SCORE.INTRA.REPUL>
0

>  <SCORE.INTRA.REPUL.0>
0

>  <SCORE.INTRA.SOLV>
1.24407

>  <SCORE.INTRA.SOLV.lig_0>
-116.606

>  <SCORE.INTRA.VDW>
0.686238

>  <SCORE.INTRA.VDW.0>
-6.01229

>  <SCORE.INTRA.norm>
-0.0541673

>  <SCORE.RESTR>
0.0167264

>  <SCORE.RESTR.CAVITY>
0.0167264

>  <SCORE.RESTR.norm>
0.000398248

>  <SCORE.SYSTEM>
0

>  <SCORE.SYSTEM.CONST>
0

>  <SCORE.SYSTEM.DIHEDRAL>
0

>  <SCORE.SYSTEM.SOLV>
0

>  <SCORE.SYSTEM.norm>
0

>  <SCORE.heavy>
42

>  <SCORE.norm>
-0.417222

>  <RMSD>
8.334

$$$$
2et4_lig
 OpenBabel11021811423D
libRbt.so/2013.1/901 2013/11/27
 42 45  0  0  0  0  0  0  0  0999 V2000
   15.0249    4.8003   11.2470 C   0  0  2  0  0  0  0  0  0  0  0  0
   14.3005    5.9024   10.6967 O   0  0  0  0  0  0  0  0  0  0  0  0
   16.4892    4.9240   10.7539 C   0  0  2  0  0  0  0  0  0  0  0  0
   17.0666    6.1879   11.1344 N   0  0  0  0  0  0  0  0  0  0  0  0
   16.5288    4.7326    9.2102 C   0  0  1  0  0  0  0  0  0  0  0  0
   17.8481    4.8282    8.7716 O   0  0  0  0  0  0  0  0  0  0  0  0
   15.8906    3.3439    8.8728 C   0  0  2  0  0  0  0  0  0  0  0  0
   15.8992    3.1310    7.4770 O   0  0  0  0  0  0  0  0  0  0  0  0
   14.4248    3.2644    9.3971 C   0  0  2  0  0  0  0  0  0  0  0  0
   14.4370    3.5030   10.8077 O   0  0  0  0  0  0  0  0  0  0  0  0
   13.7683    1.8736    9.1139 C   0  0  0  0  0  0  0  0  0  0  0  0
   13.5993    1.6333    7.7230 N   0  0  0  0  0  0  0  0  0  0  0  0
   13.0570    9.7799   12.1368 C   0  0  2  0  0  0  0  0  0  0  0  0
   13.1325   11.1417   12.6802 N   0  0  0  0  0  0  0  0  0  0  0  0
   13.6996    8.7356   13.1992 C   0  0  0  0  0  0  0  0  0  0  0  0
   13.6287    7.2708   12.6019 C   0  0  2  0  0  0  0  0  0  0  0  0
   14.2264    6.2902   13.5253 N   0  0  0  0  0  0  0  0  0  0  0  0
   14.3866    7.2302   11.2320 C   0  0  2  0  0  0  0  0  0  0  0  0
   13.7752    8.2621   10.2274 C   0  0  2  0  0  0  0  0  0  0  0  0
   14.5501    8.1566    9.0078 O   0  0  0  0  0  0  0  0  0  0  0  0
   13.8599    9.7021   10.8280 C   0  0  1  0  0  0  0  0  0  0  0  0
   13.2989   10.5922    9.9232 O   0  0  0  0  0  0  0  0  0  0  0  0
   14.1159    7.6109    7.8460 C   0  0  1  0  0  0  0  0  0  0  0  0
   13.0360    8.5042    7.1817 C   0  0  2  0  0  0  0  0  0  0  0  0
   11.7507    8.2761    7.6826 O   0  0  0  0  0  0  0  0  0  0  0  0
   13.3178    8.1894    5.7242 C   0  0  1  0  0  0  0  0  0  0  0  0
   14.8403    8.0461    5.5890 C   0  0  2  0  0  0  0  0  0  0  0  0
   15.1451    7.4241    6.8372 O   0  0  0  0  0  0  0  0  0  0  0  0
   15.6302    9.3854    5.3968 C   0  0  0  0  0  0  0  0  0  0  0  0
   15.1709    9.9867    4.1572 O   0  0  0  0  0  0  0  0  0  0  0  0
   12.8839    6.3233    4.1586 C   0  0  2  0  0  0  0  0  0  0  0  0
   12.6130    6.9227    5.3961 O   0  0  0  0  0  0  0  0  0  0  0  0
   11.7280    5.3149    3.7384 C   0  0  1  0  0  0  0  0  0  0  0  0
   16.6890    3.6437    1.9197 N   0  0  0  0  0  0  0  0  0  0  0  0
   12.1541    4.6704    2.3172 C   0  0  1  0  0  0  0  0  0  0  0  0
   12.3285    5.7996    1.3212 O   0  0  0  0  0  0  0  0  0  0  0  0
   13.5386    3.8438    2.4793 C   0  0  2  0  0  0  0  0  0  0  0  0
   13.3439    2.7667    3.4270 O   0  0  0  0  0  0  0  0  0  0  0  0
   14.6886    4.9018    2.9462 C   0  0  1  0  0  0  0  0  0  0  0  0
   14.2537    5.5852    4.2134 O   0  0  0  0  0  0  0  0  0  0  0  0
   16.0813    4.2124    3.1618 C   0  0  0  0  0  0  0  0  0  0  0  0
   11.5254    4.2885    4.8137 N   0  0  0  0  0  0  0  0  0  0  0  0
  1  2  1  6  0  0  0
  1  3  1  0  0  0  0
  1 10  1  0  0  0  0
  3  4  1  6  0  0  0
  3  5  1  0  0  0  0
  5  6  1  1  0  0  0
  5  7  1  0  0  0  0
  7  8  1  6  0  0  0
  7  9  1  0  0  0  0
  9 10  1  0  0  0  0
  9 11  1  1  0  0  0
 11 12  1  0  0  0  0
 13 14  1  1  0  0  0
 13 15  1  0  0  0  0
 13 21  1  0  0  0  0
 16 15  1  0  0  0  0
 16 17  1  1  0  0  0
 18  2  1  6  0  0  0
 18 16  1  0  0  0  0
 19 18  1  0  0  0  0
 19 20  1  6  0  0  0
 21 19  1  0  0  0  0
 21 22  1  6  0  0  0
 23 20  1  1  0  0  0
 23 24  1  0  0  0  0
 23 28  1  0  0  0  0
 24 25  1  1  0  0  0
 24 26  1  0  0  0  0
 26 27  1  0  0  0  0
 26 32  1  1  0  0  0
 27 28  1  0  0  0  0
 27 29  1  1  0  0  0
 29 30  1  0  0  0  0
 31 32  1  1  0  0  0
 31 40  1  0  0  0  0
 33 31  1  0  0  0  0
 33 42  1  1  0  0  0
 35 33  1  0  0  0  0
 35 36  1  6  0  0  0
 37 35  1  0  0  0  0
 37 38  1  1  0  0  0
 37 39  1  0  0  0  0
 39 40  1  0  0  0  0
 39 41  1  1  0  0  0
 41 34  1  0  0  0  0
M  END
>  <CHROM.1>
-77.72356917,-65.75628495,-72.10169355,108.33132281,69.89138616,-170.77582283
-61.85969717,-159.89707499,65.04104610,14.23646353,6.21644473,7.60221883
-1.39592105,1.27368369,-2.07006273

>  <Name>
2et4_lig

>  <RI>
0

>  <Rbt.Current_Directory>
/home/itssahil/PROJECTS/Mol_Feturizer/New_Systems/rnas/2et4

>  <Rbt.Executable>
rbdock ($Id: //depot/dev/client3/rdock/2013.1/src/exe/rbdock.cxx#4 $)

>  <Rbt.Library>
libRbt.so (2013.1, Build901 2013/11/27)

>  <Rbt.Parameter_File>
/export/apps/rDock/src/rDock_2013.1_src/data/scripts/dock_solv.prm

>  <Rbt.Receptor>
prm/pocket_docking_6.prm

>  <SCORE>
-9.40652

>  <SCORE.INTER>
-5.95725

>  <SCORE.INTER.CONST>
1

>  <SCORE.INTER.POLAR>
-1.12101

>  <SCORE.INTER.ROT>
9

>  <SCORE.INTER.SOLV>
13.8791

>  <SCORE.INTER.VDW>
-14.4612

>  <SCORE.INTER.norm>
-0.141839

>  <SCORE.INTRA>
-3.44927

>  <SCORE.INTRA.DIHEDRAL>
-9.91958

>  <SCORE.INTRA.DIHEDRAL.0>
21.6909

>  <SCORE.INTRA.POLAR>
0

>  <SCORE.INTRA.POLAR.0>
0

>  <SCORE.INTRA.REPUL>
0.00999727

>  <SCORE.INTRA.REPUL.0>
0

>  <SCORE.INTRA.SOLV>
-0.202193

>  <SCORE.INTRA.SOLV.lig_0>
-116.606

>  <SCORE.INTRA.VDW>
1.56163

>  <SCORE.INTRA.VDW.0>
-6.01229

>  <SCORE.INTRA.norm>
-0.0821255

>  <SCORE.RESTR>
0

>  <SCORE.RESTR.CAVITY>
0

>  <SCORE.RESTR.norm>
0

>  <SCORE.SYSTEM>
0

>  <SCORE.SYSTEM.CONST>
0

>  <SCORE.SYSTEM.DIHEDRAL>
0

>  <SCORE.SYSTEM.SOLV>
0

>  <SCORE.SYSTEM.norm>
0

>  <SCORE.heavy>
42

>  <SCORE.norm>
-0.223965

>  <RMSD>
8.335

$$$$
2et4_lig
 OpenBabel11021811423D
libRbt.so/2013.1/901 2013/11/27
 42 45  0  0  0  0  0  0  0  0999 V2000
    9.1003   10.2603   10.9424 C   0  0  2  0  0  0  0  0  0  0  0  0
    9.7137    9.4827   11.9726 O   0  0  0  0  0  0  0  0  0  0  0  0
    9.6333    9.7266    9.5882 C   0  0  2  0  0  0  0  0  0  0  0  0
    9.3591    8.3208    9.4332 N   0  0  0  0  0  0  0  0  0  0  0  0
   11.1594   10.0136    9.4882 C   0  0  1  0  0  0  0  0  0  0  0  0
   11.6326    9.5474    8.2633 O   0  0  0  0  0  0  0  0  0  0  0  0
   11.3801   11.5534    9.6624 C   0  0  2  0  0  0  0  0  0  0  0  0
   12.7564   11.8591    9.5854 O   0  0  0  0  0  0  0  0  0  0  0  0
   10.8192   12.0432   11.0318 C   0  0  2  0  0  0  0  0  0  0  0  0
    9.4305   11.7056   11.0969 O   0  0  0  0  0  0  0  0  0  0  0  0
   10.9854   13.5864   11.2227 C   0  0  0  0  0  0  0  0  0  0  0  0
   12.3468   13.9912   11.1614 N   0  0  0  0  0  0  0  0  0  0  0  0
    8.3730    6.0074   14.1588 C   0  0  2  0  0  0  0  0  0  0  0  0
    7.9926    4.6195   14.4496 N   0  0  0  0  0  0  0  0  0  0  0  0
    7.4115    6.6007   12.9944 C   0  0  0  0  0  0  0  0  0  0  0  0
    7.8356    8.0925   12.6749 C   0  0  2  0  0  0  0  0  0  0  0  0
    7.0028    8.6640   11.6018 N   0  0  0  0  0  0  0  0  0  0  0  0
    9.3407    8.1246   12.2435 C   0  0  2  0  0  0  0  0  0  0  0  0
   10.2530    7.5232   13.3633 C   0  0  2  0  0  0  0  0  0  0  0  0
   11.6115    7.5852   12.8636 O   0  0  0  0  0  0  0  0  0  0  0  0
    9.8270    6.0497   13.6610 C   0  0  1  0  0  0  0  0  0  0  0  0
   10.6425    5.5481   14.6655 O   0  0  0  0  0  0  0  0  0  0  0  0
   12.0666    6.9673   11.7467 C   0  0  1  0  0  0  0  0  0  0  0  0
   13.4561    7.5187   11.3334 C   0  0  2  0  0  0  0  0  0  0  0  0
   13.3777    8.6850   10.5661 O   0  0  0  0  0  0  0  0  0  0  0  0
   14.0403    6.2682   10.7029 C   0  0  1  0  0  0  0  0  0  0  0  0
   13.5510    5.0797   11.5423 C   0  0  2  0  0  0  0  0  0  0  0  0
   12.2366    5.5294   11.8710 O   0  0  0  0  0  0  0  0  0  0  0  0
   14.3963    4.7640   12.8231 C   0  0  0  0  0  0  0  0  0  0  0  0
   13.8327    3.5727   13.4331 O   0  0  0  0  0  0  0  0  0  0  0  0
   14.2176    6.9453    8.3298 C   0  0  2  0  0  0  0  0  0  0  0  0
   13.5422    6.1982    9.3044 O   0  0  0  0  0  0  0  0  0  0  0  0
   13.4008    6.9903    6.9657 C   0  0  1  0  0  0  0  0  0  0  0  0
   18.3564    5.6985    8.2188 N   0  0  0  0  0  0  0  0  0  0  0  0
   14.2781    7.8530    5.9156 C   0  0  1  0  0  0  0  0  0  0  0  0
   14.4972    9.2319    6.5057 O   0  0  0  0  0  0  0  0  0  0  0  0
   15.6998    7.1210    5.6523 C   0  0  2  0  0  0  0  0  0  0  0  0
   15.4645    5.8118    5.0807 O   0  0  0  0  0  0  0  0  0  0  0  0
   16.4905    7.0600    7.0774 C   0  0  1  0  0  0  0  0  0  0  0  0
   15.6368    6.3507    8.0923 O   0  0  0  0  0  0  0  0  0  0  0  0
   17.8824    6.3462    6.9574 C   0  0  0  0  0  0  0  0  0  0  0  0
   13.1168    5.5959    6.4906 N   0  0  0  0  0  0  0  0  0  0  0  0
  1  2  1  1  0  0  0
  1  3  1  0  0  0  0
  1 10  1  0  0  0  0
  3  4  1  1  0  0  0
  3  5  1  0  0  0  0
  5  6  1  6  0  0  0
  5  7  1  0  0  0  0
  7  8  1  1  0  0  0
  7  9  1  0  0  0  0
  9 10  1  0  0  0  0
  9 11  1  6  0  0  0
 11 12  1  0  0  0  0
 13 14  1  6  0  0  0
 13 15  1  0  0  0  0
 13 21  1  0  0  0  0
 16 15  1  0  0  0  0
 16 17  1  6  0  0  0
 18  2  1  1  0  0  0
 18 16  1  0  0  0  0
 19 18  1  0  0  0  0
 19 20  1  6  0  0  0
 21 19  1  0  0  0  0
 21 22  1  1  0  0  0
 23 20  1  1  0  0  0
 23 24  1  0  0  0  0
 23 28  1  0  0  0  0
 24 25  1  6  0  0  0
 24 26  1  0  0  0  0
 26 27  1  0  0  0  0
 26 32  1  6  0  0  0
 27 28  1  0  0  0  0
 27 29  1  1  0  0  0
 29 30  1  0  0  0  0
 31 32  1  1  0  0  0
 31 40  1  0  0  0  0
 33 31  1  0  0  0  0
 33 42  1  6  0  0  0
 35 33  1  0  0  0  0
 35 36  1  1  0  0  0
 37 35  1  0  0  0  0
 37 38  1  1  0  0  0
 37 39  1  0  0  0  0
 39 40  1  0  0  0  0
 39 41  1  6  0  0  0
 41 34  1  0  0  0  0
M  END
>  <CHROM.1>
-73.33000463,-59.40339485,-61.82976753,-60.64162275,166.39715480,82.81162146
-176.63996593,-168.78558538,-152.93590706,12.13078602,7.86209904,10.34765261
2.97948102,-0.70700663,2.62227222

>  <Name>
2et4_lig

>  <RI>
0

>  <Rbt.Current_Directory>
/home/itssahil/PROJECTS/Mol_Feturizer/New_Systems/rnas/2et4

>  <Rbt.Executable>
rbdock ($Id: //depot/dev/client3/rdock/2013.1/src/exe/rbdock.cxx#4 $)

>  <Rbt.Library>
libRbt.so (2013.1, Build901 2013/11/27)

>  <Rbt.Parameter_File>
/export/apps/rDock/src/rDock_2013.1_src/data/scripts/dock_solv.prm

>  <Rbt.Receptor>
prm/pocket_docking_6.prm

>  <SCORE>
-15.6615

>  <SCORE.INTER>
-12.0692

>  <SCORE.INTER.CONST>
1

>  <SCORE.INTER.POLAR>
-2.19744

>  <SCORE.INTER.ROT>
9

>  <SCORE.INTER.SOLV>
15.2996

>  <SCORE.INTER.VDW>
-15.4212

>  <SCORE.INTER.norm>
-0.287361

>  <SCORE.INTRA>
-4.51821

>  <SCORE.INTRA.DIHEDRAL>
-14.6752

>  <SCORE.INTRA.DIHEDRAL.0>
21.6909

>  <SCORE.INTRA.POLAR>
0

>  <SCORE.INTRA.POLAR.0>
0

>  <SCORE.INTRA.REPUL>
0

>  <SCORE.INTRA.REPUL.0>
0

>  <SCORE.INTRA.SOLV>
2.82985

>  <SCORE.INTRA.SOLV.lig_0>
-116.606

>  <SCORE.INTRA.VDW>
1.40448

>  <SCORE.INTRA.VDW.0>
-6.01229

>  <SCORE.INTRA.norm>
-0.107577

>  <SCORE.RESTR>
0.925892

>  <SCORE.RESTR.CAVITY>
0.925892

>  <SCORE.RESTR.norm>
0.022045

>  <SCORE.SYSTEM>
0

>  <SCORE.SYSTEM.CONST>
0

>  <SCORE.SYSTEM.DIHEDRAL>
0

>  <SCORE.SYSTEM.SOLV>
0

>  <SCORE.SYSTEM.norm>
0

>  <SCORE.heavy>
42

>  <SCORE.norm>
-0.372893

>  <RMSD>
8.337

$$$$
2et4_lig
 OpenBabel11021811423D
libRbt.so/2013.1/901 2013/11/27
 42 45  0  0  0  0  0  0  0  0999 V2000
   13.8790    6.5147   10.7923 C   0  0  2  0  0  0  0  0  0  0  0  0
   14.3084    7.8116   10.3728 O   0  0  0  0  0  0  0  0  0  0  0  0
   15.1529    5.6975   11.1269 C   0  0  2  0  0  0  0  0  0  0  0  0
   15.9464    6.3514   12.1361 N   0  0  0  0  0  0  0  0  0  0  0  0
   15.9760    5.4742    9.8254 C   0  0  1  0  0  0  0  0  0  0  0  0
   17.1122    4.7256   10.1261 O   0  0  0  0  0  0  0  0  0  0  0  0
   15.0549    4.7606    8.7803 C   0  0  2  0  0  0  0  0  0  0  0  0
   15.7614    4.5440    7.5772 O   0  0  0  0  0  0  0  0  0  0  0  0
   13.7846    5.6146    8.4853 C   0  0  2  0  0  0  0  0  0  0  0  0
   13.0959    5.8392    9.7190 O   0  0  0  0  0  0  0  0  0  0  0  0
   12.8195    4.9124    7.4750 C   0  0  0  0  0  0  0  0  0  0  0  0
   11.5844    5.6040    7.3434 N   0  0  0  0  0  0  0  0  0  0  0  0
   10.6308   10.0694   10.1934 C   0  0  2  0  0  0  0  0  0  0  0  0
    9.7136   11.2138   10.1242 N   0  0  0  0  0  0  0  0  0  0  0  0
   11.5353   10.1796   11.5358 C   0  0  0  0  0  0  0  0  0  0  0  0
   12.5322    8.9509   11.5977 C   0  0  2  0  0  0  0  0  0  0  0  0
   13.3935    9.0243   12.7912 N   0  0  0  0  0  0  0  0  0  0  0  0
   13.4223    8.9376   10.3093 C   0  0  2  0  0  0  0  0  0  0  0  0
   12.5363    8.8603    9.0221 C   0  0  2  0  0  0  0  0  0  0  0  0
   13.4472    8.8685    7.8954 O   0  0  0  0  0  0  0  0  0  0  0  0
   11.5646   10.0828    8.9721 C   0  0  1  0  0  0  0  0  0  0  0  0
   10.7835    9.9803    7.8297 O   0  0  0  0  0  0  0  0  0  0  0  0
   13.3440    8.0830    6.7961 C   0  0  1  0  0  0  0  0  0  0  0  0
   12.4380    8.7433    5.7243 C   0  0  2  0  0  0  0  0  0  0  0  0
   11.0765    8.5026    5.9325 O   0  0  0  0  0  0  0  0  0  0  0  0
   13.0937    8.1904    4.4724 C   0  0  1  0  0  0  0  0  0  0  0  0
   14.6044    8.1550    4.7433 C   0  0  2  0  0  0  0  0  0  0  0  0
   14.6027    7.8020    6.1264 O   0  0  0  0  0  0  0  0  0  0  0  0
   15.3684    9.4984    4.4854 C   0  0  0  0  0  0  0  0  0  0  0  0
   14.9157   10.4537    5.4812 O   0  0  0  0  0  0  0  0  0  0  0  0
   13.0506    6.0893    3.1667 C   0  0  2  0  0  0  0  0  0  0  0  0
   12.5423    6.8296    4.2426 O   0  0  0  0  0  0  0  0  0  0  0  0
   12.0604    4.9157    2.7523 C   0  0  1  0  0  0  0  0  0  0  0  0
   17.4373    5.2878    3.4539 N   0  0  0  0  0  0  0  0  0  0  0  0
   12.7538    4.1206    1.5260 C   0  0  1  0  0  0  0  0  0  0  0  0
   12.9887    5.1061    0.3985 O   0  0  0  0  0  0  0  0  0  0  0  0
   14.1589    3.4752    2.0113 C   0  0  2  0  0  0  0  0  0  0  0  0
   13.9074    2.5319    3.0805 O   0  0  0  0  0  0  0  0  0  0  0  0
   15.1320    4.7037    2.4627 C   0  0  1  0  0  0  0  0  0  0  0  0
   14.4507    5.5139    3.5311 O   0  0  0  0  0  0  0  0  0  0  0  0
   16.5256    4.2018    2.9797 C   0  0  0  0  0  0  0  0  0  0  0  0
   11.7770    4.0400    3.9370 N   0  0  0  0  0  0  0  0  0  0  0  0
  1  2  1  6  0  0  0
  1  3  1  0  0  0  0
  1 10  1  0  0  0  0
  3  4  1  1  0  0  0
  3  5  1  0  0  0  0
  5  6  1  1  0  0  0
  5  7  1  0  0  0  0
  7  8  1  6  0  0  0
  7  9  1  0  0  0  0
  9 10  1  0  0  0  0
  9 11  1  6  0  0  0
 11 12  1  0  0  0  0
 13 14  1  6  0  0  0
 13 15  1  0  0  0  0
 13 21  1  0  0  0  0
 16 15  1  0  0  0  0
 16 17  1  1  0  0  0
 18  2  1  1  0  0  0
 18 16  1  0  0  0  0
 19 18  1  0  0  0  0
 19 20  1  6  0  0  0
 21 19  1  0  0  0  0
 21 22  1  6  0  0  0
 23 20  1  1  0  0  0
 23 24  1  0  0  0  0
 23 28  1  0  0  0  0
 24 25  1  1  0  0  0
 24 26  1  0  0  0  0
 26 27  1  0  0  0  0
 26 32  1  1  0  0  0
 27 28  1  0  0  0  0
 27 29  1  1  0  0  0
 29 30  1  0  0  0  0
 31 32  1  1  0  0  0
 31 40  1  0  0  0  0
 33 31  1  0  0  0  0
 33 42  1  1  0  0  0
 35 33  1  0  0  0  0
 35 36  1  6  0  0  0
 37 35  1  0  0  0  0
 37 38  1  1  0  0  0
 37 39  1  0  0  0  0
 39 40  1  0  0  0  0
 39 41  1  1  0  0  0
 41 34  1  0  0  0  0
M  END
>  <CHROM.1>
-163.70572326,172.16536681,43.51519440,137.36628325,87.35032342,-177.07287628
67.47368505,-160.64206849,-177.84841268,13.59071513,6.90634453,6.90858145
-1.76975190,0.86817924,-1.86114110

>  <Name>
2et4_lig

>  <RI>
0

>  <Rbt.Current_Directory>
/home/itssahil/PROJECTS/Mol_Feturizer/New_Systems/rnas/2et4

>  <Rbt.Executable>
rbdock ($Id: //depot/dev/client3/rdock/2013.1/src/exe/rbdock.cxx#4 $)

>  <Rbt.Library>
libRbt.so (2013.1, Build901 2013/11/27)

>  <Rbt.Parameter_File>
/export/apps/rDock/src/rDock_2013.1_src/data/scripts/dock_solv.prm

>  <Rbt.Receptor>
prm/pocket_docking_6.prm

>  <SCORE>
-10.3206

>  <SCORE.INTER>
-8.6119

>  <SCORE.INTER.CONST>
1

>  <SCORE.INTER.POLAR>
-1.74114

>  <SCORE.INTER.ROT>
9

>  <SCORE.INTER.SOLV>
13.7605

>  <SCORE.INTER.VDW>
-14.1243

>  <SCORE.INTER.norm>
-0.205045

>  <SCORE.INTRA>
-1.71018

>  <SCORE.INTRA.DIHEDRAL>
-7.97419

>  <SCORE.INTRA.DIHEDRAL.0>
21.6909

>  <SCORE.INTRA.POLAR>
0

>  <SCORE.INTRA.POLAR.0>
0

>  <SCORE.INTRA.REPUL>
0.0107807

>  <SCORE.INTRA.REPUL.0>
0

>  <SCORE.INTRA.SOLV>
3.85131

>  <SCORE.INTRA.SOLV.lig_0>
-116.606

>  <SCORE.INTRA.VDW>
0.297361

>  <SCORE.INTRA.VDW.0>
-6.01229

>  <SCORE.INTRA.norm>
-0.0407185

>  <SCORE.RESTR>
0.00151344

>  <SCORE.RESTR.CAVITY>
0.00151344

>  <SCORE.RESTR.norm>
3.60344e-05

>  <SCORE.SYSTEM>
0

>  <SCORE.SYSTEM.CONST>
0

>  <SCORE.SYSTEM.DIHEDRAL>
0

>  <SCORE.SYSTEM.SOLV>
0

>  <SCORE.SYSTEM.norm>
0

>  <SCORE.heavy>
42

>  <SCORE.norm>
-0.245728

>  <RMSD>
8.344

$$$$
2et4_lig
 OpenBabel11021811423D
libRbt.so/2013.1/901 2013/11/27
 42 45  0  0  0  0  0  0  0  0999 V2000
    7.3305    4.9120    7.1060 C   0  0  2  0  0  0  0  0  0  0  0  0
    8.0605    4.1910    8.1008 O   0  0  0  0  0  0  0  0  0  0  0  0
    8.0596    4.6931    5.7558 C   0  0  2  0  0  0  0  0  0  0  0  0
    8.1617    3.2922    5.4350 N   0  0  0  0  0  0  0  0  0  0  0  0
    9.4656    5.3568    5.8181 C   0  0  1  0  0  0  0  0  0  0  0  0
   10.1124    5.1726    4.5977 O   0  0  0  0  0  0  0  0  0  0  0  0
    9.2768    6.8710    6.1668 C   0  0  2  0  0  0  0  0  0  0  0  0
   10.5321    7.5131    6.2410 O   0  0  0  0  0  0  0  0  0  0  0  0
    8.5310    7.0390    7.5253 C   0  0  2  0  0  0  0  0  0  0  0  0
    7.2725    6.3645    7.4351 O   0  0  0  0  0  0  0  0  0  0  0  0
    8.2877    8.5410    7.8863 C   0  0  0  0  0  0  0  0  0  0  0  0
    7.8670    8.7077    9.2340 N   0  0  0  0  0  0  0  0  0  0  0  0
    5.8519    5.0212   11.7184 C   0  0  2  0  0  0  0  0  0  0  0  0
    5.3966    4.9304   13.1114 N   0  0  0  0  0  0  0  0  0  0  0  0
    5.5979    3.6036   10.9713 C   0  0  0  0  0  0  0  0  0  0  0  0
    6.1038    3.7027    9.4742 C   0  0  2  0  0  0  0  0  0  0  0  0
    5.9155    2.4256    8.7633 N   0  0  0  0  0  0  0  0  0  0  0  0
    7.6212    4.0902    9.4623 C   0  0  2  0  0  0  0  0  0  0  0  0
    7.8553    5.4439   10.2109 C   0  0  2  0  0  0  0  0  0  0  0  0
    9.2798    5.7024   10.1563 O   0  0  0  0  0  0  0  0  0  0  0  0
    7.3583    5.3271   11.6876 C   0  0  1  0  0  0  0  0  0  0  0  0
    7.5653    6.5441   12.3214 O   0  0  0  0  0  0  0  0  0  0  0  0
   10.2495    4.7562   10.1306 C   0  0  1  0  0  0  0  0  0  0  0  0
   11.6356    5.3718   10.4549 C   0  0  2  0  0  0  0  0  0  0  0  0
   12.2604    5.9361    9.3386 O   0  0  0  0  0  0  0  0  0  0  0  0
   12.2848    4.1770   11.1285 C   0  0  1  0  0  0  0  0  0  0  0  0
   11.1884    3.4814   11.9475 C   0  0  2  0  0  0  0  0  0  0  0  0
   10.0697    3.6722   11.0816 O   0  0  0  0  0  0  0  0  0  0  0  0
   10.9302    4.0770   13.3734 C   0  0  0  0  0  0  0  0  0  0  0  0
   12.0798    3.7467   14.1971 O   0  0  0  0  0  0  0  0  0  0  0  0
   14.1677    3.4292    9.7082 C   0  0  2  0  0  0  0  0  0  0  0  0
   12.8171    3.2948   10.0574 O   0  0  0  0  0  0  0  0  0  0  0  0
   15.1206    3.0467   10.9229 C   0  0  1  0  0  0  0  0  0  0  0  0
   17.3060    7.0334    7.7513 N   0  0  0  0  0  0  0  0  0  0  0  0
   16.6424    3.2586   10.4170 C   0  0  1  0  0  0  0  0  0  0  0  0
   16.8637    2.3742    9.2061 O   0  0  0  0  0  0  0  0  0  0  0  0
   16.8836    4.8137   10.0300 C   0  0  2  0  0  0  0  0  0  0  0  0
   16.6758    5.6359   11.2035 O   0  0  0  0  0  0  0  0  0  0  0  0
   15.8651    5.1781    8.8096 C   0  0  1  0  0  0  0  0  0  0  0  0
   14.4523    4.8844    9.2334 O   0  0  0  0  0  0  0  0  0  0  0  0
   15.9870    6.6756    8.3578 C   0  0  0  0  0  0  0  0  0  0  0  0
   14.7785    3.8762   12.1253 N   0  0  0  0  0  0  0  0  0  0  0  0
  1  2  1  1  0  0  0
  1  3  1  0  0  0  0
  1 10  1  0  0  0  0
  3  4  1  1  0  0  0
  3  5  1  0  0  0  0
  5  6  1  6  0  0  0
  5  7  1  0  0  0  0
  7  8  1  1  0  0  0
  7  9  1  0  0  0  0
  9 10  1  0  0  0  0
  9 11  1  6  0  0  0
 11 12  1  0  0  0  0
 13 14  1  1  0  0  0
 13 15  1  0  0  0  0
 13 21  1  0  0  0  0
 16 15  1  0  0  0  0
 16 17  1  1  0  0  0
 18  2  1  6  0  0  0
 18 16  1  0  0  0  0
 19 18  1  0  0  0  0
 19 20  1  1  0  0  0
 21 19  1  0  0  0  0
 21 22  1  1  0  0  0
 23 20  1  1  0  0  0
 23 24  1  0  0  0  0
 23 28  1  0  0  0  0
 24 25  1  6  0  0  0
 24 26  1  0  0  0  0
 26 27  1  0  0  0  0
 26 32  1  6  0  0  0
 27 28  1  0  0  0  0
 27 29  1  1  0  0  0
 29 30  1  0  0  0  0
 31 32  1  1  0  0  0
 31 40  1  0  0  0  0
 33 31  1  0  0  0  0
 33 42  1  1  0  0  0
 35 33  1  0  0  0  0
 35 36  1  6  0  0  0
 37 35  1  0  0  0  0
 37 38  1  1  0  0  0
 37 39  1  0  0  0  0
 39 40  1  0  0  0  0
 39 41  1  1  0  0  0
 41 34  1  0  0  0  0
M  END
>  <CHROM.1>
-175.56037087,-167.70863436,47.51938316,-30.89512622,-164.75035123,95.82025344
-70.41164618,63.80959948,65.34166003,10.74135269,4.96537048,9.49420146,-3.01739688
-0.03959839,1.88369505

>  <Name>
2et4_lig

>  <RI>
3.65815e+07

>  <Rbt.Current_Directory>
/home/itssahil/PROJECTS/Mol_Feturizer/New_Systems/rnas/2et4

>  <Rbt.Executable>
rbdock ($Id: //depot/dev/client3/rdock/2013.1/src/exe/rbdock.cxx#4 $)

>  <Rbt.Library>
libRbt.so (2013.1, Build901 2013/11/27)

>  <Rbt.Parameter_File>
/export/apps/rDock/src/rDock_2013.1_src/data/scripts/dock_solv.prm

>  <Rbt.Receptor>
prm/pocket_docking_4.prm

>  <SCORE>
-4.9277

>  <SCORE.INTER>
-2.94143

>  <SCORE.INTER.CONST>
1

>  <SCORE.INTER.POLAR>
0

>  <SCORE.INTER.ROT>
9

>  <SCORE.INTER.SOLV>
14.4209

>  <SCORE.INTER.VDW>
-16.3679

>  <SCORE.INTER.norm>
-0.0700341

>  <SCORE.INTRA>
-2.01546

>  <SCORE.INTRA.DIHEDRAL>
-10.4332

>  <SCORE.INTRA.DIHEDRAL.0>
21.6909

>  <SCORE.INTRA.POLAR>
0

>  <SCORE.INTRA.POLAR.0>
0

>  <SCORE.INTRA.REPUL>
0

>  <SCORE.INTRA.REPUL.0>
0

>  <SCORE.INTRA.SOLV>
1.46474

>  <SCORE.INTRA.SOLV.lig_0>
-116.606

>  <SCORE.INTRA.VDW>
2.46876

>  <SCORE.INTRA.VDW.0>
-6.01229

>  <SCORE.INTRA.norm>
-0.0479872

>  <SCORE.RESTR>
0.0291866

>  <SCORE.RESTR.CAVITY>
0.0291866

>  <SCORE.RESTR.norm>
0.00069492

>  <SCORE.SYSTEM>
0

>  <SCORE.SYSTEM.CONST>
0

>  <SCORE.SYSTEM.DIHEDRAL>
0

>  <SCORE.SYSTEM.SOLV>
0

>  <SCORE.SYSTEM.norm>
0

>  <SCORE.heavy>
42

>  <SCORE.norm>
-0.117326

>  <RMSD>
8.359

$$$$
2et4_lig
 OpenBabel11021811423D
libRbt.so/2013.1/901 2013/11/27
 42 45  0  0  0  0  0  0  0  0999 V2000
   19.3853    2.7565    8.0159 C   0  0  2  0  0  0  0  0  0  0  0  0
   18.3624    3.7380    7.8356 O   0  0  0  0  0  0  0  0  0  0  0  0
   20.6823    3.3275    7.3879 C   0  0  2  0  0  0  0  0  0  0  0  0
   21.0413    4.5904    7.9811 N   0  0  0  0  0  0  0  0  0  0  0  0
   20.4902    3.4660    5.8500 C   0  0  1  0  0  0  0  0  0  0  0  0
   21.6630    3.9642    5.2860 O   0  0  0  0  0  0  0  0  0  0  0  0
   20.1061    2.0612    5.2764 C   0  0  2  0  0  0  0  0  0  0  0  0
   19.9145    2.1420    3.8799 O   0  0  0  0  0  0  0  0  0  0  0  0
   18.8039    1.5256    5.9452 C   0  0  2  0  0  0  0  0  0  0  0  0
   19.0129    1.4713    7.3594 O   0  0  0  0  0  0  0  0  0  0  0  0
   18.4122    0.1036    5.4256 C   0  0  0  0  0  0  0  0  0  0  0  0
   19.4491   -0.8472    5.6308 N   0  0  0  0  0  0  0  0  0  0  0  0
   14.7945    1.6397    9.0694 C   0  0  2  0  0  0  0  0  0  0  0  0
   13.3977    1.3928    9.4481 N   0  0  0  0  0  0  0  0  0  0  0  0
   15.4565    2.7025   10.1012 C   0  0  0  0  0  0  0  0  0  0  0  0
   16.9580    2.9759    9.6796 C   0  0  2  0  0  0  0  0  0  0  0  0
   17.5922    3.9579   10.5770 N   0  0  0  0  0  0  0  0  0  0  0  0
   16.9963    3.5099    8.2079 C   0  0  2  0  0  0  0  0  0  0  0  0
   16.3291    2.4886    7.2283 C   0  0  2  0  0  0  0  0  0  0  0  0
   16.4021    3.0788    5.9072 O   0  0  0  0  0  0  0  0  0  0  0  0
   14.8468    2.2358    7.6531 C   0  0  1  0  0  0  0  0  0  0  0  0
   14.2862    1.3175    6.7768 O   0  0  0  0  0  0  0  0  0  0  0  0
   15.8598    4.2672    5.5466 C   0  0  1  0  0  0  0  0  0  0  0  0
   16.5827    4.8546    4.3065 C   0  0  2  0  0  0  0  0  0  0  0  0
   17.7410    5.5667    4.6325 O   0  0  0  0  0  0  0  0  0  0  0  0
   15.4217    5.5995    3.6740 C   0  0  1  0  0  0  0  0  0  0  0  0
   14.1709    4.7367    3.8929 C   0  0  2  0  0  0  0  0  0  0  0  0
   14.4520    4.2127    5.1906 O   0  0  0  0  0  0  0  0  0  0  0  0
   13.9435    3.5981    2.8410 C   0  0  0  0  0  0  0  0  0  0  0  0
   13.8672    4.2239    1.5327 O   0  0  0  0  0  0  0  0  0  0  0  0
   14.0769    7.5787    4.3035 C   0  0  2  0  0  0  0  0  0  0  0  0
   15.3104    6.9155    4.3557 O   0  0  0  0  0  0  0  0  0  0  0  0
   14.2447    9.1360    4.5797 C   0  0  1  0  0  0  0  0  0  0  0  0
    9.3957    7.1811    6.4437 N   0  0  0  0  0  0  0  0  0  0  0  0
   12.7669    9.7908    4.5173 C   0  0  1  0  0  0  0  0  0  0  0  0
   12.1823    9.5048    3.1484 O   0  0  0  0  0  0  0  0  0  0  0  0
   11.8304    9.1503    5.6745 C   0  0  2  0  0  0  0  0  0  0  0  0
   12.4039    9.4447    6.9708 O   0  0  0  0  0  0  0  0  0  0  0  0
   11.7129    7.5506    5.3795 C   0  0  1  0  0  0  0  0  0  0  0  0
   13.0905    6.9492    5.3304 O   0  0  0  0  0  0  0  0  0  0  0  0
   10.8436    6.8081    6.4539 C   0  0  0  0  0  0  0  0  0  0  0  0
   14.9304    9.3534    5.8963 N   0  0  0  0  0  0  0  0  0  0  0  0
  1  2  1  6  0  0  0
  1  3  1  0  0  0  0
  1 10  1  0  0  0  0
  3  4  1  1  0  0  0
  3  5  1  0  0  0  0
  5  6  1  6  0  0  0
  5  7  1  0  0  0  0
  7  8  1  6  0  0  0
  7  9  1  0  0  0  0
  9 10  1  0  0  0  0
  9 11  1  6  0  0  0
 11 12  1  0  0  0  0
 13 14  1  1  0  0  0
 13 15  1  0  0  0  0
 13 21  1  0  0  0  0
 16 15  1  0  0  0  0
 16 17  1  1  0  0  0
 18  2  1  6  0  0  0
 18 16  1  0  0  0  0
 19 18  1  0  0  0  0
 19 20  1  6  0  0  0
 21 19  1  0  0  0  0
 21 22  1  6  0  0  0
 23 20  1  6  0  0  0
 23 24  1  0  0  0  0
 23 28  1  0  0  0  0
 24 25  1  1  0  0  0
 24 26  1  0  0  0  0
 26 27  1  0  0  0  0
 26 32  1  1  0  0  0
 27 28  1  0  0  0  0
 27 29  1  6  0  0  0
 29 30  1  0  0  0  0
 31 32  1  1  0  0  0
 31 40  1  0  0  0  0
 33 31  1  0  0  0  0
 33 42  1  1  0  0  0
 35 33  1  0  0  0  0
 35 36  1  6  0  0  0
 37 35  1  0  0  0  0
 37 38  1  1  0  0  0
 37 39  1  0  0  0  0
 39 40  1  0  0  0  0
 39 41  1  1  0  0  0
 41 34  1  0  0  0  0
M  END
>  <CHROM.1>
175.28630235,57.47702346,50.33611418,-59.24526578,156.79241951,-157.81265014
-57.96069880,-158.99139313,66.84795610,15.93308167,4.53211217,6.03872368
0.63715354,-0.43000771,2.31921443

>  <Name>
2et4_lig

>  <RI>
0

>  <Rbt.Current_Directory>
/home/itssahil/PROJECTS/Mol_Feturizer/New_Systems/rnas/2et4

>  <Rbt.Executable>
rbdock ($Id: //depot/dev/client3/rdock/2013.1/src/exe/rbdock.cxx#4 $)

>  <Rbt.Library>
libRbt.so (2013.1, Build901 2013/11/27)

>  <Rbt.Parameter_File>
/export/apps/rDock/src/rDock_2013.1_src/data/scripts/dock_solv.prm

>  <Rbt.Receptor>
prm/pocket_docking_8.prm

>  <SCORE>
-14.1557

>  <SCORE.INTER>
-7.57339

>  <SCORE.INTER.CONST>
1

>  <SCORE.INTER.POLAR>
-2.10819

>  <SCORE.INTER.ROT>
9

>  <SCORE.INTER.SOLV>
21.7908

>  <SCORE.INTER.VDW>
-14.8852

>  <SCORE.INTER.norm>
-0.180319

>  <SCORE.INTRA>
-6.58236

>  <SCORE.INTRA.DIHEDRAL>
-14.3069

>  <SCORE.INTRA.DIHEDRAL.0>
21.6909

>  <SCORE.INTRA.POLAR>
0

>  <SCORE.INTRA.POLAR.0>
0

>  <SCORE.INTRA.REPUL>
0

>  <SCORE.INTRA.REPUL.0>
0

>  <SCORE.INTRA.SOLV>
-2.5675

>  <SCORE.INTRA.SOLV.lig_0>
-116.606

>  <SCORE.INTRA.VDW>
1.85485

>  <SCORE.INTRA.VDW.0>
-6.01229

>  <SCORE.INTRA.norm>
-0.156723

>  <SCORE.RESTR>
0

>  <SCORE.RESTR.CAVITY>
0

>  <SCORE.RESTR.norm>
0

>  <SCORE.SYSTEM>
0

>  <SCORE.SYSTEM.CONST>
0

>  <SCORE.SYSTEM.DIHEDRAL>
0

>  <SCORE.SYSTEM.SOLV>
0

>  <SCORE.SYSTEM.norm>
0

>  <SCORE.heavy>
42

>  <SCORE.norm>
-0.337042

>  <RMSD>
8.375

$$$$
2et4_lig
 OpenBabel11021811423D
libRbt.so/2013.1/901 2013/11/27
 42 45  0  0  0  0  0  0  0  0999 V2000
   12.8130    5.5064   12.7210 C   0  0  2  0  0  0  0  0  0  0  0  0
   12.8197    6.6356   11.8451 O   0  0  0  0  0  0  0  0  0  0  0  0
   14.2830    5.0399   12.8764 C   0  0  2  0  0  0  0  0  0  0  0  0
   15.1206    6.1003   13.3761 N   0  0  0  0  0  0  0  0  0  0  0  0
   14.8024    4.5145   11.5070 C   0  0  1  0  0  0  0  0  0  0  0  0
   16.1185    4.0808   11.6533 O   0  0  0  0  0  0  0  0  0  0  0  0
   13.8496    3.3682   11.0295 C   0  0  2  0  0  0  0  0  0  0  0  0
   14.2807    2.8653    9.7826 O   0  0  0  0  0  0  0  0  0  0  0  0
   12.3840    3.8828   10.8987 C   0  0  2  0  0  0  0  0  0  0  0  0
   11.9750    4.4059   12.1659 O   0  0  0  0  0  0  0  0  0  0  0  0
   11.3953    2.7523   10.4628 C   0  0  0  0  0  0  0  0  0  0  0  0
   11.6620    2.2839    9.1473 N   0  0  0  0  0  0  0  0  0  0  0  0
   13.0551   10.9186   12.3497 C   0  0  2  0  0  0  0  0  0  0  0  0
   13.5646   12.2378   12.7444 N   0  0  0  0  0  0  0  0  0  0  0  0
   12.8484    9.9996   13.6706 C   0  0  0  0  0  0  0  0  0  0  0  0
   12.3127    8.5738   13.2378 C   0  0  2  0  0  0  0  0  0  0  0  0
   12.1346    7.6949   14.4073 N   0  0  0  0  0  0  0  0  0  0  0  0
   13.3257    7.9183   12.2394 C   0  0  2  0  0  0  0  0  0  0  0  0
   13.5375    8.8285   10.9846 C   0  0  2  0  0  0  0  0  0  0  0  0
   14.4944    8.1451   10.1382 O   0  0  0  0  0  0  0  0  0  0  0  0
   14.0732   10.2278   11.4277 C   0  0  1  0  0  0  0  0  0  0  0  0
   14.2377   11.0163   10.2978 O   0  0  0  0  0  0  0  0  0  0  0  0
   14.2292    7.0620    9.3683 C   0  0  1  0  0  0  0  0  0  0  0  0
   13.0919    7.3634    8.3577 C   0  0  2  0  0  0  0  0  0  0  0  0
   11.8150    7.1959    8.9023 O   0  0  0  0  0  0  0  0  0  0  0  0
   13.5252    6.4564    7.2209 C   0  0  1  0  0  0  0  0  0  0  0  0
   15.0588    6.5069    7.1747 C   0  0  2  0  0  0  0  0  0  0  0  0
   15.3487    6.5919    8.5699 O   0  0  0  0  0  0  0  0  0  0  0  0
   15.6711    7.7089    6.3778 C   0  0  0  0  0  0  0  0  0  0  0  0
   15.2848    7.5500    4.9869 O   0  0  0  0  0  0  0  0  0  0  0  0
   12.9540    4.1689    6.4707 C   0  0  2  0  0  0  0  0  0  0  0  0
   13.0270    5.0896    7.5248 O   0  0  0  0  0  0  0  0  0  0  0  0
   14.1770    3.1526    6.5038 C   0  0  1  0  0  0  0  0  0  0  0  0
   12.5304    4.2200    1.3235 N   0  0  0  0  0  0  0  0  0  0  0  0
   14.0025    2.1589    5.2394 C   0  0  1  0  0  0  0  0  0  0  0  0
   12.6641    1.4596    5.3710 O   0  0  0  0  0  0  0  0  0  0  0  0
   14.0614    3.0066    3.8594 C   0  0  2  0  0  0  0  0  0  0  0  0
   15.3508    3.6565    3.7525 O   0  0  0  0  0  0  0  0  0  0  0  0
   12.8174    4.0610    3.8790 C   0  0  1  0  0  0  0  0  0  0  0  0
   12.9115    4.9218    5.1086 O   0  0  0  0  0  0  0  0  0  0  0  0
   12.7802    4.9636    2.5963 C   0  0  0  0  0  0  0  0  0  0  0  0
   15.4732    3.9078    6.4853 N   0  0  0  0  0  0  0  0  0  0  0  0
  1  2  1  6  0  0  0
  1  3  1  0  0  0  0
  1 10  1  0  0  0  0
  3  4  1  6  0  0  0
  3  5  1  0  0  0  0
  5  6  1  1  0  0  0
  5  7  1  0  0  0  0
  7  8  1  6  0  0  0
  7  9  1  0  0  0  0
  9 10  1  0  0  0  0
  9 11  1  1  0  0  0
 11 12  1  0  0  0  0
 13 14  1  1  0  0  0
 13 15  1  0  0  0  0
 13 21  1  0  0  0  0
 16 15  1  0  0  0  0
 16 17  1  1  0  0  0
 18  2  1  6  0  0  0
 18 16  1  0  0  0  0
 19 18  1  0  0  0  0
 19 20  1  6  0  0  0
 21 19  1  0  0  0  0
 21 22  1  6  0  0  0
 23 20  1  6  0  0  0
 23 24  1  0  0  0  0
 23 28  1  0  0  0  0
 24 25  1  1  0  0  0
 24 26  1  0  0  0  0
 26 27  1  0  0  0  0
 26 32  1  1  0  0  0
 27 28  1  0  0  0  0
 27 29  1  6  0  0  0
 29 30  1  0  0  0  0
 31 32  1  1  0  0  0
 31 40  1  0  0  0  0
 33 31  1  0  0  0  0
 33 42  1  6  0  0  0
 35 33  1  0  0  0  0
 35 36  1  1  0  0  0
 37 35  1  0  0  0  0
 37 38  1  1  0  0  0
 37 39  1  0  0  0  0
 39 40  1  0  0  0  0
 39 41  1  6  0  0  0
 41 34  1  0  0  0  0
M  END
>  <CHROM.1>
-71.73523161,-65.84271004,-72.72976948,75.16528724,57.99622089,161.75647776
-64.58489821,101.48248093,64.55625281,13.62740047,5.89810112,8.96712092,1.75586040
1.42704967,0.85809991

>  <Name>
2et4_lig

>  <RI>
0

>  <Rbt.Current_Directory>
/home/itssahil/PROJECTS/Mol_Feturizer/New_Systems/rnas/2et4

>  <Rbt.Executable>
rbdock ($Id: //depot/dev/client3/rdock/2013.1/src/exe/rbdock.cxx#4 $)

>  <Rbt.Library>
libRbt.so (2013.1, Build901 2013/11/27)

>  <Rbt.Parameter_File>
/export/apps/rDock/src/rDock_2013.1_src/data/scripts/dock_solv.prm

>  <Rbt.Receptor>
prm/pocket_docking_8.prm

>  <SCORE>
-11.6375

>  <SCORE.INTER>
-9.08178

>  <SCORE.INTER.CONST>
1

>  <SCORE.INTER.POLAR>
-1.78379

>  <SCORE.INTER.ROT>
9

>  <SCORE.INTER.SOLV>
9.4935

>  <SCORE.INTER.VDW>
-12.8731

>  <SCORE.INTER.norm>
-0.216233

>  <SCORE.INTRA>
-2.55572

>  <SCORE.INTRA.DIHEDRAL>
-11.6078

>  <SCORE.INTRA.DIHEDRAL.0>
21.6909

>  <SCORE.INTRA.POLAR>
0

>  <SCORE.INTRA.POLAR.0>
0

>  <SCORE.INTRA.REPUL>
0

>  <SCORE.INTRA.REPUL.0>
0

>  <SCORE.INTRA.SOLV>
6.81536

>  <SCORE.INTRA.SOLV.lig_0>
-116.606

>  <SCORE.INTRA.VDW>
-0.1595

>  <SCORE.INTRA.VDW.0>
-6.01229

>  <SCORE.INTRA.norm>
-0.0608506

>  <SCORE.RESTR>
0

>  <SCORE.RESTR.CAVITY>
0

>  <SCORE.RESTR.norm>
0

>  <SCORE.SYSTEM>
0

>  <SCORE.SYSTEM.CONST>
0

>  <SCORE.SYSTEM.DIHEDRAL>
0

>  <SCORE.SYSTEM.SOLV>
0

>  <SCORE.SYSTEM.norm>
0

>  <SCORE.heavy>
42

>  <SCORE.norm>
-0.277083

>  <RMSD>
8.387

$$$$
2et4_lig
 OpenBabel11021811423D
libRbt.so/2013.1/901 2013/11/27
 42 45  0  0  0  0  0  0  0  0999 V2000
   12.2584    8.1506   11.9766 C   0  0  2  0  0  0  0  0  0  0  0  0
   10.9454    7.8515   11.4982 O   0  0  0  0  0  0  0  0  0  0  0  0
   12.8258    9.2794   11.0785 C   0  0  2  0  0  0  0  0  0  0  0  0
   11.9732   10.4406   11.0927 N   0  0  0  0  0  0  0  0  0  0  0  0
   13.0119    8.7393    9.6312 C   0  0  1  0  0  0  0  0  0  0  0  0
   13.5372    9.7511    8.8299 O   0  0  0  0  0  0  0  0  0  0  0  0
   13.9471    7.4857    9.6932 C   0  0  2  0  0  0  0  0  0  0  0  0
   14.1380    6.9569    8.3980 O   0  0  0  0  0  0  0  0  0  0  0  0
   13.3397    6.3850   10.6149 C   0  0  2  0  0  0  0  0  0  0  0  0
   13.1357    6.9473   11.9144 O   0  0  0  0  0  0  0  0  0  0  0  0
   14.2684    5.1324   10.7337 C   0  0  0  0  0  0  0  0  0  0  0  0
   14.4130    4.4520    9.4938 N   0  0  0  0  0  0  0  0  0  0  0  0
    9.9292    4.0625   13.3052 C   0  0  2  0  0  0  0  0  0  0  0  0
    9.1231    2.9667   13.8576 N   0  0  0  0  0  0  0  0  0  0  0  0
    9.6597    5.4168   14.1570 C   0  0  0  0  0  0  0  0  0  0  0  0
   10.5204    6.5982   13.5481 C   0  0  2  0  0  0  0  0  0  0  0  0
   10.2865    7.8574   14.2771 N   0  0  0  0  0  0  0  0  0  0  0  0
   10.1476    6.7894   12.0391 C   0  0  2  0  0  0  0  0  0  0  0  0
   10.3848    5.4679   11.2359 C   0  0  2  0  0  0  0  0  0  0  0  0
    9.9990    5.7443    9.8670 O   0  0  0  0  0  0  0  0  0  0  0  0
    9.5233    4.3149   11.8440 C   0  0  1  0  0  0  0  0  0  0  0  0
    9.7643    3.1548   11.1218 O   0  0  0  0  0  0  0  0  0  0  0  0
   10.5325    6.7101    9.0803 C   0  0  1  0  0  0  0  0  0  0  0  0
   10.5040    6.2898    7.5876 C   0  0  2  0  0  0  0  0  0  0  0  0
   11.5931    5.4934    7.2207 O   0  0  0  0  0  0  0  0  0  0  0  0
   10.3522    7.6579    6.9489 C   0  0  1  0  0  0  0  0  0  0  0  0
    9.4278    8.4731    7.8641 C   0  0  2  0  0  0  0  0  0  0  0  0
    9.8503    7.9918    9.1398 O   0  0  0  0  0  0  0  0  0  0  0  0
    7.8925    8.2568    7.6387 C   0  0  0  0  0  0  0  0  0  0  0  0
    7.5993    6.8684    7.9475 O   0  0  0  0  0  0  0  0  0  0  0  0
   12.4736    7.9779    5.7165 C   0  0  2  0  0  0  0  0  0  0  0  0
   11.7075    8.2605    6.8555 O   0  0  0  0  0  0  0  0  0  0  0  0
   13.9934    8.3998    5.9217 C   0  0  1  0  0  0  0  0  0  0  0  0
   12.1727   10.7328    1.9862 N   0  0  0  0  0  0  0  0  0  0  0  0
   14.7722    8.0510    4.5474 C   0  0  1  0  0  0  0  0  0  0  0  0
   14.6136    6.5676    4.2795 O   0  0  0  0  0  0  0  0  0  0  0  0
   14.1483    8.9136    3.3256 C   0  0  2  0  0  0  0  0  0  0  0  0
   14.3202   10.3247    3.6002 O   0  0  0  0  0  0  0  0  0  0  0  0
   12.5832    8.4818    3.1706 C   0  0  1  0  0  0  0  0  0  0  0  0
   11.8722    8.7035    4.4773 O   0  0  0  0  0  0  0  0  0  0  0  0
   11.8569    9.2719    2.0263 C   0  0  0  0  0  0  0  0  0  0  0  0
   14.0781    9.8504    6.2951 N   0  0  0  0  0  0  0  0  0  0  0  0
  1  2  1  6  0  0  0
  1  3  1  0  0  0  0
  1 10  1  0  0  0  0
  3  4  1  6  0  0  0
  3  5  1  0  0  0  0
  5  6  1  6  0  0  0
  5  7  1  0  0  0  0
  7  8  1  6  0  0  0
  7  9  1  0  0  0  0
  9 10  1  0  0  0  0
  9 11  1  1  0  0  0
 11 12  1  0  0  0  0
 13 14  1  1  0  0  0
 13 15  1  0  0  0  0
 13 21  1  0  0  0  0
 16 15  1  0  0  0  0
 16 17  1  1  0  0  0
 18  2  1  6  0  0  0
 18 16  1  0  0  0  0
 19 18  1  0  0  0  0
 19 20  1  6  0  0  0
 21 19  1  0  0  0  0
 21 22  1  6  0  0  0
 23 20  1  1  0  0  0
 23 24  1  0  0  0  0
 23 28  1  0  0  0  0
 24 25  1  6  0  0  0
 24 26  1  0  0  0  0
 26 27  1  0  0  0  0
 26 32  1  1  0  0  0
 27 28  1  0  0  0  0
 27 29  1  6  0  0  0
 29 30  1  0  0  0  0
 31 32  1  1  0  0  0
 31 40  1  0  0  0  0
 33 31  1  0  0  0  0
 33 42  1  6  0  0  0
 35 33  1  0  0  0  0
 35 36  1  6  0  0  0
 37 35  1  0  0  0  0
 37 38  1  1  0  0  0
 37 39  1  0  0  0  0
 39 40  1  0  0  0  0
 39 41  1  6  0  0  0
 41 34  1  0  0  0  0
M  END
>  <CHROM.1>
175.83708658,-65.12268366,30.15767151,58.47406592,149.39400010,87.61566528
63.19252838,-166.52778707,-42.96442585,11.74802714,7.31440665,8.67731302
-1.87725832,-0.31324278,-1.28897095

>  <Name>
2et4_lig

>  <RI>
0

>  <Rbt.Current_Directory>
/home/itssahil/PROJECTS/Mol_Feturizer/New_Systems/rnas/2et4

>  <Rbt.Executable>
rbdock ($Id: //depot/dev/client3/rdock/2013.1/src/exe/rbdock.cxx#4 $)

>  <Rbt.Library>
libRbt.so (2013.1, Build901 2013/11/27)

>  <Rbt.Parameter_File>
/export/apps/rDock/src/rDock_2013.1_src/data/scripts/dock_solv.prm

>  <Rbt.Receptor>
prm/pocket_docking_3.prm

>  <SCORE>
-6.30224

>  <SCORE.INTER>
-5.46227

>  <SCORE.INTER.CONST>
1

>  <SCORE.INTER.POLAR>
-1.14288

>  <SCORE.INTER.ROT>
9

>  <SCORE.INTER.SOLV>
14.904

>  <SCORE.INTER.VDW>
-14.3999

>  <SCORE.INTER.norm>
-0.130054

>  <SCORE.INTRA>
-0.861284

>  <SCORE.INTRA.DIHEDRAL>
-9.07452

>  <SCORE.INTRA.DIHEDRAL.0>
21.6909

>  <SCORE.INTRA.POLAR>
0

>  <SCORE.INTRA.POLAR.0>
0

>  <SCORE.INTRA.REPUL>
0.39202

>  <SCORE.INTRA.REPUL.0>
0

>  <SCORE.INTRA.SOLV>
4.85619

>  <SCORE.INTRA.SOLV.lig_0>
-116.606

>  <SCORE.INTRA.VDW>
-0.712223

>  <SCORE.INTRA.VDW.0>
-6.01229

>  <SCORE.INTRA.norm>
-0.0205068

>  <SCORE.RESTR>
0.021318

>  <SCORE.RESTR.CAVITY>
0.021318

>  <SCORE.RESTR.norm>
0.000507572

>  <SCORE.SYSTEM>
0

>  <SCORE.SYSTEM.CONST>
0

>  <SCORE.SYSTEM.DIHEDRAL>
0

>  <SCORE.SYSTEM.SOLV>
0

>  <SCORE.SYSTEM.norm>
0

>  <SCORE.heavy>
42

>  <SCORE.norm>
-0.150053

>  <RMSD>
8.389

$$$$
2et4_lig
 OpenBabel11021811423D
libRbt.so/2013.1/901 2013/11/27
 42 45  0  0  0  0  0  0  0  0999 V2000
   12.1274    4.7468   11.0171 C   0  0  2  0  0  0  0  0  0  0  0  0
   13.2204    3.8424   11.1889 O   0  0  0  0  0  0  0  0  0  0  0  0
   11.1271    4.4791   12.1706 C   0  0  2  0  0  0  0  0  0  0  0  0
   11.7552    4.6364   13.4576 N   0  0  0  0  0  0  0  0  0  0  0  0
   10.5291    3.0515   12.0105 C   0  0  1  0  0  0  0  0  0  0  0  0
    9.6184    2.8196   13.0393 O   0  0  0  0  0  0  0  0  0  0  0  0
    9.8643    2.9553   10.5967 C   0  0  2  0  0  0  0  0  0  0  0  0
    9.3130    1.6696   10.4051 O   0  0  0  0  0  0  0  0  0  0  0  0
   10.9056    3.2422    9.4728 C   0  0  2  0  0  0  0  0  0  0  0  0
   11.4658    4.5393    9.6977 O   0  0  0  0  0  0  0  0  0  0  0  0
   10.2665    3.1955    8.0464 C   0  0  0  0  0  0  0  0  0  0  0  0
    9.7642    1.9048    7.7254 N   0  0  0  0  0  0  0  0  0  0  0  0
   17.3564    3.5916    9.9702 C   0  0  2  0  0  0  0  0  0  0  0  0
   18.5477    3.6058    9.1121 N   0  0  0  0  0  0  0  0  0  0  0  0
   16.3338    2.4403    9.4593 C   0  0  0  0  0  0  0  0  0  0  0  0
   15.0449    2.4392   10.3792 C   0  0  2  0  0  0  0  0  0  0  0  0
   14.0747    1.4231    9.9343 N   0  0  0  0  0  0  0  0  0  0  0  0
   14.3763    3.8548   10.3399 C   0  0  2  0  0  0  0  0  0  0  0  0
   15.3824    4.9581   10.8072 C   0  0  2  0  0  0  0  0  0  0  0  0
   14.6769    6.2206   10.7205 O   0  0  0  0  0  0  0  0  0  0  0  0
   16.6439    4.9513    9.8853 C   0  0  1  0  0  0  0  0  0  0  0  0
   17.5227    5.9283   10.3312 O   0  0  0  0  0  0  0  0  0  0  0  0
   14.5751    6.9889    9.6089 C   0  0  1  0  0  0  0  0  0  0  0  0
   13.5795    6.3690    8.5939 C   0  0  2  0  0  0  0  0  0  0  0  0
   14.1630    5.3956    7.7772 O   0  0  0  0  0  0  0  0  0  0  0  0
   13.0561    7.6411    7.9533 C   0  0  1  0  0  0  0  0  0  0  0  0
   12.9545    8.6894    9.0702 C   0  0  2  0  0  0  0  0  0  0  0  0
   14.1030    8.3430    9.8440 O   0  0  0  0  0  0  0  0  0  0  0  0
   11.6411    8.6422    9.9231 C   0  0  0  0  0  0  0  0  0  0  0  0
   11.7162    9.7174   10.8965 O   0  0  0  0  0  0  0  0  0  0  0  0
   13.5379    8.7418    5.7905 C   0  0  2  0  0  0  0  0  0  0  0  0
   14.0275    8.0454    6.9037 O   0  0  0  0  0  0  0  0  0  0  0  0
   13.6135    7.8539    4.4730 C   0  0  1  0  0  0  0  0  0  0  0  0
   14.6087   13.0549    3.1623 N   0  0  0  0  0  0  0  0  0  0  0  0
   13.0479    8.7593    3.2576 C   0  0  1  0  0  0  0  0  0  0  0  0
   11.6296    9.1718    3.5979 O   0  0  0  0  0  0  0  0  0  0  0  0
   13.9835   10.0681    3.0630 C   0  0  2  0  0  0  0  0  0  0  0  0
   15.3286    9.6488    2.7299 O   0  0  0  0  0  0  0  0  0  0  0  0
   13.9103   10.9320    4.4444 C   0  0  1  0  0  0  0  0  0  0  0  0
   14.3344   10.0657    5.5984 O   0  0  0  0  0  0  0  0  0  0  0  0
   14.8012   12.2222    4.3891 C   0  0  0  0  0  0  0  0  0  0  0  0
   15.0203    7.3823    4.2512 N   0  0  0  0  0  0  0  0  0  0  0  0
  1  2  1  1  0  0  0
  1  3  1  0  0  0  0
  1 10  1  0  0  0  0
  3  4  1  1  0  0  0
  3  5  1  0  0  0  0
  5  6  1  1  0  0  0
  5  7  1  0  0  0  0
  7  8  1  6  0  0  0
  7  9  1  0  0  0  0
  9 10  1  0  0  0  0
  9 11  1  6  0  0  0
 11 12  1  0  0  0  0
 13 14  1  6  0  0  0
 13 15  1  0  0  0  0
 13 21  1  0  0  0  0
 16 15  1  0  0  0  0
 16 17  1  6  0  0  0
 18  2  1  1  0  0  0
 18 16  1  0  0  0  0
 19 18  1  0  0  0  0
 19 20  1  6  0  0  0
 21 19  1  0  0  0  0
 21 22  1  1  0  0  0
 23 20  1  1  0  0  0
 23 24  1  0  0  0  0
 23 28  1  0  0  0  0
 24 25  1  6  0  0  0
 24 26  1  0  0  0  0
 26 27  1  0  0  0  0
 26 32  1  6  0  0  0
 27 28  1  0  0  0  0
 27 29  1  1  0  0  0
 29 30  1  0  0  0  0
 31 32  1  1  0  0  0
 31 40  1  0  0  0  0
 33 31  1  0  0  0  0
 33 42  1  6  0  0  0
 35 33  1  0  0  0  0
 35 36  1  1  0  0  0
 37 35  1  0  0  0  0
 37 38  1  1  0  0  0
 37 39  1  0  0  0  0
 39 40  1  0  0  0  0
 39 41  1  6  0  0  0
 41 34  1  0  0  0  0
M  END
>  <CHROM.1>
-176.54641302,-63.41552188,-155.98593729,-85.75810189,74.42138377,150.24068916
-178.69656307,-110.91563288,49.07790735,13.40560296,6.17085332,8.46026820
1.76904597,-0.00585138,2.37762776

>  <Name>
2et4_lig

>  <RI>
0

>  <Rbt.Current_Directory>
/home/itssahil/PROJECTS/Mol_Feturizer/New_Systems/rnas/2et4

>  <Rbt.Executable>
rbdock ($Id: //depot/dev/client3/rdock/2013.1/src/exe/rbdock.cxx#4 $)

>  <Rbt.Library>
libRbt.so (2013.1, Build901 2013/11/27)

>  <Rbt.Parameter_File>
/export/apps/rDock/src/rDock_2013.1_src/data/scripts/dock_solv.prm

>  <Rbt.Receptor>
prm/pocket_docking_6.prm

>  <SCORE>
-14.0152

>  <SCORE.INTER>
-11.4245

>  <SCORE.INTER.CONST>
1

>  <SCORE.INTER.POLAR>
-1.73984

>  <SCORE.INTER.ROT>
9

>  <SCORE.INTER.SOLV>
21.824

>  <SCORE.INTER.VDW>
-18.6915

>  <SCORE.INTER.norm>
-0.272011

>  <SCORE.INTRA>
-2.59074

>  <SCORE.INTRA.DIHEDRAL>
-4.43776

>  <SCORE.INTRA.DIHEDRAL.0>
21.6909

>  <SCORE.INTRA.POLAR>
0

>  <SCORE.INTRA.POLAR.0>
0

>  <SCORE.INTRA.REPUL>
0

>  <SCORE.INTRA.REPUL.0>
0

>  <SCORE.INTRA.SOLV>
-1.90117

>  <SCORE.INTRA.SOLV.lig_0>
-116.606

>  <SCORE.INTRA.VDW>
0.578727

>  <SCORE.INTRA.VDW.0>
-6.01229

>  <SCORE.INTRA.norm>
-0.0616843

>  <SCORE.RESTR>
0

>  <SCORE.RESTR.CAVITY>
0

>  <SCORE.RESTR.norm>
0

>  <SCORE.SYSTEM>
0

>  <SCORE.SYSTEM.CONST>
0

>  <SCORE.SYSTEM.DIHEDRAL>
0

>  <SCORE.SYSTEM.SOLV>
0

>  <SCORE.SYSTEM.norm>
0

>  <SCORE.heavy>
42

>  <SCORE.norm>
-0.333695

>  <RMSD>
8.397

$$$$
2et4_lig
 OpenBabel11021811423D
libRbt.so/2013.1/901 2013/11/27
 42 45  0  0  0  0  0  0  0  0999 V2000
   11.3354    8.7557   13.1608 C   0  0  2  0  0  0  0  0  0  0  0  0
   10.5382    7.7611   12.5147 O   0  0  0  0  0  0  0  0  0  0  0  0
   11.3331   10.0078   12.2471 C   0  0  2  0  0  0  0  0  0  0  0  0
    9.9928   10.4741   11.9985 N   0  0  0  0  0  0  0  0  0  0  0  0
   12.0652    9.6729   10.9155 C   0  0  1  0  0  0  0  0  0  0  0  0
   12.0758   10.8047   10.1028 O   0  0  0  0  0  0  0  0  0  0  0  0
   13.5090    9.1778   11.2621 C   0  0  2  0  0  0  0  0  0  0  0  0
   14.2093    8.8547   10.0794 O   0  0  0  0  0  0  0  0  0  0  0  0
   13.4590    7.9259   12.1896 C   0  0  2  0  0  0  0  0  0  0  0  0
   12.7284    8.2690   13.3709 O   0  0  0  0  0  0  0  0  0  0  0  0
   14.8860    7.4278   12.5908 C   0  0  0  0  0  0  0  0  0  0  0  0
   15.7220    7.2264   11.4587 N   0  0  0  0  0  0  0  0  0  0  0  0
   10.6564    4.1567   14.8915 C   0  0  2  0  0  0  0  0  0  0  0  0
   10.2088    2.9379   15.5769 N   0  0  0  0  0  0  0  0  0  0  0  0
    9.8467    5.4358   15.4752 C   0  0  0  0  0  0  0  0  0  0  0  0
   10.3230    6.7449   14.7225 C   0  0  2  0  0  0  0  0  0  0  0  0
    9.5932    7.9310   15.2044 N   0  0  0  0  0  0  0  0  0  0  0  0
   10.0883    6.5748   13.1835 C   0  0  2  0  0  0  0  0  0  0  0  0
   10.8510    5.3216   12.6398 C   0  0  2  0  0  0  0  0  0  0  0  0
   10.5588    5.2458   11.2228 O   0  0  0  0  0  0  0  0  0  0  0  0
   10.3644    4.0384   13.3867 C   0  0  1  0  0  0  0  0  0  0  0  0
   11.0666    2.9473   12.8946 O   0  0  0  0  0  0  0  0  0  0  0  0
   10.9946    6.1194   10.2830 C   0  0  1  0  0  0  0  0  0  0  0  0
   11.4956    5.3724    9.0195 C   0  0  2  0  0  0  0  0  0  0  0  0
   12.8213    4.9411    9.1263 O   0  0  0  0  0  0  0  0  0  0  0  0
   11.1476    6.4080    7.9663 C   0  0  1  0  0  0  0  0  0  0  0  0
    9.8176    7.0443    8.3943 C   0  0  2  0  0  0  0  0  0  0  0  0
    9.9913    7.0588    9.8111 O   0  0  0  0  0  0  0  0  0  0  0  0
    8.5278    6.2608    7.9731 C   0  0  0  0  0  0  0  0  0  0  0  0
    7.3892    7.1207    8.2441 O   0  0  0  0  0  0  0  0  0  0  0  0
   13.4455    7.0386    7.3005 C   0  0  2  0  0  0  0  0  0  0  0  0
   12.2509    7.4032    7.9362 O   0  0  0  0  0  0  0  0  0  0  0  0
   14.4829    8.2441    7.2820 C   0  0  1  0  0  0  0  0  0  0  0  0
   12.7585    4.6669    3.6168 N   0  0  0  0  0  0  0  0  0  0  0  0
   15.8049    7.7206    6.5108 C   0  0  1  0  0  0  0  0  0  0  0  0
   16.3356    6.5107    7.2537 O   0  0  0  0  0  0  0  0  0  0  0  0
   15.4325    7.3251    4.9840 C   0  0  2  0  0  0  0  0  0  0  0  0
   14.9376    8.4976    4.2937 O   0  0  0  0  0  0  0  0  0  0  0  0
   14.3412    6.1145    5.0441 C   0  0  1  0  0  0  0  0  0  0  0  0
   13.1505    6.5551    5.8503 O   0  0  0  0  0  0  0  0  0  0  0  0
   13.8799    5.6557    3.6166 C   0  0  0  0  0  0  0  0  0  0  0  0
   13.8613    9.4470    6.6359 N   0  0  0  0  0  0  0  0  0  0  0  0
  1  2  1  6  0  0  0
  1  3  1  0  0  0  0
  1 10  1  0  0  0  0
  3  4  1  6  0  0  0
  3  5  1  0  0  0  0
  5  6  1  6  0  0  0
  5  7  1  0  0  0  0
  7  8  1  6  0  0  0
  7  9  1  0  0  0  0
  9 10  1  0  0  0  0
  9 11  1  1  0  0  0
 11 12  1  0  0  0  0
 13 14  1  1  0  0  0
 13 15  1  0  0  0  0
 13 21  1  0  0  0  0
 16 15  1  0  0  0  0
 16 17  1  1  0  0  0
 18  2  1  6  0  0  0
 18 16  1  0  0  0  0
 19 18  1  0  0  0  0
 19 20  1  6  0  0  0
 21 19  1  0  0  0  0
 21 22  1  6  0  0  0
 23 20  1  1  0  0  0
 23 24  1  0  0  0  0
 23 28  1  0  0  0  0
 24 25  1  1  0  0  0
 24 26  1  0  0  0  0
 26 27  1  0  0  0  0
 26 32  1  1  0  0  0
 27 28  1  0  0  0  0
 27 29  1  1  0  0  0
 29 30  1  0  0  0  0
 31 32  1  6  0  0  0
 31 40  1  0  0  0  0
 33 31  1  0  0  0  0
 33 42  1  6  0  0  0
 35 33  1  0  0  0  0
 35 36  1  1  0  0  0
 37 35  1  0  0  0  0
 37 38  1  1  0  0  0
 37 39  1  0  0  0  0
 39 40  1  0  0  0  0
 39 41  1  6  0  0  0
 41 34  1  0  0  0  0
M  END
>  <CHROM.1>
-166.88765259,-52.46408407,12.89027617,68.77157228,136.20581435,76.34947620
-169.88488358,176.55157053,-172.84667882,12.10257788,6.98297975,10.01910793
-2.22257300,-0.85459096,-1.98632946

>  <Name>
2et4_lig

>  <RI>
3.65815e+07

>  <Rbt.Current_Directory>
/home/itssahil/PROJECTS/Mol_Feturizer/New_Systems/rnas/2et4

>  <Rbt.Executable>
rbdock ($Id: //depot/dev/client3/rdock/2013.1/src/exe/rbdock.cxx#4 $)

>  <Rbt.Library>
libRbt.so (2013.1, Build901 2013/11/27)

>  <Rbt.Parameter_File>
/export/apps/rDock/src/rDock_2013.1_src/data/scripts/dock_solv.prm

>  <Rbt.Receptor>
prm/pocket_docking_4.prm

>  <SCORE>
-7.11748

>  <SCORE.INTER>
-7.07437

>  <SCORE.INTER.CONST>
1

>  <SCORE.INTER.POLAR>
-1.92398

>  <SCORE.INTER.ROT>
9

>  <SCORE.INTER.SOLV>
14.7604

>  <SCORE.INTER.VDW>
-12.8231

>  <SCORE.INTER.norm>
-0.168437

>  <SCORE.INTRA>
-0.420411

>  <SCORE.INTRA.DIHEDRAL>
-5.9556

>  <SCORE.INTRA.DIHEDRAL.0>
21.6909

>  <SCORE.INTRA.POLAR>
0

>  <SCORE.INTRA.POLAR.0>
0

>  <SCORE.INTRA.REPUL>
0.269432

>  <SCORE.INTRA.REPUL.0>
0

>  <SCORE.INTRA.SOLV>
-0.477568

>  <SCORE.INTRA.SOLV.lig_0>
-116.606

>  <SCORE.INTRA.VDW>
1.44902

>  <SCORE.INTRA.VDW.0>
-6.01229

>  <SCORE.INTRA.norm>
-0.0100098

>  <SCORE.RESTR>
0.377299

>  <SCORE.RESTR.CAVITY>
0.377299

>  <SCORE.RESTR.norm>
0.00898331

>  <SCORE.SYSTEM>
0

>  <SCORE.SYSTEM.CONST>
0

>  <SCORE.SYSTEM.DIHEDRAL>
0

>  <SCORE.SYSTEM.SOLV>
0

>  <SCORE.SYSTEM.norm>
0

>  <SCORE.heavy>
42

>  <SCORE.norm>
-0.169464

>  <RMSD>
8.412

$$$$
2et4_lig
 OpenBabel11021811423D
libRbt.so/2013.1/901 2013/11/27
 42 45  0  0  0  0  0  0  0  0999 V2000
    9.0680    6.5233   10.9273 C   0  0  2  0  0  0  0  0  0  0  0  0
   10.2005    5.9475   11.5816 O   0  0  0  0  0  0  0  0  0  0  0  0
    7.8069    6.0460   11.6918 C   0  0  2  0  0  0  0  0  0  0  0  0
    7.8657    6.4140   13.0835 N   0  0  0  0  0  0  0  0  0  0  0  0
    7.6583    4.5060   11.5259 C   0  0  1  0  0  0  0  0  0  0  0  0
    6.5151    4.0820   12.2006 O   0  0  0  0  0  0  0  0  0  0  0  0
    7.5985    4.1822    9.9957 C   0  0  2  0  0  0  0  0  0  0  0  0
    7.4706    2.7901    9.7979 O   0  0  0  0  0  0  0  0  0  0  0  0
    8.8814    4.6900    9.2703 C   0  0  2  0  0  0  0  0  0  0  0  0
    9.0026    6.0968    9.5006 O   0  0  0  0  0  0  0  0  0  0  0  0
    8.8380    4.4202    7.7306 C   0  0  0  0  0  0  0  0  0  0  0  0
    7.7928    5.1394    7.0890 N   0  0  0  0  0  0  0  0  0  0  0  0
   14.3530    7.0780   11.9466 C   0  0  2  0  0  0  0  0  0  0  0  0
   15.7367    7.3965   11.5728 N   0  0  0  0  0  0  0  0  0  0  0  0
   14.0072    5.5569   11.5007 C   0  0  0  0  0  0  0  0  0  0  0  0
   12.5098    5.2238   11.8932 C   0  0  2  0  0  0  0  0  0  0  0  0
   12.1436    3.8567   11.4825 N   0  0  0  0  0  0  0  0  0  0  0  0
   11.5503    6.2524   11.2047 C   0  0  2  0  0  0  0  0  0  0  0  0
   11.9135    7.7163   11.6207 C   0  0  2  0  0  0  0  0  0  0  0  0
   10.9851    8.5835   10.9243 O   0  0  0  0  0  0  0  0  0  0  0  0
   13.3904    8.0314   11.2198 C   0  0  1  0  0  0  0  0  0  0  0  0
   13.6881    9.3285   11.6129 O   0  0  0  0  0  0  0  0  0  0  0  0
   11.1643    9.0880    9.6794 C   0  0  1  0  0  0  0  0  0  0  0  0
   11.3497    7.9515    8.6404 C   0  0  2  0  0  0  0  0  0  0  0  0
   12.6669    7.4891    8.5618 O   0  0  0  0  0  0  0  0  0  0  0  0
   10.7391    8.6256    7.4257 C   0  0  1  0  0  0  0  0  0  0  0  0
    9.5464    9.4501    7.9303 C   0  0  2  0  0  0  0  0  0  0  0  0
   10.0629    9.8963    9.1841 O   0  0  0  0  0  0  0  0  0  0  0  0
    8.2037    8.6609    8.1005 C   0  0  0  0  0  0  0  0  0  0  0  0
    7.8929    8.0508    6.8198 O   0  0  0  0  0  0  0  0  0  0  0  0
   12.4569    9.0035    5.6857 C   0  0  2  0  0  0  0  0  0  0  0  0
   11.7873    9.4864    6.8181 O   0  0  0  0  0  0  0  0  0  0  0  0
   13.7719    8.2040    6.0877 C   0  0  1  0  0  0  0  0  0  0  0  0
   14.7641   12.0624    3.2401 N   0  0  0  0  0  0  0  0  0  0  0  0
   14.4697    7.7162    4.7123 C   0  0  1  0  0  0  0  0  0  0  0  0
   13.4754    6.8551    3.9592 O   0  0  0  0  0  0  0  0  0  0  0  0
   14.8894    9.0025    3.8203 C   0  0  2  0  0  0  0  0  0  0  0  0
   15.8453    9.8030    4.5562 O   0  0  0  0  0  0  0  0  0  0  0  0
   13.5223    9.8157    3.4603 C   0  0  1  0  0  0  0  0  0  0  0  0
   12.8097   10.1830    4.7328 O   0  0  0  0  0  0  0  0  0  0  0  0
   13.8014   11.1060    2.6125 C   0  0  0  0  0  0  0  0  0  0  0  0
   14.6643    9.0711    6.9260 N   0  0  0  0  0  0  0  0  0  0  0  0
  1  2  1  1  0  0  0
  1  3  1  0  0  0  0
  1 10  1  0  0  0  0
  3  4  1  1  0  0  0
  3  5  1  0  0  0  0
  5  6  1  1  0  0  0
  5  7  1  0  0  0  0
  7  8  1  1  0  0  0
  7  9  1  0  0  0  0
  9 10  1  0  0  0  0
  9 11  1  6  0  0  0
 11 12  1  0  0  0  0
 13 14  1  6  0  0  0
 13 15  1  0  0  0  0
 13 21  1  0  0  0  0
 16 15  1  0  0  0  0
 16 17  1  6  0  0  0
 18  2  1  1  0  0  0
 18 16  1  0  0  0  0
 19 18  1  0  0  0  0
 19 20  1  6  0  0  0
 21 19  1  0  0  0  0
 21 22  1  1  0  0  0
 23 20  1  1  0  0  0
 23 24  1  0  0  0  0
 23 28  1  0  0  0  0
 24 25  1  6  0  0  0
 24 26  1  0  0  0  0
 26 27  1  0  0  0  0
 26 32  1  1  0  0  0
 27 28  1  0  0  0  0
 27 29  1  1  0  0  0
 29 30  1  0  0  0  0
 31 32  1  1  0  0  0
 31 40  1  0  0  0  0
 33 31  1  0  0  0  0
 33 42  1  6  0  0  0
 35 33  1  0  0  0  0
 35 36  1  6  0  0  0
 37 35  1  0  0  0  0
 37 38  1  1  0  0  0
 37 39  1  0  0  0  0
 39 40  1  0  0  0  0
 39 41  1  1  0  0  0
 41 34  1  0  0  0  0
M  END
>  <CHROM.1>
-175.26612534,64.17126930,-167.40534677,-87.83345107,58.19217545,100.99617024
-56.26406201,-91.28002454,-56.00179166,11.33487109,7.42419804,8.61230171
2.20165120,0.37199081,1.91668371

>  <Name>
2et4_lig

>  <RI>
0

>  <Rbt.Current_Directory>
/home/itssahil/PROJECTS/Mol_Feturizer/New_Systems/rnas/2et4

>  <Rbt.Executable>
rbdock ($Id: //depot/dev/client3/rdock/2013.1/src/exe/rbdock.cxx#4 $)

>  <Rbt.Library>
libRbt.so (2013.1, Build901 2013/11/27)

>  <Rbt.Parameter_File>
/export/apps/rDock/src/rDock_2013.1_src/data/scripts/dock_solv.prm

>  <Rbt.Receptor>
prm/pocket_docking_3.prm

>  <SCORE>
-8.72138

>  <SCORE.INTER>
-6.27725

>  <SCORE.INTER.CONST>
1

>  <SCORE.INTER.POLAR>
-0.991527

>  <SCORE.INTER.ROT>
9

>  <SCORE.INTER.SOLV>
18.2206

>  <SCORE.INTER.VDW>
-16.5533

>  <SCORE.INTER.norm>
-0.149458

>  <SCORE.INTRA>
-2.44427

>  <SCORE.INTRA.DIHEDRAL>
-7.95829

>  <SCORE.INTRA.DIHEDRAL.0>
21.6909

>  <SCORE.INTRA.POLAR>
0

>  <SCORE.INTRA.POLAR.0>
0

>  <SCORE.INTRA.REPUL>
0

>  <SCORE.INTRA.REPUL.0>
0

>  <SCORE.INTRA.SOLV>
2.54573

>  <SCORE.INTRA.SOLV.lig_0>
-116.606

>  <SCORE.INTRA.VDW>
0.26201

>  <SCORE.INTRA.VDW.0>
-6.01229

>  <SCORE.INTRA.norm>
-0.0581969

>  <SCORE.RESTR>
0.000140882

>  <SCORE.RESTR.CAVITY>
0.000140882

>  <SCORE.RESTR.norm>
3.35434e-06

>  <SCORE.SYSTEM>
0

>  <SCORE.SYSTEM.CONST>
0

>  <SCORE.SYSTEM.DIHEDRAL>
0

>  <SCORE.SYSTEM.SOLV>
0

>  <SCORE.SYSTEM.norm>
0

>  <SCORE.heavy>
42

>  <SCORE.norm>
-0.207652

>  <RMSD>
8.448

$$$$
2et4_lig
 OpenBabel11021811423D
libRbt.so/2013.1/901 2013/11/27
 42 45  0  0  0  0  0  0  0  0999 V2000
   11.1250    4.6832   10.3177 C   0  0  2  0  0  0  0  0  0  0  0  0
   11.7136    5.6991   11.1324 O   0  0  0  0  0  0  0  0  0  0  0  0
   11.9366    4.6282    8.9983 C   0  0  2  0  0  0  0  0  0  0  0  0
   13.3317    4.3714    9.2500 N   0  0  0  0  0  0  0  0  0  0  0  0
   11.7445    5.9627    8.2215 C   0  0  1  0  0  0  0  0  0  0  0  0
   12.4620    5.9042    7.0283 O   0  0  0  0  0  0  0  0  0  0  0  0
   10.2120    6.1735    7.9825 C   0  0  2  0  0  0  0  0  0  0  0  0
    9.9902    7.3806    7.2845 O   0  0  0  0  0  0  0  0  0  0  0  0
    9.4391    6.2111    9.3357 C   0  0  2  0  0  0  0  0  0  0  0  0
    9.6940    4.9891   10.0346 O   0  0  0  0  0  0  0  0  0  0  0  0
    7.8976    6.3791    9.1335 C   0  0  0  0  0  0  0  0  0  0  0  0
    7.3273    5.2875    8.4235 N   0  0  0  0  0  0  0  0  0  0  0  0
    9.0857    5.9683   14.5495 C   0  0  2  0  0  0  0  0  0  0  0  0
    8.6111    6.2564   15.9086 N   0  0  0  0  0  0  0  0  0  0  0  0
   10.3322    4.9321   14.6186 C   0  0  0  0  0  0  0  0  0  0  0  0
   10.8491    4.6363   13.1514 C   0  0  2  0  0  0  0  0  0  0  0  0
   12.0007    3.7169   13.1683 N   0  0  0  0  0  0  0  0  0  0  0  0
   11.2627    5.9814   12.4643 C   0  0  2  0  0  0  0  0  0  0  0  0
   10.0598    6.9814   12.4306 C   0  0  2  0  0  0  0  0  0  0  0  0
   10.5469    8.1885   11.7944 O   0  0  0  0  0  0  0  0  0  0  0  0
    9.5671    7.2686   13.8852 C   0  0  1  0  0  0  0  0  0  0  0  0
    8.4933    8.1455   13.8233 O   0  0  0  0  0  0  0  0  0  0  0  0
   11.2412    8.2384   10.6317 C   0  0  1  0  0  0  0  0  0  0  0  0
   10.9498    9.5556    9.8664 C   0  0  2  0  0  0  0  0  0  0  0  0
    9.7916    9.4921    9.0857 O   0  0  0  0  0  0  0  0  0  0  0  0
   12.2875    9.7399    9.1742 C   0  0  1  0  0  0  0  0  0  0  0  0
   13.3654    9.2762   10.1641 C   0  0  2  0  0  0  0  0  0  0  0  0
   12.6856    8.1827   10.7805 O   0  0  0  0  0  0  0  0  0  0  0  0
   13.8222   10.3452   11.2145 C   0  0  0  0  0  0  0  0  0  0  0  0
   14.3272   11.4903   10.4776 O   0  0  0  0  0  0  0  0  0  0  0  0
   13.2925    9.1068    7.0037 C   0  0  2  0  0  0  0  0  0  0  0  0
   12.2728    8.9061    7.9440 O   0  0  0  0  0  0  0  0  0  0  0  0
   12.6974    9.4155    5.5614 C   0  0  1  0  0  0  0  0  0  0  0  0
   16.6826    6.2415    7.4315 N   0  0  0  0  0  0  0  0  0  0  0  0
   13.9539    9.6061    4.5606 C   0  0  1  0  0  0  0  0  0  0  0  0
   14.8096   10.7400    5.0894 O   0  0  0  0  0  0  0  0  0  0  0  0
   14.8161    8.2356    4.4905 C   0  0  2  0  0  0  0  0  0  0  0  0
   13.9809    7.1716    3.9744 O   0  0  0  0  0  0  0  0  0  0  0  0
   15.3769    7.9327    5.9917 C   0  0  1  0  0  0  0  0  0  0  0  0
   14.2210    7.8582    6.9511 O   0  0  0  0  0  0  0  0  0  0  0  0
   16.2140    6.6076    6.0597 C   0  0  0  0  0  0  0  0  0  0  0  0
   11.7711    8.3128    5.1409 N   0  0  0  0  0  0  0  0  0  0  0  0
  1  2  1  1  0  0  0
  1  3  1  0  0  0  0
  1 10  1  0  0  0  0
  3  4  1  1  0  0  0
  3  5  1  0  0  0  0
  5  6  1  6  0  0  0
  5  7  1  0  0  0  0
  7  8  1  1  0  0  0
  7  9  1  0  0  0  0
  9 10  1  0  0  0  0
  9 11  1  6  0  0  0
 11 12  1  0  0  0  0
 13 14  1  1  0  0  0
 13 15  1  0  0  0  0
 13 21  1  0  0  0  0
 16 15  1  0  0  0  0
 16 17  1  1  0  0  0
 18  2  1  6  0  0  0
 18 16  1  0  0  0  0
 19 18  1  0  0  0  0
 19 20  1  1  0  0  0
 21 19  1  0  0  0  0
 21 22  1  6  0  0  0
 23 20  1  1  0  0  0
 23 24  1  0  0  0  0
 23 28  1  0  0  0  0
 24 25  1  6  0  0  0
 24 26  1  0  0  0  0
 26 27  1  0  0  0  0
 26 32  1  6  0  0  0
 27 28  1  0  0  0  0
 27 29  1  1  0  0  0
 29 30  1  0  0  0  0
 31 32  1  1  0  0  0
 31 40  1  0  0  0  0
 33 31  1  0  0  0  0
 33 42  1  6  0  0  0
 35 33  1  0  0  0  0
 35 36  1  1  0  0  0
 37 35  1  0  0  0  0
 37 38  1  1  0  0  0
 37 39  1  0  0  0  0
 39 40  1  0  0  0  0
 39 41  1  6  0  0  0
 41 34  1  0  0  0  0
M  END
>  <CHROM.1>
-176.60972623,62.44521226,36.25771853,48.65699925,149.18468565,167.89273106
-58.47838351,-125.25231599,-176.52212634,11.82200006,7.32000621,9.37070489
2.62808324,0.95573956,0.91651912

>  <Name>
2et4_lig

>  <RI>
0

>  <Rbt.Current_Directory>
/home/itssahil/PROJECTS/Mol_Feturizer/New_Systems/rnas/2et4

>  <Rbt.Executable>
rbdock ($Id: //depot/dev/client3/rdock/2013.1/src/exe/rbdock.cxx#4 $)

>  <Rbt.Library>
libRbt.so (2013.1, Build901 2013/11/27)

>  <Rbt.Parameter_File>
/export/apps/rDock/src/rDock_2013.1_src/data/scripts/dock_solv.prm

>  <Rbt.Receptor>
prm/pocket_docking_5.prm

>  <SCORE>
-12.6996

>  <SCORE.INTER>
-10.169

>  <SCORE.INTER.CONST>
1

>  <SCORE.INTER.POLAR>
-1.87568

>  <SCORE.INTER.ROT>
9

>  <SCORE.INTER.SOLV>
12.7861

>  <SCORE.INTER.VDW>
-14.3891

>  <SCORE.INTER.norm>
-0.24212

>  <SCORE.INTRA>
-2.5306

>  <SCORE.INTRA.DIHEDRAL>
-6.87261

>  <SCORE.INTRA.DIHEDRAL.0>
21.6909

>  <SCORE.INTRA.POLAR>
0

>  <SCORE.INTRA.POLAR.0>
0

>  <SCORE.INTRA.REPUL>
0.112247

>  <SCORE.INTRA.REPUL.0>
0

>  <SCORE.INTRA.SOLV>
2.80146

>  <SCORE.INTRA.SOLV.lig_0>
-116.606

>  <SCORE.INTRA.VDW>
-1.05626

>  <SCORE.INTRA.VDW.0>
-6.01229

>  <SCORE.INTRA.norm>
-0.0602523

>  <SCORE.RESTR>
0

>  <SCORE.RESTR.CAVITY>
0

>  <SCORE.RESTR.norm>
0

>  <SCORE.SYSTEM>
0

>  <SCORE.SYSTEM.CONST>
0

>  <SCORE.SYSTEM.DIHEDRAL>
0

>  <SCORE.SYSTEM.SOLV>
0

>  <SCORE.SYSTEM.norm>
0

>  <SCORE.heavy>
42

>  <SCORE.norm>
-0.302372

>  <RMSD>
8.448

$$$$
2et4_lig
 OpenBabel11021811423D
libRbt.so/2013.1/901 2013/11/27
 42 45  0  0  0  0  0  0  0  0999 V2000
    8.3529    7.1394    9.4785 C   0  0  2  0  0  0  0  0  0  0  0  0
    9.5260    6.3631    9.2266 O   0  0  0  0  0  0  0  0  0  0  0  0
    8.3814    8.3412    8.5000 C   0  0  2  0  0  0  0  0  0  0  0  0
    8.4485    7.9014    7.1297 N   0  0  0  0  0  0  0  0  0  0  0  0
    9.5857    9.2614    8.8521 C   0  0  1  0  0  0  0  0  0  0  0  0
    9.5994   10.3493    7.9814 O   0  0  0  0  0  0  0  0  0  0  0  0
    9.4451    9.7004   10.3479 C   0  0  2  0  0  0  0  0  0  0  0  0
   10.5245   10.5339   10.7136 O   0  0  0  0  0  0  0  0  0  0  0  0
    9.4104    8.4590   11.2900 C   0  0  2  0  0  0  0  0  0  0  0  0
    8.3236    7.6192   10.8893 O   0  0  0  0  0  0  0  0  0  0  0  0
    9.2287    8.8585   12.7909 C   0  0  0  0  0  0  0  0  0  0  0  0
    9.2676    7.7304   13.6551 N   0  0  0  0  0  0  0  0  0  0  0  0
    9.6146    3.5970   12.5426 C   0  0  2  0  0  0  0  0  0  0  0  0
    9.9750    2.4338   13.3628 N   0  0  0  0  0  0  0  0  0  0  0  0
    8.9749    3.0937   11.1391 C   0  0  0  0  0  0  0  0  0  0  0  0
    8.6016    4.3518   10.2529 C   0  0  2  0  0  0  0  0  0  0  0  0
    8.0392    3.9399    8.9546 N   0  0  0  0  0  0  0  0  0  0  0  0
    9.8829    5.2208   10.0170 C   0  0  2  0  0  0  0  0  0  0  0  0
   10.5054    5.6747   11.3786 C   0  0  2  0  0  0  0  0  0  0  0  0
   11.6832    6.4529   11.0527 O   0  0  0  0  0  0  0  0  0  0  0  0
   10.8751    4.4227   12.2372 C   0  0  1  0  0  0  0  0  0  0  0  0
   11.4108    4.8552   13.4420 O   0  0  0  0  0  0  0  0  0  0  0  0
   12.6710    6.0669   10.2091 C   0  0  1  0  0  0  0  0  0  0  0  0
   13.6913    7.2136    9.9863 C   0  0  2  0  0  0  0  0  0  0  0  0
   13.2964    8.1144    8.9926 O   0  0  0  0  0  0  0  0  0  0  0  0
   14.9458    6.3885    9.7667 C   0  0  1  0  0  0  0  0  0  0  0  0
   14.8559    5.1858   10.7166 C   0  0  2  0  0  0  0  0  0  0  0  0
   13.4526    4.9295   10.6642 O   0  0  0  0  0  0  0  0  0  0  0  0
   15.3471    5.4443   12.1817 C   0  0  0  0  0  0  0  0  0  0  0  0
   14.4383    6.4053   12.7815 O   0  0  0  0  0  0  0  0  0  0  0  0
   15.3381    6.9138    7.3810 C   0  0  2  0  0  0  0  0  0  0  0  0
   14.9595    5.9664    8.3418 O   0  0  0  0  0  0  0  0  0  0  0  0
   14.2573    7.0242    6.2194 C   0  0  1  0  0  0  0  0  0  0  0  0
   18.6764    5.6087    4.6735 N   0  0  0  0  0  0  0  0  0  0  0  0
   14.8049    8.1216    5.1646 C   0  0  1  0  0  0  0  0  0  0  0  0
   14.9969    9.4308    5.9039 O   0  0  0  0  0  0  0  0  0  0  0  0
   16.2096    7.6227    4.5289 C   0  0  2  0  0  0  0  0  0  0  0  0
   15.9984    6.3774    3.8212 O   0  0  0  0  0  0  0  0  0  0  0  0
   17.2793    7.4854    5.7524 C   0  0  1  0  0  0  0  0  0  0  0  0
   16.7316    6.5465    6.7918 O   0  0  0  0  0  0  0  0  0  0  0  0
   18.6827    6.9822    5.2641 C   0  0  0  0  0  0  0  0  0  0  0  0
   14.0274    5.6765    5.6017 N   0  0  0  0  0  0  0  0  0  0  0  0
  1  2  1  1  0  0  0
  1  3  1  0  0  0  0
  1 10  1  0  0  0  0
  3  4  1  6  0  0  0
  3  5  1  0  0  0  0
  5  6  1  6  0  0  0
  5  7  1  0  0  0  0
  7  8  1  1  0  0  0
  7  9  1  0  0  0  0
  9 10  1  0  0  0  0
  9 11  1  1  0  0  0
 11 12  1  0  0  0  0
 13 14  1  1  0  0  0
 13 15  1  0  0  0  0
 13 21  1  0  0  0  0
 16 15  1  0  0  0  0
 16 17  1  6  0  0  0
 18  2  1  6  0  0  0
 18 16  1  0  0  0  0
 19 18  1  0  0  0  0
 19 20  1  6  0  0  0
 21 19  1  0  0  0  0
 21 22  1  1  0  0  0
 23 20  1  1  0  0  0
 23 24  1  0  0  0  0
 23 28  1  0  0  0  0
 24 25  1  6  0  0  0
 24 26  1  0  0  0  0
 26 27  1  0  0  0  0
 26 32  1  6  0  0  0
 27 28  1  0  0  0  0
 27 29  1  1  0  0  0
 29 30  1  0  0  0  0
 31 32  1  1  0  0  0
 31 40  1  0  0  0  0
 33 31  1  0  0  0  0
 33 42  1  6  0  0  0
 35 33  1  0  0  0  0
 35 36  1  1  0  0  0
 37 35  1  0  0  0  0
 37 38  1  1  0  0  0
 37 39  1  0  0  0  0
 39 40  1  0  0  0  0
 39 41  1  6  0  0  0
 41 34  1  0  0  0  0
M  END
>  <CHROM.1>
175.33686844,-176.91422533,44.32318837,-50.33908194,173.94375432,77.26992143
65.63479431,-127.75079042,-63.23931360,12.27155333,6.68381198,9.28795466
2.58306382,-0.40225498,2.25866324

>  <Name>
2et4_lig

>  <RI>
3.65815e+07

>  <Rbt.Current_Directory>
/home/itssahil/PROJECTS/Mol_Feturizer/New_Systems/rnas/2et4

>  <Rbt.Executable>
rbdock ($Id: //depot/dev/client3/rdock/2013.1/src/exe/rbdock.cxx#4 $)

>  <Rbt.Library>
libRbt.so (2013.1, Build901 2013/11/27)

>  <Rbt.Parameter_File>
/export/apps/rDock/src/rDock_2013.1_src/data/scripts/dock_solv.prm

>  <Rbt.Receptor>
prm/pocket_docking_4.prm

>  <SCORE>
-9.26656

>  <SCORE.INTER>
-4.86764

>  <SCORE.INTER.CONST>
1

>  <SCORE.INTER.POLAR>
-0.746845

>  <SCORE.INTER.ROT>
9

>  <SCORE.INTER.SOLV>
9.85181

>  <SCORE.INTER.VDW>
-13.6395

>  <SCORE.INTER.norm>
-0.115896

>  <SCORE.INTRA>
-4.39892

>  <SCORE.INTRA.DIHEDRAL>
-11.2361

>  <SCORE.INTRA.DIHEDRAL.0>
21.6909

>  <SCORE.INTRA.POLAR>
0

>  <SCORE.INTRA.POLAR.0>
0

>  <SCORE.INTRA.REPUL>
0

>  <SCORE.INTRA.REPUL.0>
0

>  <SCORE.INTRA.SOLV>
1.05827

>  <SCORE.INTRA.SOLV.lig_0>
-116.606

>  <SCORE.INTRA.VDW>
0.689984

>  <SCORE.INTRA.VDW.0>
-6.01229

>  <SCORE.INTRA.norm>
-0.104736

>  <SCORE.RESTR>
0

>  <SCORE.RESTR.CAVITY>
0

>  <SCORE.RESTR.norm>
0

>  <SCORE.SYSTEM>
0

>  <SCORE.SYSTEM.CONST>
0

>  <SCORE.SYSTEM.DIHEDRAL>
0

>  <SCORE.SYSTEM.SOLV>
0

>  <SCORE.SYSTEM.norm>
0

>  <SCORE.heavy>
42

>  <SCORE.norm>
-0.220632

>  <RMSD>
8.459

$$$$
2et4_lig
 OpenBabel11021811423D
libRbt.so/2013.1/901 2013/11/27
 42 45  0  0  0  0  0  0  0  0999 V2000
   11.4201    4.8588   11.9280 C   0  0  2  0  0  0  0  0  0  0  0  0
   11.6329    5.2384   10.5668 O   0  0  0  0  0  0  0  0  0  0  0  0
    9.8893    4.8693   12.1713 C   0  0  2  0  0  0  0  0  0  0  0  0
    9.2060    3.9901   11.2571 N   0  0  0  0  0  0  0  0  0  0  0  0
    9.3598    6.3272   12.0471 C   0  0  1  0  0  0  0  0  0  0  0  0
    7.9863    6.3360   12.2822 O   0  0  0  0  0  0  0  0  0  0  0  0
   10.1421    7.2204   13.0669 C   0  0  2  0  0  0  0  0  0  0  0  0
    9.6972    8.5578   12.9830 O   0  0  0  0  0  0  0  0  0  0  0  0
   11.6749    7.1688   12.7884 C   0  0  2  0  0  0  0  0  0  0  0  0
   12.1000    5.8045   12.8579 O   0  0  0  0  0  0  0  0  0  0  0  0
   12.4931    8.0181   13.8153 C   0  0  0  0  0  0  0  0  0  0  0  0
   13.8888    7.9864   13.5468 N   0  0  0  0  0  0  0  0  0  0  0  0
   15.8912    4.6878   10.0993 C   0  0  2  0  0  0  0  0  0  0  0  0
   17.2173    4.6355    9.4713 N   0  0  0  0  0  0  0  0  0  0  0  0
   14.8953    3.6482    9.3511 C   0  0  0  0  0  0  0  0  0  0  0  0
   13.4633    3.7194   10.0230 C   0  0  2  0  0  0  0  0  0  0  0  0
   12.5170    2.8074    9.3564 N   0  0  0  0  0  0  0  0  0  0  0  0
   12.9225    5.1869    9.9412 C   0  0  2  0  0  0  0  0  0  0  0  0
   13.9064    6.1819   10.6410 C   0  0  2  0  0  0  0  0  0  0  0  0
   13.3265    7.5018   10.4978 O   0  0  0  0  0  0  0  0  0  0  0  0
   15.3115    6.1052    9.9618 C   0  0  1  0  0  0  0  0  0  0  0  0
   16.1650    6.9860   10.6109 O   0  0  0  0  0  0  0  0  0  0  0  0
   13.4738    8.3120    9.4216 C   0  0  1  0  0  0  0  0  0  0  0  0
   12.8011    7.6970    8.1667 C   0  0  2  0  0  0  0  0  0  0  0  0
   13.6201    6.7828    7.4971 O   0  0  0  0  0  0  0  0  0  0  0  0
   12.3966    8.9737    7.4529 C   0  0  1  0  0  0  0  0  0  0  0  0
   11.9629    9.9688    8.5384 C   0  0  2  0  0  0  0  0  0  0  0  0
   12.8919    9.6353    9.5696 O   0  0  0  0  0  0  0  0  0  0  0  0
   10.4795    9.8340    9.0243 C   0  0  0  0  0  0  0  0  0  0  0  0
   10.4502    8.8077   10.0514 O   0  0  0  0  0  0  0  0  0  0  0  0
   13.3807    9.9447    5.4011 C   0  0  2  0  0  0  0  0  0  0  0  0
   13.5824    9.4600    6.7005 O   0  0  0  0  0  0  0  0  0  0  0  0
   13.4841    8.7777    4.3253 C   0  0  1  0  0  0  0  0  0  0  0  0
   15.4234   13.4733    2.2260 N   0  0  0  0  0  0  0  0  0  0  0  0
   13.2588    9.4509    2.8718 C   0  0  1  0  0  0  0  0  0  0  0  0
   11.9001   10.1228    2.8693 O   0  0  0  0  0  0  0  0  0  0  0  0
   14.4249   10.5381    2.5808 C   0  0  2  0  0  0  0  0  0  0  0  0
   15.7101    9.8714    2.5789 O   0  0  0  0  0  0  0  0  0  0  0  0
   14.3108   11.6962    3.7234 C   0  0  1  0  0  0  0  0  0  0  0  0
   14.4134   11.0661    5.0852 O   0  0  0  0  0  0  0  0  0  0  0  0
   15.4107   12.8033    3.5626 C   0  0  0  0  0  0  0  0  0  0  0  0
   14.8049    8.0775    4.4521 N   0  0  0  0  0  0  0  0  0  0  0  0
  1  2  1  6  0  0  0
  1  3  1  0  0  0  0
  1 10  1  0  0  0  0
  3  4  1  6  0  0  0
  3  5  1  0  0  0  0
  5  6  1  1  0  0  0
  5  7  1  0  0  0  0
  7  8  1  6  0  0  0
  7  9  1  0  0  0  0
  9 10  1  0  0  0  0
  9 11  1  1  0  0  0
 11 12  1  0  0  0  0
 13 14  1  6  0  0  0
 13 15  1  0  0  0  0
 13 21  1  0  0  0  0
 16 15  1  0  0  0  0
 16 17  1  6  0  0  0
 18  2  1  1  0  0  0
 18 16  1  0  0  0  0
 19 18  1  0  0  0  0
 19 20  1  6  0  0  0
 21 19  1  0  0  0  0
 21 22  1  1  0  0  0
 23 20  1  1  0  0  0
 23 24  1  0  0  0  0
 23 28  1  0  0  0  0
 24 25  1  6  0  0  0
 24 26  1  0  0  0  0
 26 27  1  0  0  0  0
 26 32  1  1  0  0  0
 27 28  1  0  0  0  0
 27 29  1  1  0  0  0
 29 30  1  0  0  0  0
 31 32  1  1  0  0  0
 31 40  1  0  0  0  0
 33 31  1  0  0  0  0
 33 42  1  6  0  0  0
 35 33  1  0  0  0  0
 35 36  1  1  0  0  0
 37 35  1  0  0  0  0
 37 38  1  1  0  0  0
 37 39  1  0  0  0  0
 39 40  1  0  0  0  0
 39 41  1  6  0  0  0
 41 34  1  0  0  0  0
M  END
>  <CHROM.1>
-172.53298171,-179.07560687,58.14596632,-84.79012116,65.50757519,137.82609479
84.58276658,-88.87956334,56.39269746,12.92359519,7.72171857,8.70294027,-1.92834312
0.62288544,-0.82803408

>  <Name>
2et4_lig

>  <RI>
3.65815e+07

>  <Rbt.Current_Directory>
/home/itssahil/PROJECTS/Mol_Feturizer/New_Systems/rnas/2et4

>  <Rbt.Executable>
rbdock ($Id: //depot/dev/client3/rdock/2013.1/src/exe/rbdock.cxx#4 $)

>  <Rbt.Library>
libRbt.so (2013.1, Build901 2013/11/27)

>  <Rbt.Parameter_File>
/export/apps/rDock/src/rDock_2013.1_src/data/scripts/dock_solv.prm

>  <Rbt.Receptor>
prm/pocket_docking_4.prm

>  <SCORE>
-17.3799

>  <SCORE.INTER>
-15.2513

>  <SCORE.INTER.CONST>
1

>  <SCORE.INTER.POLAR>
-1.99195

>  <SCORE.INTER.ROT>
9

>  <SCORE.INTER.SOLV>
14.2559

>  <SCORE.INTER.VDW>
-17.8797

>  <SCORE.INTER.norm>
-0.363127

>  <SCORE.INTRA>
-2.12855

>  <SCORE.INTRA.DIHEDRAL>
-7.54487

>  <SCORE.INTRA.DIHEDRAL.0>
21.6909

>  <SCORE.INTRA.POLAR>
0

>  <SCORE.INTRA.POLAR.0>
0

>  <SCORE.INTRA.REPUL>
0.116252

>  <SCORE.INTRA.REPUL.0>
0

>  <SCORE.INTRA.SOLV>
1.70187

>  <SCORE.INTRA.SOLV.lig_0>
-116.606

>  <SCORE.INTRA.VDW>
0.211689

>  <SCORE.INTRA.VDW.0>
-6.01229

>  <SCORE.INTRA.norm>
-0.0506797

>  <SCORE.RESTR>
0

>  <SCORE.RESTR.CAVITY>
0

>  <SCORE.RESTR.norm>
0

>  <SCORE.SYSTEM>
0

>  <SCORE.SYSTEM.CONST>
0

>  <SCORE.SYSTEM.DIHEDRAL>
0

>  <SCORE.SYSTEM.SOLV>
0

>  <SCORE.SYSTEM.norm>
0

>  <SCORE.heavy>
42

>  <SCORE.norm>
-0.413807

>  <RMSD>
8.469

$$$$
2et4_lig
 OpenBabel11021811423D
libRbt.so/2013.1/901 2013/11/27
 42 45  0  0  0  0  0  0  0  0999 V2000
   11.0961    4.4487    9.8987 C   0  0  2  0  0  0  0  0  0  0  0  0
   11.4120    4.8136   11.2438 O   0  0  0  0  0  0  0  0  0  0  0  0
   10.4927    3.0216    9.9420 C   0  0  2  0  0  0  0  0  0  0  0  0
    9.3350    2.9665   10.7978 N   0  0  0  0  0  0  0  0  0  0  0  0
   11.5842    2.0169   10.4115 C   0  0  1  0  0  0  0  0  0  0  0  0
   11.0438    0.7327   10.4340 O   0  0  0  0  0  0  0  0  0  0  0  0
   12.8046    2.1300    9.4381 C   0  0  2  0  0  0  0  0  0  0  0  0
   13.8254    1.2378    9.8323 O   0  0  0  0  0  0  0  0  0  0  0  0
   13.3685    3.5832    9.4213 C   0  0  2  0  0  0  0  0  0  0  0  0
   12.3140    4.4716    9.0398 O   0  0  0  0  0  0  0  0  0  0  0  0
   14.5646    3.7436    8.4268 C   0  0  0  0  0  0  0  0  0  0  0  0
   15.6807    2.9442    8.7963 N   0  0  0  0  0  0  0  0  0  0  0  0
   11.4217    8.4956   13.5015 C   0  0  2  0  0  0  0  0  0  0  0  0
   11.7438    9.8715   13.9002 N   0  0  0  0  0  0  0  0  0  0  0  0
   12.7788    7.6068   13.4754 C   0  0  0  0  0  0  0  0  0  0  0  0
   12.4276    6.1281   13.0309 C   0  0  2  0  0  0  0  0  0  0  0  0
   13.6380    5.2898   12.9686 N   0  0  0  0  0  0  0  0  0  0  0  0
   11.7375    6.1572   11.6254 C   0  0  2  0  0  0  0  0  0  0  0  0
   10.4469    7.0410   11.6579 C   0  0  2  0  0  0  0  0  0  0  0  0
    9.8970    7.0144   10.3178 O   0  0  0  0  0  0  0  0  0  0  0  0
   10.8113    8.4976   12.0904 C   0  0  1  0  0  0  0  0  0  0  0  0
    9.6478    9.2531   12.1238 O   0  0  0  0  0  0  0  0  0  0  0  0
   10.5047    7.5030    9.2095 C   0  0  1  0  0  0  0  0  0  0  0  0
   10.2705    9.0303    9.0749 C   0  0  2  0  0  0  0  0  0  0  0  0
    9.0564    9.3472    8.4581 O   0  0  0  0  0  0  0  0  0  0  0  0
   11.5640    9.4181    8.3825 C   0  0  1  0  0  0  0  0  0  0  0  0
   12.6690    8.5391    8.9851 C   0  0  2  0  0  0  0  0  0  0  0  0
   11.9462    7.3227    9.1742 O   0  0  0  0  0  0  0  0  0  0  0  0
   13.2920    9.0612   10.3245 C   0  0  0  0  0  0  0  0  0  0  0  0
   13.8105   10.3941   10.0721 O   0  0  0  0  0  0  0  0  0  0  0  0
   12.4810    9.3955    6.0847 C   0  0  2  0  0  0  0  0  0  0  0  0
   11.3870    9.1630    6.9291 O   0  0  0  0  0  0  0  0  0  0  0  0
   12.1000    9.1441    4.5611 C   0  0  1  0  0  0  0  0  0  0  0  0
   15.7305    6.2156    6.0529 N   0  0  0  0  0  0  0  0  0  0  0  0
   13.4332    9.4187    3.6871 C   0  0  1  0  0  0  0  0  0  0  0  0
   13.8805   10.8438    3.9451 O   0  0  0  0  0  0  0  0  0  0  0  0
   14.5981    8.3767    4.1158 C   0  0  2  0  0  0  0  0  0  0  0  0
   14.1513    7.0252    3.8514 O   0  0  0  0  0  0  0  0  0  0  0  0
   14.9344    8.6389    5.6900 C   0  0  1  0  0  0  0  0  0  0  0  0
   13.6767    8.4895    6.5011 O   0  0  0  0  0  0  0  0  0  0  0  0
   16.0395    7.6672    6.2338 C   0  0  0  0  0  0  0  0  0  0  0  0
   11.5583    7.7556    4.3892 N   0  0  0  0  0  0  0  0  0  0  0  0
  1  2  1  1  0  0  0
  1  3  1  0  0  0  0
  1 10  1  0  0  0  0
  3  4  1  1  0  0  0
  3  5  1  0  0  0  0
  5  6  1  6  0  0  0
  5  7  1  0  0  0  0
  7  8  1  1  0  0  0
  7  9  1  0  0  0  0
  9 10  1  0  0  0  0
  9 11  1  6  0  0  0
 11 12  1  0  0  0  0
 13 14  1  6  0  0  0
 13 15  1  0  0  0  0
 13 21  1  0  0  0  0
 16 15  1  0  0  0  0
 16 17  1  6  0  0  0
 18  2  1  1  0  0  0
 18 16  1  0  0  0  0
 19 18  1  0  0  0  0
 19 20  1  6  0  0  0
 21 19  1  0  0  0  0
 21 22  1  1  0  0  0
 23 20  1  1  0  0  0
 23 24  1  0  0  0  0
 23 28  1  0  0  0  0
 24 25  1  6  0  0  0
 24 26  1  0  0  0  0
 26 27  1  0  0  0  0
 26 32  1  6  0  0  0
 27 28  1  0  0  0  0
 27 29  1  1  0  0  0
 29 30  1  0  0  0  0
 31 32  1  1  0  0  0
 31 40  1  0  0  0  0
 33 31  1  0  0  0  0
 33 42  1  1  0  0  0
 35 33  1  0  0  0  0
 35 36  1  1  0  0  0
 37 35  1  0  0  0  0
 37 38  1  1  0  0  0
 37 39  1  0  0  0  0
 39 40  1  0  0  0  0
 39 41  1  1  0  0  0
 41 34  1  0  0  0  0
M  END
>  <CHROM.1>
-167.18105693,-63.21508132,-163.40293955,-63.59158260,-83.33721081,-177.34358663
-57.25550509,-177.13872143,-55.83526002,12.35569511,6.77021046,8.98567495
-2.14335015,1.13049390,-0.40860209

>  <Name>
2et4_lig

>  <RI>
0

>  <Rbt.Current_Directory>
/home/itssahil/PROJECTS/Mol_Feturizer/New_Systems/rnas/2et4

>  <Rbt.Executable>
rbdock ($Id: //depot/dev/client3/rdock/2013.1/src/exe/rbdock.cxx#4 $)

>  <Rbt.Library>
libRbt.so (2013.1, Build901 2013/11/27)

>  <Rbt.Parameter_File>
/export/apps/rDock/src/rDock_2013.1_src/data/scripts/dock_solv.prm

>  <Rbt.Receptor>
prm/pocket_docking_5.prm

>  <SCORE>
-13.1866

>  <SCORE.INTER>
-6.54598

>  <SCORE.INTER.CONST>
1

>  <SCORE.INTER.POLAR>
-0.959166

>  <SCORE.INTER.ROT>
9

>  <SCORE.INTER.SOLV>
9.39937

>  <SCORE.INTER.VDW>
-13.8999

>  <SCORE.INTER.norm>
-0.155857

>  <SCORE.INTRA>
-6.64062

>  <SCORE.INTRA.DIHEDRAL>
-16.8358

>  <SCORE.INTRA.DIHEDRAL.0>
21.6909

>  <SCORE.INTRA.POLAR>
0

>  <SCORE.INTRA.POLAR.0>
0

>  <SCORE.INTRA.REPUL>
0.0722002

>  <SCORE.INTRA.REPUL.0>
0

>  <SCORE.INTRA.SOLV>
0.834396

>  <SCORE.INTRA.SOLV.lig_0>
-116.606

>  <SCORE.INTRA.VDW>
0.999092

>  <SCORE.INTRA.VDW.0>
-6.01229

>  <SCORE.INTRA.norm>
-0.15811

>  <SCORE.RESTR>
0

>  <SCORE.RESTR.CAVITY>
0

>  <SCORE.RESTR.norm>
0

>  <SCORE.SYSTEM>
0

>  <SCORE.SYSTEM.CONST>
0

>  <SCORE.SYSTEM.DIHEDRAL>
0

>  <SCORE.SYSTEM.SOLV>
0

>  <SCORE.SYSTEM.norm>
0

>  <SCORE.heavy>
42

>  <SCORE.norm>
-0.313967

>  <RMSD>
8.524

$$$$
2et4_lig
 OpenBabel11021811423D
libRbt.so/2013.1/901 2013/11/27
 42 45  0  0  0  0  0  0  0  0999 V2000
    7.7862    4.6538   10.2989 C   0  0  2  0  0  0  0  0  0  0  0  0
    9.1103    4.4387   10.7916 O   0  0  0  0  0  0  0  0  0  0  0  0
    7.5675    3.6617    9.1281 C   0  0  2  0  0  0  0  0  0  0  0  0
    7.7670    2.2988    9.5503 N   0  0  0  0  0  0  0  0  0  0  0  0
    8.5237    4.0307    7.9573 C   0  0  1  0  0  0  0  0  0  0  0  0
    8.3136    3.1474    6.9002 O   0  0  0  0  0  0  0  0  0  0  0  0
    8.2496    5.5173    7.5517 C   0  0  2  0  0  0  0  0  0  0  0  0
    9.1034    5.8980    6.4935 O   0  0  0  0  0  0  0  0  0  0  0  0
    8.4722    6.4733    8.7627 C   0  0  2  0  0  0  0  0  0  0  0  0
    7.6136    6.0576    9.8288 O   0  0  0  0  0  0  0  0  0  0  0  0
    8.1669    7.9646    8.4047 C   0  0  0  0  0  0  0  0  0  0  0  0
    8.4416    8.8436    9.4878 N   0  0  0  0  0  0  0  0  0  0  0  0
    9.0708    6.5879   14.5378 C   0  0  2  0  0  0  0  0  0  0  0  0
    9.5240    7.1312   15.8243 N   0  0  0  0  0  0  0  0  0  0  0  0
    9.1302    4.9671   14.5824 C   0  0  0  0  0  0  0  0  0  0  0  0
    8.6543    4.3872   13.1880 C   0  0  2  0  0  0  0  0  0  0  0  0
    8.7168    2.9149   13.1749 N   0  0  0  0  0  0  0  0  0  0  0  0
    9.5629    4.9604   12.0486 C   0  0  2  0  0  0  0  0  0  0  0  0
    9.5187    6.5243   12.0358 C   0  0  2  0  0  0  0  0  0  0  0  0
   10.3961    6.9513   10.9648 O   0  0  0  0  0  0  0  0  0  0  0  0
    9.9982    7.0805   13.4149 C   0  0  1  0  0  0  0  0  0  0  0  0
    9.9351    8.4662   13.3789 O   0  0  0  0  0  0  0  0  0  0  0  0
   11.7446    6.8186   10.9541 C   0  0  1  0  0  0  0  0  0  0  0  0
   12.3225    7.1293    9.5487 C   0  0  2  0  0  0  0  0  0  0  0  0
   12.2822    6.0316    8.6837 O   0  0  0  0  0  0  0  0  0  0  0  0
   13.6732    7.6888    9.9555 C   0  0  1  0  0  0  0  0  0  0  0  0
   13.4474    8.5000   11.2392 C   0  0  2  0  0  0  0  0  0  0  0  0
   12.4516    7.6962   11.8715 O   0  0  0  0  0  0  0  0  0  0  0  0
   12.9600    9.9742   11.0294 C   0  0  0  0  0  0  0  0  0  0  0  0
   13.9319   10.6361   10.1771 O   0  0  0  0  0  0  0  0  0  0  0  0
   15.0655    5.8492    9.0616 C   0  0  2  0  0  0  0  0  0  0  0  0
   14.5839    6.5367   10.1839 O   0  0  0  0  0  0  0  0  0  0  0  0
   16.2243    4.8343    9.4576 C   0  0  1  0  0  0  0  0  0  0  0  0
   16.9648    6.9474    4.3866 N   0  0  0  0  0  0  0  0  0  0  0  0
   16.7155    4.1190    8.0924 C   0  0  1  0  0  0  0  0  0  0  0  0
   15.5221    3.4217    7.4702 O   0  0  0  0  0  0  0  0  0  0  0  0
   17.3142    5.2276    7.0733 C   0  0  2  0  0  0  0  0  0  0  0  0
   18.4570    5.8720    7.6856 O   0  0  0  0  0  0  0  0  0  0  0  0
   16.1099    6.2694    6.7207 C   0  0  1  0  0  0  0  0  0  0  0  0
   15.5736    6.8626    7.9945 O   0  0  0  0  0  0  0  0  0  0  0  0
   16.5749    7.4133    5.7528 C   0  0  0  0  0  0  0  0  0  0  0  0
   17.3251    5.5638   10.1696 N   0  0  0  0  0  0  0  0  0  0  0  0
  1  2  1  6  0  0  0
  1  3  1  0  0  0  0
  1 10  1  0  0  0  0
  3  4  1  1  0  0  0
  3  5  1  0  0  0  0
  5  6  1  6  0  0  0
  5  7  1  0  0  0  0
  7  8  1  6  0  0  0
  7  9  1  0  0  0  0
  9 10  1  0  0  0  0
  9 11  1  6  0  0  0
 11 12  1  0  0  0  0
 13 14  1  1  0  0  0
 13 15  1  0  0  0  0
 13 21  1  0  0  0  0
 16 15  1  0  0  0  0
 16 17  1  1  0  0  0
 18  2  1  6  0  0  0
 18 16  1  0  0  0  0
 19 18  1  0  0  0  0
 19 20  1  6  0  0  0
 21 19  1  0  0  0  0
 21 22  1  6  0  0  0
 23 20  1  6  0  0  0
 23 24  1  0  0  0  0
 23 28  1  0  0  0  0
 24 25  1  6  0  0  0
 24 26  1  0  0  0  0
 26 27  1  0  0  0  0
 26 32  1  1  0  0  0
 27 28  1  0  0  0  0
 27 29  1  6  0  0  0
 29 30  1  0  0  0  0
 31 32  1  1  0  0  0
 31 40  1  0  0  0  0
 33 31  1  0  0  0  0
 33 42  1  6  0  0  0
 35 33  1  0  0  0  0
 35 36  1  6  0  0  0
 37 35  1  0  0  0  0
 37 38  1  1  0  0  0
 37 39  1  0  0  0  0
 39 40  1  0  0  0  0
 39 41  1  6  0  0  0
 41 34  1  0  0  0  0
M  END
>  <CHROM.1>
-165.90268421,-176.72487251,59.45303009,-68.19294745,168.99481307,74.14102436
-56.33710234,169.36507415,65.33446731,11.75560218,6.12205037,9.87447547,2.78046390
0.29136177,1.10003543

>  <Name>
2et4_lig

>  <RI>
0

>  <Rbt.Current_Directory>
/home/itssahil/PROJECTS/Mol_Feturizer/New_Systems/rnas/2et4

>  <Rbt.Executable>
rbdock ($Id: //depot/dev/client3/rdock/2013.1/src/exe/rbdock.cxx#4 $)

>  <Rbt.Library>
libRbt.so (2013.1, Build901 2013/11/27)

>  <Rbt.Parameter_File>
/export/apps/rDock/src/rDock_2013.1_src/data/scripts/dock_solv.prm

>  <Rbt.Receptor>
prm/pocket_docking_3.prm

>  <SCORE>
-7.73431

>  <SCORE.INTER>
0.498886

>  <SCORE.INTER.CONST>
1

>  <SCORE.INTER.POLAR>
-0.959166

>  <SCORE.INTER.ROT>
9

>  <SCORE.INTER.SOLV>
9.46891

>  <SCORE.INTER.VDW>
-9.22649

>  <SCORE.INTER.norm>
0.0118782

>  <SCORE.INTRA>
-8.28131

>  <SCORE.INTRA.DIHEDRAL>
-18.0169

>  <SCORE.INTRA.DIHEDRAL.0>
21.6909

>  <SCORE.INTRA.POLAR>
0

>  <SCORE.INTRA.POLAR.0>
0

>  <SCORE.INTRA.REPUL>
0

>  <SCORE.INTRA.REPUL.0>
0

>  <SCORE.INTRA.SOLV>
-0.677342

>  <SCORE.INTRA.SOLV.lig_0>
-116.606

>  <SCORE.INTRA.VDW>
1.06581

>  <SCORE.INTRA.VDW.0>
-6.01229

>  <SCORE.INTRA.norm>
-0.197174

>  <SCORE.RESTR>
0.0481063

>  <SCORE.RESTR.CAVITY>
0.0481063

>  <SCORE.RESTR.norm>
0.00114539

>  <SCORE.SYSTEM>
0

>  <SCORE.SYSTEM.CONST>
0

>  <SCORE.SYSTEM.DIHEDRAL>
0

>  <SCORE.SYSTEM.SOLV>
0

>  <SCORE.SYSTEM.norm>
0

>  <SCORE.heavy>
42

>  <SCORE.norm>
-0.18415

>  <RMSD>
8.529

$$$$
2et4_lig
 OpenBabel11021811423D
libRbt.so/2013.1/901 2013/11/27
 42 45  0  0  0  0  0  0  0  0999 V2000
   14.3129   10.2807   13.3639 C   0  0  2  0  0  0  0  0  0  0  0  0
   13.0858   10.4674   14.0719 O   0  0  0  0  0  0  0  0  0  0  0  0
   14.6569   11.6295   12.6821 C   0  0  2  0  0  0  0  0  0  0  0  0
   14.7517   12.6962   13.6459 N   0  0  0  0  0  0  0  0  0  0  0  0
   13.5841   11.9463   11.6004 C   0  0  1  0  0  0  0  0  0  0  0  0
   13.9046   13.1512   10.9780 O   0  0  0  0  0  0  0  0  0  0  0  0
   13.5390   10.7508   10.5912 C   0  0  2  0  0  0  0  0  0  0  0  0
   12.5704   10.9933    9.5930 O   0  0  0  0  0  0  0  0  0  0  0  0
   13.2005    9.4176   11.3245 C   0  0  2  0  0  0  0  0  0  0  0  0
   14.1812    9.2021   12.3437 O   0  0  0  0  0  0  0  0  0  0  0  0
   13.1877    8.1928   10.3523 C   0  0  0  0  0  0  0  0  0  0  0  0
   14.4997    7.7705   10.0039 N   0  0  0  0  0  0  0  0  0  0  0  0
    9.5217    8.1909   14.9494 C   0  0  2  0  0  0  0  0  0  0  0  0
    8.3471    7.3321   14.7532 N   0  0  0  0  0  0  0  0  0  0  0  0
    9.3761    9.5254   14.0383 C   0  0  0  0  0  0  0  0  0  0  0  0
   10.6519   10.4407   14.2427 C   0  0  2  0  0  0  0  0  0  0  0  0
   10.5738   11.6554   13.4120 N   0  0  0  0  0  0  0  0  0  0  0  0
   11.9388    9.6310   13.8672 C   0  0  2  0  0  0  0  0  0  0  0  0
   12.0511    8.3326   14.7328 C   0  0  2  0  0  0  0  0  0  0  0  0
   13.2562    7.6541   14.3010 O   0  0  0  0  0  0  0  0  0  0  0  0
   10.7893    7.4375   14.5140 C   0  0  1  0  0  0  0  0  0  0  0  0
   10.9100    6.3025   15.3032 O   0  0  0  0  0  0  0  0  0  0  0  0
   13.3896    6.9430   13.1552 C   0  0  1  0  0  0  0  0  0  0  0  0
   14.7599    6.2180   13.1073 C   0  0  2  0  0  0  0  0  0  0  0  0
   15.7949    7.0311   12.6354 O   0  0  0  0  0  0  0  0  0  0  0  0
   14.3646    4.9965   12.2983 C   0  0  1  0  0  0  0  0  0  0  0  0
   12.9478    4.6096   12.7452 C   0  0  2  0  0  0  0  0  0  0  0  0
   12.3904    5.9059   12.9607 O   0  0  0  0  0  0  0  0  0  0  0  0
   12.8651    3.7183   14.0311 C   0  0  0  0  0  0  0  0  0  0  0  0
   11.4589    3.4818   14.3062 O   0  0  0  0  0  0  0  0  0  0  0  0
   14.7437    4.3890    9.9301 C   0  0  2  0  0  0  0  0  0  0  0  0
   14.4053    5.3788   10.8627 O   0  0  0  0  0  0  0  0  0  0  0  0
   14.5539    2.9315   10.5379 C   0  0  1  0  0  0  0  0  0  0  0  0
   19.1702    3.8239    9.1797 N   0  0  0  0  0  0  0  0  0  0  0  0
   14.9915    1.8783    9.3908 C   0  0  1  0  0  0  0  0  0  0  0  0
   14.1192    2.1171    8.1745 O   0  0  0  0  0  0  0  0  0  0  0  0
   16.5533    2.0906    9.0139 C   0  0  2  0  0  0  0  0  0  0  0  0
   17.3654    1.8481   10.1877 O   0  0  0  0  0  0  0  0  0  0  0  0
   16.7147    3.6051    8.4307 C   0  0  1  0  0  0  0  0  0  0  0  0
   16.2113    4.5893    9.4504 O   0  0  0  0  0  0  0  0  0  0  0  0
   18.1986    3.9426    8.0494 C   0  0  0  0  0  0  0  0  0  0  0  0
   15.3526    2.7933   11.8004 N   0  0  0  0  0  0  0  0  0  0  0  0
  1  2  1  6  0  0  0
  1  3  1  0  0  0  0
  1 10  1  0  0  0  0
  3  4  1  1  0  0  0
  3  5  1  0  0  0  0
  5  6  1  6  0  0  0
  5  7  1  0  0  0  0
  7  8  1  6  0  0  0
  7  9  1  0  0  0  0
  9 10  1  0  0  0  0
  9 11  1  6  0  0  0
 11 12  1  0  0  0  0
 13 14  1  6  0  0  0
 13 15  1  0  0  0  0
 13 21  1  0  0  0  0
 16 15  1  0  0  0  0
 16 17  1  6  0  0  0
 18  2  1  1  0  0  0
 18 16  1  0  0  0  0
 19 18  1  0  0  0  0
 19 20  1  6  0  0  0
 21 19  1  0  0  0  0
 21 22  1  1  0  0  0
 23 20  1  1  0  0  0
 23 24  1  0  0  0  0
 23 28  1  0  0  0  0
 24 25  1  6  0  0  0
 24 26  1  0  0  0  0
 26 27  1  0  0  0  0
 26 32  1  6  0  0  0
 27 28  1  0  0  0  0
 27 29  1  1  0  0  0
 29 30  1  0  0  0  0
 31 32  1  1  0  0  0
 31 40  1  0  0  0  0
 33 31  1  0  0  0  0
 33 42  1  1  0  0  0
 35 33  1  0  0  0  0
 35 36  1  6  0  0  0
 37 35  1  0  0  0  0
 37 38  1  1  0  0  0
 37 39  1  0  0  0  0
 39 40  1  0  0  0  0
 39 41  1  1  0  0  0
 41 34  1  0  0  0  0
M  END
>  <CHROM.1>
125.14323037,76.17350132,-154.33631577,-75.95777981,-173.10814757,148.63023931
178.93597615,18.98168656,-58.72748018,13.65942743,7.01616374,12.01450384
-2.22427332,-0.73428142,3.13288199

>  <Name>
2et4_lig

>  <RI>
0

>  <Rbt.Current_Directory>
/home/itssahil/PROJECTS/Mol_Feturizer/New_Systems/rnas/2et4

>  <Rbt.Executable>
rbdock ($Id: //depot/dev/client3/rdock/2013.1/src/exe/rbdock.cxx#4 $)

>  <Rbt.Library>
libRbt.so (2013.1, Build901 2013/11/27)

>  <Rbt.Parameter_File>
/export/apps/rDock/src/rDock_2013.1_src/data/scripts/dock_solv.prm

>  <Rbt.Receptor>
prm/blind_docking_100.prm

>  <SCORE>
26.5408

>  <SCORE.INTER>
-1.51077

>  <SCORE.INTER.CONST>
1

>  <SCORE.INTER.POLAR>
-1.27529

>  <SCORE.INTER.ROT>
9

>  <SCORE.INTER.SOLV>
25.1035

>  <SCORE.INTER.VDW>
-14.7241

>  <SCORE.INTER.norm>
-0.0359708

>  <SCORE.INTRA>
12.2526

>  <SCORE.INTRA.DIHEDRAL>
0.00752311

>  <SCORE.INTRA.DIHEDRAL.0>
21.6909

>  <SCORE.INTRA.POLAR>
0

>  <SCORE.INTRA.POLAR.0>
0

>  <SCORE.INTRA.REPUL>
0.167863

>  <SCORE.INTRA.REPUL.0>
0

>  <SCORE.INTRA.SOLV>
9.06081

>  <SCORE.INTRA.SOLV.lig_0>
-116.606

>  <SCORE.INTRA.VDW>
6.87908

>  <SCORE.INTRA.VDW.0>
-6.01229

>  <SCORE.INTRA.norm>
0.291728

>  <SCORE.RESTR>
15.799

>  <SCORE.RESTR.CAVITY>
15.799

>  <SCORE.RESTR.norm>
0.376167

>  <SCORE.SYSTEM>
0

>  <SCORE.SYSTEM.CONST>
0

>  <SCORE.SYSTEM.DIHEDRAL>
0

>  <SCORE.SYSTEM.SOLV>
0

>  <SCORE.SYSTEM.norm>
0

>  <SCORE.heavy>
42

>  <SCORE.norm>
0.631923

>  <RMSD>
8.545

$$$$
2et4_lig
 OpenBabel11021811423D
libRbt.so/2013.1/901 2013/11/27
 42 45  0  0  0  0  0  0  0  0999 V2000
    9.8799   10.2331   14.7495 C   0  0  2  0  0  0  0  0  0  0  0  0
   11.2324    9.9114   14.4186 O   0  0  0  0  0  0  0  0  0  0  0  0
    9.2041    8.9247   15.2331 C   0  0  2  0  0  0  0  0  0  0  0  0
    9.9079    8.3527   16.3526 N   0  0  0  0  0  0  0  0  0  0  0  0
    9.1259    7.9191   14.0483 C   0  0  1  0  0  0  0  0  0  0  0  0
    8.5035    6.7500   14.4815 O   0  0  0  0  0  0  0  0  0  0  0  0
    8.3495    8.6049   12.8749 C   0  0  2  0  0  0  0  0  0  0  0  0
    8.2608    7.7276   11.7722 O   0  0  0  0  0  0  0  0  0  0  0  0
    9.0607    9.9193   12.4319 C   0  0  2  0  0  0  0  0  0  0  0  0
    9.1582   10.7839   13.5674 O   0  0  0  0  0  0  0  0  0  0  0  0
    8.2891   10.6542   11.2874 C   0  0  0  0  0  0  0  0  0  0  0  0
    8.9109   11.8792   10.9215 N   0  0  0  0  0  0  0  0  0  0  0  0
   12.7363   13.1913   12.0447 C   0  0  2  0  0  0  0  0  0  0  0  0
   13.6662   14.1810   11.4867 N   0  0  0  0  0  0  0  0  0  0  0  0
   12.6324   13.3902   13.6515 C   0  0  0  0  0  0  0  0  0  0  0  0
   11.6397   12.3112   14.2495 C   0  0  2  0  0  0  0  0  0  0  0  0
   11.5346   12.4388   15.7139 N   0  0  0  0  0  0  0  0  0  0  0  0
   12.1491   10.8762   13.8839 C   0  0  2  0  0  0  0  0  0  0  0  0
   12.2721   10.7081   12.3332 C   0  0  2  0  0  0  0  0  0  0  0  0
   12.7607    9.3637   12.1033 O   0  0  0  0  0  0  0  0  0  0  0  0
   13.2603   11.7742   11.7602 C   0  0  1  0  0  0  0  0  0  0  0  0
   13.3385   11.6103   10.3845 O   0  0  0  0  0  0  0  0  0  0  0  0
   12.6455    8.6738   10.9427 C   0  0  1  0  0  0  0  0  0  0  0  0
   13.5643    7.4243   10.9452 C   0  0  2  0  0  0  0  0  0  0  0  0
   14.8780    7.7081   10.5596 O   0  0  0  0  0  0  0  0  0  0  0  0
   12.7307    6.5032   10.0738 C   0  0  1  0  0  0  0  0  0  0  0  0
   11.2609    6.7695   10.4282 C   0  0  2  0  0  0  0  0  0  0  0  0
   11.3098    8.1776   10.6575 O   0  0  0  0  0  0  0  0  0  0  0  0
   10.7160    5.9943   11.6759 C   0  0  0  0  0  0  0  0  0  0  0  0
   10.8225    4.5752   11.3864 O   0  0  0  0  0  0  0  0  0  0  0  0
   12.4352    6.0530    7.6590 C   0  0  2  0  0  0  0  0  0  0  0  0
   13.0263    6.8398    8.6568 O   0  0  0  0  0  0  0  0  0  0  0  0
   12.8958    6.5152    6.2085 C   0  0  1  0  0  0  0  0  0  0  0  0
    7.7039    4.5822    6.2007 N   0  0  0  0  0  0  0  0  0  0  0  0
   12.1405    5.5597    5.1439 C   0  0  1  0  0  0  0  0  0  0  0  0
   12.5244    4.1244    5.4440 O   0  0  0  0  0  0  0  0  0  0  0  0
   10.5364    5.7518    5.2714 C   0  0  2  0  0  0  0  0  0  0  0  0
   10.1944    7.1263    4.9714 O   0  0  0  0  0  0  0  0  0  0  0  0
   10.1081    5.3047    6.7802 C   0  0  1  0  0  0  0  0  0  0  0  0
   10.8843    6.1159    7.7809 O   0  0  0  0  0  0  0  0  0  0  0  0
    8.5693    5.4694    7.0370 C   0  0  0  0  0  0  0  0  0  0  0  0
   12.5920    7.9713    6.0125 N   0  0  0  0  0  0  0  0  0  0  0  0
  1  2  1  6  0  0  0
  1  3  1  0  0  0  0
  1 10  1  0  0  0  0
  3  4  1  1  0  0  0
  3  5  1  0  0  0  0
  5  6  1  1  0  0  0
  5  7  1  0  0  0  0
  7  8  1  6  0  0  0
  7  9  1  0  0  0  0
  9 10  1  0  0  0  0
  9 11  1  6  0  0  0
 11 12  1  0  0  0  0
 13 14  1  1  0  0  0
 13 15  1  0  0  0  0
 13 21  1  0  0  0  0
 16 15  1  0  0  0  0
 16 17  1  1  0  0  0
 18  2  1  6  0  0  0
 18 16  1  0  0  0  0
 19 18  1  0  0  0  0
 19 20  1  1  0  0  0
 21 19  1  0  0  0  0
 21 22  1  6  0  0  0
 23 20  1  1  0  0  0
 23 24  1  0  0  0  0
 23 28  1  0  0  0  0
 24 25  1  6  0  0  0
 24 26  1  0  0  0  0
 26 27  1  0  0  0  0
 26 32  1  6  0  0  0
 27 28  1  0  0  0  0
 27 29  1  1  0  0  0
 29 30  1  0  0  0  0
 31 32  1  1  0  0  0
 31 40  1  0  0  0  0
 33 31  1  0  0  0  0
 33 42  1  6  0  0  0
 35 33  1  0  0  0  0
 35 36  1  1  0  0  0
 37 35  1  0  0  0  0
 37 38  1  1  0  0  0
 37 39  1  0  0  0  0
 39 40  1  0  0  0  0
 39 41  1  6  0  0  0
 41 34  1  0  0  0  0
M  END
>  <CHROM.1>
177.58226738,177.67079134,21.48846048,159.63486812,166.38706278,175.79544404
-61.20474161,-177.98320871,64.67574731,11.12858064,8.50616084,10.78247936
1.58955619,0.74942362,0.92376746

>  <Name>
2et4_lig

>  <RI>
0

>  <Rbt.Current_Directory>
/home/itssahil/PROJECTS/Mol_Feturizer/New_Systems/rnas/2et4

>  <Rbt.Executable>
rbdock ($Id: //depot/dev/client3/rdock/2013.1/src/exe/rbdock.cxx#4 $)

>  <Rbt.Library>
libRbt.so (2013.1, Build901 2013/11/27)

>  <Rbt.Parameter_File>
/export/apps/rDock/src/rDock_2013.1_src/data/scripts/dock_solv.prm

>  <Rbt.Receptor>
prm/pocket_docking_8.prm

>  <SCORE>
-12.7362

>  <SCORE.INTER>
-6.00513

>  <SCORE.INTER.CONST>
1

>  <SCORE.INTER.POLAR>
-2.1284

>  <SCORE.INTER.ROT>
9

>  <SCORE.INTER.SOLV>
12.6167

>  <SCORE.INTER.VDW>
-10.7143

>  <SCORE.INTER.norm>
-0.142979

>  <SCORE.INTRA>
-6.73103

>  <SCORE.INTRA.DIHEDRAL>
-13.4026

>  <SCORE.INTRA.DIHEDRAL.0>
21.6909

>  <SCORE.INTRA.POLAR>
0

>  <SCORE.INTRA.POLAR.0>
0

>  <SCORE.INTRA.REPUL>
0

>  <SCORE.INTRA.REPUL.0>
0

>  <SCORE.INTRA.SOLV>
-1.67927

>  <SCORE.INTRA.SOLV.lig_0>
-116.606

>  <SCORE.INTRA.VDW>
0.809901

>  <SCORE.INTRA.VDW.0>
-6.01229

>  <SCORE.INTRA.norm>
-0.160263

>  <SCORE.RESTR>
0

>  <SCORE.RESTR.CAVITY>
0

>  <SCORE.RESTR.norm>
0

>  <SCORE.SYSTEM>
0

>  <SCORE.SYSTEM.CONST>
0

>  <SCORE.SYSTEM.DIHEDRAL>
0

>  <SCORE.SYSTEM.SOLV>
0

>  <SCORE.SYSTEM.norm>
0

>  <SCORE.heavy>
42

>  <SCORE.norm>
-0.303242

>  <RMSD>
8.548

$$$$
2et4_lig
 OpenBabel11021811423D
libRbt.so/2013.1/901 2013/11/27
 42 45  0  0  0  0  0  0  0  0999 V2000
   10.5384   11.7066   11.8290 C   0  0  2  0  0  0  0  0  0  0  0  0
   10.5216   10.3700   12.3342 O   0  0  0  0  0  0  0  0  0  0  0  0
   11.5651   11.7436   10.6683 C   0  0  2  0  0  0  0  0  0  0  0  0
   11.2331   10.7876    9.6428 N   0  0  0  0  0  0  0  0  0  0  0  0
   12.9906   11.4838   11.2353 C   0  0  1  0  0  0  0  0  0  0  0  0
   13.9133   11.5336   10.1923 O   0  0  0  0  0  0  0  0  0  0  0  0
   13.2820   12.5567   12.3370 C   0  0  2  0  0  0  0  0  0  0  0  0
   14.5669   12.3536   12.8859 O   0  0  0  0  0  0  0  0  0  0  0  0
   12.2187   12.4871   13.4748 C   0  0  2  0  0  0  0  0  0  0  0  0
   10.9245   12.6747   12.8945 O   0  0  0  0  0  0  0  0  0  0  0  0
   12.4546   13.5739   14.5742 C   0  0  0  0  0  0  0  0  0  0  0  0
   11.4345   13.5660   15.5643 N   0  0  0  0  0  0  0  0  0  0  0  0
    7.7186    7.0860   12.2198 C   0  0  2  0  0  0  0  0  0  0  0  0
    6.8387    6.0378   11.6879 N   0  0  0  0  0  0  0  0  0  0  0  0
    7.2288    8.5335   11.6746 C   0  0  0  0  0  0  0  0  0  0  0  0
    8.1897    9.6581   12.2395 C   0  0  2  0  0  0  0  0  0  0  0  0
    7.7962   10.9904   11.7476 N   0  0  0  0  0  0  0  0  0  0  0  0
    9.6622    9.3522   11.8027 C   0  0  2  0  0  0  0  0  0  0  0  0
   10.1111    7.9419   12.3102 C   0  0  2  0  0  0  0  0  0  0  0  0
   11.4698    7.7513   11.8447 O   0  0  0  0  0  0  0  0  0  0  0  0
    9.1583    6.8436   11.7381 C   0  0  1  0  0  0  0  0  0  0  0  0
    9.5714    5.6077   12.2152 O   0  0  0  0  0  0  0  0  0  0  0  0
   11.8707    7.7977   10.5511 C   0  0  1  0  0  0  0  0  0  0  0  0
   13.3485    7.3481   10.4107 C   0  0  2  0  0  0  0  0  0  0  0  0
   14.2613    8.3792   10.6529 O   0  0  0  0  0  0  0  0  0  0  0  0
   13.2896    6.7364    9.0233 C   0  0  1  0  0  0  0  0  0  0  0  0
   11.9275    6.0381    8.9053 C   0  0  2  0  0  0  0  0  0  0  0  0
   11.1147    6.9475    9.6469 O   0  0  0  0  0  0  0  0  0  0  0  0
   11.8602    4.5861    9.4899 C   0  0  0  0  0  0  0  0  0  0  0  0
   12.1293    4.6781   10.9140 O   0  0  0  0  0  0  0  0  0  0  0  0
   13.3333    7.5260    6.6789 C   0  0  2  0  0  0  0  0  0  0  0  0
   13.4295    7.8426    8.0407 O   0  0  0  0  0  0  0  0  0  0  0  0
   14.1228    8.5766    5.7830 C   0  0  1  0  0  0  0  0  0  0  0  0
    9.2547    6.2061    5.4630 N   0  0  0  0  0  0  0  0  0  0  0  0
   13.9257    8.1283    4.2413 C   0  0  1  0  0  0  0  0  0  0  0  0
   14.4610    6.7185    4.0885 O   0  0  0  0  0  0  0  0  0  0  0  0
   12.3543    8.1794    3.8485 C   0  0  2  0  0  0  0  0  0  0  0  0
   11.8695    9.5360    3.9932 O   0  0  0  0  0  0  0  0  0  0  0  0
   11.5742    7.1192    4.8114 C   0  0  1  0  0  0  0  0  0  0  0  0
   11.8375    7.4647    6.2513 O   0  0  0  0  0  0  0  0  0  0  0  0
   10.0289    7.0937    4.5419 C   0  0  0  0  0  0  0  0  0  0  0  0
   13.6262    9.9647    6.0611 N   0  0  0  0  0  0  0  0  0  0  0  0
  1  2  1  1  0  0  0
  1  3  1  0  0  0  0
  1 10  1  0  0  0  0
  3  4  1  6  0  0  0
  3  5  1  0  0  0  0
  5  6  1  6  0  0  0
  5  7  1  0  0  0  0
  7  8  1  1  0  0  0
  7  9  1  0  0  0  0
  9 10  1  0  0  0  0
  9 11  1  1  0  0  0
 11 12  1  0  0  0  0
 13 14  1  6  0  0  0
 13 15  1  0  0  0  0
 13 21  1  0  0  0  0
 16 15  1  0  0  0  0
 16 17  1  6  0  0  0
 18  2  1  1  0  0  0
 18 16  1  0  0  0  0
 19 18  1  0  0  0  0
 19 20  1  6  0  0  0
 21 19  1  0  0  0  0
 21 22  1  1  0  0  0
 23 20  1  1  0  0  0
 23 24  1  0  0  0  0
 23 28  1  0  0  0  0
 24 25  1  6  0  0  0
 24 26  1  0  0  0  0
 26 27  1  0  0  0  0
 26 32  1  6  0  0  0
 27 28  1  0  0  0  0
 27 29  1  1  0  0  0
 29 30  1  0  0  0  0
 31 32  1  1  0  0  0
 31 40  1  0  0  0  0
 33 31  1  0  0  0  0
 33 42  1  6  0  0  0
 35 33  1  0  0  0  0
 35 36  1  1  0  0  0
 37 35  1  0  0  0  0
 37 38  1  1  0  0  0
 37 39  1  0  0  0  0
 39 40  1  0  0  0  0
 39 41  1  1  0  0  0
 41 34  1  0  0  0  0
M  END
>  <CHROM.1>
-88.37261297,176.13354254,-71.98024738,-57.49326236,-171.82495959,-176.69263409
62.49664479,-154.10351295,-176.01818521,11.53095418,8.83444828,9.77301643
-1.81706480,-0.79132718,-2.23159244

>  <Name>
2et4_lig

>  <RI>
0

>  <Rbt.Current_Directory>
/home/itssahil/PROJECTS/Mol_Feturizer/New_Systems/rnas/2et4

>  <Rbt.Executable>
rbdock ($Id: //depot/dev/client3/rdock/2013.1/src/exe/rbdock.cxx#4 $)

>  <Rbt.Library>
libRbt.so (2013.1, Build901 2013/11/27)

>  <Rbt.Parameter_File>
/export/apps/rDock/src/rDock_2013.1_src/data/scripts/dock_solv.prm

>  <Rbt.Receptor>
prm/pocket_docking_8.prm

>  <SCORE>
-19.2065

>  <SCORE.INTER>
-13.8954

>  <SCORE.INTER.CONST>
1

>  <SCORE.INTER.POLAR>
-2.7003

>  <SCORE.INTER.ROT>
9

>  <SCORE.INTER.SOLV>
16.5582

>  <SCORE.INTER.VDW>
-15.382

>  <SCORE.INTER.norm>
-0.330844

>  <SCORE.INTRA>
-5.32864

>  <SCORE.INTRA.DIHEDRAL>
-14.1897

>  <SCORE.INTRA.DIHEDRAL.0>
21.6909

>  <SCORE.INTRA.POLAR>
0

>  <SCORE.INTRA.POLAR.0>
0

>  <SCORE.INTRA.REPUL>
0.0931512

>  <SCORE.INTRA.REPUL.0>
0

>  <SCORE.INTRA.SOLV>
1.2892

>  <SCORE.INTRA.SOLV.lig_0>
-116.606

>  <SCORE.INTRA.VDW>
0.655864

>  <SCORE.INTRA.VDW.0>
-6.01229

>  <SCORE.INTRA.norm>
-0.126872

>  <SCORE.RESTR>
0.0175845

>  <SCORE.RESTR.CAVITY>
0.0175845

>  <SCORE.RESTR.norm>
0.000418678

>  <SCORE.SYSTEM>
0

>  <SCORE.SYSTEM.CONST>
0

>  <SCORE.SYSTEM.DIHEDRAL>
0

>  <SCORE.SYSTEM.SOLV>
0

>  <SCORE.SYSTEM.norm>
0

>  <SCORE.heavy>
42

>  <SCORE.norm>
-0.457297

>  <RMSD>
8.559

$$$$
2et4_lig
 OpenBabel11021811423D
libRbt.so/2013.1/901 2013/11/27
 42 45  0  0  0  0  0  0  0  0999 V2000
   13.0976    4.8918   11.9085 C   0  0  2  0  0  0  0  0  0  0  0  0
   12.8880    5.7493   10.7847 O   0  0  0  0  0  0  0  0  0  0  0  0
   13.4865    3.4977   11.3534 C   0  0  2  0  0  0  0  0  0  0  0  0
   14.6542    3.5742   10.5129 N   0  0  0  0  0  0  0  0  0  0  0  0
   12.2776    2.8981   10.5788 C   0  0  1  0  0  0  0  0  0  0  0  0
   12.6244    1.6383   10.0948 O   0  0  0  0  0  0  0  0  0  0  0  0
   11.0521    2.8434   11.5509 C   0  0  2  0  0  0  0  0  0  0  0  0
    9.9267    2.3106   10.8852 O   0  0  0  0  0  0  0  0  0  0  0  0
   10.7069    4.2649   12.0897 C   0  0  2  0  0  0  0  0  0  0  0  0
   11.8655    4.7935   12.7416 O   0  0  0  0  0  0  0  0  0  0  0  0
    9.5117    4.2427   13.0978 C   0  0  0  0  0  0  0  0  0  0  0  0
    9.2377    5.5307   13.6338 N   0  0  0  0  0  0  0  0  0  0  0  0
   12.0966    9.5679   12.6411 C   0  0  2  0  0  0  0  0  0  0  0  0
   11.8553   11.0085   12.7905 N   0  0  0  0  0  0  0  0  0  0  0  0
   13.5522    9.3291   11.9654 C   0  0  0  0  0  0  0  0  0  0  0  0
   13.8008    7.7747   11.7935 C   0  0  2  0  0  0  0  0  0  0  0  0
   15.1042    7.5116   11.1581 N   0  0  0  0  0  0  0  0  0  0  0  0
   12.6574    7.1585   10.9185 C   0  0  2  0  0  0  0  0  0  0  0  0
   11.2580    7.4214   11.5668 C   0  0  2  0  0  0  0  0  0  0  0  0
   10.2769    6.8297   10.6800 O   0  0  0  0  0  0  0  0  0  0  0  0
   11.0250    8.9586   11.7223 C   0  0  1  0  0  0  0  0  0  0  0  0
    9.7849    9.1605   12.3114 O   0  0  0  0  0  0  0  0  0  0  0  0
   10.0733    7.1814    9.3873 C   0  0  1  0  0  0  0  0  0  0  0  0
   10.7850    6.1956    8.4244 C   0  0  2  0  0  0  0  0  0  0  0  0
   12.1327    6.5059    8.2187 O   0  0  0  0  0  0  0  0  0  0  0  0
    9.8311    6.2691    7.2465 C   0  0  1  0  0  0  0  0  0  0  0  0
    8.4158    6.3839    7.8301 C   0  0  2  0  0  0  0  0  0  0  0  0
    8.6809    7.1990    8.9717 O   0  0  0  0  0  0  0  0  0  0  0  0
    7.7368    5.0287    8.2264 C   0  0  0  0  0  0  0  0  0  0  0  0
    6.3662    5.3237    8.6050 O   0  0  0  0  0  0  0  0  0  0  0  0
   11.4459    7.4749    5.8113 C   0  0  2  0  0  0  0  0  0  0  0  0
   10.1978    7.4681    6.4486 O   0  0  0  0  0  0  0  0  0  0  0  0
   11.4581    8.4721    4.5723 C   0  0  1  0  0  0  0  0  0  0  0  0
   13.3719    3.4294    5.4199 N   0  0  0  0  0  0  0  0  0  0  0  0
   12.9289    8.3820    3.9051 C   0  0  1  0  0  0  0  0  0  0  0  0
   13.9492    8.7575    4.9613 O   0  0  0  0  0  0  0  0  0  0  0  0
   13.2006    6.8766    3.3700 C   0  0  2  0  0  0  0  0  0  0  0  0
   12.2206    6.5454    2.3570 O   0  0  0  0  0  0  0  0  0  0  0  0
   13.1432    5.8806    4.6601 C   0  0  1  0  0  0  0  0  0  0  0  0
   11.8163    6.0343    5.3513 O   0  0  0  0  0  0  0  0  0  0  0  0
   13.3693    4.3792    4.2652 C   0  0  0  0  0  0  0  0  0  0  0  0
   10.3555    8.1194    3.6180 N   0  0  0  0  0  0  0  0  0  0  0  0
  1  2  1  6  0  0  0
  1  3  1  0  0  0  0
  1 10  1  0  0  0  0
  3  4  1  6  0  0  0
  3  5  1  0  0  0  0
  5  6  1  1  0  0  0
  5  7  1  0  0  0  0
  7  8  1  6  0  0  0
  7  9  1  0  0  0  0
  9 10  1  0  0  0  0
  9 11  1  1  0  0  0
 11 12  1  0  0  0  0
 13 14  1  6  0  0  0
 13 15  1  0  0  0  0
 13 21  1  0  0  0  0
 16 15  1  0  0  0  0
 16 17  1  6  0  0  0
 18  2  1  1  0  0  0
 18 16  1  0  0  0  0
 19 18  1  0  0  0  0
 19 20  1  6  0  0  0
 21 19  1  0  0  0  0
 21 22  1  1  0  0  0
 23 20  1  1  0  0  0
 23 24  1  0  0  0  0
 23 28  1  0  0  0  0
 24 25  1  6  0  0  0
 24 26  1  0  0  0  0
 26 27  1  0  0  0  0
 26 32  1  6  0  0  0
 27 28  1  0  0  0  0
 27 29  1  1  0  0  0
 29 30  1  0  0  0  0
 31 32  1  6  0  0  0
 31 40  1  0  0  0  0
 33 31  1  0  0  0  0
 33 42  1  6  0  0  0
 35 33  1  0  0  0  0
 35 36  1  1  0  0  0
 37 35  1  0  0  0  0
 37 38  1  6  0  0  0
 37 39  1  0  0  0  0
 39 40  1  0  0  0  0
 39 41  1  6  0  0  0
 41 34  1  0  0  0  0
M  END
>  <CHROM.1>
-172.92865064,177.34686678,52.62957406,-60.76466363,99.15622008,65.66464085
-173.46574132,156.63001075,178.04604077,11.49891730,6.24259751,8.99425959
2.81120140,1.47676159,0.44567209

>  <Name>
2et4_lig

>  <RI>
0

>  <Rbt.Current_Directory>
/home/itssahil/PROJECTS/Mol_Feturizer/New_Systems/rnas/2et4

>  <Rbt.Executable>
rbdock ($Id: //depot/dev/client3/rdock/2013.1/src/exe/rbdock.cxx#4 $)

>  <Rbt.Library>
libRbt.so (2013.1, Build901 2013/11/27)

>  <Rbt.Parameter_File>
/export/apps/rDock/src/rDock_2013.1_src/data/scripts/dock_solv.prm

>  <Rbt.Receptor>
prm/pocket_docking_5.prm

>  <SCORE>
-6.37076

>  <SCORE.INTER>
-0.873031

>  <SCORE.INTER.CONST>
1

>  <SCORE.INTER.POLAR>
-0.824621

>  <SCORE.INTER.ROT>
9

>  <SCORE.INTER.SOLV>
11.0491

>  <SCORE.INTER.VDW>
-11.1163

>  <SCORE.INTER.norm>
-0.0207865

>  <SCORE.INTRA>
-5.49773

>  <SCORE.INTRA.DIHEDRAL>
-13.0524

>  <SCORE.INTRA.DIHEDRAL.0>
21.6909

>  <SCORE.INTRA.POLAR>
0

>  <SCORE.INTRA.POLAR.0>
0

>  <SCORE.INTRA.REPUL>
0

>  <SCORE.INTRA.REPUL.0>
0

>  <SCORE.INTRA.SOLV>
-1.33225

>  <SCORE.INTRA.SOLV.lig_0>
-116.606

>  <SCORE.INTRA.VDW>
1.69457

>  <SCORE.INTRA.VDW.0>
-6.01229

>  <SCORE.INTRA.norm>
-0.130898

>  <SCORE.RESTR>
0

>  <SCORE.RESTR.CAVITY>
0

>  <SCORE.RESTR.norm>
0

>  <SCORE.SYSTEM>
0

>  <SCORE.SYSTEM.CONST>
0

>  <SCORE.SYSTEM.DIHEDRAL>
0

>  <SCORE.SYSTEM.SOLV>
0

>  <SCORE.SYSTEM.norm>
0

>  <SCORE.heavy>
42

>  <SCORE.norm>
-0.151685

>  <RMSD>
8.565

$$$$
2et4_lig
 OpenBabel11021811423D
libRbt.so/2013.1/901 2013/11/27
 42 45  0  0  0  0  0  0  0  0999 V2000
   16.9240   12.4405    2.5746 C   0  0  2  0  0  0  0  0  0  0  0  0
   16.0642   13.1303    1.6653 O   0  0  0  0  0  0  0  0  0  0  0  0
   17.9099   13.4867    3.1542 C   0  0  2  0  0  0  0  0  0  0  0  0
   17.2092   14.5694    3.7965 N   0  0  0  0  0  0  0  0  0  0  0  0
   18.8287   14.0131    2.0141 C   0  0  1  0  0  0  0  0  0  0  0  0
   19.7246   14.9413    2.5409 O   0  0  0  0  0  0  0  0  0  0  0  0
   19.5563   12.7876    1.3669 C   0  0  2  0  0  0  0  0  0  0  0  0
   20.3981   13.2196    0.3190 O   0  0  0  0  0  0  0  0  0  0  0  0
   18.5247   11.7606    0.8092 C   0  0  2  0  0  0  0  0  0  0  0  0
   17.6703   11.3522    1.8815 O   0  0  0  0  0  0  0  0  0  0  0  0
   19.2163   10.5015    0.1912 C   0  0  0  0  0  0  0  0  0  0  0  0
   20.1054   10.8416   -0.8647 N   0  0  0  0  0  0  0  0  0  0  0  0
   12.9092   12.5097   -1.2185 C   0  0  2  0  0  0  0  0  0  0  0  0
   11.9768   11.8221   -2.1204 N   0  0  0  0  0  0  0  0  0  0  0  0
   14.4348   12.1882   -1.6676 C   0  0  0  0  0  0  0  0  0  0  0  0
   15.4357   12.9204   -0.6830 C   0  0  2  0  0  0  0  0  0  0  0  0
   16.8368   12.6345   -1.0392 N   0  0  0  0  0  0  0  0  0  0  0  0
   15.1612   12.4477    0.7846 C   0  0  2  0  0  0  0  0  0  0  0  0
   13.6792   12.7374    1.1940 C   0  0  2  0  0  0  0  0  0  0  0  0
   13.5259   12.2534    2.5510 O   0  0  0  0  0  0  0  0  0  0  0  0
   12.7052   12.0021    0.2183 C   0  0  1  0  0  0  0  0  0  0  0  0
   11.4011   12.2881    0.5967 O   0  0  0  0  0  0  0  0  0  0  0  0
   14.2530   11.2601    3.1175 C   0  0  1  0  0  0  0  0  0  0  0  0
   13.7515   10.9532    4.5527 C   0  0  2  0  0  0  0  0  0  0  0  0
   14.2983   11.8033    5.5188 O   0  0  0  0  0  0  0  0  0  0  0  0
   14.0757    9.4721    4.6160 C   0  0  1  0  0  0  0  0  0  0  0  0
   13.7911    8.8971    3.2214 C   0  0  2  0  0  0  0  0  0  0  0  0
   14.2114    9.9924    2.4082 O   0  0  0  0  0  0  0  0  0  0  0  0
   12.2999    8.5040    2.9445 C   0  0  0  0  0  0  0  0  0  0  0  0
   12.2197    8.0449    1.5690 O   0  0  0  0  0  0  0  0  0  0  0  0
   16.1740    8.1612    4.6308 C   0  0  2  0  0  0  0  0  0  0  0  0
   15.5101    9.3439    4.9835 O   0  0  0  0  0  0  0  0  0  0  0  0
   15.4888    6.8911    5.2993 C   0  0  1  0  0  0  0  0  0  0  0  0
   21.0078    6.3974    4.5505 N   0  0  0  0  0  0  0  0  0  0  0  0
   16.3447    5.5959    4.8447 C   0  0  1  0  0  0  0  0  0  0  0  0
   16.3327    5.5311    3.3304 O   0  0  0  0  0  0  0  0  0  0  0  0
   17.8655    5.7203    5.3908 C   0  0  2  0  0  0  0  0  0  0  0  0
   17.8510    5.7709    6.8377 O   0  0  0  0  0  0  0  0  0  0  0  0
   18.5212    7.0516    4.7144 C   0  0  1  0  0  0  0  0  0  0  0  0
   17.6726    8.2488    5.0437 O   0  0  0  0  0  0  0  0  0  0  0  0
   19.9969    7.2960    5.1876 C   0  0  0  0  0  0  0  0  0  0  0  0
   15.4279    7.0642    6.7883 N   0  0  0  0  0  0  0  0  0  0  0  0
  1  2  1  6  0  0  0
  1  3  1  0  0  0  0
  1 10  1  0  0  0  0
  3  4  1  6  0  0  0
  3  5  1  0  0  0  0
  5  6  1  1  0  0  0
  5  7  1  0  0  0  0
  7  8  1  6  0  0  0
  7  9  1  0  0  0  0
  9 10  1  0  0  0  0
  9 11  1  1  0  0  0
 11 12  1  0  0  0  0
 13 14  1  6  0  0  0
 13 15  1  0  0  0  0
 13 21  1  0  0  0  0
 16 15  1  0  0  0  0
 16 17  1  6  0  0  0
 18  2  1  1  0  0  0
 18 16  1  0  0  0  0
 19 18  1  0  0  0  0
 19 20  1  1  0  0  0
 21 19  1  0  0  0  0
 21 22  1  1  0  0  0
 23 20  1  6  0  0  0
 23 24  1  0  0  0  0
 23 28  1  0  0  0  0
 24 25  1  1  0  0  0
 24 26  1  0  0  0  0
 26 27  1  0  0  0  0
 26 32  1  6  0  0  0
 27 28  1  0  0  0  0
 27 29  1  1  0  0  0
 29 30  1  0  0  0  0
 31 32  1  1  0  0  0
 31 40  1  0  0  0  0
 33 31  1  0  0  0  0
 33 42  1  1  0  0  0
 35 33  1  0  0  0  0
 35 36  1  6  0  0  0
 37 35  1  0  0  0  0
 37 38  1  1  0  0  0
 37 39  1  0  0  0  0
 39 40  1  0  0  0  0
 39 41  1  1  0  0  0
 41 34  1  0  0  0  0
M  END
>  <CHROM.1>
170.01959032,-58.41509189,-125.51318760,-26.56976656,-176.42951161,-156.62039176
177.36479739,-59.86873821,76.30277856,16.12425646,10.44464789,2.57881542
-1.80184541,0.13326566,2.48675561

>  <Name>
2et4_lig

>  <RI>
0

>  <Rbt.Current_Directory>
/home/itssahil/PROJECTS/Mol_Feturizer/New_Systems/rnas/2et4

>  <Rbt.Executable>
rbdock ($Id: //depot/dev/client3/rdock/2013.1/src/exe/rbdock.cxx#4 $)

>  <Rbt.Library>
libRbt.so (2013.1, Build901 2013/11/27)

>  <Rbt.Parameter_File>
/export/apps/rDock/src/rDock_2013.1_src/data/scripts/dock_solv.prm

>  <Rbt.Receptor>
prm/blind_docking_80.prm

>  <SCORE>
4.8976

>  <SCORE.INTER>
-10.3938

>  <SCORE.INTER.CONST>
1

>  <SCORE.INTER.POLAR>
-0.395387

>  <SCORE.INTER.ROT>
9

>  <SCORE.INTER.SOLV>
34.9875

>  <SCORE.INTER.VDW>
-26.8737

>  <SCORE.INTER.norm>
-0.247471

>  <SCORE.INTRA>
0.733577

>  <SCORE.INTRA.DIHEDRAL>
-6.41045

>  <SCORE.INTRA.DIHEDRAL.0>
21.6909

>  <SCORE.INTRA.POLAR>
0

>  <SCORE.INTRA.POLAR.0>
0

>  <SCORE.INTRA.REPUL>
0

>  <SCORE.INTRA.REPUL.0>
0

>  <SCORE.INTRA.SOLV>
1.21366

>  <SCORE.INTRA.SOLV.lig_0>
-116.606

>  <SCORE.INTRA.VDW>
3.33198

>  <SCORE.INTRA.VDW.0>
-6.01229

>  <SCORE.INTRA.norm>
0.0174661

>  <SCORE.RESTR>
14.5578

>  <SCORE.RESTR.CAVITY>
14.5578

>  <SCORE.RESTR.norm>
0.346614

>  <SCORE.SYSTEM>
0

>  <SCORE.SYSTEM.CONST>
0

>  <SCORE.SYSTEM.DIHEDRAL>
0

>  <SCORE.SYSTEM.SOLV>
0

>  <SCORE.SYSTEM.norm>
0

>  <SCORE.heavy>
42

>  <SCORE.norm>
0.116609

>  <RMSD>
8.576

$$$$
2et4_lig
 OpenBabel11021811423D
libRbt.so/2013.1/901 2013/11/27
 42 45  0  0  0  0  0  0  0  0999 V2000
    9.1994    7.4093   10.8780 C   0  0  2  0  0  0  0  0  0  0  0  0
    8.8242    6.3434   10.0032 O   0  0  0  0  0  0  0  0  0  0  0  0
    9.4878    8.6479    9.9917 C   0  0  2  0  0  0  0  0  0  0  0  0
    8.3453    8.9940    9.1851 N   0  0  0  0  0  0  0  0  0  0  0  0
   10.7343    8.3652    9.1044 C   0  0  1  0  0  0  0  0  0  0  0  0
   11.0010    9.4860    8.3206 O   0  0  0  0  0  0  0  0  0  0  0  0
   11.9314    8.0002   10.0445 C   0  0  2  0  0  0  0  0  0  0  0  0
   13.0858    7.7280    9.2785 O   0  0  0  0  0  0  0  0  0  0  0  0
   11.5899    6.7575   10.9213 C   0  0  2  0  0  0  0  0  0  0  0  0
   10.4073    7.0470   11.6726 O   0  0  0  0  0  0  0  0  0  0  0  0
   12.7490    6.3886   11.9040 C   0  0  0  0  0  0  0  0  0  0  0  0
   12.4619    5.2175   12.6571 N   0  0  0  0  0  0  0  0  0  0  0  0
    8.8860    2.7984   12.4697 C   0  0  2  0  0  0  0  0  0  0  0  0
    8.5690    1.4524   12.9632 N   0  0  0  0  0  0  0  0  0  0  0  0
    7.5391    3.7028   12.4579 C   0  0  0  0  0  0  0  0  0  0  0  0
    7.8839    5.1484   11.9113 C   0  0  2  0  0  0  0  0  0  0  0  0
    6.6811    5.9983   11.8592 N   0  0  0  0  0  0  0  0  0  0  0  0
    8.5034    5.0287   10.4780 C   0  0  2  0  0  0  0  0  0  0  0  0
    9.7843    4.1306   10.4991 C   0  0  2  0  0  0  0  0  0  0  0  0
   10.2675    4.0722    9.1345 O   0  0  0  0  0  0  0  0  0  0  0  0
    9.4258    2.7066   11.0330 C   0  0  1  0  0  0  0  0  0  0  0  0
   10.5813    1.9383   11.0538 O   0  0  0  0  0  0  0  0  0  0  0  0
   10.9264    5.0664    8.4913 C   0  0  1  0  0  0  0  0  0  0  0  0
   11.9105    4.4913    7.4394 C   0  0  2  0  0  0  0  0  0  0  0  0
   13.1454    4.1267    7.9846 O   0  0  0  0  0  0  0  0  0  0  0  0
   11.8657    5.6142    6.4197 C   0  0  1  0  0  0  0  0  0  0  0  0
   10.4180    6.1236    6.3861 C   0  0  2  0  0  0  0  0  0  0  0  0
   10.0745    5.9934    7.7655 O   0  0  0  0  0  0  0  0  0  0  0  0
    9.4402    5.3191    5.4634 C   0  0  0  0  0  0  0  0  0  0  0  0
    8.2010    5.1361    6.1982 O   0  0  0  0  0  0  0  0  0  0  0  0
   13.6929    7.2082    5.9276 C   0  0  2  0  0  0  0  0  0  0  0  0
   12.8110    6.6676    6.8731 O   0  0  0  0  0  0  0  0  0  0  0  0
   14.7283    8.2069    6.6061 C   0  0  1  0  0  0  0  0  0  0  0  0
   11.3684    9.4837    3.1532 N   0  0  0  0  0  0  0  0  0  0  0  0
   15.6742    8.7828    5.4270 C   0  0  1  0  0  0  0  0  0  0  0  0
   16.3572    7.6084    4.7549 O   0  0  0  0  0  0  0  0  0  0  0  0
   14.7797    9.6036    4.3535 C   0  0  2  0  0  0  0  0  0  0  0  0
   14.1462   10.7240    5.0165 O   0  0  0  0  0  0  0  0  0  0  0  0
   13.7077    8.5576    3.7080 C   0  0  1  0  0  0  0  0  0  0  0  0
   12.8921    7.9358    4.8080 O   0  0  0  0  0  0  0  0  0  0  0  0
   12.7602    9.2436    2.6626 C   0  0  0  0  0  0  0  0  0  0  0  0
   13.9928    9.2824    7.3498 N   0  0  0  0  0  0  0  0  0  0  0  0
  1  2  1  6  0  0  0
  1  3  1  0  0  0  0
  1 10  1  0  0  0  0
  3  4  1  6  0  0  0
  3  5  1  0  0  0  0
  5  6  1  1  0  0  0
  5  7  1  0  0  0  0
  7  8  1  6  0  0  0
  7  9  1  0  0  0  0
  9 10  1  0  0  0  0
  9 11  1  1  0  0  0
 11 12  1  0  0  0  0
 13 14  1  6  0  0  0
 13 15  1  0  0  0  0
 13 21  1  0  0  0  0
 16 15  1  0  0  0  0
 16 17  1  6  0  0  0
 18  2  1  1  0  0  0
 18 16  1  0  0  0  0
 19 18  1  0  0  0  0
 19 20  1  6  0  0  0
 21 19  1  0  0  0  0
 21 22  1  1  0  0  0
 23 20  1  6  0  0  0
 23 24  1  0  0  0  0
 23 28  1  0  0  0  0
 24 25  1  1  0  0  0
 24 26  1  0  0  0  0
 26 27  1  0  0  0  0
 26 32  1  1  0  0  0
 27 28  1  0  0  0  0
 27 29  1  6  0  0  0
 29 30  1  0  0  0  0
 31 32  1  1  0  0  0
 31 40  1  0  0  0  0
 33 31  1  0  0  0  0
 33 42  1  6  0  0  0
 35 33  1  0  0  0  0
 35 36  1  6  0  0  0
 37 35  1  0  0  0  0
 37 38  1  1  0  0  0
 37 39  1  0  0  0  0
 39 40  1  0  0  0  0
 39 41  1  6  0  0  0
 41 34  1  0  0  0  0
M  END
>  <CHROM.1>
179.02704262,-177.18760875,30.48219907,75.64316382,149.81615042,133.44043457
136.34088343,-174.17462173,-105.26131241,11.22692643,6.49149888,8.41718700
2.41607268,-0.81741435,2.84951487

>  <Name>
2et4_lig

>  <RI>
3.65815e+07

>  <Rbt.Current_Directory>
/home/itssahil/PROJECTS/Mol_Feturizer/New_Systems/rnas/2et4

>  <Rbt.Executable>
rbdock ($Id: //depot/dev/client3/rdock/2013.1/src/exe/rbdock.cxx#4 $)

>  <Rbt.Library>
libRbt.so (2013.1, Build901 2013/11/27)

>  <Rbt.Parameter_File>
/export/apps/rDock/src/rDock_2013.1_src/data/scripts/dock_solv.prm

>  <Rbt.Receptor>
prm/pocket_docking_4.prm

>  <SCORE>
3.4823

>  <SCORE.INTER>
-1.30455

>  <SCORE.INTER.CONST>
1

>  <SCORE.INTER.POLAR>
-1.16986

>  <SCORE.INTER.ROT>
9

>  <SCORE.INTER.SOLV>
17.579

>  <SCORE.INTER.VDW>
-12.4298

>  <SCORE.INTER.norm>
-0.0310607

>  <SCORE.INTRA>
4.78685

>  <SCORE.INTRA.DIHEDRAL>
2.00755

>  <SCORE.INTRA.DIHEDRAL.0>
21.6909

>  <SCORE.INTRA.POLAR>
0

>  <SCORE.INTRA.POLAR.0>
0

>  <SCORE.INTRA.REPUL>
0.591455

>  <SCORE.INTRA.REPUL.0>
0

>  <SCORE.INTRA.SOLV>
3.84903

>  <SCORE.INTRA.SOLV.lig_0>
-116.606

>  <SCORE.INTRA.VDW>
-1.09872

>  <SCORE.INTRA.VDW.0>
-6.01229

>  <SCORE.INTRA.norm>
0.113973

>  <SCORE.RESTR>
0

>  <SCORE.RESTR.CAVITY>
0

>  <SCORE.RESTR.norm>
0

>  <SCORE.SYSTEM>
0

>  <SCORE.SYSTEM.CONST>
0

>  <SCORE.SYSTEM.DIHEDRAL>
0

>  <SCORE.SYSTEM.SOLV>
0

>  <SCORE.SYSTEM.norm>
0

>  <SCORE.heavy>
42

>  <SCORE.norm>
0.082912

>  <RMSD>
8.579

$$$$
2et4_lig
 OpenBabel11021811423D
libRbt.so/2013.1/901 2013/11/27
 42 45  0  0  0  0  0  0  0  0999 V2000
   11.4612    6.5784    5.7796 C   0  0  2  0  0  0  0  0  0  0  0  0
   12.7675    6.9740    5.3560 O   0  0  0  0  0  0  0  0  0  0  0  0
   11.2452    7.1611    7.1996 C   0  0  2  0  0  0  0  0  0  0  0  0
   11.4003    8.5934    7.2088 N   0  0  0  0  0  0  0  0  0  0  0  0
   12.2377    6.4842    8.1886 C   0  0  1  0  0  0  0  0  0  0  0  0
   12.0304    6.9981    9.4672 O   0  0  0  0  0  0  0  0  0  0  0  0
   12.0108    4.9368    8.1271 C   0  0  2  0  0  0  0  0  0  0  0  0
   12.8986    4.2798    9.0067 O   0  0  0  0  0  0  0  0  0  0  0  0
   12.2288    4.4008    6.6796 C   0  0  2  0  0  0  0  0  0  0  0  0
   11.3351    5.0934    5.8031 O   0  0  0  0  0  0  0  0  0  0  0  0
   11.9697    2.8624    6.5717 C   0  0  0  0  0  0  0  0  0  0  0  0
   10.6043    2.5316    6.7893 N   0  0  0  0  0  0  0  0  0  0  0  0
   14.2835   10.2374    2.9672 C   0  0  2  0  0  0  0  0  0  0  0  0
   14.6097   11.6047    2.5433 N   0  0  0  0  0  0  0  0  0  0  0  0
   12.6766   10.0907    3.1361 C   0  0  0  0  0  0  0  0  0  0  0  0
   12.3319    8.6188    3.6072 C   0  0  2  0  0  0  0  0  0  0  0  0
   10.8808    8.4476    3.7986 N   0  0  0  0  0  0  0  0  0  0  0  0
   13.0771    8.3144    4.9506 C   0  0  2  0  0  0  0  0  0  0  0  0
   14.6227    8.4878    4.7808 C   0  0  2  0  0  0  0  0  0  0  0  0
   15.2126    8.2005    6.0725 O   0  0  0  0  0  0  0  0  0  0  0  0
   14.9464    9.9465    4.3236 C   0  0  1  0  0  0  0  0  0  0  0  0
   16.3201   10.0664    4.1679 O   0  0  0  0  0  0  0  0  0  0  0  0
   16.1765    7.2776    6.3081 C   0  0  1  0  0  0  0  0  0  0  0  0
   15.6139    5.8388    6.1704 C   0  0  2  0  0  0  0  0  0  0  0  0
   14.9928    5.3785    7.3355 O   0  0  0  0  0  0  0  0  0  0  0  0
   16.8639    5.1309    5.6812 C   0  0  1  0  0  0  0  0  0  0  0  0
   17.5864    6.1075    4.7426 C   0  0  2  0  0  0  0  0  0  0  0  0
   17.3153    7.3411    5.4077 O   0  0  0  0  0  0  0  0  0  0  0  0
   17.0785    6.1204    3.2605 C   0  0  0  0  0  0  0  0  0  0  0  0
   17.3690    4.8167    2.6902 O   0  0  0  0  0  0  0  0  0  0  0  0
   18.8465    4.0388    6.6801 C   0  0  2  0  0  0  0  0  0  0  0  0
   17.6867    4.8012    6.8741 O   0  0  0  0  0  0  0  0  0  0  0  0
   19.4786    3.5832    8.0667 C   0  0  1  0  0  0  0  0  0  0  0  0
   23.4330    4.4963    4.3432 N   0  0  0  0  0  0  0  0  0  0  0  0
   20.8133    2.7360    7.7241 C   0  0  1  0  0  0  0  0  0  0  0  0
   20.4148    1.5601    6.8547 O   0  0  0  0  0  0  0  0  0  0  0  0
   21.8788    3.6764    6.9452 C   0  0  2  0  0  0  0  0  0  0  0  0
   22.2506    4.7854    7.7984 O   0  0  0  0  0  0  0  0  0  0  0  0
   21.1824    4.1532    5.5497 C   0  0  1  0  0  0  0  0  0  0  0  0
   19.8849    4.8510    5.8518 O   0  0  0  0  0  0  0  0  0  0  0  0
   22.1135    5.0963    4.7101 C   0  0  0  0  0  0  0  0  0  0  0  0
   19.7465    4.7822    8.9278 N   0  0  0  0  0  0  0  0  0  0  0  0
  1  2  1  1  0  0  0
  1  3  1  0  0  0  0
  1 10  1  0  0  0  0
  3  4  1  6  0  0  0
  3  5  1  0  0  0  0
  5  6  1  1  0  0  0
  5  7  1  0  0  0  0
  7  8  1  1  0  0  0
  7  9  1  0  0  0  0
  9 10  1  0  0  0  0
  9 11  1  1  0  0  0
 11 12  1  0  0  0  0
 13 14  1  1  0  0  0
 13 15  1  0  0  0  0
 13 21  1  0  0  0  0
 16 15  1  0  0  0  0
 16 17  1  1  0  0  0
 18  2  1  6  0  0  0
 18 16  1  0  0  0  0
 19 18  1  0  0  0  0
 19 20  1  1  0  0  0
 21 19  1  0  0  0  0
 21 22  1  6  0  0  0
 23 20  1  6  0  0  0
 23 24  1  0  0  0  0
 23 28  1  0  0  0  0
 24 25  1  1  0  0  0
 24 26  1  0  0  0  0
 26 27  1  0  0  0  0
 26 32  1  1  0  0  0
 27 28  1  0  0  0  0
 27 29  1  6  0  0  0
 29 30  1  0  0  0  0
 31 32  1  1  0  0  0
 31 40  1  0  0  0  0
 33 31  1  0  0  0  0
 33 42  1  1  0  0  0
 35 33  1  0  0  0  0
 35 36  1  6  0  0  0
 37 35  1  0  0  0  0
 37 38  1  1  0  0  0
 37 39  1  0  0  0  0
 39 40  1  0  0  0  0
 39 41  1  1  0  0  0
 41 34  1  0  0  0  0
M  END
>  <CHROM.1>
-74.02056459,66.65876374,-67.86009411,124.62445845,-70.76893247,174.74255714
-64.86537035,-170.98633829,58.37332347,15.78198496,6.11319899,5.93111808
2.80688786,0.16972477,-0.64791833

>  <Name>
2et4_lig

>  <RI>
0

>  <Rbt.Current_Directory>
/home/itssahil/PROJECTS/Mol_Feturizer/New_Systems/rnas/2et4

>  <Rbt.Executable>
rbdock ($Id: //depot/dev/client3/rdock/2013.1/src/exe/rbdock.cxx#4 $)

>  <Rbt.Library>
libRbt.so (2013.1, Build901 2013/11/27)

>  <Rbt.Parameter_File>
/export/apps/rDock/src/rDock_2013.1_src/data/scripts/dock_solv.prm

>  <Rbt.Receptor>
prm/pocket_docking_8.prm

>  <SCORE>
-12.2273

>  <SCORE.INTER>
-7.60629

>  <SCORE.INTER.CONST>
1

>  <SCORE.INTER.POLAR>
-0.894427

>  <SCORE.INTER.ROT>
9

>  <SCORE.INTER.SOLV>
17.0473

>  <SCORE.INTER.VDW>
-17.3719

>  <SCORE.INTER.norm>
-0.181102

>  <SCORE.INTRA>
-4.62104

>  <SCORE.INTRA.DIHEDRAL>
-11.8477

>  <SCORE.INTRA.DIHEDRAL.0>
21.6909

>  <SCORE.INTRA.POLAR>
0

>  <SCORE.INTRA.POLAR.0>
0

>  <SCORE.INTRA.REPUL>
0

>  <SCORE.INTRA.REPUL.0>
0

>  <SCORE.INTRA.SOLV>
2.0045

>  <SCORE.INTRA.SOLV.lig_0>
-116.606

>  <SCORE.INTRA.VDW>
0.300569

>  <SCORE.INTRA.VDW.0>
-6.01229

>  <SCORE.INTRA.norm>
-0.110025

>  <SCORE.RESTR>
0

>  <SCORE.RESTR.CAVITY>
0

>  <SCORE.RESTR.norm>
0

>  <SCORE.SYSTEM>
0

>  <SCORE.SYSTEM.CONST>
0

>  <SCORE.SYSTEM.DIHEDRAL>
0

>  <SCORE.SYSTEM.SOLV>
0

>  <SCORE.SYSTEM.norm>
0

>  <SCORE.heavy>
42

>  <SCORE.norm>
-0.291127

>  <RMSD>
8.591

$$$$
2et4_lig
 OpenBabel11021811423D
libRbt.so/2013.1/901 2013/11/27
 42 45  0  0  0  0  0  0  0  0999 V2000
   12.3731    8.8185    9.3199 C   0  0  2  0  0  0  0  0  0  0  0  0
   12.6405    8.3941   10.6580 O   0  0  0  0  0  0  0  0  0  0  0  0
   12.1952   10.3579    9.3558 C   0  0  2  0  0  0  0  0  0  0  0  0
   13.3591   11.0086    9.9015 N   0  0  0  0  0  0  0  0  0  0  0  0
   10.9211   10.7085   10.1774 C   0  0  1  0  0  0  0  0  0  0  0  0
   10.7547   12.0919   10.1943 O   0  0  0  0  0  0  0  0  0  0  0  0
    9.7022    9.9721    9.5279 C   0  0  2  0  0  0  0  0  0  0  0  0
    8.5218   10.2572   10.2483 O   0  0  0  0  0  0  0  0  0  0  0  0
    9.9325    8.4306    9.5053 C   0  0  2  0  0  0  0  0  0  0  0  0
   11.1425    8.1660    8.7893 O   0  0  0  0  0  0  0  0  0  0  0  0
    8.7512    7.6645    8.8248 C   0  0  0  0  0  0  0  0  0  0  0  0
    8.9699    6.2601    8.7931 N   0  0  0  0  0  0  0  0  0  0  0  0
   14.0326    4.9685   12.8902 C   0  0  2  0  0  0  0  0  0  0  0  0
   14.3106    3.5719   13.2477 N   0  0  0  0  0  0  0  0  0  0  0  0
   12.4325    5.1770   12.7213 C   0  0  0  0  0  0  0  0  0  0  0  0
   12.1397    6.6809   12.3217 C   0  0  2  0  0  0  0  0  0  0  0  0
   10.6963    6.9098   12.1323 N   0  0  0  0  0  0  0  0  0  0  0  0
   12.9029    7.0257   10.9983 C   0  0  2  0  0  0  0  0  0  0  0  0
   14.4409    6.7926   11.1665 C   0  0  2  0  0  0  0  0  0  0  0  0
   15.0480    7.1231    9.8932 O   0  0  0  0  0  0  0  0  0  0  0  0
   14.7131    5.3033   11.5528 C   0  0  1  0  0  0  0  0  0  0  0  0
   16.0811    5.1299   11.7086 O   0  0  0  0  0  0  0  0  0  0  0  0
   16.0218    6.4090    9.2784 C   0  0  1  0  0  0  0  0  0  0  0  0
   15.4169    5.2635    8.4255 C   0  0  2  0  0  0  0  0  0  0  0  0
   15.1443    4.1109    9.1687 O   0  0  0  0  0  0  0  0  0  0  0  0
   16.4629    5.1940    7.3283 C   0  0  1  0  0  0  0  0  0  0  0  0
   16.9066    6.6367    7.0483 C   0  0  2  0  0  0  0  0  0  0  0  0
   16.8587    7.1744    8.3698 O   0  0  0  0  0  0  0  0  0  0  0  0
   15.9985    7.4424    6.0578 C   0  0  0  0  0  0  0  0  0  0  0  0
   16.0522    6.7680    4.7727 O   0  0  0  0  0  0  0  0  0  0  0  0
   18.3948    3.7118    6.8898 C   0  0  2  0  0  0  0  0  0  0  0  0
   17.5847    4.3596    7.8323 O   0  0  0  0  0  0  0  0  0  0  0  0
   17.7970    2.2932    6.4900 C   0  0  1  0  0  0  0  0  0  0  0  0
   22.8057    4.1300    7.6300 N   0  0  0  0  0  0  0  0  0  0  0  0
   18.8171    1.6321    5.4228 C   0  0  1  0  0  0  0  0  0  0  0  0
   18.9300    2.5687    4.2364 O   0  0  0  0  0  0  0  0  0  0  0  0
   20.2692    1.4153    6.1091 C   0  0  2  0  0  0  0  0  0  0  0  0
   20.1368    0.5111    7.2321 O   0  0  0  0  0  0  0  0  0  0  0  0
   20.8320    2.8846    6.5385 C   0  0  1  0  0  0  0  0  0  0  0  0
   19.8391    3.5533    7.4491 O   0  0  0  0  0  0  0  0  0  0  0  0
   22.2324    2.8050    7.2412 C   0  0  0  0  0  0  0  0  0  0  0  0
   17.6024    1.4531    7.7177 N   0  0  0  0  0  0  0  0  0  0  0  0
  1  2  1  1  0  0  0
  1  3  1  0  0  0  0
  1 10  1  0  0  0  0
  3  4  1  1  0  0  0
  3  5  1  0  0  0  0
  5  6  1  6  0  0  0
  5  7  1  0  0  0  0
  7  8  1  1  0  0  0
  7  9  1  0  0  0  0
  9 10  1  0  0  0  0
  9 11  1  6  0  0  0
 11 12  1  0  0  0  0
 13 14  1  6  0  0  0
 13 15  1  0  0  0  0
 13 21  1  0  0  0  0
 16 15  1  0  0  0  0
 16 17  1  6  0  0  0
 18  2  1  1  0  0  0
 18 16  1  0  0  0  0
 19 18  1  0  0  0  0
 19 20  1  6  0  0  0
 21 19  1  0  0  0  0
 21 22  1  1  0  0  0
 23 20  1  6  0  0  0
 23 24  1  0  0  0  0
 23 28  1  0  0  0  0
 24 25  1  1  0  0  0
 24 26  1  0  0  0  0
 26 27  1  0  0  0  0
 26 32  1  1  0  0  0
 27 28  1  0  0  0  0
 27 29  1  6  0  0  0
 29 30  1  0  0  0  0
 31 32  1  1  0  0  0
 31 40  1  0  0  0  0
 33 31  1  0  0  0  0
 33 42  1  1  0  0  0
 35 33  1  0  0  0  0
 35 36  1  6  0  0  0
 37 35  1  0  0  0  0
 37 38  1  1  0  0  0
 37 39  1  0  0  0  0
 39 40  1  0  0  0  0
 39 41  1  1  0  0  0
 41 34  1  0  0  0  0
M  END
>  <CHROM.1>
-177.95157523,179.39674673,-137.94926381,-137.04187782,85.74765261,155.19381263
-62.82120981,-87.31939713,178.80933783,15.01755758,5.98605502,8.91282784
-3.06532709,-0.67086797,2.21866465

>  <Name>
2et4_lig

>  <RI>
0

>  <Rbt.Current_Directory>
/home/itssahil/PROJECTS/Mol_Feturizer/New_Systems/rnas/2et4

>  <Rbt.Executable>
rbdock ($Id: //depot/dev/client3/rdock/2013.1/src/exe/rbdock.cxx#4 $)

>  <Rbt.Library>
libRbt.so (2013.1, Build901 2013/11/27)

>  <Rbt.Parameter_File>
/export/apps/rDock/src/rDock_2013.1_src/data/scripts/dock_solv.prm

>  <Rbt.Receptor>
prm/pocket_docking_6.prm

>  <SCORE>
-12.2683

>  <SCORE.INTER>
-13.4417

>  <SCORE.INTER.CONST>
1

>  <SCORE.INTER.POLAR>
-3.15936

>  <SCORE.INTER.ROT>
9

>  <SCORE.INTER.SOLV>
20.2177

>  <SCORE.INTER.VDW>
-14.7692

>  <SCORE.INTER.norm>
-0.320041

>  <SCORE.INTRA>
1.1417

>  <SCORE.INTRA.DIHEDRAL>
-1.39522

>  <SCORE.INTRA.DIHEDRAL.0>
21.6909

>  <SCORE.INTRA.POLAR>
0

>  <SCORE.INTRA.POLAR.0>
0

>  <SCORE.INTRA.REPUL>
0

>  <SCORE.INTRA.REPUL.0>
0

>  <SCORE.INTRA.SOLV>
-1.42793

>  <SCORE.INTRA.SOLV.lig_0>
-116.606

>  <SCORE.INTRA.VDW>
2.55327

>  <SCORE.INTRA.VDW.0>
-6.01229

>  <SCORE.INTRA.norm>
0.0271833

>  <SCORE.RESTR>
0.0317476

>  <SCORE.RESTR.CAVITY>
0.0317476

>  <SCORE.RESTR.norm>
0.000755896

>  <SCORE.SYSTEM>
0

>  <SCORE.SYSTEM.CONST>
0

>  <SCORE.SYSTEM.DIHEDRAL>
0

>  <SCORE.SYSTEM.SOLV>
0

>  <SCORE.SYSTEM.norm>
0

>  <SCORE.heavy>
42

>  <SCORE.norm>
-0.292102

>  <RMSD>
8.594

$$$$
2et4_lig
 OpenBabel11021811423D
libRbt.so/2013.1/901 2013/11/27
 42 45  0  0  0  0  0  0  0  0999 V2000
   16.4660   11.6761    1.8081 C   0  0  2  0  0  0  0  0  0  0  0  0
   15.5252   12.7476    1.9025 O   0  0  0  0  0  0  0  0  0  0  0  0
   17.3631   11.7430    3.0704 C   0  0  2  0  0  0  0  0  0  0  0  0
   16.5793   11.6628    4.2766 N   0  0  0  0  0  0  0  0  0  0  0  0
   18.2028   13.0525    3.0346 C   0  0  1  0  0  0  0  0  0  0  0  0
   19.0200   13.1022    4.1621 O   0  0  0  0  0  0  0  0  0  0  0  0
   19.0265   13.0693    1.7037 C   0  0  2  0  0  0  0  0  0  0  0  0
   19.8004   14.2476    1.6256 O   0  0  0  0  0  0  0  0  0  0  0  0
   18.0826   12.9897    0.4656 C   0  0  2  0  0  0  0  0  0  0  0  0
   17.2945   11.8008    0.5753 O   0  0  0  0  0  0  0  0  0  0  0  0
   18.8743   12.9624   -0.8827 C   0  0  0  0  0  0  0  0  0  0  0  0
   18.0135   13.0314   -2.0120 N   0  0  0  0  0  0  0  0  0  0  0  0
   12.3383   14.7030   -0.2596 C   0  0  2  0  0  0  0  0  0  0  0  0
   11.4616   15.1014   -1.3679 N   0  0  0  0  0  0  0  0  0  0  0  0
   13.8681   15.1224   -0.6004 C   0  0  0  0  0  0  0  0  0  0  0  0
   14.8108   14.6774    0.5914 C   0  0  2  0  0  0  0  0  0  0  0  0
   16.2175   15.0166    0.3122 N   0  0  0  0  0  0  0  0  0  0  0  0
   14.6781   13.1325    0.8111 C   0  0  2  0  0  0  0  0  0  0  0  0
   13.1937   12.7389    1.1100 C   0  0  2  0  0  0  0  0  0  0  0  0
   13.1767   11.3004    1.2812 O   0  0  0  0  0  0  0  0  0  0  0  0
   12.2784   13.1775   -0.0780 C   0  0  1  0  0  0  0  0  0  0  0  0
   10.9688   12.8288    0.2207 O   0  0  0  0  0  0  0  0  0  0  0  0
   13.8585   10.6141    2.2302 C   0  0  1  0  0  0  0  0  0  0  0  0
   13.4815   11.1074    3.6515 C   0  0  2  0  0  0  0  0  0  0  0  0
   14.2062   12.2342    4.0516 O   0  0  0  0  0  0  0  0  0  0  0  0
   13.6646    9.8113    4.4192 C   0  0  1  0  0  0  0  0  0  0  0  0
   13.1816    8.6807    3.4998 C   0  0  2  0  0  0  0  0  0  0  0  0
   13.6198    9.1807    2.2365 O   0  0  0  0  0  0  0  0  0  0  0  0
   11.6385    8.4098    3.5160 C   0  0  0  0  0  0  0  0  0  0  0  0
   10.9990    9.4958    2.7944 O   0  0  0  0  0  0  0  0  0  0  0  0
   15.7279    8.4482    4.4965 C   0  0  2  0  0  0  0  0  0  0  0  0
   15.1100    9.6822    4.7400 O   0  0  0  0  0  0  0  0  0  0  0  0
   15.0064    7.2730    5.2890 C   0  0  1  0  0  0  0  0  0  0  0  0
   20.4571    6.3911    4.7420 N   0  0  0  0  0  0  0  0  0  0  0  0
   15.8110    5.9104    4.9532 C   0  0  1  0  0  0  0  0  0  0  0  0
   15.7791    5.7021    3.4522 O   0  0  0  0  0  0  0  0  0  0  0  0
   17.3414    6.0314    5.4724 C   0  0  2  0  0  0  0  0  0  0  0  0
   17.3455    6.2201    6.9079 O   0  0  0  0  0  0  0  0  0  0  0  0
   18.0355    7.2677    4.6664 C   0  0  1  0  0  0  0  0  0  0  0  0
   17.2333    8.5207    4.8868 O   0  0  0  0  0  0  0  0  0  0  0  0
   19.5242    7.5028    5.1020 C   0  0  0  0  0  0  0  0  0  0  0  0
   14.9689    7.5892    6.7551 N   0  0  0  0  0  0  0  0  0  0  0  0
  1  2  1  1  0  0  0
  1  3  1  0  0  0  0
  1 10  1  0  0  0  0
  3  4  1  1  0  0  0
  3  5  1  0  0  0  0
  5  6  1  1  0  0  0
  5  7  1  0  0  0  0
  7  8  1  6  0  0  0
  7  9  1  0  0  0  0
  9 10  1  0  0  0  0
  9 11  1  6  0  0  0
 11 12  1  0  0  0  0
 13 14  1  6  0  0  0
 13 15  1  0  0  0  0
 13 21  1  0  0  0  0
 16 15  1  0  0  0  0
 16 17  1  6  0  0  0
 18  2  1  1  0  0  0
 18 16  1  0  0  0  0
 19 18  1  0  0  0  0
 19 20  1  6  0  0  0
 21 19  1  0  0  0  0
 21 22  1  1  0  0  0
 23 20  1  6  0  0  0
 23 24  1  0  0  0  0
 23 28  1  0  0  0  0
 24 25  1  1  0  0  0
 24 26  1  0  0  0  0
 26 27  1  0  0  0  0
 26 32  1  6  0  0  0
 27 28  1  0  0  0  0
 27 29  1  6  0  0  0
 29 30  1  0  0  0  0
 31 32  1  1  0  0  0
 31 40  1  0  0  0  0
 33 31  1  0  0  0  0
 33 42  1  1  0  0  0
 35 33  1  0  0  0  0
 35 36  1  6  0  0  0
 37 35  1  0  0  0  0
 37 38  1  1  0  0  0
 37 39  1  0  0  0  0
 39 40  1  0  0  0  0
 39 41  1  1  0  0  0
 41 34  1  0  0  0  0
M  END
>  <CHROM.1>
169.47081086,-173.83138795,-128.95123372,60.86138945,57.16864835,-133.17022766
73.56663152,-57.71123993,66.45006478,15.57452187,10.84280062,2.62391820,-1.83283783
0.09574345,2.52039815

>  <Name>
2et4_lig

>  <RI>
0

>  <Rbt.Current_Directory>
/home/itssahil/PROJECTS/Mol_Feturizer/New_Systems/rnas/2et4

>  <Rbt.Executable>
rbdock ($Id: //depot/dev/client3/rdock/2013.1/src/exe/rbdock.cxx#4 $)

>  <Rbt.Library>
libRbt.so (2013.1, Build901 2013/11/27)

>  <Rbt.Parameter_File>
/export/apps/rDock/src/rDock_2013.1_src/data/scripts/dock_solv.prm

>  <Rbt.Receptor>
prm/blind_docking_80.prm

>  <SCORE>
30.2778

>  <SCORE.INTER>
2.59683

>  <SCORE.INTER.CONST>
1

>  <SCORE.INTER.POLAR>
0

>  <SCORE.INTER.ROT>
9

>  <SCORE.INTER.SOLV>
25.1671

>  <SCORE.INTER.VDW>
-16.2578

>  <SCORE.INTER.norm>
0.0618293

>  <SCORE.INTRA>
4.82355

>  <SCORE.INTRA.DIHEDRAL>
-6.92881

>  <SCORE.INTRA.DIHEDRAL.0>
21.6909

>  <SCORE.INTRA.POLAR>
0

>  <SCORE.INTRA.POLAR.0>
0

>  <SCORE.INTRA.REPUL>
0.0342653

>  <SCORE.INTRA.REPUL.0>
0

>  <SCORE.INTRA.SOLV>
7.46578

>  <SCORE.INTRA.SOLV.lig_0>
-116.606

>  <SCORE.INTRA.VDW>
4.38374

>  <SCORE.INTRA.VDW.0>
-6.01229

>  <SCORE.INTRA.norm>
0.114847

>  <SCORE.RESTR>
22.8574

>  <SCORE.RESTR.CAVITY>
22.8574

>  <SCORE.RESTR.norm>
0.544225

>  <SCORE.SYSTEM>
0

>  <SCORE.SYSTEM.CONST>
0

>  <SCORE.SYSTEM.DIHEDRAL>
0

>  <SCORE.SYSTEM.SOLV>
0

>  <SCORE.SYSTEM.norm>
0

>  <SCORE.heavy>
42

>  <SCORE.norm>
0.720901

>  <RMSD>
8.610

$$$$
2et4_lig
 OpenBabel11021811423D
libRbt.so/2013.1/901 2013/11/27
 42 45  0  0  0  0  0  0  0  0999 V2000
   10.7715    5.8384   12.7216 C   0  0  2  0  0  0  0  0  0  0  0  0
   12.1374    5.6318   13.0873 O   0  0  0  0  0  0  0  0  0  0  0  0
    9.9854    6.1156   14.0285 C   0  0  2  0  0  0  0  0  0  0  0  0
   10.5271    7.2470   14.7372 N   0  0  0  0  0  0  0  0  0  0  0  0
   10.0008    4.8386   14.9174 C   0  0  1  0  0  0  0  0  0  0  0  0
    9.2799    5.0854   16.0841 O   0  0  0  0  0  0  0  0  0  0  0  0
    9.3984    3.6568   14.0865 C   0  0  2  0  0  0  0  0  0  0  0  0
    9.3995    2.4721   14.8547 O   0  0  0  0  0  0  0  0  0  0  0  0
   10.2151    3.4242   12.7794 C   0  0  2  0  0  0  0  0  0  0  0  0
   10.2183    4.6412   12.0272 O   0  0  0  0  0  0  0  0  0  0  0  0
    9.6164    2.2762   11.9025 C   0  0  0  0  0  0  0  0  0  0  0  0
   10.3176    2.1161   10.6762 N   0  0  0  0  0  0  0  0  0  0  0  0
   15.9250    6.0745   11.0592 C   0  0  2  0  0  0  0  0  0  0  0  0
   16.9946    5.8833   10.0718 N   0  0  0  0  0  0  0  0  0  0  0  0
   15.6078    4.6639   11.7952 C   0  0  0  0  0  0  0  0  0  0  0  0
   14.4440    4.8729   12.8484 C   0  0  2  0  0  0  0  0  0  0  0  0
   14.1047    3.6081   13.5243 N   0  0  0  0  0  0  0  0  0  0  0  0
   13.1766    5.4335   12.1189 C   0  0  2  0  0  0  0  0  0  0  0  0
   13.5042    6.7784   11.3897 C   0  0  2  0  0  0  0  0  0  0  0  0
   12.2805    7.2018   10.7397 O   0  0  0  0  0  0  0  0  0  0  0  0
   14.6481    6.5536   10.3494 C   0  0  1  0  0  0  0  0  0  0  0  0
   14.9262    7.7636    9.7296 O   0  0  0  0  0  0  0  0  0  0  0  0
   11.7906    6.6964    9.5818 C   0  0  1  0  0  0  0  0  0  0  0  0
   10.4864    7.4249    9.1651 C   0  0  2  0  0  0  0  0  0  0  0  0
    9.3459    6.9073    9.7867 O   0  0  0  0  0  0  0  0  0  0  0  0
   10.6110    7.3109    7.6571 C   0  0  1  0  0  0  0  0  0  0  0  0
   12.1001    7.4763    7.3226 C   0  0  2  0  0  0  0  0  0  0  0  0
   12.6838    6.8081    8.4410 O   0  0  0  0  0  0  0  0  0  0  0  0
   12.6042    8.9546    7.1987 C   0  0  0  0  0  0  0  0  0  0  0  0
   12.0406    9.5051    5.9788 O   0  0  0  0  0  0  0  0  0  0  0  0
    9.8810    5.7236    5.9052 C   0  0  2  0  0  0  0  0  0  0  0  0
   10.1035    5.9697    7.2668 O   0  0  0  0  0  0  0  0  0  0  0  0
    9.3945    4.2295    5.6587 C   0  0  1  0  0  0  0  0  0  0  0  0
   13.5967    5.2657    3.3759 N   0  0  0  0  0  0  0  0  0  0  0  0
    9.1921    4.0535    4.0635 C   0  0  1  0  0  0  0  0  0  0  0  0
    8.1747    5.0778    3.6019 O   0  0  0  0  0  0  0  0  0  0  0  0
   10.6038    4.2786    3.3002 C   0  0  2  0  0  0  0  0  0  0  0  0
   11.5545    3.2838    3.7505 O   0  0  0  0  0  0  0  0  0  0  0  0
   11.0880    5.8055    3.6065 C   0  0  1  0  0  0  0  0  0  0  0  0
   11.1779    6.0123    5.0935 O   0  0  0  0  0  0  0  0  0  0  0  0
   12.4664    6.1401    2.9361 C   0  0  0  0  0  0  0  0  0  0  0  0
   10.3868    3.2641    6.2369 N   0  0  0  0  0  0  0  0  0  0  0  0
  1  2  1  1  0  0  0
  1  3  1  0  0  0  0
  1 10  1  0  0  0  0
  3  4  1  1  0  0  0
  3  5  1  0  0  0  0
  5  6  1  1  0  0  0
  5  7  1  0  0  0  0
  7  8  1  1  0  0  0
  7  9  1  0  0  0  0
  9 10  1  0  0  0  0
  9 11  1  6  0  0  0
 11 12  1  0  0  0  0
 13 14  1  6  0  0  0
 13 15  1  0  0  0  0
 13 21  1  0  0  0  0
 16 15  1  0  0  0  0
 16 17  1  6  0  0  0
 18  2  1  1  0  0  0
 18 16  1  0  0  0  0
 19 18  1  0  0  0  0
 19 20  1  6  0  0  0
 21 19  1  0  0  0  0
 21 22  1  1  0  0  0
 23 20  1  1  0  0  0
 23 24  1  0  0  0  0
 23 28  1  0  0  0  0
 24 25  1  1  0  0  0
 24 26  1  0  0  0  0
 26 27  1  0  0  0  0
 26 32  1  1  0  0  0
 27 28  1  0  0  0  0
 27 29  1  1  0  0  0
 29 30  1  0  0  0  0
 31 32  1  1  0  0  0
 31 40  1  0  0  0  0
 33 31  1  0  0  0  0
 33 42  1  6  0  0  0
 35 33  1  0  0  0  0
 35 36  1  6  0  0  0
 37 35  1  0  0  0  0
 37 38  1  1  0  0  0
 37 39  1  0  0  0  0
 39 40  1  0  0  0  0
 39 41  1  6  0  0  0
 41 34  1  0  0  0  0
M  END
>  <CHROM.1>
-175.86200605,176.68901052,-165.27793876,-78.00539193,-178.10733973,168.16922911
-70.91210399,177.82017813,-59.66648654,11.57007520,5.54490829,9.40285157
1.53448769,0.49272955,1.67049570

>  <Name>
2et4_lig

>  <RI>
0

>  <Rbt.Current_Directory>
/home/itssahil/PROJECTS/Mol_Feturizer/New_Systems/rnas/2et4

>  <Rbt.Executable>
rbdock ($Id: //depot/dev/client3/rdock/2013.1/src/exe/rbdock.cxx#4 $)

>  <Rbt.Library>
libRbt.so (2013.1, Build901 2013/11/27)

>  <Rbt.Parameter_File>
/export/apps/rDock/src/rDock_2013.1_src/data/scripts/dock_solv.prm

>  <Rbt.Receptor>
prm/pocket_docking_6.prm

>  <SCORE>
-13.487

>  <SCORE.INTER>
-4.6696

>  <SCORE.INTER.CONST>
1

>  <SCORE.INTER.POLAR>
-0.824621

>  <SCORE.INTER.ROT>
9

>  <SCORE.INTER.SOLV>
15.1855

>  <SCORE.INTER.VDW>
-15.0262

>  <SCORE.INTER.norm>
-0.111181

>  <SCORE.INTRA>
-8.81738

>  <SCORE.INTRA.DIHEDRAL>
-17.7616

>  <SCORE.INTRA.DIHEDRAL.0>
21.6909

>  <SCORE.INTRA.POLAR>
0

>  <SCORE.INTRA.POLAR.0>
0

>  <SCORE.INTRA.REPUL>
0

>  <SCORE.INTRA.REPUL.0>
0

>  <SCORE.INTRA.SOLV>
-2.56063

>  <SCORE.INTRA.SOLV.lig_0>
-116.606

>  <SCORE.INTRA.VDW>
1.34376

>  <SCORE.INTRA.VDW.0>
-6.01229

>  <SCORE.INTRA.norm>
-0.209938

>  <SCORE.RESTR>
0

>  <SCORE.RESTR.CAVITY>
0

>  <SCORE.RESTR.norm>
0

>  <SCORE.SYSTEM>
0

>  <SCORE.SYSTEM.CONST>
0

>  <SCORE.SYSTEM.DIHEDRAL>
0

>  <SCORE.SYSTEM.SOLV>
0

>  <SCORE.SYSTEM.norm>
0

>  <SCORE.heavy>
42

>  <SCORE.norm>
-0.321118

>  <RMSD>
8.613

$$$$
2et4_lig
 OpenBabel11021811423D
libRbt.so/2013.1/901 2013/11/27
 42 45  0  0  0  0  0  0  0  0999 V2000
   14.0007    7.3577    4.8626 C   0  0  2  0  0  0  0  0  0  0  0  0
   13.6842    7.7031    6.2127 O   0  0  0  0  0  0  0  0  0  0  0  0
   13.7398    8.6159    3.9957 C   0  0  2  0  0  0  0  0  0  0  0  0
   14.5134    9.7407    4.4562 N   0  0  0  0  0  0  0  0  0  0  0  0
   12.2181    8.9408    4.0076 C   0  0  1  0  0  0  0  0  0  0  0  0
   11.9842   10.0625    3.2146 O   0  0  0  0  0  0  0  0  0  0  0  0
   11.4446    7.6802    3.4951 C   0  0  2  0  0  0  0  0  0  0  0  0
   10.0548    7.9288    3.4962 O   0  0  0  0  0  0  0  0  0  0  0  0
   11.7472    6.4410    4.3910 C   0  0  2  0  0  0  0  0  0  0  0  0
   13.1606    6.2199    4.3923 O   0  0  0  0  0  0  0  0  0  0  0  0
   11.0227    5.1514    3.8836 C   0  0  0  0  0  0  0  0  0  0  0  0
   11.3234    4.0163    4.6850 N   0  0  0  0  0  0  0  0  0  0  0  0
   15.1183    6.6094   10.1372 C   0  0  2  0  0  0  0  0  0  0  0  0
   15.5068    5.7809   11.2854 N   0  0  0  0  0  0  0  0  0  0  0  0
   13.5517    6.3622    9.7952 C   0  0  0  0  0  0  0  0  0  0  0  0
   13.1422    7.2470    8.5475 C   0  0  2  0  0  0  0  0  0  0  0  0
   11.7299    7.0340    8.1849 N   0  0  0  0  0  0  0  0  0  0  0  0
   14.0566    6.8836    7.3292 C   0  0  2  0  0  0  0  0  0  0  0  0
   15.5654    7.0990    7.6825 C   0  0  2  0  0  0  0  0  0  0  0  0
   16.3208    6.7235    6.5046 O   0  0  0  0  0  0  0  0  0  0  0  0
   15.9552    6.2137    8.9097 C   0  0  1  0  0  0  0  0  0  0  0  0
   17.2921    6.4357    9.2082 O   0  0  0  0  0  0  0  0  0  0  0  0
   17.0933    5.6165    6.3866 C   0  0  1  0  0  0  0  0  0  0  0  0
   17.3071    5.2441    4.8963 C   0  0  2  0  0  0  0  0  0  0  0  0
   16.2626    4.4808    4.3659 O   0  0  0  0  0  0  0  0  0  0  0  0
   18.6886    4.6236    4.9927 C   0  0  1  0  0  0  0  0  0  0  0  0
   19.4703    5.4434    6.0288 C   0  0  2  0  0  0  0  0  0  0  0  0
   18.4251    5.7382    6.9553 O   0  0  0  0  0  0  0  0  0  0  0  0
   20.1517    6.7452    5.4852 C   0  0  0  0  0  0  0  0  0  0  0  0
   21.1340    6.3406    4.4950 O   0  0  0  0  0  0  0  0  0  0  0  0
   19.6016    2.3403    5.2658 C   0  0  2  0  0  0  0  0  0  0  0  0
   18.5153    3.2116    5.4230 O   0  0  0  0  0  0  0  0  0  0  0  0
   19.2348    0.8665    5.7379 C   0  0  1  0  0  0  0  0  0  0  0  0
   23.6837    4.0393    6.2979 N   0  0  0  0  0  0  0  0  0  0  0  0
   20.5586   -0.0405    5.5338 C   0  0  1  0  0  0  0  0  0  0  0  0
   20.9494    0.0190    4.0705 O   0  0  0  0  0  0  0  0  0  0  0  0
   21.7620    0.5236    6.4612 C   0  0  2  0  0  0  0  0  0  0  0  0
   21.3688    0.4478    7.8525 O   0  0  0  0  0  0  0  0  0  0  0  0
   22.0837    2.0462    5.9732 C   0  0  1  0  0  0  0  0  0  0  0  0
   20.8306    2.8735    6.0591 O   0  0  0  0  0  0  0  0  0  0  0  0
   23.2243    2.7148    6.8177 C   0  0  0  0  0  0  0  0  0  0  0  0
   18.7480    0.8876    7.1568 N   0  0  0  0  0  0  0  0  0  0  0  0
  1  2  1  1  0  0  0
  1  3  1  0  0  0  0
  1 10  1  0  0  0  0
  3  4  1  1  0  0  0
  3  5  1  0  0  0  0
  5  6  1  6  0  0  0
  5  7  1  0  0  0  0
  7  8  1  1  0  0  0
  7  9  1  0  0  0  0
  9 10  1  0  0  0  0
  9 11  1  6  0  0  0
 11 12  1  0  0  0  0
 13 14  1  1  0  0  0
 13 15  1  0  0  0  0
 13 21  1  0  0  0  0
 16 15  1  0  0  0  0
 16 17  1  6  0  0  0
 18  2  1  6  0  0  0
 18 16  1  0  0  0  0
 19 18  1  0  0  0  0
 19 20  1  6  0  0  0
 21 19  1  0  0  0  0
 21 22  1  1  0  0  0
 23 20  1  6  0  0  0
 23 24  1  0  0  0  0
 23 28  1  0  0  0  0
 24 25  1  1  0  0  0
 24 26  1  0  0  0  0
 26 27  1  0  0  0  0
 26 32  1  1  0  0  0
 27 28  1  0  0  0  0
 27 29  1  6  0  0  0
 29 30  1  0  0  0  0
 31 32  1  1  0  0  0
 31 40  1  0  0  0  0
 33 31  1  0  0  0  0
 33 42  1  1  0  0  0
 35 33  1  0  0  0  0
 35 36  1  6  0  0  0
 37 35  1  0  0  0  0
 37 38  1  1  0  0  0
 37 39  1  0  0  0  0
 39 40  1  0  0  0  0
 39 41  1  1  0  0  0
 41 34  1  0  0  0  0
M  END
>  <CHROM.1>
-167.00856363,178.71164933,-159.55056985,-108.91492762,158.46381562,164.45379090
-62.79881119,-178.47763452,172.24620340,16.59548443,5.24765516,6.04872600
3.09490133,-0.55866730,1.32951268

>  <Name>
2et4_lig

>  <RI>
1.79929e+07

>  <Rbt.Current_Directory>
/home/itssahil/PROJECTS/Mol_Feturizer/New_Systems/rnas/2et4

>  <Rbt.Executable>
rbdock ($Id: //depot/dev/client3/rdock/2013.1/src/exe/rbdock.cxx#4 $)

>  <Rbt.Library>
libRbt.so (2013.1, Build901 2013/11/27)

>  <Rbt.Parameter_File>
/export/apps/rDock/src/rDock_2013.1_src/data/scripts/dock_solv.prm

>  <Rbt.Receptor>
prm/pocket_docking_7.prm

>  <SCORE>
-12.2374

>  <SCORE.INTER>
-7.86631

>  <SCORE.INTER.CONST>
1

>  <SCORE.INTER.POLAR>
-1.24322

>  <SCORE.INTER.ROT>
9

>  <SCORE.INTER.SOLV>
12.1645

>  <SCORE.INTER.VDW>
-14.755

>  <SCORE.INTER.norm>
-0.187293

>  <SCORE.INTRA>
-4.37105

>  <SCORE.INTRA.DIHEDRAL>
-8.79057

>  <SCORE.INTRA.DIHEDRAL.0>
21.6909

>  <SCORE.INTRA.POLAR>
0

>  <SCORE.INTRA.POLAR.0>
0

>  <SCORE.INTRA.REPUL>
0

>  <SCORE.INTRA.REPUL.0>
0

>  <SCORE.INTRA.SOLV>
-3.83587

>  <SCORE.INTRA.SOLV.lig_0>
-116.606

>  <SCORE.INTRA.VDW>
1.94217

>  <SCORE.INTRA.VDW.0>
-6.01229

>  <SCORE.INTRA.norm>
-0.104073

>  <SCORE.RESTR>
0

>  <SCORE.RESTR.CAVITY>
0

>  <SCORE.RESTR.norm>
0

>  <SCORE.SYSTEM>
0

>  <SCORE.SYSTEM.CONST>
0

>  <SCORE.SYSTEM.DIHEDRAL>
0

>  <SCORE.SYSTEM.SOLV>
0

>  <SCORE.SYSTEM.norm>
0

>  <SCORE.heavy>
42

>  <SCORE.norm>
-0.291366

>  <RMSD>
8.614

$$$$
2et4_lig
 OpenBabel11021811423D
libRbt.so/2013.1/901 2013/11/27
 42 45  0  0  0  0  0  0  0  0999 V2000
   13.1413    5.8676   11.3376 C   0  0  2  0  0  0  0  0  0  0  0  0
   13.8248    6.3845   10.1940 O   0  0  0  0  0  0  0  0  0  0  0  0
   11.6288    6.1310   11.1237 C   0  0  2  0  0  0  0  0  0  0  0  0
   11.1587    5.5298    9.9017 N   0  0  0  0  0  0  0  0  0  0  0  0
   11.3692    7.6652   11.1287 C   0  0  1  0  0  0  0  0  0  0  0  0
   10.0067    7.8986   10.9524 O   0  0  0  0  0  0  0  0  0  0  0  0
   11.9007    8.2469   12.4810 C   0  0  2  0  0  0  0  0  0  0  0  0
   11.6914    9.6425   12.5257 O   0  0  0  0  0  0  0  0  0  0  0  0
   13.4207    7.9480   12.6548 C   0  0  2  0  0  0  0  0  0  0  0  0
   13.6124    6.5320   12.5859 O   0  0  0  0  0  0  0  0  0  0  0  0
   13.9777    8.4794   14.0160 C   0  0  0  0  0  0  0  0  0  0  0  0
   15.3955    8.3997   14.0835 N   0  0  0  0  0  0  0  0  0  0  0  0
   17.9610    5.6945    9.1595 C   0  0  2  0  0  0  0  0  0  0  0  0
   19.1555    5.0601    8.5880 N   0  0  0  0  0  0  0  0  0  0  0  0
   17.2478    4.6718   10.1975 C   0  0  0  0  0  0  0  0  0  0  0  0
   15.9527    5.3555   10.7996 C   0  0  2  0  0  0  0  0  0  0  0  0
   15.2571    4.4499   11.7310 N   0  0  0  0  0  0  0  0  0  0  0  0
   14.9848    5.7533    9.6345 C   0  0  2  0  0  0  0  0  0  0  0  0
   15.6946    6.7161    8.6261 C   0  0  2  0  0  0  0  0  0  0  0  0
   14.7274    7.0094    7.5880 O   0  0  0  0  0  0  0  0  0  0  0  0
   16.9650    6.0242    8.0356 C   0  0  1  0  0  0  0  0  0  0  0  0
   17.5803    6.9049    7.1573 O   0  0  0  0  0  0  0  0  0  0  0  0
   14.4611    8.2401    7.0874 C   0  0  1  0  0  0  0  0  0  0  0  0
   13.8917    8.1435    5.6480 C   0  0  2  0  0  0  0  0  0  0  0  0
   14.8858    8.0425    4.6700 O   0  0  0  0  0  0  0  0  0  0  0  0
   12.9958    9.3683    5.6543 C   0  0  1  0  0  0  0  0  0  0  0  0
   12.3835    9.4611    7.0590 C   0  0  2  0  0  0  0  0  0  0  0  0
   13.4870    9.0089    7.8436 O   0  0  0  0  0  0  0  0  0  0  0  0
   11.1034    8.5896    7.2967 C   0  0  0  0  0  0  0  0  0  0  0  0
   10.5307    8.9961    8.5679 O   0  0  0  0  0  0  0  0  0  0  0  0
   14.3613   10.6602    4.0457 C   0  0  2  0  0  0  0  0  0  0  0  0
   13.8471   10.5464    5.3444 O   0  0  0  0  0  0  0  0  0  0  0  0
   15.4887   11.7793    3.9655 C   0  0  1  0  0  0  0  0  0  0  0  0
   12.6398   11.6500   -0.7248 N   0  0  0  0  0  0  0  0  0  0  0  0
   15.9903   11.8382    2.4287 C   0  0  1  0  0  0  0  0  0  0  0  0
   16.5085   10.4652    2.0494 O   0  0  0  0  0  0  0  0  0  0  0  0
   14.7600   12.2621    1.4628 C   0  0  2  0  0  0  0  0  0  0  0  0
   14.2894   13.5788    1.8383 O   0  0  0  0  0  0  0  0  0  0  0  0
   13.6110   11.1129    1.6004 C   0  0  1  0  0  0  0  0  0  0  0  0
   13.2120   10.9758    3.0440 O   0  0  0  0  0  0  0  0  0  0  0  0
   12.3476   11.4245    0.7241 C   0  0  0  0  0  0  0  0  0  0  0  0
   14.9488   13.0889    4.4596 N   0  0  0  0  0  0  0  0  0  0  0  0
  1  2  1  6  0  0  0
  1  3  1  0  0  0  0
  1 10  1  0  0  0  0
  3  4  1  6  0  0  0
  3  5  1  0  0  0  0
  5  6  1  1  0  0  0
  5  7  1  0  0  0  0
  7  8  1  6  0  0  0
  7  9  1  0  0  0  0
  9 10  1  0  0  0  0
  9 11  1  1  0  0  0
 11 12  1  0  0  0  0
 13 14  1  6  0  0  0
 13 15  1  0  0  0  0
 13 21  1  0  0  0  0
 16 15  1  0  0  0  0
 16 17  1  1  0  0  0
 18  2  1  1  0  0  0
 18 16  1  0  0  0  0
 19 18  1  0  0  0  0
 19 20  1  6  0  0  0
 21 19  1  0  0  0  0
 21 22  1  6  0  0  0
 23 20  1  1  0  0  0
 23 24  1  0  0  0  0
 23 28  1  0  0  0  0
 24 25  1  6  0  0  0
 24 26  1  0  0  0  0
 26 27  1  0  0  0  0
 26 32  1  1  0  0  0
 27 28  1  0  0  0  0
 27 29  1  6  0  0  0
 29 30  1  0  0  0  0
 31 32  1  1  0  0  0
 31 40  1  0  0  0  0
 33 31  1  0  0  0  0
 33 42  1  6  0  0  0
 35 33  1  0  0  0  0
 35 36  1  6  0  0  0
 37 35  1  0  0  0  0
 37 38  1  1  0  0  0
 37 39  1  0  0  0  0
 39 40  1  0  0  0  0
 39 41  1  6  0  0  0
 41 34  1  0  0  0  0
M  END
>  <CHROM.1>
-144.02438776,-170.59877815,-44.84911360,134.07612403,155.04632092,69.46641815
-169.34199768,-167.60396688,54.98370937,14.08245606,8.49070108,7.57109081
1.60186770,-0.46853657,2.06036025

>  <Name>
2et4_lig

>  <RI>
3.65815e+07

>  <Rbt.Current_Directory>
/home/itssahil/PROJECTS/Mol_Feturizer/New_Systems/rnas/2et4

>  <Rbt.Executable>
rbdock ($Id: //depot/dev/client3/rdock/2013.1/src/exe/rbdock.cxx#4 $)

>  <Rbt.Library>
libRbt.so (2013.1, Build901 2013/11/27)

>  <Rbt.Parameter_File>
/export/apps/rDock/src/rDock_2013.1_src/data/scripts/dock_solv.prm

>  <Rbt.Receptor>
prm/pocket_docking_4.prm

>  <SCORE>
-11.4738

>  <SCORE.INTER>
-11.7196

>  <SCORE.INTER.CONST>
1

>  <SCORE.INTER.POLAR>
-0.972186

>  <SCORE.INTER.ROT>
9

>  <SCORE.INTER.SOLV>
30.6826

>  <SCORE.INTER.VDW>
-24.4

>  <SCORE.INTER.norm>
-0.279038

>  <SCORE.INTRA>
0.24579

>  <SCORE.INTRA.DIHEDRAL>
-4.8811

>  <SCORE.INTRA.DIHEDRAL.0>
21.6909

>  <SCORE.INTRA.POLAR>
0

>  <SCORE.INTRA.POLAR.0>
0

>  <SCORE.INTRA.REPUL>
0.0163422

>  <SCORE.INTRA.REPUL.0>
0

>  <SCORE.INTRA.SOLV>
-0.908697

>  <SCORE.INTRA.SOLV.lig_0>
-116.606

>  <SCORE.INTRA.VDW>
3.05898

>  <SCORE.INTRA.VDW.0>
-6.01229

>  <SCORE.INTRA.norm>
0.00585214

>  <SCORE.RESTR>
0

>  <SCORE.RESTR.CAVITY>
0

>  <SCORE.RESTR.norm>
0

>  <SCORE.SYSTEM>
0

>  <SCORE.SYSTEM.CONST>
0

>  <SCORE.SYSTEM.DIHEDRAL>
0

>  <SCORE.SYSTEM.SOLV>
0

>  <SCORE.SYSTEM.norm>
0

>  <SCORE.heavy>
42

>  <SCORE.norm>
-0.273186

>  <RMSD>
8.620

$$$$
2et4_lig
 OpenBabel11021811423D
libRbt.so/2013.1/901 2013/11/27
 42 45  0  0  0  0  0  0  0  0999 V2000
   13.2960    4.9999    9.6422 C   0  0  2  0  0  0  0  0  0  0  0  0
   13.2861    5.5247   10.9714 O   0  0  0  0  0  0  0  0  0  0  0  0
   13.0868    3.4681    9.7541 C   0  0  2  0  0  0  0  0  0  0  0  0
   11.8620    3.1543   10.4446 N   0  0  0  0  0  0  0  0  0  0  0  0
   14.3127    2.8338   10.4725 C   0  0  1  0  0  0  0  0  0  0  0  0
   14.1295    1.4550   10.5573 O   0  0  0  0  0  0  0  0  0  0  0  0
   15.6011    3.2128    9.6686 C   0  0  2  0  0  0  0  0  0  0  0  0
   16.7424    2.6620   10.2912 O   0  0  0  0  0  0  0  0  0  0  0  0
   15.7616    4.7605    9.5747 C   0  0  2  0  0  0  0  0  0  0  0  0
   14.5872    5.2991    8.9604 O   0  0  0  0  0  0  0  0  0  0  0  0
   17.0179    5.1768    8.7416 C   0  0  0  0  0  0  0  0  0  0  0  0
   16.9282    4.7534    7.3874 N   0  0  0  0  0  0  0  0  0  0  0  0
   12.9832    9.3580   12.9383 C   0  0  2  0  0  0  0  0  0  0  0  0
   13.2029   10.7782   13.2392 N   0  0  0  0  0  0  0  0  0  0  0  0
   14.3944    8.5616   13.0205 C   0  0  0  0  0  0  0  0  0  0  0  0
   14.1539    7.0338   12.6810 C   0  0  2  0  0  0  0  0  0  0  0  0
   15.4167    6.2753   12.7189 N   0  0  0  0  0  0  0  0  0  0  0  0
   13.5118    6.9117   11.2579 C   0  0  2  0  0  0  0  0  0  0  0  0
   12.1670    7.7079   11.1844 C   0  0  2  0  0  0  0  0  0  0  0  0
   11.6661    7.5446    9.8348 O   0  0  0  0  0  0  0  0  0  0  0  0
   12.4226    9.2138   11.5140 C   0  0  1  0  0  0  0  0  0  0  0  0
   11.2127    9.8908   11.4551 O   0  0  0  0  0  0  0  0  0  0  0  0
   12.0830    8.2448    8.7521 C   0  0  1  0  0  0  0  0  0  0  0  0
   13.4523    7.7217    8.2453 C   0  0  2  0  0  0  0  0  0  0  0  0
   14.5388    8.2758    8.9291 O   0  0  0  0  0  0  0  0  0  0  0  0
   13.2956    8.0144    6.7646 C   0  0  1  0  0  0  0  0  0  0  0  0
   11.8285    7.7328    6.4109 C   0  0  2  0  0  0  0  0  0  0  0  0
   11.1916    8.1844    7.6060 O   0  0  0  0  0  0  0  0  0  0  0  0
   11.4848    6.2368    6.0968 C   0  0  0  0  0  0  0  0  0  0  0  0
   10.0811    6.1815    5.7286 O   0  0  0  0  0  0  0  0  0  0  0  0
   13.4849    9.9732    5.2650 C   0  0  2  0  0  0  0  0  0  0  0  0
   13.6504    9.4418    6.5511 O   0  0  0  0  0  0  0  0  0  0  0  0
   13.7016    8.8625    4.1473 C   0  0  1  0  0  0  0  0  0  0  0  0
   15.4677   13.7558    2.3553 N   0  0  0  0  0  0  0  0  0  0  0  0
   13.5097    9.5878    2.7142 C   0  0  1  0  0  0  0  0  0  0  0  0
   12.1185   10.1881    2.6725 O   0  0  0  0  0  0  0  0  0  0  0  0
   14.6283   10.7455    2.5276 C   0  0  2  0  0  0  0  0  0  0  0  0
   15.9460   10.1467    2.5615 O   0  0  0  0  0  0  0  0  0  0  0  0
   14.3982   11.8438    3.7112 C   0  0  1  0  0  0  0  0  0  0  0  0
   14.4698   11.1594    5.0485 O   0  0  0  0  0  0  0  0  0  0  0  0
   15.4435   13.0122    3.6522 C   0  0  0  0  0  0  0  0  0  0  0  0
   15.0506    8.2264    4.3098 N   0  0  0  0  0  0  0  0  0  0  0  0
  1  2  1  1  0  0  0
  1  3  1  0  0  0  0
  1 10  1  0  0  0  0
  3  4  1  1  0  0  0
  3  5  1  0  0  0  0
  5  6  1  6  0  0  0
  5  7  1  0  0  0  0
  7  8  1  1  0  0  0
  7  9  1  0  0  0  0
  9 10  1  0  0  0  0
  9 11  1  6  0  0  0
 11 12  1  0  0  0  0
 13 14  1  6  0  0  0
 13 15  1  0  0  0  0
 13 21  1  0  0  0  0
 16 15  1  0  0  0  0
 16 17  1  6  0  0  0
 18  2  1  1  0  0  0
 18 16  1  0  0  0  0
 19 18  1  0  0  0  0
 19 20  1  6  0  0  0
 21 19  1  0  0  0  0
 21 22  1  1  0  0  0
 23 20  1  1  0  0  0
 23 24  1  0  0  0  0
 23 28  1  0  0  0  0
 24 25  1  1  0  0  0
 24 26  1  0  0  0  0
 26 27  1  0  0  0  0
 26 32  1  1  0  0  0
 27 28  1  0  0  0  0
 27 29  1  1  0  0  0
 29 30  1  0  0  0  0
 31 32  1  1  0  0  0
 31 40  1  0  0  0  0
 33 31  1  0  0  0  0
 33 42  1  6  0  0  0
 35 33  1  0  0  0  0
 35 36  1  1  0  0  0
 37 35  1  0  0  0  0
 37 38  1  1  0  0  0
 37 39  1  0  0  0  0
 39 40  1  0  0  0  0
 39 41  1  1  0  0  0
 41 34  1  0  0  0  0
M  END
>  <CHROM.1>
177.20762025,63.08176790,-151.04773136,-80.55049912,77.04619386,-175.36533248
-177.42276245,-30.74803245,57.35677636,13.74045821,7.56855741,8.08437178
-1.61459270,1.25313442,-0.87709349

>  <Name>
2et4_lig

>  <RI>
0

>  <Rbt.Current_Directory>
/home/itssahil/PROJECTS/Mol_Feturizer/New_Systems/rnas/2et4

>  <Rbt.Executable>
rbdock ($Id: //depot/dev/client3/rdock/2013.1/src/exe/rbdock.cxx#4 $)

>  <Rbt.Library>
libRbt.so (2013.1, Build901 2013/11/27)

>  <Rbt.Parameter_File>
/export/apps/rDock/src/rDock_2013.1_src/data/scripts/dock_solv.prm

>  <Rbt.Receptor>
prm/pocket_docking_5.prm

>  <SCORE>
-20.8053

>  <SCORE.INTER>
-17.4972

>  <SCORE.INTER.CONST>
1

>  <SCORE.INTER.POLAR>
-2.06834

>  <SCORE.INTER.ROT>
9

>  <SCORE.INTER.SOLV>
16.4012

>  <SCORE.INTER.VDW>
-19.8374

>  <SCORE.INTER.norm>
-0.4166

>  <SCORE.INTRA>
-3.30806

>  <SCORE.INTRA.DIHEDRAL>
-11.2298

>  <SCORE.INTRA.DIHEDRAL.0>
21.6909

>  <SCORE.INTRA.POLAR>
0

>  <SCORE.INTRA.POLAR.0>
0

>  <SCORE.INTRA.REPUL>
0

>  <SCORE.INTRA.REPUL.0>
0

>  <SCORE.INTRA.SOLV>
0.0880708

>  <SCORE.INTRA.SOLV.lig_0>
-116.606

>  <SCORE.INTRA.VDW>
2.26281

>  <SCORE.INTRA.VDW.0>
-6.01229

>  <SCORE.INTRA.norm>
-0.0787633

>  <SCORE.RESTR>
0

>  <SCORE.RESTR.CAVITY>
0

>  <SCORE.RESTR.norm>
0

>  <SCORE.SYSTEM>
0

>  <SCORE.SYSTEM.CONST>
0

>  <SCORE.SYSTEM.DIHEDRAL>
0

>  <SCORE.SYSTEM.SOLV>
0

>  <SCORE.SYSTEM.norm>
0

>  <SCORE.heavy>
42

>  <SCORE.norm>
-0.495363

>  <RMSD>
8.620

$$$$
2et4_lig
 OpenBabel11021811423D
libRbt.so/2013.1/901 2013/11/27
 42 45  0  0  0  0  0  0  0  0999 V2000
    9.9523    9.3241   11.1452 C   0  0  2  0  0  0  0  0  0  0  0  0
    9.6672    8.2275   10.2744 O   0  0  0  0  0  0  0  0  0  0  0  0
   10.7138   10.3849   10.3100 C   0  0  2  0  0  0  0  0  0  0  0  0
    9.9482   10.7979    9.1616 N   0  0  0  0  0  0  0  0  0  0  0  0
   12.0948    9.8081    9.8840 C   0  0  1  0  0  0  0  0  0  0  0  0
   12.7838   10.7694    9.1472 O   0  0  0  0  0  0  0  0  0  0  0  0
   12.8683    9.3849   11.1772 C   0  0  2  0  0  0  0  0  0  0  0  0
   14.1286    8.8474   10.8361 O   0  0  0  0  0  0  0  0  0  0  0  0
   12.0590    8.3270   11.9870 C   0  0  2  0  0  0  0  0  0  0  0  0
   10.7798    8.8839   12.3040 O   0  0  0  0  0  0  0  0  0  0  0  0
   12.7835    7.9109   13.3089 C   0  0  0  0  0  0  0  0  0  0  0  0
   14.0009    7.2205   13.0593 N   0  0  0  0  0  0  0  0  0  0  0  0
    7.2722    4.6849   10.8816 C   0  0  2  0  0  0  0  0  0  0  0  0
    6.0935    3.8235   11.0375 N   0  0  0  0  0  0  0  0  0  0  0  0
    7.2705    5.8212   12.0396 C   0  0  0  0  0  0  0  0  0  0  0  0
    8.5358    6.7558   11.8579 C   0  0  2  0  0  0  0  0  0  0  0  0
    8.5610    7.8210   12.8759 N   0  0  0  0  0  0  0  0  0  0  0  0
    8.5083    7.3969   10.4293 C   0  0  2  0  0  0  0  0  0  0  0  0
    8.4808    6.2902    9.3237 C   0  0  2  0  0  0  0  0  0  0  0  0
    8.4417    6.9818    8.0512 O   0  0  0  0  0  0  0  0  0  0  0  0
    7.2233    5.3822    9.5122 C   0  0  1  0  0  0  0  0  0  0  0  0
    7.2330    4.4037    8.5283 O   0  0  0  0  0  0  0  0  0  0  0  0
    9.4422    7.7370    7.5365 C   0  0  1  0  0  0  0  0  0  0  0  0
   10.7582    6.9224    7.4360 C   0  0  2  0  0  0  0  0  0  0  0  0
   11.4858    6.9054    8.6299 O   0  0  0  0  0  0  0  0  0  0  0  0
   11.3695    7.5902    6.2182 C   0  0  1  0  0  0  0  0  0  0  0  0
   10.2128    7.9051    5.2592 C   0  0  2  0  0  0  0  0  0  0  0  0
    9.1947    8.2485    6.1990 O   0  0  0  0  0  0  0  0  0  0  0  0
    9.7707    6.7276    4.3250 C   0  0  0  0  0  0  0  0  0  0  0  0
    9.3115    5.6453    5.1775 O   0  0  0  0  0  0  0  0  0  0  0  0
   13.4025    8.9948    6.3420 C   0  0  2  0  0  0  0  0  0  0  0  0
   12.0536    8.8254    6.6820 O   0  0  0  0  0  0  0  0  0  0  0  0
   13.5797    9.2396    4.7805 C   0  0  1  0  0  0  0  0  0  0  0  0
   16.0985    6.1547    8.4526 N   0  0  0  0  0  0  0  0  0  0  0  0
   15.1653    9.3981    4.5019 C   0  0  1  0  0  0  0  0  0  0  0  0
   15.6756   10.5591    5.3321 O   0  0  0  0  0  0  0  0  0  0  0  0
   15.9363    8.0324    4.9101 C   0  0  2  0  0  0  0  0  0  0  0  0
   15.4387    6.9418    4.0981 O   0  0  0  0  0  0  0  0  0  0  0  0
   15.7009    7.7956    6.5064 C   0  0  1  0  0  0  0  0  0  0  0  0
   14.2250    7.7521    6.7926 O   0  0  0  0  0  0  0  0  0  0  0  0
   16.3841    6.4806    7.0216 C   0  0  0  0  0  0  0  0  0  0  0  0
   12.9558    8.1137    4.0098 N   0  0  0  0  0  0  0  0  0  0  0  0
  1  2  1  6  0  0  0
  1  3  1  0  0  0  0
  1 10  1  0  0  0  0
  3  4  1  6  0  0  0
  3  5  1  0  0  0  0
  5  6  1  1  0  0  0
  5  7  1  0  0  0  0
  7  8  1  6  0  0  0
  7  9  1  0  0  0  0
  9 10  1  0  0  0  0
  9 11  1  1  0  0  0
 11 12  1  0  0  0  0
 13 14  1  1  0  0  0
 13 15  1  0  0  0  0
 13 21  1  0  0  0  0
 16 15  1  0  0  0  0
 16 17  1  1  0  0  0
 18  2  1  6  0  0  0
 18 16  1  0  0  0  0
 19 18  1  0  0  0  0
 19 20  1  6  0  0  0
 21 19  1  0  0  0  0
 21 22  1  6  0  0  0
 23 20  1  6  0  0  0
 23 24  1  0  0  0  0
 23 28  1  0  0  0  0
 24 25  1  1  0  0  0
 24 26  1  0  0  0  0
 26 27  1  0  0  0  0
 26 32  1  1  0  0  0
 27 28  1  0  0  0  0
 27 29  1  1  0  0  0
 29 30  1  0  0  0  0
 31 32  1  6  0  0  0
 31 40  1  0  0  0  0
 33 31  1  0  0  0  0
 33 42  1  6  0  0  0
 35 33  1  0  0  0  0
 35 36  1  1  0  0  0
 37 35  1  0  0  0  0
 37 38  1  6  0  0  0
 37 39  1  0  0  0  0
 39 40  1  0  0  0  0
 39 41  1  6  0  0  0
 41 34  1  0  0  0  0
M  END
>  <CHROM.1>
-149.39993486,-65.93623544,-58.31190521,67.18056922,56.07732523,125.95892268
61.53943315,68.81398386,-174.91793745,11.38383083,7.74390437,8.48238702,-2.51619954
-0.40231920,-1.73968196

>  <Name>
2et4_lig

>  <RI>
3.65815e+07

>  <Rbt.Current_Directory>
/home/itssahil/PROJECTS/Mol_Feturizer/New_Systems/rnas/2et4

>  <Rbt.Executable>
rbdock ($Id: //depot/dev/client3/rdock/2013.1/src/exe/rbdock.cxx#4 $)

>  <Rbt.Library>
libRbt.so (2013.1, Build901 2013/11/27)

>  <Rbt.Parameter_File>
/export/apps/rDock/src/rDock_2013.1_src/data/scripts/dock_solv.prm

>  <Rbt.Receptor>
prm/pocket_docking_4.prm

>  <SCORE>
-13.9524

>  <SCORE.INTER>
-12.3854

>  <SCORE.INTER.CONST>
1

>  <SCORE.INTER.POLAR>
-1.81655

>  <SCORE.INTER.ROT>
9

>  <SCORE.INTER.SOLV>
12.5564

>  <SCORE.INTER.VDW>
-15.9872

>  <SCORE.INTER.norm>
-0.29489

>  <SCORE.INTRA>
-1.56912

>  <SCORE.INTRA.DIHEDRAL>
-9.90382

>  <SCORE.INTRA.DIHEDRAL.0>
21.6909

>  <SCORE.INTRA.POLAR>
0

>  <SCORE.INTRA.POLAR.0>
0

>  <SCORE.INTRA.REPUL>
0.0149768

>  <SCORE.INTRA.REPUL.0>
0

>  <SCORE.INTRA.SOLV>
4.77795

>  <SCORE.INTRA.SOLV.lig_0>
-116.606

>  <SCORE.INTRA.VDW>
0.918932

>  <SCORE.INTRA.VDW.0>
-6.01229

>  <SCORE.INTRA.norm>
-0.03736

>  <SCORE.RESTR>
0.00204429

>  <SCORE.RESTR.CAVITY>
0.00204429

>  <SCORE.RESTR.norm>
4.86735e-05

>  <SCORE.SYSTEM>
0

>  <SCORE.SYSTEM.CONST>
0

>  <SCORE.SYSTEM.DIHEDRAL>
0

>  <SCORE.SYSTEM.SOLV>
0

>  <SCORE.SYSTEM.norm>
0

>  <SCORE.heavy>
42

>  <SCORE.norm>
-0.332201

>  <RMSD>
8.657

$$$$
2et4_lig
 OpenBabel11021811423D
libRbt.so/2013.1/901 2013/11/27
 42 45  0  0  0  0  0  0  0  0999 V2000
   10.3615    4.4536   10.1918 C   0  0  2  0  0  0  0  0  0  0  0  0
   11.1410    5.0183   11.2481 O   0  0  0  0  0  0  0  0  0  0  0  0
    9.7224    3.1525   10.7408 C   0  0  2  0  0  0  0  0  0  0  0  0
    8.9268    3.4123   11.9135 N   0  0  0  0  0  0  0  0  0  0  0  0
   10.8442    2.1176   11.0435 C   0  0  1  0  0  0  0  0  0  0  0  0
   10.2658    0.9434   11.5214 O   0  0  0  0  0  0  0  0  0  0  0  0
   11.6619    1.8840    9.7294 C   0  0  2  0  0  0  0  0  0  0  0  0
   12.6987    0.9539    9.9607 O   0  0  0  0  0  0  0  0  0  0  0  0
   12.2747    3.2206    9.2118 C   0  0  2  0  0  0  0  0  0  0  0  0
   11.2105    4.1539    9.0040 O   0  0  0  0  0  0  0  0  0  0  0  0
   13.0653    3.0323    7.8758 C   0  0  0  0  0  0  0  0  0  0  0  0
   12.2346    2.5616    6.8225 N   0  0  0  0  0  0  0  0  0  0  0  0
   12.2459    9.0485   12.3395 C   0  0  2  0  0  0  0  0  0  0  0  0
   12.8443   10.3870   12.2606 N   0  0  0  0  0  0  0  0  0  0  0  0
   13.4148    7.9263   12.2598 C   0  0  0  0  0  0  0  0  0  0  0  0
   12.7627    6.4851   12.3307 C   0  0  2  0  0  0  0  0  0  0  0  0
   13.7887    5.4316   12.2356 N   0  0  0  0  0  0  0  0  0  0  0  0
   11.7338    6.3214   11.1614 C   0  0  2  0  0  0  0  0  0  0  0  0
   10.6292    7.4271   11.2338 C   0  0  2  0  0  0  0  0  0  0  0  0
    9.7442    7.1977   10.1099 O   0  0  0  0  0  0  0  0  0  0  0  0
   11.2880    8.8418   11.1548 C   0  0  1  0  0  0  0  0  0  0  0  0
   10.2878    9.8003   11.2353 O   0  0  0  0  0  0  0  0  0  0  0  0
    9.9234    7.6824    8.8572 C   0  0  1  0  0  0  0  0  0  0  0  0
   11.0295    6.8936    8.1090 C   0  0  2  0  0  0  0  0  0  0  0  0
   12.3190    7.3546    8.3915 O   0  0  0  0  0  0  0  0  0  0  0  0
   10.5045    7.0176    6.6907 C   0  0  1  0  0  0  0  0  0  0  0  0
    8.9745    6.9242    6.7757 C   0  0  2  0  0  0  0  0  0  0  0  0
    8.7492    7.6164    8.0036 O   0  0  0  0  0  0  0  0  0  0  0  0
    8.3874    5.4720    6.8089 C   0  0  0  0  0  0  0  0  0  0  0  0
    8.6203    4.9395    8.1398 O   0  0  0  0  0  0  0  0  0  0  0  0
   12.0560    8.3567    5.3047 C   0  0  2  0  0  0  0  0  0  0  0  0
   10.9485    8.3341    6.1631 O   0  0  0  0  0  0  0  0  0  0  0  0
   13.4172    8.4759    6.1188 C   0  0  1  0  0  0  0  0  0  0  0  0
   13.8856   11.2526    1.4404 N   0  0  0  0  0  0  0  0  0  0  0  0
   14.6168    8.5153    5.0342 C   0  0  1  0  0  0  0  0  0  0  0  0
   14.5455    7.2474    4.2067 O   0  0  0  0  0  0  0  0  0  0  0  0
   14.4580    9.8179    4.0832 C   0  0  2  0  0  0  0  0  0  0  0  0
   14.5388   11.0144    4.8944 O   0  0  0  0  0  0  0  0  0  0  0  0
   13.0370    9.6785    3.2952 C   0  0  1  0  0  0  0  0  0  0  0  0
   11.9231    9.5347    4.2955 O   0  0  0  0  0  0  0  0  0  0  0  0
   12.7548   10.9008    2.3531 C   0  0  0  0  0  0  0  0  0  0  0  0
   13.3825    9.6872    7.0033 N   0  0  0  0  0  0  0  0  0  0  0  0
  1  2  1  1  0  0  0
  1  3  1  0  0  0  0
  1 10  1  0  0  0  0
  3  4  1  1  0  0  0
  3  5  1  0  0  0  0
  5  6  1  6  0  0  0
  5  7  1  0  0  0  0
  7  8  1  1  0  0  0
  7  9  1  0  0  0  0
  9 10  1  0  0  0  0
  9 11  1  6  0  0  0
 11 12  1  0  0  0  0
 13 14  1  6  0  0  0
 13 15  1  0  0  0  0
 13 21  1  0  0  0  0
 16 15  1  0  0  0  0
 16 17  1  6  0  0  0
 18  2  1  1  0  0  0
 18 16  1  0  0  0  0
 19 18  1  0  0  0  0
 19 20  1  6  0  0  0
 21 19  1  0  0  0  0
 21 22  1  1  0  0  0
 23 20  1  1  0  0  0
 23 24  1  0  0  0  0
 23 28  1  0  0  0  0
 24 25  1  6  0  0  0
 24 26  1  0  0  0  0
 26 27  1  0  0  0  0
 26 32  1  1  0  0  0
 27 28  1  0  0  0  0
 27 29  1  1  0  0  0
 29 30  1  0  0  0  0
 31 32  1  1  0  0  0
 31 40  1  0  0  0  0
 33 31  1  0  0  0  0
 33 42  1  6  0  0  0
 35 33  1  0  0  0  0
 35 36  1  6  0  0  0
 37 35  1  0  0  0  0
 37 38  1  1  0  0  0
 37 39  1  0  0  0  0
 39 40  1  0  0  0  0
 39 41  1  1  0  0  0
 41 34  1  0  0  0  0
M  END
>  <CHROM.1>
-171.39811518,61.35573614,-167.43143077,-86.50106099,75.63684557,100.92470360
75.49062406,-87.91999522,49.97563297,11.67991543,6.67016736,8.35745043,3.02461525
1.32476123,0.85809104

>  <Name>
2et4_lig

>  <RI>
0

>  <Rbt.Current_Directory>
/home/itssahil/PROJECTS/Mol_Feturizer/New_Systems/rnas/2et4

>  <Rbt.Executable>
rbdock ($Id: //depot/dev/client3/rdock/2013.1/src/exe/rbdock.cxx#4 $)

>  <Rbt.Library>
libRbt.so (2013.1, Build901 2013/11/27)

>  <Rbt.Parameter_File>
/export/apps/rDock/src/rDock_2013.1_src/data/scripts/dock_solv.prm

>  <Rbt.Receptor>
prm/pocket_docking_5.prm

>  <SCORE>
-10.6575

>  <SCORE.INTER>
-8.50891

>  <SCORE.INTER.CONST>
1

>  <SCORE.INTER.POLAR>
-1.41103

>  <SCORE.INTER.ROT>
9

>  <SCORE.INTER.SOLV>
11.4797

>  <SCORE.INTER.VDW>
-14.3957

>  <SCORE.INTER.norm>
-0.202593

>  <SCORE.INTRA>
-2.14855

>  <SCORE.INTRA.DIHEDRAL>
-6.50451

>  <SCORE.INTRA.DIHEDRAL.0>
21.6909

>  <SCORE.INTRA.POLAR>
0

>  <SCORE.INTRA.POLAR.0>
0

>  <SCORE.INTRA.REPUL>
0.00184494

>  <SCORE.INTRA.REPUL.0>
0

>  <SCORE.INTRA.SOLV>
0.931004

>  <SCORE.INTRA.SOLV.lig_0>
-116.606

>  <SCORE.INTRA.VDW>
0.628978

>  <SCORE.INTRA.VDW.0>
-6.01229

>  <SCORE.INTRA.norm>
-0.051156

>  <SCORE.RESTR>
0

>  <SCORE.RESTR.CAVITY>
0

>  <SCORE.RESTR.norm>
0

>  <SCORE.SYSTEM>
0

>  <SCORE.SYSTEM.CONST>
0

>  <SCORE.SYSTEM.DIHEDRAL>
0

>  <SCORE.SYSTEM.SOLV>
0

>  <SCORE.SYSTEM.norm>
0

>  <SCORE.heavy>
42

>  <SCORE.norm>
-0.253749

>  <RMSD>
8.657

$$$$
2et4_lig
 OpenBabel11021811423D
libRbt.so/2013.1/901 2013/11/27
 42 45  0  0  0  0  0  0  0  0999 V2000
   10.2110    4.3903   10.3860 C   0  0  2  0  0  0  0  0  0  0  0  0
   11.1058    4.9292   11.3613 O   0  0  0  0  0  0  0  0  0  0  0  0
    9.6141    3.0901   10.9825 C   0  0  2  0  0  0  0  0  0  0  0  0
    8.9506    3.3435   12.2360 N   0  0  0  0  0  0  0  0  0  0  0  0
   10.7461    2.0360   11.1515 C   0  0  1  0  0  0  0  0  0  0  0  0
   10.2040    0.8629   11.6726 O   0  0  0  0  0  0  0  0  0  0  0  0
   11.4171    1.8105    9.7555 C   0  0  2  0  0  0  0  0  0  0  0  0
   12.4586    0.8634    9.8639 O   0  0  0  0  0  0  0  0  0  0  0  0
   11.9917    3.1462    9.1935 C   0  0  2  0  0  0  0  0  0  0  0  0
   10.9254    4.0965    9.1114 O   0  0  0  0  0  0  0  0  0  0  0  0
   12.6341    2.9666    7.7791 C   0  0  0  0  0  0  0  0  0  0  0  0
   13.7797    2.1255    7.8128 N   0  0  0  0  0  0  0  0  0  0  0  0
   12.4204    8.9447   12.2571 C   0  0  2  0  0  0  0  0  0  0  0  0
   13.0705   10.2523   12.1051 N   0  0  0  0  0  0  0  0  0  0  0  0
   13.5374    7.7708   12.1750 C   0  0  0  0  0  0  0  0  0  0  0  0
   12.8291    6.3626   12.3250 C   0  0  2  0  0  0  0  0  0  0  0  0
   13.8057    5.2631   12.2305 N   0  0  0  0  0  0  0  0  0  0  0  0
   11.7485    6.2016   11.2030 C   0  0  2  0  0  0  0  0  0  0  0  0
   10.6948    7.3558   11.2760 C   0  0  2  0  0  0  0  0  0  0  0  0
    9.7569    7.1245   10.1962 O   0  0  0  0  0  0  0  0  0  0  0  0
   11.4083    8.7370   11.1186 C   0  0  1  0  0  0  0  0  0  0  0  0
   10.4529    9.7400   11.2012 O   0  0  0  0  0  0  0  0  0  0  0  0
    9.9069    7.5541    8.9198 C   0  0  1  0  0  0  0  0  0  0  0  0
   11.1014    6.8438    8.2311 C   0  0  2  0  0  0  0  0  0  0  0  0
   12.3313    7.4515    8.5014 O   0  0  0  0  0  0  0  0  0  0  0  0
   10.5912    6.8327    6.8020 C   0  0  1  0  0  0  0  0  0  0  0  0
    9.0778    6.5857    6.8746 C   0  0  2  0  0  0  0  0  0  0  0  0
    8.7609    7.3186    8.0579 O   0  0  0  0  0  0  0  0  0  0  0  0
    8.6431    5.0845    6.9847 C   0  0  0  0  0  0  0  0  0  0  0  0
    9.1410    4.4002    5.8045 O   0  0  0  0  0  0  0  0  0  0  0  0
   12.0279    8.2488    5.3695 C   0  0  2  0  0  0  0  0  0  0  0  0
   10.9062    8.1566    6.2046 O   0  0  0  0  0  0  0  0  0  0  0  0
   13.3607    8.4603    6.2115 C   0  0  1  0  0  0  0  0  0  0  0  0
   13.7036   11.1683    1.4491 N   0  0  0  0  0  0  0  0  0  0  0  0
   14.5779    8.5745    5.1522 C   0  0  1  0  0  0  0  0  0  0  0  0
   14.6078    7.3017    4.3298 O   0  0  0  0  0  0  0  0  0  0  0  0
   14.3542    9.8604    4.1916 C   0  0  2  0  0  0  0  0  0  0  0  0
   14.3389   11.0626    4.9982 O   0  0  0  0  0  0  0  0  0  0  0  0
   12.9626    9.6249    3.3745 C   0  0  1  0  0  0  0  0  0  0  0  0
   11.8394    9.4119    4.3518 O   0  0  0  0  0  0  0  0  0  0  0  0
   12.6209   10.8227    2.4206 C   0  0  0  0  0  0  0  0  0  0  0  0
   13.2276    9.6698    7.0890 N   0  0  0  0  0  0  0  0  0  0  0  0
  1  2  1  1  0  0  0
  1  3  1  0  0  0  0
  1 10  1  0  0  0  0
  3  4  1  1  0  0  0
  3  5  1  0  0  0  0
  5  6  1  6  0  0  0
  5  7  1  0  0  0  0
  7  8  1  1  0  0  0
  7  9  1  0  0  0  0
  9 10  1  0  0  0  0
  9 11  1  6  0  0  0
 11 12  1  0  0  0  0
 13 14  1  6  0  0  0
 13 15  1  0  0  0  0
 13 21  1  0  0  0  0
 16 15  1  0  0  0  0
 16 17  1  6  0  0  0
 18  2  1  1  0  0  0
 18 16  1  0  0  0  0
 19 18  1  0  0  0  0
 19 20  1  6  0  0  0
 21 19  1  0  0  0  0
 21 22  1  1  0  0  0
 23 20  1  1  0  0  0
 23 24  1  0  0  0  0
 23 28  1  0  0  0  0
 24 25  1  6  0  0  0
 24 26  1  0  0  0  0
 26 27  1  0  0  0  0
 26 32  1  1  0  0  0
 27 28  1  0  0  0  0
 27 29  1  1  0  0  0
 29 30  1  0  0  0  0
 31 32  1  1  0  0  0
 31 40  1  0  0  0  0
 33 31  1  0  0  0  0
 33 42  1  6  0  0  0
 35 33  1  0  0  0  0
 35 36  1  6  0  0  0
 37 35  1  0  0  0  0
 37 38  1  1  0  0  0
 37 39  1  0  0  0  0
 39 40  1  0  0  0  0
 39 41  1  1  0  0  0
 41 34  1  0  0  0  0
M  END
>  <CHROM.1>
-174.04945363,-65.03919956,-170.54236882,-86.40706982,66.58406397,100.31177758
-60.07062573,-83.93032259,54.98333353,11.69490656,6.55909508,8.37734074,2.75076353
1.32184147,1.15260602

>  <Name>
2et4_lig

>  <RI>
1.79929e+07

>  <Rbt.Current_Directory>
/home/itssahil/PROJECTS/Mol_Feturizer/New_Systems/rnas/2et4

>  <Rbt.Executable>
rbdock ($Id: //depot/dev/client3/rdock/2013.1/src/exe/rbdock.cxx#4 $)

>  <Rbt.Library>
libRbt.so (2013.1, Build901 2013/11/27)

>  <Rbt.Parameter_File>
/export/apps/rDock/src/rDock_2013.1_src/data/scripts/dock_solv.prm

>  <Rbt.Receptor>
prm/pocket_docking_7.prm

>  <SCORE>
-12.5494

>  <SCORE.INTER>
-8.38235

>  <SCORE.INTER.CONST>
1

>  <SCORE.INTER.POLAR>
-1.36587

>  <SCORE.INTER.ROT>
9

>  <SCORE.INTER.SOLV>
12.0032

>  <SCORE.INTER.VDW>
-14.6364

>  <SCORE.INTER.norm>
-0.19958

>  <SCORE.INTRA>
-4.16705

>  <SCORE.INTRA.DIHEDRAL>
-9.72613

>  <SCORE.INTRA.DIHEDRAL.0>
21.6909

>  <SCORE.INTRA.POLAR>
0

>  <SCORE.INTRA.POLAR.0>
0

>  <SCORE.INTRA.REPUL>
0

>  <SCORE.INTRA.REPUL.0>
0

>  <SCORE.INTRA.SOLV>
-0.44221

>  <SCORE.INTRA.SOLV.lig_0>
-116.606

>  <SCORE.INTRA.VDW>
0.917123

>  <SCORE.INTRA.VDW.0>
-6.01229

>  <SCORE.INTRA.norm>
-0.0992154

>  <SCORE.RESTR>
0

>  <SCORE.RESTR.CAVITY>
0

>  <SCORE.RESTR.norm>
0

>  <SCORE.SYSTEM>
0

>  <SCORE.SYSTEM.CONST>
0

>  <SCORE.SYSTEM.DIHEDRAL>
0

>  <SCORE.SYSTEM.SOLV>
0

>  <SCORE.SYSTEM.norm>
0

>  <SCORE.heavy>
42

>  <SCORE.norm>
-0.298795

>  <RMSD>
8.660

$$$$
2et4_lig
 OpenBabel11021811423D
libRbt.so/2013.1/901 2013/11/27
 42 45  0  0  0  0  0  0  0  0999 V2000
    7.9518    4.3286    8.5940 C   0  0  2  0  0  0  0  0  0  0  0  0
    8.9739    4.5511    9.5677 O   0  0  0  0  0  0  0  0  0  0  0  0
    8.6465    3.7905    7.3171 C   0  0  2  0  0  0  0  0  0  0  0  0
    9.3945    2.5903    7.5922 N   0  0  0  0  0  0  0  0  0  0  0  0
    9.5646    4.8991    6.7263 C   0  0  1  0  0  0  0  0  0  0  0  0
   10.1752    4.4183    5.5696 O   0  0  0  0  0  0  0  0  0  0  0  0
    8.6873    6.1658    6.4513 C   0  0  2  0  0  0  0  0  0  0  0  0
    9.4840    7.2030    5.9193 O   0  0  0  0  0  0  0  0  0  0  0  0
    8.0026    6.6619    7.7609 C   0  0  2  0  0  0  0  0  0  0  0  0
    7.2180    5.5905    8.2932 O   0  0  0  0  0  0  0  0  0  0  0  0
    7.0837    7.9033    7.5160 C   0  0  0  0  0  0  0  0  0  0  0  0
    7.7848    8.9772    6.9025 N   0  0  0  0  0  0  0  0  0  0  0  0
    6.8224    4.9234   13.2942 C   0  0  2  0  0  0  0  0  0  0  0  0
    6.5453    4.9235   14.7361 N   0  0  0  0  0  0  0  0  0  0  0  0
    7.3180    3.4476   12.8373 C   0  0  0  0  0  0  0  0  0  0  0  0
    7.6291    3.4572   11.2848 C   0  0  2  0  0  0  0  0  0  0  0  0
    8.1084    2.1399   10.8301 N   0  0  0  0  0  0  0  0  0  0  0  0
    8.7143    4.5440   10.9782 C   0  0  2  0  0  0  0  0  0  0  0  0
    8.2353    5.9567   11.4501 C   0  0  2  0  0  0  0  0  0  0  0  0
    9.3074    6.8796   11.1372 O   0  0  0  0  0  0  0  0  0  0  0  0
    7.9402    5.9324   12.9843 C   0  0  1  0  0  0  0  0  0  0  0  0
    7.5049    7.1920   13.3708 O   0  0  0  0  0  0  0  0  0  0  0  0
    9.9333    6.9796    9.9395 C   0  0  1  0  0  0  0  0  0  0  0  0
   10.5037    8.4063    9.7279 C   0  0  2  0  0  0  0  0  0  0  0  0
    9.5590    9.3063    9.2254 O   0  0  0  0  0  0  0  0  0  0  0  0
   11.7121    8.0651    8.8758 C   0  0  1  0  0  0  0  0  0  0  0  0
   12.2732    6.7413    9.4140 C   0  0  2  0  0  0  0  0  0  0  0  0
   11.0584    6.0772    9.7615 O   0  0  0  0  0  0  0  0  0  0  0  0
   13.2404    6.8667   10.6401 C   0  0  0  0  0  0  0  0  0  0  0  0
   14.3417    7.7242   10.2389 O   0  0  0  0  0  0  0  0  0  0  0  0
   12.2144    7.9160    6.4577 C   0  0  2  0  0  0  0  0  0  0  0  0
   11.2459    7.9361    7.4705 O   0  0  0  0  0  0  0  0  0  0  0  0
   13.6152    8.4536    6.9855 C   0  0  1  0  0  0  0  0  0  0  0  0
   12.8565    9.7809    1.6817 N   0  0  0  0  0  0  0  0  0  0  0  0
   14.6424    8.4067    5.7367 C   0  0  1  0  0  0  0  0  0  0  0  0
   14.7194    6.9755    5.2435 O   0  0  0  0  0  0  0  0  0  0  0  0
   14.1175    9.3823    4.5538 C   0  0  2  0  0  0  0  0  0  0  0  0
   14.0617   10.7427    5.0460 O   0  0  0  0  0  0  0  0  0  0  0  0
   12.6656    8.8224    4.0656 C   0  0  1  0  0  0  0  0  0  0  0  0
   11.7319    8.7620    5.2431 O   0  0  0  0  0  0  0  0  0  0  0  0
   12.0374    9.7041    2.9301 C   0  0  0  0  0  0  0  0  0  0  0  0
   13.4532    9.8283    7.5638 N   0  0  0  0  0  0  0  0  0  0  0  0
  1  2  1  1  0  0  0
  1  3  1  0  0  0  0
  1 10  1  0  0  0  0
  3  4  1  1  0  0  0
  3  5  1  0  0  0  0
  5  6  1  6  0  0  0
  5  7  1  0  0  0  0
  7  8  1  1  0  0  0
  7  9  1  0  0  0  0
  9 10  1  0  0  0  0
  9 11  1  6  0  0  0
 11 12  1  0  0  0  0
 13 14  1  1  0  0  0
 13 15  1  0  0  0  0
 13 21  1  0  0  0  0
 16 15  1  0  0  0  0
 16 17  1  1  0  0  0
 18  2  1  6  0  0  0
 18 16  1  0  0  0  0
 19 18  1  0  0  0  0
 19 20  1  1  0  0  0
 21 19  1  0  0  0  0
 21 22  1  6  0  0  0
 23 20  1  1  0  0  0
 23 24  1  0  0  0  0
 23 28  1  0  0  0  0
 24 25  1  6  0  0  0
 24 26  1  0  0  0  0
 26 27  1  0  0  0  0
 26 32  1  6  0  0  0
 27 28  1  0  0  0  0
 27 29  1  1  0  0  0
 29 30  1  0  0  0  0
 31 32  1  1  0  0  0
 31 40  1  0  0  0  0
 33 31  1  0  0  0  0
 33 42  1  6  0  0  0
 35 33  1  0  0  0  0
 35 36  1  6  0  0  0
 37 35  1  0  0  0  0
 37 38  1  1  0  0  0
 37 39  1  0  0  0  0
 39 40  1  0  0  0  0
 39 41  1  6  0  0  0
 41 34  1  0  0  0  0
M  END
>  <CHROM.1>
-155.23934839,-55.78291525,36.13409800,49.67959325,153.33382745,166.21608912
-57.88237313,-16.42688252,60.64461785,10.28546881,6.77267905,8.36378939,2.36942878
0.67837442,1.54642386

>  <Name>
2et4_lig

>  <RI>
3.65815e+07

>  <Rbt.Current_Directory>
/home/itssahil/PROJECTS/Mol_Feturizer/New_Systems/rnas/2et4

>  <Rbt.Executable>
rbdock ($Id: //depot/dev/client3/rdock/2013.1/src/exe/rbdock.cxx#4 $)

>  <Rbt.Library>
libRbt.so (2013.1, Build901 2013/11/27)

>  <Rbt.Parameter_File>
/export/apps/rDock/src/rDock_2013.1_src/data/scripts/dock_solv.prm

>  <Rbt.Receptor>
prm/pocket_docking_4.prm

>  <SCORE>
-4.95236

>  <SCORE.INTER>
-9.33836

>  <SCORE.INTER.CONST>
1

>  <SCORE.INTER.POLAR>
-1.91928

>  <SCORE.INTER.ROT>
9

>  <SCORE.INTER.SOLV>
18.3856

>  <SCORE.INTER.VDW>
-15.5565

>  <SCORE.INTER.norm>
-0.222342

>  <SCORE.INTRA>
4.386

>  <SCORE.INTRA.DIHEDRAL>
-6.06924

>  <SCORE.INTRA.DIHEDRAL.0>
21.6909

>  <SCORE.INTRA.POLAR>
0

>  <SCORE.INTRA.POLAR.0>
0

>  <SCORE.INTRA.REPUL>
0.272441

>  <SCORE.INTRA.REPUL.0>
0

>  <SCORE.INTRA.SOLV>
5.23705

>  <SCORE.INTRA.SOLV.lig_0>
-116.606

>  <SCORE.INTRA.VDW>
3.43989

>  <SCORE.INTRA.VDW.0>
-6.01229

>  <SCORE.INTRA.norm>
0.104429

>  <SCORE.RESTR>
0

>  <SCORE.RESTR.CAVITY>
0

>  <SCORE.RESTR.norm>
0

>  <SCORE.SYSTEM>
0

>  <SCORE.SYSTEM.CONST>
0

>  <SCORE.SYSTEM.DIHEDRAL>
0

>  <SCORE.SYSTEM.SOLV>
0

>  <SCORE.SYSTEM.norm>
0

>  <SCORE.heavy>
42

>  <SCORE.norm>
-0.117913

>  <RMSD>
8.664

$$$$
2et4_lig
 OpenBabel11021811423D
libRbt.so/2013.1/901 2013/11/27
 42 45  0  0  0  0  0  0  0  0999 V2000
   11.2555   11.8777   13.9221 C   0  0  2  0  0  0  0  0  0  0  0  0
   11.0206   10.4690   13.8726 O   0  0  0  0  0  0  0  0  0  0  0  0
   10.4629   12.5145   12.7521 C   0  0  2  0  0  0  0  0  0  0  0  0
    9.0590   12.2024   12.8373 N   0  0  0  0  0  0  0  0  0  0  0  0
   11.0632   12.0290   11.4011 C   0  0  1  0  0  0  0  0  0  0  0  0
   10.3593   12.6156   10.3512 O   0  0  0  0  0  0  0  0  0  0  0  0
   12.5830   12.4028   11.3785 C   0  0  2  0  0  0  0  0  0  0  0  0
   13.1715   11.9729   10.1692 O   0  0  0  0  0  0  0  0  0  0  0  0
   13.3335   11.7488   12.5780 C   0  0  2  0  0  0  0  0  0  0  0  0
   12.7089   12.1810   13.7903 O   0  0  0  0  0  0  0  0  0  0  0  0
   14.8485   12.1348   12.6110 C   0  0  0  0  0  0  0  0  0  0  0  0
   15.0424   13.5357   12.7561 N   0  0  0  0  0  0  0  0  0  0  0  0
    8.6372    7.4912   15.8992 C   0  0  2  0  0  0  0  0  0  0  0  0
    7.4856    6.8454   16.5414 N   0  0  0  0  0  0  0  0  0  0  0  0
    9.0140    8.8501   16.7015 C   0  0  0  0  0  0  0  0  0  0  0  0
   10.2470    9.5497   15.9963 C   0  0  2  0  0  0  0  0  0  0  0  0
   10.6083   10.8050   16.6786 N   0  0  0  0  0  0  0  0  0  0  0  0
    9.8898    9.8501   14.5014 C   0  0  2  0  0  0  0  0  0  0  0  0
    9.5007    8.5354   13.7477 C   0  0  2  0  0  0  0  0  0  0  0  0
    9.1765    8.9213   12.3894 O   0  0  0  0  0  0  0  0  0  0  0  0
    8.2786    7.8620   14.4509 C   0  0  1  0  0  0  0  0  0  0  0  0
    7.9656    6.6937   13.7705 O   0  0  0  0  0  0  0  0  0  0  0  0
    8.7798    8.0771   11.4064 C   0  0  1  0  0  0  0  0  0  0  0  0
    8.4462    8.8550   10.1067 C   0  0  2  0  0  0  0  0  0  0  0  0
    7.1445    9.3654   10.0913 O   0  0  0  0  0  0  0  0  0  0  0  0
    8.8293    7.8019    9.0835 C   0  0  1  0  0  0  0  0  0  0  0  0
   10.0723    7.0857    9.6303 C   0  0  2  0  0  0  0  0  0  0  0  0
    9.7649    7.0795   11.0243 O   0  0  0  0  0  0  0  0  0  0  0  0
   11.4408    7.7904    9.3382 C   0  0  0  0  0  0  0  0  0  0  0  0
   11.3650    9.1320    9.8889 O   0  0  0  0  0  0  0  0  0  0  0  0
    7.7879    5.8246    8.0217 C   0  0  2  0  0  0  0  0  0  0  0  0
    7.6760    6.8753    8.9424 O   0  0  0  0  0  0  0  0  0  0  0  0
    6.4061    5.0561    7.8494 C   0  0  1  0  0  0  0  0  0  0  0  0
   11.6314    3.4472    8.2369 N   0  0  0  0  0  0  0  0  0  0  0  0
    6.6573    3.8603    6.7894 C   0  0  1  0  0  0  0  0  0  0  0  0
    7.1443    4.4750    5.4923 O   0  0  0  0  0  0  0  0  0  0  0  0
    7.7624    2.8287    7.3733 C   0  0  2  0  0  0  0  0  0  0  0  0
    7.2707    2.2486    8.6053 O   0  0  0  0  0  0  0  0  0  0  0  0
    9.1514    3.6600    7.5716 C   0  0  1  0  0  0  0  0  0  0  0  0
    8.9042    4.8379    8.4735 O   0  0  0  0  0  0  0  0  0  0  0  0
   10.3012    2.7689    8.1594 C   0  0  0  0  0  0  0  0  0  0  0  0
    5.9191    4.5694    9.1823 N   0  0  0  0  0  0  0  0  0  0  0  0
  1  2  1  6  0  0  0
  1  3  1  0  0  0  0
  1 10  1  0  0  0  0
  3  4  1  1  0  0  0
  3  5  1  0  0  0  0
  5  6  1  6  0  0  0
  5  7  1  0  0  0  0
  7  8  1  6  0  0  0
  7  9  1  0  0  0  0
  9 10  1  0  0  0  0
  9 11  1  1  0  0  0
 11 12  1  0  0  0  0
 13 14  1  1  0  0  0
 13 15  1  0  0  0  0
 13 21  1  0  0  0  0
 16 15  1  0  0  0  0
 16 17  1  1  0  0  0
 18  2  1  6  0  0  0
 18 16  1  0  0  0  0
 19 18  1  0  0  0  0
 19 20  1  6  0  0  0
 21 19  1  0  0  0  0
 21 22  1  6  0  0  0
 23 20  1  1  0  0  0
 23 24  1  0  0  0  0
 23 28  1  0  0  0  0
 24 25  1  1  0  0  0
 24 26  1  0  0  0  0
 26 27  1  0  0  0  0
 26 32  1  1  0  0  0
 27 28  1  0  0  0  0
 27 29  1  1  0  0  0
 29 30  1  0  0  0  0
 31 32  1  1  0  0  0
 31 40  1  0  0  0  0
 33 31  1  0  0  0  0
 33 42  1  1  0  0  0
 35 33  1  0  0  0  0
 35 36  1  6  0  0  0
 37 35  1  0  0  0  0
 37 38  1  1  0  0  0
 37 39  1  0  0  0  0
 39 40  1  0  0  0  0
 39 41  1  1  0  0  0
 41 34  1  0  0  0  0
M  END
>  <CHROM.1>
-86.14360275,61.22925977,-86.04403406,-179.58986806,176.89110610,178.73141728
57.14019717,-172.14864746,174.37098392,9.71868034,8.25374435,11.26130027
0.95689610,0.86731557,1.15186733

>  <Name>
2et4_lig

>  <RI>
1.79929e+07

>  <Rbt.Current_Directory>
/home/itssahil/PROJECTS/Mol_Feturizer/New_Systems/rnas/2et4

>  <Rbt.Executable>
rbdock ($Id: //depot/dev/client3/rdock/2013.1/src/exe/rbdock.cxx#4 $)

>  <Rbt.Library>
libRbt.so (2013.1, Build901 2013/11/27)

>  <Rbt.Parameter_File>
/export/apps/rDock/src/rDock_2013.1_src/data/scripts/dock_solv.prm

>  <Rbt.Receptor>
prm/pocket_docking_7.prm

>  <SCORE>
-10.9341

>  <SCORE.INTER>
-4.61076

>  <SCORE.INTER.CONST>
1

>  <SCORE.INTER.POLAR>
-0.959166

>  <SCORE.INTER.ROT>
9

>  <SCORE.INTER.SOLV>
13.8726

>  <SCORE.INTER.VDW>
-14.1008

>  <SCORE.INTER.norm>
-0.10978

>  <SCORE.INTRA>
-6.32337

>  <SCORE.INTRA.DIHEDRAL>
-15.273

>  <SCORE.INTRA.DIHEDRAL.0>
21.6909

>  <SCORE.INTRA.POLAR>
0

>  <SCORE.INTRA.POLAR.0>
0

>  <SCORE.INTRA.REPUL>
0.0384734

>  <SCORE.INTRA.REPUL.0>
0

>  <SCORE.INTRA.SOLV>
0.445063

>  <SCORE.INTRA.SOLV.lig_0>
-116.606

>  <SCORE.INTRA.VDW>
0.898254

>  <SCORE.INTRA.VDW.0>
-6.01229

>  <SCORE.INTRA.norm>
-0.150556

>  <SCORE.RESTR>
0

>  <SCORE.RESTR.CAVITY>
0

>  <SCORE.RESTR.norm>
0

>  <SCORE.SYSTEM>
0

>  <SCORE.SYSTEM.CONST>
0

>  <SCORE.SYSTEM.DIHEDRAL>
0

>  <SCORE.SYSTEM.SOLV>
0

>  <SCORE.SYSTEM.norm>
0

>  <SCORE.heavy>
42

>  <SCORE.norm>
-0.260336

>  <RMSD>
8.670

$$$$
2et4_lig
 OpenBabel11021811423D
libRbt.so/2013.1/901 2013/11/27
 42 45  0  0  0  0  0  0  0  0999 V2000
   10.5300    8.3116   10.7356 C   0  0  2  0  0  0  0  0  0  0  0  0
   10.8118    7.4105    9.6628 O   0  0  0  0  0  0  0  0  0  0  0  0
   11.0281    9.7128   10.2984 C   0  0  2  0  0  0  0  0  0  0  0  0
   10.4045   10.1320    9.0691 N   0  0  0  0  0  0  0  0  0  0  0  0
   12.5777    9.6863   10.1592 C   0  0  1  0  0  0  0  0  0  0  0  0
   13.0242   10.9512    9.7819 O   0  0  0  0  0  0  0  0  0  0  0  0
   13.1840    9.2267   11.5271 C   0  0  2  0  0  0  0  0  0  0  0  0
   14.5927    9.1814   11.4439 O   0  0  0  0  0  0  0  0  0  0  0  0
   12.6459    7.8198   11.9282 C   0  0  2  0  0  0  0  0  0  0  0  0
   11.2179    7.8831   11.9865 O   0  0  0  0  0  0  0  0  0  0  0  0
   13.1992    7.3457   13.3119 C   0  0  0  0  0  0  0  0  0  0  0  0
   12.7781    8.1894   14.3758 N   0  0  0  0  0  0  0  0  0  0  0  0
    9.2442    3.6697   11.1472 C   0  0  2  0  0  0  0  0  0  0  0  0
    8.8524    2.2554   11.1906 N   0  0  0  0  0  0  0  0  0  0  0  0
    8.4430    4.4180    9.9512 C   0  0  0  0  0  0  0  0  0  0  0  0
    8.8800    5.9391    9.8998 C   0  0  2  0  0  0  0  0  0  0  0  0
    8.1940    6.6531    8.8083 N   0  0  0  0  0  0  0  0  0  0  0  0
   10.4296    6.0285    9.6918 C   0  0  2  0  0  0  0  0  0  0  0  0
   11.1885    5.2784   10.8360 C   0  0  2  0  0  0  0  0  0  0  0  0
   12.6018    5.4069   10.5445 O   0  0  0  0  0  0  0  0  0  0  0  0
   10.7522    3.7784   10.8683 C   0  0  1  0  0  0  0  0  0  0  0  0
   11.4294    3.1430   11.8995 O   0  0  0  0  0  0  0  0  0  0  0  0
   13.1995    5.0516    9.3814 C   0  0  1  0  0  0  0  0  0  0  0  0
   14.6506    5.5949    9.3135 C   0  0  2  0  0  0  0  0  0  0  0  0
   14.7215    6.9157    8.8600 O   0  0  0  0  0  0  0  0  0  0  0  0
   15.2850    4.5004    8.4754 C   0  0  1  0  0  0  0  0  0  0  0  0
   14.6414    3.1777    8.9150 C   0  0  2  0  0  0  0  0  0  0  0  0
   13.3067    3.6189    9.1632 O   0  0  0  0  0  0  0  0  0  0  0  0
   15.2774    2.5046   10.1788 C   0  0  0  0  0  0  0  0  0  0  0  0
   15.0091    3.3702   11.3136 O   0  0  0  0  0  0  0  0  0  0  0  0
   15.6580    5.8975    6.4678 C   0  0  2  0  0  0  0  0  0  0  0  0
   14.9984    4.8064    7.0496 O   0  0  0  0  0  0  0  0  0  0  0  0
   15.1274    6.1765    4.9946 C   0  0  1  0  0  0  0  0  0  0  0  0
   19.8944    5.0930    5.1709 N   0  0  0  0  0  0  0  0  0  0  0  0
   15.9678    7.4325    4.4175 C   0  0  1  0  0  0  0  0  0  0  0  0
   15.7497    8.6113    5.3450 O   0  0  0  0  0  0  0  0  0  0  0  0
   17.5425    7.0563    4.3459 C   0  0  2  0  0  0  0  0  0  0  0  0
   17.7258    5.9354    3.4481 O   0  0  0  0  0  0  0  0  0  0  0  0
   18.0402    6.7410    5.8667 C   0  0  1  0  0  0  0  0  0  0  0  0
   17.1941    5.6439    6.4518 O   0  0  0  0  0  0  0  0  0  0  0  0
   19.5550    6.3375    5.9271 C   0  0  0  0  0  0  0  0  0  0  0  0
   15.2653    4.9401    4.1561 N   0  0  0  0  0  0  0  0  0  0  0  0
  1  2  1  6  0  0  0
  1  3  1  0  0  0  0
  1 10  1  0  0  0  0
  3  4  1  6  0  0  0
  3  5  1  0  0  0  0
  5  6  1  1  0  0  0
  5  7  1  0  0  0  0
  7  8  1  6  0  0  0
  7  9  1  0  0  0  0
  9 10  1  0  0  0  0
  9 11  1  1  0  0  0
 11 12  1  0  0  0  0
 13 14  1  6  0  0  0
 13 15  1  0  0  0  0
 13 21  1  0  0  0  0
 16 15  1  0  0  0  0
 16 17  1  6  0  0  0
 18  2  1  1  0  0  0
 18 16  1  0  0  0  0
 19 18  1  0  0  0  0
 19 20  1  6  0  0  0
 21 19  1  0  0  0  0
 21 22  1  1  0  0  0
 23 20  1  1  0  0  0
 23 24  1  0  0  0  0
 23 28  1  0  0  0  0
 24 25  1  6  0  0  0
 24 26  1  0  0  0  0
 26 27  1  0  0  0  0
 26 32  1  6  0  0  0
 27 28  1  0  0  0  0
 27 29  1  1  0  0  0
 29 30  1  0  0  0  0
 31 32  1  6  0  0  0
 31 40  1  0  0  0  0
 33 31  1  0  0  0  0
 33 42  1  6  0  0  0
 35 33  1  0  0  0  0
 35 36  1  1  0  0  0
 37 35  1  0  0  0  0
 37 38  1  6  0  0  0
 37 39  1  0  0  0  0
 39 40  1  0  0  0  0
 39 41  1  6  0  0  0
 41 34  1  0  0  0  0
M  END
>  <CHROM.1>
-177.03083461,63.38079576,57.15386311,-54.61777052,168.27384101,70.86719639
66.64598850,-174.06412323,-61.73443240,13.48165979,6.23558937,9.01127456
-3.07069868,-0.71263506,-3.07316817

>  <Name>
2et4_lig

>  <RI>
1.79929e+07

>  <Rbt.Current_Directory>
/home/itssahil/PROJECTS/Mol_Feturizer/New_Systems/rnas/2et4

>  <Rbt.Executable>
rbdock ($Id: //depot/dev/client3/rdock/2013.1/src/exe/rbdock.cxx#4 $)

>  <Rbt.Library>
libRbt.so (2013.1, Build901 2013/11/27)

>  <Rbt.Parameter_File>
/export/apps/rDock/src/rDock_2013.1_src/data/scripts/dock_solv.prm

>  <Rbt.Receptor>
prm/pocket_docking_7.prm

>  <SCORE>
-13.2661

>  <SCORE.INTER>
-4.68393

>  <SCORE.INTER.CONST>
1

>  <SCORE.INTER.POLAR>
-1.43306

>  <SCORE.INTER.ROT>
9

>  <SCORE.INTER.SOLV>
10.4514

>  <SCORE.INTER.VDW>
-11.4295

>  <SCORE.INTER.norm>
-0.111522

>  <SCORE.INTRA>
-8.58215

>  <SCORE.INTRA.DIHEDRAL>
-19.7047

>  <SCORE.INTRA.DIHEDRAL.0>
21.6909

>  <SCORE.INTRA.POLAR>
0

>  <SCORE.INTRA.POLAR.0>
0

>  <SCORE.INTRA.REPUL>
0

>  <SCORE.INTRA.REPUL.0>
0

>  <SCORE.INTRA.SOLV>
0.217189

>  <SCORE.INTRA.SOLV.lig_0>
-116.606

>  <SCORE.INTRA.VDW>
1.1616

>  <SCORE.INTRA.VDW.0>
-6.01229

>  <SCORE.INTRA.norm>
-0.204337

>  <SCORE.RESTR>
0

>  <SCORE.RESTR.CAVITY>
0

>  <SCORE.RESTR.norm>
0

>  <SCORE.SYSTEM>
0

>  <SCORE.SYSTEM.CONST>
0

>  <SCORE.SYSTEM.DIHEDRAL>
0

>  <SCORE.SYSTEM.SOLV>
0

>  <SCORE.SYSTEM.norm>
0

>  <SCORE.heavy>
42

>  <SCORE.norm>
-0.315859

>  <RMSD>
8.671

$$$$
2et4_lig
 OpenBabel11021811423D
libRbt.so/2013.1/901 2013/11/27
 42 45  0  0  0  0  0  0  0  0999 V2000
   10.4109    8.4191   10.7751 C   0  0  2  0  0  0  0  0  0  0  0  0
   10.3665    7.6749    9.5559 O   0  0  0  0  0  0  0  0  0  0  0  0
   11.1663    9.7395   10.4773 C   0  0  2  0  0  0  0  0  0  0  0  0
   10.5293   10.4819    9.4196 N   0  0  0  0  0  0  0  0  0  0  0  0
   12.6459    9.4153   10.1212 C   0  0  1  0  0  0  0  0  0  0  0  0
   13.3265   10.6050    9.8698 O   0  0  0  0  0  0  0  0  0  0  0  0
   13.2714    8.6140   11.3114 C   0  0  2  0  0  0  0  0  0  0  0  0
   14.6162    8.2914   11.0269 O   0  0  0  0  0  0  0  0  0  0  0  0
   12.4722    7.3025   11.5785 C   0  0  2  0  0  0  0  0  0  0  0  0
   11.1102    7.6507   11.8438 O   0  0  0  0  0  0  0  0  0  0  0  0
   13.0447    6.4956   12.7895 C   0  0  0  0  0  0  0  0  0  0  0  0
   12.4098    5.2327   12.9412 N   0  0  0  0  0  0  0  0  0  0  0  0
    7.5942    4.6564    8.1930 C   0  0  2  0  0  0  0  0  0  0  0  0
    6.3663    4.0407    7.6745 N   0  0  0  0  0  0  0  0  0  0  0  0
    7.2695    5.4259    9.5840 C   0  0  0  0  0  0  0  0  0  0  0  0
    8.5939    6.0999   10.1309 C   0  0  2  0  0  0  0  0  0  0  0  0
    8.3393    6.8336   11.3833 N   0  0  0  0  0  0  0  0  0  0  0  0
    9.1602    7.0845    9.0527 C   0  0  2  0  0  0  0  0  0  0  0  0
    9.4413    6.3352    7.7084 C   0  0  2  0  0  0  0  0  0  0  0  0
    9.9436    7.3290    6.7815 O   0  0  0  0  0  0  0  0  0  0  0  0
    8.1241    5.6829    7.1785 C   0  0  1  0  0  0  0  0  0  0  0  0
    8.4063    5.0151    5.9952 O   0  0  0  0  0  0  0  0  0  0  0  0
   11.2450    7.6747    6.6295 C   0  0  1  0  0  0  0  0  0  0  0  0
   12.0128    6.6036    5.8118 C   0  0  2  0  0  0  0  0  0  0  0  0
   12.4649    5.5360    6.5934 O   0  0  0  0  0  0  0  0  0  0  0  0
   13.0356    7.4966    5.1343 C   0  0  1  0  0  0  0  0  0  0  0  0
   12.3195    8.8119    4.7964 C   0  0  2  0  0  0  0  0  0  0  0  0
   11.4654    8.9314    5.9340 O   0  0  0  0  0  0  0  0  0  0  0  0
   11.5087    8.8143    3.4558 C   0  0  0  0  0  0  0  0  0  0  0  0
   10.3900    7.9034    3.6229 O   0  0  0  0  0  0  0  0  0  0  0  0
   15.4578    7.4832    5.6387 C   0  0  2  0  0  0  0  0  0  0  0  0
   14.1512    7.7063    6.0936 O   0  0  0  0  0  0  0  0  0  0  0  0
   15.4635    6.6845    4.2633 C   0  0  1  0  0  0  0  0  0  0  0  0
   17.7139    4.3523    7.9261 N   0  0  0  0  0  0  0  0  0  0  0  0
   17.0115    6.4660    3.8479 C   0  0  1  0  0  0  0  0  0  0  0  0
   17.6643    7.8288    3.7294 O   0  0  0  0  0  0  0  0  0  0  0  0
   17.7647    5.5770    4.9743 C   0  0  2  0  0  0  0  0  0  0  0  0
   17.1297    4.2789    5.0619 O   0  0  0  0  0  0  0  0  0  0  0  0
   17.7056    6.4098    6.3754 C   0  0  1  0  0  0  0  0  0  0  0  0
   16.2722    6.7107    6.7175 O   0  0  0  0  0  0  0  0  0  0  0  0
   18.3862    5.6361    7.5583 C   0  0  0  0  0  0  0  0  0  0  0  0
   14.7063    5.3980    4.4130 N   0  0  0  0  0  0  0  0  0  0  0  0
  1  2  1  6  0  0  0
  1  3  1  0  0  0  0
  1 10  1  0  0  0  0
  3  4  1  6  0  0  0
  3  5  1  0  0  0  0
  5  6  1  1  0  0  0
  5  7  1  0  0  0  0
  7  8  1  6  0  0  0
  7  9  1  0  0  0  0
  9 10  1  0  0  0  0
  9 11  1  1  0  0  0
 11 12  1  0  0  0  0
 13 14  1  6  0  0  0
 13 15  1  0  0  0  0
 13 21  1  0  0  0  0
 16 15  1  0  0  0  0
 16 17  1  1  0  0  0
 18  2  1  1  0  0  0
 18 16  1  0  0  0  0
 19 18  1  0  0  0  0
 19 20  1  6  0  0  0
 21 19  1  0  0  0  0
 21 22  1  6  0  0  0
 23 20  1  6  0  0  0
 23 24  1  0  0  0  0
 23 28  1  0  0  0  0
 24 25  1  1  0  0  0
 24 26  1  0  0  0  0
 26 27  1  0  0  0  0
 26 32  1  1  0  0  0
 27 28  1  0  0  0  0
 27 29  1  6  0  0  0
 29 30  1  0  0  0  0
 31 32  1  1  0  0  0
 31 40  1  0  0  0  0
 33 31  1  0  0  0  0
 33 42  1  1  0  0  0
 35 33  1  0  0  0  0
 35 36  1  1  0  0  0
 37 35  1  0  0  0  0
 37 38  1  1  0  0  0
 37 39  1  0  0  0  0
 39 40  1  0  0  0  0
 39 41  1  1  0  0  0
 41 34  1  0  0  0  0
M  END
>  <CHROM.1>
-131.59289454,-173.57955792,-58.01552953,88.70823218,76.89147557,129.74793207
67.29678253,-14.58598184,-64.06947366,12.46108582,7.02613187,7.69295677,-2.59774729
-0.04460443,-1.73241396

>  <Name>
2et4_lig

>  <RI>
0

>  <Rbt.Current_Directory>
/home/itssahil/PROJECTS/Mol_Feturizer/New_Systems/rnas/2et4

>  <Rbt.Executable>
rbdock ($Id: //depot/dev/client3/rdock/2013.1/src/exe/rbdock.cxx#4 $)

>  <Rbt.Library>
libRbt.so (2013.1, Build901 2013/11/27)

>  <Rbt.Parameter_File>
/export/apps/rDock/src/rDock_2013.1_src/data/scripts/dock_solv.prm

>  <Rbt.Receptor>
prm/pocket_docking_3.prm

>  <SCORE>
-3.51329

>  <SCORE.INTER>
-9.8019

>  <SCORE.INTER.CONST>
1

>  <SCORE.INTER.POLAR>
-1.74613

>  <SCORE.INTER.ROT>
9

>  <SCORE.INTER.SOLV>
9.97486

>  <SCORE.INTER.VDW>
-13.6391

>  <SCORE.INTER.norm>
-0.233379

>  <SCORE.INTRA>
6.27151

>  <SCORE.INTRA.DIHEDRAL>
2.95433

>  <SCORE.INTRA.DIHEDRAL.0>
21.6909

>  <SCORE.INTRA.POLAR>
0

>  <SCORE.INTRA.POLAR.0>
0

>  <SCORE.INTRA.REPUL>
0

>  <SCORE.INTRA.REPUL.0>
0

>  <SCORE.INTRA.SOLV>
2.13608

>  <SCORE.INTRA.SOLV.lig_0>
-116.606

>  <SCORE.INTRA.VDW>
3.7263

>  <SCORE.INTRA.VDW.0>
-6.01229

>  <SCORE.INTRA.norm>
0.149322

>  <SCORE.RESTR>
0.0171009

>  <SCORE.RESTR.CAVITY>
0.0171009

>  <SCORE.RESTR.norm>
0.000407164

>  <SCORE.SYSTEM>
0

>  <SCORE.SYSTEM.CONST>
0

>  <SCORE.SYSTEM.DIHEDRAL>
0

>  <SCORE.SYSTEM.SOLV>
0

>  <SCORE.SYSTEM.norm>
0

>  <SCORE.heavy>
42

>  <SCORE.norm>
-0.0836498

>  <RMSD>
8.678

$$$$
2et4_lig
 OpenBabel11021811423D
libRbt.so/2013.1/901 2013/11/27
 42 45  0  0  0  0  0  0  0  0999 V2000
   14.3049   10.3875   12.7497 C   0  0  2  0  0  0  0  0  0  0  0  0
   13.4940   10.4838   13.9225 O   0  0  0  0  0  0  0  0  0  0  0  0
   14.9827   11.7669   12.5483 C   0  0  2  0  0  0  0  0  0  0  0  0
   15.7550   12.1465   13.7038 N   0  0  0  0  0  0  0  0  0  0  0  0
   13.8942   12.8318   12.2281 C   0  0  1  0  0  0  0  0  0  0  0  0
   14.5076   14.0674   12.0315 O   0  0  0  0  0  0  0  0  0  0  0  0
   13.1005   12.3559   10.9658 C   0  0  2  0  0  0  0  0  0  0  0  0
   12.0942   13.2921   10.6426 O   0  0  0  0  0  0  0  0  0  0  0  0
   12.4474   10.9623   11.2134 C   0  0  2  0  0  0  0  0  0  0  0  0
   13.4808   10.0352   11.5589 O   0  0  0  0  0  0  0  0  0  0  0  0
   11.6795   10.4357    9.9570 C   0  0  0  0  0  0  0  0  0  0  0  0
   10.7713   11.3996    9.4402 N   0  0  0  0  0  0  0  0  0  0  0  0
   10.3231    7.9965   15.4761 C   0  0  2  0  0  0  0  0  0  0  0  0
    9.0167    7.3374   15.5968 N   0  0  0  0  0  0  0  0  0  0  0  0
   10.1236    9.6063   15.5102 C   0  0  0  0  0  0  0  0  0  0  0  0
   11.5338   10.3118   15.3652 C   0  0  2  0  0  0  0  0  0  0  0  0
   11.3971   11.7791   15.3654 N   0  0  0  0  0  0  0  0  0  0  0  0
   12.2126    9.8490   14.0319 C   0  0  2  0  0  0  0  0  0  0  0  0
   12.3722    8.2929   14.0002 C   0  0  2  0  0  0  0  0  0  0  0  0
   12.9908    7.9693   12.7307 O   0  0  0  0  0  0  0  0  0  0  0  0
   10.9722    7.6125   14.1364 C   0  0  1  0  0  0  0  0  0  0  0  0
   11.1461    6.2359   14.1192 O   0  0  0  0  0  0  0  0  0  0  0  0
   13.9322    7.0141   12.5364 C   0  0  1  0  0  0  0  0  0  0  0  0
   14.5758    6.5864   13.8811 C   0  0  2  0  0  0  0  0  0  0  0  0
   15.6185    7.4270   14.2825 O   0  0  0  0  0  0  0  0  0  0  0  0
   14.8904    5.1382   13.5545 C   0  0  1  0  0  0  0  0  0  0  0  0
   13.7317    4.6176   12.6923 C   0  0  2  0  0  0  0  0  0  0  0  0
   13.4417    5.7884   11.9290 O   0  0  0  0  0  0  0  0  0  0  0  0
   12.4771    4.1109   13.4821 C   0  0  0  0  0  0  0  0  0  0  0  0
   11.6122    3.4310   12.5341 O   0  0  0  0  0  0  0  0  0  0  0  0
   16.1342    5.0995   11.4161 C   0  0  2  0  0  0  0  0  0  0  0  0
   16.1803    5.1164   12.8166 O   0  0  0  0  0  0  0  0  0  0  0  0
   15.3199    3.8434   10.8787 C   0  0  1  0  0  0  0  0  0  0  0  0
   19.8410    3.7455    8.8957 N   0  0  0  0  0  0  0  0  0  0  0  0
   15.3508    3.9138    9.2629 C   0  0  1  0  0  0  0  0  0  0  0  0
   14.7326    5.2306    8.8369 O   0  0  0  0  0  0  0  0  0  0  0  0
   16.8798    3.8130    8.7355 C   0  0  2  0  0  0  0  0  0  0  0  0
   17.4443    2.5446    9.1462 O   0  0  0  0  0  0  0  0  0  0  0  0
   17.6904    5.0943    9.3362 C   0  0  1  0  0  0  0  0  0  0  0  0
   17.5791    5.0973   10.8361 O   0  0  0  0  0  0  0  0  0  0  0  0
   19.2010    5.0967    8.9125 C   0  0  0  0  0  0  0  0  0  0  0  0
   15.9101    2.5767   11.4246 N   0  0  0  0  0  0  0  0  0  0  0  0
  1  2  1  1  0  0  0
  1  3  1  0  0  0  0
  1 10  1  0  0  0  0
  3  4  1  1  0  0  0
  3  5  1  0  0  0  0
  5  6  1  6  0  0  0
  5  7  1  0  0  0  0
  7  8  1  1  0  0  0
  7  9  1  0  0  0  0
  9 10  1  0  0  0  0
  9 11  1  6  0  0  0
 11 12  1  0  0  0  0
 13 14  1  6  0  0  0
 13 15  1  0  0  0  0
 13 21  1  0  0  0  0
 16 15  1  0  0  0  0
 16 17  1  6  0  0  0
 18  2  1  1  0  0  0
 18 16  1  0  0  0  0
 19 18  1  0  0  0  0
 19 20  1  6  0  0  0
 21 19  1  0  0  0  0
 21 22  1  1  0  0  0
 23 20  1  1  0  0  0
 23 24  1  0  0  0  0
 23 28  1  0  0  0  0
 24 25  1  6  0  0  0
 24 26  1  0  0  0  0
 26 27  1  0  0  0  0
 26 32  1  6  0  0  0
 27 28  1  0  0  0  0
 27 29  1  1  0  0  0
 29 30  1  0  0  0  0
 31 32  1  1  0  0  0
 31 40  1  0  0  0  0
 33 31  1  0  0  0  0
 33 42  1  6  0  0  0
 35 33  1  0  0  0  0
 35 36  1  1  0  0  0
 37 35  1  0  0  0  0
 37 38  1  1  0  0  0
 37 39  1  0  0  0  0
 39 40  1  0  0  0  0
 39 41  1  1  0  0  0
 41 34  1  0  0  0  0
M  END
>  <CHROM.1>
142.17044310,-50.98989007,-172.90623697,141.37796285,-16.68709196,-95.38516691
-169.23848568,-58.07479446,-38.52099299,13.94274707,7.66410366,12.19056480
-2.28145736,-0.69409923,3.02517286

>  <Name>
2et4_lig

>  <RI>
0

>  <Rbt.Current_Directory>
/home/itssahil/PROJECTS/Mol_Feturizer/New_Systems/rnas/2et4

>  <Rbt.Executable>
rbdock ($Id: //depot/dev/client3/rdock/2013.1/src/exe/rbdock.cxx#4 $)

>  <Rbt.Library>
libRbt.so (2013.1, Build901 2013/11/27)

>  <Rbt.Parameter_File>
/export/apps/rDock/src/rDock_2013.1_src/data/scripts/dock_solv.prm

>  <Rbt.Receptor>
prm/blind_docking_100.prm

>  <SCORE>
35.3095

>  <SCORE.INTER>
5.13422

>  <SCORE.INTER.CONST>
1

>  <SCORE.INTER.POLAR>
0

>  <SCORE.INTER.ROT>
9

>  <SCORE.INTER.SOLV>
29.9071

>  <SCORE.INTER.VDW>
-16.1462

>  <SCORE.INTER.norm>
0.122243

>  <SCORE.INTRA>
13.6523

>  <SCORE.INTRA.DIHEDRAL>
1.5677

>  <SCORE.INTRA.DIHEDRAL.0>
21.6909

>  <SCORE.INTRA.POLAR>
0

>  <SCORE.INTRA.POLAR.0>
0

>  <SCORE.INTRA.REPUL>
0

>  <SCORE.INTRA.REPUL.0>
0

>  <SCORE.INTRA.SOLV>
1.6251

>  <SCORE.INTRA.SOLV.lig_0>
-116.606

>  <SCORE.INTRA.VDW>
12.0559

>  <SCORE.INTRA.VDW.0>
-6.01229

>  <SCORE.INTRA.norm>
0.325055

>  <SCORE.RESTR>
16.523

>  <SCORE.RESTR.CAVITY>
16.523

>  <SCORE.RESTR.norm>
0.393404

>  <SCORE.SYSTEM>
0

>  <SCORE.SYSTEM.CONST>
0

>  <SCORE.SYSTEM.DIHEDRAL>
0

>  <SCORE.SYSTEM.SOLV>
0

>  <SCORE.SYSTEM.norm>
0

>  <SCORE.heavy>
42

>  <SCORE.norm>
0.840702

>  <RMSD>
8.681

$$$$
2et4_lig
 OpenBabel11021811423D
libRbt.so/2013.1/901 2013/11/27
 42 45  0  0  0  0  0  0  0  0999 V2000
    9.9630    4.3627   11.1207 C   0  0  2  0  0  0  0  0  0  0  0  0
   11.1182    4.6961   11.8930 O   0  0  0  0  0  0  0  0  0  0  0  0
   10.4249    4.2139    9.6486 C   0  0  2  0  0  0  0  0  0  0  0  0
   11.4598    3.2198    9.5207 N   0  0  0  0  0  0  0  0  0  0  0  0
   10.9075    5.5955    9.1198 C   0  0  1  0  0  0  0  0  0  0  0  0
   11.3069    5.4622    7.7915 O   0  0  0  0  0  0  0  0  0  0  0  0
    9.7360    6.6199    9.2873 C   0  0  2  0  0  0  0  0  0  0  0  0
   10.1338    7.8933    8.8251 O   0  0  0  0  0  0  0  0  0  0  0  0
    9.3007    6.7263   10.7803 C   0  0  2  0  0  0  0  0  0  0  0  0
    8.9219    5.4233   11.2334 O   0  0  0  0  0  0  0  0  0  0  0  0
    8.1027    7.7114   10.9798 C   0  0  0  0  0  0  0  0  0  0  0  0
    8.4030    9.0220   10.5178 N   0  0  0  0  0  0  0  0  0  0  0  0
    9.5562    6.1785   15.6370 C   0  0  2  0  0  0  0  0  0  0  0  0
    9.4756    6.5190   17.0629 N   0  0  0  0  0  0  0  0  0  0  0  0
    9.7679    4.5784   15.4725 C   0  0  0  0  0  0  0  0  0  0  0  0
    9.8686    4.2190   13.9337 C   0  0  2  0  0  0  0  0  0  0  0  0
   10.0874    2.7749   13.7378 N   0  0  0  0  0  0  0  0  0  0  0  0
   11.0495    5.0201   13.2885 C   0  0  2  0  0  0  0  0  0  0  0  0
   10.8471    6.5597   13.4798 C   0  0  2  0  0  0  0  0  0  0  0  0
   11.9906    7.2037   12.8662 O   0  0  0  0  0  0  0  0  0  0  0  0
   10.7575    6.8984   15.0026 C   0  0  1  0  0  0  0  0  0  0  0  0
   10.5644    8.2656   15.1408 O   0  0  0  0  0  0  0  0  0  0  0  0
   12.1959    7.3364   11.5333 C   0  0  1  0  0  0  0  0  0  0  0  0
   12.9824    8.6356   11.2186 C   0  0  2  0  0  0  0  0  0  0  0  0
   12.1633    9.7652   11.1294 O   0  0  0  0  0  0  0  0  0  0  0  0
   13.7309    8.1772    9.9807 C   0  0  1  0  0  0  0  0  0  0  0  0
   14.1114    6.7081   10.2126 C   0  0  2  0  0  0  0  0  0  0  0  0
   12.9572    6.2596   10.9229 O   0  0  0  0  0  0  0  0  0  0  0  0
   15.4270    6.4722   11.0300 C   0  0  0  0  0  0  0  0  0  0  0  0
   15.2055    6.9894   12.3688 O   0  0  0  0  0  0  0  0  0  0  0  0
   13.3695    8.7273    7.5957 C   0  0  2  0  0  0  0  0  0  0  0  0
   12.8148    8.3335    8.8210 O   0  0  0  0  0  0  0  0  0  0  0  0
   12.2383    9.0675    6.5307 C   0  0  1  0  0  0  0  0  0  0  0  0
   16.9078    6.2927    6.3666 N   0  0  0  0  0  0  0  0  0  0  0  0
   12.9878    9.4849    5.1593 C   0  0  1  0  0  0  0  0  0  0  0  0
   13.8824   10.6724    5.4540 O   0  0  0  0  0  0  0  0  0  0  0  0
   13.8679    8.2395    4.6107 C   0  0  2  0  0  0  0  0  0  0  0  0
   12.9911    7.1226    4.3280 O   0  0  0  0  0  0  0  0  0  0  0  0
   14.9900    7.8964    5.7434 C   0  0  1  0  0  0  0  0  0  0  0  0
   14.3070    7.6094    7.0523 O   0  0  0  0  0  0  0  0  0  0  0  0
   15.8968    6.6826    5.3363 C   0  0  0  0  0  0  0  0  0  0  0  0
   11.3182    7.8940    6.3657 N   0  0  0  0  0  0  0  0  0  0  0  0
  1  2  1  1  0  0  0
  1  3  1  0  0  0  0
  1 10  1  0  0  0  0
  3  4  1  1  0  0  0
  3  5  1  0  0  0  0
  5  6  1  6  0  0  0
  5  7  1  0  0  0  0
  7  8  1  1  0  0  0
  7  9  1  0  0  0  0
  9 10  1  0  0  0  0
  9 11  1  6  0  0  0
 11 12  1  0  0  0  0
 13 14  1  1  0  0  0
 13 15  1  0  0  0  0
 13 21  1  0  0  0  0
 16 15  1  0  0  0  0
 16 17  1  1  0  0  0
 18  2  1  6  0  0  0
 18 16  1  0  0  0  0
 19 18  1  0  0  0  0
 19 20  1  1  0  0  0
 21 19  1  0  0  0  0
 21 22  1  6  0  0  0
 23 20  1  1  0  0  0
 23 24  1  0  0  0  0
 23 28  1  0  0  0  0
 24 25  1  6  0  0  0
 24 26  1  0  0  0  0
 26 27  1  0  0  0  0
 26 32  1  6  0  0  0
 27 28  1  0  0  0  0
 27 29  1  1  0  0  0
 29 30  1  0  0  0  0
 31 32  1  1  0  0  0
 31 40  1  0  0  0  0
 33 31  1  0  0  0  0
 33 42  1  6  0  0  0
 35 33  1  0  0  0  0
 35 36  1  1  0  0  0
 37 35  1  0  0  0  0
 37 38  1  1  0  0  0
 37 39  1  0  0  0  0
 39 40  1  0  0  0  0
 39 41  1  6  0  0  0
 41 34  1  0  0  0  0
M  END
>  <CHROM.1>
174.66143682,-58.28899676,31.48881888,74.57039859,148.81851278,144.10771249
64.67159123,-171.04951723,-177.68574919,11.87737453,6.86732457,10.17689698
2.01520303,0.26358833,1.72309863

>  <Name>
2et4_lig

>  <RI>
3.65815e+07

>  <Rbt.Current_Directory>
/home/itssahil/PROJECTS/Mol_Feturizer/New_Systems/rnas/2et4

>  <Rbt.Executable>
rbdock ($Id: //depot/dev/client3/rdock/2013.1/src/exe/rbdock.cxx#4 $)

>  <Rbt.Library>
libRbt.so (2013.1, Build901 2013/11/27)

>  <Rbt.Parameter_File>
/export/apps/rDock/src/rDock_2013.1_src/data/scripts/dock_solv.prm

>  <Rbt.Receptor>
prm/pocket_docking_4.prm

>  <SCORE>
-5.13166

>  <SCORE.INTER>
-4.19839

>  <SCORE.INTER.CONST>
1

>  <SCORE.INTER.POLAR>
-0.916515

>  <SCORE.INTER.ROT>
9

>  <SCORE.INTER.SOLV>
9.81124

>  <SCORE.INTER.VDW>
-12.6143

>  <SCORE.INTER.norm>
-0.0999617

>  <SCORE.INTRA>
-0.933266

>  <SCORE.INTRA.DIHEDRAL>
-8.11258

>  <SCORE.INTRA.DIHEDRAL.0>
21.6909

>  <SCORE.INTRA.POLAR>
0

>  <SCORE.INTRA.POLAR.0>
0

>  <SCORE.INTRA.REPUL>
0.554655

>  <SCORE.INTRA.REPUL.0>
0

>  <SCORE.INTRA.SOLV>
3.73933

>  <SCORE.INTRA.SOLV.lig_0>
-116.606

>  <SCORE.INTRA.VDW>
-1.51991

>  <SCORE.INTRA.VDW.0>
-6.01229

>  <SCORE.INTRA.norm>
-0.0222206

>  <SCORE.RESTR>
0

>  <SCORE.RESTR.CAVITY>
0

>  <SCORE.RESTR.norm>
0

>  <SCORE.SYSTEM>
0

>  <SCORE.SYSTEM.CONST>
0

>  <SCORE.SYSTEM.DIHEDRAL>
0

>  <SCORE.SYSTEM.SOLV>
0

>  <SCORE.SYSTEM.norm>
0

>  <SCORE.heavy>
42

>  <SCORE.norm>
-0.122182

>  <RMSD>
8.684

$$$$
2et4_lig
 OpenBabel11021811423D
libRbt.so/2013.1/901 2013/11/27
 42 45  0  0  0  0  0  0  0  0999 V2000
    9.2612    6.2062    9.9427 C   0  0  2  0  0  0  0  0  0  0  0  0
   10.1665    5.1334   10.2100 O   0  0  0  0  0  0  0  0  0  0  0  0
    8.5615    6.5578   11.2805 C   0  0  2  0  0  0  0  0  0  0  0  0
    9.5194    6.9064   12.2985 N   0  0  0  0  0  0  0  0  0  0  0  0
    7.6796    5.3570   11.7295 C   0  0  1  0  0  0  0  0  0  0  0  0
    7.0392    5.6818   12.9237 O   0  0  0  0  0  0  0  0  0  0  0  0
    6.6658    5.0379   10.5804 C   0  0  2  0  0  0  0  0  0  0  0  0
    5.8473    3.9462   10.9434 O   0  0  0  0  0  0  0  0  0  0  0  0
    7.4158    4.7016    9.2559 C   0  0  2  0  0  0  0  0  0  0  0  0
    8.2536    5.8110    8.9180 O   0  0  0  0  0  0  0  0  0  0  0  0
    6.4326    4.4175    8.0735 C   0  0  0  0  0  0  0  0  0  0  0  0
    7.1127    3.9871    6.9016 N   0  0  0  0  0  0  0  0  0  0  0  0
   13.9409    7.1348   10.8450 C   0  0  2  0  0  0  0  0  0  0  0  0
   15.3879    7.3477   10.9739 N   0  0  0  0  0  0  0  0  0  0  0  0
   13.4521    6.0489   11.9469 C   0  0  0  0  0  0  0  0  0  0  0  0
   11.8939    5.8126   11.7937 C   0  0  2  0  0  0  0  0  0  0  0  0
   11.4101    4.8114   12.7608 N   0  0  0  0  0  0  0  0  0  0  0  0
   11.5817    5.3281   10.3376 C   0  0  2  0  0  0  0  0  0  0  0  0
   12.0842    6.3708    9.2849 C   0  0  2  0  0  0  0  0  0  0  0  0
   11.7635    5.8256    7.9814 O   0  0  0  0  0  0  0  0  0  0  0  0
   13.6235    6.5867    9.4441 C   0  0  1  0  0  0  0  0  0  0  0  0
   14.0374    7.5247    8.5089 O   0  0  0  0  0  0  0  0  0  0  0  0
   11.8577    6.4932    6.8059 C   0  0  1  0  0  0  0  0  0  0  0  0
   11.1399    5.7204    5.6688 C   0  0  2  0  0  0  0  0  0  0  0  0
   11.9399    4.7326    5.0864 O   0  0  0  0  0  0  0  0  0  0  0  0
   10.6930    6.8939    4.8168 C   0  0  1  0  0  0  0  0  0  0  0  0
   10.2943    8.0167    5.7848 C   0  0  2  0  0  0  0  0  0  0  0  0
   11.2687    7.8217    6.8096 O   0  0  0  0  0  0  0  0  0  0  0  0
    8.8338    7.9373    6.3464 C   0  0  0  0  0  0  0  0  0  0  0  0
    8.6913    8.9897    7.3369 O   0  0  0  0  0  0  0  0  0  0  0  0
   12.8032    8.1474    4.5051 C   0  0  2  0  0  0  0  0  0  0  0  0
   11.8414    7.2866    3.9592 O   0  0  0  0  0  0  0  0  0  0  0  0
   12.7763    9.5704    3.7950 C   0  0  1  0  0  0  0  0  0  0  0  0
   16.7318    6.1780    5.3744 N   0  0  0  0  0  0  0  0  0  0  0  0
   13.9329   10.4667    4.4847 C   0  0  1  0  0  0  0  0  0  0  0  0
   13.6388   10.5541    5.9691 O   0  0  0  0  0  0  0  0  0  0  0  0
   15.3815    9.7836    4.2371 C   0  0  2  0  0  0  0  0  0  0  0  0
   15.6429    9.7201    2.8145 O   0  0  0  0  0  0  0  0  0  0  0  0
   15.3577    8.3148    4.9455 C   0  0  1  0  0  0  0  0  0  0  0  0
   14.2180    7.5087    4.3858 O   0  0  0  0  0  0  0  0  0  0  0  0
   16.7069    7.5378    4.7532 C   0  0  0  0  0  0  0  0  0  0  0  0
   12.9597    9.4094    2.3147 N   0  0  0  0  0  0  0  0  0  0  0  0
  1  2  1  1  0  0  0
  1  3  1  0  0  0  0
  1 10  1  0  0  0  0
  3  4  1  1  0  0  0
  3  5  1  0  0  0  0
  5  6  1  1  0  0  0
  5  7  1  0  0  0  0
  7  8  1  1  0  0  0
  7  9  1  0  0  0  0
  9 10  1  0  0  0  0
  9 11  1  6  0  0  0
 11 12  1  0  0  0  0
 13 14  1  6  0  0  0
 13 15  1  0  0  0  0
 13 21  1  0  0  0  0
 16 15  1  0  0  0  0
 16 17  1  1  0  0  0
 18  2  1  1  0  0  0
 18 16  1  0  0  0  0
 19 18  1  0  0  0  0
 19 20  1  6  0  0  0
 21 19  1  0  0  0  0
 21 22  1  6  0  0  0
 23 20  1  1  0  0  0
 23 24  1  0  0  0  0
 23 28  1  0  0  0  0
 24 25  1  6  0  0  0
 24 26  1  0  0  0  0
 26 27  1  0  0  0  0
 26 32  1  6  0  0  0
 27 28  1  0  0  0  0
 27 29  1  1  0  0  0
 29 30  1  0  0  0  0
 31 32  1  6  0  0  0
 31 40  1  0  0  0  0
 33 31  1  0  0  0  0
 33 42  1  6  0  0  0
 35 33  1  0  0  0  0
 35 36  1  1  0  0  0
 37 35  1  0  0  0  0
 37 38  1  6  0  0  0
 37 39  1  0  0  0  0
 39 40  1  0  0  0  0
 39 41  1  6  0  0  0
 41 34  1  0  0  0  0
M  END
>  <CHROM.1>
-102.83696315,-174.38420806,82.38919841,170.17773045,-167.19361795,-84.10820393
174.22540231,-112.17721866,-179.46192279,11.41099832,6.84910891,7.76811160
2.29469280,0.23989068,1.83719945

>  <Name>
2et4_lig

>  <RI>
0

>  <Rbt.Current_Directory>
/home/itssahil/PROJECTS/Mol_Feturizer/New_Systems/rnas/2et4

>  <Rbt.Executable>
rbdock ($Id: //depot/dev/client3/rdock/2013.1/src/exe/rbdock.cxx#4 $)

>  <Rbt.Library>
libRbt.so (2013.1, Build901 2013/11/27)

>  <Rbt.Parameter_File>
/export/apps/rDock/src/rDock_2013.1_src/data/scripts/dock_solv.prm

>  <Rbt.Receptor>
prm/pocket_docking_3.prm

>  <SCORE>
-9.26011

>  <SCORE.INTER>
-11.8169

>  <SCORE.INTER.CONST>
1

>  <SCORE.INTER.POLAR>
-1.69158

>  <SCORE.INTER.ROT>
9

>  <SCORE.INTER.SOLV>
12.558

>  <SCORE.INTER.VDW>
-16.0253

>  <SCORE.INTER.norm>
-0.281355

>  <SCORE.INTRA>
2.01744

>  <SCORE.INTRA.DIHEDRAL>
-2.64872

>  <SCORE.INTRA.DIHEDRAL.0>
21.6909

>  <SCORE.INTRA.POLAR>
0

>  <SCORE.INTRA.POLAR.0>
0

>  <SCORE.INTRA.REPUL>
0.0708206

>  <SCORE.INTRA.REPUL.0>
0

>  <SCORE.INTRA.SOLV>
0.77656

>  <SCORE.INTRA.SOLV.lig_0>
-116.606

>  <SCORE.INTRA.VDW>
2.59942

>  <SCORE.INTRA.VDW.0>
-6.01229

>  <SCORE.INTRA.norm>
0.0480343

>  <SCORE.RESTR>
0.539363

>  <SCORE.RESTR.CAVITY>
0.539363

>  <SCORE.RESTR.norm>
0.012842

>  <SCORE.SYSTEM>
0

>  <SCORE.SYSTEM.CONST>
0

>  <SCORE.SYSTEM.DIHEDRAL>
0

>  <SCORE.SYSTEM.SOLV>
0

>  <SCORE.SYSTEM.norm>
0

>  <SCORE.heavy>
42

>  <SCORE.norm>
-0.220479

>  <RMSD>
8.696

$$$$
2et4_lig
 OpenBabel11021811423D
libRbt.so/2013.1/901 2013/11/27
 42 45  0  0  0  0  0  0  0  0999 V2000
   11.3865    5.8521    7.3085 C   0  0  2  0  0  0  0  0  0  0  0  0
   12.0841    4.8509    8.0522 O   0  0  0  0  0  0  0  0  0  0  0  0
   10.8346    6.8788    8.3302 C   0  0  2  0  0  0  0  0  0  0  0  0
   11.8914    7.4445    9.1295 N   0  0  0  0  0  0  0  0  0  0  0  0
    9.7646    6.1886    9.2245 C   0  0  1  0  0  0  0  0  0  0  0  0
    9.2586    7.1179   10.1312 O   0  0  0  0  0  0  0  0  0  0  0  0
    8.6521    5.6026    8.2924 C   0  0  2  0  0  0  0  0  0  0  0  0
    7.6606    4.9585    9.0642 O   0  0  0  0  0  0  0  0  0  0  0  0
    9.2569    4.5854    7.2778 C   0  0  2  0  0  0  0  0  0  0  0  0
   10.2718    5.2522    6.5216 O   0  0  0  0  0  0  0  0  0  0  0  0
    8.1793    4.0097    6.3017 C   0  0  0  0  0  0  0  0  0  0  0  0
    8.7146    3.0167    5.4366 N   0  0  0  0  0  0  0  0  0  0  0  0
   16.0595    5.8200    9.4348 C   0  0  2  0  0  0  0  0  0  0  0  0
   17.5227    5.8053    9.5554 N   0  0  0  0  0  0  0  0  0  0  0  0
   15.4741    4.3410    9.7546 C   0  0  0  0  0  0  0  0  0  0  0  0
   13.8974    4.3593    9.6089 C   0  0  2  0  0  0  0  0  0  0  0  0
   13.3239    3.0264    9.8663 N   0  0  0  0  0  0  0  0  0  0  0  0
   13.5137    4.8247    8.1637 C   0  0  2  0  0  0  0  0  0  0  0  0
   14.1089    6.2391    7.8586 C   0  0  2  0  0  0  0  0  0  0  0  0
   13.7126    6.5680    6.5044 O   0  0  0  0  0  0  0  0  0  0  0  0
   15.6647    6.2022    7.9989 C   0  0  1  0  0  0  0  0  0  0  0  0
   16.1624    7.4707    7.7369 O   0  0  0  0  0  0  0  0  0  0  0  0
   13.5351    7.8212    6.0203 C   0  0  1  0  0  0  0  0  0  0  0  0
   13.7637    7.8623    4.4869 C   0  0  2  0  0  0  0  0  0  0  0  0
   15.1104    7.9978    4.1361 O   0  0  0  0  0  0  0  0  0  0  0  0
   12.7992    8.9760    4.1233 C   0  0  1  0  0  0  0  0  0  0  0  0
   11.5734    8.8140    5.0333 C   0  0  2  0  0  0  0  0  0  0  0  0
   12.2090    8.3759    6.2340 O   0  0  0  0  0  0  0  0  0  0  0  0
   10.4951    7.7911    4.5378 C   0  0  0  0  0  0  0  0  0  0  0  0
   11.1673    6.5224    4.3197 O   0  0  0  0  0  0  0  0  0  0  0  0
   14.3875   10.7212    3.3798 C   0  0  2  0  0  0  0  0  0  0  0  0
   13.4965   10.2667    4.3614 O   0  0  0  0  0  0  0  0  0  0  0  0
   15.4327   11.7579    3.9820 C   0  0  1  0  0  0  0  0  0  0  0  0
   12.5132   11.5387   -0.6291 N   0  0  0  0  0  0  0  0  0  0  0  0
   16.3890   12.2286    2.7652 C   0  0  1  0  0  0  0  0  0  0  0  0
   17.0598   10.9972    2.1897 O   0  0  0  0  0  0  0  0  0  0  0  0
   15.5074   12.9731    1.6272 C   0  0  2  0  0  0  0  0  0  0  0  0
   14.8854   14.1493    2.1980 O   0  0  0  0  0  0  0  0  0  0  0  0
   14.4250   11.8923    1.0615 C   0  0  1  0  0  0  0  0  0  0  0  0
   13.5987   11.3682    2.2037 O   0  0  0  0  0  0  0  0  0  0  0  0
   13.4888   12.5054   -0.0381 C   0  0  0  0  0  0  0  0  0  0  0  0
   14.7080   12.8968    4.6365 N   0  0  0  0  0  0  0  0  0  0  0  0
  1  2  1  1  0  0  0
  1  3  1  0  0  0  0
  1 10  1  0  0  0  0
  3  4  1  1  0  0  0
  3  5  1  0  0  0  0
  5  6  1  1  0  0  0
  5  7  1  0  0  0  0
  7  8  1  1  0  0  0
  7  9  1  0  0  0  0
  9 10  1  0  0  0  0
  9 11  1  6  0  0  0
 11 12  1  0  0  0  0
 13 14  1  6  0  0  0
 13 15  1  0  0  0  0
 13 21  1  0  0  0  0
 16 15  1  0  0  0  0
 16 17  1  6  0  0  0
 18  2  1  1  0  0  0
 18 16  1  0  0  0  0
 19 18  1  0  0  0  0
 19 20  1  6  0  0  0
 21 19  1  0  0  0  0
 21 22  1  1  0  0  0
 23 20  1  6  0  0  0
 23 24  1  0  0  0  0
 23 28  1  0  0  0  0
 24 25  1  1  0  0  0
 24 26  1  0  0  0  0
 26 27  1  0  0  0  0
 26 32  1  1  0  0  0
 27 28  1  0  0  0  0
 27 29  1  6  0  0  0
 29 30  1  0  0  0  0
 31 32  1  1  0  0  0
 31 40  1  0  0  0  0
 33 31  1  0  0  0  0
 33 42  1  6  0  0  0
 35 33  1  0  0  0  0
 35 36  1  6  0  0  0
 37 35  1  0  0  0  0
 37 38  1  1  0  0  0
 37 39  1  0  0  0  0
 39 40  1  0  0  0  0
 39 41  1  6  0  0  0
 41 34  1  0  0  0  0
M  END
>  <CHROM.1>
-101.22730976,-176.06685514,142.75921097,152.25018754,153.71674235,80.51028765
54.87174234,-158.26961806,177.66783993,12.93707427,7.81900717,5.89225440
1.93465906,0.25613080,2.30351035

>  <Name>
2et4_lig

>  <RI>
3.65815e+07

>  <Rbt.Current_Directory>
/home/itssahil/PROJECTS/Mol_Feturizer/New_Systems/rnas/2et4

>  <Rbt.Executable>
rbdock ($Id: //depot/dev/client3/rdock/2013.1/src/exe/rbdock.cxx#4 $)

>  <Rbt.Library>
libRbt.so (2013.1, Build901 2013/11/27)

>  <Rbt.Parameter_File>
/export/apps/rDock/src/rDock_2013.1_src/data/scripts/dock_solv.prm

>  <Rbt.Receptor>
prm/pocket_docking_4.prm

>  <SCORE>
0.84687

>  <SCORE.INTER>
-1.37323

>  <SCORE.INTER.CONST>
1

>  <SCORE.INTER.POLAR>
-0.110764

>  <SCORE.INTER.ROT>
9

>  <SCORE.INTER.SOLV>
19.6725

>  <SCORE.INTER.VDW>
-16.7038

>  <SCORE.INTER.norm>
-0.0326959

>  <SCORE.INTRA>
2.21638

>  <SCORE.INTRA.DIHEDRAL>
-0.798179

>  <SCORE.INTRA.DIHEDRAL.0>
21.6909

>  <SCORE.INTRA.POLAR>
0

>  <SCORE.INTRA.POLAR.0>
0

>  <SCORE.INTRA.REPUL>
0

>  <SCORE.INTRA.REPUL.0>
0

>  <SCORE.INTRA.SOLV>
0.0442197

>  <SCORE.INTRA.SOLV.lig_0>
-116.606

>  <SCORE.INTRA.VDW>
2.59336

>  <SCORE.INTRA.VDW.0>
-6.01229

>  <SCORE.INTRA.norm>
0.052771

>  <SCORE.RESTR>
0.00371153

>  <SCORE.RESTR.CAVITY>
0.00371153

>  <SCORE.RESTR.norm>
8.83698e-05

>  <SCORE.SYSTEM>
0

>  <SCORE.SYSTEM.CONST>
0

>  <SCORE.SYSTEM.DIHEDRAL>
0

>  <SCORE.SYSTEM.SOLV>
0

>  <SCORE.SYSTEM.norm>
0

>  <SCORE.heavy>
42

>  <SCORE.norm>
0.0201636

>  <RMSD>
8.704

$$$$
2et4_lig
 OpenBabel11021811423D
libRbt.so/2013.1/901 2013/11/27
 42 45  0  0  0  0  0  0  0  0999 V2000
   13.4493    8.2409   10.9855 C   0  0  2  0  0  0  0  0  0  0  0  0
   14.6863    7.5372   11.1153 O   0  0  0  0  0  0  0  0  0  0  0  0
   13.7311    9.7268   11.3250 C   0  0  2  0  0  0  0  0  0  0  0  0
   14.7522   10.2765   10.4701 N   0  0  0  0  0  0  0  0  0  0  0  0
   14.1332    9.8436   12.8236 C   0  0  1  0  0  0  0  0  0  0  0  0
   14.3702   11.1822   13.1301 O   0  0  0  0  0  0  0  0  0  0  0  0
   12.9810    9.2319   13.6885 C   0  0  2  0  0  0  0  0  0  0  0  0
   13.3080    9.3105   15.0598 O   0  0  0  0  0  0  0  0  0  0  0  0
   12.7286    7.7426   13.3035 C   0  0  2  0  0  0  0  0  0  0  0  0
   12.4196    7.6839   11.9079 O   0  0  0  0  0  0  0  0  0  0  0  0
   11.5544    7.1100   14.1199 C   0  0  0  0  0  0  0  0  0  0  0  0
   11.3034    5.7625   13.7427 N   0  0  0  0  0  0  0  0  0  0  0  0
   16.2879    3.5562   10.6240 C   0  0  2  0  0  0  0  0  0  0  0  0
   16.5121    2.2154   10.0693 N   0  0  0  0  0  0  0  0  0  0  0  0
   14.7322    3.7104   11.0581 C   0  0  0  0  0  0  0  0  0  0  0  0
   14.4931    5.1626   11.6420 C   0  0  2  0  0  0  0  0  0  0  0  0
   13.0836    5.3560   12.0265 N   0  0  0  0  0  0  0  0  0  0  0  0
   14.8938    6.2284   10.5668 C   0  0  2  0  0  0  0  0  0  0  0  0
   16.3873    6.0497   10.1363 C   0  0  2  0  0  0  0  0  0  0  0  0
   16.6511    7.0651    9.1372 O   0  0  0  0  0  0  0  0  0  0  0  0
   16.6047    4.6155    9.5556 C   0  0  1  0  0  0  0  0  0  0  0  0
   17.9383    4.4814    9.1962 O   0  0  0  0  0  0  0  0  0  0  0  0
   16.2532    7.0155    7.8427 C   0  0  1  0  0  0  0  0  0  0  0  0
   16.5897    8.3387    7.1068 C   0  0  2  0  0  0  0  0  0  0  0  0
   15.6205    9.3299    7.2890 O   0  0  0  0  0  0  0  0  0  0  0  0
   16.8212    7.7923    5.7102 C   0  0  1  0  0  0  0  0  0  0  0  0
   17.5200    6.4355    5.8763 C   0  0  2  0  0  0  0  0  0  0  0  0
   16.8691    5.9611    7.0549 O   0  0  0  0  0  0  0  0  0  0  0  0
   19.0756    6.4944    6.0531 C   0  0  0  0  0  0  0  0  0  0  0  0
   19.6209    7.1612    4.8839 O   0  0  0  0  0  0  0  0  0  0  0  0
   15.2006    8.4950    3.9777 C   0  0  2  0  0  0  0  0  0  0  0  0
   15.4926    7.6525    5.0589 O   0  0  0  0  0  0  0  0  0  0  0  0
   15.4077   10.0242    4.3628 C   0  0  1  0  0  0  0  0  0  0  0  0
   10.8541    8.7537    3.1051 N   0  0  0  0  0  0  0  0  0  0  0  0
   15.0235   10.8985    3.0572 C   0  0  1  0  0  0  0  0  0  0  0  0
   15.9211   10.4614    1.9167 O   0  0  0  0  0  0  0  0  0  0  0  0
   13.4675   10.6602    2.6721 C   0  0  2  0  0  0  0  0  0  0  0  0
   12.6313   11.0935    3.7718 O   0  0  0  0  0  0  0  0  0  0  0  0
   13.2868    9.0779    2.3208 C   0  0  1  0  0  0  0  0  0  0  0  0
   13.7416    8.2511    3.4920 O   0  0  0  0  0  0  0  0  0  0  0  0
   11.8059    8.7138    1.9527 C   0  0  0  0  0  0  0  0  0  0  0  0
   14.5804   10.3676    5.5663 N   0  0  0  0  0  0  0  0  0  0  0  0
  1  2  1  1  0  0  0
  1  3  1  0  0  0  0
  1 10  1  0  0  0  0
  3  4  1  6  0  0  0
  3  5  1  0  0  0  0
  5  6  1  1  0  0  0
  5  7  1  0  0  0  0
  7  8  1  1  0  0  0
  7  9  1  0  0  0  0
  9 10  1  0  0  0  0
  9 11  1  1  0  0  0
 11 12  1  0  0  0  0
 13 14  1  6  0  0  0
 13 15  1  0  0  0  0
 13 21  1  0  0  0  0
 16 15  1  0  0  0  0
 16 17  1  6  0  0  0
 18  2  1  1  0  0  0
 18 16  1  0  0  0  0
 19 18  1  0  0  0  0
 19 20  1  6  0  0  0
 21 19  1  0  0  0  0
 21 22  1  1  0  0  0
 23 20  1  1  0  0  0
 23 24  1  0  0  0  0
 23 28  1  0  0  0  0
 24 25  1  6  0  0  0
 24 26  1  0  0  0  0
 26 27  1  0  0  0  0
 26 32  1  1  0  0  0
 27 28  1  0  0  0  0
 27 29  1  1  0  0  0
 29 30  1  0  0  0  0
 31 32  1  1  0  0  0
 31 40  1  0  0  0  0
 33 31  1  0  0  0  0
 33 42  1  1  0  0  0
 35 33  1  0  0  0  0
 35 36  1  6  0  0  0
 37 35  1  0  0  0  0
 37 38  1  1  0  0  0
 37 39  1  0  0  0  0
 39 40  1  0  0  0  0
 39 41  1  1  0  0  0
 41 34  1  0  0  0  0
M  END
>  <CHROM.1>
-163.99029930,178.47726670,-90.17769179,-76.85882458,174.27057728,112.39528726
-58.41094006,-54.05877799,-70.66382588,14.84406191,7.75802515,8.28749251
1.72575258,-0.80258628,1.90772263

>  <Name>
2et4_lig

>  <RI>
0

>  <Rbt.Current_Directory>
/home/itssahil/PROJECTS/Mol_Feturizer/New_Systems/rnas/2et4

>  <Rbt.Executable>
rbdock ($Id: //depot/dev/client3/rdock/2013.1/src/exe/rbdock.cxx#4 $)

>  <Rbt.Library>
libRbt.so (2013.1, Build901 2013/11/27)

>  <Rbt.Parameter_File>
/export/apps/rDock/src/rDock_2013.1_src/data/scripts/dock_solv.prm

>  <Rbt.Receptor>
prm/blind_docking_80.prm

>  <SCORE>
42.3629

>  <SCORE.INTER>
22.0441

>  <SCORE.INTER.CONST>
1

>  <SCORE.INTER.POLAR>
-2.38736

>  <SCORE.INTER.ROT>
9

>  <SCORE.INTER.SOLV>
34.4712

>  <SCORE.INTER.VDW>
1.56349

>  <SCORE.INTER.norm>
0.524858

>  <SCORE.INTRA>
5.41358

>  <SCORE.INTRA.DIHEDRAL>
-7.77641

>  <SCORE.INTRA.DIHEDRAL.0>
21.6909

>  <SCORE.INTRA.POLAR>
0

>  <SCORE.INTRA.POLAR.0>
0

>  <SCORE.INTRA.REPUL>
0

>  <SCORE.INTRA.REPUL.0>
0

>  <SCORE.INTRA.SOLV>
6.5841

>  <SCORE.INTRA.SOLV.lig_0>
-116.606

>  <SCORE.INTRA.VDW>
6.00973

>  <SCORE.INTRA.VDW.0>
-6.01229

>  <SCORE.INTRA.norm>
0.128895

>  <SCORE.RESTR>
14.9052

>  <SCORE.RESTR.CAVITY>
14.9052

>  <SCORE.RESTR.norm>
0.354886

>  <SCORE.SYSTEM>
0

>  <SCORE.SYSTEM.CONST>
0

>  <SCORE.SYSTEM.DIHEDRAL>
0

>  <SCORE.SYSTEM.SOLV>
0

>  <SCORE.SYSTEM.norm>
0

>  <SCORE.heavy>
42

>  <SCORE.norm>
1.00864

>  <RMSD>
8.724

$$$$
2et4_lig
 OpenBabel11021811423D
libRbt.so/2013.1/901 2013/11/27
 42 45  0  0  0  0  0  0  0  0999 V2000
   11.7586    8.6765   10.4306 C   0  0  2  0  0  0  0  0  0  0  0  0
   12.7483    7.8707    9.7876 O   0  0  0  0  0  0  0  0  0  0  0  0
   12.4885    9.9063   11.0284 C   0  0  2  0  0  0  0  0  0  0  0  0
   13.1994   10.6402   10.0127 N   0  0  0  0  0  0  0  0  0  0  0  0
   13.4519    9.4338   12.1552 C   0  0  1  0  0  0  0  0  0  0  0  0
   14.0946   10.5428   12.7018 O   0  0  0  0  0  0  0  0  0  0  0  0
   12.6132    8.6500   13.2192 C   0  0  2  0  0  0  0  0  0  0  0  0
   13.4516    8.1949   14.2602 O   0  0  0  0  0  0  0  0  0  0  0  0
   11.8912    7.4311   12.5689 C   0  0  2  0  0  0  0  0  0  0  0  0
   11.0642    7.9120   11.5052 O   0  0  0  0  0  0  0  0  0  0  0  0
   11.0093    6.6475   13.5955 C   0  0  0  0  0  0  0  0  0  0  0  0
    9.9370    7.4366   14.0941 N   0  0  0  0  0  0  0  0  0  0  0  0
   10.5981    4.2750    8.7378 C   0  0  2  0  0  0  0  0  0  0  0  0
   10.2678    3.0042    8.0808 N   0  0  0  0  0  0  0  0  0  0  0  0
   10.7309    5.4444    7.6211 C   0  0  0  0  0  0  0  0  0  0  0  0
   11.1013    6.8091    8.3337 C   0  0  2  0  0  0  0  0  0  0  0  0
   11.2575    7.8967    7.3517 N   0  0  0  0  0  0  0  0  0  0  0  0
   12.4345    6.6321    9.1361 C   0  0  2  0  0  0  0  0  0  0  0  0
   12.3014    5.4824   10.1889 C   0  0  2  0  0  0  0  0  0  0  0  0
   13.5816    5.3908   10.8610 O   0  0  0  0  0  0  0  0  0  0  0  0
   11.9438    4.1423    9.4694 C   0  0  1  0  0  0  0  0  0  0  0  0
   11.8186    3.1460   10.4272 O   0  0  0  0  0  0  0  0  0  0  0  0
   14.7588    5.0741   10.2691 C   0  0  1  0  0  0  0  0  0  0  0  0
   15.9098    5.0328   11.3078 C   0  0  2  0  0  0  0  0  0  0  0  0
   16.4629    6.2911   11.5646 O   0  0  0  0  0  0  0  0  0  0  0  0
   16.7821    3.9690   10.6674 C   0  0  1  0  0  0  0  0  0  0  0  0
   15.8334    2.9274   10.0576 C   0  0  2  0  0  0  0  0  0  0  0  0
   14.7807    3.7803    9.6079 O   0  0  0  0  0  0  0  0  0  0  0  0
   15.3119    1.8288   11.0454 C   0  0  0  0  0  0  0  0  0  0  0  0
   14.5045    0.8995   10.2750 O   0  0  0  0  0  0  0  0  0  0  0  0
   18.4856    3.8397    8.8777 C   0  0  2  0  0  0  0  0  0  0  0  0
   17.6104    4.6357    9.6290 O   0  0  0  0  0  0  0  0  0  0  0  0
   19.5191    4.7293    8.0591 C   0  0  1  0  0  0  0  0  0  0  0  0
   16.6321    1.9481    5.2574 N   0  0  0  0  0  0  0  0  0  0  0  0
   20.4572    3.7143    7.2186 C   0  0  1  0  0  0  0  0  0  0  0  0
   21.1429    2.7846    8.1999 O   0  0  0  0  0  0  0  0  0  0  0  0
   19.5541    2.8647    6.1751 C   0  0  2  0  0  0  0  0  0  0  0  0
   18.9182    3.7729    5.2439 O   0  0  0  0  0  0  0  0  0  0  0  0
   18.4844    1.9963    7.0476 C   0  0  1  0  0  0  0  0  0  0  0  0
   17.6765    2.9234    7.9135 O   0  0  0  0  0  0  0  0  0  0  0  0
   17.5291    1.1428    6.1420 C   0  0  0  0  0  0  0  0  0  0  0  0
   18.7818    5.7058    7.1910 N   0  0  0  0  0  0  0  0  0  0  0  0
  1  2  1  1  0  0  0
  1  3  1  0  0  0  0
  1 10  1  0  0  0  0
  3  4  1  6  0  0  0
  3  5  1  0  0  0  0
  5  6  1  1  0  0  0
  5  7  1  0  0  0  0
  7  8  1  1  0  0  0
  7  9  1  0  0  0  0
  9 10  1  0  0  0  0
  9 11  1  1  0  0  0
 11 12  1  0  0  0  0
 13 14  1  6  0  0  0
 13 15  1  0  0  0  0
 13 21  1  0  0  0  0
 16 15  1  0  0  0  0
 16 17  1  6  0  0  0
 18  2  1  1  0  0  0
 18 16  1  0  0  0  0
 19 18  1  0  0  0  0
 19 20  1  6  0  0  0
 21 19  1  0  0  0  0
 21 22  1  1  0  0  0
 23 20  1  1  0  0  0
 23 24  1  0  0  0  0
 23 28  1  0  0  0  0
 24 25  1  6  0  0  0
 24 26  1  0  0  0  0
 26 27  1  0  0  0  0
 26 32  1  6  0  0  0
 27 28  1  0  0  0  0
 27 29  1  1  0  0  0
 29 30  1  0  0  0  0
 31 32  1  6  0  0  0
 31 40  1  0  0  0  0
 33 31  1  0  0  0  0
 33 42  1  6  0  0  0
 35 33  1  0  0  0  0
 35 36  1  1  0  0  0
 37 35  1  0  0  0  0
 37 38  1  6  0  0  0
 37 39  1  0  0  0  0
 39 40  1  0  0  0  0
 39 41  1  6  0  0  0
 41 34  1  0  0  0  0
M  END
>  <CHROM.1>
179.08414784,64.11844010,41.57821471,-62.53784489,-178.37435730,-178.76883213
-176.58311294,-167.08847128,-64.14653139,14.61435058,5.35563473,9.71662088
-2.37746590,-0.09138548,-2.53924507

>  <Name>
2et4_lig

>  <RI>
0

>  <Rbt.Current_Directory>
/home/itssahil/PROJECTS/Mol_Feturizer/New_Systems/rnas/2et4

>  <Rbt.Executable>
rbdock ($Id: //depot/dev/client3/rdock/2013.1/src/exe/rbdock.cxx#4 $)

>  <Rbt.Library>
libRbt.so (2013.1, Build901 2013/11/27)

>  <Rbt.Parameter_File>
/export/apps/rDock/src/rDock_2013.1_src/data/scripts/dock_solv.prm

>  <Rbt.Receptor>
prm/pocket_docking_5.prm

>  <SCORE>
-14.3783

>  <SCORE.INTER>
-5.62499

>  <SCORE.INTER.CONST>
1

>  <SCORE.INTER.POLAR>
-0.959166

>  <SCORE.INTER.ROT>
9

>  <SCORE.INTER.SOLV>
10.8641

>  <SCORE.INTER.VDW>
-13.7741

>  <SCORE.INTER.norm>
-0.133928

>  <SCORE.INTRA>
-8.77686

>  <SCORE.INTRA.DIHEDRAL>
-18.9661

>  <SCORE.INTRA.DIHEDRAL.0>
21.6909

>  <SCORE.INTRA.POLAR>
0

>  <SCORE.INTRA.POLAR.0>
0

>  <SCORE.INTRA.REPUL>
0

>  <SCORE.INTRA.REPUL.0>
0

>  <SCORE.INTRA.SOLV>
-1.13067

>  <SCORE.INTRA.SOLV.lig_0>
-116.606

>  <SCORE.INTRA.VDW>
1.27154

>  <SCORE.INTRA.VDW.0>
-6.01229

>  <SCORE.INTRA.norm>
-0.208973

>  <SCORE.RESTR>
0.0235187

>  <SCORE.RESTR.CAVITY>
0.0235187

>  <SCORE.RESTR.norm>
0.00055997

>  <SCORE.SYSTEM>
0

>  <SCORE.SYSTEM.CONST>
0

>  <SCORE.SYSTEM.DIHEDRAL>
0

>  <SCORE.SYSTEM.SOLV>
0

>  <SCORE.SYSTEM.norm>
0

>  <SCORE.heavy>
42

>  <SCORE.norm>
-0.342341

>  <RMSD>
8.724

$$$$
2et4_lig
 OpenBabel11021811423D
libRbt.so/2013.1/901 2013/11/27
 42 45  0  0  0  0  0  0  0  0999 V2000
    9.2877    8.2915   11.4602 C   0  0  2  0  0  0  0  0  0  0  0  0
    9.9398    9.2915   12.2457 O   0  0  0  0  0  0  0  0  0  0  0  0
    7.9917    7.8934   12.2114 C   0  0  2  0  0  0  0  0  0  0  0  0
    7.1429    9.0356   12.4362 N   0  0  0  0  0  0  0  0  0  0  0  0
    8.3681    7.2030   13.5542 C   0  0  1  0  0  0  0  0  0  0  0  0
    7.2016    6.8317   14.2198 O   0  0  0  0  0  0  0  0  0  0  0  0
    9.2844    5.9753   13.2330 C   0  0  2  0  0  0  0  0  0  0  0  0
    9.6572    5.3212   14.4275 O   0  0  0  0  0  0  0  0  0  0  0  0
   10.5670    6.4244   12.4695 C   0  0  2  0  0  0  0  0  0  0  0  0
   10.1665    7.1020   11.2748 O   0  0  0  0  0  0  0  0  0  0  0  0
   11.4875    5.2170   12.0951 C   0  0  0  0  0  0  0  0  0  0  0  0
   12.6847    5.6341   11.4517 N   0  0  0  0  0  0  0  0  0  0  0  0
   12.2454   12.8743   11.5372 C   0  0  2  0  0  0  0  0  0  0  0  0
   13.2731   13.7719   10.9950 N   0  0  0  0  0  0  0  0  0  0  0  0
   12.9575   11.6448   12.3203 C   0  0  0  0  0  0  0  0  0  0  0  0
   11.8450   10.6727   12.8903 C   0  0  2  0  0  0  0  0  0  0  0  0
   12.4492    9.5246   13.5893 N   0  0  0  0  0  0  0  0  0  0  0  0
   10.9509   10.1575   11.7123 C   0  0  2  0  0  0  0  0  0  0  0  0
   10.2939   11.3544   10.9483 C   0  0  2  0  0  0  0  0  0  0  0  0
    9.5066   10.7762    9.8783 O   0  0  0  0  0  0  0  0  0  0  0  0
   11.4042   12.2991   10.3859 C   0  0  1  0  0  0  0  0  0  0  0  0
   10.7930   13.3564    9.7270 O   0  0  0  0  0  0  0  0  0  0  0  0
   10.0043   10.2470    8.7344 C   0  0  1  0  0  0  0  0  0  0  0  0
   10.7658    8.9260    9.0183 C   0  0  2  0  0  0  0  0  0  0  0  0
   12.0916    9.1306    9.4125 O   0  0  0  0  0  0  0  0  0  0  0  0
   10.4961    8.2003    7.7132 C   0  0  1  0  0  0  0  0  0  0  0  0
    9.0625    8.5578    7.2964 C   0  0  2  0  0  0  0  0  0  0  0  0
    9.0070    9.9166    7.7304 O   0  0  0  0  0  0  0  0  0  0  0  0
    7.9332    7.6905    7.9499 C   0  0  0  0  0  0  0  0  0  0  0  0
    8.1664    6.3103    7.5629 O   0  0  0  0  0  0  0  0  0  0  0  0
   12.8174    8.2361    6.8576 C   0  0  2  0  0  0  0  0  0  0  0  0
   11.4945    8.6783    6.7214 O   0  0  0  0  0  0  0  0  0  0  0  0
   13.7782    8.9536    5.8127 C   0  0  1  0  0  0  0  0  0  0  0  0
   15.4089    3.7690    6.8931 N   0  0  0  0  0  0  0  0  0  0  0  0
   15.2629    8.3549    6.0446 C   0  0  1  0  0  0  0  0  0  0  0  0
   15.6620    8.6280    7.4811 O   0  0  0  0  0  0  0  0  0  0  0  0
   15.2667    6.7608    5.7525 C   0  0  2  0  0  0  0  0  0  0  0  0
   14.8921    6.5268    4.3737 O   0  0  0  0  0  0  0  0  0  0  0  0
   14.2442    6.0659    6.8162 C   0  0  1  0  0  0  0  0  0  0  0  0
   12.8827    6.6906    6.6815 O   0  0  0  0  0  0  0  0  0  0  0  0
   14.1416    4.5130    6.6176 C   0  0  0  0  0  0  0  0  0  0  0  0
   13.2689    8.7425    4.4174 N   0  0  0  0  0  0  0  0  0  0  0  0
  1  2  1  1  0  0  0
  1  3  1  0  0  0  0
  1 10  1  0  0  0  0
  3  4  1  1  0  0  0
  3  5  1  0  0  0  0
  5  6  1  6  0  0  0
  5  7  1  0  0  0  0
  7  8  1  1  0  0  0
  7  9  1  0  0  0  0
  9 10  1  0  0  0  0
  9 11  1  6  0  0  0
 11 12  1  0  0  0  0
 13 14  1  6  0  0  0
 13 15  1  0  0  0  0
 13 21  1  0  0  0  0
 16 15  1  0  0  0  0
 16 17  1  6  0  0  0
 18  2  1  1  0  0  0
 18 16  1  0  0  0  0
 19 18  1  0  0  0  0
 19 20  1  6  0  0  0
 21 19  1  0  0  0  0
 21 22  1  1  0  0  0
 23 20  1  1  0  0  0
 23 24  1  0  0  0  0
 23 28  1  0  0  0  0
 24 25  1  6  0  0  0
 24 26  1  0  0  0  0
 26 27  1  0  0  0  0
 26 32  1  6  0  0  0
 27 28  1  0  0  0  0
 27 29  1  1  0  0  0
 29 30  1  0  0  0  0
 31 32  1  6  0  0  0
 31 40  1  0  0  0  0
 33 31  1  0  0  0  0
 33 42  1  6  0  0  0
 35 33  1  0  0  0  0
 35 36  1  1  0  0  0
 37 35  1  0  0  0  0
 37 38  1  6  0  0  0
 37 39  1  0  0  0  0
 39 40  1  0  0  0  0
 39 41  1  6  0  0  0
 41 34  1  0  0  0  0
M  END
>  <CHROM.1>
-162.15729944,-177.38305659,-156.43868522,-74.78759410,69.22495039,73.37424607
-60.19928774,-174.19645935,64.94728648,11.31944152,8.44939933,9.62753740
2.82919039,0.93433329,0.15068844

>  <Name>
2et4_lig

>  <RI>
1.79929e+07

>  <Rbt.Current_Directory>
/home/itssahil/PROJECTS/Mol_Feturizer/New_Systems/rnas/2et4

>  <Rbt.Executable>
rbdock ($Id: //depot/dev/client3/rdock/2013.1/src/exe/rbdock.cxx#4 $)

>  <Rbt.Library>
libRbt.so (2013.1, Build901 2013/11/27)

>  <Rbt.Parameter_File>
/export/apps/rDock/src/rDock_2013.1_src/data/scripts/dock_solv.prm

>  <Rbt.Receptor>
prm/pocket_docking_7.prm

>  <SCORE>
-13.0764

>  <SCORE.INTER>
-5.91694

>  <SCORE.INTER.CONST>
1

>  <SCORE.INTER.POLAR>
-1.33255

>  <SCORE.INTER.ROT>
9

>  <SCORE.INTER.SOLV>
15.4879

>  <SCORE.INTER.VDW>
-14.2654

>  <SCORE.INTER.norm>
-0.14088

>  <SCORE.INTRA>
-7.15945

>  <SCORE.INTRA.DIHEDRAL>
-15.0998

>  <SCORE.INTRA.DIHEDRAL.0>
21.6909

>  <SCORE.INTRA.POLAR>
0

>  <SCORE.INTRA.POLAR.0>
0

>  <SCORE.INTRA.REPUL>
0

>  <SCORE.INTRA.REPUL.0>
0

>  <SCORE.INTRA.SOLV>
-2.53716

>  <SCORE.INTRA.SOLV.lig_0>
-116.606

>  <SCORE.INTRA.VDW>
1.65904

>  <SCORE.INTRA.VDW.0>
-6.01229

>  <SCORE.INTRA.norm>
-0.170463

>  <SCORE.RESTR>
0

>  <SCORE.RESTR.CAVITY>
0

>  <SCORE.RESTR.norm>
0

>  <SCORE.SYSTEM>
0

>  <SCORE.SYSTEM.CONST>
0

>  <SCORE.SYSTEM.DIHEDRAL>
0

>  <SCORE.SYSTEM.SOLV>
0

>  <SCORE.SYSTEM.norm>
0

>  <SCORE.heavy>
42

>  <SCORE.norm>
-0.311343

>  <RMSD>
8.724

$$$$
2et4_lig
 OpenBabel11021811423D
libRbt.so/2013.1/901 2013/11/27
 42 45  0  0  0  0  0  0  0  0999 V2000
   12.7039    3.5991   11.1545 C   0  0  2  0  0  0  0  0  0  0  0  0
   12.2663    4.9104   11.5167 O   0  0  0  0  0  0  0  0  0  0  0  0
   13.7726    3.7645   10.0439 C   0  0  2  0  0  0  0  0  0  0  0  0
   14.8665    4.5910   10.4865 N   0  0  0  0  0  0  0  0  0  0  0  0
   13.1025    4.3576    8.7710 C   0  0  1  0  0  0  0  0  0  0  0  0
   14.0619    4.4900    7.7691 O   0  0  0  0  0  0  0  0  0  0  0  0
   11.9304    3.4101    8.3485 C   0  0  2  0  0  0  0  0  0  0  0  0
   11.2873    3.9154    7.1976 O   0  0  0  0  0  0  0  0  0  0  0  0
   10.8892    3.2675    9.4998 C   0  0  2  0  0  0  0  0  0  0  0  0
   11.5651    2.7744   10.6603 O   0  0  0  0  0  0  0  0  0  0  0  0
    9.7234    2.2939    9.1278 C   0  0  0  0  0  0  0  0  0  0  0  0
    8.8853    2.8246    8.1094 N   0  0  0  0  0  0  0  0  0  0  0  0
    9.9382    6.4033   14.8342 C   0  0  2  0  0  0  0  0  0  0  0  0
    9.5654    6.7741   16.2051 N   0  0  0  0  0  0  0  0  0  0  0  0
   10.2494    4.8124   14.7682 C   0  0  0  0  0  0  0  0  0  0  0  0
   10.6648    4.4210   13.2912 C   0  0  2  0  0  0  0  0  0  0  0  0
   10.9822    2.9854   13.1906 N   0  0  0  0  0  0  0  0  0  0  0  0
   11.9119    5.2647   12.8605 C   0  0  2  0  0  0  0  0  0  0  0  0
   11.6072    6.7963   12.9567 C   0  0  2  0  0  0  0  0  0  0  0  0
   12.8185    7.4821   12.5550 O   0  0  0  0  0  0  0  0  0  0  0  0
   11.2068    7.1672   14.4207 C   0  0  1  0  0  0  0  0  0  0  0  0
   10.9293    8.5259   14.4725 O   0  0  0  0  0  0  0  0  0  0  0  0
   13.2166    7.6895   11.2764 C   0  0  1  0  0  0  0  0  0  0  0  0
   12.0223    8.1196   10.3852 C   0  0  2  0  0  0  0  0  0  0  0  0
   11.2816    7.0373    9.9003 O   0  0  0  0  0  0  0  0  0  0  0  0
   12.7588    9.0023    9.3947 C   0  0  1  0  0  0  0  0  0  0  0  0
   13.8442    9.7452   10.1863 C   0  0  2  0  0  0  0  0  0  0  0  0
   14.2223    8.7254   11.1108 O   0  0  0  0  0  0  0  0  0  0  0  0
   13.3741   11.0491   10.9168 C   0  0  0  0  0  0  0  0  0  0  0  0
   12.4098   10.6563   11.9292 O   0  0  0  0  0  0  0  0  0  0  0  0
   13.8456    8.7136    7.1908 C   0  0  2  0  0  0  0  0  0  0  0  0
   13.3434    8.1160    8.3548 O   0  0  0  0  0  0  0  0  0  0  0  0
   12.6700    9.1993    6.2359 C   0  0  1  0  0  0  0  0  0  0  0  0
   17.3359    6.5458    5.4734 N   0  0  0  0  0  0  0  0  0  0  0  0
   13.3610    9.8476    4.9248 C   0  0  1  0  0  0  0  0  0  0  0  0
   14.2499   10.9892    5.3765 O   0  0  0  0  0  0  0  0  0  0  0  0
   14.2364    8.7249    4.1505 C   0  0  2  0  0  0  0  0  0  0  0  0
   13.3648    7.6514    3.7215 O   0  0  0  0  0  0  0  0  0  0  0  0
   15.4055    8.2253    5.1720 C   0  0  1  0  0  0  0  0  0  0  0  0
   14.7769    7.7170    6.4403 O   0  0  0  0  0  0  0  0  0  0  0  0
   16.3126    7.1113    4.5415 C   0  0  0  0  0  0  0  0  0  0  0  0
   11.7604    8.0501    5.9153 N   0  0  0  0  0  0  0  0  0  0  0  0
  1  2  1  6  0  0  0
  1  3  1  0  0  0  0
  1 10  1  0  0  0  0
  3  4  1  1  0  0  0
  3  5  1  0  0  0  0
  5  6  1  6  0  0  0
  5  7  1  0  0  0  0
  7  8  1  6  0  0  0
  7  9  1  0  0  0  0
  9 10  1  0  0  0  0
  9 11  1  6  0  0  0
 11 12  1  0  0  0  0
 13 14  1  1  0  0  0
 13 15  1  0  0  0  0
 13 21  1  0  0  0  0
 16 15  1  0  0  0  0
 16 17  1  1  0  0  0
 18  2  1  6  0  0  0
 18 16  1  0  0  0  0
 19 18  1  0  0  0  0
 19 20  1  1  0  0  0
 21 19  1  0  0  0  0
 21 22  1  6  0  0  0
 23 20  1  1  0  0  0
 23 24  1  0  0  0  0
 23 28  1  0  0  0  0
 24 25  1  6  0  0  0
 24 26  1  0  0  0  0
 26 27  1  0  0  0  0
 26 32  1  6  0  0  0
 27 28  1  0  0  0  0
 27 29  1  1  0  0  0
 29 30  1  0  0  0  0
 31 32  1  1  0  0  0
 31 40  1  0  0  0  0
 33 31  1  0  0  0  0
 33 42  1  6  0  0  0
 35 33  1  0  0  0  0
 35 36  1  1  0  0  0
 37 35  1  0  0  0  0
 37 38  1  1  0  0  0
 37 39  1  0  0  0  0
 39 40  1  0  0  0  0
 39 41  1  6  0  0  0
 41 34  1  0  0  0  0
M  END
>  <CHROM.1>
-144.66425819,-68.60674904,-63.60817378,80.44810075,42.47926163,167.64208634
64.56199468,-74.28105618,-175.63205787,12.59849421,6.63304028,9.62134659
2.82282909,1.15817300,0.69390641

>  <Name>
2et4_lig

>  <RI>
3.65815e+07

>  <Rbt.Current_Directory>
/home/itssahil/PROJECTS/Mol_Feturizer/New_Systems/rnas/2et4

>  <Rbt.Executable>
rbdock ($Id: //depot/dev/client3/rdock/2013.1/src/exe/rbdock.cxx#4 $)

>  <Rbt.Library>
libRbt.so (2013.1, Build901 2013/11/27)

>  <Rbt.Parameter_File>
/export/apps/rDock/src/rDock_2013.1_src/data/scripts/dock_solv.prm

>  <Rbt.Receptor>
prm/pocket_docking_4.prm

>  <SCORE>
-13.2161

>  <SCORE.INTER>
-9.05157

>  <SCORE.INTER.CONST>
1

>  <SCORE.INTER.POLAR>
-1.6643

>  <SCORE.INTER.ROT>
9

>  <SCORE.INTER.SOLV>
10.7731

>  <SCORE.INTER.VDW>
-13.6778

>  <SCORE.INTER.norm>
-0.215513

>  <SCORE.INTRA>
-4.16449

>  <SCORE.INTRA.DIHEDRAL>
-11.5067

>  <SCORE.INTRA.DIHEDRAL.0>
21.6909

>  <SCORE.INTRA.POLAR>
0

>  <SCORE.INTRA.POLAR.0>
0

>  <SCORE.INTRA.REPUL>
0.00427925

>  <SCORE.INTRA.REPUL.0>
0

>  <SCORE.INTRA.SOLV>
1.16352

>  <SCORE.INTRA.SOLV.lig_0>
-116.606

>  <SCORE.INTRA.VDW>
0.985701

>  <SCORE.INTRA.VDW.0>
-6.01229

>  <SCORE.INTRA.norm>
-0.0991545

>  <SCORE.RESTR>
0

>  <SCORE.RESTR.CAVITY>
0

>  <SCORE.RESTR.norm>
0

>  <SCORE.SYSTEM>
0

>  <SCORE.SYSTEM.CONST>
0

>  <SCORE.SYSTEM.DIHEDRAL>
0

>  <SCORE.SYSTEM.SOLV>
0

>  <SCORE.SYSTEM.norm>
0

>  <SCORE.heavy>
42

>  <SCORE.norm>
-0.314668

>  <RMSD>
8.736

$$$$
2et4_lig
 OpenBabel11021811423D
libRbt.so/2013.1/901 2013/11/27
 42 45  0  0  0  0  0  0  0  0999 V2000
   10.2199    9.6804   11.4661 C   0  0  2  0  0  0  0  0  0  0  0  0
   10.7663    8.3616   11.5335 O   0  0  0  0  0  0  0  0  0  0  0  0
   10.9962   10.4407   10.3607 C   0  0  2  0  0  0  0  0  0  0  0  0
   10.9088    9.7595    9.0942 N   0  0  0  0  0  0  0  0  0  0  0  0
   12.4783   10.6149   10.8014 C   0  0  1  0  0  0  0  0  0  0  0  0
   13.1698   11.3128    9.8133 O   0  0  0  0  0  0  0  0  0  0  0  0
   12.4951   11.3614   12.1771 C   0  0  2  0  0  0  0  0  0  0  0  0
   13.8245   11.5350   12.6199 O   0  0  0  0  0  0  0  0  0  0  0  0
   11.6942   10.5644   13.2510 C   0  0  2  0  0  0  0  0  0  0  0  0
   10.3579   10.3823   12.7737 O   0  0  0  0  0  0  0  0  0  0  0  0
   11.6546   11.3019   14.6294 C   0  0  0  0  0  0  0  0  0  0  0  0
   11.0367   12.5790   14.5372 N   0  0  0  0  0  0  0  0  0  0  0  0
    8.6389    6.5937   14.8506 C   0  0  2  0  0  0  0  0  0  0  0  0
    8.1261    5.5805   15.7813 N   0  0  0  0  0  0  0  0  0  0  0  0
    8.1371    6.2516   13.3461 C   0  0  0  0  0  0  0  0  0  0  0  0
    8.7049    7.3391   12.3449 C   0  0  2  0  0  0  0  0  0  0  0  0
    8.2939    7.0524   10.9591 N   0  0  0  0  0  0  0  0  0  0  0  0
   10.2683    7.3623   12.4336 C   0  0  2  0  0  0  0  0  0  0  0  0
   10.7379    7.6644   13.8952 C   0  0  2  0  0  0  0  0  0  0  0  0
   12.1864    7.6489   13.8726 O   0  0  0  0  0  0  0  0  0  0  0  0
   10.1762    6.5789   14.8686 C   0  0  1  0  0  0  0  0  0  0  0  0
   10.5963    6.8800   16.1564 O   0  0  0  0  0  0  0  0  0  0  0  0
   12.9521    7.3530   12.7945 C   0  0  1  0  0  0  0  0  0  0  0  0
   14.4407    7.7000   13.0578 C   0  0  2  0  0  0  0  0  0  0  0  0
   14.7433    9.0426   12.8110 O   0  0  0  0  0  0  0  0  0  0  0  0
   15.0979    6.6342   12.2006 C   0  0  1  0  0  0  0  0  0  0  0  0
   14.2393    5.3685   12.3332 C   0  0  2  0  0  0  0  0  0  0  0  0
   12.9392    5.9538   12.4022 O   0  0  0  0  0  0  0  0  0  0  0  0
   14.5431    4.4743   13.5834 C   0  0  0  0  0  0  0  0  0  0  0  0
   15.9038    4.7609   14.0023 O   0  0  0  0  0  0  0  0  0  0  0  0
   15.4378    6.2290    9.7837 C   0  0  2  0  0  0  0  0  0  0  0  0
   15.1251    7.1386   10.8029 O   0  0  0  0  0  0  0  0  0  0  0  0
   16.9291    5.6937    9.9228 C   0  0  1  0  0  0  0  0  0  0  0  0
   16.0368    8.1117    5.7665 N   0  0  0  0  0  0  0  0  0  0  0  0
   17.1850    4.6768    8.6911 C   0  0  1  0  0  0  0  0  0  0  0  0
   16.1594    3.5641    8.7779 O   0  0  0  0  0  0  0  0  0  0  0  0
   17.0402    5.4674    7.2838 C   0  0  2  0  0  0  0  0  0  0  0  0
   18.0350    6.5174    7.2210 O   0  0  0  0  0  0  0  0  0  0  0  0
   15.5128    6.0323    7.1946 C   0  0  1  0  0  0  0  0  0  0  0  0
   15.2290    6.8962    8.3925 O   0  0  0  0  0  0  0  0  0  0  0  0
   15.2528    6.8434    5.8771 C   0  0  0  0  0  0  0  0  0  0  0  0
   17.8889    6.8466    9.9443 N   0  0  0  0  0  0  0  0  0  0  0  0
  1  2  1  1  0  0  0
  1  3  1  0  0  0  0
  1 10  1  0  0  0  0
  3  4  1  6  0  0  0
  3  5  1  0  0  0  0
  5  6  1  6  0  0  0
  5  7  1  0  0  0  0
  7  8  1  1  0  0  0
  7  9  1  0  0  0  0
  9 10  1  0  0  0  0
  9 11  1  1  0  0  0
 11 12  1  0  0  0  0
 13 14  1  1  0  0  0
 13 15  1  0  0  0  0
 13 21  1  0  0  0  0
 16 15  1  0  0  0  0
 16 17  1  6  0  0  0
 18  2  1  6  0  0  0
 18 16  1  0  0  0  0
 19 18  1  0  0  0  0
 19 20  1  6  0  0  0
 21 19  1  0  0  0  0
 21 22  1  1  0  0  0
 23 20  1  1  0  0  0
 23 24  1  0  0  0  0
 23 28  1  0  0  0  0
 24 25  1  6  0  0  0
 24 26  1  0  0  0  0
 26 27  1  0  0  0  0
 26 32  1  6  0  0  0
 27 28  1  0  0  0  0
 27 29  1  1  0  0  0
 29 30  1  0  0  0  0
 31 32  1  1  0  0  0
 31 40  1  0  0  0  0
 33 31  1  0  0  0  0
 33 42  1  6  0  0  0
 35 33  1  0  0  0  0
 35 36  1  6  0  0  0
 37 35  1  0  0  0  0
 37 38  1  1  0  0  0
 37 39  1  0  0  0  0
 39 40  1  0  0  0  0
 39 41  1  6  0  0  0
 41 34  1  0  0  0  0
M  END
>  <CHROM.1>
-178.63539834,60.36557418,46.94479294,-3.29006949,169.02099049,-167.41039279
-23.30832840,-64.86626431,-65.39516992,13.04017631,7.67506711,11.53680293
3.07259002,-0.74477689,2.62594241

>  <Name>
2et4_lig

>  <RI>
0

>  <Rbt.Current_Directory>
/home/itssahil/PROJECTS/Mol_Feturizer/New_Systems/rnas/2et4

>  <Rbt.Executable>
rbdock ($Id: //depot/dev/client3/rdock/2013.1/src/exe/rbdock.cxx#4 $)

>  <Rbt.Library>
libRbt.so (2013.1, Build901 2013/11/27)

>  <Rbt.Parameter_File>
/export/apps/rDock/src/rDock_2013.1_src/data/scripts/dock_solv.prm

>  <Rbt.Receptor>
prm/pocket_docking_8.prm

>  <SCORE>
-11.1926

>  <SCORE.INTER>
-10.0515

>  <SCORE.INTER.CONST>
1

>  <SCORE.INTER.POLAR>
-1.78379

>  <SCORE.INTER.ROT>
9

>  <SCORE.INTER.SOLV>
16.9874

>  <SCORE.INTER.VDW>
-16.0175

>  <SCORE.INTER.norm>
-0.239322

>  <SCORE.INTRA>
-1.14109

>  <SCORE.INTRA.DIHEDRAL>
-8.62525

>  <SCORE.INTRA.DIHEDRAL.0>
21.6909

>  <SCORE.INTRA.POLAR>
0

>  <SCORE.INTRA.POLAR.0>
0

>  <SCORE.INTRA.REPUL>
0

>  <SCORE.INTRA.REPUL.0>
0

>  <SCORE.INTRA.SOLV>
0.100801

>  <SCORE.INTRA.SOLV.lig_0>
-116.606

>  <SCORE.INTRA.VDW>
3.12114

>  <SCORE.INTRA.VDW.0>
-6.01229

>  <SCORE.INTRA.norm>
-0.0271688

>  <SCORE.RESTR>
0

>  <SCORE.RESTR.CAVITY>
0

>  <SCORE.RESTR.norm>
0

>  <SCORE.SYSTEM>
0

>  <SCORE.SYSTEM.CONST>
0

>  <SCORE.SYSTEM.DIHEDRAL>
0

>  <SCORE.SYSTEM.SOLV>
0

>  <SCORE.SYSTEM.norm>
0

>  <SCORE.heavy>
42

>  <SCORE.norm>
-0.266491

>  <RMSD>
8.746

$$$$
2et4_lig
 OpenBabel11021811423D
libRbt.so/2013.1/901 2013/11/27
 42 45  0  0  0  0  0  0  0  0999 V2000
   10.6025    6.9160    7.6532 C   0  0  2  0  0  0  0  0  0  0  0  0
   10.8234    6.8377    9.0629 O   0  0  0  0  0  0  0  0  0  0  0  0
    9.5403    8.0200    7.4178 C   0  0  2  0  0  0  0  0  0  0  0  0
    9.9657    9.2834    7.9642 N   0  0  0  0  0  0  0  0  0  0  0  0
    8.1859    7.5698    8.0376 C   0  0  1  0  0  0  0  0  0  0  0  0
    7.2289    8.5568    7.8104 O   0  0  0  0  0  0  0  0  0  0  0  0
    7.7870    6.1981    7.3979 C   0  0  2  0  0  0  0  0  0  0  0  0
    6.5632    5.7470    7.9386 O   0  0  0  0  0  0  0  0  0  0  0  0
    8.8892    5.1256    7.6520 C   0  0  2  0  0  0  0  0  0  0  0  0
   10.1232    5.6113    7.1152 O   0  0  0  0  0  0  0  0  0  0  0  0
    8.5431    3.7515    6.9905 C   0  0  0  0  0  0  0  0  0  0  0  0
    9.5365    2.7673    7.2464 N   0  0  0  0  0  0  0  0  0  0  0  0
   13.9773    4.9482   11.3297 C   0  0  2  0  0  0  0  0  0  0  0  0
   14.7960    3.8986   11.9491 N   0  0  0  0  0  0  0  0  0  0  0  0
   12.4620    4.8636   11.9034 C   0  0  0  0  0  0  0  0  0  0  0  0
   11.5804    5.9883   11.2214 C   0  0  2  0  0  0  0  0  0  0  0  0
   10.1862    5.9318   11.6954 N   0  0  0  0  0  0  0  0  0  0  0  0
   11.6130    5.8037    9.6666 C   0  0  2  0  0  0  0  0  0  0  0  0
   13.0820    5.8585    9.1308 C   0  0  2  0  0  0  0  0  0  0  0  0
   13.0038    5.6642    7.6972 O   0  0  0  0  0  0  0  0  0  0  0  0
   13.9361    4.7384    9.8071 C   0  0  1  0  0  0  0  0  0  0  0  0
   15.2345    4.8202    9.3243 O   0  0  0  0  0  0  0  0  0  0  0  0
   14.0502    5.3785    6.8850 C   0  0  1  0  0  0  0  0  0  0  0  0
   13.6262    5.4279    5.3939 C   0  0  2  0  0  0  0  0  0  0  0  0
   13.0498    4.2349    4.9473 O   0  0  0  0  0  0  0  0  0  0  0  0
   14.9380    5.8798    4.7792 C   0  0  1  0  0  0  0  0  0  0  0  0
   15.5663    6.8779    5.7620 C   0  0  2  0  0  0  0  0  0  0  0  0
   15.1791    6.2860    7.0019 O   0  0  0  0  0  0  0  0  0  0  0  0
   15.0612    8.3558    5.6386 C   0  0  0  0  0  0  0  0  0  0  0  0
   15.4113    8.8253    4.3096 O   0  0  0  0  0  0  0  0  0  0  0  0
   17.0115    4.8256    3.9362 C   0  0  2  0  0  0  0  0  0  0  0  0
   15.7868    4.6730    4.6001 O   0  0  0  0  0  0  0  0  0  0  0  0
   17.6105    3.4195    3.4959 C   0  0  1  0  0  0  0  0  0  0  0  0
   20.5980    5.8315    6.5342 N   0  0  0  0  0  0  0  0  0  0  0  0
   19.0233    3.7136    2.7650 C   0  0  1  0  0  0  0  0  0  0  0  0
   18.7617    4.6275    1.5843 O   0  0  0  0  0  0  0  0  0  0  0  0
   20.0468    4.4175    3.8058 C   0  0  2  0  0  0  0  0  0  0  0  0
   20.2878    3.5226    4.9181 O   0  0  0  0  0  0  0  0  0  0  0  0
   19.3825    5.8353    4.2625 C   0  0  1  0  0  0  0  0  0  0  0  0
   18.0206    5.5830    4.8485 O   0  0  0  0  0  0  0  0  0  0  0  0
   20.2749    6.6064    5.2970 C   0  0  0  0  0  0  0  0  0  0  0  0
   17.7406    2.5199    4.6895 N   0  0  0  0  0  0  0  0  0  0  0  0
  1  2  1  1  0  0  0
  1  3  1  0  0  0  0
  1 10  1  0  0  0  0
  3  4  1  1  0  0  0
  3  5  1  0  0  0  0
  5  6  1  6  0  0  0
  5  7  1  0  0  0  0
  7  8  1  1  0  0  0
  7  9  1  0  0  0  0
  9 10  1  0  0  0  0
  9 11  1  6  0  0  0
 11 12  1  0  0  0  0
 13 14  1  1  0  0  0
 13 15  1  0  0  0  0
 13 21  1  0  0  0  0
 16 15  1  0  0  0  0
 16 17  1  1  0  0  0
 18  2  1  6  0  0  0
 18 16  1  0  0  0  0
 19 18  1  0  0  0  0
 19 20  1  6  0  0  0
 21 19  1  0  0  0  0
 21 22  1  6  0  0  0
 23 20  1  1  0  0  0
 23 24  1  0  0  0  0
 23 28  1  0  0  0  0
 24 25  1  6  0  0  0
 24 26  1  0  0  0  0
 26 27  1  0  0  0  0
 26 32  1  1  0  0  0
 27 28  1  0  0  0  0
 27 29  1  6  0  0  0
 29 30  1  0  0  0  0
 31 32  1  1  0  0  0
 31 40  1  0  0  0  0
 33 31  1  0  0  0  0
 33 42  1  1  0  0  0
 35 33  1  0  0  0  0
 35 36  1  6  0  0  0
 37 35  1  0  0  0  0
 37 38  1  1  0  0  0
 37 39  1  0  0  0  0
 39 40  1  0  0  0  0
 39 41  1  1  0  0  0
 41 34  1  0  0  0  0
M  END
>  <CHROM.1>
171.51076896,-178.80261993,-177.21634205,-166.10205477,-172.38425066,174.52504119
-61.86873818,-165.22346311,-56.54435955,13.79113360,5.61920354,6.91183845
2.73183988,-0.20850924,1.71818645

>  <Name>
2et4_lig

>  <RI>
1.79929e+07

>  <Rbt.Current_Directory>
/home/itssahil/PROJECTS/Mol_Feturizer/New_Systems/rnas/2et4

>  <Rbt.Executable>
rbdock ($Id: //depot/dev/client3/rdock/2013.1/src/exe/rbdock.cxx#4 $)

>  <Rbt.Library>
libRbt.so (2013.1, Build901 2013/11/27)

>  <Rbt.Parameter_File>
/export/apps/rDock/src/rDock_2013.1_src/data/scripts/dock_solv.prm

>  <Rbt.Receptor>
prm/pocket_docking_7.prm

>  <SCORE>
-7.33652

>  <SCORE.INTER>
1.49835

>  <SCORE.INTER.CONST>
1

>  <SCORE.INTER.POLAR>
0

>  <SCORE.INTER.ROT>
9

>  <SCORE.INTER.SOLV>
12.3054

>  <SCORE.INTER.VDW>
-12.7029

>  <SCORE.INTER.norm>
0.035675

>  <SCORE.INTRA>
-8.83487

>  <SCORE.INTRA.DIHEDRAL>
-18.7057

>  <SCORE.INTRA.DIHEDRAL.0>
21.6909

>  <SCORE.INTRA.POLAR>
0

>  <SCORE.INTRA.POLAR.0>
0

>  <SCORE.INTRA.REPUL>
0

>  <SCORE.INTRA.REPUL.0>
0

>  <SCORE.INTRA.SOLV>
-3.41229

>  <SCORE.INTRA.SOLV.lig_0>
-116.606

>  <SCORE.INTRA.VDW>
2.22413

>  <SCORE.INTRA.VDW.0>
-6.01229

>  <SCORE.INTRA.norm>
-0.210354

>  <SCORE.RESTR>
0

>  <SCORE.RESTR.CAVITY>
0

>  <SCORE.RESTR.norm>
0

>  <SCORE.SYSTEM>
0

>  <SCORE.SYSTEM.CONST>
0

>  <SCORE.SYSTEM.DIHEDRAL>
0

>  <SCORE.SYSTEM.SOLV>
0

>  <SCORE.SYSTEM.norm>
0

>  <SCORE.heavy>
42

>  <SCORE.norm>
-0.174679

>  <RMSD>
8.756

$$$$
2et4_lig
 OpenBabel11021811423D
libRbt.so/2013.1/901 2013/11/27
 42 45  0  0  0  0  0  0  0  0999 V2000
   16.0908    6.5482   11.1767 C   0  0  2  0  0  0  0  0  0  0  0  0
   15.1158    6.0597   10.2532 O   0  0  0  0  0  0  0  0  0  0  0  0
   16.0932    5.5847   12.3909 C   0  0  2  0  0  0  0  0  0  0  0  0
   16.3704    4.2301   11.9861 N   0  0  0  0  0  0  0  0  0  0  0  0
   14.7245    5.6804   13.1249 C   0  0  1  0  0  0  0  0  0  0  0  0
   14.7353    4.8255   14.2252 O   0  0  0  0  0  0  0  0  0  0  0  0
   14.4929    7.1730   13.5356 C   0  0  2  0  0  0  0  0  0  0  0  0
   13.2547    7.3079   14.2006 O   0  0  0  0  0  0  0  0  0  0  0  0
   14.5096    8.1021   12.2840 C   0  0  2  0  0  0  0  0  0  0  0  0
   15.7629    7.9345   11.6148 O   0  0  0  0  0  0  0  0  0  0  0  0
   14.3223    9.6082   12.6611 C   0  0  0  0  0  0  0  0  0  0  0  0
   13.1191    9.8349   13.3837 N   0  0  0  0  0  0  0  0  0  0  0  0
   16.1253    1.9003    9.6742 C   0  0  2  0  0  0  0  0  0  0  0  0
   16.2430    0.5823    9.0381 N   0  0  0  0  0  0  0  0  0  0  0  0
   14.5584    2.2989    9.8101 C   0  0  0  0  0  0  0  0  0  0  0  0
   14.4380    3.7271   10.4833 C   0  0  2  0  0  0  0  0  0  0  0  0
   13.0290    4.1415   10.6034 N   0  0  0  0  0  0  0  0  0  0  0  0
   15.2211    4.7756    9.6231 C   0  0  2  0  0  0  0  0  0  0  0  0
   16.7233    4.3636    9.4762 C   0  0  2  0  0  0  0  0  0  0  0  0
   17.3503    5.3820    8.6583 O   0  0  0  0  0  0  0  0  0  0  0  0
   16.8249    2.9569    8.8037 C   0  0  1  0  0  0  0  0  0  0  0  0
   18.1651    2.6125    8.6994 O   0  0  0  0  0  0  0  0  0  0  0  0
   16.9149    5.7906    7.4418 C   0  0  1  0  0  0  0  0  0  0  0  0
   17.0012    7.3336    7.3102 C   0  0  2  0  0  0  0  0  0  0  0  0
   15.8911    7.9932    7.8464 O   0  0  0  0  0  0  0  0  0  0  0  0
   17.2634    7.4398    5.8193 C   0  0  1  0  0  0  0  0  0  0  0  0
   18.1806    6.2664    5.4469 C   0  0  2  0  0  0  0  0  0  0  0  0
   17.6632    5.2586    6.3154 O   0  0  0  0  0  0  0  0  0  0  0  0
   19.7114    6.5060    5.6787 C   0  0  0  0  0  0  0  0  0  0  0  0
   20.1169    7.5973    4.8106 O   0  0  0  0  0  0  0  0  0  0  0  0
   15.6731    8.3000    4.1303 C   0  0  2  0  0  0  0  0  0  0  0  0
   15.9507    7.3552    5.1274 O   0  0  0  0  0  0  0  0  0  0  0  0
   16.0705    9.7677    4.5966 C   0  0  1  0  0  0  0  0  0  0  0  0
   11.3319    9.0229    3.6304 N   0  0  0  0  0  0  0  0  0  0  0  0
   15.6886   10.7700    3.3857 C   0  0  1  0  0  0  0  0  0  0  0  0
   16.4489   10.3284    2.1511 O   0  0  0  0  0  0  0  0  0  0  0  0
   14.0922   10.7205    3.1114 C   0  0  2  0  0  0  0  0  0  0  0  0
   13.3894   11.1551    4.3003 O   0  0  0  0  0  0  0  0  0  0  0  0
   13.7178    9.1949    2.6732 C   0  0  1  0  0  0  0  0  0  0  0  0
   14.1650    8.2425    3.7478 O   0  0  0  0  0  0  0  0  0  0  0  0
   12.1835    9.0117    2.4015 C   0  0  0  0  0  0  0  0  0  0  0  0
   15.3744   10.1046    5.8822 N   0  0  0  0  0  0  0  0  0  0  0  0
  1  2  1  6  0  0  0
  1  3  1  0  0  0  0
  1 10  1  0  0  0  0
  3  4  1  6  0  0  0
  3  5  1  0  0  0  0
  5  6  1  1  0  0  0
  5  7  1  0  0  0  0
  7  8  1  6  0  0  0
  7  9  1  0  0  0  0
  9 10  1  0  0  0  0
  9 11  1  1  0  0  0
 11 12  1  0  0  0  0
 13 14  1  6  0  0  0
 13 15  1  0  0  0  0
 13 21  1  0  0  0  0
 16 15  1  0  0  0  0
 16 17  1  6  0  0  0
 18  2  1  1  0  0  0
 18 16  1  0  0  0  0
 19 18  1  0  0  0  0
 19 20  1  6  0  0  0
 21 19  1  0  0  0  0
 21 22  1  1  0  0  0
 23 20  1  1  0  0  0
 23 24  1  0  0  0  0
 23 28  1  0  0  0  0
 24 25  1  6  0  0  0
 24 26  1  0  0  0  0
 26 27  1  0  0  0  0
 26 32  1  6  0  0  0
 27 28  1  0  0  0  0
 27 29  1  1  0  0  0
 29 30  1  0  0  0  0
 31 32  1  1  0  0  0
 31 40  1  0  0  0  0
 33 31  1  0  0  0  0
 33 42  1  1  0  0  0
 35 33  1  0  0  0  0
 35 36  1  6  0  0  0
 37 35  1  0  0  0  0
 37 38  1  1  0  0  0
 37 39  1  0  0  0  0
 39 40  1  0  0  0  0
 39 41  1  1  0  0  0
 41 34  1  0  0  0  0
M  END
>  <CHROM.1>
-62.47904113,-57.11972079,92.98700365,-53.21527855,137.79304132,132.67000239
-62.95002292,-45.20857492,-72.41147428,15.58576390,6.77427657,8.11864621
1.57900511,-0.96072318,2.04087563

>  <Name>
2et4_lig

>  <RI>
0

>  <Rbt.Current_Directory>
/home/itssahil/PROJECTS/Mol_Feturizer/New_Systems/rnas/2et4

>  <Rbt.Executable>
rbdock ($Id: //depot/dev/client3/rdock/2013.1/src/exe/rbdock.cxx#4 $)

>  <Rbt.Library>
libRbt.so (2013.1, Build901 2013/11/27)

>  <Rbt.Parameter_File>
/export/apps/rDock/src/rDock_2013.1_src/data/scripts/dock_solv.prm

>  <Rbt.Receptor>
prm/blind_docking_80.prm

>  <SCORE>
16.3913

>  <SCORE.INTER>
-6.08645

>  <SCORE.INTER.CONST>
1

>  <SCORE.INTER.POLAR>
-1.17395

>  <SCORE.INTER.ROT>
9

>  <SCORE.INTER.SOLV>
31.9204

>  <SCORE.INTER.VDW>
-20.3846

>  <SCORE.INTER.norm>
-0.144915

>  <SCORE.INTRA>
9.1463

>  <SCORE.INTRA.DIHEDRAL>
-3.35382

>  <SCORE.INTRA.DIHEDRAL.0>
21.6909

>  <SCORE.INTRA.POLAR>
0

>  <SCORE.INTRA.POLAR.0>
0

>  <SCORE.INTRA.REPUL>
0

>  <SCORE.INTRA.REPUL.0>
0

>  <SCORE.INTRA.SOLV>
7.29237

>  <SCORE.INTRA.SOLV.lig_0>
-116.606

>  <SCORE.INTRA.VDW>
7.17703

>  <SCORE.INTRA.VDW.0>
-6.01229

>  <SCORE.INTRA.norm>
0.217769

>  <SCORE.RESTR>
13.3315

>  <SCORE.RESTR.CAVITY>
13.3315

>  <SCORE.RESTR.norm>
0.317416

>  <SCORE.SYSTEM>
0

>  <SCORE.SYSTEM.CONST>
0

>  <SCORE.SYSTEM.DIHEDRAL>
0

>  <SCORE.SYSTEM.SOLV>
0

>  <SCORE.SYSTEM.norm>
0

>  <SCORE.heavy>
42

>  <SCORE.norm>
0.390269

>  <RMSD>
8.770

$$$$
2et4_lig
 OpenBabel11021811423D
libRbt.so/2013.1/901 2013/11/27
 42 45  0  0  0  0  0  0  0  0999 V2000
   13.0109    9.2884   13.7976 C   0  0  2  0  0  0  0  0  0  0  0  0
   11.6189    9.3506   13.4802 O   0  0  0  0  0  0  0  0  0  0  0  0
   13.7534   10.1853   12.7745 C   0  0  2  0  0  0  0  0  0  0  0  0
   13.2573   11.5376   12.8042 N   0  0  0  0  0  0  0  0  0  0  0  0
   13.6118    9.5683   11.3531 C   0  0  1  0  0  0  0  0  0  0  0  0
   14.2938   10.3678   10.4380 O   0  0  0  0  0  0  0  0  0  0  0  0
   14.1707    8.1069   11.3963 C   0  0  2  0  0  0  0  0  0  0  0  0
   14.0550    7.5043   10.1246 O   0  0  0  0  0  0  0  0  0  0  0  0
   13.4005    7.2487   12.4452 C   0  0  2  0  0  0  0  0  0  0  0  0
   13.5134    7.8873   13.7204 O   0  0  0  0  0  0  0  0  0  0  0  0
   13.9601    5.7919   12.5453 C   0  0  0  0  0  0  0  0  0  0  0  0
   13.0258    4.8975   13.1352 N   0  0  0  0  0  0  0  0  0  0  0  0
    9.6350    6.1269   15.5604 C   0  0  2  0  0  0  0  0  0  0  0  0
    8.6189    5.3953   16.3271 N   0  0  0  0  0  0  0  0  0  0  0  0
   10.1636    7.3914   16.4287 C   0  0  0  0  0  0  0  0  0  0  0  0
   11.2483    8.1847   15.5914 C   0  0  2  0  0  0  0  0  0  0  0  0
   11.7386    9.3596   16.3337 N   0  0  0  0  0  0  0  0  0  0  0  0
   10.6210    8.6476   14.2332 C   0  0  2  0  0  0  0  0  0  0  0  0
   10.0895    7.4214   13.4196 C   0  0  2  0  0  0  0  0  0  0  0  0
    9.5206    7.9542   12.1984 O   0  0  0  0  0  0  0  0  0  0  0  0
    9.0154    6.6544   14.2559 C   0  0  1  0  0  0  0  0  0  0  0  0
    8.5734    5.5665   13.5165 O   0  0  0  0  0  0  0  0  0  0  0  0
   10.1927    8.1478   11.0378 C   0  0  1  0  0  0  0  0  0  0  0  0
   10.3245    6.8219   10.2439 C   0  0  2  0  0  0  0  0  0  0  0  0
   11.4092    6.0413   10.6552 O   0  0  0  0  0  0  0  0  0  0  0  0
   10.3192    7.3780    8.8320 C   0  0  1  0  0  0  0  0  0  0  0  0
    9.3322    8.5539    8.8236 C   0  0  2  0  0  0  0  0  0  0  0  0
    9.5727    9.0921   10.1236 O   0  0  0  0  0  0  0  0  0  0  0  0
    7.8268    8.1703    8.6207 C   0  0  0  0  0  0  0  0  0  0  0  0
    7.7191    7.4956    7.3392 O   0  0  0  0  0  0  0  0  0  0  0  0
   12.2316    7.4816    7.2656 C   0  0  2  0  0  0  0  0  0  0  0  0
   11.7041    7.8178    8.5197 O   0  0  0  0  0  0  0  0  0  0  0  0
   13.6011    8.2422    6.9907 C   0  0  1  0  0  0  0  0  0  0  0  0
    9.1866    7.1361    3.9658 N   0  0  0  0  0  0  0  0  0  0  0  0
   14.1028    7.7988    5.5181 C   0  0  1  0  0  0  0  0  0  0  0  0
   14.2650    6.2918    5.5097 O   0  0  0  0  0  0  0  0  0  0  0  0
   13.0166    8.2543    4.4050 C   0  0  2  0  0  0  0  0  0  0  0  0
   12.8866    9.6961    4.4261 O   0  0  0  0  0  0  0  0  0  0  0  0
   11.6187    7.4846    4.7413 C   0  0  1  0  0  0  0  0  0  0  0  0
   11.1970    7.8070    6.1486 O   0  0  0  0  0  0  0  0  0  0  0  0
   10.4725    7.8646    3.7397 C   0  0  0  0  0  0  0  0  0  0  0  0
   13.4020    9.7232    7.1242 N   0  0  0  0  0  0  0  0  0  0  0  0
  1  2  1  6  0  0  0
  1  3  1  0  0  0  0
  1 10  1  0  0  0  0
  3  4  1  6  0  0  0
  3  5  1  0  0  0  0
  5  6  1  6  0  0  0
  5  7  1  0  0  0  0
  7  8  1  6  0  0  0
  7  9  1  0  0  0  0
  9 10  1  0  0  0  0
  9 11  1  1  0  0  0
 11 12  1  0  0  0  0
 13 14  1  1  0  0  0
 13 15  1  0  0  0  0
 13 21  1  0  0  0  0
 16 15  1  0  0  0  0
 16 17  1  1  0  0  0
 18  2  1  6  0  0  0
 18 16  1  0  0  0  0
 19 18  1  0  0  0  0
 19 20  1  6  0  0  0
 21 19  1  0  0  0  0
 21 22  1  6  0  0  0
 23 20  1  1  0  0  0
 23 24  1  0  0  0  0
 23 28  1  0  0  0  0
 24 25  1  1  0  0  0
 24 26  1  0  0  0  0
 26 27  1  0  0  0  0
 26 32  1  1  0  0  0
 27 28  1  0  0  0  0
 27 29  1  1  0  0  0
 29 30  1  0  0  0  0
 31 32  1  1  0  0  0
 31 40  1  0  0  0  0
 33 31  1  0  0  0  0
 33 42  1  6  0  0  0
 35 33  1  0  0  0  0
 35 36  1  1  0  0  0
 37 35  1  0  0  0  0
 37 38  1  1  0  0  0
 37 39  1  0  0  0  0
 39 40  1  0  0  0  0
 39 41  1  6  0  0  0
 41 34  1  0  0  0  0
M  END
>  <CHROM.1>
-179.35872940,-160.39393817,15.20781753,90.04200652,80.61385197,135.64149552
-59.86185759,169.68193239,177.24871582,11.54825065,7.89649941,10.43458416
-1.67364599,-0.36439863,-1.56261003

>  <Name>
2et4_lig

>  <RI>
1.79929e+07

>  <Rbt.Current_Directory>
/home/itssahil/PROJECTS/Mol_Feturizer/New_Systems/rnas/2et4

>  <Rbt.Executable>
rbdock ($Id: //depot/dev/client3/rdock/2013.1/src/exe/rbdock.cxx#4 $)

>  <Rbt.Library>
libRbt.so (2013.1, Build901 2013/11/27)

>  <Rbt.Parameter_File>
/export/apps/rDock/src/rDock_2013.1_src/data/scripts/dock_solv.prm

>  <Rbt.Receptor>
prm/pocket_docking_7.prm

>  <SCORE>
-9.84397

>  <SCORE.INTER>
-9.09968

>  <SCORE.INTER.CONST>
1

>  <SCORE.INTER.POLAR>
-1.3912

>  <SCORE.INTER.ROT>
9

>  <SCORE.INTER.SOLV>
18.2838

>  <SCORE.INTER.VDW>
-17.1237

>  <SCORE.INTER.norm>
-0.216659

>  <SCORE.INTRA>
-0.779211

>  <SCORE.INTRA.DIHEDRAL>
-2.08575

>  <SCORE.INTRA.DIHEDRAL.0>
21.6909

>  <SCORE.INTRA.POLAR>
0

>  <SCORE.INTRA.POLAR.0>
0

>  <SCORE.INTRA.REPUL>
0.0380094

>  <SCORE.INTRA.REPUL.0>
0

>  <SCORE.INTRA.SOLV>
1.11756

>  <SCORE.INTRA.SOLV.lig_0>
-116.606

>  <SCORE.INTRA.VDW>
-0.485163

>  <SCORE.INTRA.VDW.0>
-6.01229

>  <SCORE.INTRA.norm>
-0.0185527

>  <SCORE.RESTR>
0.0349153

>  <SCORE.RESTR.CAVITY>
0.0349153

>  <SCORE.RESTR.norm>
0.000831316

>  <SCORE.SYSTEM>
0

>  <SCORE.SYSTEM.CONST>
0

>  <SCORE.SYSTEM.DIHEDRAL>
0

>  <SCORE.SYSTEM.SOLV>
0

>  <SCORE.SYSTEM.norm>
0

>  <SCORE.heavy>
42

>  <SCORE.norm>
-0.23438

>  <RMSD>
8.798

$$$$
2et4_lig
 OpenBabel11021811423D
libRbt.so/2013.1/901 2013/11/27
 42 45  0  0  0  0  0  0  0  0999 V2000
   14.6715    9.2976   12.8185 C   0  0  2  0  0  0  0  0  0  0  0  0
   13.9941    8.4858   11.8571 O   0  0  0  0  0  0  0  0  0  0  0  0
   13.9322    9.1193   14.1692 C   0  0  2  0  0  0  0  0  0  0  0  0
   13.8940    7.7355   14.5684 N   0  0  0  0  0  0  0  0  0  0  0  0
   12.4964    9.7072   14.0500 C   0  0  1  0  0  0  0  0  0  0  0  0
   11.8397    9.5601   15.2702 O   0  0  0  0  0  0  0  0  0  0  0  0
   12.6160   11.2067   13.6175 C   0  0  2  0  0  0  0  0  0  0  0  0
   11.3320   11.7799   13.4898 O   0  0  0  0  0  0  0  0  0  0  0  0
   13.3747   11.3346   12.2618 C   0  0  2  0  0  0  0  0  0  0  0  0
   14.6632   10.7302   12.4074 O   0  0  0  0  0  0  0  0  0  0  0  0
   13.5495   12.8240   11.8185 C   0  0  0  0  0  0  0  0  0  0  0  0
   14.4632   13.5277   12.6499 N   0  0  0  0  0  0  0  0  0  0  0  0
   14.3918    4.4341   13.2995 C   0  0  2  0  0  0  0  0  0  0  0  0
   14.5041    2.9702   13.2949 N   0  0  0  0  0  0  0  0  0  0  0  0
   12.9865    4.8724   12.6174 C   0  0  0  0  0  0  0  0  0  0  0  0
   12.8773    6.4521   12.6120 C   0  0  2  0  0  0  0  0  0  0  0  0
   11.6242    6.8965   11.9765 N   0  0  0  0  0  0  0  0  0  0  0  0
   14.0990    7.0555   11.8401 C   0  0  2  0  0  0  0  0  0  0  0  0
   15.4473    6.6014   12.4910 C   0  0  2  0  0  0  0  0  0  0  0  0
   16.5058    7.1961   11.7004 O   0  0  0  0  0  0  0  0  0  0  0  0
   15.5429    5.0419   12.4814 C   0  0  1  0  0  0  0  0  0  0  0  0
   16.7399    4.6687   13.0761 O   0  0  0  0  0  0  0  0  0  0  0  0
   16.8973    6.7798   10.4717 C   0  0  1  0  0  0  0  0  0  0  0  0
   17.8178    5.5356   10.5736 C   0  0  2  0  0  0  0  0  0  0  0  0
   19.1571    5.8614   10.8081 O   0  0  0  0  0  0  0  0  0  0  0  0
   17.4508    4.8498    9.2707 C   0  0  1  0  0  0  0  0  0  0  0  0
   15.9461    5.0717    9.0626 C   0  0  2  0  0  0  0  0  0  0  0  0
   15.8134    6.3939    9.5840 O   0  0  0  0  0  0  0  0  0  0  0  0
   15.0058    4.0576    9.7990 C   0  0  0  0  0  0  0  0  0  0  0  0
   15.5610    2.7299    9.6041 O   0  0  0  0  0  0  0  0  0  0  0  0
   17.6751    5.5925    6.9213 C   0  0  2  0  0  0  0  0  0  0  0  0
   18.2558    5.4797    8.1918 O   0  0  0  0  0  0  0  0  0  0  0  0
   18.7086    5.2056    5.7759 C   0  0  1  0  0  0  0  0  0  0  0  0
   14.9988    9.0888    4.2489 N   0  0  0  0  0  0  0  0  0  0  0  0
   17.9431    5.3923    4.3632 C   0  0  1  0  0  0  0  0  0  0  0  0
   16.7207    4.4961    4.3678 O   0  0  0  0  0  0  0  0  0  0  0  0
   17.5050    6.9410    4.1737 C   0  0  2  0  0  0  0  0  0  0  0  0
   18.6887    7.7746    4.1631 O   0  0  0  0  0  0  0  0  0  0  0  0
   16.4774    7.3108    5.3849 C   0  0  1  0  0  0  0  0  0  0  0  0
   17.1440    7.0400    6.7057 O   0  0  0  0  0  0  0  0  0  0  0  0
   15.9968    8.8030    5.3249 C   0  0  0  0  0  0  0  0  0  0  0  0
   19.9442    6.0485    5.8925 N   0  0  0  0  0  0  0  0  0  0  0  0
  1  2  1  6  0  0  0
  1  3  1  0  0  0  0
  1 10  1  0  0  0  0
  3  4  1  6  0  0  0
  3  5  1  0  0  0  0
  5  6  1  1  0  0  0
  5  7  1  0  0  0  0
  7  8  1  6  0  0  0
  7  9  1  0  0  0  0
  9 10  1  0  0  0  0
  9 11  1  1  0  0  0
 11 12  1  0  0  0  0
 13 14  1  6  0  0  0
 13 15  1  0  0  0  0
 13 21  1  0  0  0  0
 16 15  1  0  0  0  0
 16 17  1  6  0  0  0
 18  2  1  1  0  0  0
 18 16  1  0  0  0  0
 19 18  1  0  0  0  0
 19 20  1  6  0  0  0
 21 19  1  0  0  0  0
 21 22  1  1  0  0  0
 23 20  1  1  0  0  0
 23 24  1  0  0  0  0
 23 28  1  0  0  0  0
 24 25  1  6  0  0  0
 24 26  1  0  0  0  0
 26 27  1  0  0  0  0
 26 32  1  6  0  0  0
 27 28  1  0  0  0  0
 27 29  1  1  0  0  0
 29 30  1  0  0  0  0
 31 32  1  1  0  0  0
 31 40  1  0  0  0  0
 33 31  1  0  0  0  0
 33 42  1  6  0  0  0
 35 33  1  0  0  0  0
 35 36  1  1  0  0  0
 37 35  1  0  0  0  0
 37 38  1  1  0  0  0
 37 39  1  0  0  0  0
 39 40  1  0  0  0  0
 39 41  1  1  0  0  0
 41 34  1  0  0  0  0
M  END
>  <CHROM.1>
-73.48090819,69.62604285,96.01452765,-74.91646646,-79.44919226,-146.32949440
-44.16450061,-136.92626980,74.29616316,15.47292173,7.19120243,10.20772375
2.97684598,-1.07157773,2.52576652

>  <Name>
2et4_lig

>  <RI>
0

>  <Rbt.Current_Directory>
/home/itssahil/PROJECTS/Mol_Feturizer/New_Systems/rnas/2et4

>  <Rbt.Executable>
rbdock ($Id: //depot/dev/client3/rdock/2013.1/src/exe/rbdock.cxx#4 $)

>  <Rbt.Library>
libRbt.so (2013.1, Build901 2013/11/27)

>  <Rbt.Parameter_File>
/export/apps/rDock/src/rDock_2013.1_src/data/scripts/dock_solv.prm

>  <Rbt.Receptor>
prm/blind_docking_80.prm

>  <SCORE>
36.6858

>  <SCORE.INTER>
12.533

>  <SCORE.INTER.CONST>
1

>  <SCORE.INTER.POLAR>
-0.072247

>  <SCORE.INTER.ROT>
9

>  <SCORE.INTER.SOLV>
25.5673

>  <SCORE.INTER.VDW>
-9.52626

>  <SCORE.INTER.norm>
0.298406

>  <SCORE.INTRA>
7.01024

>  <SCORE.INTRA.DIHEDRAL>
-1.29207

>  <SCORE.INTRA.DIHEDRAL.0>
21.6909

>  <SCORE.INTRA.POLAR>
0

>  <SCORE.INTRA.POLAR.0>
0

>  <SCORE.INTRA.REPUL>
0

>  <SCORE.INTRA.REPUL.0>
0

>  <SCORE.INTRA.SOLV>
4.71505

>  <SCORE.INTRA.SOLV.lig_0>
-116.606

>  <SCORE.INTRA.VDW>
5.29875

>  <SCORE.INTRA.VDW.0>
-6.01229

>  <SCORE.INTRA.norm>
0.166911

>  <SCORE.RESTR>
17.1425

>  <SCORE.RESTR.CAVITY>
17.1425

>  <SCORE.RESTR.norm>
0.408154

>  <SCORE.SYSTEM>
0

>  <SCORE.SYSTEM.CONST>
0

>  <SCORE.SYSTEM.DIHEDRAL>
0

>  <SCORE.SYSTEM.SOLV>
0

>  <SCORE.SYSTEM.norm>
0

>  <SCORE.heavy>
42

>  <SCORE.norm>
0.873471

>  <RMSD>
8.821

$$$$
2et4_lig
 OpenBabel11021811423D
libRbt.so/2013.1/901 2013/11/27
 42 45  0  0  0  0  0  0  0  0999 V2000
   13.6775    8.0117   10.7367 C   0  0  2  0  0  0  0  0  0  0  0  0
   14.6916    7.9521    9.7316 O   0  0  0  0  0  0  0  0  0  0  0  0
   12.3139    8.1029   10.0052 C   0  0  2  0  0  0  0  0  0  0  0  0
   12.1201    6.9874    9.1142 N   0  0  0  0  0  0  0  0  0  0  0  0
   12.2330    9.4536    9.2367 C   0  0  1  0  0  0  0  0  0  0  0  0
   11.0000    9.5401    8.5934 O   0  0  0  0  0  0  0  0  0  0  0  0
   12.4490   10.6146   10.2640 C   0  0  2  0  0  0  0  0  0  0  0  0
   12.3906   11.8627    9.6065 O   0  0  0  0  0  0  0  0  0  0  0  0
   13.8265   10.4733   10.9800 C   0  0  2  0  0  0  0  0  0  0  0  0
   13.8722    9.1953   11.6213 O   0  0  0  0  0  0  0  0  0  0  0  0
   14.0589   11.5946   12.0449 C   0  0  0  0  0  0  0  0  0  0  0  0
   13.0680   11.5804   13.0643 N   0  0  0  0  0  0  0  0  0  0  0  0
   17.4397    4.9972    8.1917 C   0  0  2  0  0  0  0  0  0  0  0  0
   17.9425    3.7366    7.6316 N   0  0  0  0  0  0  0  0  0  0  0  0
   16.7209    4.7088    9.6173 C   0  0  0  0  0  0  0  0  0  0  0  0
   16.1680    6.0693   10.2096 C   0  0  2  0  0  0  0  0  0  0  0  0
   15.4827    5.8500   11.4957 N   0  0  0  0  0  0  0  0  0  0  0  0
   15.1715    6.7146    9.1883 C   0  0  2  0  0  0  0  0  0  0  0  0
   15.8695    6.9603    7.8098 C   0  0  2  0  0  0  0  0  0  0  0  0
   14.8671    7.5405    6.9395 O   0  0  0  0  0  0  0  0  0  0  0  0
   16.4021    5.6082    7.2357 C   0  0  1  0  0  0  0  0  0  0  0  0
   17.0271    5.8587    6.0223 O   0  0  0  0  0  0  0  0  0  0  0  0
   15.0812    8.5436    6.0538 C   0  0  1  0  0  0  0  0  0  0  0  0
   15.2459    7.9888    4.6149 C   0  0  2  0  0  0  0  0  0  0  0  0
   16.5486    7.5646    4.3358 O   0  0  0  0  0  0  0  0  0  0  0  0
   14.6757    9.1578    3.8330 C   0  0  1  0  0  0  0  0  0  0  0  0
   13.5025    9.7096    4.6552 C   0  0  2  0  0  0  0  0  0  0  0  0
   14.0139    9.5267    5.9753 O   0  0  0  0  0  0  0  0  0  0  0  0
   12.1328    8.9762    4.4538 C   0  0  0  0  0  0  0  0  0  0  0  0
   12.3292    7.5826    4.8123 O   0  0  0  0  0  0  0  0  0  0  0  0
   15.8519   10.8420    2.4541 C   0  0  2  0  0  0  0  0  0  0  0  0
   15.7601   10.1619    3.6760 O   0  0  0  0  0  0  0  0  0  0  0  0
   16.9948   11.9475    2.4912 C   0  0  1  0  0  0  0  0  0  0  0  0
   12.7284   13.3768   -0.7770 N   0  0  0  0  0  0  0  0  0  0  0  0
   16.9954   12.6780    1.0480 C   0  0  1  0  0  0  0  0  0  0  0  0
   17.2425   11.6243   -0.0133 O   0  0  0  0  0  0  0  0  0  0  0  0
   15.5692   13.4056    0.7974 C   0  0  2  0  0  0  0  0  0  0  0  0
   15.3608   14.4125    1.8167 O   0  0  0  0  0  0  0  0  0  0  0  0
   14.4209   12.2474    0.8035 C   0  0  1  0  0  0  0  0  0  0  0  0
   14.4812   11.4910    2.1020 O   0  0  0  0  0  0  0  0  0  0  0  0
   12.9811   12.8337    0.5929 C   0  0  0  0  0  0  0  0  0  0  0  0
   16.7572   12.8941    3.6307 N   0  0  0  0  0  0  0  0  0  0  0  0
  1  2  1  6  0  0  0
  1  3  1  0  0  0  0
  1 10  1  0  0  0  0
  3  4  1  6  0  0  0
  3  5  1  0  0  0  0
  5  6  1  1  0  0  0
  5  7  1  0  0  0  0
  7  8  1  6  0  0  0
  7  9  1  0  0  0  0
  9 10  1  0  0  0  0
  9 11  1  1  0  0  0
 11 12  1  0  0  0  0
 13 14  1  6  0  0  0
 13 15  1  0  0  0  0
 13 21  1  0  0  0  0
 16 15  1  0  0  0  0
 16 17  1  1  0  0  0
 18  2  1  1  0  0  0
 18 16  1  0  0  0  0
 19 18  1  0  0  0  0
 19 20  1  6  0  0  0
 21 19  1  0  0  0  0
 21 22  1  6  0  0  0
 23 20  1  1  0  0  0
 23 24  1  0  0  0  0
 23 28  1  0  0  0  0
 24 25  1  6  0  0  0
 24 26  1  0  0  0  0
 26 27  1  0  0  0  0
 26 32  1  1  0  0  0
 27 28  1  0  0  0  0
 27 29  1  1  0  0  0
 29 30  1  0  0  0  0
 31 32  1  1  0  0  0
 31 40  1  0  0  0  0
 33 31  1  0  0  0  0
 33 42  1  1  0  0  0
 35 33  1  0  0  0  0
 35 36  1  6  0  0  0
 37 35  1  0  0  0  0
 37 38  1  1  0  0  0
 37 39  1  0  0  0  0
 39 40  1  0  0  0  0
 39 41  1  1  0  0  0
 41 34  1  0  0  0  0
M  END
>  <CHROM.1>
-90.51218987,59.97447525,-78.16939260,139.96094868,100.06282490,141.28634399
58.87956312,175.95193403,69.14883054,14.68876509,9.31149492,6.32550062,1.69766280
-0.95000728,2.14056375

>  <Name>
2et4_lig

>  <RI>
0

>  <Rbt.Current_Directory>
/home/itssahil/PROJECTS/Mol_Feturizer/New_Systems/rnas/2et4

>  <Rbt.Executable>
rbdock ($Id: //depot/dev/client3/rdock/2013.1/src/exe/rbdock.cxx#4 $)

>  <Rbt.Library>
libRbt.so (2013.1, Build901 2013/11/27)

>  <Rbt.Parameter_File>
/export/apps/rDock/src/rDock_2013.1_src/data/scripts/dock_solv.prm

>  <Rbt.Receptor>
prm/pocket_docking_6.prm

>  <SCORE>
-18.6787

>  <SCORE.INTER>
-20.1112

>  <SCORE.INTER.CONST>
1

>  <SCORE.INTER.POLAR>
-1.74114

>  <SCORE.INTER.ROT>
9

>  <SCORE.INTER.SOLV>
14.5655

>  <SCORE.INTER.VDW>
-22.0588

>  <SCORE.INTER.norm>
-0.478837

>  <SCORE.INTRA>
1.43245

>  <SCORE.INTRA.DIHEDRAL>
0.0190554

>  <SCORE.INTRA.DIHEDRAL.0>
21.6909

>  <SCORE.INTRA.POLAR>
0

>  <SCORE.INTRA.POLAR.0>
0

>  <SCORE.INTRA.REPUL>
0

>  <SCORE.INTRA.REPUL.0>
0

>  <SCORE.INTRA.SOLV>
0.025491

>  <SCORE.INTRA.SOLV.lig_0>
-116.606

>  <SCORE.INTRA.VDW>
1.41017

>  <SCORE.INTRA.VDW.0>
-6.01229

>  <SCORE.INTRA.norm>
0.0341059

>  <SCORE.RESTR>
0

>  <SCORE.RESTR.CAVITY>
0

>  <SCORE.RESTR.norm>
0

>  <SCORE.SYSTEM>
0

>  <SCORE.SYSTEM.CONST>
0

>  <SCORE.SYSTEM.DIHEDRAL>
0

>  <SCORE.SYSTEM.SOLV>
0

>  <SCORE.SYSTEM.norm>
0

>  <SCORE.heavy>
42

>  <SCORE.norm>
-0.444731

>  <RMSD>
8.822

$$$$
2et4_lig
 OpenBabel11021811423D
libRbt.so/2013.1/901 2013/11/27
 42 45  0  0  0  0  0  0  0  0999 V2000
   13.7318   10.9811   13.5699 C   0  0  2  0  0  0  0  0  0  0  0  0
   12.4353   11.2813   14.0907 O   0  0  0  0  0  0  0  0  0  0  0  0
   14.3930   12.3292   13.1850 C   0  0  2  0  0  0  0  0  0  0  0  0
   14.4629   13.2213   14.3141 N   0  0  0  0  0  0  0  0  0  0  0  0
   13.6002   12.9732   12.0112 C   0  0  1  0  0  0  0  0  0  0  0  0
   14.2062   14.1768   11.6565 O   0  0  0  0  0  0  0  0  0  0  0  0
   13.5679   11.9529   10.8246 C   0  0  2  0  0  0  0  0  0  0  0  0
   12.8496   12.4950    9.7366 O   0  0  0  0  0  0  0  0  0  0  0  0
   12.9047   10.6121   11.2632 C   0  0  2  0  0  0  0  0  0  0  0  0
   13.6348   10.0915   12.3779 O   0  0  0  0  0  0  0  0  0  0  0  0
   12.8925    9.5526   10.1130 C   0  0  0  0  0  0  0  0  0  0  0  0
   14.1365    9.4902    9.4277 N   0  0  0  0  0  0  0  0  0  0  0  0
    9.2974    8.9275   15.8984 C   0  0  2  0  0  0  0  0  0  0  0  0
    8.2480    7.9131   16.0581 N   0  0  0  0  0  0  0  0  0  0  0  0
    8.9045    9.9276   14.6827 C   0  0  0  0  0  0  0  0  0  0  0  0
   10.0462   11.0103   14.5056 C   0  0  2  0  0  0  0  0  0  0  0  0
    9.7423   11.9267   13.3923 N   0  0  0  0  0  0  0  0  0  0  0  0
   11.4095   10.2892   14.2335 C   0  0  2  0  0  0  0  0  0  0  0  0
   11.7615    9.3070   15.3993 C   0  0  2  0  0  0  0  0  0  0  0  0
   13.0216    8.6852   15.0462 O   0  0  0  0  0  0  0  0  0  0  0  0
   10.6297    8.2411   15.5557 C   0  0  1  0  0  0  0  0  0  0  0  0
   10.9617    7.3942   16.6036 O   0  0  0  0  0  0  0  0  0  0  0  0
   13.3398    8.1935   13.8242 C   0  0  1  0  0  0  0  0  0  0  0  0
   14.3839    7.0524   13.9389 C   0  0  2  0  0  0  0  0  0  0  0  0
   15.7002    7.5181   14.0118 O   0  0  0  0  0  0  0  0  0  0  0  0
   13.9702    6.2181   12.7407 C   0  0  1  0  0  0  0  0  0  0  0  0
   12.4383    6.2830   12.6643 C   0  0  2  0  0  0  0  0  0  0  0  0
   12.2235    7.6306   13.0833 O   0  0  0  0  0  0  0  0  0  0  0  0
   11.6730    5.2611   13.5724 C   0  0  0  0  0  0  0  0  0  0  0  0
   12.2958    3.9625   13.3857 O   0  0  0  0  0  0  0  0  0  0  0  0
   15.1138    5.9440   10.5639 C   0  0  2  0  0  0  0  0  0  0  0  0
   14.6085    6.8150   11.5386 O   0  0  0  0  0  0  0  0  0  0  0  0
   15.8431    4.6950   11.2256 C   0  0  1  0  0  0  0  0  0  0  0  0
   17.0228    7.3972    6.4383 N   0  0  0  0  0  0  0  0  0  0  0  0
   16.4016    3.7765   10.0168 C   0  0  1  0  0  0  0  0  0  0  0  0
   15.2251    3.3694    9.1521 O   0  0  0  0  0  0  0  0  0  0  0  0
   17.4805    4.6118    9.1424 C   0  0  2  0  0  0  0  0  0  0  0  0
   18.5973    4.9805    9.9868 O   0  0  0  0  0  0  0  0  0  0  0  0
   16.7065    5.9017    8.5123 C   0  0  1  0  0  0  0  0  0  0  0  0
   16.0921    6.7075    9.6237 O   0  0  0  0  0  0  0  0  0  0  0  0
   17.6585    6.8095    7.6573 C   0  0  0  0  0  0  0  0  0  0  0  0
   16.9223    5.1640   12.1563 N   0  0  0  0  0  0  0  0  0  0  0  0
  1  2  1  6  0  0  0
  1  3  1  0  0  0  0
  1 10  1  0  0  0  0
  3  4  1  1  0  0  0
  3  5  1  0  0  0  0
  5  6  1  6  0  0  0
  5  7  1  0  0  0  0
  7  8  1  6  0  0  0
  7  9  1  0  0  0  0
  9 10  1  0  0  0  0
  9 11  1  6  0  0  0
 11 12  1  0  0  0  0
 13 14  1  6  0  0  0
 13 15  1  0  0  0  0
 13 21  1  0  0  0  0
 16 15  1  0  0  0  0
 16 17  1  6  0  0  0
 18  2  1  1  0  0  0
 18 16  1  0  0  0  0
 19 18  1  0  0  0  0
 19 20  1  6  0  0  0
 21 19  1  0  0  0  0
 21 22  1  1  0  0  0
 23 20  1  1  0  0  0
 23 24  1  0  0  0  0
 23 28  1  0  0  0  0
 24 25  1  6  0  0  0
 24 26  1  0  0  0  0
 26 27  1  0  0  0  0
 26 32  1  6  0  0  0
 27 28  1  0  0  0  0
 27 29  1  1  0  0  0
 29 30  1  0  0  0  0
 31 32  1  1  0  0  0
 31 40  1  0  0  0  0
 33 31  1  0  0  0  0
 33 42  1  1  0  0  0
 35 33  1  0  0  0  0
 35 36  1  6  0  0  0
 37 35  1  0  0  0  0
 37 38  1  1  0  0  0
 37 39  1  0  0  0  0
 39 40  1  0  0  0  0
 39 41  1  1  0  0  0
 41 34  1  0  0  0  0
M  END
>  <CHROM.1>
163.76459155,44.29819326,-166.87712464,-44.68055034,-152.61716489,140.65626104
-46.90128817,-40.57506685,142.75536710,13.60343975,8.34605691,12.30596077
-2.64877457,-0.81334583,2.96607124

>  <Name>
2et4_lig

>  <RI>
0

>  <Rbt.Current_Directory>
/home/itssahil/PROJECTS/Mol_Feturizer/New_Systems/rnas/2et4

>  <Rbt.Executable>
rbdock ($Id: //depot/dev/client3/rdock/2013.1/src/exe/rbdock.cxx#4 $)

>  <Rbt.Library>
libRbt.so (2013.1, Build901 2013/11/27)

>  <Rbt.Parameter_File>
/export/apps/rDock/src/rDock_2013.1_src/data/scripts/dock_solv.prm

>  <Rbt.Receptor>
prm/blind_docking_80.prm

>  <SCORE>
36.9468

>  <SCORE.INTER>
7.22218

>  <SCORE.INTER.CONST>
1

>  <SCORE.INTER.POLAR>
-0.783497

>  <SCORE.INTER.ROT>
9

>  <SCORE.INTER.SOLV>
29.9556

>  <SCORE.INTER.VDW>
-12.1587

>  <SCORE.INTER.norm>
0.171957

>  <SCORE.INTRA>
8.83733

>  <SCORE.INTRA.DIHEDRAL>
-3.32348

>  <SCORE.INTRA.DIHEDRAL.0>
21.6909

>  <SCORE.INTRA.POLAR>
0

>  <SCORE.INTRA.POLAR.0>
0

>  <SCORE.INTRA.REPUL>
0.968054

>  <SCORE.INTRA.REPUL.0>
0

>  <SCORE.INTRA.SOLV>
0.841347

>  <SCORE.INTRA.SOLV.lig_0>
-116.606

>  <SCORE.INTRA.VDW>
5.23812

>  <SCORE.INTRA.VDW.0>
-6.01229

>  <SCORE.INTRA.norm>
0.210413

>  <SCORE.RESTR>
20.8873

>  <SCORE.RESTR.CAVITY>
20.8873

>  <SCORE.RESTR.norm>
0.497316

>  <SCORE.SYSTEM>
0

>  <SCORE.SYSTEM.CONST>
0

>  <SCORE.SYSTEM.DIHEDRAL>
0

>  <SCORE.SYSTEM.SOLV>
0

>  <SCORE.SYSTEM.norm>
0

>  <SCORE.heavy>
42

>  <SCORE.norm>
0.879685

>  <RMSD>
8.834

$$$$
2et4_lig
 OpenBabel11021811423D
libRbt.so/2013.1/901 2013/11/27
 42 45  0  0  0  0  0  0  0  0999 V2000
   13.4471    7.8891    9.6741 C   0  0  2  0  0  0  0  0  0  0  0  0
   14.8122    7.6575   10.0277 O   0  0  0  0  0  0  0  0  0  0  0  0
   12.9667    9.1183   10.4870 C   0  0  2  0  0  0  0  0  0  0  0  0
   13.7898   10.2725   10.2297 N   0  0  0  0  0  0  0  0  0  0  0  0
   12.9607    8.7617   12.0016 C   0  0  1  0  0  0  0  0  0  0  0  0
   12.5131    9.8630   12.7286 O   0  0  0  0  0  0  0  0  0  0  0  0
   12.0486    7.5061   12.2050 C   0  0  2  0  0  0  0  0  0  0  0  0
   12.0197    7.1417   13.5688 O   0  0  0  0  0  0  0  0  0  0  0  0
   12.5652    6.3019   11.3606 C   0  0  2  0  0  0  0  0  0  0  0  0
   12.6059    6.6990    9.9868 O   0  0  0  0  0  0  0  0  0  0  0  0
   11.6530    5.0402   11.5071 C   0  0  0  0  0  0  0  0  0  0  0  0
   12.2205    3.8929   10.8886 N   0  0  0  0  0  0  0  0  0  0  0  0
   18.1652    5.3180    8.6352 C   0  0  2  0  0  0  0  0  0  0  0  0
   18.9401    4.1781    8.1293 N   0  0  0  0  0  0  0  0  0  0  0  0
   17.4964    4.9291   10.0613 C   0  0  0  0  0  0  0  0  0  0  0  0
   16.6505    6.1567   10.5949 C   0  0  2  0  0  0  0  0  0  0  0  0
   16.0024    5.8378   11.8795 N   0  0  0  0  0  0  0  0  0  0  0  0
   15.5593    6.5357    9.5374 C   0  0  2  0  0  0  0  0  0  0  0  0
   16.2161    6.8800    8.1597 C   0  0  2  0  0  0  0  0  0  0  0  0
   15.1301    7.1993    7.2554 O   0  0  0  0  0  0  0  0  0  0  0  0
   17.0401    5.6568    7.6437 C   0  0  1  0  0  0  0  0  0  0  0  0
   17.6211    5.9956    6.4299 O   0  0  0  0  0  0  0  0  0  0  0  0
   14.8702    8.4263    6.7423 C   0  0  1  0  0  0  0  0  0  0  0  0
   14.4047    8.3243    5.2663 C   0  0  2  0  0  0  0  0  0  0  0  0
   15.4666    8.2520    4.3596 O   0  0  0  0  0  0  0  0  0  0  0  0
   13.4817    9.5277    5.2150 C   0  0  1  0  0  0  0  0  0  0  0  0
   12.7712    9.5985    6.5740 C   0  0  2  0  0  0  0  0  0  0  0  0
   13.8279    9.1679    7.4318 O   0  0  0  0  0  0  0  0  0  0  0  0
   11.4987    8.6960    6.7184 C   0  0  0  0  0  0  0  0  0  0  0  0
   10.9194    8.9671    8.0223 O   0  0  0  0  0  0  0  0  0  0  0  0
   14.8160   10.9290    3.6730 C   0  0  2  0  0  0  0  0  0  0  0  0
   14.3243   10.7272    4.9697 O   0  0  0  0  0  0  0  0  0  0  0  0
   15.9596   12.0342    3.6528 C   0  0  1  0  0  0  0  0  0  0  0  0
   12.2556   13.3531    0.7113 N   0  0  0  0  0  0  0  0  0  0  0  0
   16.4332   12.1989    2.1149 C   0  0  1  0  0  0  0  0  0  0  0  0
   16.9219   10.8502    1.6254 O   0  0  0  0  0  0  0  0  0  0  0  0
   15.1921   12.7112    1.2074 C   0  0  2  0  0  0  0  0  0  0  0  0
   14.7500   14.0034    1.6881 O   0  0  0  0  0  0  0  0  0  0  0  0
   14.0274   11.5720    1.2830 C   0  0  1  0  0  0  0  0  0  0  0  0
   13.6534   11.3346    2.7202 O   0  0  0  0  0  0  0  0  0  0  0  0
   12.7530   11.9661    0.4572 C   0  0  0  0  0  0  0  0  0  0  0  0
   15.4504   13.3115    4.2526 N   0  0  0  0  0  0  0  0  0  0  0  0
  1  2  1  1  0  0  0
  1  3  1  0  0  0  0
  1 10  1  0  0  0  0
  3  4  1  1  0  0  0
  3  5  1  0  0  0  0
  5  6  1  1  0  0  0
  5  7  1  0  0  0  0
  7  8  1  1  0  0  0
  7  9  1  0  0  0  0
  9 10  1  0  0  0  0
  9 11  1  6  0  0  0
 11 12  1  0  0  0  0
 13 14  1  6  0  0  0
 13 15  1  0  0  0  0
 13 21  1  0  0  0  0
 16 15  1  0  0  0  0
 16 17  1  1  0  0  0
 18  2  1  1  0  0  0
 18 16  1  0  0  0  0
 19 18  1  0  0  0  0
 19 20  1  6  0  0  0
 21 19  1  0  0  0  0
 21 22  1  6  0  0  0
 23 20  1  1  0  0  0
 23 24  1  0  0  0  0
 23 28  1  0  0  0  0
 24 25  1  6  0  0  0
 24 26  1  0  0  0  0
 26 27  1  0  0  0  0
 26 32  1  1  0  0  0
 27 28  1  0  0  0  0
 27 29  1  6  0  0  0
 29 30  1  0  0  0  0
 31 32  1  1  0  0  0
 31 40  1  0  0  0  0
 33 31  1  0  0  0  0
 33 42  1  6  0  0  0
 35 33  1  0  0  0  0
 35 36  1  6  0  0  0
 37 35  1  0  0  0  0
 37 38  1  1  0  0  0
 37 39  1  0  0  0  0
 39 40  1  0  0  0  0
 39 41  1  6  0  0  0
 41 34  1  0  0  0  0
M  END
>  <CHROM.1>
175.46896346,-171.88977654,-151.17164641,111.61599595,141.66454509,75.67557872
-176.11116594,-166.44020112,-48.32558031,14.41408776,8.70101028,7.17496223
1.63548102,-0.58355133,2.16231506

>  <Name>
2et4_lig

>  <RI>
0

>  <Rbt.Current_Directory>
/home/itssahil/PROJECTS/Mol_Feturizer/New_Systems/rnas/2et4

>  <Rbt.Executable>
rbdock ($Id: //depot/dev/client3/rdock/2013.1/src/exe/rbdock.cxx#4 $)

>  <Rbt.Library>
libRbt.so (2013.1, Build901 2013/11/27)

>  <Rbt.Parameter_File>
/export/apps/rDock/src/rDock_2013.1_src/data/scripts/dock_solv.prm

>  <Rbt.Receptor>
prm/pocket_docking_3.prm

>  <SCORE>
-17.2059

>  <SCORE.INTER>
-18.1826

>  <SCORE.INTER.CONST>
1

>  <SCORE.INTER.POLAR>
-2.84096

>  <SCORE.INTER.ROT>
9

>  <SCORE.INTER.SOLV>
28.0307

>  <SCORE.INTER.VDW>
-21.5954

>  <SCORE.INTER.norm>
-0.432918

>  <SCORE.INTRA>
-0.625034

>  <SCORE.INTRA.DIHEDRAL>
-3.31483

>  <SCORE.INTRA.DIHEDRAL.0>
21.6909

>  <SCORE.INTRA.POLAR>
0

>  <SCORE.INTRA.POLAR.0>
0

>  <SCORE.INTRA.REPUL>
0

>  <SCORE.INTRA.REPUL.0>
0

>  <SCORE.INTRA.SOLV>
0.617618

>  <SCORE.INTRA.SOLV.lig_0>
-116.606

>  <SCORE.INTRA.VDW>
0.723574

>  <SCORE.INTRA.VDW.0>
-6.01229

>  <SCORE.INTRA.norm>
-0.0148818

>  <SCORE.RESTR>
1.60169

>  <SCORE.RESTR.CAVITY>
1.60169

>  <SCORE.RESTR.norm>
0.0381354

>  <SCORE.SYSTEM>
0

>  <SCORE.SYSTEM.CONST>
0

>  <SCORE.SYSTEM.DIHEDRAL>
0

>  <SCORE.SYSTEM.SOLV>
0

>  <SCORE.SYSTEM.norm>
0

>  <SCORE.heavy>
42

>  <SCORE.norm>
-0.409664

>  <RMSD>
8.839

$$$$
2et4_lig
 OpenBabel11021811423D
libRbt.so/2013.1/901 2013/11/27
 42 45  0  0  0  0  0  0  0  0999 V2000
    9.4721    8.1328   13.9994 C   0  0  2  0  0  0  0  0  0  0  0  0
   10.8147    7.8372   14.3896 O   0  0  0  0  0  0  0  0  0  0  0  0
    8.6374    6.8459   14.2228 C   0  0  2  0  0  0  0  0  0  0  0  0
    8.7120    6.4025   15.5916 N   0  0  0  0  0  0  0  0  0  0  0  0
    9.1311    5.7381   13.2480 C   0  0  1  0  0  0  0  0  0  0  0  0
    8.3685    4.5877   13.4397 O   0  0  0  0  0  0  0  0  0  0  0  0
    9.0194    6.2872   11.7865 C   0  0  2  0  0  0  0  0  0  0  0  0
    9.4654    5.3140   10.8660 O   0  0  0  0  0  0  0  0  0  0  0  0
    9.8658    7.5850   11.6148 C   0  0  2  0  0  0  0  0  0  0  0  0
    9.4117    8.5489   12.5695 O   0  0  0  0  0  0  0  0  0  0  0  0
    9.7449    8.1857   10.1761 C   0  0  0  0  0  0  0  0  0  0  0  0
   10.2422    7.3003    9.1813 N   0  0  0  0  0  0  0  0  0  0  0  0
   13.3200   10.7691   12.4448 C   0  0  2  0  0  0  0  0  0  0  0  0
   14.4302   11.7008   12.2103 N   0  0  0  0  0  0  0  0  0  0  0  0
   12.5121   11.2131   13.7799 C   0  0  0  0  0  0  0  0  0  0  0  0
   11.3252   10.1968   14.0360 C   0  0  2  0  0  0  0  0  0  0  0  0
   10.5781   10.5481   15.2566 N   0  0  0  0  0  0  0  0  0  0  0  0
   11.9019    8.7473   14.1736 C   0  0  2  0  0  0  0  0  0  0  0  0
   12.7026    8.3434   12.8916 C   0  0  2  0  0  0  0  0  0  0  0  0
   13.2024    7.0036   13.1246 O   0  0  0  0  0  0  0  0  0  0  0  0
   13.8739    9.3507   12.6575 C   0  0  1  0  0  0  0  0  0  0  0  0
   14.5561    8.9763   11.5086 O   0  0  0  0  0  0  0  0  0  0  0  0
   13.8245    6.2263   12.2053 C   0  0  1  0  0  0  0  0  0  0  0  0
   14.4579    4.9769   12.8711 C   0  0  2  0  0  0  0  0  0  0  0  0
   15.7244    5.2244   13.4094 O   0  0  0  0  0  0  0  0  0  0  0  0
   14.3328    3.9944   11.7214 C   0  0  1  0  0  0  0  0  0  0  0  0
   12.9965    4.2937   11.0274 C   0  0  2  0  0  0  0  0  0  0  0  0
   12.9613    5.7151   11.1539 O   0  0  0  0  0  0  0  0  0  0  0  0
   11.7363    3.6199   11.6697 C   0  0  0  0  0  0  0  0  0  0  0  0
   11.7062    4.0012   13.0707 O   0  0  0  0  0  0  0  0  0  0  0  0
   15.4859    3.5634    9.5752 C   0  0  2  0  0  0  0  0  0  0  0  0
   15.4882    4.2188   10.8139 O   0  0  0  0  0  0  0  0  0  0  0  0
   15.4983    1.9833    9.7562 C   0  0  1  0  0  0  0  0  0  0  0  0
   19.3929    3.7069    7.3506 N   0  0  0  0  0  0  0  0  0  0  0  0
   15.5170    1.3360    8.2739 C   0  0  1  0  0  0  0  0  0  0  0  0
   14.2895    1.8247    7.5309 O   0  0  0  0  0  0  0  0  0  0  0  0
   16.8639    1.7855    7.4927 C   0  0  2  0  0  0  0  0  0  0  0  0
   18.0203    1.2996    8.2158 O   0  0  0  0  0  0  0  0  0  0  0  0
   16.8335    3.4107    7.3598 C   0  0  1  0  0  0  0  0  0  0  0  0
   16.7095    4.0216    8.7285 O   0  0  0  0  0  0  0  0  0  0  0  0
   18.1067    3.9739    6.6366 C   0  0  0  0  0  0  0  0  0  0  0  0
   16.6726    1.5712   10.5940 N   0  0  0  0  0  0  0  0  0  0  0  0
  1  2  1  6  0  0  0
  1  3  1  0  0  0  0
  1 10  1  0  0  0  0
  3  4  1  1  0  0  0
  3  5  1  0  0  0  0
  5  6  1  6  0  0  0
  5  7  1  0  0  0  0
  7  8  1  6  0  0  0
  7  9  1  0  0  0  0
  9 10  1  0  0  0  0
  9 11  1  6  0  0  0
 11 12  1  0  0  0  0
 13 14  1  1  0  0  0
 13 15  1  0  0  0  0
 13 21  1  0  0  0  0
 16 15  1  0  0  0  0
 16 17  1  1  0  0  0
 18  2  1  6  0  0  0
 18 16  1  0  0  0  0
 19 18  1  0  0  0  0
 19 20  1  1  0  0  0
 21 19  1  0  0  0  0
 21 22  1  6  0  0  0
 23 20  1  1  0  0  0
 23 24  1  0  0  0  0
 23 28  1  0  0  0  0
 24 25  1  6  0  0  0
 24 26  1  0  0  0  0
 26 27  1  0  0  0  0
 26 32  1  6  0  0  0
 27 28  1  0  0  0  0
 27 29  1  1  0  0  0
 29 30  1  0  0  0  0
 31 32  1  1  0  0  0
 31 40  1  0  0  0  0
 33 31  1  0  0  0  0
 33 42  1  1  0  0  0
 35 33  1  0  0  0  0
 35 36  1  6  0  0  0
 37 35  1  0  0  0  0
 37 38  1  1  0  0  0
 37 39  1  0  0  0  0
 39 40  1  0  0  0  0
 39 41  1  1  0  0  0
 41 34  1  0  0  0  0
M  END
>  <CHROM.1>
172.55360889,-62.57543841,22.78738891,172.41804704,169.15246290,-170.73689668
54.83891236,-62.21375454,-62.38372244,13.05380387,5.93074010,11.48405862
2.32508801,0.38379535,0.37597613

>  <Name>
2et4_lig

>  <RI>
0

>  <Rbt.Current_Directory>
/home/itssahil/PROJECTS/Mol_Feturizer/New_Systems/rnas/2et4

>  <Rbt.Executable>
rbdock ($Id: //depot/dev/client3/rdock/2013.1/src/exe/rbdock.cxx#4 $)

>  <Rbt.Library>
libRbt.so (2013.1, Build901 2013/11/27)

>  <Rbt.Parameter_File>
/export/apps/rDock/src/rDock_2013.1_src/data/scripts/dock_solv.prm

>  <Rbt.Receptor>
prm/pocket_docking_6.prm

>  <SCORE>
-9.86623

>  <SCORE.INTER>
-4.45884

>  <SCORE.INTER.CONST>
1

>  <SCORE.INTER.POLAR>
-0.934677

>  <SCORE.INTER.ROT>
9

>  <SCORE.INTER.SOLV>
12.6446

>  <SCORE.INTER.VDW>
-13.6718

>  <SCORE.INTER.norm>
-0.106163

>  <SCORE.INTRA>
-5.40739

>  <SCORE.INTRA.DIHEDRAL>
-14.9003

>  <SCORE.INTRA.DIHEDRAL.0>
21.6909

>  <SCORE.INTRA.POLAR>
0

>  <SCORE.INTRA.POLAR.0>
0

>  <SCORE.INTRA.REPUL>
0.0177179

>  <SCORE.INTRA.REPUL.0>
0

>  <SCORE.INTRA.SOLV>
1.42705

>  <SCORE.INTRA.SOLV.lig_0>
-116.606

>  <SCORE.INTRA.VDW>
1.24063

>  <SCORE.INTRA.VDW.0>
-6.01229

>  <SCORE.INTRA.norm>
-0.128747

>  <SCORE.RESTR>
0

>  <SCORE.RESTR.CAVITY>
0

>  <SCORE.RESTR.norm>
0

>  <SCORE.SYSTEM>
0

>  <SCORE.SYSTEM.CONST>
0

>  <SCORE.SYSTEM.DIHEDRAL>
0

>  <SCORE.SYSTEM.SOLV>
0

>  <SCORE.SYSTEM.norm>
0

>  <SCORE.heavy>
42

>  <SCORE.norm>
-0.23491

>  <RMSD>
8.840

$$$$
2et4_lig
 OpenBabel11021811423D
libRbt.so/2013.1/901 2013/11/27
 42 45  0  0  0  0  0  0  0  0999 V2000
   12.3185    4.3383   10.6941 C   0  0  2  0  0  0  0  0  0  0  0  0
   13.5721    3.7981   11.1169 O   0  0  0  0  0  0  0  0  0  0  0  0
   11.5212    4.6986   11.9736 C   0  0  2  0  0  0  0  0  0  0  0  0
   12.2502    5.6233   12.8038 N   0  0  0  0  0  0  0  0  0  0  0  0
   11.1831    3.3944   12.7520 C   0  0  1  0  0  0  0  0  0  0  0  0
   10.4525    3.7197   13.8931 O   0  0  0  0  0  0  0  0  0  0  0  0
   10.3927    2.4431   11.7927 C   0  0  2  0  0  0  0  0  0  0  0  0
   10.0704    1.2401   12.4578 O   0  0  0  0  0  0  0  0  0  0  0  0
   11.2299    2.1191   10.5183 C   0  0  2  0  0  0  0  0  0  0  0  0
   11.5624    3.3513    9.8721 O   0  0  0  0  0  0  0  0  0  0  0  0
   10.4540    1.2029    9.5163 C   0  0  0  0  0  0  0  0  0  0  0  0
    9.2539    1.8088    9.0540 N   0  0  0  0  0  0  0  0  0  0  0  0
   17.5690    3.8682    9.4814 C   0  0  2  0  0  0  0  0  0  0  0  0
   18.6897    3.6403    8.5608 N   0  0  0  0  0  0  0  0  0  0  0  0
   16.9576    2.4420    9.9553 C   0  0  0  0  0  0  0  0  0  0  0  0
   15.7405    2.6941   10.9363 C   0  0  2  0  0  0  0  0  0  0  0  0
   15.1368    1.4226   11.3727 N   0  0  0  0  0  0  0  0  0  0  0  0
   14.6599    3.5657   10.2116 C   0  0  2  0  0  0  0  0  0  0  0  0
   15.2703    4.9250    9.7347 C   0  0  2  0  0  0  0  0  0  0  0  0
   14.2026    5.6438    9.0695 O   0  0  0  0  0  0  0  0  0  0  0  0
   16.4640    4.6591    8.7622 C   0  0  1  0  0  0  0  0  0  0  0  0
   16.9932    5.8798    8.3676 O   0  0  0  0  0  0  0  0  0  0  0  0
   14.3130    6.8727    8.5092 C   0  0  1  0  0  0  0  0  0  0  0  0
   13.1373    7.1473    7.5356 C   0  0  2  0  0  0  0  0  0  0  0  0
   13.3514    6.6265    6.2558 O   0  0  0  0  0  0  0  0  0  0  0  0
   13.0252    8.6515    7.7021 C   0  0  1  0  0  0  0  0  0  0  0  0
   13.3019    8.9545    9.1814 C   0  0  2  0  0  0  0  0  0  0  0  0
   14.3058    7.9769    9.4539 O   0  0  0  0  0  0  0  0  0  0  0  0
   12.0722    8.8104   10.1416 C   0  0  0  0  0  0  0  0  0  0  0  0
   11.0871    9.7979    9.7372 O   0  0  0  0  0  0  0  0  0  0  0  0
   13.6278    9.6814    5.5347 C   0  0  2  0  0  0  0  0  0  0  0  0
   14.0382    9.2764    6.8121 O   0  0  0  0  0  0  0  0  0  0  0  0
   13.8515    8.5284    4.4621 C   0  0  1  0  0  0  0  0  0  0  0  0
   16.3526   12.5731    3.2714 N   0  0  0  0  0  0  0  0  0  0  0  0
   13.3677    9.1101    3.0323 C   0  0  1  0  0  0  0  0  0  0  0  0
   11.9116    9.5124    3.1557 O   0  0  0  0  0  0  0  0  0  0  0  0
   14.2728   10.3907    2.6231 C   0  0  2  0  0  0  0  0  0  0  0  0
   15.6557    9.9795    2.5024 O   0  0  0  0  0  0  0  0  0  0  0  0
   14.0465   11.5346    3.7633 C   0  0  1  0  0  0  0  0  0  0  0  0
   14.3937   10.9697    5.1133 O   0  0  0  0  0  0  0  0  0  0  0  0
   14.8951   12.8255    3.4899 C   0  0  0  0  0  0  0  0  0  0  0  0
   15.2876    8.0943    4.4663 N   0  0  0  0  0  0  0  0  0  0  0  0
  1  2  1  1  0  0  0
  1  3  1  0  0  0  0
  1 10  1  0  0  0  0
  3  4  1  1  0  0  0
  3  5  1  0  0  0  0
  5  6  1  1  0  0  0
  5  7  1  0  0  0  0
  7  8  1  1  0  0  0
  7  9  1  0  0  0  0
  9 10  1  0  0  0  0
  9 11  1  6  0  0  0
 11 12  1  0  0  0  0
 13 14  1  6  0  0  0
 13 15  1  0  0  0  0
 13 21  1  0  0  0  0
 16 15  1  0  0  0  0
 16 17  1  6  0  0  0
 18  2  1  1  0  0  0
 18 16  1  0  0  0  0
 19 18  1  0  0  0  0
 19 20  1  6  0  0  0
 21 19  1  0  0  0  0
 21 22  1  1  0  0  0
 23 20  1  1  0  0  0
 23 24  1  0  0  0  0
 23 28  1  0  0  0  0
 24 25  1  6  0  0  0
 24 26  1  0  0  0  0
 26 27  1  0  0  0  0
 26 32  1  6  0  0  0
 27 28  1  0  0  0  0
 27 29  1  1  0  0  0
 29 30  1  0  0  0  0
 31 32  1  1  0  0  0
 31 40  1  0  0  0  0
 33 31  1  0  0  0  0
 33 42  1  6  0  0  0
 35 33  1  0  0  0  0
 35 36  1  1  0  0  0
 37 35  1  0  0  0  0
 37 38  1  1  0  0  0
 37 39  1  0  0  0  0
 39 40  1  0  0  0  0
 39 41  1  6  0  0  0
 41 34  1  0  0  0  0
M  END
>  <CHROM.1>
-169.04636159,60.70515408,-167.80257412,179.90866055,162.86023142,94.58089208
-63.41394917,-91.71154093,-52.45301039,13.60554677,6.30417859,8.32166384
1.77945899,-0.29332473,2.44081836

>  <Name>
2et4_lig

>  <RI>
0

>  <Rbt.Current_Directory>
/home/itssahil/PROJECTS/Mol_Feturizer/New_Systems/rnas/2et4

>  <Rbt.Executable>
rbdock ($Id: //depot/dev/client3/rdock/2013.1/src/exe/rbdock.cxx#4 $)

>  <Rbt.Library>
libRbt.so (2013.1, Build901 2013/11/27)

>  <Rbt.Parameter_File>
/export/apps/rDock/src/rDock_2013.1_src/data/scripts/dock_solv.prm

>  <Rbt.Receptor>
prm/pocket_docking_6.prm

>  <SCORE>
-22.6335

>  <SCORE.INTER>
-19.4499

>  <SCORE.INTER.CONST>
1

>  <SCORE.INTER.POLAR>
-2.19913

>  <SCORE.INTER.ROT>
9

>  <SCORE.INTER.SOLV>
21.1032

>  <SCORE.INTER.VDW>
-22.2706

>  <SCORE.INTER.norm>
-0.463092

>  <SCORE.INTRA>
-3.18367

>  <SCORE.INTRA.DIHEDRAL>
-10.3168

>  <SCORE.INTRA.DIHEDRAL.0>
21.6909

>  <SCORE.INTRA.POLAR>
0

>  <SCORE.INTRA.POLAR.0>
0

>  <SCORE.INTRA.REPUL>
0

>  <SCORE.INTRA.REPUL.0>
0

>  <SCORE.INTRA.SOLV>
-0.242978

>  <SCORE.INTRA.SOLV.lig_0>
-116.606

>  <SCORE.INTRA.VDW>
2.0962

>  <SCORE.INTRA.VDW.0>
-6.01229

>  <SCORE.INTRA.norm>
-0.0758016

>  <SCORE.RESTR>
0

>  <SCORE.RESTR.CAVITY>
0

>  <SCORE.RESTR.norm>
0

>  <SCORE.SYSTEM>
0

>  <SCORE.SYSTEM.CONST>
0

>  <SCORE.SYSTEM.DIHEDRAL>
0

>  <SCORE.SYSTEM.SOLV>
0

>  <SCORE.SYSTEM.norm>
0

>  <SCORE.heavy>
42

>  <SCORE.norm>
-0.538894

>  <RMSD>
8.843

$$$$
2et4_lig
 OpenBabel11021811423D
libRbt.so/2013.1/901 2013/11/27
 42 45  0  0  0  0  0  0  0  0999 V2000
   13.3680    5.3442   11.1386 C   0  0  2  0  0  0  0  0  0  0  0  0
   13.6715    5.9870   12.3784 O   0  0  0  0  0  0  0  0  0  0  0  0
   13.4525    3.8160   11.3836 C   0  0  2  0  0  0  0  0  0  0  0  0
   12.5580    3.4022   12.4344 N   0  0  0  0  0  0  0  0  0  0  0  0
   14.9228    3.4298   11.7157 C   0  0  1  0  0  0  0  0  0  0  0  0
   14.9988    2.0534   11.9195 O   0  0  0  0  0  0  0  0  0  0  0  0
   15.8325    3.9059   10.5343 C   0  0  2  0  0  0  0  0  0  0  0  0
   17.1811    3.5812   10.7977 O   0  0  0  0  0  0  0  0  0  0  0  0
   15.7051    5.4447   10.3207 C   0  0  2  0  0  0  0  0  0  0  0  0
   14.3298    5.7536   10.0761 O   0  0  0  0  0  0  0  0  0  0  0  0
   16.5698    5.9502    9.1199 C   0  0  0  0  0  0  0  0  0  0  0  0
   17.9565    5.7066    9.3170 N   0  0  0  0  0  0  0  0  0  0  0  0
   13.8152   10.1456   13.5361 C   0  0  2  0  0  0  0  0  0  0  0  0
   14.2604   11.5421   13.6205 N   0  0  0  0  0  0  0  0  0  0  0  0
   15.0048    9.1655   14.0426 C   0  0  0  0  0  0  0  0  0  0  0  0
   14.5243    7.6605   13.9358 C   0  0  2  0  0  0  0  0  0  0  0  0
   15.5857    6.7316   14.3628 N   0  0  0  0  0  0  0  0  0  0  0  0
   14.1184    7.3476   12.4560 C   0  0  2  0  0  0  0  0  0  0  0  0
   12.9914    8.3186   11.9714 C   0  0  2  0  0  0  0  0  0  0  0  0
   12.7013    7.9584   10.5983 O   0  0  0  0  0  0  0  0  0  0  0  0
   13.4837    9.7978   12.0756 C   0  0  1  0  0  0  0  0  0  0  0  0
   12.4607   10.6350   11.6535 O   0  0  0  0  0  0  0  0  0  0  0  0
   13.1047    8.6474    9.5035 C   0  0  1  0  0  0  0  0  0  0  0  0
   12.0945    8.4808    8.3384 C   0  0  2  0  0  0  0  0  0  0  0  0
   12.3047    7.3174    7.5918 O   0  0  0  0  0  0  0  0  0  0  0  0
   12.2760    9.8260    7.6601 C   0  0  1  0  0  0  0  0  0  0  0  0
   12.4838   10.8595    8.7761 C   0  0  2  0  0  0  0  0  0  0  0  0
   13.2426   10.0805    9.7008 O   0  0  0  0  0  0  0  0  0  0  0  0
   11.1747   11.4241    9.4260 C   0  0  0  0  0  0  0  0  0  0  0  0
   10.4573   10.3013   10.0038 O   0  0  0  0  0  0  0  0  0  0  0  0
   13.3419   10.1806    5.4557 C   0  0  2  0  0  0  0  0  0  0  0  0
   13.4652    9.7234    6.7747 O   0  0  0  0  0  0  0  0  0  0  0  0
   13.4947    8.9890    4.4132 C   0  0  1  0  0  0  0  0  0  0  0  0
   16.8773   12.4373    3.4677 N   0  0  0  0  0  0  0  0  0  0  0  0
   13.3583    9.6315    2.9349 C   0  0  1  0  0  0  0  0  0  0  0  0
   12.0083   10.3143    2.8408 O   0  0  0  0  0  0  0  0  0  0  0  0
   14.5492   10.7022    2.6868 C   0  0  2  0  0  0  0  0  0  0  0  0
   15.8261   10.0250    2.7723 O   0  0  0  0  0  0  0  0  0  0  0  0
   14.3818   11.8864    3.7955 C   0  0  1  0  0  0  0  0  0  0  0  0
   14.4014   11.2861    5.1744 O   0  0  0  0  0  0  0  0  0  0  0  0
   15.4995   12.9805    3.6732 C   0  0  0  0  0  0  0  0  0  0  0  0
   14.7995    8.2810    4.6299 N   0  0  0  0  0  0  0  0  0  0  0  0
  1  2  1  1  0  0  0
  1  3  1  0  0  0  0
  1 10  1  0  0  0  0
  3  4  1  1  0  0  0
  3  5  1  0  0  0  0
  5  6  1  6  0  0  0
  5  7  1  0  0  0  0
  7  8  1  1  0  0  0
  7  9  1  0  0  0  0
  9 10  1  0  0  0  0
  9 11  1  6  0  0  0
 11 12  1  0  0  0  0
 13 14  1  6  0  0  0
 13 15  1  0  0  0  0
 13 21  1  0  0  0  0
 16 15  1  0  0  0  0
 16 17  1  6  0  0  0
 18  2  1  1  0  0  0
 18 16  1  0  0  0  0
 19 18  1  0  0  0  0
 19 20  1  6  0  0  0
 21 19  1  0  0  0  0
 21 22  1  1  0  0  0
 23 20  1  1  0  0  0
 23 24  1  0  0  0  0
 23 28  1  0  0  0  0
 24 25  1  6  0  0  0
 24 26  1  0  0  0  0
 26 27  1  0  0  0  0
 26 32  1  6  0  0  0
 27 28  1  0  0  0  0
 27 29  1  1  0  0  0
 29 30  1  0  0  0  0
 31 32  1  1  0  0  0
 31 40  1  0  0  0  0
 33 31  1  0  0  0  0
 33 42  1  6  0  0  0
 35 33  1  0  0  0  0
 35 36  1  1  0  0  0
 37 35  1  0  0  0  0
 37 38  1  1  0  0  0
 37 39  1  0  0  0  0
 39 40  1  0  0  0  0
 39 41  1  1  0  0  0
 41 34  1  0  0  0  0
M  END
>  <CHROM.1>
158.94186886,-61.33603936,-172.98522401,-103.84908070,-150.36958420,131.51361355
60.26192057,-115.07223507,-43.65447167,14.00620998,8.25960291,9.00522032
-1.47229311,1.14136523,-1.10096825

>  <Name>
2et4_lig

>  <RI>
0

>  <Rbt.Current_Directory>
/home/itssahil/PROJECTS/Mol_Feturizer/New_Systems/rnas/2et4

>  <Rbt.Executable>
rbdock ($Id: //depot/dev/client3/rdock/2013.1/src/exe/rbdock.cxx#4 $)

>  <Rbt.Library>
libRbt.so (2013.1, Build901 2013/11/27)

>  <Rbt.Parameter_File>
/export/apps/rDock/src/rDock_2013.1_src/data/scripts/dock_solv.prm

>  <Rbt.Receptor>
prm/blind_docking_40.prm

>  <SCORE>
34.7204

>  <SCORE.INTER>
3.11209

>  <SCORE.INTER.CONST>
1

>  <SCORE.INTER.POLAR>
-1.58233

>  <SCORE.INTER.ROT>
9

>  <SCORE.INTER.SOLV>
32.7099

>  <SCORE.INTER.VDW>
-13.1541

>  <SCORE.INTER.norm>
0.0740974

>  <SCORE.INTRA>
14.202

>  <SCORE.INTRA.DIHEDRAL>
4.66006

>  <SCORE.INTRA.DIHEDRAL.0>
21.6909

>  <SCORE.INTRA.POLAR>
0

>  <SCORE.INTRA.POLAR.0>
0

>  <SCORE.INTRA.REPUL>
0

>  <SCORE.INTRA.REPUL.0>
0

>  <SCORE.INTRA.SOLV>
0.226638

>  <SCORE.INTRA.SOLV.lig_0>
-116.606

>  <SCORE.INTRA.VDW>
11.7586

>  <SCORE.INTRA.VDW.0>
-6.01229

>  <SCORE.INTRA.norm>
0.338143

>  <SCORE.RESTR>
17.4063

>  <SCORE.RESTR.CAVITY>
17.4063

>  <SCORE.RESTR.norm>
0.414436

>  <SCORE.SYSTEM>
0

>  <SCORE.SYSTEM.CONST>
0

>  <SCORE.SYSTEM.DIHEDRAL>
0

>  <SCORE.SYSTEM.SOLV>
0

>  <SCORE.SYSTEM.norm>
0

>  <SCORE.heavy>
42

>  <SCORE.norm>
0.826676

>  <RMSD>
8.858

$$$$
2et4_lig
 OpenBabel11021811423D
libRbt.so/2013.1/901 2013/11/27
 42 45  0  0  0  0  0  0  0  0999 V2000
   11.2364    3.7446   13.0222 C   0  0  2  0  0  0  0  0  0  0  0  0
   11.7639    4.4480   11.8956 O   0  0  0  0  0  0  0  0  0  0  0  0
   10.1653    2.7608   12.4861 C   0  0  2  0  0  0  0  0  0  0  0  0
   10.7206    1.8626   11.5060 N   0  0  0  0  0  0  0  0  0  0  0  0
    8.9759    3.5701   11.8932 C   0  0  1  0  0  0  0  0  0  0  0  0
    8.0073    2.6835   11.4267 O   0  0  0  0  0  0  0  0  0  0  0  0
    8.4240    4.5178   13.0100 C   0  0  2  0  0  0  0  0  0  0  0  0
    7.3443    5.2792   12.5119 O   0  0  0  0  0  0  0  0  0  0  0  0
    9.5388    5.4789   13.5233 C   0  0  2  0  0  0  0  0  0  0  0  0
   10.6298    4.6880   14.0038 O   0  0  0  0  0  0  0  0  0  0  0  0
    9.0335    6.4138   14.6706 C   0  0  0  0  0  0  0  0  0  0  0  0
   10.0441    7.3076   15.1188 N   0  0  0  0  0  0  0  0  0  0  0  0
   14.2211    7.5126   13.6914 C   0  0  2  0  0  0  0  0  0  0  0  0
   15.2311    8.5692   13.8304 N   0  0  0  0  0  0  0  0  0  0  0  0
   14.9365    6.1384   13.2098 C   0  0  0  0  0  0  0  0  0  0  0  0
   13.8409    5.0068   13.0477 C   0  0  2  0  0  0  0  0  0  0  0  0
   14.4445    3.7443   12.5856 N   0  0  0  0  0  0  0  0  0  0  0  0
   12.7563    5.4759   12.0200 C   0  0  2  0  0  0  0  0  0  0  0  0
   12.0954    6.8166   12.4823 C   0  0  2  0  0  0  0  0  0  0  0  0
   11.1262    7.1690   11.4647 O   0  0  0  0  0  0  0  0  0  0  0  0
   13.1878    7.9240   12.6298 C   0  0  1  0  0  0  0  0  0  0  0  0
   12.5758    9.0952   13.0534 O   0  0  0  0  0  0  0  0  0  0  0  0
   11.3642    7.2024   10.1311 C   0  0  1  0  0  0  0  0  0  0  0  0
   10.0382    7.2932    9.3319 C   0  0  2  0  0  0  0  0  0  0  0  0
    9.4395    6.0477    9.1184 O   0  0  0  0  0  0  0  0  0  0  0  0
   10.5268    8.0833    8.1320 C   0  0  1  0  0  0  0  0  0  0  0  0
   11.5475    9.1017    8.6590 C   0  0  2  0  0  0  0  0  0  0  0  0
   12.1699    8.3256    9.6828 O   0  0  0  0  0  0  0  0  0  0  0  0
   10.9438   10.4332    9.2224 C   0  0  0  0  0  0  0  0  0  0  0  0
   10.1441   10.0899   10.3851 O   0  0  0  0  0  0  0  0  0  0  0  0
   11.7859    7.6365    6.0496 C   0  0  2  0  0  0  0  0  0  0  0  0
   11.1467    7.1202    7.1849 O   0  0  0  0  0  0  0  0  0  0  0  0
   10.7472    7.9187    4.8785 C   0  0  1  0  0  0  0  0  0  0  0  0
   15.6933    5.6653    5.1181 N   0  0  0  0  0  0  0  0  0  0  0  0
   11.5923    8.4864    3.6214 C   0  0  1  0  0  0  0  0  0  0  0  0
   12.3166    9.7406    4.0684 O   0  0  0  0  0  0  0  0  0  0  0  0
   12.6556    7.3699    3.1223 C   0  0  2  0  0  0  0  0  0  0  0  0
   11.9400    6.1870    2.6923 O   0  0  0  0  0  0  0  0  0  0  0  0
   13.6782    7.0801    4.3593 C   0  0  1  0  0  0  0  0  0  0  0  0
   12.8917    6.6522    5.5677 O   0  0  0  0  0  0  0  0  0  0  0  0
   14.7491    5.9897    4.0051 C   0  0  0  0  0  0  0  0  0  0  0  0
    9.9821    6.6687    4.5580 N   0  0  0  0  0  0  0  0  0  0  0  0
  1  2  1  6  0  0  0
  1  3  1  0  0  0  0
  1 10  1  0  0  0  0
  3  4  1  6  0  0  0
  3  5  1  0  0  0  0
  5  6  1  1  0  0  0
  5  7  1  0  0  0  0
  7  8  1  6  0  0  0
  7  9  1  0  0  0  0
  9 10  1  0  0  0  0
  9 11  1  1  0  0  0
 11 12  1  0  0  0  0
 13 14  1  6  0  0  0
 13 15  1  0  0  0  0
 13 21  1  0  0  0  0
 16 15  1  0  0  0  0
 16 17  1  6  0  0  0
 18  2  1  1  0  0  0
 18 16  1  0  0  0  0
 19 18  1  0  0  0  0
 19 20  1  6  0  0  0
 21 19  1  0  0  0  0
 21 22  1  1  0  0  0
 23 20  1  1  0  0  0
 23 24  1  0  0  0  0
 23 28  1  0  0  0  0
 24 25  1  6  0  0  0
 24 26  1  0  0  0  0
 26 27  1  0  0  0  0
 26 32  1  6  0  0  0
 27 28  1  0  0  0  0
 27 29  1  1  0  0  0
 29 30  1  0  0  0  0
 31 32  1  1  0  0  0
 31 40  1  0  0  0  0
 33 31  1  0  0  0  0
 33 42  1  6  0  0  0
 35 33  1  0  0  0  0
 35 36  1  1  0  0  0
 37 35  1  0  0  0  0
 37 38  1  1  0  0  0
 37 39  1  0  0  0  0
 39 40  1  0  0  0  0
 39 41  1  6  0  0  0
 41 34  1  0  0  0  0
M  END
>  <CHROM.1>
178.06785877,-178.82531916,43.03712760,-49.43155032,166.73076685,-174.15027951
64.03111497,-83.82983727,-178.70773275,11.53593245,6.51812041,9.81796088
1.77892586,0.71438443,1.66920843

>  <Name>
2et4_lig

>  <RI>
3.65815e+07

>  <Rbt.Current_Directory>
/home/itssahil/PROJECTS/Mol_Feturizer/New_Systems/rnas/2et4

>  <Rbt.Executable>
rbdock ($Id: //depot/dev/client3/rdock/2013.1/src/exe/rbdock.cxx#4 $)

>  <Rbt.Library>
libRbt.so (2013.1, Build901 2013/11/27)

>  <Rbt.Parameter_File>
/export/apps/rDock/src/rDock_2013.1_src/data/scripts/dock_solv.prm

>  <Rbt.Receptor>
prm/pocket_docking_4.prm

>  <SCORE>
-12.1102

>  <SCORE.INTER>
-4.41519

>  <SCORE.INTER.CONST>
1

>  <SCORE.INTER.POLAR>
0

>  <SCORE.INTER.ROT>
9

>  <SCORE.INTER.SOLV>
16.0055

>  <SCORE.INTER.VDW>
-17.8786

>  <SCORE.INTER.norm>
-0.105123

>  <SCORE.INTRA>
-7.69505

>  <SCORE.INTRA.DIHEDRAL>
-16.1324

>  <SCORE.INTRA.DIHEDRAL.0>
21.6909

>  <SCORE.INTRA.POLAR>
0

>  <SCORE.INTRA.POLAR.0>
0

>  <SCORE.INTRA.REPUL>
0

>  <SCORE.INTRA.REPUL.0>
0

>  <SCORE.INTRA.SOLV>
-1.27178

>  <SCORE.INTRA.SOLV.lig_0>
-116.606

>  <SCORE.INTRA.VDW>
1.00704

>  <SCORE.INTRA.VDW.0>
-6.01229

>  <SCORE.INTRA.norm>
-0.183215

>  <SCORE.RESTR>
0

>  <SCORE.RESTR.CAVITY>
0

>  <SCORE.RESTR.norm>
0

>  <SCORE.SYSTEM>
0

>  <SCORE.SYSTEM.CONST>
0

>  <SCORE.SYSTEM.DIHEDRAL>
0

>  <SCORE.SYSTEM.SOLV>
0

>  <SCORE.SYSTEM.norm>
0

>  <SCORE.heavy>
42

>  <SCORE.norm>
-0.288339

>  <RMSD>
8.868

$$$$
2et4_lig
 OpenBabel11021811423D
libRbt.so/2013.1/901 2013/11/27
 42 45  0  0  0  0  0  0  0  0999 V2000
   13.3950    9.8500   12.8689 C   0  0  2  0  0  0  0  0  0  0  0  0
   12.6107   10.2066   14.0090 O   0  0  0  0  0  0  0  0  0  0  0  0
   14.7459   10.6003   12.9906 C   0  0  2  0  0  0  0  0  0  0  0  0
   15.4166   10.2777   14.2242 N   0  0  0  0  0  0  0  0  0  0  0  0
   14.4949   12.1315   12.8739 C   0  0  1  0  0  0  0  0  0  0  0  0
   15.7126   12.8026   12.9674 O   0  0  0  0  0  0  0  0  0  0  0  0
   13.7690   12.4061   11.5146 C   0  0  2  0  0  0  0  0  0  0  0  0
   13.5143   13.7873   11.3697 O   0  0  0  0  0  0  0  0  0  0  0  0
   12.4236   11.6228   11.4355 C   0  0  2  0  0  0  0  0  0  0  0  0
   12.7023   10.2299   11.6050 O   0  0  0  0  0  0  0  0  0  0  0  0
   11.6898   11.8410   10.0719 C   0  0  0  0  0  0  0  0  0  0  0  0
   11.2855   13.1917    9.8901 N   0  0  0  0  0  0  0  0  0  0  0  0
   10.2475    7.4362   16.3317 C   0  0  2  0  0  0  0  0  0  0  0  0
    9.1003    6.6393   16.7839 N   0  0  0  0  0  0  0  0  0  0  0  0
    9.8748    9.0136   16.4051 C   0  0  0  0  0  0  0  0  0  0  0  0
   11.1101    9.8674   15.9028 C   0  0  2  0  0  0  0  0  0  0  0  0
   10.8060   11.3091   15.9284 N   0  0  0  0  0  0  0  0  0  0  0  0
   11.4819    9.4362   14.4439 C   0  0  2  0  0  0  0  0  0  0  0  0
   11.8106    7.9078   14.3824 C   0  0  2  0  0  0  0  0  0  0  0  0
   12.1242    7.6103   12.9996 O   0  0  0  0  0  0  0  0  0  0  0  0
   10.5799    7.0797   14.8735 C   0  0  1  0  0  0  0  0  0  0  0  0
   10.9048    5.7316   14.8215 O   0  0  0  0  0  0  0  0  0  0  0  0
   13.3250    7.1814   12.5412 C   0  0  1  0  0  0  0  0  0  0  0  0
   14.2699    6.8157   13.7155 C   0  0  2  0  0  0  0  0  0  0  0  0
   14.9482    7.9207   14.2388 O   0  0  0  0  0  0  0  0  0  0  0  0
   15.0738    5.7133   13.0512 C   0  0  1  0  0  0  0  0  0  0  0  0
   14.0993    4.9314   12.1592 C   0  0  2  0  0  0  0  0  0  0  0  0
   13.2697    5.9981   11.6994 O   0  0  0  0  0  0  0  0  0  0  0  0
   13.2686    3.8167   12.8818 C   0  0  0  0  0  0  0  0  0  0  0  0
   12.1679    3.4579   12.0050 O   0  0  0  0  0  0  0  0  0  0  0  0
   16.8827    5.5610   11.3701 C   0  0  2  0  0  0  0  0  0  0  0  0
   16.1501    6.3613   12.2571 O   0  0  0  0  0  0  0  0  0  0  0  0
   16.9376    6.2071    9.9178 C   0  0  1  0  0  0  0  0  0  0  0  0
   16.3134    0.9719    9.1871 N   0  0  0  0  0  0  0  0  0  0  0  0
   17.7823    5.1953    8.9800 C   0  0  1  0  0  0  0  0  0  0  0  0
   19.1590    5.0252    9.5910 O   0  0  0  0  0  0  0  0  0  0  0  0
   17.0256    3.7651    8.8900 C   0  0  2  0  0  0  0  0  0  0  0  0
   15.7189    3.9524    8.2954 O   0  0  0  0  0  0  0  0  0  0  0  0
   16.9554    3.1525   10.3999 C   0  0  1  0  0  0  0  0  0  0  0  0
   16.2636    4.1340   11.3055 O   0  0  0  0  0  0  0  0  0  0  0  0
   16.2178    1.7688   10.4486 C   0  0  0  0  0  0  0  0  0  0  0  0
   15.5468    6.4558    9.4131 N   0  0  0  0  0  0  0  0  0  0  0  0
  1  2  1  1  0  0  0
  1  3  1  0  0  0  0
  1 10  1  0  0  0  0
  3  4  1  1  0  0  0
  3  5  1  0  0  0  0
  5  6  1  6  0  0  0
  5  7  1  0  0  0  0
  7  8  1  1  0  0  0
  7  9  1  0  0  0  0
  9 10  1  0  0  0  0
  9 11  1  6  0  0  0
 11 12  1  0  0  0  0
 13 14  1  6  0  0  0
 13 15  1  0  0  0  0
 13 21  1  0  0  0  0
 16 15  1  0  0  0  0
 16 17  1  6  0  0  0
 18  2  1  1  0  0  0
 18 16  1  0  0  0  0
 19 18  1  0  0  0  0
 19 20  1  6  0  0  0
 21 19  1  0  0  0  0
 21 22  1  1  0  0  0
 23 20  1  1  0  0  0
 23 24  1  0  0  0  0
 23 28  1  0  0  0  0
 24 25  1  6  0  0  0
 24 26  1  0  0  0  0
 26 27  1  0  0  0  0
 26 32  1  6  0  0  0
 27 28  1  0  0  0  0
 27 29  1  1  0  0  0
 29 30  1  0  0  0  0
 31 32  1  1  0  0  0
 31 40  1  0  0  0  0
 33 31  1  0  0  0  0
 33 42  1  6  0  0  0
 35 33  1  0  0  0  0
 35 36  1  1  0  0  0
 37 35  1  0  0  0  0
 37 38  1  1  0  0  0
 37 39  1  0  0  0  0
 39 40  1  0  0  0  0
 39 41  1  6  0  0  0
 41 34  1  0  0  0  0
M  END
>  <CHROM.1>
-161.54615935,-64.52092836,164.66173763,116.14807630,9.55375842,-169.25912433
164.27583006,129.14995277,28.33899291,13.84951508,7.59435792,12.38712538
-2.31524978,-0.76115889,3.05334727

>  <Name>
2et4_lig

>  <RI>
0

>  <Rbt.Current_Directory>
/home/itssahil/PROJECTS/Mol_Feturizer/New_Systems/rnas/2et4

>  <Rbt.Executable>
rbdock ($Id: //depot/dev/client3/rdock/2013.1/src/exe/rbdock.cxx#4 $)

>  <Rbt.Library>
libRbt.so (2013.1, Build901 2013/11/27)

>  <Rbt.Parameter_File>
/export/apps/rDock/src/rDock_2013.1_src/data/scripts/dock_solv.prm

>  <Rbt.Receptor>
prm/blind_docking_100.prm

>  <SCORE>
25.6999

>  <SCORE.INTER>
-3.14063

>  <SCORE.INTER.CONST>
1

>  <SCORE.INTER.POLAR>
-0.906651

>  <SCORE.INTER.ROT>
9

>  <SCORE.INTER.SOLV>
28.668

>  <SCORE.INTER.VDW>
-18.2276

>  <SCORE.INTER.norm>
-0.0747768

>  <SCORE.INTRA>
13.9877

>  <SCORE.INTRA.DIHEDRAL>
6.10783

>  <SCORE.INTRA.DIHEDRAL.0>
21.6909

>  <SCORE.INTRA.POLAR>
0

>  <SCORE.INTRA.POLAR.0>
0

>  <SCORE.INTRA.REPUL>
0

>  <SCORE.INTRA.REPUL.0>
0

>  <SCORE.INTRA.SOLV>
2.3171

>  <SCORE.INTRA.SOLV.lig_0>
-116.606

>  <SCORE.INTRA.VDW>
9.77526

>  <SCORE.INTRA.VDW.0>
-6.01229

>  <SCORE.INTRA.norm>
0.333041

>  <SCORE.RESTR>
14.8528

>  <SCORE.RESTR.CAVITY>
14.8528

>  <SCORE.RESTR.norm>
0.353637

>  <SCORE.SYSTEM>
0

>  <SCORE.SYSTEM.CONST>
0

>  <SCORE.SYSTEM.DIHEDRAL>
0

>  <SCORE.SYSTEM.SOLV>
0

>  <SCORE.SYSTEM.norm>
0

>  <SCORE.heavy>
42

>  <SCORE.norm>
0.611901

>  <RMSD>
8.878

$$$$
2et4_lig
 OpenBabel11021811423D
libRbt.so/2013.1/901 2013/11/27
 42 45  0  0  0  0  0  0  0  0999 V2000
   13.4727    9.8033   13.1839 C   0  0  2  0  0  0  0  0  0  0  0  0
   12.7238   10.0917   14.3664 O   0  0  0  0  0  0  0  0  0  0  0  0
   14.8869   10.4066   13.3801 C   0  0  2  0  0  0  0  0  0  0  0  0
   15.5242    9.8789   14.5595 N   0  0  0  0  0  0  0  0  0  0  0  0
   14.7784   11.9574   13.4488 C   0  0  1  0  0  0  0  0  0  0  0  0
   16.0527   12.4979   13.6089 O   0  0  0  0  0  0  0  0  0  0  0  0
   14.0819   12.4576   12.1395 C   0  0  2  0  0  0  0  0  0  0  0  0
   13.9558   13.8637   12.1625 O   0  0  0  0  0  0  0  0  0  0  0  0
   12.6700   11.8161   11.9817 C   0  0  2  0  0  0  0  0  0  0  0  0
   12.8188   10.3932   11.9814 O   0  0  0  0  0  0  0  0  0  0  0  0
   11.9604   12.2618   10.6614 C   0  0  0  0  0  0  0  0  0  0  0  0
   11.9394   13.6757   10.5144 N   0  0  0  0  0  0  0  0  0  0  0  0
    9.7841    7.5562   16.2594 C   0  0  2  0  0  0  0  0  0  0  0  0
    8.4958    6.9180   16.5574 N   0  0  0  0  0  0  0  0  0  0  0  0
    9.6510    9.1618   16.4503 C   0  0  0  0  0  0  0  0  0  0  0  0
   11.0388    9.8459   16.1138 C   0  0  2  0  0  0  0  0  0  0  0  0
   10.9565   11.3110   16.2496 N   0  0  0  0  0  0  0  0  0  0  0  0
   11.4591    9.4781   14.6508 C   0  0  2  0  0  0  0  0  0  0  0  0
   11.5553    7.9266   14.4732 C   0  0  2  0  0  0  0  0  0  0  0  0
   11.9324    7.6936   13.0939 O   0  0  0  0  0  0  0  0  0  0  0  0
   10.1768    7.2680   14.8012 C   0  0  1  0  0  0  0  0  0  0  0  0
   10.2960    5.8939   14.6491 O   0  0  0  0  0  0  0  0  0  0  0  0
   12.2764    6.4942   12.5654 C   0  0  1  0  0  0  0  0  0  0  0  0
   13.3992    6.6543   11.5075 C   0  0  2  0  0  0  0  0  0  0  0  0
   12.9149    6.9902   10.2396 O   0  0  0  0  0  0  0  0  0  0  0  0
   14.1028    5.3224   11.6908 C   0  0  1  0  0  0  0  0  0  0  0  0
   14.0644    5.0049   13.1923 C   0  0  2  0  0  0  0  0  0  0  0  0
   12.7777    5.5254   13.5256 O   0  0  0  0  0  0  0  0  0  0  0  0
   15.1990    5.6614   14.0505 C   0  0  0  0  0  0  0  0  0  0  0  0
   16.4468    5.0107   13.6919 O   0  0  0  0  0  0  0  0  0  0  0  0
   13.9663    3.0645   10.6884 C   0  0  2  0  0  0  0  0  0  0  0  0
   13.3602    4.3113   10.8939 O   0  0  0  0  0  0  0  0  0  0  0  0
   15.3849    2.9855   11.4033 C   0  0  1  0  0  0  0  0  0  0  0  0
   13.4827    1.4236    6.5344 N   0  0  0  0  0  0  0  0  0  0  0  0
   15.9970    1.5228   11.0828 C   0  0  1  0  0  0  0  0  0  0  0  0
   15.0265    0.4816   11.6040 O   0  0  0  0  0  0  0  0  0  0  0  0
   16.2040    1.3495    9.4848 C   0  0  2  0  0  0  0  0  0  0  0  0
   17.1407    2.3477    9.0133 O   0  0  0  0  0  0  0  0  0  0  0  0
   14.7363    1.4736    8.7847 C   0  0  1  0  0  0  0  0  0  0  0  0
   14.1119    2.7886    9.1630 O   0  0  0  0  0  0  0  0  0  0  0  0
   14.8077    1.3457    7.2227 C   0  0  0  0  0  0  0  0  0  0  0  0
   16.2616    4.1075   10.9308 N   0  0  0  0  0  0  0  0  0  0  0  0
  1  2  1  1  0  0  0
  1  3  1  0  0  0  0
  1 10  1  0  0  0  0
  3  4  1  1  0  0  0
  3  5  1  0  0  0  0
  5  6  1  6  0  0  0
  5  7  1  0  0  0  0
  7  8  1  1  0  0  0
  7  9  1  0  0  0  0
  9 10  1  0  0  0  0
  9 11  1  6  0  0  0
 11 12  1  0  0  0  0
 13 14  1  6  0  0  0
 13 15  1  0  0  0  0
 13 21  1  0  0  0  0
 16 15  1  0  0  0  0
 16 17  1  6  0  0  0
 18  2  1  1  0  0  0
 18 16  1  0  0  0  0
 19 18  1  0  0  0  0
 19 20  1  6  0  0  0
 21 19  1  0  0  0  0
 21 22  1  1  0  0  0
 23 20  1  1  0  0  0
 23 24  1  0  0  0  0
 23 28  1  0  0  0  0
 24 25  1  6  0  0  0
 24 26  1  0  0  0  0
 26 27  1  0  0  0  0
 26 32  1  6  0  0  0
 27 28  1  0  0  0  0
 27 29  1  1  0  0  0
 29 30  1  0  0  0  0
 31 32  1  6  0  0  0
 31 40  1  0  0  0  0
 33 31  1  0  0  0  0
 33 42  1  6  0  0  0
 35 33  1  0  0  0  0
 35 36  1  6  0  0  0
 37 35  1  0  0  0  0
 37 38  1  6  0  0  0
 37 39  1  0  0  0  0
 39 40  1  0  0  0  0
 39 41  1  6  0  0  0
 41 34  1  0  0  0  0
M  END
>  <CHROM.1>
-168.03216346,-51.91310847,171.12577040,171.71772637,-143.74751818,167.51767963
-69.65948362,0.74563794,178.75365530,13.39696670,7.03819234,12.42187512,-1.98486764
-0.85316081,-3.03091274

>  <Name>
2et4_lig

>  <RI>
0

>  <Rbt.Current_Directory>
/home/itssahil/PROJECTS/Mol_Feturizer/New_Systems/rnas/2et4

>  <Rbt.Executable>
rbdock ($Id: //depot/dev/client3/rdock/2013.1/src/exe/rbdock.cxx#4 $)

>  <Rbt.Library>
libRbt.so (2013.1, Build901 2013/11/27)

>  <Rbt.Parameter_File>
/export/apps/rDock/src/rDock_2013.1_src/data/scripts/dock_solv.prm

>  <Rbt.Receptor>
prm/blind_docking_80.prm

>  <SCORE>
33.0598

>  <SCORE.INTER>
6.98046

>  <SCORE.INTER.CONST>
1

>  <SCORE.INTER.POLAR>
-0.443415

>  <SCORE.INTER.ROT>
9

>  <SCORE.INTER.SOLV>
27.066

>  <SCORE.INTER.VDW>
-12.4903

>  <SCORE.INTER.norm>
0.166202

>  <SCORE.INTRA>
2.56594

>  <SCORE.INTRA.DIHEDRAL>
-6.89547

>  <SCORE.INTRA.DIHEDRAL.0>
21.6909

>  <SCORE.INTRA.POLAR>
0

>  <SCORE.INTRA.POLAR.0>
0

>  <SCORE.INTRA.REPUL>
0

>  <SCORE.INTRA.REPUL.0>
0

>  <SCORE.INTRA.SOLV>
-0.283166

>  <SCORE.INTRA.SOLV.lig_0>
-116.606

>  <SCORE.INTRA.VDW>
6.15525

>  <SCORE.INTRA.VDW.0>
-6.01229

>  <SCORE.INTRA.norm>
0.0610937

>  <SCORE.RESTR>
23.5134

>  <SCORE.RESTR.CAVITY>
23.5134

>  <SCORE.RESTR.norm>
0.559843

>  <SCORE.SYSTEM>
0

>  <SCORE.SYSTEM.CONST>
0

>  <SCORE.SYSTEM.DIHEDRAL>
0

>  <SCORE.SYSTEM.SOLV>
0

>  <SCORE.SYSTEM.norm>
0

>  <SCORE.heavy>
42

>  <SCORE.norm>
0.787138

>  <RMSD>
8.901

$$$$
2et4_lig
 OpenBabel11021811423D
libRbt.so/2013.1/901 2013/11/27
 42 45  0  0  0  0  0  0  0  0999 V2000
   14.2923    5.2968    8.9115 C   0  0  2  0  0  0  0  0  0  0  0  0
   13.8993    5.7480   10.2093 O   0  0  0  0  0  0  0  0  0  0  0  0
   13.9034    3.7997    8.8110 C   0  0  2  0  0  0  0  0  0  0  0  0
   12.4944    3.6064    9.0413 N   0  0  0  0  0  0  0  0  0  0  0  0
   14.7537    2.9794    9.8236 C   0  0  1  0  0  0  0  0  0  0  0  0
   14.4137    1.6321    9.7197 O   0  0  0  0  0  0  0  0  0  0  0  0
   16.2662    3.2353    9.5126 C   0  0  2  0  0  0  0  0  0  0  0  0
   17.0771    2.5135   10.4153 O   0  0  0  0  0  0  0  0  0  0  0  0
   16.6052    4.7533    9.6159 C   0  0  2  0  0  0  0  0  0  0  0  0
   15.7592    5.4668    8.7094 O   0  0  0  0  0  0  0  0  0  0  0  0
   18.1009    5.0517    9.2706 C   0  0  0  0  0  0  0  0  0  0  0  0
   18.4229    4.7002    7.9312 N   0  0  0  0  0  0  0  0  0  0  0  0
   13.2428    9.6630   11.9112 C   0  0  2  0  0  0  0  0  0  0  0  0
   13.5135   11.0215   12.3981 N   0  0  0  0  0  0  0  0  0  0  0  0
   14.1307    8.5980   12.7537 C   0  0  0  0  0  0  0  0  0  0  0  0
   13.8457    7.1366   12.2149 C   0  0  2  0  0  0  0  0  0  0  0  0
   14.6527    6.1368   12.9366 N   0  0  0  0  0  0  0  0  0  0  0  0
   14.1767    7.0721   10.6856 C   0  0  2  0  0  0  0  0  0  0  0  0
   13.3350    8.1237    9.8896 C   0  0  2  0  0  0  0  0  0  0  0  0
   13.7234    7.9937    8.4999 O   0  0  0  0  0  0  0  0  0  0  0  0
   13.6333    9.5599   10.4278 C   0  0  1  0  0  0  0  0  0  0  0  0
   12.8640   10.4681    9.7142 O   0  0  0  0  0  0  0  0  0  0  0  0
   13.3035    8.7924    7.4889 C   0  0  1  0  0  0  0  0  0  0  0  0
   13.8080    8.2673    6.1195 C   0  0  2  0  0  0  0  0  0  0  0  0
   15.1057    8.6890    5.8142 O   0  0  0  0  0  0  0  0  0  0  0  0
   12.6630    8.7335    5.2395 C   0  0  1  0  0  0  0  0  0  0  0  0
   11.3767    8.5623    6.0597 C   0  0  2  0  0  0  0  0  0  0  0  0
   11.8605    8.9042    7.3585 O   0  0  0  0  0  0  0  0  0  0  0  0
   10.7438    7.1294    6.0320 C   0  0  0  0  0  0  0  0  0  0  0  0
   10.3161    6.8696    4.6686 O   0  0  0  0  0  0  0  0  0  0  0  0
   13.8169   10.4341    3.8618 C   0  0  2  0  0  0  0  0  0  0  0  0
   12.9137   10.1578    4.8971 O   0  0  0  0  0  0  0  0  0  0  0  0
   15.0632   11.2702    4.3884 C   0  0  1  0  0  0  0  0  0  0  0  0
   12.0861   11.4573   -0.2665 N   0  0  0  0  0  0  0  0  0  0  0  0
   16.0205   11.5483    3.1144 C   0  0  1  0  0  0  0  0  0  0  0  0
   16.4260   10.2103    2.5289 O   0  0  0  0  0  0  0  0  0  0  0  0
   15.2265   12.4289    2.0097 C   0  0  2  0  0  0  0  0  0  0  0  0
   14.8588   13.7037    2.5891 O   0  0  0  0  0  0  0  0  0  0  0  0
   13.9377   11.5564    1.5223 C   0  0  1  0  0  0  0  0  0  0  0  0
   13.0944   11.2015    2.7159 O   0  0  0  0  0  0  0  0  0  0  0  0
   13.0685   12.3179    0.4612 C   0  0  0  0  0  0  0  0  0  0  0  0
   14.5925   12.5279    5.0574 N   0  0  0  0  0  0  0  0  0  0  0  0
  1  2  1  1  0  0  0
  1  3  1  0  0  0  0
  1 10  1  0  0  0  0
  3  4  1  1  0  0  0
  3  5  1  0  0  0  0
  5  6  1  6  0  0  0
  5  7  1  0  0  0  0
  7  8  1  1  0  0  0
  7  9  1  0  0  0  0
  9 10  1  0  0  0  0
  9 11  1  6  0  0  0
 11 12  1  0  0  0  0
 13 14  1  1  0  0  0
 13 15  1  0  0  0  0
 13 21  1  0  0  0  0
 16 15  1  0  0  0  0
 16 17  1  1  0  0  0
 18  2  1  6  0  0  0
 18 16  1  0  0  0  0
 19 18  1  0  0  0  0
 19 20  1  6  0  0  0
 21 19  1  0  0  0  0
 21 22  1  6  0  0  0
 23 20  1  1  0  0  0
 23 24  1  0  0  0  0
 23 28  1  0  0  0  0
 24 25  1  6  0  0  0
 24 26  1  0  0  0  0
 26 27  1  0  0  0  0
 26 32  1  1  0  0  0
 27 28  1  0  0  0  0
 27 29  1  1  0  0  0
 29 30  1  0  0  0  0
 31 32  1  1  0  0  0
 31 40  1  0  0  0  0
 33 31  1  0  0  0  0
 33 42  1  6  0  0  0
 35 33  1  0  0  0  0
 35 36  1  6  0  0  0
 37 35  1  0  0  0  0
 37 38  1  1  0  0  0
 37 39  1  0  0  0  0
 39 40  1  0  0  0  0
 39 41  1  6  0  0  0
 41 34  1  0  0  0  0
M  END
>  <CHROM.1>
176.19409695,62.39370854,-169.77320837,-174.69709079,-174.14498122,80.57864634
-64.99941118,-118.23508650,165.54112358,14.12235448,8.07460058,7.23538961
-1.24803861,1.21601279,-1.18376284

>  <Name>
2et4_lig

>  <RI>
1.79929e+07

>  <Rbt.Current_Directory>
/home/itssahil/PROJECTS/Mol_Feturizer/New_Systems/rnas/2et4

>  <Rbt.Executable>
rbdock ($Id: //depot/dev/client3/rdock/2013.1/src/exe/rbdock.cxx#4 $)

>  <Rbt.Library>
libRbt.so (2013.1, Build901 2013/11/27)

>  <Rbt.Parameter_File>
/export/apps/rDock/src/rDock_2013.1_src/data/scripts/dock_solv.prm

>  <Rbt.Receptor>
prm/pocket_docking_7.prm

>  <SCORE>
-14.8215

>  <SCORE.INTER>
-9.45768

>  <SCORE.INTER.CONST>
1

>  <SCORE.INTER.POLAR>
-0.0932096

>  <SCORE.INTER.ROT>
9

>  <SCORE.INTER.SOLV>
25.7459

>  <SCORE.INTER.VDW>
-24.1764

>  <SCORE.INTER.norm>
-0.225183

>  <SCORE.INTRA>
-5.36386

>  <SCORE.INTRA.DIHEDRAL>
-10.7734

>  <SCORE.INTRA.DIHEDRAL.0>
21.6909

>  <SCORE.INTRA.POLAR>
0

>  <SCORE.INTRA.POLAR.0>
0

>  <SCORE.INTRA.REPUL>
0

>  <SCORE.INTRA.REPUL.0>
0

>  <SCORE.INTRA.SOLV>
-3.7087

>  <SCORE.INTRA.SOLV.lig_0>
-116.606

>  <SCORE.INTRA.VDW>
1.87716

>  <SCORE.INTRA.VDW.0>
-6.01229

>  <SCORE.INTRA.norm>
-0.127711

>  <SCORE.RESTR>
0

>  <SCORE.RESTR.CAVITY>
0

>  <SCORE.RESTR.norm>
0

>  <SCORE.SYSTEM>
0

>  <SCORE.SYSTEM.CONST>
0

>  <SCORE.SYSTEM.DIHEDRAL>
0

>  <SCORE.SYSTEM.SOLV>
0

>  <SCORE.SYSTEM.norm>
0

>  <SCORE.heavy>
42

>  <SCORE.norm>
-0.352894

>  <RMSD>
8.916

$$$$
2et4_lig
 OpenBabel11021811423D
libRbt.so/2013.1/901 2013/11/27
 42 45  0  0  0  0  0  0  0  0999 V2000
    6.8135    4.6202   11.0464 C   0  0  2  0  0  0  0  0  0  0  0  0
    8.0512    5.2184   11.4365 O   0  0  0  0  0  0  0  0  0  0  0  0
    6.9723    3.0879   11.2181 C   0  0  2  0  0  0  0  0  0  0  0  0
    7.3297    2.7452   12.5711 N   0  0  0  0  0  0  0  0  0  0  0  0
    8.0354    2.5657   10.2090 C   0  0  1  0  0  0  0  0  0  0  0  0
    8.1644    1.1859   10.3544 O   0  0  0  0  0  0  0  0  0  0  0  0
    7.5814    2.9705    8.7668 C   0  0  2  0  0  0  0  0  0  0  0  0
    8.5239    2.5214    7.8163 O   0  0  0  0  0  0  0  0  0  0  0  0
    7.4257    4.5169    8.6473 C   0  0  2  0  0  0  0  0  0  0  0  0
    6.4831    4.9525    9.6315 O   0  0  0  0  0  0  0  0  0  0  0  0
    6.9325    4.9553    7.2296 C   0  0  0  0  0  0  0  0  0  0  0  0
    7.8277    4.5520    6.2015 N   0  0  0  0  0  0  0  0  0  0  0  0
    7.2657    9.4381   10.9550 C   0  0  2  0  0  0  0  0  0  0  0  0
    7.4432   10.8938   11.0257 N   0  0  0  0  0  0  0  0  0  0  0  0
    7.2506    8.8200   12.4550 C   0  0  0  0  0  0  0  0  0  0  0  0
    7.0734    7.2487   12.3720 C   0  0  2  0  0  0  0  0  0  0  0  0
    7.0799    6.6410   13.7146 N   0  0  0  0  0  0  0  0  0  0  0  0
    8.2338    6.6388   11.5152 C   0  0  2  0  0  0  0  0  0  0  0  0
    8.2545    7.2646   10.0815 C   0  0  2  0  0  0  0  0  0  0  0  0
    9.3636    6.6496    9.3809 O   0  0  0  0  0  0  0  0  0  0  0  0
    8.4376    8.8132   10.1805 C   0  0  1  0  0  0  0  0  0  0  0  0
    8.4382    9.3413    8.8972 O   0  0  0  0  0  0  0  0  0  0  0  0
   10.6727    6.9438    9.5705 C   0  0  1  0  0  0  0  0  0  0  0  0
   11.5836    5.8743    8.9132 C   0  0  2  0  0  0  0  0  0  0  0  0
   11.7937    4.7569    9.7271 O   0  0  0  0  0  0  0  0  0  0  0  0
   12.7705    6.7485    8.5532 C   0  0  1  0  0  0  0  0  0  0  0  0
   12.2032    8.1066    8.1167 C   0  0  2  0  0  0  0  0  0  0  0  0
   11.0988    8.2170    9.0145 O   0  0  0  0  0  0  0  0  0  0  0  0
   11.7493    8.1993    6.6201 C   0  0  0  0  0  0  0  0  0  0  0  0
   10.6037    7.3215    6.4582 O   0  0  0  0  0  0  0  0  0  0  0  0
   14.3697    5.7514   10.1563 C   0  0  2  0  0  0  0  0  0  0  0  0
   13.6206    6.8698    9.7663 O   0  0  0  0  0  0  0  0  0  0  0  0
   15.1331    6.0151   11.5265 C   0  0  1  0  0  0  0  0  0  0  0  0
   18.1701    5.0340    7.8172 N   0  0  0  0  0  0  0  0  0  0  0  0
   15.9759    4.6766   11.8652 C   0  0  1  0  0  0  0  0  0  0  0  0
   15.0030    3.5180   11.9575 O   0  0  0  0  0  0  0  0  0  0  0  0
   17.0684    4.4029   10.6999 C   0  0  2  0  0  0  0  0  0  0  0  0
   17.9904    5.5174   10.6379 O   0  0  0  0  0  0  0  0  0  0  0  0
   16.2515    4.1750    9.3068 C   0  0  1  0  0  0  0  0  0  0  0  0
   15.3822    5.3721    9.0360 O   0  0  0  0  0  0  0  0  0  0  0  0
   17.2077    3.9225    8.0890 C   0  0  0  0  0  0  0  0  0  0  0  0
   15.9931    7.2388   11.4084 N   0  0  0  0  0  0  0  0  0  0  0  0
  1  2  1  6  0  0  0
  1  3  1  0  0  0  0
  1 10  1  0  0  0  0
  3  4  1  1  0  0  0
  3  5  1  0  0  0  0
  5  6  1  6  0  0  0
  5  7  1  0  0  0  0
  7  8  1  6  0  0  0
  7  9  1  0  0  0  0
  9 10  1  0  0  0  0
  9 11  1  6  0  0  0
 11 12  1  0  0  0  0
 13 14  1  1  0  0  0
 13 15  1  0  0  0  0
 13 21  1  0  0  0  0
 16 15  1  0  0  0  0
 16 17  1  1  0  0  0
 18  2  1  6  0  0  0
 18 16  1  0  0  0  0
 19 18  1  0  0  0  0
 19 20  1  6  0  0  0
 21 19  1  0  0  0  0
 21 22  1  6  0  0  0
 23 20  1  6  0  0  0
 23 24  1  0  0  0  0
 23 28  1  0  0  0  0
 24 25  1  1  0  0  0
 24 26  1  0  0  0  0
 26 27  1  0  0  0  0
 26 32  1  1  0  0  0
 27 28  1  0  0  0  0
 27 29  1  6  0  0  0
 29 30  1  0  0  0  0
 31 32  1  6  0  0  0
 31 40  1  0  0  0  0
 33 31  1  0  0  0  0
 33 42  1  6  0  0  0
 35 33  1  0  0  0  0
 35 36  1  6  0  0  0
 37 35  1  0  0  0  0
 37 38  1  6  0  0  0
 37 39  1  0  0  0  0
 39 40  1  0  0  0  0
 39 41  1  6  0  0  0
 41 34  1  0  0  0  0
M  END
>  <CHROM.1>
-174.54824778,-59.72447809,50.88724981,-75.70764454,166.42629804,72.86334969
66.70926096,-175.72908893,-59.41836262,10.81941447,5.80392744,9.85511431
3.07188068,0.06103139,0.00562105

>  <Name>
2et4_lig

>  <RI>
0

>  <Rbt.Current_Directory>
/home/itssahil/PROJECTS/Mol_Feturizer/New_Systems/rnas/2et4

>  <Rbt.Executable>
rbdock ($Id: //depot/dev/client3/rdock/2013.1/src/exe/rbdock.cxx#4 $)

>  <Rbt.Library>
libRbt.so (2013.1, Build901 2013/11/27)

>  <Rbt.Parameter_File>
/export/apps/rDock/src/rDock_2013.1_src/data/scripts/dock_solv.prm

>  <Rbt.Receptor>
prm/pocket_docking_6.prm

>  <SCORE>
-9.92884

>  <SCORE.INTER>
-2.48845

>  <SCORE.INTER.CONST>
1

>  <SCORE.INTER.POLAR>
-0.514133

>  <SCORE.INTER.ROT>
9

>  <SCORE.INTER.SOLV>
17.7116

>  <SCORE.INTER.VDW>
-15.4491

>  <SCORE.INTER.norm>
-0.0592489

>  <SCORE.INTRA>
-7.44039

>  <SCORE.INTRA.DIHEDRAL>
-17.9339

>  <SCORE.INTRA.DIHEDRAL.0>
21.6909

>  <SCORE.INTRA.POLAR>
0

>  <SCORE.INTRA.POLAR.0>
0

>  <SCORE.INTRA.REPUL>
0

>  <SCORE.INTRA.REPUL.0>
0

>  <SCORE.INTRA.SOLV>
0.212558

>  <SCORE.INTRA.SOLV.lig_0>
-116.606

>  <SCORE.INTRA.VDW>
1.42029

>  <SCORE.INTRA.VDW.0>
-6.01229

>  <SCORE.INTRA.norm>
-0.177152

>  <SCORE.RESTR>
0

>  <SCORE.RESTR.CAVITY>
0

>  <SCORE.RESTR.norm>
0

>  <SCORE.SYSTEM>
0

>  <SCORE.SYSTEM.CONST>
0

>  <SCORE.SYSTEM.DIHEDRAL>
0

>  <SCORE.SYSTEM.SOLV>
0

>  <SCORE.SYSTEM.norm>
0

>  <SCORE.heavy>
42

>  <SCORE.norm>
-0.236401

>  <RMSD>
8.918

$$$$
2et4_lig
 OpenBabel11021811423D
libRbt.so/2013.1/901 2013/11/27
 42 45  0  0  0  0  0  0  0  0999 V2000
    8.7974    5.2347   13.2415 C   0  0  2  0  0  0  0  0  0  0  0  0
    9.4162    5.1248   11.9580 O   0  0  0  0  0  0  0  0  0  0  0  0
    7.2741    5.0382   13.0327 C   0  0  2  0  0  0  0  0  0  0  0  0
    6.9887    3.7722   12.4071 N   0  0  0  0  0  0  0  0  0  0  0  0
    6.7154    6.2189   12.1871 C   0  0  1  0  0  0  0  0  0  0  0  0
    5.3432    6.0483   12.0147 O   0  0  0  0  0  0  0  0  0  0  0  0
    7.0589    7.5554   12.9259 C   0  0  2  0  0  0  0  0  0  0  0  0
    6.5751    8.6574   12.1876 O   0  0  0  0  0  0  0  0  0  0  0  0
    8.5984    7.7019   13.1214 C   0  0  2  0  0  0  0  0  0  0  0  0
    9.0701    6.5664   13.8528 O   0  0  0  0  0  0  0  0  0  0  0  0
    8.9764    9.0079   13.8941 C   0  0  0  0  0  0  0  0  0  0  0  0
    8.6766    8.9167   15.2808 N   0  0  0  0  0  0  0  0  0  0  0  0
   13.6014    5.6425   12.8912 C   0  0  2  0  0  0  0  0  0  0  0  0
   15.0567    5.7255   12.7152 N   0  0  0  0  0  0  0  0  0  0  0  0
   13.0868    4.1646   12.4632 C   0  0  0  0  0  0  0  0  0  0  0  0
   11.5154    4.0855   12.6413 C   0  0  2  0  0  0  0  0  0  0  0  0
   11.0001    2.7649   12.2386 N   0  0  0  0  0  0  0  0  0  0  0  0
   10.8367    5.1993   11.7745 C   0  0  2  0  0  0  0  0  0  0  0  0
   11.3636    6.6162   12.1779 C   0  0  2  0  0  0  0  0  0  0  0  0
   10.6910    7.5656   11.3147 O   0  0  0  0  0  0  0  0  0  0  0  0
   12.9133    6.6801   11.9892 C   0  0  1  0  0  0  0  0  0  0  0  0
   13.3531    7.9408   12.3672 O   0  0  0  0  0  0  0  0  0  0  0  0
   10.8924    7.6942    9.9808 C   0  0  1  0  0  0  0  0  0  0  0  0
    9.8485    8.6530    9.3510 C   0  0  2  0  0  0  0  0  0  0  0  0
    8.6434    8.0196    9.0325 O   0  0  0  0  0  0  0  0  0  0  0  0
   10.6894    9.2293    8.2269 C   0  0  1  0  0  0  0  0  0  0  0  0
   12.1142    9.3869    8.7766 C   0  0  2  0  0  0  0  0  0  0  0  0
   12.1911    8.2294    9.6085 O   0  0  0  0  0  0  0  0  0  0  0  0
   12.3854   10.7030    9.5822 C   0  0  0  0  0  0  0  0  0  0  0  0
   11.5590   10.6601   10.7756 O   0  0  0  0  0  0  0  0  0  0  0  0
   11.2986    8.6198    5.9076 C   0  0  2  0  0  0  0  0  0  0  0  0
   10.6384    8.2697    7.0932 O   0  0  0  0  0  0  0  0  0  0  0  0
   10.9267    7.6262    4.7227 C   0  0  1  0  0  0  0  0  0  0  0  0
   15.7033    7.6409    5.7822 N   0  0  0  0  0  0  0  0  0  0  0  0
   11.7564    8.1089    3.4207 C   0  0  1  0  0  0  0  0  0  0  0  0
   11.3671    9.5423    3.1187 O   0  0  0  0  0  0  0  0  0  0  0  0
   13.3474    8.0070    3.7115 C   0  0  2  0  0  0  0  0  0  0  0  0
   13.6955    6.6290    3.9874 O   0  0  0  0  0  0  0  0  0  0  0  0
   13.6832    9.0088    4.9538 C   0  0  1  0  0  0  0  0  0  0  0  0
   12.8379    8.6342    6.1401 O   0  0  0  0  0  0  0  0  0  0  0  0
   15.2012    8.9810    5.3492 C   0  0  0  0  0  0  0  0  0  0  0  0
   11.2294    6.2125    5.1235 N   0  0  0  0  0  0  0  0  0  0  0  0
  1  2  1  6  0  0  0
  1  3  1  0  0  0  0
  1 10  1  0  0  0  0
  3  4  1  6  0  0  0
  3  5  1  0  0  0  0
  5  6  1  1  0  0  0
  5  7  1  0  0  0  0
  7  8  1  6  0  0  0
  7  9  1  0  0  0  0
  9 10  1  0  0  0  0
  9 11  1  1  0  0  0
 11 12  1  0  0  0  0
 13 14  1  6  0  0  0
 13 15  1  0  0  0  0
 13 21  1  0  0  0  0
 16 15  1  0  0  0  0
 16 17  1  6  0  0  0
 18  2  1  1  0  0  0
 18 16  1  0  0  0  0
 19 18  1  0  0  0  0
 19 20  1  6  0  0  0
 21 19  1  0  0  0  0
 21 22  1  1  0  0  0
 23 20  1  1  0  0  0
 23 24  1  0  0  0  0
 23 28  1  0  0  0  0
 24 25  1  6  0  0  0
 24 26  1  0  0  0  0
 26 27  1  0  0  0  0
 26 32  1  6  0  0  0
 27 28  1  0  0  0  0
 27 29  1  1  0  0  0
 29 30  1  0  0  0  0
 31 32  1  1  0  0  0
 31 40  1  0  0  0  0
 33 31  1  0  0  0  0
 33 42  1  1  0  0  0
 35 33  1  0  0  0  0
 35 36  1  1  0  0  0
 37 35  1  0  0  0  0
 37 38  1  1  0  0  0
 37 39  1  0  0  0  0
 39 40  1  0  0  0  0
 39 41  1  1  0  0  0
 41 34  1  0  0  0  0
M  END
>  <CHROM.1>
-177.36795478,74.07697080,57.49899388,-68.83236302,171.20371180,177.15429040
64.85288692,-169.51382600,-60.22439902,10.86471013,7.31532793,9.82927104
-2.03548526,0.18740393,-1.22293227

>  <Name>
2et4_lig

>  <RI>
0

>  <Rbt.Current_Directory>
/home/itssahil/PROJECTS/Mol_Feturizer/New_Systems/rnas/2et4

>  <Rbt.Executable>
rbdock ($Id: //depot/dev/client3/rdock/2013.1/src/exe/rbdock.cxx#4 $)

>  <Rbt.Library>
libRbt.so (2013.1, Build901 2013/11/27)

>  <Rbt.Parameter_File>
/export/apps/rDock/src/rDock_2013.1_src/data/scripts/dock_solv.prm

>  <Rbt.Receptor>
prm/pocket_docking_5.prm

>  <SCORE>
-14.6952

>  <SCORE.INTER>
-5.90757

>  <SCORE.INTER.CONST>
1

>  <SCORE.INTER.POLAR>
0

>  <SCORE.INTER.ROT>
9

>  <SCORE.INTER.SOLV>
13.2111

>  <SCORE.INTER.VDW>
-17.9421

>  <SCORE.INTER.norm>
-0.140657

>  <SCORE.INTRA>
-8.78762

>  <SCORE.INTRA.DIHEDRAL>
-19.3715

>  <SCORE.INTRA.DIHEDRAL.0>
21.6909

>  <SCORE.INTRA.POLAR>
0

>  <SCORE.INTRA.POLAR.0>
0

>  <SCORE.INTRA.REPUL>
0

>  <SCORE.INTRA.REPUL.0>
0

>  <SCORE.INTRA.SOLV>
-0.249032

>  <SCORE.INTRA.SOLV.lig_0>
-116.606

>  <SCORE.INTRA.VDW>
1.02264

>  <SCORE.INTRA.VDW.0>
-6.01229

>  <SCORE.INTRA.norm>
-0.209229

>  <SCORE.RESTR>
0

>  <SCORE.RESTR.CAVITY>
0

>  <SCORE.RESTR.norm>
0

>  <SCORE.SYSTEM>
0

>  <SCORE.SYSTEM.CONST>
0

>  <SCORE.SYSTEM.DIHEDRAL>
0

>  <SCORE.SYSTEM.SOLV>
0

>  <SCORE.SYSTEM.norm>
0

>  <SCORE.heavy>
42

>  <SCORE.norm>
-0.349885

>  <RMSD>
8.919

$$$$
2et4_lig
 OpenBabel11021811423D
libRbt.so/2013.1/901 2013/11/27
 42 45  0  0  0  0  0  0  0  0999 V2000
   12.2597    4.1875   11.0150 C   0  0  2  0  0  0  0  0  0  0  0  0
   11.2710    5.1901   11.2586 O   0  0  0  0  0  0  0  0  0  0  0  0
   13.4124    4.4280   12.0230 C   0  0  2  0  0  0  0  0  0  0  0  0
   12.9372    4.3923   13.3826 N   0  0  0  0  0  0  0  0  0  0  0  0
   14.0970    5.7886   11.7048 C   0  0  1  0  0  0  0  0  0  0  0  0
   15.1430    5.9947   12.6022 O   0  0  0  0  0  0  0  0  0  0  0  0
   14.5881    5.7536   10.2191 C   0  0  2  0  0  0  0  0  0  0  0  0
   15.2114    6.9755    9.8840 O   0  0  0  0  0  0  0  0  0  0  0  0
   13.3968    5.4991    9.2464 C   0  0  2  0  0  0  0  0  0  0  0  0
   12.7680    4.2684    9.6162 O   0  0  0  0  0  0  0  0  0  0  0  0
   13.8570    5.4165    7.7542 C   0  0  0  0  0  0  0  0  0  0  0  0
   14.7675    4.3475    7.5318 N   0  0  0  0  0  0  0  0  0  0  0  0
    8.1229    4.2234    8.4640 C   0  0  2  0  0  0  0  0  0  0  0  0
    6.7968    4.1855    7.8350 N   0  0  0  0  0  0  0  0  0  0  0  0
    8.0274    3.6209    9.9674 C   0  0  0  0  0  0  0  0  0  0  0  0
    9.4570    3.6776   10.6459 C   0  0  2  0  0  0  0  0  0  0  0  0
    9.4118    3.1625   12.0258 N   0  0  0  0  0  0  0  0  0  0  0  0
    9.9701    5.1572   10.6556 C   0  0  2  0  0  0  0  0  0  0  0  0
   10.0295    5.7347    9.2027 C   0  0  2  0  0  0  0  0  0  0  0  0
   10.4978    7.1005    9.3224 O   0  0  0  0  0  0  0  0  0  0  0  0
    8.6107    5.6788    8.5506 C   0  0  1  0  0  0  0  0  0  0  0  0
    8.6968    6.1833    7.2607 O   0  0  0  0  0  0  0  0  0  0  0  0
   11.5448    7.6340    8.6476 C   0  0  1  0  0  0  0  0  0  0  0  0
   11.0937    8.8430    7.7872 C   0  0  2  0  0  0  0  0  0  0  0  0
   10.5781    8.4690    6.5425 O   0  0  0  0  0  0  0  0  0  0  0  0
   12.3674    9.6667    7.8320 C   0  0  1  0  0  0  0  0  0  0  0  0
   12.9548    9.4965    9.2401 C   0  0  2  0  0  0  0  0  0  0  0  0
   12.6226    8.1302    9.4866 O   0  0  0  0  0  0  0  0  0  0  0  0
   12.3652   10.4469   10.3372 C   0  0  0  0  0  0  0  0  0  0  0  0
   10.9371   10.1935   10.4098 O   0  0  0  0  0  0  0  0  0  0  0  0
   13.1319    9.6218    5.4793 C   0  0  2  0  0  0  0  0  0  0  0  0
   13.2798    9.1362    6.7856 O   0  0  0  0  0  0  0  0  0  0  0  0
   13.3995    8.4810    4.4038 C   0  0  1  0  0  0  0  0  0  0  0  0
   15.0961   13.3527    2.4913 N   0  0  0  0  0  0  0  0  0  0  0  0
   13.2242    9.1549    2.9437 C   0  0  1  0  0  0  0  0  0  0  0  0
   11.8211    9.7208    2.8514 O   0  0  0  0  0  0  0  0  0  0  0  0
   14.3201   10.3319    2.7443 C   0  0  2  0  0  0  0  0  0  0  0  0
   15.6500    9.7656    2.8271 O   0  0  0  0  0  0  0  0  0  0  0  0
   14.0380   11.4621    3.8857 C   0  0  1  0  0  0  0  0  0  0  0  0
   14.0943   10.8232    5.2460 O   0  0  0  0  0  0  0  0  0  0  0  0
   15.0575   12.6523    3.8117 C   0  0  0  0  0  0  0  0  0  0  0  0
   14.7585    7.8822    4.6171 N   0  0  0  0  0  0  0  0  0  0  0  0
  1  2  1  6  0  0  0
  1  3  1  0  0  0  0
  1 10  1  0  0  0  0
  3  4  1  1  0  0  0
  3  5  1  0  0  0  0
  5  6  1  1  0  0  0
  5  7  1  0  0  0  0
  7  8  1  6  0  0  0
  7  9  1  0  0  0  0
  9 10  1  0  0  0  0
  9 11  1  6  0  0  0
 11 12  1  0  0  0  0
 13 14  1  1  0  0  0
 13 15  1  0  0  0  0
 13 21  1  0  0  0  0
 16 15  1  0  0  0  0
 16 17  1  1  0  0  0
 18  2  1  6  0  0  0
 18 16  1  0  0  0  0
 19 18  1  0  0  0  0
 19 20  1  1  0  0  0
 21 19  1  0  0  0  0
 21 22  1  6  0  0  0
 23 20  1  1  0  0  0
 23 24  1  0  0  0  0
 23 28  1  0  0  0  0
 24 25  1  6  0  0  0
 24 26  1  0  0  0  0
 26 27  1  0  0  0  0
 26 32  1  6  0  0  0
 27 28  1  0  0  0  0
 27 29  1  1  0  0  0
 29 30  1  0  0  0  0
 31 32  1  1  0  0  0
 31 40  1  0  0  0  0
 33 31  1  0  0  0  0
 33 42  1  6  0  0  0
 35 33  1  0  0  0  0
 35 36  1  1  0  0  0
 37 35  1  0  0  0  0
 37 38  1  1  0  0  0
 37 39  1  0  0  0  0
 39 40  1  0  0  0  0
 39 41  1  1  0  0  0
 41 34  1  0  0  0  0
M  END
>  <CHROM.1>
-170.07993511,61.24898185,39.98717948,127.22783740,120.60169614,85.32373219
59.26613537,-143.89579170,57.26907140,12.29304999,7.32144546,8.05553876,-1.92858045
-0.37205389,-0.98648258

>  <Name>
2et4_lig

>  <RI>
0

>  <Rbt.Current_Directory>
/home/itssahil/PROJECTS/Mol_Feturizer/New_Systems/rnas/2et4

>  <Rbt.Executable>
rbdock ($Id: //depot/dev/client3/rdock/2013.1/src/exe/rbdock.cxx#4 $)

>  <Rbt.Library>
libRbt.so (2013.1, Build901 2013/11/27)

>  <Rbt.Parameter_File>
/export/apps/rDock/src/rDock_2013.1_src/data/scripts/dock_solv.prm

>  <Rbt.Receptor>
prm/pocket_docking_3.prm

>  <SCORE>
-11.6685

>  <SCORE.INTER>
-13.2465

>  <SCORE.INTER.CONST>
1

>  <SCORE.INTER.POLAR>
-1.65562

>  <SCORE.INTER.ROT>
9

>  <SCORE.INTER.SOLV>
15.5721

>  <SCORE.INTER.VDW>
-18.103

>  <SCORE.INTER.norm>
-0.315394

>  <SCORE.INTRA>
1.57114

>  <SCORE.INTRA.DIHEDRAL>
2.34129

>  <SCORE.INTRA.DIHEDRAL.0>
21.6909

>  <SCORE.INTRA.POLAR>
0

>  <SCORE.INTRA.POLAR.0>
0

>  <SCORE.INTRA.REPUL>
0

>  <SCORE.INTRA.REPUL.0>
0

>  <SCORE.INTRA.SOLV>
0.0739473

>  <SCORE.INTRA.SOLV.lig_0>
-116.606

>  <SCORE.INTRA.VDW>
0.363525

>  <SCORE.INTRA.VDW.0>
-6.01229

>  <SCORE.INTRA.norm>
0.0374082

>  <SCORE.RESTR>
0.0068693

>  <SCORE.RESTR.CAVITY>
0.0068693

>  <SCORE.RESTR.norm>
0.000163555

>  <SCORE.SYSTEM>
0

>  <SCORE.SYSTEM.CONST>
0

>  <SCORE.SYSTEM.DIHEDRAL>
0

>  <SCORE.SYSTEM.SOLV>
0

>  <SCORE.SYSTEM.norm>
0

>  <SCORE.heavy>
42

>  <SCORE.norm>
-0.277822

>  <RMSD>
8.932

$$$$
2et4_lig
 OpenBabel11021811423D
libRbt.so/2013.1/901 2013/11/27
 42 45  0  0  0  0  0  0  0  0999 V2000
   14.0725    8.0273   13.0156 C   0  0  2  0  0  0  0  0  0  0  0  0
   13.1766    7.9297   14.1247 O   0  0  0  0  0  0  0  0  0  0  0  0
   15.1668    9.0551   13.4012 C   0  0  2  0  0  0  0  0  0  0  0  0
   15.8499    8.6669   14.6089 N   0  0  0  0  0  0  0  0  0  0  0  0
   14.5194   10.4620   13.5519 C   0  0  1  0  0  0  0  0  0  0  0  0
   15.5079   11.3868   13.8826 O   0  0  0  0  0  0  0  0  0  0  0  0
   13.8012   10.8166   12.2072 C   0  0  2  0  0  0  0  0  0  0  0  0
   13.1915   12.0866   12.3017 O   0  0  0  0  0  0  0  0  0  0  0  0
   12.7192    9.7503   11.8576 C   0  0  2  0  0  0  0  0  0  0  0  0
   13.3541    8.4702   11.7871 O   0  0  0  0  0  0  0  0  0  0  0  0
   12.0086   10.0505   10.4973 C   0  0  0  0  0  0  0  0  0  0  0  0
   12.8897   10.6404    9.5503 N   0  0  0  0  0  0  0  0  0  0  0  0
    8.9868    7.7444   15.1573 C   0  0  2  0  0  0  0  0  0  0  0  0
    7.5258    7.7668   15.0140 N   0  0  0  0  0  0  0  0  0  0  0  0
    9.5999    9.1710   14.6871 C   0  0  0  0  0  0  0  0  0  0  0  0
   11.1765    9.1361   14.8300 C   0  0  2  0  0  0  0  0  0  0  0  0
   11.7790   10.4064   14.3883 N   0  0  0  0  0  0  0  0  0  0  0  0
   11.7507    7.9579   13.9729 C   0  0  2  0  0  0  0  0  0  0  0  0
   11.1295    6.5925   14.4177 C   0  0  2  0  0  0  0  0  0  0  0  0
   11.7100    5.5787   13.5608 O   0  0  0  0  0  0  0  0  0  0  0  0
    9.5754    6.6407   14.2633 C   0  0  1  0  0  0  0  0  0  0  0  0
    9.0520    5.4241   14.6774 O   0  0  0  0  0  0  0  0  0  0  0  0
   12.9419    5.6360   12.9993 C   0  0  1  0  0  0  0  0  0  0  0  0
   13.6677    4.2699   13.1108 C   0  0  2  0  0  0  0  0  0  0  0  0
   14.3163    4.0912   14.3365 O   0  0  0  0  0  0  0  0  0  0  0  0
   14.5027    4.3301   11.8451 C   0  0  1  0  0  0  0  0  0  0  0  0
   13.6385    5.0153   10.7773 C   0  0  2  0  0  0  0  0  0  0  0  0
   12.9533    5.9718   11.5855 O   0  0  0  0  0  0  0  0  0  0  0  0
   12.6426    4.0789   10.0116 C   0  0  0  0  0  0  0  0  0  0  0  0
   12.1088    3.1321   10.9747 O   0  0  0  0  0  0  0  0  0  0  0  0
   16.8237    4.9854   11.2926 C   0  0  2  0  0  0  0  0  0  0  0  0
   15.7255    5.1166   12.1533 O   0  0  0  0  0  0  0  0  0  0  0  0
   16.9259    6.2179   10.2925 C   0  0  1  0  0  0  0  0  0  0  0  0
   16.4588    1.1945    9.3856 N   0  0  0  0  0  0  0  0  0  0  0  0
   18.2056    5.9509    9.3397 C   0  0  1  0  0  0  0  0  0  0  0  0
   19.4306    5.8177   10.2224 O   0  0  0  0  0  0  0  0  0  0  0  0
   17.9805    4.5951    8.4808 C   0  0  2  0  0  0  0  0  0  0  0  0
   16.8121    4.7505    7.6401 O   0  0  0  0  0  0  0  0  0  0  0  0
   17.8430    3.3621    9.5394 C   0  0  1  0  0  0  0  0  0  0  0  0
   16.7209    3.6501   10.4986 O   0  0  0  0  0  0  0  0  0  0  0  0
   17.5958    1.9874    8.8251 C   0  0  0  0  0  0  0  0  0  0  0  0
   15.6434    6.3674    9.5285 N   0  0  0  0  0  0  0  0  0  0  0  0
  1  2  1  1  0  0  0
  1  3  1  0  0  0  0
  1 10  1  0  0  0  0
  3  4  1  1  0  0  0
  3  5  1  0  0  0  0
  5  6  1  6  0  0  0
  5  7  1  0  0  0  0
  7  8  1  1  0  0  0
  7  9  1  0  0  0  0
  9 10  1  0  0  0  0
  9 11  1  6  0  0  0
 11 12  1  0  0  0  0
 13 14  1  6  0  0  0
 13 15  1  0  0  0  0
 13 21  1  0  0  0  0
 16 15  1  0  0  0  0
 16 17  1  6  0  0  0
 18  2  1  1  0  0  0
 18 16  1  0  0  0  0
 19 18  1  0  0  0  0
 19 20  1  6  0  0  0
 21 19  1  0  0  0  0
 21 22  1  1  0  0  0
 23 20  1  6  0  0  0
 23 24  1  0  0  0  0
 23 28  1  0  0  0  0
 24 25  1  1  0  0  0
 24 26  1  0  0  0  0
 26 27  1  0  0  0  0
 26 32  1  1  0  0  0
 27 28  1  0  0  0  0
 27 29  1  1  0  0  0
 29 30  1  0  0  0  0
 31 32  1  6  0  0  0
 31 40  1  0  0  0  0
 33 31  1  0  0  0  0
 33 42  1  6  0  0  0
 35 33  1  0  0  0  0
 35 36  1  1  0  0  0
 37 35  1  0  0  0  0
 37 38  1  1  0  0  0
 37 39  1  0  0  0  0
 39 40  1  0  0  0  0
 39 41  1  6  0  0  0
 41 34  1  0  0  0  0
M  END
>  <CHROM.1>
133.73268381,34.30807509,-122.62281800,29.51370526,136.70025082,161.42976814
38.44875125,101.36756644,-130.87500388,13.85436338,6.74998864,12.10324185
-2.46411195,-0.52153866,-2.96133418

>  <Name>
2et4_lig

>  <RI>
0

>  <Rbt.Current_Directory>
/home/itssahil/PROJECTS/Mol_Feturizer/New_Systems/rnas/2et4

>  <Rbt.Executable>
rbdock ($Id: //depot/dev/client3/rdock/2013.1/src/exe/rbdock.cxx#4 $)

>  <Rbt.Library>
libRbt.so (2013.1, Build901 2013/11/27)

>  <Rbt.Parameter_File>
/export/apps/rDock/src/rDock_2013.1_src/data/scripts/dock_solv.prm

>  <Rbt.Receptor>
prm/blind_docking_100.prm

>  <SCORE>
49.5394

>  <SCORE.INTER>
14.0621

>  <SCORE.INTER.CONST>
1

>  <SCORE.INTER.POLAR>
-0.726304

>  <SCORE.INTER.ROT>
9

>  <SCORE.INTER.SOLV>
31.229

>  <SCORE.INTER.VDW>
-8.21389

>  <SCORE.INTER.norm>
0.334813

>  <SCORE.INTRA>
19.8667

>  <SCORE.INTRA.DIHEDRAL>
17.0527

>  <SCORE.INTRA.DIHEDRAL.0>
21.6909

>  <SCORE.INTRA.POLAR>
0

>  <SCORE.INTRA.POLAR.0>
0

>  <SCORE.INTRA.REPUL>
0.124203

>  <SCORE.INTRA.REPUL.0>
0

>  <SCORE.INTRA.SOLV>
6.86459

>  <SCORE.INTRA.SOLV.lig_0>
-116.606

>  <SCORE.INTRA.VDW>
7.28702

>  <SCORE.INTRA.VDW.0>
-6.01229

>  <SCORE.INTRA.norm>
0.473017

>  <SCORE.RESTR>
15.6106

>  <SCORE.RESTR.CAVITY>
15.6106

>  <SCORE.RESTR.norm>
0.371681

>  <SCORE.SYSTEM>
0

>  <SCORE.SYSTEM.CONST>
0

>  <SCORE.SYSTEM.DIHEDRAL>
0

>  <SCORE.SYSTEM.SOLV>
0

>  <SCORE.SYSTEM.norm>
0

>  <SCORE.heavy>
42

>  <SCORE.norm>
1.17951

>  <RMSD>
8.966

$$$$
2et4_lig
 OpenBabel11021811423D
libRbt.so/2013.1/901 2013/11/27
 42 45  0  0  0  0  0  0  0  0999 V2000
   14.8319    8.4000    4.8436 C   0  0  2  0  0  0  0  0  0  0  0  0
   14.1854    8.5087    6.1134 O   0  0  0  0  0  0  0  0  0  0  0  0
   14.6245    9.7487    4.1083 C   0  0  2  0  0  0  0  0  0  0  0  0
   15.1396   10.8517    4.8788 N   0  0  0  0  0  0  0  0  0  0  0  0
   13.1109    9.9387    3.8016 C   0  0  1  0  0  0  0  0  0  0  0  0
   12.9292   11.1440    3.1264 O   0  0  0  0  0  0  0  0  0  0  0  0
   12.6234    8.7098    2.9636 C   0  0  2  0  0  0  0  0  0  0  0  0
   11.2487    8.8374    2.6680 O   0  0  0  0  0  0  0  0  0  0  0  0
   12.8624    7.3790    3.7392 C   0  0  2  0  0  0  0  0  0  0  0  0
   14.2562    7.2801    4.0462 O   0  0  0  0  0  0  0  0  0  0  0  0
   12.4246    6.1249    2.9139 C   0  0  0  0  0  0  0  0  0  0  0  0
   12.6321    4.9133    3.6281 N   0  0  0  0  0  0  0  0  0  0  0  0
   15.0559    6.2903    9.7156 C   0  0  2  0  0  0  0  0  0  0  0  0
   15.0587    5.2034   10.7027 N   0  0  0  0  0  0  0  0  0  0  0  0
   13.5351    6.8029    9.4776 C   0  0  0  0  0  0  0  0  0  0  0  0
   13.5366    7.9648    8.4018 C   0  0  2  0  0  0  0  0  0  0  0  0
   12.1689    8.4444    8.1349 N   0  0  0  0  0  0  0  0  0  0  0  0
   14.1772    7.4418    7.0719 C   0  0  2  0  0  0  0  0  0  0  0  0
   15.6324    6.9241    7.3216 C   0  0  2  0  0  0  0  0  0  0  0  0
   16.1257    6.4528    6.0435 O   0  0  0  0  0  0  0  0  0  0  0  0
   15.6127    5.7737    8.3788 C   0  0  1  0  0  0  0  0  0  0  0  0
   16.9154    5.3449    8.5900 O   0  0  0  0  0  0  0  0  0  0  0  0
   17.1556    5.5896    5.8689 C   0  0  1  0  0  0  0  0  0  0  0  0
   17.5104    5.4445    4.3660 C   0  0  2  0  0  0  0  0  0  0  0  0
   16.7115    4.5092    3.7012 O   0  0  0  0  0  0  0  0  0  0  0  0
   18.9991    5.1768    4.4887 C   0  0  1  0  0  0  0  0  0  0  0  0
   19.5111    6.0473    5.6450 C   0  0  2  0  0  0  0  0  0  0  0  0
   18.3922    5.9736    6.5284 O   0  0  0  0  0  0  0  0  0  0  0  0
   19.8625    7.5277    5.2714 C   0  0  0  0  0  0  0  0  0  0  0  0
   21.1213    7.5061    4.5474 O   0  0  0  0  0  0  0  0  0  0  0  0
   20.4744    3.2447    4.9489 C   0  0  2  0  0  0  0  0  0  0  0  0
   19.1710    3.7278    4.7708 O   0  0  0  0  0  0  0  0  0  0  0  0
   21.3215    3.3558    3.6074 C   0  0  1  0  0  0  0  0  0  0  0  0
   22.8163   -1.1051    6.4658 N   0  0  0  0  0  0  0  0  0  0  0  0
   22.7896    2.7538    3.9220 C   0  0  1  0  0  0  0  0  0  0  0  0
   23.3942    3.5558    5.0573 O   0  0  0  0  0  0  0  0  0  0  0  0
   22.6679    1.1923    4.3383 C   0  0  2  0  0  0  0  0  0  0  0  0
   22.0975    0.4470    3.2359 O   0  0  0  0  0  0  0  0  0  0  0  0
   21.7635    1.1159    5.6933 C   0  0  1  0  0  0  0  0  0  0  0  0
   20.4320    1.7687    5.4426 O   0  0  0  0  0  0  0  0  0  0  0  0
   21.5515   -0.3581    6.1867 C   0  0  0  0  0  0  0  0  0  0  0  0
   20.6168    2.6386    2.4939 N   0  0  0  0  0  0  0  0  0  0  0  0
  1  2  1  1  0  0  0
  1  3  1  0  0  0  0
  1 10  1  0  0  0  0
  3  4  1  1  0  0  0
  3  5  1  0  0  0  0
  5  6  1  6  0  0  0
  5  7  1  0  0  0  0
  7  8  1  1  0  0  0
  7  9  1  0  0  0  0
  9 10  1  0  0  0  0
  9 11  1  6  0  0  0
 11 12  1  0  0  0  0
 13 14  1  1  0  0  0
 13 15  1  0  0  0  0
 13 21  1  0  0  0  0
 16 15  1  0  0  0  0
 16 17  1  6  0  0  0
 18  2  1  6  0  0  0
 18 16  1  0  0  0  0
 19 18  1  0  0  0  0
 19 20  1  6  0  0  0
 21 19  1  0  0  0  0
 21 22  1  1  0  0  0
 23 20  1  6  0  0  0
 23 24  1  0  0  0  0
 23 28  1  0  0  0  0
 24 25  1  1  0  0  0
 24 26  1  0  0  0  0
 26 27  1  0  0  0  0
 26 32  1  1  0  0  0
 27 28  1  0  0  0  0
 27 29  1  6  0  0  0
 29 30  1  0  0  0  0
 31 32  1  6  0  0  0
 31 40  1  0  0  0  0
 33 31  1  0  0  0  0
 33 42  1  6  0  0  0
 35 33  1  0  0  0  0
 35 36  1  1  0  0  0
 37 35  1  0  0  0  0
 37 38  1  6  0  0  0
 37 39  1  0  0  0  0
 39 40  1  0  0  0  0
 39 41  1  6  0  0  0
 41 34  1  0  0  0  0
M  END
>  <CHROM.1>
-179.74733028,-179.45813894,173.21217112,-159.67380733,-173.22384928,-178.91988090
-74.93444760,-65.84400458,57.85719551,17.08957350,5.67712803,5.38842742,-2.99729120
-0.64567831,1.86943265

>  <Name>
2et4_lig

>  <RI>
0

>  <Rbt.Current_Directory>
/home/itssahil/PROJECTS/Mol_Feturizer/New_Systems/rnas/2et4

>  <Rbt.Executable>
rbdock ($Id: //depot/dev/client3/rdock/2013.1/src/exe/rbdock.cxx#4 $)

>  <Rbt.Library>
libRbt.so (2013.1, Build901 2013/11/27)

>  <Rbt.Parameter_File>
/export/apps/rDock/src/rDock_2013.1_src/data/scripts/dock_solv.prm

>  <Rbt.Receptor>
prm/pocket_docking_8.prm

>  <SCORE>
-18.0248

>  <SCORE.INTER>
-10.0435

>  <SCORE.INTER.CONST>
1

>  <SCORE.INTER.POLAR>
-0.774559

>  <SCORE.INTER.ROT>
9

>  <SCORE.INTER.SOLV>
14.7906

>  <SCORE.INTER.VDW>
-18.644

>  <SCORE.INTER.norm>
-0.239131

>  <SCORE.INTRA>
-7.98372

>  <SCORE.INTRA.DIHEDRAL>
-18.2543

>  <SCORE.INTRA.DIHEDRAL.0>
21.6909

>  <SCORE.INTRA.POLAR>
0

>  <SCORE.INTRA.POLAR.0>
0

>  <SCORE.INTRA.REPUL>
0

>  <SCORE.INTRA.REPUL.0>
0

>  <SCORE.INTRA.SOLV>
-4.54268

>  <SCORE.INTRA.SOLV.lig_0>
-116.606

>  <SCORE.INTRA.VDW>
3.41479

>  <SCORE.INTRA.VDW.0>
-6.01229

>  <SCORE.INTRA.norm>
-0.190089

>  <SCORE.RESTR>
0.00245046

>  <SCORE.RESTR.CAVITY>
0.00245046

>  <SCORE.RESTR.norm>
5.83442e-05

>  <SCORE.SYSTEM>
0

>  <SCORE.SYSTEM.CONST>
0

>  <SCORE.SYSTEM.DIHEDRAL>
0

>  <SCORE.SYSTEM.SOLV>
0

>  <SCORE.SYSTEM.norm>
0

>  <SCORE.heavy>
42

>  <SCORE.norm>
-0.429161

>  <RMSD>
8.973

$$$$
2et4_lig
 OpenBabel11021811423D
libRbt.so/2013.1/901 2013/11/27
 42 45  0  0  0  0  0  0  0  0999 V2000
    8.0180    3.9312    7.4188 C   0  0  2  0  0  0  0  0  0  0  0  0
    7.6563    4.4318    8.7075 O   0  0  0  0  0  0  0  0  0  0  0  0
    7.0058    2.8126    7.0626 C   0  0  2  0  0  0  0  0  0  0  0  0
    5.6513    3.3029    7.0858 N   0  0  0  0  0  0  0  0  0  0  0  0
    7.1874    1.6229    8.0489 C   0  0  1  0  0  0  0  0  0  0  0  0
    6.2875    0.6122    7.7164 O   0  0  0  0  0  0  0  0  0  0  0  0
    8.6750    1.1429    7.9680 C   0  0  2  0  0  0  0  0  0  0  0  0
    8.8872    0.0653    8.8553 O   0  0  0  0  0  0  0  0  0  0  0  0
    9.6529    2.3036    8.3237 C   0  0  2  0  0  0  0  0  0  0  0  0
    9.4071    3.3910    7.4271 O   0  0  0  0  0  0  0  0  0  0  0  0
   11.1516    1.8711    8.2129 C   0  0  0  0  0  0  0  0  0  0  0  0
   12.0395    2.9015    8.6264 N   0  0  0  0  0  0  0  0  0  0  0  0
    8.3792    7.9718   11.0741 C   0  0  2  0  0  0  0  0  0  0  0  0
    9.0953    9.0702   11.7346 N   0  0  0  0  0  0  0  0  0  0  0  0
    8.9366    6.5516   11.6260 C   0  0  0  0  0  0  0  0  0  0  0  0
    8.1711    5.3709   10.8999 C   0  0  2  0  0  0  0  0  0  0  0  0
    8.6649    4.0585   11.3533 N   0  0  0  0  0  0  0  0  0  0  0  0
    8.3673    5.4981    9.3514 C   0  0  2  0  0  0  0  0  0  0  0  0
    7.8523    6.8832    8.8376 C   0  0  2  0  0  0  0  0  0  0  0  0
    8.0910    6.9058    7.4087 O   0  0  0  0  0  0  0  0  0  0  0  0
    8.6224    8.0365    9.5574 C   0  0  1  0  0  0  0  0  0  0  0  0
    8.1359    9.2503    9.0930 O   0  0  0  0  0  0  0  0  0  0  0  0
    9.2455    7.2879    6.8111 C   0  0  1  0  0  0  0  0  0  0  0  0
   10.2789    6.1314    6.8077 C   0  0  2  0  0  0  0  0  0  0  0  0
   11.0100    6.0450    7.9964 O   0  0  0  0  0  0  0  0  0  0  0  0
   11.0136    6.4607    5.5213 C   0  0  1  0  0  0  0  0  0  0  0  0
    9.9608    6.9776    4.5307 C   0  0  2  0  0  0  0  0  0  0  0  0
    9.1084    7.6953    5.4229 O   0  0  0  0  0  0  0  0  0  0  0  0
    9.1794    5.8743    3.7390 C   0  0  0  0  0  0  0  0  0  0  0  0
    8.4617    5.0682    4.7107 O   0  0  0  0  0  0  0  0  0  0  0  0
   13.2384    7.0796    6.4094 C   0  0  2  0  0  0  0  0  0  0  0  0
   12.0286    7.4986    5.8394 O   0  0  0  0  0  0  0  0  0  0  0  0
   14.0287    8.3007    7.0530 C   0  0  1  0  0  0  0  0  0  0  0  0
   16.7043    6.1143    3.5724 N   0  0  0  0  0  0  0  0  0  0  0  0
   15.4078    7.7081    7.6562 C   0  0  1  0  0  0  0  0  0  0  0  0
   15.0567    6.6430    8.6758 O   0  0  0  0  0  0  0  0  0  0  0  0
   16.3033    7.0730    6.4641 C   0  0  2  0  0  0  0  0  0  0  0  0
   16.6330    8.1103    5.5095 O   0  0  0  0  0  0  0  0  0  0  0  0
   15.4463    5.8517    5.8055 C   0  0  1  0  0  0  0  0  0  0  0  0
   14.1156    6.3718    5.3355 O   0  0  0  0  0  0  0  0  0  0  0  0
   16.2031    5.1663    4.6143 C   0  0  0  0  0  0  0  0  0  0  0  0
   14.2472    9.3707    6.0244 N   0  0  0  0  0  0  0  0  0  0  0  0
  1  2  1  1  0  0  0
  1  3  1  0  0  0  0
  1 10  1  0  0  0  0
  3  4  1  1  0  0  0
  3  5  1  0  0  0  0
  5  6  1  6  0  0  0
  5  7  1  0  0  0  0
  7  8  1  1  0  0  0
  7  9  1  0  0  0  0
  9 10  1  0  0  0  0
  9 11  1  6  0  0  0
 11 12  1  0  0  0  0
 13 14  1  1  0  0  0
 13 15  1  0  0  0  0
 13 21  1  0  0  0  0
 16 15  1  0  0  0  0
 16 17  1  1  0  0  0
 18  2  1  6  0  0  0
 18 16  1  0  0  0  0
 19 18  1  0  0  0  0
 19 20  1  6  0  0  0
 21 19  1  0  0  0  0
 21 22  1  6  0  0  0
 23 20  1  6  0  0  0
 23 24  1  0  0  0  0
 23 28  1  0  0  0  0
 24 25  1  1  0  0  0
 24 26  1  0  0  0  0
 26 27  1  0  0  0  0
 26 32  1  1  0  0  0
 27 28  1  0  0  0  0
 27 29  1  1  0  0  0
 29 30  1  0  0  0  0
 31 32  1  6  0  0  0
 31 40  1  0  0  0  0
 33 31  1  0  0  0  0
 33 42  1  6  0  0  0
 35 33  1  0  0  0  0
 35 36  1  1  0  0  0
 37 35  1  0  0  0  0
 37 38  1  6  0  0  0
 37 39  1  0  0  0  0
 39 40  1  0  0  0  0
 39 41  1  6  0  0  0
 41 34  1  0  0  0  0
M  END
>  <CHROM.1>
-179.03141701,-175.92924734,-154.82934759,-86.30999023,81.87851231,80.95951906
61.66398897,-164.13450484,-51.25936246,10.56039755,5.58505534,7.47610846
-2.86521392,0.48827089,0.36491893

>  <Name>
2et4_lig

>  <RI>
0

>  <Rbt.Current_Directory>
/home/itssahil/PROJECTS/Mol_Feturizer/New_Systems/rnas/2et4

>  <Rbt.Executable>
rbdock ($Id: //depot/dev/client3/rdock/2013.1/src/exe/rbdock.cxx#4 $)

>  <Rbt.Library>
libRbt.so (2013.1, Build901 2013/11/27)

>  <Rbt.Parameter_File>
/export/apps/rDock/src/rDock_2013.1_src/data/scripts/dock_solv.prm

>  <Rbt.Receptor>
prm/pocket_docking_5.prm

>  <SCORE>
-5.86422

>  <SCORE.INTER>
-0.897323

>  <SCORE.INTER.CONST>
1

>  <SCORE.INTER.POLAR>
-0.668317

>  <SCORE.INTER.ROT>
9

>  <SCORE.INTER.SOLV>
8.88119

>  <SCORE.INTER.VDW>
-10.9309

>  <SCORE.INTER.norm>
-0.0213648

>  <SCORE.INTRA>
-4.9669

>  <SCORE.INTRA.DIHEDRAL>
-10.3567

>  <SCORE.INTRA.DIHEDRAL.0>
21.6909

>  <SCORE.INTRA.POLAR>
0

>  <SCORE.INTRA.POLAR.0>
0

>  <SCORE.INTRA.REPUL>
0

>  <SCORE.INTRA.REPUL.0>
0

>  <SCORE.INTRA.SOLV>
0.604615

>  <SCORE.INTRA.SOLV.lig_0>
-116.606

>  <SCORE.INTRA.VDW>
-0.0908703

>  <SCORE.INTRA.VDW.0>
-6.01229

>  <SCORE.INTRA.norm>
-0.118259

>  <SCORE.RESTR>
0

>  <SCORE.RESTR.CAVITY>
0

>  <SCORE.RESTR.norm>
0

>  <SCORE.SYSTEM>
0

>  <SCORE.SYSTEM.CONST>
0

>  <SCORE.SYSTEM.DIHEDRAL>
0

>  <SCORE.SYSTEM.SOLV>
0

>  <SCORE.SYSTEM.norm>
0

>  <SCORE.heavy>
42

>  <SCORE.norm>
-0.139624

>  <RMSD>
9.000

$$$$
2et4_lig
 OpenBabel11021811423D
libRbt.so/2013.1/901 2013/11/27
 42 45  0  0  0  0  0  0  0  0999 V2000
   11.8033    6.1095   13.0199 C   0  0  2  0  0  0  0  0  0  0  0  0
   12.9668    6.3928   12.2401 O   0  0  0  0  0  0  0  0  0  0  0  0
   11.6160    4.5708   13.0189 C   0  0  2  0  0  0  0  0  0  0  0  0
   12.7822    3.8994   13.5336 N   0  0  0  0  0  0  0  0  0  0  0  0
   11.2879    4.0945   11.5744 C   0  0  1  0  0  0  0  0  0  0  0  0
   11.1041    2.7132   11.5793 O   0  0  0  0  0  0  0  0  0  0  0  0
   10.0142    4.8608   11.0841 C   0  0  2  0  0  0  0  0  0  0  0  0
    9.6834    4.4635    9.7702 O   0  0  0  0  0  0  0  0  0  0  0  0
   10.2478    6.4017   11.1131 C   0  0  2  0  0  0  0  0  0  0  0  0
   10.6012    6.7791   12.4470 O   0  0  0  0  0  0  0  0  0  0  0  0
    8.9801    7.2021   10.6683 C   0  0  0  0  0  0  0  0  0  0  0  0
    7.8850    7.0083   11.5539 N   0  0  0  0  0  0  0  0  0  0  0  0
   13.0654   10.7107   12.2195 C   0  0  2  0  0  0  0  0  0  0  0  0
   13.5415   12.0812   11.9943 N   0  0  0  0  0  0  0  0  0  0  0  0
   14.1129    9.9229   13.1757 C   0  0  0  0  0  0  0  0  0  0  0  0
   13.6019    8.4415   13.4032 C   0  0  2  0  0  0  0  0  0  0  0  0
   14.5388    7.6794   14.2476 N   0  0  0  0  0  0  0  0  0  0  0  0
   13.4444    7.7269   12.0186 C   0  0  2  0  0  0  0  0  0  0  0  0
   12.4543    8.5128   11.0967 C   0  0  2  0  0  0  0  0  0  0  0  0
   12.3908    7.7836    9.8464 O   0  0  0  0  0  0  0  0  0  0  0  0
   12.9765    9.9688   10.8758 C   0  0  1  0  0  0  0  0  0  0  0  0
   12.0732   10.6447   10.0679 O   0  0  0  0  0  0  0  0  0  0  0  0
   13.4314    7.5780    9.0031 C   0  0  1  0  0  0  0  0  0  0  0  0
   13.1013    6.4659    7.9737 C   0  0  2  0  0  0  0  0  0  0  0  0
   13.3392    5.1776    8.4621 O   0  0  0  0  0  0  0  0  0  0  0  0
   13.9232    6.9647    6.7996 C   0  0  1  0  0  0  0  0  0  0  0  0
   13.8253    8.4967    6.8102 C   0  0  2  0  0  0  0  0  0  0  0  0
   13.8184    8.7375    8.2172 O   0  0  0  0  0  0  0  0  0  0  0  0
   12.5590    9.0972    6.1098 C   0  0  0  0  0  0  0  0  0  0  0  0
   11.4109    8.7789    6.9403 O   0  0  0  0  0  0  0  0  0  0  0  0
   16.2525    6.7640    5.9898 C   0  0  2  0  0  0  0  0  0  0  0  0
   15.3202    6.4997    7.0022 O   0  0  0  0  0  0  0  0  0  0  0  0
   15.8374    6.0640    4.6233 C   0  0  1  0  0  0  0  0  0  0  0  0
   21.3364    6.2968    5.2023 N   0  0  0  0  0  0  0  0  0  0  0  0
   16.9873    6.4159    3.5414 C   0  0  1  0  0  0  0  0  0  0  0  0
   17.0719    7.9243    3.4176 O   0  0  0  0  0  0  0  0  0  0  0  0
   18.4088    5.8107    4.0307 C   0  0  2  0  0  0  0  0  0  0  0  0
   18.3054    4.3702    4.1320 O   0  0  0  0  0  0  0  0  0  0  0  0
   18.7818    6.5230    5.4496 C   0  0  1  0  0  0  0  0  0  0  0  0
   17.6679    6.2908    6.4331 O   0  0  0  0  0  0  0  0  0  0  0  0
   20.1363    5.9984    6.0426 C   0  0  0  0  0  0  0  0  0  0  0  0
   15.6588    4.5895    4.8348 N   0  0  0  0  0  0  0  0  0  0  0  0
  1  2  1  6  0  0  0
  1  3  1  0  0  0  0
  1 10  1  0  0  0  0
  3  4  1  6  0  0  0
  3  5  1  0  0  0  0
  5  6  1  1  0  0  0
  5  7  1  0  0  0  0
  7  8  1  6  0  0  0
  7  9  1  0  0  0  0
  9 10  1  0  0  0  0
  9 11  1  1  0  0  0
 11 12  1  0  0  0  0
 13 14  1  6  0  0  0
 13 15  1  0  0  0  0
 13 21  1  0  0  0  0
 16 15  1  0  0  0  0
 16 17  1  1  0  0  0
 18  2  1  1  0  0  0
 18 16  1  0  0  0  0
 19 18  1  0  0  0  0
 19 20  1  6  0  0  0
 21 19  1  0  0  0  0
 21 22  1  6  0  0  0
 23 20  1  6  0  0  0
 23 24  1  0  0  0  0
 23 28  1  0  0  0  0
 24 25  1  1  0  0  0
 24 26  1  0  0  0  0
 26 27  1  0  0  0  0
 26 32  1  1  0  0  0
 27 28  1  0  0  0  0
 27 29  1  1  0  0  0
 29 30  1  0  0  0  0
 31 32  1  1  0  0  0
 31 40  1  0  0  0  0
 33 31  1  0  0  0  0
 33 42  1  1  0  0  0
 35 33  1  0  0  0  0
 35 36  1  1  0  0  0
 37 35  1  0  0  0  0
 37 38  1  1  0  0  0
 37 39  1  0  0  0  0
 39 40  1  0  0  0  0
 39 41  1  1  0  0  0
 41 34  1  0  0  0  0
M  END
>  <CHROM.1>
179.82269338,63.54824501,52.64825877,-62.58075942,165.14413012,175.69632881
70.08099438,-61.32258178,63.51152136,13.76019480,6.95818565,9.05786611,2.73403371
0.76331868,0.46701295

>  <Name>
2et4_lig

>  <RI>
0

>  <Rbt.Current_Directory>
/home/itssahil/PROJECTS/Mol_Feturizer/New_Systems/rnas/2et4

>  <Rbt.Executable>
rbdock ($Id: //depot/dev/client3/rdock/2013.1/src/exe/rbdock.cxx#4 $)

>  <Rbt.Library>
libRbt.so (2013.1, Build901 2013/11/27)

>  <Rbt.Parameter_File>
/export/apps/rDock/src/rDock_2013.1_src/data/scripts/dock_solv.prm

>  <Rbt.Receptor>
prm/pocket_docking_5.prm

>  <SCORE>
-11.0573

>  <SCORE.INTER>
-1.65345

>  <SCORE.INTER.CONST>
1

>  <SCORE.INTER.POLAR>
0

>  <SCORE.INTER.ROT>
9

>  <SCORE.INTER.SOLV>
18.7454

>  <SCORE.INTER.VDW>
-16.9508

>  <SCORE.INTER.norm>
-0.039368

>  <SCORE.INTRA>
-9.40387

>  <SCORE.INTRA.DIHEDRAL>
-19.6698

>  <SCORE.INTRA.DIHEDRAL.0>
21.6909

>  <SCORE.INTRA.POLAR>
0

>  <SCORE.INTRA.POLAR.0>
0

>  <SCORE.INTRA.REPUL>
0

>  <SCORE.INTRA.REPUL.0>
0

>  <SCORE.INTRA.SOLV>
-1.42974

>  <SCORE.INTRA.SOLV.lig_0>
-116.606

>  <SCORE.INTRA.VDW>
1.14589

>  <SCORE.INTRA.VDW.0>
-6.01229

>  <SCORE.INTRA.norm>
-0.223902

>  <SCORE.RESTR>
0

>  <SCORE.RESTR.CAVITY>
0

>  <SCORE.RESTR.norm>
0

>  <SCORE.SYSTEM>
0

>  <SCORE.SYSTEM.CONST>
0

>  <SCORE.SYSTEM.DIHEDRAL>
0

>  <SCORE.SYSTEM.SOLV>
0

>  <SCORE.SYSTEM.norm>
0

>  <SCORE.heavy>
42

>  <SCORE.norm>
-0.26327

>  <RMSD>
9.002

$$$$
2et4_lig
 OpenBabel11021811423D
libRbt.so/2013.1/901 2013/11/27
 42 45  0  0  0  0  0  0  0  0999 V2000
   13.6439    5.9886    6.3827 C   0  0  2  0  0  0  0  0  0  0  0  0
   13.3237    6.4267    7.7048 O   0  0  0  0  0  0  0  0  0  0  0  0
   13.6549    4.4388    6.4050 C   0  0  2  0  0  0  0  0  0  0  0  0
   12.3914    3.9109    6.8529 N   0  0  0  0  0  0  0  0  0  0  0  0
   14.8199    3.9467    7.3115 C   0  0  1  0  0  0  0  0  0  0  0  0
   14.8376    2.5534    7.3168 O   0  0  0  0  0  0  0  0  0  0  0  0
   16.1549    4.5549    6.7657 C   0  0  2  0  0  0  0  0  0  0  0  0
   17.2416    4.1389    7.5655 O   0  0  0  0  0  0  0  0  0  0  0  0
   16.0911    6.1123    6.7528 C   0  0  2  0  0  0  0  0  0  0  0  0
   14.9726    6.5111    5.9549 O   0  0  0  0  0  0  0  0  0  0  0  0
   17.3941    6.7544    6.1738 C   0  0  0  0  0  0  0  0  0  0  0  0
   17.5710    6.4587    4.7945 N   0  0  0  0  0  0  0  0  0  0  0  0
   11.6210    9.9354    9.5608 C   0  0  2  0  0  0  0  0  0  0  0  0
   11.3914   11.3449    9.9018 N   0  0  0  0  0  0  0  0  0  0  0  0
   13.1434    9.5258    9.9439 C   0  0  0  0  0  0  0  0  0  0  0  0
   13.3897    8.0093    9.5607 C   0  0  2  0  0  0  0  0  0  0  0  0
   14.7717    7.6005    9.8686 N   0  0  0  0  0  0  0  0  0  0  0  0
   13.1115    7.8067    8.0330 C   0  0  2  0  0  0  0  0  0  0  0  0
   11.6498    8.2327    7.6727 C   0  0  2  0  0  0  0  0  0  0  0  0
   11.5003    8.0225    6.2470 O   0  0  0  0  0  0  0  0  0  0  0  0
   11.4256    9.7324    8.0494 C   0  0  1  0  0  0  0  0  0  0  0  0
   10.1194   10.0774    7.7323 O   0  0  0  0  0  0  0  0  0  0  0  0
   11.9797    8.8395    5.2780 C   0  0  1  0  0  0  0  0  0  0  0  0
   13.5136    8.6732    5.1194 C   0  0  2  0  0  0  0  0  0  0  0  0
   14.2461    9.4437    6.0275 O   0  0  0  0  0  0  0  0  0  0  0  0
   13.6423    8.9731    3.6374 C   0  0  1  0  0  0  0  0  0  0  0  0
   12.4090    8.3655    2.9544 C   0  0  2  0  0  0  0  0  0  0  0  0
   11.4217    8.6110    3.9558 O   0  0  0  0  0  0  0  0  0  0  0  0
   12.5145    6.8429    2.6007 C   0  0  0  0  0  0  0  0  0  0  0  0
   12.5161    6.1052    3.8517 O   0  0  0  0  0  0  0  0  0  0  0  0
   14.3130   10.9716    2.3422 C   0  0  2  0  0  0  0  0  0  0  0  0
   13.6870   10.4506    3.4826 O   0  0  0  0  0  0  0  0  0  0  0  0
   15.3226   12.1414    2.7193 C   0  0  1  0  0  0  0  0  0  0  0  0
   11.7227   11.4104   -1.3796 N   0  0  0  0  0  0  0  0  0  0  0  0
   15.9653   12.6781    1.3353 C   0  0  1  0  0  0  0  0  0  0  0  0
   16.6560   11.5137    0.6538 O   0  0  0  0  0  0  0  0  0  0  0  0
   14.7999   13.2775    0.3819 C   0  0  2  0  0  0  0  0  0  0  0  0
   14.1624   14.3927    1.0499 O   0  0  0  0  0  0  0  0  0  0  0  0
   13.7663   12.0609    0.0482 C   0  0  1  0  0  0  0  0  0  0  0  0
   13.2424   11.4836    1.3344 O   0  0  0  0  0  0  0  0  0  0  0  0
   12.5707   12.5247   -0.8555 C   0  0  0  0  0  0  0  0  0  0  0  0
   14.6055   13.2105    3.4897 N   0  0  0  0  0  0  0  0  0  0  0  0
  1  2  1  1  0  0  0
  1  3  1  0  0  0  0
  1 10  1  0  0  0  0
  3  4  1  1  0  0  0
  3  5  1  0  0  0  0
  5  6  1  6  0  0  0
  5  7  1  0  0  0  0
  7  8  1  1  0  0  0
  7  9  1  0  0  0  0
  9 10  1  0  0  0  0
  9 11  1  6  0  0  0
 11 12  1  0  0  0  0
 13 14  1  6  0  0  0
 13 15  1  0  0  0  0
 13 21  1  0  0  0  0
 16 15  1  0  0  0  0
 16 17  1  6  0  0  0
 18  2  1  1  0  0  0
 18 16  1  0  0  0  0
 19 18  1  0  0  0  0
 19 20  1  6  0  0  0
 21 19  1  0  0  0  0
 21 22  1  1  0  0  0
 23 20  1  1  0  0  0
 23 24  1  0  0  0  0
 23 28  1  0  0  0  0
 24 25  1  1  0  0  0
 24 26  1  0  0  0  0
 26 27  1  0  0  0  0
 26 32  1  1  0  0  0
 27 28  1  0  0  0  0
 27 29  1  1  0  0  0
 29 30  1  0  0  0  0
 31 32  1  1  0  0  0
 31 40  1  0  0  0  0
 33 31  1  0  0  0  0
 33 42  1  6  0  0  0
 35 33  1  0  0  0  0
 35 36  1  6  0  0  0
 37 35  1  0  0  0  0
 37 38  1  1  0  0  0
 37 39  1  0  0  0  0
 39 40  1  0  0  0  0
 39 41  1  6  0  0  0
 41 34  1  0  0  0  0
M  END
>  <CHROM.1>
-174.48281601,66.03774576,-156.11234286,-77.73276616,75.25873225,155.23567340
68.75183470,-132.41162466,170.23485643,13.74198968,8.65799000,5.09170319
-1.54138402,0.92761281,-0.85077825

>  <Name>
2et4_lig

>  <RI>
0

>  <Rbt.Current_Directory>
/home/itssahil/PROJECTS/Mol_Feturizer/New_Systems/rnas/2et4

>  <Rbt.Executable>
rbdock ($Id: //depot/dev/client3/rdock/2013.1/src/exe/rbdock.cxx#4 $)

>  <Rbt.Library>
libRbt.so (2013.1, Build901 2013/11/27)

>  <Rbt.Parameter_File>
/export/apps/rDock/src/rDock_2013.1_src/data/scripts/dock_solv.prm

>  <Rbt.Receptor>
prm/pocket_docking_6.prm

>  <SCORE>
-15.6386

>  <SCORE.INTER>
-12.7112

>  <SCORE.INTER.CONST>
1

>  <SCORE.INTER.POLAR>
-1.99476

>  <SCORE.INTER.ROT>
9

>  <SCORE.INTER.SOLV>
23.8809

>  <SCORE.INTER.VDW>
-19.3852

>  <SCORE.INTER.norm>
-0.302648

>  <SCORE.INTRA>
-2.92739

>  <SCORE.INTRA.DIHEDRAL>
-6.62699

>  <SCORE.INTRA.DIHEDRAL.0>
21.6909

>  <SCORE.INTRA.POLAR>
0

>  <SCORE.INTRA.POLAR.0>
0

>  <SCORE.INTRA.REPUL>
0

>  <SCORE.INTRA.REPUL.0>
0

>  <SCORE.INTRA.SOLV>
-0.840573

>  <SCORE.INTRA.SOLV.lig_0>
-116.606

>  <SCORE.INTRA.VDW>
0.806395

>  <SCORE.INTRA.VDW.0>
-6.01229

>  <SCORE.INTRA.norm>
-0.0696997

>  <SCORE.RESTR>
0

>  <SCORE.RESTR.CAVITY>
0

>  <SCORE.RESTR.norm>
0

>  <SCORE.SYSTEM>
0

>  <SCORE.SYSTEM.CONST>
0

>  <SCORE.SYSTEM.DIHEDRAL>
0

>  <SCORE.SYSTEM.SOLV>
0

>  <SCORE.SYSTEM.norm>
0

>  <SCORE.heavy>
42

>  <SCORE.norm>
-0.372348

>  <RMSD>
9.002

$$$$
2et4_lig
 OpenBabel11021811423D
libRbt.so/2013.1/901 2013/11/27
 42 45  0  0  0  0  0  0  0  0999 V2000
   12.9254   10.5578   11.7255 C   0  0  2  0  0  0  0  0  0  0  0  0
   14.1191    9.8225   12.0020 O   0  0  0  0  0  0  0  0  0  0  0  0
   13.3530   12.0011   11.3559 C   0  0  2  0  0  0  0  0  0  0  0  0
   14.2590   12.0099   10.2357 N   0  0  0  0  0  0  0  0  0  0  0  0
   13.9945   12.6809   12.5999 C   0  0  1  0  0  0  0  0  0  0  0  0
   14.3633   13.9835   12.2695 O   0  0  0  0  0  0  0  0  0  0  0  0
   12.9569   12.6370   13.7710 C   0  0  2  0  0  0  0  0  0  0  0  0
   13.5018   13.2388   14.9262 O   0  0  0  0  0  0  0  0  0  0  0  0
   12.5507   11.1680   14.0980 C   0  0  2  0  0  0  0  0  0  0  0  0
   12.0211   10.5717   12.9102 O   0  0  0  0  0  0  0  0  0  0  0  0
   11.4824   11.0878   15.2372 C   0  0  0  0  0  0  0  0  0  0  0  0
   11.2896    9.7573   15.6994 N   0  0  0  0  0  0  0  0  0  0  0  0
   15.5311    5.8652   13.0027 C   0  0  2  0  0  0  0  0  0  0  0  0
   15.5261    4.4725   13.4674 N   0  0  0  0  0  0  0  0  0  0  0  0
   15.0615    6.8417   14.2103 C   0  0  0  0  0  0  0  0  0  0  0  0
   15.0549    8.3404   13.6994 C   0  0  2  0  0  0  0  0  0  0  0  0
   14.6087    9.2618   14.7593 N   0  0  0  0  0  0  0  0  0  0  0  0
   14.1026    8.4642   12.4623 C   0  0  2  0  0  0  0  0  0  0  0  0
   14.5499    7.4966   11.3171 C   0  0  2  0  0  0  0  0  0  0  0  0
   13.6036    7.6759   10.2348 O   0  0  0  0  0  0  0  0  0  0  0  0
   14.5436    6.0223   11.8348 C   0  0  1  0  0  0  0  0  0  0  0  0
   14.9571    5.1901   10.8042 O   0  0  0  0  0  0  0  0  0  0  0  0
   13.7726    8.4994    9.1720 C   0  0  1  0  0  0  0  0  0  0  0  0
   12.8662    8.0722    7.9882 C   0  0  2  0  0  0  0  0  0  0  0  0
   13.4300    7.0632    7.2014 O   0  0  0  0  0  0  0  0  0  0  0  0
   12.6190    9.4327    7.3632 C   0  0  1  0  0  0  0  0  0  0  0  0
   12.4925   10.4343    8.5198 C   0  0  2  0  0  0  0  0  0  0  0  0
   13.4558    9.8949    9.4247 O   0  0  0  0  0  0  0  0  0  0  0  0
   11.0719   10.5357    9.1729 C   0  0  0  0  0  0  0  0  0  0  0  0
   10.1160   10.7558    8.1019 O   0  0  0  0  0  0  0  0  0  0  0  0
   13.5229   10.2191    5.1985 C   0  0  2  0  0  0  0  0  0  0  0  0
   13.7816    9.7416    6.4904 O   0  0  0  0  0  0  0  0  0  0  0  0
   13.6756    9.0659    4.1137 C   0  0  1  0  0  0  0  0  0  0  0  0
   16.7644   12.7775    3.2993 N   0  0  0  0  0  0  0  0  0  0  0  0
   13.3784    9.7308    2.6693 C   0  0  1  0  0  0  0  0  0  0  0  0
   11.9809   10.3171    2.6992 O   0  0  0  0  0  0  0  0  0  0  0  0
   14.4685   10.8896    2.3607 C   0  0  2  0  0  0  0  0  0  0  0  0
   15.7922   10.3039    2.3281 O   0  0  0  0  0  0  0  0  0  0  0  0
   14.3071   12.0329    3.5125 C   0  0  1  0  0  0  0  0  0  0  0  0
   14.4773   11.4039    4.8680 O   0  0  0  0  0  0  0  0  0  0  0  0
   15.3327   13.2069    3.3356 C   0  0  0  0  0  0  0  0  0  0  0  0
   15.0396    8.4484    4.2087 N   0  0  0  0  0  0  0  0  0  0  0  0
  1  2  1  1  0  0  0
  1  3  1  0  0  0  0
  1 10  1  0  0  0  0
  3  4  1  6  0  0  0
  3  5  1  0  0  0  0
  5  6  1  6  0  0  0
  5  7  1  0  0  0  0
  7  8  1  1  0  0  0
  7  9  1  0  0  0  0
  9 10  1  0  0  0  0
  9 11  1  1  0  0  0
 11 12  1  0  0  0  0
 13 14  1  1  0  0  0
 13 15  1  0  0  0  0
 13 21  1  0  0  0  0
 16 15  1  0  0  0  0
 16 17  1  1  0  0  0
 18  2  1  6  0  0  0
 18 16  1  0  0  0  0
 19 18  1  0  0  0  0
 19 20  1  6  0  0  0
 21 19  1  0  0  0  0
 21 22  1  6  0  0  0
 23 20  1  1  0  0  0
 23 24  1  0  0  0  0
 23 28  1  0  0  0  0
 24 25  1  6  0  0  0
 24 26  1  0  0  0  0
 26 27  1  0  0  0  0
 26 32  1  6  0  0  0
 27 28  1  0  0  0  0
 27 29  1  1  0  0  0
 29 30  1  0  0  0  0
 31 32  1  1  0  0  0
 31 40  1  0  0  0  0
 33 31  1  0  0  0  0
 33 42  1  6  0  0  0
 35 33  1  0  0  0  0
 35 36  1  1  0  0  0
 37 35  1  0  0  0  0
 37 38  1  1  0  0  0
 37 39  1  0  0  0  0
 39 40  1  0  0  0  0
 39 41  1  6  0  0  0
 41 34  1  0  0  0  0
M  END
>  <CHROM.1>
175.95971285,-169.44784188,-131.47788478,95.10722914,158.97479078,132.96466267
-51.88551329,-100.82624558,-56.01967621,13.72156588,9.82172476,9.37311259
1.83188374,-1.33563998,1.93671011

>  <Name>
2et4_lig

>  <RI>
0

>  <Rbt.Current_Directory>
/home/itssahil/PROJECTS/Mol_Feturizer/New_Systems/rnas/2et4

>  <Rbt.Executable>
rbdock ($Id: //depot/dev/client3/rdock/2013.1/src/exe/rbdock.cxx#4 $)

>  <Rbt.Library>
libRbt.so (2013.1, Build901 2013/11/27)

>  <Rbt.Parameter_File>
/export/apps/rDock/src/rDock_2013.1_src/data/scripts/dock_solv.prm

>  <Rbt.Receptor>
prm/blind_docking_40.prm

>  <SCORE>
22.2776

>  <SCORE.INTER>
-11.2682

>  <SCORE.INTER.CONST>
1

>  <SCORE.INTER.POLAR>
-2.67962

>  <SCORE.INTER.ROT>
9

>  <SCORE.INTER.SOLV>
34.8416

>  <SCORE.INTER.VDW>
-19.7939

>  <SCORE.INTER.norm>
-0.268289

>  <SCORE.INTRA>
8.37444

>  <SCORE.INTRA.DIHEDRAL>
4.13667

>  <SCORE.INTRA.DIHEDRAL.0>
21.6909

>  <SCORE.INTRA.POLAR>
0

>  <SCORE.INTRA.POLAR.0>
0

>  <SCORE.INTRA.REPUL>
0

>  <SCORE.INTRA.REPUL.0>
0

>  <SCORE.INTRA.SOLV>
4.76221

>  <SCORE.INTRA.SOLV.lig_0>
-116.606

>  <SCORE.INTRA.VDW>
3.925

>  <SCORE.INTRA.VDW.0>
-6.01229

>  <SCORE.INTRA.norm>
0.199391

>  <SCORE.RESTR>
25.1713

>  <SCORE.RESTR.CAVITY>
25.1713

>  <SCORE.RESTR.norm>
0.599316

>  <SCORE.SYSTEM>
0

>  <SCORE.SYSTEM.CONST>
0

>  <SCORE.SYSTEM.DIHEDRAL>
0

>  <SCORE.SYSTEM.SOLV>
0

>  <SCORE.SYSTEM.norm>
0

>  <SCORE.heavy>
42

>  <SCORE.norm>
0.530418

>  <RMSD>
9.004

$$$$
2et4_lig
 OpenBabel11021811423D
libRbt.so/2013.1/901 2013/11/27
 42 45  0  0  0  0  0  0  0  0999 V2000
   10.9315    3.8012   13.3887 C   0  0  2  0  0  0  0  0  0  0  0  0
   11.1357    4.1830   12.0268 O   0  0  0  0  0  0  0  0  0  0  0  0
    9.8037    2.7378   13.4009 C   0  0  2  0  0  0  0  0  0  0  0  0
   10.1383    1.6077   12.5723 N   0  0  0  0  0  0  0  0  0  0  0  0
    8.4721    3.3965   12.9381 C   0  0  1  0  0  0  0  0  0  0  0  0
    7.4568    2.4425   12.9656 O   0  0  0  0  0  0  0  0  0  0  0  0
    8.1725    4.6092   13.8812 C   0  0  2  0  0  0  0  0  0  0  0  0
    6.9724    5.2431   13.4918 O   0  0  0  0  0  0  0  0  0  0  0  0
    9.3378    5.6438   13.8425 C   0  0  2  0  0  0  0  0  0  0  0  0
   10.5457    4.9766   14.2200 O   0  0  0  0  0  0  0  0  0  0  0  0
    9.0914    6.8508   14.8058 C   0  0  0  0  0  0  0  0  0  0  0  0
    8.8348    6.4296   16.1392 N   0  0  0  0  0  0  0  0  0  0  0  0
   14.0668    7.3380   12.3569 C   0  0  2  0  0  0  0  0  0  0  0  0
   15.0506    8.3567   11.9692 N   0  0  0  0  0  0  0  0  0  0  0  0
   14.5602    5.8822   11.8376 C   0  0  0  0  0  0  0  0  0  0  0  0
   13.4888    4.7901   12.2458 C   0  0  2  0  0  0  0  0  0  0  0  0
   13.8848    3.4526   11.7705 N   0  0  0  0  0  0  0  0  0  0  0  0
   12.0978    5.1722   11.6360 C   0  0  2  0  0  0  0  0  0  0  0  0
   11.6482    6.5898   12.1219 C   0  0  2  0  0  0  0  0  0  0  0  0
   10.3688    6.8523   11.4948 O   0  0  0  0  0  0  0  0  0  0  0  0
   12.7113    7.6562   11.7049 C   0  0  1  0  0  0  0  0  0  0  0  0
   12.2936    8.8986   12.1604 O   0  0  0  0  0  0  0  0  0  0  0  0
   10.1595    6.9848   10.1625 C   0  0  1  0  0  0  0  0  0  0  0  0
   10.7377    8.3257    9.6398 C   0  0  2  0  0  0  0  0  0  0  0  0
    9.8633    9.4036    9.8088 O   0  0  0  0  0  0  0  0  0  0  0  0
   11.1095    7.9015    8.2310 C   0  0  1  0  0  0  0  0  0  0  0  0
   11.6286    6.4599    8.3257 C   0  0  2  0  0  0  0  0  0  0  0  0
   10.7673    5.9498    9.3433 O   0  0  0  0  0  0  0  0  0  0  0  0
   13.1396    6.3103    8.7119 C   0  0  0  0  0  0  0  0  0  0  0  0
   13.9168    7.0138    7.7068 O   0  0  0  0  0  0  0  0  0  0  0  0
   10.0363    8.0454    6.0063 C   0  0  2  0  0  0  0  0  0  0  0  0
    9.8819    7.9924    7.3982 O   0  0  0  0  0  0  0  0  0  0  0  0
    9.8422    6.6110    5.3471 C   0  0  1  0  0  0  0  0  0  0  0  0
   13.5101    9.7289    2.5792 N   0  0  0  0  0  0  0  0  0  0  0  0
   10.0631    6.7869    3.7543 C   0  0  1  0  0  0  0  0  0  0  0  0
    9.0546    7.7988    3.2478 O   0  0  0  0  0  0  0  0  0  0  0  0
   11.5718    7.3001    3.4600 C   0  0  2  0  0  0  0  0  0  0  0  0
   12.5149    6.3138    3.9437 O   0  0  0  0  0  0  0  0  0  0  0  0
   11.7444    8.7525    4.1815 C   0  0  1  0  0  0  0  0  0  0  0  0
   11.4377    8.6214    5.6480 O   0  0  0  0  0  0  0  0  0  0  0  0
   13.1829    9.3478    3.9875 C   0  0  0  0  0  0  0  0  0  0  0  0
   10.7898    5.6275    5.9683 N   0  0  0  0  0  0  0  0  0  0  0  0
  1  2  1  6  0  0  0
  1  3  1  0  0  0  0
  1 10  1  0  0  0  0
  3  4  1  6  0  0  0
  3  5  1  0  0  0  0
  5  6  1  1  0  0  0
  5  7  1  0  0  0  0
  7  8  1  6  0  0  0
  7  9  1  0  0  0  0
  9 10  1  0  0  0  0
  9 11  1  1  0  0  0
 11 12  1  0  0  0  0
 13 14  1  6  0  0  0
 13 15  1  0  0  0  0
 13 21  1  0  0  0  0
 16 15  1  0  0  0  0
 16 17  1  6  0  0  0
 18  2  1  1  0  0  0
 18 16  1  0  0  0  0
 19 18  1  0  0  0  0
 19 20  1  6  0  0  0
 21 19  1  0  0  0  0
 21 22  1  1  0  0  0
 23 20  1  1  0  0  0
 23 24  1  0  0  0  0
 23 28  1  0  0  0  0
 24 25  1  6  0  0  0
 24 26  1  0  0  0  0
 26 27  1  0  0  0  0
 26 32  1  6  0  0  0
 27 28  1  0  0  0  0
 27 29  1  1  0  0  0
 29 30  1  0  0  0  0
 31 32  1  1  0  0  0
 31 40  1  0  0  0  0
 33 31  1  0  0  0  0
 33 42  1  1  0  0  0
 35 33  1  0  0  0  0
 35 36  1  1  0  0  0
 37 35  1  0  0  0  0
 37 38  1  1  0  0  0
 37 39  1  0  0  0  0
 39 40  1  0  0  0  0
 39 41  1  1  0  0  0
 41 34  1  0  0  0  0
M  END
>  <CHROM.1>
178.99716332,54.47006460,52.71859335,-64.47962257,-72.05058013,161.16248266
-58.83386572,97.51263931,67.37646169,11.07421072,6.39847408,9.75841347,1.75186253
0.43801429,1.83550428

>  <Name>
2et4_lig

>  <RI>
0

>  <Rbt.Current_Directory>
/home/itssahil/PROJECTS/Mol_Feturizer/New_Systems/rnas/2et4

>  <Rbt.Executable>
rbdock ($Id: //depot/dev/client3/rdock/2013.1/src/exe/rbdock.cxx#4 $)

>  <Rbt.Library>
libRbt.so (2013.1, Build901 2013/11/27)

>  <Rbt.Parameter_File>
/export/apps/rDock/src/rDock_2013.1_src/data/scripts/dock_solv.prm

>  <Rbt.Receptor>
prm/pocket_docking_3.prm

>  <SCORE>
-5.22848

>  <SCORE.INTER>
-1.60971

>  <SCORE.INTER.CONST>
1

>  <SCORE.INTER.POLAR>
-0.572332

>  <SCORE.INTER.ROT>
9

>  <SCORE.INTER.SOLV>
15.825

>  <SCORE.INTER.VDW>
-14.0404

>  <SCORE.INTER.norm>
-0.0383264

>  <SCORE.INTRA>
-3.97037

>  <SCORE.INTRA.DIHEDRAL>
-13.612

>  <SCORE.INTRA.DIHEDRAL.0>
21.6909

>  <SCORE.INTRA.POLAR>
0

>  <SCORE.INTRA.POLAR.0>
0

>  <SCORE.INTRA.REPUL>
0

>  <SCORE.INTRA.REPUL.0>
0

>  <SCORE.INTRA.SOLV>
1.93276

>  <SCORE.INTRA.SOLV.lig_0>
-116.606

>  <SCORE.INTRA.VDW>
1.86926

>  <SCORE.INTRA.VDW.0>
-6.01229

>  <SCORE.INTRA.norm>
-0.0945326

>  <SCORE.RESTR>
0.351595

>  <SCORE.RESTR.CAVITY>
0.351595

>  <SCORE.RESTR.norm>
0.0083713

>  <SCORE.SYSTEM>
0

>  <SCORE.SYSTEM.CONST>
0

>  <SCORE.SYSTEM.DIHEDRAL>
0

>  <SCORE.SYSTEM.SOLV>
0

>  <SCORE.SYSTEM.norm>
0

>  <SCORE.heavy>
42

>  <SCORE.norm>
-0.124488

>  <RMSD>
9.004

$$$$
2et4_lig
 OpenBabel11021811423D
libRbt.so/2013.1/901 2013/11/27
 42 45  0  0  0  0  0  0  0  0999 V2000
    7.6923    5.8670   11.1900 C   0  0  2  0  0  0  0  0  0  0  0  0
    8.6101    5.0978   11.9699 O   0  0  0  0  0  0  0  0  0  0  0  0
    6.2739    5.5934   11.7522 C   0  0  2  0  0  0  0  0  0  0  0  0
    6.1919    5.9206   13.1528 N   0  0  0  0  0  0  0  0  0  0  0  0
    5.9015    4.1033   11.5028 C   0  0  1  0  0  0  0  0  0  0  0  0
    4.6198    3.8642   11.9945 O   0  0  0  0  0  0  0  0  0  0  0  0
    6.0097    3.8225    9.9667 C   0  0  2  0  0  0  0  0  0  0  0  0
    5.6861    2.4753    9.6948 O   0  0  0  0  0  0  0  0  0  0  0  0
    7.4487    4.1218    9.4476 C   0  0  2  0  0  0  0  0  0  0  0  0
    7.7633    5.4839    9.7514 O   0  0  0  0  0  0  0  0  0  0  0  0
    7.5830    3.8915    7.9067 C   0  0  0  0  0  0  0  0  0  0  0  0
    7.4419    2.5215    7.5545 N   0  0  0  0  0  0  0  0  0  0  0  0
   12.7983    5.7056   12.8328 C   0  0  2  0  0  0  0  0  0  0  0  0
   14.2528    5.7724   12.6440 N   0  0  0  0  0  0  0  0  0  0  0  0
   12.2836    4.1931   12.5507 C   0  0  0  0  0  0  0  0  0  0  0  0
   10.7130    4.1303   12.7416 C   0  0  2  0  0  0  0  0  0  0  0  0
   10.1976    2.7768   12.4695 N   0  0  0  0  0  0  0  0  0  0  0  0
   10.0298    5.1553   11.7745 C   0  0  2  0  0  0  0  0  0  0  0  0
   10.5567    6.6047   12.0381 C   0  0  2  0  0  0  0  0  0  0  0  0
    9.8798    7.4665   11.0903 O   0  0  0  0  0  0  0  0  0  0  0  0
   12.1056    6.6514   11.8381 C   0  0  1  0  0  0  0  0  0  0  0  0
   12.5454    7.9429   12.0916 O   0  0  0  0  0  0  0  0  0  0  0  0
   10.1635    7.5560    9.7683 C   0  0  1  0  0  0  0  0  0  0  0  0
    9.1385    8.4640    9.0400 C   0  0  2  0  0  0  0  0  0  0  0  0
    7.9729    7.7874    8.6679 O   0  0  0  0  0  0  0  0  0  0  0  0
   10.0353    9.0256    7.9523 C   0  0  1  0  0  0  0  0  0  0  0  0
   11.4171    9.2406    8.5856 C   0  0  2  0  0  0  0  0  0  0  0  0
   11.4696    8.1141    9.4608 O   0  0  0  0  0  0  0  0  0  0  0  0
   11.6023   10.5898    9.3602 C   0  0  0  0  0  0  0  0  0  0  0  0
   13.0209   10.9009    9.3581 O   0  0  0  0  0  0  0  0  0  0  0  0
   10.8172    8.3516    5.7037 C   0  0  2  0  0  0  0  0  0  0  0  0
   10.0819    8.0276    6.8519 O   0  0  0  0  0  0  0  0  0  0  0  0
   10.4249    7.4131    4.4810 C   0  0  1  0  0  0  0  0  0  0  0  0
   15.1623    9.3588    6.4179 N   0  0  0  0  0  0  0  0  0  0  0  0
   11.3440    7.8589    3.2267 C   0  0  1  0  0  0  0  0  0  0  0  0
   11.0753    9.3234    2.9428 O   0  0  0  0  0  0  0  0  0  0  0  0
   12.9089    7.6322    3.5815 C   0  0  2  0  0  0  0  0  0  0  0  0
   13.1417    6.2266    3.8390 O   0  0  0  0  0  0  0  0  0  0  0  0
   13.2634    8.5803    4.8603 C   0  0  1  0  0  0  0  0  0  0  0  0
   12.3418    8.2457    6.0008 O   0  0  0  0  0  0  0  0  0  0  0  0
   14.7565    8.4307    5.3181 C   0  0  0  0  0  0  0  0  0  0  0  0
   10.6043    5.9728    4.8605 N   0  0  0  0  0  0  0  0  0  0  0  0
  1  2  1  1  0  0  0
  1  3  1  0  0  0  0
  1 10  1  0  0  0  0
  3  4  1  1  0  0  0
  3  5  1  0  0  0  0
  5  6  1  6  0  0  0
  5  7  1  0  0  0  0
  7  8  1  1  0  0  0
  7  9  1  0  0  0  0
  9 10  1  0  0  0  0
  9 11  1  6  0  0  0
 11 12  1  0  0  0  0
 13 14  1  6  0  0  0
 13 15  1  0  0  0  0
 13 21  1  0  0  0  0
 16 15  1  0  0  0  0
 16 17  1  6  0  0  0
 18  2  1  1  0  0  0
 18 16  1  0  0  0  0
 19 18  1  0  0  0  0
 19 20  1  6  0  0  0
 21 19  1  0  0  0  0
 21 22  1  1  0  0  0
 23 20  1  1  0  0  0
 23 24  1  0  0  0  0
 23 28  1  0  0  0  0
 24 25  1  6  0  0  0
 24 26  1  0  0  0  0
 26 27  1  0  0  0  0
 26 32  1  6  0  0  0
 27 28  1  0  0  0  0
 27 29  1  1  0  0  0
 29 30  1  0  0  0  0
 31 32  1  1  0  0  0
 31 40  1  0  0  0  0
 33 31  1  0  0  0  0
 33 42  1  1  0  0  0
 35 33  1  0  0  0  0
 35 36  1  1  0  0  0
 37 35  1  0  0  0  0
 37 38  1  1  0  0  0
 37 39  1  0  0  0  0
 39 40  1  0  0  0  0
 39 41  1  1  0  0  0
 41 34  1  0  0  0  0
M  END
>  <CHROM.1>
-176.81258667,-66.82069174,-176.87620269,-75.40227331,173.89910183,177.66873567
-154.89304225,-163.02764183,175.37055802,10.16813597,6.59442688,8.99231131
2.26884443,0.54495004,1.73930636

>  <Name>
2et4_lig

>  <RI>
3.65815e+07

>  <Rbt.Current_Directory>
/home/itssahil/PROJECTS/Mol_Feturizer/New_Systems/rnas/2et4

>  <Rbt.Executable>
rbdock ($Id: //depot/dev/client3/rdock/2013.1/src/exe/rbdock.cxx#4 $)

>  <Rbt.Library>
libRbt.so (2013.1, Build901 2013/11/27)

>  <Rbt.Parameter_File>
/export/apps/rDock/src/rDock_2013.1_src/data/scripts/dock_solv.prm

>  <Rbt.Receptor>
prm/pocket_docking_4.prm

>  <SCORE>
-15.1249

>  <SCORE.INTER>
-6.87851

>  <SCORE.INTER.CONST>
1

>  <SCORE.INTER.POLAR>
-1.14673

>  <SCORE.INTER.ROT>
9

>  <SCORE.INTER.SOLV>
15.1735

>  <SCORE.INTER.VDW>
-15.4211

>  <SCORE.INTER.norm>
-0.163774

>  <SCORE.INTRA>
-8.24849

>  <SCORE.INTRA.DIHEDRAL>
-16.6713

>  <SCORE.INTRA.DIHEDRAL.0>
21.6909

>  <SCORE.INTRA.POLAR>
0

>  <SCORE.INTRA.POLAR.0>
0

>  <SCORE.INTRA.REPUL>
0

>  <SCORE.INTRA.REPUL.0>
0

>  <SCORE.INTRA.SOLV>
-3.12484

>  <SCORE.INTRA.SOLV.lig_0>
-116.606

>  <SCORE.INTRA.VDW>
1.6496

>  <SCORE.INTRA.VDW.0>
-6.01229

>  <SCORE.INTRA.norm>
-0.196393

>  <SCORE.RESTR>
0.00209143

>  <SCORE.RESTR.CAVITY>
0.00209143

>  <SCORE.RESTR.norm>
4.97961e-05

>  <SCORE.SYSTEM>
0

>  <SCORE.SYSTEM.CONST>
0

>  <SCORE.SYSTEM.DIHEDRAL>
0

>  <SCORE.SYSTEM.SOLV>
0

>  <SCORE.SYSTEM.norm>
0

>  <SCORE.heavy>
42

>  <SCORE.norm>
-0.360117

>  <RMSD>
9.010

$$$$
2et4_lig
 OpenBabel11021811423D
libRbt.so/2013.1/901 2013/11/27
 42 45  0  0  0  0  0  0  0  0999 V2000
   11.0826   16.0139   -0.6982 C   0  0  2  0  0  0  0  0  0  0  0  0
   11.7474   15.1024    0.1789 O   0  0  0  0  0  0  0  0  0  0  0  0
    9.5941   16.0586   -0.2681 C   0  0  2  0  0  0  0  0  0  0  0  0
    9.4577   16.4479    1.1124 N   0  0  0  0  0  0  0  0  0  0  0  0
    8.9437   14.6685   -0.5245 C   0  0  1  0  0  0  0  0  0  0  0  0
    7.6018   14.7162   -0.1521 O   0  0  0  0  0  0  0  0  0  0  0  0
    9.1272   14.3142   -2.0380 C   0  0  2  0  0  0  0  0  0  0  0  0
    8.5561   13.0529   -2.3148 O   0  0  0  0  0  0  0  0  0  0  0  0
   10.6374   14.2920   -2.4238 C   0  0  2  0  0  0  0  0  0  0  0  0
   11.2000   15.5709   -2.1165 O   0  0  0  0  0  0  0  0  0  0  0  0
   10.8573   13.9816   -3.9406 C   0  0  0  0  0  0  0  0  0  0  0  0
   10.3352   12.7119   -4.3098 N   0  0  0  0  0  0  0  0  0  0  0  0
   15.4156   14.0443   -1.8410 C   0  0  2  0  0  0  0  0  0  0  0  0
   16.8080   13.6280   -2.0495 N   0  0  0  0  0  0  0  0  0  0  0  0
   15.3834   15.4159   -0.9749 C   0  0  0  0  0  0  0  0  0  0  0  0
   13.8794   15.8522   -0.7409 C   0  0  2  0  0  0  0  0  0  0  0  0
   13.8018   17.0831    0.0656 N   0  0  0  0  0  0  0  0  0  0  0  0
   13.1104   14.6989   -0.0120 C   0  0  2  0  0  0  0  0  0  0  0  0
   13.1742   13.3754   -0.8440 C   0  0  2  0  0  0  0  0  0  0  0  0
   12.4523   12.3764   -0.0825 O   0  0  0  0  0  0  0  0  0  0  0  0
   14.6635   12.9547   -1.0593 C   0  0  1  0  0  0  0  0  0  0  0  0
   14.6893   11.7882   -1.8104 O   0  0  0  0  0  0  0  0  0  0  0  0
   12.6995   12.0416    1.2071 C   0  0  1  0  0  0  0  0  0  0  0  0
   13.0445   10.5348    1.3339 C   0  0  2  0  0  0  0  0  0  0  0  0
   11.9130    9.7176    1.4166 O   0  0  0  0  0  0  0  0  0  0  0  0
   13.9883   10.5968    2.5206 C   0  0  1  0  0  0  0  0  0  0  0  0
   14.8053   11.8876    2.3688 C   0  0  2  0  0  0  0  0  0  0  0  0
   13.8099   12.7510    1.8198 O   0  0  0  0  0  0  0  0  0  0  0  0
   16.0639   11.7851    1.4414 C   0  0  0  0  0  0  0  0  0  0  0  0
   16.9166   10.7401    1.9800 O   0  0  0  0  0  0  0  0  0  0  0  0
   12.4938    9.4298    4.1098 C   0  0  2  0  0  0  0  0  0  0  0  0
   13.1572   10.6114    3.7525 O   0  0  0  0  0  0  0  0  0  0  0  0
   12.2474    9.3561    5.6794 C   0  0  1  0  0  0  0  0  0  0  0  0
   13.0493    4.3449    3.4202 N   0  0  0  0  0  0  0  0  0  0  0  0
   11.5013    7.9520    5.9772 C   0  0  1  0  0  0  0  0  0  0  0  0
   10.2088    7.9282    5.1858 O   0  0  0  0  0  0  0  0  0  0  0  0
   12.4539    6.7170    5.5367 C   0  0  2  0  0  0  0  0  0  0  0  0
   13.6760    6.7561    6.3120 O   0  0  0  0  0  0  0  0  0  0  0  0
   12.7142    6.8477    3.9321 C   0  0  1  0  0  0  0  0  0  0  0  0
   13.3117    8.1947    3.6310 O   0  0  0  0  0  0  0  0  0  0  0  0
   13.6502    5.7136    3.3853 C   0  0  0  0  0  0  0  0  0  0  0  0
   13.5493    9.4984    6.4112 N   0  0  0  0  0  0  0  0  0  0  0  0
  1  2  1  1  0  0  0
  1  3  1  0  0  0  0
  1 10  1  0  0  0  0
  3  4  1  1  0  0  0
  3  5  1  0  0  0  0
  5  6  1  6  0  0  0
  5  7  1  0  0  0  0
  7  8  1  1  0  0  0
  7  9  1  0  0  0  0
  9 10  1  0  0  0  0
  9 11  1  6  0  0  0
 11 12  1  0  0  0  0
 13 14  1  1  0  0  0
 13 15  1  0  0  0  0
 13 21  1  0  0  0  0
 16 15  1  0  0  0  0
 16 17  1  1  0  0  0
 18  2  1  6  0  0  0
 18 16  1  0  0  0  0
 19 18  1  0  0  0  0
 19 20  1  1  0  0  0
 21 19  1  0  0  0  0
 21 22  1  6  0  0  0
 23 20  1  6  0  0  0
 23 24  1  0  0  0  0
 23 28  1  0  0  0  0
 24 25  1  1  0  0  0
 24 26  1  0  0  0  0
 26 27  1  0  0  0  0
 26 32  1  1  0  0  0
 27 28  1  0  0  0  0
 27 29  1  6  0  0  0
 29 30  1  0  0  0  0
 31 32  1  1  0  0  0
 31 40  1  0  0  0  0
 33 31  1  0  0  0  0
 33 42  1  1  0  0  0
 35 33  1  0  0  0  0
 35 36  1  6  0  0  0
 37 35  1  0  0  0  0
 37 38  1  1  0  0  0
 37 39  1  0  0  0  0
 39 40  1  0  0  0  0
 39 41  1  1  0  0  0
 41 34  1  0  0  0  0
M  END
>  <CHROM.1>
173.08439170,-60.50198098,28.50577622,-54.47937280,-121.21872633,71.30435462
-57.84867069,153.06887805,67.82189682,12.55769503,11.91395887,1.07122449
1.72942957,0.05230990,-0.71150544

>  <Name>
2et4_lig

>  <RI>
0

>  <Rbt.Current_Directory>
/home/itssahil/PROJECTS/Mol_Feturizer/New_Systems/rnas/2et4

>  <Rbt.Executable>
rbdock ($Id: //depot/dev/client3/rdock/2013.1/src/exe/rbdock.cxx#4 $)

>  <Rbt.Library>
libRbt.so (2013.1, Build901 2013/11/27)

>  <Rbt.Parameter_File>
/export/apps/rDock/src/rDock_2013.1_src/data/scripts/dock_solv.prm

>  <Rbt.Receptor>
prm/pocket_docking_8.prm

>  <SCORE>
-14.7252

>  <SCORE.INTER>
-14.1421

>  <SCORE.INTER.CONST>
1

>  <SCORE.INTER.POLAR>
-1.71135

>  <SCORE.INTER.ROT>
9

>  <SCORE.INTER.SOLV>
21.6624

>  <SCORE.INTER.VDW>
-20.5444

>  <SCORE.INTER.norm>
-0.336718

>  <SCORE.INTRA>
-0.583099

>  <SCORE.INTRA.DIHEDRAL>
-6.23171

>  <SCORE.INTRA.DIHEDRAL.0>
21.6909

>  <SCORE.INTRA.POLAR>
0

>  <SCORE.INTRA.POLAR.0>
0

>  <SCORE.INTRA.REPUL>
0

>  <SCORE.INTRA.REPUL.0>
0

>  <SCORE.INTRA.SOLV>
-1.18905

>  <SCORE.INTRA.SOLV.lig_0>
-116.606

>  <SCORE.INTRA.VDW>
3.12728

>  <SCORE.INTRA.VDW.0>
-6.01229

>  <SCORE.INTRA.norm>
-0.0138833

>  <SCORE.RESTR>
0

>  <SCORE.RESTR.CAVITY>
0

>  <SCORE.RESTR.norm>
0

>  <SCORE.SYSTEM>
0

>  <SCORE.SYSTEM.CONST>
0

>  <SCORE.SYSTEM.DIHEDRAL>
0

>  <SCORE.SYSTEM.SOLV>
0

>  <SCORE.SYSTEM.norm>
0

>  <SCORE.heavy>
42

>  <SCORE.norm>
-0.350601

>  <RMSD>
9.017

$$$$
2et4_lig
 OpenBabel11021811423D
libRbt.so/2013.1/901 2013/11/27
 42 45  0  0  0  0  0  0  0  0999 V2000
   10.4898    8.2877    9.2500 C   0  0  2  0  0  0  0  0  0  0  0  0
   10.7046    8.2498    7.8377 O   0  0  0  0  0  0  0  0  0  0  0  0
   10.5139    9.7778    9.6761 C   0  0  2  0  0  0  0  0  0  0  0  0
    9.5239   10.5441    8.9631 N   0  0  0  0  0  0  0  0  0  0  0  0
   11.9406   10.3546    9.4457 C   0  0  1  0  0  0  0  0  0  0  0  0
   11.9637   11.6895    9.8446 O   0  0  0  0  0  0  0  0  0  0  0  0
   12.9584    9.4776   10.2489 C   0  0  2  0  0  0  0  0  0  0  0  0
   14.2713    9.9625   10.0622 O   0  0  0  0  0  0  0  0  0  0  0  0
   12.8892    7.9886    9.7928 C   0  0  2  0  0  0  0  0  0  0  0  0
   11.5478    7.5244    9.9709 O   0  0  0  0  0  0  0  0  0  0  0  0
   13.8646    7.0742   10.6038 C   0  0  0  0  0  0  0  0  0  0  0  0
   15.2277    7.3436   10.3030 N   0  0  0  0  0  0  0  0  0  0  0  0
   10.7114    4.0136    6.9952 C   0  0  2  0  0  0  0  0  0  0  0  0
   10.7263    2.7547    6.2397 N   0  0  0  0  0  0  0  0  0  0  0  0
    9.3997    4.8763    6.5859 C   0  0  0  0  0  0  0  0  0  0  0  0
    9.3964    6.2387    7.3927 C   0  0  2  0  0  0  0  0  0  0  0  0
    8.2326    7.0677    7.0322 N   0  0  0  0  0  0  0  0  0  0  0  0
   10.7153    7.0267    7.0887 C   0  0  2  0  0  0  0  0  0  0  0  0
   11.9719    6.1722    7.4609 C   0  0  2  0  0  0  0  0  0  0  0  0
   13.1294    6.9784    7.1304 O   0  0  0  0  0  0  0  0  0  0  0  0
   11.9642    4.8358    6.6513 C   0  0  1  0  0  0  0  0  0  0  0  0
   13.0803    4.0941    7.0116 O   0  0  0  0  0  0  0  0  0  0  0  0
   13.4510    7.4200    5.8903 C   0  0  1  0  0  0  0  0  0  0  0  0
   14.7026    8.3349    5.9333 C   0  0  2  0  0  0  0  0  0  0  0  0
   14.4008    9.6636    6.2470 O   0  0  0  0  0  0  0  0  0  0  0  0
   15.2844    8.0215    4.5673 C   0  0  1  0  0  0  0  0  0  0  0  0
   15.0416    6.5267    4.3155 C   0  0  2  0  0  0  0  0  0  0  0  0
   13.7632    6.3733    4.9317 O   0  0  0  0  0  0  0  0  0  0  0  0
   16.1061    5.5565    4.9321 C   0  0  0  0  0  0  0  0  0  0  0  0
   17.3686    5.8140    4.2620 O   0  0  0  0  0  0  0  0  0  0  0  0
   15.0218   10.1879    3.4013 C   0  0  2  0  0  0  0  0  0  0  0  0
   14.5760    8.8705    3.5742 O   0  0  0  0  0  0  0  0  0  0  0  0
   13.8317   11.1496    2.9671 C   0  0  1  0  0  0  0  0  0  0  0  0
   18.5061   12.7545    0.5775 N   0  0  0  0  0  0  0  0  0  0  0  0
   14.4614   12.6273    2.7761 C   0  0  1  0  0  0  0  0  0  0  0  0
   15.0931   13.0436    4.0895 O   0  0  0  0  0  0  0  0  0  0  0  0
   15.5743   12.6046    1.5983 C   0  0  2  0  0  0  0  0  0  0  0  0
   14.9455   12.2139    0.3541 O   0  0  0  0  0  0  0  0  0  0  0  0
   16.7570   11.5817    2.0619 C   0  0  1  0  0  0  0  0  0  0  0  0
   16.1645   10.2285    2.3447 O   0  0  0  0  0  0  0  0  0  0  0  0
   17.8912   11.4541    0.9856 C   0  0  0  0  0  0  0  0  0  0  0  0
   13.1737   10.6244    1.7253 N   0  0  0  0  0  0  0  0  0  0  0  0
  1  2  1  6  0  0  0
  1  3  1  0  0  0  0
  1 10  1  0  0  0  0
  3  4  1  6  0  0  0
  3  5  1  0  0  0  0
  5  6  1  1  0  0  0
  5  7  1  0  0  0  0
  7  8  1  6  0  0  0
  7  9  1  0  0  0  0
  9 10  1  0  0  0  0
  9 11  1  1  0  0  0
 11 12  1  0  0  0  0
 13 14  1  6  0  0  0
 13 15  1  0  0  0  0
 13 21  1  0  0  0  0
 16 15  1  0  0  0  0
 16 17  1  6  0  0  0
 18  2  1  1  0  0  0
 18 16  1  0  0  0  0
 19 18  1  0  0  0  0
 19 20  1  6  0  0  0
 21 19  1  0  0  0  0
 21 22  1  1  0  0  0
 23 20  1  1  0  0  0
 23 24  1  0  0  0  0
 23 28  1  0  0  0  0
 24 25  1  6  0  0  0
 24 26  1  0  0  0  0
 26 27  1  0  0  0  0
 26 32  1  6  0  0  0
 27 28  1  0  0  0  0
 27 29  1  1  0  0  0
 29 30  1  0  0  0  0
 31 32  1  6  0  0  0
 31 40  1  0  0  0  0
 33 31  1  0  0  0  0
 33 42  1  6  0  0  0
 35 33  1  0  0  0  0
 35 36  1  1  0  0  0
 37 35  1  0  0  0  0
 37 38  1  6  0  0  0
 37 39  1  0  0  0  0
 39 40  1  0  0  0  0
 39 41  1  6  0  0  0
 41 34  1  0  0  0  0
M  END
>  <CHROM.1>
-178.55370316,-69.16541361,53.10465950,-61.79000719,176.08578075,83.06673717
-65.03471541,-150.17999955,55.05657162,13.39999785,8.52105261,6.01939905
2.85232720,-0.99696835,-2.88848164

>  <Name>
2et4_lig

>  <RI>
0

>  <Rbt.Current_Directory>
/home/itssahil/PROJECTS/Mol_Feturizer/New_Systems/rnas/2et4

>  <Rbt.Executable>
rbdock ($Id: //depot/dev/client3/rdock/2013.1/src/exe/rbdock.cxx#4 $)

>  <Rbt.Library>
libRbt.so (2013.1, Build901 2013/11/27)

>  <Rbt.Parameter_File>
/export/apps/rDock/src/rDock_2013.1_src/data/scripts/dock_solv.prm

>  <Rbt.Receptor>
prm/pocket_docking_5.prm

>  <SCORE>
-22.4232

>  <SCORE.INTER>
-15.2344

>  <SCORE.INTER.CONST>
1

>  <SCORE.INTER.POLAR>
-2.62209

>  <SCORE.INTER.ROT>
9

>  <SCORE.INTER.SOLV>
21.1409

>  <SCORE.INTER.VDW>
-18.0629

>  <SCORE.INTER.norm>
-0.362724

>  <SCORE.INTRA>
-7.18882

>  <SCORE.INTRA.DIHEDRAL>
-14.8509

>  <SCORE.INTRA.DIHEDRAL.0>
21.6909

>  <SCORE.INTRA.POLAR>
0

>  <SCORE.INTRA.POLAR.0>
0

>  <SCORE.INTRA.REPUL>
0

>  <SCORE.INTRA.REPUL.0>
0

>  <SCORE.INTRA.SOLV>
-2.13686

>  <SCORE.INTRA.SOLV.lig_0>
-116.606

>  <SCORE.INTRA.VDW>
1.30504

>  <SCORE.INTRA.VDW.0>
-6.01229

>  <SCORE.INTRA.norm>
-0.171162

>  <SCORE.RESTR>
0

>  <SCORE.RESTR.CAVITY>
0

>  <SCORE.RESTR.norm>
0

>  <SCORE.SYSTEM>
0

>  <SCORE.SYSTEM.CONST>
0

>  <SCORE.SYSTEM.DIHEDRAL>
0

>  <SCORE.SYSTEM.SOLV>
0

>  <SCORE.SYSTEM.norm>
0

>  <SCORE.heavy>
42

>  <SCORE.norm>
-0.533886

>  <RMSD>
9.021

$$$$
2et4_lig
 OpenBabel11021811423D
libRbt.so/2013.1/901 2013/11/27
 42 45  0  0  0  0  0  0  0  0999 V2000
   18.3325    4.8706    5.0726 C   0  0  2  0  0  0  0  0  0  0  0  0
   17.0773    5.0176    5.7397 O   0  0  0  0  0  0  0  0  0  0  0  0
   18.0384    4.8203    3.5515 C   0  0  2  0  0  0  0  0  0  0  0  0
   17.3338    5.9981    3.1135 N   0  0  0  0  0  0  0  0  0  0  0  0
   17.2295    3.5312    3.2275 C   0  0  1  0  0  0  0  0  0  0  0  0
   16.9805    3.4802    1.8574 O   0  0  0  0  0  0  0  0  0  0  0  0
   18.0536    2.2978    3.7270 C   0  0  2  0  0  0  0  0  0  0  0  0
   17.3512    1.1027    3.4589 O   0  0  0  0  0  0  0  0  0  0  0  0
   18.3326    2.3994    5.2573 C   0  0  2  0  0  0  0  0  0  0  0  0
   19.0257    3.6254    5.5088 O   0  0  0  0  0  0  0  0  0  0  0  0
   19.1907    1.2030    5.7843 C   0  0  0  0  0  0  0  0  0  0  0  0
   19.3549    1.2411    7.1959 N   0  0  0  0  0  0  0  0  0  0  0  0
   15.8605    6.1431    9.7281 C   0  0  2  0  0  0  0  0  0  0  0  0
   15.6878    6.9450   10.9458 N   0  0  0  0  0  0  0  0  0  0  0  0
   17.4427    5.9299    9.4389 C   0  0  0  0  0  0  0  0  0  0  0  0
   17.6230    5.0770    8.1171 C   0  0  2  0  0  0  0  0  0  0  0  0
   19.0490    4.8802    7.8014 N   0  0  0  0  0  0  0  0  0  0  0  0
   16.9186    5.8090    6.9253 C   0  0  2  0  0  0  0  0  0  0  0  0
   15.4005    6.0337    7.2299 C   0  0  2  0  0  0  0  0  0  0  0  0
   14.8493    6.7249    6.0821 O   0  0  0  0  0  0  0  0  0  0  0  0
   15.2401    6.8828    8.5317 C   0  0  1  0  0  0  0  0  0  0  0  0
   13.8863    7.0537    8.7840 O   0  0  0  0  0  0  0  0  0  0  0  0
   14.8051    8.0697    5.9216 C   0  0  1  0  0  0  0  0  0  0  0  0
   15.0920    8.4636    4.4492 C   0  0  2  0  0  0  0  0  0  0  0  0
   16.4573    8.5487    4.1598 O   0  0  0  0  0  0  0  0  0  0  0  0
   14.2475    9.7212    4.3611 C   0  0  1  0  0  0  0  0  0  0  0  0
   12.9798    9.4614    5.1871 C   0  0  2  0  0  0  0  0  0  0  0  0
   13.5286    8.6819    6.2496 O   0  0  0  0  0  0  0  0  0  0  0  0
   11.8309    8.7020    4.4401 C   0  0  0  0  0  0  0  0  0  0  0  0
   10.8554    8.2998    5.4380 O   0  0  0  0  0  0  0  0  0  0  0  0
   15.7410   11.6644    4.0219 C   0  0  2  0  0  0  0  0  0  0  0  0
   15.0510   10.8394    4.9204 O   0  0  0  0  0  0  0  0  0  0  0  0
   14.7657   12.7181    3.3374 C   0  0  1  0  0  0  0  0  0  0  0  0
   18.9237   11.1418   -0.0047 N   0  0  0  0  0  0  0  0  0  0  0  0
   15.6586   13.5948    2.3123 C   0  0  1  0  0  0  0  0  0  0  0  0
   16.7673   14.2599    3.1034 O   0  0  0  0  0  0  0  0  0  0  0  0
   16.2831   12.6353    1.1653 C   0  0  2  0  0  0  0  0  0  0  0  0
   15.2061   12.0199    0.4186 O   0  0  0  0  0  0  0  0  0  0  0  0
   17.2452   11.5474    1.9074 C   0  0  1  0  0  0  0  0  0  0  0  0
   16.4483   10.7976    2.9391 O   0  0  0  0  0  0  0  0  0  0  0  0
   17.8949   10.5384    0.8969 C   0  0  0  0  0  0  0  0  0  0  0  0
   13.6282   12.0056    2.6672 N   0  0  0  0  0  0  0  0  0  0  0  0
  1  2  1  1  0  0  0
  1  3  1  0  0  0  0
  1 10  1  0  0  0  0
  3  4  1  1  0  0  0
  3  5  1  0  0  0  0
  5  6  1  6  0  0  0
  5  7  1  0  0  0  0
  7  8  1  1  0  0  0
  7  9  1  0  0  0  0
  9 10  1  0  0  0  0
  9 11  1  6  0  0  0
 11 12  1  0  0  0  0
 13 14  1  1  0  0  0
 13 15  1  0  0  0  0
 13 21  1  0  0  0  0
 16 15  1  0  0  0  0
 16 17  1  6  0  0  0
 18  2  1  6  0  0  0
 18 16  1  0  0  0  0
 19 18  1  0  0  0  0
 19 20  1  6  0  0  0
 21 19  1  0  0  0  0
 21 22  1  1  0  0  0
 23 20  1  6  0  0  0
 23 24  1  0  0  0  0
 23 28  1  0  0  0  0
 24 25  1  1  0  0  0
 24 26  1  0  0  0  0
 26 27  1  0  0  0  0
 26 32  1  1  0  0  0
 27 28  1  0  0  0  0
 27 29  1  6  0  0  0
 29 30  1  0  0  0  0
 31 32  1  1  0  0  0
 31 40  1  0  0  0  0
 33 31  1  0  0  0  0
 33 42  1  6  0  0  0
 35 33  1  0  0  0  0
 35 36  1  1  0  0  0
 37 35  1  0  0  0  0
 37 38  1  1  0  0  0
 37 39  1  0  0  0  0
 39 40  1  0  0  0  0
 39 41  1  6  0  0  0
 41 34  1  0  0  0  0
M  END
>  <CHROM.1>
-143.78242972,-175.35561914,-70.86014384,-89.03159842,141.47215970,97.52721757
168.02585872,78.41430877,69.48792805,16.20598938,7.49914905,4.86210492,-1.14296676
0.93212311,-0.75523791

>  <Name>
2et4_lig

>  <RI>
0

>  <Rbt.Current_Directory>
/home/itssahil/PROJECTS/Mol_Feturizer/New_Systems/rnas/2et4

>  <Rbt.Executable>
rbdock ($Id: //depot/dev/client3/rdock/2013.1/src/exe/rbdock.cxx#4 $)

>  <Rbt.Library>
libRbt.so (2013.1, Build901 2013/11/27)

>  <Rbt.Parameter_File>
/export/apps/rDock/src/rDock_2013.1_src/data/scripts/dock_solv.prm

>  <Rbt.Receptor>
prm/pocket_docking_6.prm

>  <SCORE>
-14.4117

>  <SCORE.INTER>
-17.7177

>  <SCORE.INTER.CONST>
1

>  <SCORE.INTER.POLAR>
-2.03969

>  <SCORE.INTER.ROT>
9

>  <SCORE.INTER.SOLV>
27.1408

>  <SCORE.INTER.VDW>
-23.6597

>  <SCORE.INTER.norm>
-0.42185

>  <SCORE.INTRA>
3.30599

>  <SCORE.INTRA.DIHEDRAL>
-0.256364

>  <SCORE.INTRA.DIHEDRAL.0>
21.6909

>  <SCORE.INTRA.POLAR>
0

>  <SCORE.INTRA.POLAR.0>
0

>  <SCORE.INTRA.REPUL>
0

>  <SCORE.INTRA.REPUL.0>
0

>  <SCORE.INTRA.SOLV>
2.87034

>  <SCORE.INTRA.SOLV.lig_0>
-116.606

>  <SCORE.INTRA.VDW>
1.999

>  <SCORE.INTRA.VDW.0>
-6.01229

>  <SCORE.INTRA.norm>
0.078714

>  <SCORE.RESTR>
0

>  <SCORE.RESTR.CAVITY>
0

>  <SCORE.RESTR.norm>
0

>  <SCORE.SYSTEM>
0

>  <SCORE.SYSTEM.CONST>
0

>  <SCORE.SYSTEM.DIHEDRAL>
0

>  <SCORE.SYSTEM.SOLV>
0

>  <SCORE.SYSTEM.norm>
0

>  <SCORE.heavy>
42

>  <SCORE.norm>
-0.343136

>  <RMSD>
9.023

$$$$
2et4_lig
 OpenBabel11021811423D
libRbt.so/2013.1/901 2013/11/27
 42 45  0  0  0  0  0  0  0  0999 V2000
   12.5056    7.8727   13.0651 C   0  0  2  0  0  0  0  0  0  0  0  0
   11.3018    8.3265   12.4429 O   0  0  0  0  0  0  0  0  0  0  0  0
   13.6862    8.3654   12.1898 C   0  0  2  0  0  0  0  0  0  0  0  0
   13.6674    9.7983   12.0410 N   0  0  0  0  0  0  0  0  0  0  0  0
   13.6287    7.6581   10.8051 C   0  0  1  0  0  0  0  0  0  0  0  0
   14.7002    8.0907   10.0262 O   0  0  0  0  0  0  0  0  0  0  0  0
   13.6553    6.1115   11.0442 C   0  0  2  0  0  0  0  0  0  0  0  0
   13.5973    5.4276    9.8103 O   0  0  0  0  0  0  0  0  0  0  0  0
   12.4569    5.6670   11.9365 C   0  0  2  0  0  0  0  0  0  0  0  0
   12.5234    6.3861   13.1715 O   0  0  0  0  0  0  0  0  0  0  0  0
   12.4745    4.1313   12.2310 C   0  0  0  0  0  0  0  0  0  0  0  0
   13.6153    3.7426   12.9852 N   0  0  0  0  0  0  0  0  0  0  0  0
    8.1736    5.9281   14.2084 C   0  0  2  0  0  0  0  0  0  0  0  0
    6.8444    5.5199   14.6799 N   0  0  0  0  0  0  0  0  0  0  0  0
    8.6290    7.2829   14.9761 C   0  0  0  0  0  0  0  0  0  0  0  0
   10.0563    7.7263   14.4534 C   0  0  2  0  0  0  0  0  0  0  0  0
   10.4994    8.9705   15.1071 N   0  0  0  0  0  0  0  0  0  0  0  0
    9.9994    7.9405   12.9031 C   0  0  2  0  0  0  0  0  0  0  0  0
    9.5312    6.6355   12.1783 C   0  0  2  0  0  0  0  0  0  0  0  0
    9.4979    6.9414   10.7625 O   0  0  0  0  0  0  0  0  0  0  0  0
    8.1190    6.2160   12.6992 C   0  0  1  0  0  0  0  0  0  0  0  0
    7.7366    5.0505   12.0503 O   0  0  0  0  0  0  0  0  0  0  0  0
   10.5835    7.0918    9.9656 C   0  0  1  0  0  0  0  0  0  0  0  0
   10.2613    6.6833    8.5045 C   0  0  2  0  0  0  0  0  0  0  0  0
   10.3797    5.3083    8.2801 O   0  0  0  0  0  0  0  0  0  0  0  0
   11.1987    7.6257    7.7724 C   0  0  1  0  0  0  0  0  0  0  0  0
   11.1977    8.9466    8.5548 C   0  0  2  0  0  0  0  0  0  0  0  0
   11.1010    8.4475    9.8887 O   0  0  0  0  0  0  0  0  0  0  0  0
   10.0280    9.9319    8.2147 C   0  0  0  0  0  0  0  0  0  0  0  0
    8.7848    9.2681    8.5654 O   0  0  0  0  0  0  0  0  0  0  0  0
   13.5776    7.6709    7.0939 C   0  0  2  0  0  0  0  0  0  0  0  0
   12.5442    6.9948    7.7565 O   0  0  0  0  0  0  0  0  0  0  0  0
   13.2275    7.9027    5.5598 C   0  0  1  0  0  0  0  0  0  0  0  0
   18.6350    7.0913    6.2037 N   0  0  0  0  0  0  0  0  0  0  0  0
   14.4898    8.6651    4.8950 C   0  0  1  0  0  0  0  0  0  0  0  0
   14.7024    9.9657    5.6439 O   0  0  0  0  0  0  0  0  0  0  0  0
   15.8125    7.7342    4.9968 C   0  0  2  0  0  0  0  0  0  0  0  0
   15.5884    6.5041    4.2671 O   0  0  0  0  0  0  0  0  0  0  0  0
   16.1173    7.4881    6.5800 C   0  0  1  0  0  0  0  0  0  0  0  0
   14.9085    6.8750    7.2319 O   0  0  0  0  0  0  0  0  0  0  0  0
   17.3707    6.5734    6.8110 C   0  0  0  0  0  0  0  0  0  0  0  0
   12.9167    6.5917    4.9000 N   0  0  0  0  0  0  0  0  0  0  0  0
  1  2  1  6  0  0  0
  1  3  1  0  0  0  0
  1 10  1  0  0  0  0
  3  4  1  6  0  0  0
  3  5  1  0  0  0  0
  5  6  1  6  0  0  0
  5  7  1  0  0  0  0
  7  8  1  6  0  0  0
  7  9  1  0  0  0  0
  9 10  1  0  0  0  0
  9 11  1  1  0  0  0
 11 12  1  0  0  0  0
 13 14  1  1  0  0  0
 13 15  1  0  0  0  0
 13 21  1  0  0  0  0
 16 15  1  0  0  0  0
 16 17  1  1  0  0  0
 18  2  1  6  0  0  0
 18 16  1  0  0  0  0
 19 18  1  0  0  0  0
 19 20  1  6  0  0  0
 21 19  1  0  0  0  0
 21 22  1  6  0  0  0
 23 20  1  1  0  0  0
 23 24  1  0  0  0  0
 23 28  1  0  0  0  0
 24 25  1  1  0  0  0
 24 26  1  0  0  0  0
 26 27  1  0  0  0  0
 26 32  1  1  0  0  0
 27 28  1  0  0  0  0
 27 29  1  6  0  0  0
 29 30  1  0  0  0  0
 31 32  1  6  0  0  0
 31 40  1  0  0  0  0
 33 31  1  0  0  0  0
 33 42  1  6  0  0  0
 35 33  1  0  0  0  0
 35 36  1  1  0  0  0
 37 35  1  0  0  0  0
 37 38  1  6  0  0  0
 37 39  1  0  0  0  0
 39 40  1  0  0  0  0
 39 41  1  6  0  0  0
 41 34  1  0  0  0  0
M  END
>  <CHROM.1>
173.51666856,63.79940175,31.64471677,73.32734271,150.48539025,178.20808545
62.42013515,-59.23002840,58.02052036,12.15288413,7.21236842,9.90734631,-2.23426793
0.13541411,-1.35524623

>  <Name>
2et4_lig

>  <RI>
3.65815e+07

>  <Rbt.Current_Directory>
/home/itssahil/PROJECTS/Mol_Feturizer/New_Systems/rnas/2et4

>  <Rbt.Executable>
rbdock ($Id: //depot/dev/client3/rdock/2013.1/src/exe/rbdock.cxx#4 $)

>  <Rbt.Library>
libRbt.so (2013.1, Build901 2013/11/27)

>  <Rbt.Parameter_File>
/export/apps/rDock/src/rDock_2013.1_src/data/scripts/dock_solv.prm

>  <Rbt.Receptor>
prm/pocket_docking_4.prm

>  <SCORE>
-10.1191

>  <SCORE.INTER>
-6.12717

>  <SCORE.INTER.CONST>
1

>  <SCORE.INTER.POLAR>
-1.74114

>  <SCORE.INTER.ROT>
9

>  <SCORE.INTER.SOLV>
14.7232

>  <SCORE.INTER.VDW>
-12.7887

>  <SCORE.INTER.norm>
-0.145885

>  <SCORE.INTRA>
-3.99904

>  <SCORE.INTRA.DIHEDRAL>
-13.575

>  <SCORE.INTRA.DIHEDRAL.0>
21.6909

>  <SCORE.INTRA.POLAR>
0

>  <SCORE.INTRA.POLAR.0>
0

>  <SCORE.INTRA.REPUL>
0.585123

>  <SCORE.INTRA.REPUL.0>
0

>  <SCORE.INTRA.SOLV>
1.74109

>  <SCORE.INTRA.SOLV.lig_0>
-116.606

>  <SCORE.INTRA.VDW>
-1.00772

>  <SCORE.INTRA.VDW.0>
-6.01229

>  <SCORE.INTRA.norm>
-0.0952153

>  <SCORE.RESTR>
0.00713012

>  <SCORE.RESTR.CAVITY>
0.00713012

>  <SCORE.RESTR.norm>
0.000169765

>  <SCORE.SYSTEM>
0

>  <SCORE.SYSTEM.CONST>
0

>  <SCORE.SYSTEM.DIHEDRAL>
0

>  <SCORE.SYSTEM.SOLV>
0

>  <SCORE.SYSTEM.norm>
0

>  <SCORE.heavy>
42

>  <SCORE.norm>
-0.240931

>  <RMSD>
9.036

$$$$
2et4_lig
 OpenBabel11021811423D
libRbt.so/2013.1/901 2013/11/27
 42 45  0  0  0  0  0  0  0  0999 V2000
   11.4666    6.4836    9.6405 C   0  0  2  0  0  0  0  0  0  0  0  0
   12.6836    7.1508    9.3000 O   0  0  0  0  0  0  0  0  0  0  0  0
   11.2510    6.6753   11.1635 C   0  0  2  0  0  0  0  0  0  0  0  0
   11.2134    8.0715   11.5170 N   0  0  0  0  0  0  0  0  0  0  0  0
   12.3767    5.9317   11.9388 C   0  0  1  0  0  0  0  0  0  0  0  0
   12.1713    6.0921   13.3077 O   0  0  0  0  0  0  0  0  0  0  0  0
   12.3558    4.4271   11.5081 C   0  0  2  0  0  0  0  0  0  0  0  0
   13.3693    3.7136   12.1843 O   0  0  0  0  0  0  0  0  0  0  0  0
   12.5657    4.2871    9.9698 C   0  0  2  0  0  0  0  0  0  0  0  0
   11.5417    5.0333    9.3053 O   0  0  0  0  0  0  0  0  0  0  0  0
   12.5092    2.7976    9.4968 C   0  0  0  0  0  0  0  0  0  0  0  0
   11.2366    2.2084    9.7298 N   0  0  0  0  0  0  0  0  0  0  0  0
   12.2597    7.7514    5.0439 C   0  0  2  0  0  0  0  0  0  0  0  0
   12.5814    8.1335    3.6633 N   0  0  0  0  0  0  0  0  0  0  0  0
   12.3362    9.0595    6.0006 C   0  0  0  0  0  0  0  0  0  0  0  0
   12.0027    8.6389    7.4903 C   0  0  2  0  0  0  0  0  0  0  0  0
   12.0858    9.7948    8.4007 N   0  0  0  0  0  0  0  0  0  0  0  0
   13.0078    7.5319    7.9559 C   0  0  2  0  0  0  0  0  0  0  0  0
   12.9441    6.2888    7.0079 C   0  0  2  0  0  0  0  0  0  0  0  0
   13.9136    5.3376    7.5123 O   0  0  0  0  0  0  0  0  0  0  0  0
   13.2830    6.7190    5.5445 C   0  0  1  0  0  0  0  0  0  0  0  0
   13.2052    5.6012    4.7259 O   0  0  0  0  0  0  0  0  0  0  0  0
   15.2490    5.3823    7.2864 C   0  0  1  0  0  0  0  0  0  0  0  0
   15.8869    6.6209    7.9679 C   0  0  2  0  0  0  0  0  0  0  0  0
   15.7925    7.7822    7.1948 O   0  0  0  0  0  0  0  0  0  0  0  0
   17.2621    6.0552    8.2704 C   0  0  1  0  0  0  0  0  0  0  0  0
   17.0589    4.5852    8.6637 C   0  0  2  0  0  0  0  0  0  0  0  0
   15.9908    4.2358    7.7835 O   0  0  0  0  0  0  0  0  0  0  0  0
   16.6841    4.3332   10.1639 C   0  0  0  0  0  0  0  0  0  0  0  0
   16.5464    2.8985   10.3423 O   0  0  0  0  0  0  0  0  0  0  0  0
   19.3273    5.5477    7.0060 C   0  0  2  0  0  0  0  0  0  0  0  0
   18.0813    6.1884    7.0375 O   0  0  0  0  0  0  0  0  0  0  0  0
   20.3040    6.2325    5.9539 C   0  0  1  0  0  0  0  0  0  0  0  0
   19.0843    1.0812    7.2235 N   0  0  0  0  0  0  0  0  0  0  0  0
   21.6928    5.4036    5.9864 C   0  0  1  0  0  0  0  0  0  0  0  0
   22.2375    5.4525    7.4000 O   0  0  0  0  0  0  0  0  0  0  0  0
   21.4299    3.8689    5.5371 C   0  0  2  0  0  0  0  0  0  0  0  0
   20.9196    3.8484    4.1823 O   0  0  0  0  0  0  0  0  0  0  0  0
   20.3973    3.2131    6.6157 C   0  0  1  0  0  0  0  0  0  0  0  0
   19.1414    4.0387    6.6707 O   0  0  0  0  0  0  0  0  0  0  0  0
   20.0430    1.7237    6.2729 C   0  0  0  0  0  0  0  0  0  0  0  0
   19.6633    6.2557    4.5975 N   0  0  0  0  0  0  0  0  0  0  0  0
  1  2  1  1  0  0  0
  1  3  1  0  0  0  0
  1 10  1  0  0  0  0
  3  4  1  6  0  0  0
  3  5  1  0  0  0  0
  5  6  1  1  0  0  0
  5  7  1  0  0  0  0
  7  8  1  1  0  0  0
  7  9  1  0  0  0  0
  9 10  1  0  0  0  0
  9 11  1  6  0  0  0
 11 12  1  0  0  0  0
 13 14  1  6  0  0  0
 13 15  1  0  0  0  0
 13 21  1  0  0  0  0
 16 15  1  0  0  0  0
 16 17  1  1  0  0  0
 18  2  1  1  0  0  0
 18 16  1  0  0  0  0
 19 18  1  0  0  0  0
 19 20  1  1  0  0  0
 21 19  1  0  0  0  0
 21 22  1  6  0  0  0
 23 20  1  1  0  0  0
 23 24  1  0  0  0  0
 23 28  1  0  0  0  0
 24 25  1  6  0  0  0
 24 26  1  0  0  0  0
 26 27  1  0  0  0  0
 26 32  1  6  0  0  0
 27 28  1  0  0  0  0
 27 29  1  1  0  0  0
 29 30  1  0  0  0  0
 31 32  1  6  0  0  0
 31 40  1  0  0  0  0
 33 31  1  0  0  0  0
 33 42  1  6  0  0  0
 35 33  1  0  0  0  0
 35 36  1  1  0  0  0
 37 35  1  0  0  0  0
 37 38  1  6  0  0  0
 37 39  1  0  0  0  0
 39 40  1  0  0  0  0
 39 41  1  6  0  0  0
 41 34  1  0  0  0  0
M  END
>  <CHROM.1>
-160.93362634,63.06748920,66.39375973,-80.45300757,66.45303812,-170.34643707
-179.52528906,-156.60209032,-179.25798186,15.38010550,5.50892663,7.97846576
2.97414157,-0.41949081,2.22656660

>  <Name>
2et4_lig

>  <RI>
0

>  <Rbt.Current_Directory>
/home/itssahil/PROJECTS/Mol_Feturizer/New_Systems/rnas/2et4

>  <Rbt.Executable>
rbdock ($Id: //depot/dev/client3/rdock/2013.1/src/exe/rbdock.cxx#4 $)

>  <Rbt.Library>
libRbt.so (2013.1, Build901 2013/11/27)

>  <Rbt.Parameter_File>
/export/apps/rDock/src/rDock_2013.1_src/data/scripts/dock_solv.prm

>  <Rbt.Receptor>
prm/pocket_docking_5.prm

>  <SCORE>
-12.9506

>  <SCORE.INTER>
-6.25688

>  <SCORE.INTER.CONST>
1

>  <SCORE.INTER.POLAR>
-1.80719

>  <SCORE.INTER.ROT>
9

>  <SCORE.INTER.SOLV>
13.8551

>  <SCORE.INTER.VDW>
-12.3657

>  <SCORE.INTER.norm>
-0.148973

>  <SCORE.INTRA>
-7.01252

>  <SCORE.INTRA.DIHEDRAL>
-14.7406

>  <SCORE.INTRA.DIHEDRAL.0>
21.6909

>  <SCORE.INTRA.POLAR>
0

>  <SCORE.INTRA.POLAR.0>
0

>  <SCORE.INTRA.REPUL>
0

>  <SCORE.INTRA.REPUL.0>
0

>  <SCORE.INTRA.SOLV>
-1.15766

>  <SCORE.INTRA.SOLV.lig_0>
-116.606

>  <SCORE.INTRA.VDW>
0.936595

>  <SCORE.INTRA.VDW.0>
-6.01229

>  <SCORE.INTRA.norm>
-0.166965

>  <SCORE.RESTR>
0.318781

>  <SCORE.RESTR.CAVITY>
0.318781

>  <SCORE.RESTR.norm>
0.00759001

>  <SCORE.SYSTEM>
0

>  <SCORE.SYSTEM.CONST>
0

>  <SCORE.SYSTEM.DIHEDRAL>
0

>  <SCORE.SYSTEM.SOLV>
0

>  <SCORE.SYSTEM.norm>
0

>  <SCORE.heavy>
42

>  <SCORE.norm>
-0.308348

>  <RMSD>
9.037

$$$$
2et4_lig
 OpenBabel11021811423D
libRbt.so/2013.1/901 2013/11/27
 42 45  0  0  0  0  0  0  0  0999 V2000
   15.1542    6.7409   12.7431 C   0  0  2  0  0  0  0  0  0  0  0  0
   14.2532    7.5805   12.0182 O   0  0  0  0  0  0  0  0  0  0  0  0
   16.0913    6.0725   11.7050 C   0  0  2  0  0  0  0  0  0  0  0  0
   16.7912    7.0564   10.9191 N   0  0  0  0  0  0  0  0  0  0  0  0
   15.2578    5.1216   10.7983 C   0  0  1  0  0  0  0  0  0  0  0  0
   16.1052    4.5099    9.8767 O   0  0  0  0  0  0  0  0  0  0  0  0
   14.5308    4.0829   11.7163 C   0  0  2  0  0  0  0  0  0  0  0  0
   13.7543    3.2014   10.9330 O   0  0  0  0  0  0  0  0  0  0  0  0
   13.6102    4.8025   12.7480 C   0  0  2  0  0  0  0  0  0  0  0  0
   14.4124    5.7045   13.5159 O   0  0  0  0  0  0  0  0  0  0  0  0
   12.8985    3.7963   13.7105 C   0  0  0  0  0  0  0  0  0  0  0  0
   11.6376    3.3734   13.2080 N   0  0  0  0  0  0  0  0  0  0  0  0
   12.8141   11.6474   12.2286 C   0  0  2  0  0  0  0  0  0  0  0  0
   12.8200   13.1119   12.3335 N   0  0  0  0  0  0  0  0  0  0  0  0
   13.5008   11.0060   13.5512 C   0  0  0  0  0  0  0  0  0  0  0  0
   13.5047    9.4276   13.4259 C   0  0  2  0  0  0  0  0  0  0  0  0
   14.1443    8.8025   14.5973 N   0  0  0  0  0  0  0  0  0  0  0  0
   14.2715    9.0106   12.1256 C   0  0  2  0  0  0  0  0  0  0  0  0
   13.6163    9.6592   10.8616 C   0  0  2  0  0  0  0  0  0  0  0  0
   14.4023    9.2268    9.7239 O   0  0  0  0  0  0  0  0  0  0  0  0
   13.6273   11.2158   10.9972 C   0  0  1  0  0  0  0  0  0  0  0  0
   13.0287   11.7620    9.8707 O   0  0  0  0  0  0  0  0  0  0  0  0
   13.9272    9.0297    8.4702 C   0  0  1  0  0  0  0  0  0  0  0  0
   12.9762    7.8054    8.4223 C   0  0  2  0  0  0  0  0  0  0  0  0
   13.6525    6.5904    8.2768 O   0  0  0  0  0  0  0  0  0  0  0  0
   12.0449    8.2597    7.3136 C   0  0  1  0  0  0  0  0  0  0  0  0
   11.8566    9.7734    7.4867 C   0  0  2  0  0  0  0  0  0  0  0  0
   13.1647   10.1401    7.9249 O   0  0  0  0  0  0  0  0  0  0  0  0
   10.7554   10.2036    8.5149 C   0  0  0  0  0  0  0  0  0  0  0  0
   11.2222    9.8229    9.8363 O   0  0  0  0  0  0  0  0  0  0  0  0
   12.6059    8.8667    4.9816 C   0  0  2  0  0  0  0  0  0  0  0  0
   12.6962    7.9291    6.0193 O   0  0  0  0  0  0  0  0  0  0  0  0
   12.8165    8.1813    3.5619 C   0  0  1  0  0  0  0  0  0  0  0  0
   16.1270   11.8315    4.0060 N   0  0  0  0  0  0  0  0  0  0  0  0
   12.7144    9.3518    2.4501 C   0  0  1  0  0  0  0  0  0  0  0  0
   11.3545   10.0082    2.5806 O   0  0  0  0  0  0  0  0  0  0  0  0
   13.8905   10.4413    2.6866 C   0  0  2  0  0  0  0  0  0  0  0  0
   15.1776    9.7930    2.5476 O   0  0  0  0  0  0  0  0  0  0  0  0
   13.6634   11.0940    4.1639 C   0  0  1  0  0  0  0  0  0  0  0  0
   13.6510   10.0005    5.1965 O   0  0  0  0  0  0  0  0  0  0  0  0
   14.7618   12.1552    4.5225 C   0  0  0  0  0  0  0  0  0  0  0  0
   14.1280    7.4532    3.5324 N   0  0  0  0  0  0  0  0  0  0  0  0
  1  2  1  6  0  0  0
  1  3  1  0  0  0  0
  1 10  1  0  0  0  0
  3  4  1  6  0  0  0
  3  5  1  0  0  0  0
  5  6  1  6  0  0  0
  5  7  1  0  0  0  0
  7  8  1  6  0  0  0
  7  9  1  0  0  0  0
  9 10  1  0  0  0  0
  9 11  1  1  0  0  0
 11 12  1  0  0  0  0
 13 14  1  1  0  0  0
 13 15  1  0  0  0  0
 13 21  1  0  0  0  0
 16 15  1  0  0  0  0
 16 17  1  1  0  0  0
 18  2  1  6  0  0  0
 18 16  1  0  0  0  0
 19 18  1  0  0  0  0
 19 20  1  6  0  0  0
 21 19  1  0  0  0  0
 21 22  1  6  0  0  0
 23 20  1  1  0  0  0
 23 24  1  0  0  0  0
 23 28  1  0  0  0  0
 24 25  1  6  0  0  0
 24 26  1  0  0  0  0
 26 27  1  0  0  0  0
 26 32  1  6  0  0  0
 27 28  1  0  0  0  0
 27 29  1  1  0  0  0
 29 30  1  0  0  0  0
 31 32  1  1  0  0  0
 31 40  1  0  0  0  0
 33 31  1  0  0  0  0
 33 42  1  1  0  0  0
 35 33  1  0  0  0  0
 35 36  1  1  0  0  0
 37 35  1  0  0  0  0
 37 38  1  1  0  0  0
 37 39  1  0  0  0  0
 39 40  1  0  0  0  0
 39 41  1  1  0  0  0
 41 34  1  0  0  0  0
M  END
>  <CHROM.1>
-112.91975303,-90.62492027,-80.64486808,148.97924012,-68.35992218,-139.40625569
67.87424128,-157.58022216,-35.65891287,13.65127306,8.45556956,8.92997342
-1.16398272,1.42359356,-1.58079713

>  <Name>
2et4_lig

>  <RI>
0

>  <Rbt.Current_Directory>
/home/itssahil/PROJECTS/Mol_Feturizer/New_Systems/rnas/2et4

>  <Rbt.Executable>
rbdock ($Id: //depot/dev/client3/rdock/2013.1/src/exe/rbdock.cxx#4 $)

>  <Rbt.Library>
libRbt.so (2013.1, Build901 2013/11/27)

>  <Rbt.Parameter_File>
/export/apps/rDock/src/rDock_2013.1_src/data/scripts/dock_solv.prm

>  <Rbt.Receptor>
prm/blind_docking_40.prm

>  <SCORE>
26.6188

>  <SCORE.INTER>
-0.792181

>  <SCORE.INTER.CONST>
1

>  <SCORE.INTER.POLAR>
-0.724498

>  <SCORE.INTER.ROT>
9

>  <SCORE.INTER.SOLV>
31.3155

>  <SCORE.INTER.VDW>
-18.1516

>  <SCORE.INTER.norm>
-0.0188615

>  <SCORE.INTRA>
5.66376

>  <SCORE.INTRA.DIHEDRAL>
3.88315

>  <SCORE.INTRA.DIHEDRAL.0>
21.6909

>  <SCORE.INTRA.POLAR>
0

>  <SCORE.INTRA.POLAR.0>
0

>  <SCORE.INTRA.REPUL>
0.00453705

>  <SCORE.INTRA.REPUL.0>
0

>  <SCORE.INTRA.SOLV>
2.63173

>  <SCORE.INTRA.SOLV.lig_0>
-116.606

>  <SCORE.INTRA.VDW>
2.38363

>  <SCORE.INTRA.VDW.0>
-6.01229

>  <SCORE.INTRA.norm>
0.134851

>  <SCORE.RESTR>
21.7472

>  <SCORE.RESTR.CAVITY>
21.7472

>  <SCORE.RESTR.norm>
0.51779

>  <SCORE.SYSTEM>
0

>  <SCORE.SYSTEM.CONST>
0

>  <SCORE.SYSTEM.DIHEDRAL>
0

>  <SCORE.SYSTEM.SOLV>
0

>  <SCORE.SYSTEM.norm>
0

>  <SCORE.heavy>
42

>  <SCORE.norm>
0.63378

>  <RMSD>
9.041

$$$$
2et4_lig
 OpenBabel11021811423D
libRbt.so/2013.1/901 2013/11/27
 42 45  0  0  0  0  0  0  0  0999 V2000
   13.4003    5.2786   12.1323 C   0  0  2  0  0  0  0  0  0  0  0  0
   14.4368    6.1471   11.6700 O   0  0  0  0  0  0  0  0  0  0  0  0
   14.0684    3.9337   12.5163 C   0  0  2  0  0  0  0  0  0  0  0  0
   15.0932    4.1215   13.5114 N   0  0  0  0  0  0  0  0  0  0  0  0
   14.6471    3.2641   11.2365 C   0  0  1  0  0  0  0  0  0  0  0  0
   15.2327    2.0478   11.5821 O   0  0  0  0  0  0  0  0  0  0  0  0
   13.4819    3.0899   10.2059 C   0  0  2  0  0  0  0  0  0  0  0  0
   13.9650    2.4905    9.0224 O   0  0  0  0  0  0  0  0  0  0  0  0
   12.8363    4.4660    9.8601 C   0  0  2  0  0  0  0  0  0  0  0  0
   12.3727    5.0643   11.0742 O   0  0  0  0  0  0  0  0  0  0  0  0
   11.6396    4.3257    8.8633 C   0  0  0  0  0  0  0  0  0  0  0  0
   10.5496    3.6107    9.4305 N   0  0  0  0  0  0  0  0  0  0  0  0
   12.3438    9.8856   11.1246 C   0  0  2  0  0  0  0  0  0  0  0  0
   12.0962   11.2971   10.8051 N   0  0  0  0  0  0  0  0  0  0  0  0
   13.4356    9.7837   12.3204 C   0  0  0  0  0  0  0  0  0  0  0  0
   13.7094    8.2595   12.6508 C   0  0  2  0  0  0  0  0  0  0  0  0
   14.7170    8.1189   13.7169 N   0  0  0  0  0  0  0  0  0  0  0  0
   14.2081    7.5283   11.3588 C   0  0  2  0  0  0  0  0  0  0  0  0
   13.1589    7.6594   10.2057 C   0  0  2  0  0  0  0  0  0  0  0  0
   13.7177    6.9684    9.0614 O   0  0  0  0  0  0  0  0  0  0  0  0
   12.9060    9.1679    9.8867 C   0  0  1  0  0  0  0  0  0  0  0  0
   11.9630    9.2533    8.8722 O   0  0  0  0  0  0  0  0  0  0  0  0
   14.9371    7.2047    8.5196 C   0  0  1  0  0  0  0  0  0  0  0  0
   15.2713    6.1578    7.4251 C   0  0  2  0  0  0  0  0  0  0  0  0
   15.8124    4.9767    7.9421 O   0  0  0  0  0  0  0  0  0  0  0  0
   16.1300    7.0172    6.5157 C   0  0  1  0  0  0  0  0  0  0  0  0
   15.5105    8.4218    6.5202 C   0  0  2  0  0  0  0  0  0  0  0  0
   15.0793    8.5011    7.8787 O   0  0  0  0  0  0  0  0  0  0  0  0
   14.3256    8.6404    5.5188 C   0  0  0  0  0  0  0  0  0  0  0  0
   13.8691   10.0099    5.6781 O   0  0  0  0  0  0  0  0  0  0  0  0
   18.4849    6.2657    6.4097 C   0  0  2  0  0  0  0  0  0  0  0  0
   17.5077    7.0199    7.0732 O   0  0  0  0  0  0  0  0  0  0  0  0
   18.9803    6.9959    5.0864 C   0  0  1  0  0  0  0  0  0  0  0  0
   17.0006    2.6134    4.1722 N   0  0  0  0  0  0  0  0  0  0  0  0
   20.0815    6.0324    4.3967 C   0  0  1  0  0  0  0  0  0  0  0  0
   21.2035    5.8117    5.3916 O   0  0  0  0  0  0  0  0  0  0  0  0
   19.4011    4.6182    3.9926 C   0  0  2  0  0  0  0  0  0  0  0  0
   18.3404    4.8542    3.0359 O   0  0  0  0  0  0  0  0  0  0  0  0
   18.8732    3.9182    5.3677 C   0  0  1  0  0  0  0  0  0  0  0  0
   17.9276    4.8517    6.0723 O   0  0  0  0  0  0  0  0  0  0  0  0
   18.1678    2.5419    5.1039 C   0  0  0  0  0  0  0  0  0  0  0  0
   17.8113    7.2889    4.1929 N   0  0  0  0  0  0  0  0  0  0  0  0
  1  2  1  6  0  0  0
  1  3  1  0  0  0  0
  1 10  1  0  0  0  0
  3  4  1  1  0  0  0
  3  5  1  0  0  0  0
  5  6  1  1  0  0  0
  5  7  1  0  0  0  0
  7  8  1  6  0  0  0
  7  9  1  0  0  0  0
  9 10  1  0  0  0  0
  9 11  1  6  0  0  0
 11 12  1  0  0  0  0
 13 14  1  6  0  0  0
 13 15  1  0  0  0  0
 13 21  1  0  0  0  0
 16 15  1  0  0  0  0
 16 17  1  1  0  0  0
 18  2  1  1  0  0  0
 18 16  1  0  0  0  0
 19 18  1  0  0  0  0
 19 20  1  6  0  0  0
 21 19  1  0  0  0  0
 21 22  1  6  0  0  0
 23 20  1  6  0  0  0
 23 24  1  0  0  0  0
 23 28  1  0  0  0  0
 24 25  1  1  0  0  0
 24 26  1  0  0  0  0
 26 27  1  0  0  0  0
 26 32  1  1  0  0  0
 27 28  1  0  0  0  0
 27 29  1  6  0  0  0
 29 30  1  0  0  0  0
 31 32  1  6  0  0  0
 31 40  1  0  0  0  0
 33 31  1  0  0  0  0
 33 42  1  6  0  0  0
 35 33  1  0  0  0  0
 35 36  1  1  0  0  0
 37 35  1  0  0  0  0
 37 38  1  6  0  0  0
 37 39  1  0  0  0  0
 39 40  1  0  0  0  0
 39 41  1  6  0  0  0
 41 34  1  0  0  0  0
M  END
>  <CHROM.1>
-173.34544234,65.29945736,60.90559523,-54.07533323,172.75027240,106.03520563
179.44173211,76.45419762,-57.64669903,15.21361001,6.16795775,8.48230219,-3.04464294
0.89088946,-0.35581927

>  <Name>
2et4_lig

>  <RI>
0

>  <Rbt.Current_Directory>
/home/itssahil/PROJECTS/Mol_Feturizer/New_Systems/rnas/2et4

>  <Rbt.Executable>
rbdock ($Id: //depot/dev/client3/rdock/2013.1/src/exe/rbdock.cxx#4 $)

>  <Rbt.Library>
libRbt.so (2013.1, Build901 2013/11/27)

>  <Rbt.Parameter_File>
/export/apps/rDock/src/rDock_2013.1_src/data/scripts/dock_solv.prm

>  <Rbt.Receptor>
prm/pocket_docking_5.prm

>  <SCORE>
-13.4658

>  <SCORE.INTER>
-8.30449

>  <SCORE.INTER.CONST>
1

>  <SCORE.INTER.POLAR>
-0.916569

>  <SCORE.INTER.ROT>
9

>  <SCORE.INTER.SOLV>
19.4187

>  <SCORE.INTER.VDW>
-18.554

>  <SCORE.INTER.norm>
-0.197726

>  <SCORE.INTRA>
-5.16127

>  <SCORE.INTRA.DIHEDRAL>
-13.2732

>  <SCORE.INTRA.DIHEDRAL.0>
21.6909

>  <SCORE.INTRA.POLAR>
0

>  <SCORE.INTRA.POLAR.0>
0

>  <SCORE.INTRA.REPUL>
0

>  <SCORE.INTRA.REPUL.0>
0

>  <SCORE.INTRA.SOLV>
1.86242

>  <SCORE.INTRA.SOLV.lig_0>
-116.606

>  <SCORE.INTRA.VDW>
0.544135

>  <SCORE.INTRA.VDW.0>
-6.01229

>  <SCORE.INTRA.norm>
-0.122887

>  <SCORE.RESTR>
0

>  <SCORE.RESTR.CAVITY>
0

>  <SCORE.RESTR.norm>
0

>  <SCORE.SYSTEM>
0

>  <SCORE.SYSTEM.CONST>
0

>  <SCORE.SYSTEM.DIHEDRAL>
0

>  <SCORE.SYSTEM.SOLV>
0

>  <SCORE.SYSTEM.norm>
0

>  <SCORE.heavy>
42

>  <SCORE.norm>
-0.320613

>  <RMSD>
9.055

$$$$
2et4_lig
 OpenBabel11021811423D
libRbt.so/2013.1/901 2013/11/27
 42 45  0  0  0  0  0  0  0  0999 V2000
    9.1451    5.5854   10.8813 C   0  0  2  0  0  0  0  0  0  0  0  0
   10.1483    6.1416   10.0290 O   0  0  0  0  0  0  0  0  0  0  0  0
    9.8444    5.1734   12.2018 C   0  0  2  0  0  0  0  0  0  0  0  0
   10.5082    6.2945   12.8167 N   0  0  0  0  0  0  0  0  0  0  0  0
   10.8470    4.0189   11.9131 C   0  0  1  0  0  0  0  0  0  0  0  0
   11.4624    3.6395   13.1044 O   0  0  0  0  0  0  0  0  0  0  0  0
   10.0584    2.8401   11.2510 C   0  0  2  0  0  0  0  0  0  0  0  0
   10.9336    1.7699   10.9644 O   0  0  0  0  0  0  0  0  0  0  0  0
    9.3653    3.3058    9.9347 C   0  0  2  0  0  0  0  0  0  0  0  0
    8.5001    4.4023   10.2443 O   0  0  0  0  0  0  0  0  0  0  0  0
    8.5328    2.1631    9.2666 C   0  0  0  0  0  0  0  0  0  0  0  0
    7.8351    2.6120    8.1121 N   0  0  0  0  0  0  0  0  0  0  0  0
   12.0341    9.9560    9.2884 C   0  0  2  0  0  0  0  0  0  0  0  0
   12.6730   11.2539    9.5396 N   0  0  0  0  0  0  0  0  0  0  0  0
   10.5489    9.9471    9.9413 C   0  0  0  0  0  0  0  0  0  0  0  0
    9.8705    8.5404    9.6799 C   0  0  2  0  0  0  0  0  0  0  0  0
    8.5259    8.4786   10.2798 N   0  0  0  0  0  0  0  0  0  0  0  0
   10.7675    7.4093   10.2869 C   0  0  2  0  0  0  0  0  0  0  0  0
   12.2047    7.4479    9.6698 C   0  0  2  0  0  0  0  0  0  0  0  0
   12.9525    6.3809   10.3032 O   0  0  0  0  0  0  0  0  0  0  0  0
   12.8627    8.8385    9.9430 C   0  0  1  0  0  0  0  0  0  0  0  0
   14.1281    8.8485    9.3733 O   0  0  0  0  0  0  0  0  0  0  0  0
   14.1574    5.9155    9.8935 C   0  0  1  0  0  0  0  0  0  0  0  0
   15.1725    5.8930   11.0659 C   0  0  2  0  0  0  0  0  0  0  0  0
   15.8015    7.1247   11.2712 O   0  0  0  0  0  0  0  0  0  0  0  0
   16.0153    4.7051   10.6399 C   0  0  1  0  0  0  0  0  0  0  0  0
   15.0549    3.6823   10.0168 C   0  0  2  0  0  0  0  0  0  0  0  0
   14.1410    4.5627    9.3631 O   0  0  0  0  0  0  0  0  0  0  0  0
   14.3275    2.7344   11.0303 C   0  0  0  0  0  0  0  0  0  0  0  0
   15.3207    1.8130   11.5533 O   0  0  0  0  0  0  0  0  0  0  0  0
   17.9393    4.2752    9.1449 C   0  0  2  0  0  0  0  0  0  0  0  0
   17.0138    5.1959    9.6546 O   0  0  0  0  0  0  0  0  0  0  0  0
   18.9641    4.9747    8.1499 C   0  0  1  0  0  0  0  0  0  0  0  0
   17.9174   -0.2364    6.6275 N   0  0  0  0  0  0  0  0  0  0  0  0
   19.9629    3.8225    7.6101 C   0  0  1  0  0  0  0  0  0  0  0  0
   20.6520    3.1978    8.8070 O   0  0  0  0  0  0  0  0  0  0  0  0
   19.1227    2.7012    6.7957 C   0  0  2  0  0  0  0  0  0  0  0  0
   18.4825    3.3196    5.6538 O   0  0  0  0  0  0  0  0  0  0  0  0
   18.0594    2.0341    7.8370 C   0  0  1  0  0  0  0  0  0  0  0  0
   17.1930    3.1132    8.4260 O   0  0  0  0  0  0  0  0  0  0  0  0
   17.1630    0.9414    7.1559 C   0  0  0  0  0  0  0  0  0  0  0  0
   18.2182    5.6707    7.0498 N   0  0  0  0  0  0  0  0  0  0  0  0
  1  2  1  6  0  0  0
  1  3  1  0  0  0  0
  1 10  1  0  0  0  0
  3  4  1  6  0  0  0
  3  5  1  0  0  0  0
  5  6  1  1  0  0  0
  5  7  1  0  0  0  0
  7  8  1  6  0  0  0
  7  9  1  0  0  0  0
  9 10  1  0  0  0  0
  9 11  1  1  0  0  0
 11 12  1  0  0  0  0
 13 14  1  1  0  0  0
 13 15  1  0  0  0  0
 13 21  1  0  0  0  0
 16 15  1  0  0  0  0
 16 17  1  1  0  0  0
 18  2  1  6  0  0  0
 18 16  1  0  0  0  0
 19 18  1  0  0  0  0
 19 20  1  1  0  0  0
 21 19  1  0  0  0  0
 21 22  1  6  0  0  0
 23 20  1  1  0  0  0
 23 24  1  0  0  0  0
 23 28  1  0  0  0  0
 24 25  1  6  0  0  0
 24 26  1  0  0  0  0
 26 27  1  0  0  0  0
 26 32  1  6  0  0  0
 27 28  1  0  0  0  0
 27 29  1  1  0  0  0
 29 30  1  0  0  0  0
 31 32  1  6  0  0  0
 31 40  1  0  0  0  0
 33 31  1  0  0  0  0
 33 42  1  6  0  0  0
 35 33  1  0  0  0  0
 35 36  1  1  0  0  0
 37 35  1  0  0  0  0
 37 38  1  6  0  0  0
 37 39  1  0  0  0  0
 39 40  1  0  0  0  0
 39 41  1  6  0  0  0
 41 34  1  0  0  0  0
M  END
>  <CHROM.1>
-70.22028584,176.35744372,-85.44379754,167.61939909,128.27868309,178.09904450
-71.00191624,-177.87865708,62.42459653,13.70396433,4.98282432,9.69085307
2.79416665,0.28176874,0.03332891

>  <Name>
2et4_lig

>  <RI>
1.79929e+07

>  <Rbt.Current_Directory>
/home/itssahil/PROJECTS/Mol_Feturizer/New_Systems/rnas/2et4

>  <Rbt.Executable>
rbdock ($Id: //depot/dev/client3/rdock/2013.1/src/exe/rbdock.cxx#4 $)

>  <Rbt.Library>
libRbt.so (2013.1, Build901 2013/11/27)

>  <Rbt.Parameter_File>
/export/apps/rDock/src/rDock_2013.1_src/data/scripts/dock_solv.prm

>  <Rbt.Receptor>
prm/pocket_docking_7.prm

>  <SCORE>
-10.1931

>  <SCORE.INTER>
-5.87717

>  <SCORE.INTER.CONST>
1

>  <SCORE.INTER.POLAR>
-1.62346

>  <SCORE.INTER.ROT>
9

>  <SCORE.INTER.SOLV>
16.5288

>  <SCORE.INTER.VDW>
-13.6162

>  <SCORE.INTER.norm>
-0.139933

>  <SCORE.INTRA>
-4.31593

>  <SCORE.INTRA.DIHEDRAL>
-10.1334

>  <SCORE.INTRA.DIHEDRAL.0>
21.6909

>  <SCORE.INTRA.POLAR>
0

>  <SCORE.INTRA.POLAR.0>
0

>  <SCORE.INTRA.REPUL>
0

>  <SCORE.INTRA.REPUL.0>
0

>  <SCORE.INTRA.SOLV>
-0.775535

>  <SCORE.INTRA.SOLV.lig_0>
-116.606

>  <SCORE.INTRA.VDW>
1.13852

>  <SCORE.INTRA.VDW.0>
-6.01229

>  <SCORE.INTRA.norm>
-0.10276

>  <SCORE.RESTR>
0

>  <SCORE.RESTR.CAVITY>
0

>  <SCORE.RESTR.norm>
0

>  <SCORE.SYSTEM>
0

>  <SCORE.SYSTEM.CONST>
0

>  <SCORE.SYSTEM.DIHEDRAL>
0

>  <SCORE.SYSTEM.SOLV>
0

>  <SCORE.SYSTEM.norm>
0

>  <SCORE.heavy>
42

>  <SCORE.norm>
-0.242693

>  <RMSD>
9.055

$$$$
2et4_lig
 OpenBabel11021811423D
libRbt.so/2013.1/901 2013/11/27
 42 45  0  0  0  0  0  0  0  0999 V2000
    9.6530    3.3705   11.3544 C   0  0  2  0  0  0  0  0  0  0  0  0
   10.0272    4.7038   11.0016 O   0  0  0  0  0  0  0  0  0  0  0  0
    8.1851    3.1719   10.8981 C   0  0  2  0  0  0  0  0  0  0  0  0
    8.0369    3.4136    9.4855 N   0  0  0  0  0  0  0  0  0  0  0  0
    7.2588    4.1084   11.7264 C   0  0  1  0  0  0  0  0  0  0  0  0
    5.9382    3.9162   11.3254 O   0  0  0  0  0  0  0  0  0  0  0  0
    7.4706    3.7887   13.2439 C   0  0  2  0  0  0  0  0  0  0  0  0
    6.6520    4.6234   14.0355 O   0  0  0  0  0  0  0  0  0  0  0  0
    8.9614    3.9925   13.6514 C   0  0  2  0  0  0  0  0  0  0  0  0
    9.7735    3.1540   12.8242 O   0  0  0  0  0  0  0  0  0  0  0  0
    9.2187    3.6418   15.1534 C   0  0  0  0  0  0  0  0  0  0  0  0
   10.5053    4.0609   15.5896 N   0  0  0  0  0  0  0  0  0  0  0  0
   13.5822    7.1559   11.0631 C   0  0  2  0  0  0  0  0  0  0  0  0
   14.9760    7.5745   10.8686 N   0  0  0  0  0  0  0  0  0  0  0  0
   13.5380    5.8428   12.0150 C   0  0  0  0  0  0  0  0  0  0  0  0
   12.0340    5.3875   12.2094 C   0  0  2  0  0  0  0  0  0  0  0  0
   11.9482    4.1794   13.0489 N   0  0  0  0  0  0  0  0  0  0  0  0
   11.3923    5.0998   10.8101 C   0  0  2  0  0  0  0  0  0  0  0  0
   11.4679    6.3651    9.8930 C   0  0  2  0  0  0  0  0  0  0  0  0
   10.8667    5.9924    8.6286 O   0  0  0  0  0  0  0  0  0  0  0  0
   12.9578    6.7965    9.7049 C   0  0  1  0  0  0  0  0  0  0  0  0
   12.9927    7.9267    8.9005 O   0  0  0  0  0  0  0  0  0  0  0  0
   10.8460    6.7599    7.5120 C   0  0  1  0  0  0  0  0  0  0  0  0
    9.9461    6.1269    6.4189 C   0  0  2  0  0  0  0  0  0  0  0  0
   10.6084    5.1622    5.6534 O   0  0  0  0  0  0  0  0  0  0  0  0
    9.4595    7.3920    5.7367 C   0  0  1  0  0  0  0  0  0  0  0  0
    9.2517    8.4380    6.8410 C   0  0  2  0  0  0  0  0  0  0  0  0
   10.3374    8.1072    7.7068 O   0  0  0  0  0  0  0  0  0  0  0  0
    7.8734    8.3720    7.5829 C   0  0  0  0  0  0  0  0  0  0  0  0
    7.7542    7.0451    8.1611 O   0  0  0  0  0  0  0  0  0  0  0  0
   11.7414    8.2345    5.2842 C   0  0  2  0  0  0  0  0  0  0  0  0
   10.5083    7.8106    4.7705 O   0  0  0  0  0  0  0  0  0  0  0  0
   12.4864    9.2086    4.2714 C   0  0  1  0  0  0  0  0  0  0  0  0
   16.0578    6.1309    7.1851 N   0  0  0  0  0  0  0  0  0  0  0  0
   13.8964    9.6136    4.9531 C   0  0  1  0  0  0  0  0  0  0  0  0
   13.6029   10.2760    6.2845 O   0  0  0  0  0  0  0  0  0  0  0  0
   14.8042    8.2890    5.1713 C   0  0  2  0  0  0  0  0  0  0  0  0
   15.0784    7.6806    3.8865 O   0  0  0  0  0  0  0  0  0  0  0  0
   13.9924    7.3003    6.1829 C   0  0  1  0  0  0  0  0  0  0  0  0
   12.6354    7.0015    5.6073 O   0  0  0  0  0  0  0  0  0  0  0  0
   14.7638    5.9617    6.4555 C   0  0  0  0  0  0  0  0  0  0  0  0
   12.6472    8.5389    2.9386 N   0  0  0  0  0  0  0  0  0  0  0  0
  1  2  1  1  0  0  0
  1  3  1  0  0  0  0
  1 10  1  0  0  0  0
  3  4  1  6  0  0  0
  3  5  1  0  0  0  0
  5  6  1  6  0  0  0
  5  7  1  0  0  0  0
  7  8  1  1  0  0  0
  7  9  1  0  0  0  0
  9 10  1  0  0  0  0
  9 11  1  1  0  0  0
 11 12  1  0  0  0  0
 13 14  1  6  0  0  0
 13 15  1  0  0  0  0
 13 21  1  0  0  0  0
 16 15  1  0  0  0  0
 16 17  1  1  0  0  0
 18  2  1  1  0  0  0
 18 16  1  0  0  0  0
 19 18  1  0  0  0  0
 19 20  1  6  0  0  0
 21 19  1  0  0  0  0
 21 22  1  6  0  0  0
 23 20  1  1  0  0  0
 23 24  1  0  0  0  0
 23 28  1  0  0  0  0
 24 25  1  6  0  0  0
 24 26  1  0  0  0  0
 26 27  1  0  0  0  0
 26 32  1  6  0  0  0
 27 28  1  0  0  0  0
 27 29  1  1  0  0  0
 29 30  1  0  0  0  0
 31 32  1  6  0  0  0
 31 40  1  0  0  0  0
 33 31  1  0  0  0  0
 33 42  1  6  0  0  0
 35 33  1  0  0  0  0
 35 36  1  1  0  0  0
 37 35  1  0  0  0  0
 37 38  1  6  0  0  0
 37 39  1  0  0  0  0
 39 40  1  0  0  0  0
 39 41  1  6  0  0  0
 41 34  1  0  0  0  0
M  END
>  <CHROM.1>
-156.62041079,-168.97663226,-81.67165942,-173.26820103,-171.89490725,-66.54992840
58.17973824,-155.11298762,65.13219632,11.06624378,6.23564781,8.93322521,2.03617846
0.17939802,1.97285837

>  <Name>
2et4_lig

>  <RI>
0

>  <Rbt.Current_Directory>
/home/itssahil/PROJECTS/Mol_Feturizer/New_Systems/rnas/2et4

>  <Rbt.Executable>
rbdock ($Id: //depot/dev/client3/rdock/2013.1/src/exe/rbdock.cxx#4 $)

>  <Rbt.Library>
libRbt.so (2013.1, Build901 2013/11/27)

>  <Rbt.Parameter_File>
/export/apps/rDock/src/rDock_2013.1_src/data/scripts/dock_solv.prm

>  <Rbt.Receptor>
prm/pocket_docking_3.prm

>  <SCORE>
-8.12635

>  <SCORE.INTER>
-7.95398

>  <SCORE.INTER.CONST>
1

>  <SCORE.INTER.POLAR>
-1.74114

>  <SCORE.INTER.ROT>
9

>  <SCORE.INTER.SOLV>
13.0852

>  <SCORE.INTER.VDW>
-13.4606

>  <SCORE.INTER.norm>
-0.18938

>  <SCORE.INTRA>
-0.684721

>  <SCORE.INTRA.DIHEDRAL>
-13.1498

>  <SCORE.INTRA.DIHEDRAL.0>
21.6909

>  <SCORE.INTRA.POLAR>
0

>  <SCORE.INTRA.POLAR.0>
0

>  <SCORE.INTRA.REPUL>
0.0382112

>  <SCORE.INTRA.REPUL.0>
0

>  <SCORE.INTRA.SOLV>
4.40509

>  <SCORE.INTRA.SOLV.lig_0>
-116.606

>  <SCORE.INTRA.VDW>
3.49656

>  <SCORE.INTRA.VDW.0>
-6.01229

>  <SCORE.INTRA.norm>
-0.0163029

>  <SCORE.RESTR>
0.51235

>  <SCORE.RESTR.CAVITY>
0.51235

>  <SCORE.RESTR.norm>
0.0121988

>  <SCORE.SYSTEM>
0

>  <SCORE.SYSTEM.CONST>
0

>  <SCORE.SYSTEM.DIHEDRAL>
0

>  <SCORE.SYSTEM.SOLV>
0

>  <SCORE.SYSTEM.norm>
0

>  <SCORE.heavy>
42

>  <SCORE.norm>
-0.193485

>  <RMSD>
9.057

$$$$
2et4_lig
 OpenBabel11021811423D
libRbt.so/2013.1/901 2013/11/27
 42 45  0  0  0  0  0  0  0  0999 V2000
    9.0088    3.4908   11.7776 C   0  0  2  0  0  0  0  0  0  0  0  0
    9.7766    4.1408   10.7626 O   0  0  0  0  0  0  0  0  0  0  0  0
    8.2308    2.3376   11.0939 C   0  0  2  0  0  0  0  0  0  0  0  0
    9.1240    1.4228   10.4297 N   0  0  0  0  0  0  0  0  0  0  0  0
    7.1984    2.9361   10.0953 C   0  0  1  0  0  0  0  0  0  0  0  0
    6.4894    1.8980    9.4942 O   0  0  0  0  0  0  0  0  0  0  0  0
    6.2645    3.9135   10.8843 C   0  0  2  0  0  0  0  0  0  0  0  0
    5.3133    4.4870   10.0126 O   0  0  0  0  0  0  0  0  0  0  0  0
    7.0926    5.0474   11.5613 C   0  0  2  0  0  0  0  0  0  0  0  0
    8.0623    4.4443   12.4231 O   0  0  0  0  0  0  0  0  0  0  0  0
    6.1954    6.0206   12.3940 C   0  0  0  0  0  0  0  0  0  0  0  0
    6.9484    7.0723   12.9840 N   0  0  0  0  0  0  0  0  0  0  0  0
   11.9031    7.1811   12.9739 C   0  0  2  0  0  0  0  0  0  0  0  0
   12.8588    8.2525   13.2814 N   0  0  0  0  0  0  0  0  0  0  0  0
   12.7102    5.8435   12.5360 C   0  0  0  0  0  0  0  0  0  0  0  0
   11.6746    4.6962   12.1918 C   0  0  2  0  0  0  0  0  0  0  0  0
   12.3653    3.4671   11.7632 N   0  0  0  0  0  0  0  0  0  0  0  0
   10.7174    5.1839   11.0523 C   0  0  2  0  0  0  0  0  0  0  0  0
    9.9678    6.4899   11.4767 C   0  0  2  0  0  0  0  0  0  0  0  0
    9.1269    6.8629   10.3574 O   0  0  0  0  0  0  0  0  0  0  0  0
   11.0027    7.6135   11.8051 C   0  0  1  0  0  0  0  0  0  0  0  0
   10.3108    8.7528   12.1910 O   0  0  0  0  0  0  0  0  0  0  0  0
    9.5583    7.0961    9.0941 C   0  0  1  0  0  0  0  0  0  0  0  0
    8.4514    7.7736    8.2449 C   0  0  2  0  0  0  0  0  0  0  0  0
    7.5500    6.8607    7.6889 O   0  0  0  0  0  0  0  0  0  0  0  0
    9.3231    8.5971    7.3150 C   0  0  1  0  0  0  0  0  0  0  0  0
   10.5095    9.0990    8.1500 C   0  0  2  0  0  0  0  0  0  0  0  0
   10.7167    7.9681    8.9960 O   0  0  0  0  0  0  0  0  0  0  0  0
   10.2497   10.4049    8.9756 C   0  0  0  0  0  0  0  0  0  0  0  0
   11.4863   10.7399    9.6596 O   0  0  0  0  0  0  0  0  0  0  0  0
   10.7254    8.1970    5.3162 C   0  0  2  0  0  0  0  0  0  0  0  0
    9.7637    7.7064    6.2098 O   0  0  0  0  0  0  0  0  0  0  0  0
   10.7402    7.3593    3.9642 C   0  0  1  0  0  0  0  0  0  0  0  0
   14.9902    7.2222    6.3824 N   0  0  0  0  0  0  0  0  0  0  0  0
   11.8935    7.9949    3.0248 C   0  0  1  0  0  0  0  0  0  0  0  0
   11.5634    9.4567    2.7974 O   0  0  0  0  0  0  0  0  0  0  0  0
   13.3364    7.8496    3.7482 C   0  0  2  0  0  0  0  0  0  0  0  0
   13.6328    6.4463    3.9457 O   0  0  0  0  0  0  0  0  0  0  0  0
   13.2704    8.6884    5.1453 C   0  0  1  0  0  0  0  0  0  0  0  0
   12.1321    8.1745    5.9832 O   0  0  0  0  0  0  0  0  0  0  0  0
   14.6110    8.6041    5.9557 C   0  0  0  0  0  0  0  0  0  0  0  0
   10.9583    5.9053    4.2629 N   0  0  0  0  0  0  0  0  0  0  0  0
  1  2  1  6  0  0  0
  1  3  1  0  0  0  0
  1 10  1  0  0  0  0
  3  4  1  6  0  0  0
  3  5  1  0  0  0  0
  5  6  1  1  0  0  0
  5  7  1  0  0  0  0
  7  8  1  6  0  0  0
  7  9  1  0  0  0  0
  9 10  1  0  0  0  0
  9 11  1  1  0  0  0
 11 12  1  0  0  0  0
 13 14  1  6  0  0  0
 13 15  1  0  0  0  0
 13 21  1  0  0  0  0
 16 15  1  0  0  0  0
 16 17  1  6  0  0  0
 18  2  1  1  0  0  0
 18 16  1  0  0  0  0
 19 18  1  0  0  0  0
 19 20  1  6  0  0  0
 21 19  1  0  0  0  0
 21 22  1  1  0  0  0
 23 20  1  1  0  0  0
 23 24  1  0  0  0  0
 23 28  1  0  0  0  0
 24 25  1  6  0  0  0
 24 26  1  0  0  0  0
 26 27  1  0  0  0  0
 26 32  1  6  0  0  0
 27 28  1  0  0  0  0
 27 29  1  1  0  0  0
 29 30  1  0  0  0  0
 31 32  1  1  0  0  0
 31 40  1  0  0  0  0
 33 31  1  0  0  0  0
 33 42  1  1  0  0  0
 35 33  1  0  0  0  0
 35 36  1  1  0  0  0
 37 35  1  0  0  0  0
 37 38  1  1  0  0  0
 37 39  1  0  0  0  0
 39 40  1  0  0  0  0
 39 41  1  1  0  0  0
 41 34  1  0  0  0  0
M  END
>  <CHROM.1>
-174.20016799,-178.58330790,50.82119053,-56.95132448,-167.25857927,-171.75399717
-178.32638610,-161.39297658,-61.74695642,10.16861542,6.53134313,8.99135284
2.24189863,0.73258911,1.58877516

>  <Name>
2et4_lig

>  <RI>
0

>  <Rbt.Current_Directory>
/home/itssahil/PROJECTS/Mol_Feturizer/New_Systems/rnas/2et4

>  <Rbt.Executable>
rbdock ($Id: //depot/dev/client3/rdock/2013.1/src/exe/rbdock.cxx#4 $)

>  <Rbt.Library>
libRbt.so (2013.1, Build901 2013/11/27)

>  <Rbt.Parameter_File>
/export/apps/rDock/src/rDock_2013.1_src/data/scripts/dock_solv.prm

>  <Rbt.Receptor>
prm/pocket_docking_6.prm

>  <SCORE>
-12.7955

>  <SCORE.INTER>
-4.4297

>  <SCORE.INTER.CONST>
1

>  <SCORE.INTER.POLAR>
0

>  <SCORE.INTER.ROT>
9

>  <SCORE.INTER.SOLV>
10.1586

>  <SCORE.INTER.VDW>
-15.9393

>  <SCORE.INTER.norm>
-0.105469

>  <SCORE.INTRA>
-8.36578

>  <SCORE.INTRA.DIHEDRAL>
-18.2038

>  <SCORE.INTRA.DIHEDRAL.0>
21.6909

>  <SCORE.INTRA.POLAR>
0

>  <SCORE.INTRA.POLAR.0>
0

>  <SCORE.INTRA.REPUL>
0

>  <SCORE.INTRA.REPUL.0>
0

>  <SCORE.INTRA.SOLV>
0.0450609

>  <SCORE.INTRA.SOLV.lig_0>
-116.606

>  <SCORE.INTRA.VDW>
0.713566

>  <SCORE.INTRA.VDW.0>
-6.01229

>  <SCORE.INTRA.norm>
-0.199185

>  <SCORE.RESTR>
0

>  <SCORE.RESTR.CAVITY>
0

>  <SCORE.RESTR.norm>
0

>  <SCORE.SYSTEM>
0

>  <SCORE.SYSTEM.CONST>
0

>  <SCORE.SYSTEM.DIHEDRAL>
0

>  <SCORE.SYSTEM.SOLV>
0

>  <SCORE.SYSTEM.norm>
0

>  <SCORE.heavy>
42

>  <SCORE.norm>
-0.304654

>  <RMSD>
9.096

$$$$
2et4_lig
 OpenBabel11021811423D
libRbt.so/2013.1/901 2013/11/27
 42 45  0  0  0  0  0  0  0  0999 V2000
   15.4367    5.5130   12.0751 C   0  0  2  0  0  0  0  0  0  0  0  0
   14.4628    6.4975   11.7224 O   0  0  0  0  0  0  0  0  0  0  0  0
   16.6515    5.7139   11.1335 C   0  0  2  0  0  0  0  0  0  0  0  0
   17.1798    7.0504   11.2357 N   0  0  0  0  0  0  0  0  0  0  0  0
   16.2272    5.3900    9.6720 C   0  0  1  0  0  0  0  0  0  0  0  0
   17.3251    5.5558    8.8300 O   0  0  0  0  0  0  0  0  0  0  0  0
   15.6683    3.9284    9.6372 C   0  0  2  0  0  0  0  0  0  0  0  0
   15.2632    3.5937    8.3268 O   0  0  0  0  0  0  0  0  0  0  0  0
   14.4571    3.7740   10.6063 C   0  0  2  0  0  0  0  0  0  0  0  0
   14.8837    4.1373   11.9226 O   0  0  0  0  0  0  0  0  0  0  0  0
   13.8981    2.3137   10.6288 C   0  0  0  0  0  0  0  0  0  0  0  0
   13.6720    1.8054    9.3205 N   0  0  0  0  0  0  0  0  0  0  0  0
   13.5139   10.6160   12.6126 C   0  0  2  0  0  0  0  0  0  0  0  0
   13.6912   12.0505   12.8707 N   0  0  0  0  0  0  0  0  0  0  0  0
   14.3352    9.7602   13.7196 C   0  0  0  0  0  0  0  0  0  0  0  0
   14.1522    8.2147   13.4278 C   0  0  2  0  0  0  0  0  0  0  0  0
   14.9043    7.3977   14.3966 N   0  0  0  0  0  0  0  0  0  0  0  0
   14.6490    7.8966   11.9771 C   0  0  2  0  0  0  0  0  0  0  0  0
   13.8690    8.7497   10.9227 C   0  0  2  0  0  0  0  0  0  0  0  0
   14.4094    8.3947    9.6262 O   0  0  0  0  0  0  0  0  0  0  0  0
   14.0659   10.2710   11.2198 C   0  0  1  0  0  0  0  0  0  0  0  0
   13.3530   11.0010   10.2793 O   0  0  0  0  0  0  0  0  0  0  0  0
   14.3614    9.1702    8.5160 C   0  0  1  0  0  0  0  0  0  0  0  0
   14.5759    8.3217    7.2355 C   0  0  2  0  0  0  0  0  0  0  0  0
   15.9253    8.1088    6.9378 O   0  0  0  0  0  0  0  0  0  0  0  0
   13.7318    9.1247    6.2632 C   0  0  1  0  0  0  0  0  0  0  0  0
   12.5060    9.6183    7.0446 C   0  0  2  0  0  0  0  0  0  0  0  0
   13.1046    9.8718    8.3155 O   0  0  0  0  0  0  0  0  0  0  0  0
   11.3191    8.6012    7.1518 C   0  0  0  0  0  0  0  0  0  0  0  0
   10.2490    9.2576    7.8819 O   0  0  0  0  0  0  0  0  0  0  0  0
   14.8565   10.3081    4.4042 C   0  0  2  0  0  0  0  0  0  0  0  0
   14.5656   10.2535    5.7740 O   0  0  0  0  0  0  0  0  0  0  0  0
   15.6596   11.6304    4.0351 C   0  0  1  0  0  0  0  0  0  0  0  0
   11.4370    9.0321    1.8852 N   0  0  0  0  0  0  0  0  0  0  0  0
   15.9194   11.5978    2.4388 C   0  0  1  0  0  0  0  0  0  0  0  0
   16.6967   10.3379    2.1136 O   0  0  0  0  0  0  0  0  0  0  0  0
   14.5041   11.6056    1.6494 C   0  0  2  0  0  0  0  0  0  0  0  0
   13.7856   12.8214    1.9685 O   0  0  0  0  0  0  0  0  0  0  0  0
   13.6952   10.2568    2.0812 C   0  0  1  0  0  0  0  0  0  0  0  0
   13.5403   10.2246    3.5768 O   0  0  0  0  0  0  0  0  0  0  0  0
   12.2873   10.1604    1.3959 C   0  0  0  0  0  0  0  0  0  0  0  0
   14.8922   12.8394    4.4826 N   0  0  0  0  0  0  0  0  0  0  0  0
  1  2  1  6  0  0  0
  1  3  1  0  0  0  0
  1 10  1  0  0  0  0
  3  4  1  6  0  0  0
  3  5  1  0  0  0  0
  5  6  1  6  0  0  0
  5  7  1  0  0  0  0
  7  8  1  6  0  0  0
  7  9  1  0  0  0  0
  9 10  1  0  0  0  0
  9 11  1  1  0  0  0
 11 12  1  0  0  0  0
 13 14  1  1  0  0  0
 13 15  1  0  0  0  0
 13 21  1  0  0  0  0
 16 15  1  0  0  0  0
 16 17  1  1  0  0  0
 18  2  1  6  0  0  0
 18 16  1  0  0  0  0
 19 18  1  0  0  0  0
 19 20  1  6  0  0  0
 21 19  1  0  0  0  0
 21 22  1  6  0  0  0
 23 20  1  1  0  0  0
 23 24  1  0  0  0  0
 23 28  1  0  0  0  0
 24 25  1  6  0  0  0
 24 26  1  0  0  0  0
 26 27  1  0  0  0  0
 26 32  1  1  0  0  0
 27 28  1  0  0  0  0
 27 29  1  1  0  0  0
 29 30  1  0  0  0  0
 31 32  1  1  0  0  0
 31 40  1  0  0  0  0
 33 31  1  0  0  0  0
 33 42  1  6  0  0  0
 35 33  1  0  0  0  0
 35 36  1  1  0  0  0
 37 35  1  0  0  0  0
 37 38  1  1  0  0  0
 37 39  1  0  0  0  0
 39 40  1  0  0  0  0
 39 41  1  6  0  0  0
 41 34  1  0  0  0  0
M  END
>  <CHROM.1>
-69.66699379,-49.52254324,-86.68725546,-156.66775947,-160.40973972,117.61677723
-178.24962433,175.66485946,-172.84747047,14.36657658,8.39852897,8.09431440
-1.14579079,1.37447191,-1.48153091

>  <Name>
2et4_lig

>  <RI>
0

>  <Rbt.Current_Directory>
/home/itssahil/PROJECTS/Mol_Feturizer/New_Systems/rnas/2et4

>  <Rbt.Executable>
rbdock ($Id: //depot/dev/client3/rdock/2013.1/src/exe/rbdock.cxx#4 $)

>  <Rbt.Library>
libRbt.so (2013.1, Build901 2013/11/27)

>  <Rbt.Parameter_File>
/export/apps/rDock/src/rDock_2013.1_src/data/scripts/dock_solv.prm

>  <Rbt.Receptor>
prm/blind_docking_40.prm

>  <SCORE>
13.2382

>  <SCORE.INTER>
-7.12329

>  <SCORE.INTER.CONST>
1

>  <SCORE.INTER.POLAR>
-1.47833

>  <SCORE.INTER.ROT>
9

>  <SCORE.INTER.SOLV>
40.7342

>  <SCORE.INTER.VDW>
-22.9992

>  <SCORE.INTER.norm>
-0.169602

>  <SCORE.INTRA>
2.0271

>  <SCORE.INTRA.DIHEDRAL>
-6.2187

>  <SCORE.INTRA.DIHEDRAL.0>
21.6909

>  <SCORE.INTRA.POLAR>
0

>  <SCORE.INTRA.POLAR.0>
0

>  <SCORE.INTRA.REPUL>
0

>  <SCORE.INTRA.REPUL.0>
0

>  <SCORE.INTRA.SOLV>
0.135552

>  <SCORE.INTRA.SOLV.lig_0>
-116.606

>  <SCORE.INTRA.VDW>
5.06867

>  <SCORE.INTRA.VDW.0>
-6.01229

>  <SCORE.INTRA.norm>
0.0482642

>  <SCORE.RESTR>
18.3344

>  <SCORE.RESTR.CAVITY>
18.3344

>  <SCORE.RESTR.norm>
0.436533

>  <SCORE.SYSTEM>
0

>  <SCORE.SYSTEM.CONST>
0

>  <SCORE.SYSTEM.DIHEDRAL>
0

>  <SCORE.SYSTEM.SOLV>
0

>  <SCORE.SYSTEM.norm>
0

>  <SCORE.heavy>
42

>  <SCORE.norm>
0.315195

>  <RMSD>
9.097

$$$$
2et4_lig
 OpenBabel11021811423D
libRbt.so/2013.1/901 2013/11/27
 42 45  0  0  0  0  0  0  0  0999 V2000
   11.6005    7.5584   13.6599 C   0  0  2  0  0  0  0  0  0  0  0  0
   11.2496    8.1074   12.3881 O   0  0  0  0  0  0  0  0  0  0  0  0
   12.6985    8.4705   14.2642 C   0  0  2  0  0  0  0  0  0  0  0  0
   12.2461    9.8338   14.3758 N   0  0  0  0  0  0  0  0  0  0  0  0
   13.9823    8.3766   13.3900 C   0  0  1  0  0  0  0  0  0  0  0  0
   14.9728    9.1849   13.9445 O   0  0  0  0  0  0  0  0  0  0  0  0
   14.4150    6.8742   13.3159 C   0  0  2  0  0  0  0  0  0  0  0  0
   15.5761    6.7411   12.5236 O   0  0  0  0  0  0  0  0  0  0  0  0
   13.2761    5.9975   12.7125 C   0  0  2  0  0  0  0  0  0  0  0  0
   12.1051    6.1631   13.5176 O   0  0  0  0  0  0  0  0  0  0  0  0
   13.6582    4.4820   12.6615 C   0  0  0  0  0  0  0  0  0  0  0  0
   14.7855    4.2405   11.8297 N   0  0  0  0  0  0  0  0  0  0  0  0
    7.8431    5.7109   11.2448 C   0  0  2  0  0  0  0  0  0  0  0  0
    6.6994    5.2162   10.4683 N   0  0  0  0  0  0  0  0  0  0  0  0
    7.5894    7.2593   11.6576 C   0  0  0  0  0  0  0  0  0  0  0  0
    8.8320    7.7916   12.4821 C   0  0  2  0  0  0  0  0  0  0  0  0
    8.6553    9.2058   12.8569 N   0  0  0  0  0  0  0  0  0  0  0  0
   10.1320    7.6358   11.6229 C   0  0  2  0  0  0  0  0  0  0  0  0
   10.3485    6.1429   11.2077 C   0  0  2  0  0  0  0  0  0  0  0  0
   11.5580    6.1095   10.4108 O   0  0  0  0  0  0  0  0  0  0  0  0
    9.1182    5.6356   10.3890 C   0  0  1  0  0  0  0  0  0  0  0  0
    9.3316    4.3077   10.0473 O   0  0  0  0  0  0  0  0  0  0  0  0
   11.6674    6.5401    9.1306 C   0  0  1  0  0  0  0  0  0  0  0  0
   11.9236    8.0689    9.0784 C   0  0  2  0  0  0  0  0  0  0  0  0
   10.7499    8.8251    9.1538 O   0  0  0  0  0  0  0  0  0  0  0  0
   12.7552    8.1366    7.8108 C   0  0  1  0  0  0  0  0  0  0  0  0
   13.6461    6.8864    7.7992 C   0  0  2  0  0  0  0  0  0  0  0  0
   12.7503    5.9350    8.3736 O   0  0  0  0  0  0  0  0  0  0  0  0
   14.9787    6.9992    8.6155 C   0  0  0  0  0  0  0  0  0  0  0  0
   15.6885    5.7413    8.4646 O   0  0  0  0  0  0  0  0  0  0  0  0
   12.3591    8.1285    5.3686 C   0  0  2  0  0  0  0  0  0  0  0  0
   11.8151    8.1549    6.6599 O   0  0  0  0  0  0  0  0  0  0  0  0
   11.2277    8.2775    4.2606 C   0  0  1  0  0  0  0  0  0  0  0  0
   13.7082    4.0729    3.9455 N   0  0  0  0  0  0  0  0  0  0  0  0
   11.9621    8.2117    2.8208 C   0  0  1  0  0  0  0  0  0  0  0  0
   12.9828    9.3307    2.7610 O   0  0  0  0  0  0  0  0  0  0  0  0
   12.6901    6.7754    2.6380 C   0  0  2  0  0  0  0  0  0  0  0  0
   11.6948    5.7252    2.6893 O   0  0  0  0  0  0  0  0  0  0  0  0
   13.8147    6.6436    3.8118 C   0  0  1  0  0  0  0  0  0  0  0  0
   13.1573    6.8091    5.1543 O   0  0  0  0  0  0  0  0  0  0  0  0
   14.5779    5.2741    3.7557 C   0  0  0  0  0  0  0  0  0  0  0  0
   10.1882    7.2109    4.4411 N   0  0  0  0  0  0  0  0  0  0  0  0
  1  2  1  6  0  0  0
  1  3  1  0  0  0  0
  1 10  1  0  0  0  0
  3  4  1  6  0  0  0
  3  5  1  0  0  0  0
  5  6  1  1  0  0  0
  5  7  1  0  0  0  0
  7  8  1  6  0  0  0
  7  9  1  0  0  0  0
  9 10  1  0  0  0  0
  9 11  1  1  0  0  0
 11 12  1  0  0  0  0
 13 14  1  6  0  0  0
 13 15  1  0  0  0  0
 13 21  1  0  0  0  0
 16 15  1  0  0  0  0
 16 17  1  6  0  0  0
 18  2  1  1  0  0  0
 18 16  1  0  0  0  0
 19 18  1  0  0  0  0
 19 20  1  6  0  0  0
 21 19  1  0  0  0  0
 21 22  1  1  0  0  0
 23 20  1  1  0  0  0
 23 24  1  0  0  0  0
 23 28  1  0  0  0  0
 24 25  1  6  0  0  0
 24 26  1  0  0  0  0
 26 27  1  0  0  0  0
 26 32  1  6  0  0  0
 27 28  1  0  0  0  0
 27 29  1  1  0  0  0
 29 30  1  0  0  0  0
 31 32  1  1  0  0  0
 31 40  1  0  0  0  0
 33 31  1  0  0  0  0
 33 42  1  6  0  0  0
 35 33  1  0  0  0  0
 35 36  1  1  0  0  0
 37 35  1  0  0  0  0
 37 38  1  1  0  0  0
 37 39  1  0  0  0  0
 39 40  1  0  0  0  0
 39 41  1  1  0  0  0
 41 34  1  0  0  0  0
M  END
>  <CHROM.1>
-170.93699507,-62.13387318,58.22704419,-74.74033015,84.41263461,-175.94698933
-178.94105752,-175.17748600,-61.46395981,12.05555881,6.96385105,9.21524484
1.67074817,-0.02657072,1.53060648

>  <Name>
2et4_lig

>  <RI>
0

>  <Rbt.Current_Directory>
/home/itssahil/PROJECTS/Mol_Feturizer/New_Systems/rnas/2et4

>  <Rbt.Executable>
rbdock ($Id: //depot/dev/client3/rdock/2013.1/src/exe/rbdock.cxx#4 $)

>  <Rbt.Library>
libRbt.so (2013.1, Build901 2013/11/27)

>  <Rbt.Parameter_File>
/export/apps/rDock/src/rDock_2013.1_src/data/scripts/dock_solv.prm

>  <Rbt.Receptor>
prm/pocket_docking_6.prm

>  <SCORE>
-11.328

>  <SCORE.INTER>
-4.1541

>  <SCORE.INTER.CONST>
1

>  <SCORE.INTER.POLAR>
0

>  <SCORE.INTER.ROT>
9

>  <SCORE.INTER.SOLV>
11.2201

>  <SCORE.INTER.VDW>
-16.1094

>  <SCORE.INTER.norm>
-0.0989072

>  <SCORE.INTRA>
-7.17392

>  <SCORE.INTRA.DIHEDRAL>
-17.2984

>  <SCORE.INTRA.DIHEDRAL.0>
21.6909

>  <SCORE.INTRA.POLAR>
0

>  <SCORE.INTRA.POLAR.0>
0

>  <SCORE.INTRA.REPUL>
0

>  <SCORE.INTRA.REPUL.0>
0

>  <SCORE.INTRA.SOLV>
0.325153

>  <SCORE.INTRA.SOLV.lig_0>
-116.606

>  <SCORE.INTRA.VDW>
1.31271

>  <SCORE.INTRA.VDW.0>
-6.01229

>  <SCORE.INTRA.norm>
-0.170808

>  <SCORE.RESTR>
0

>  <SCORE.RESTR.CAVITY>
0

>  <SCORE.RESTR.norm>
0

>  <SCORE.SYSTEM>
0

>  <SCORE.SYSTEM.CONST>
0

>  <SCORE.SYSTEM.DIHEDRAL>
0

>  <SCORE.SYSTEM.SOLV>
0

>  <SCORE.SYSTEM.norm>
0

>  <SCORE.heavy>
42

>  <SCORE.norm>
-0.269715

>  <RMSD>
9.108

$$$$
2et4_lig
 OpenBabel11021811423D
libRbt.so/2013.1/901 2013/11/27
 42 45  0  0  0  0  0  0  0  0999 V2000
   11.1697    8.6663   10.8750 C   0  0  2  0  0  0  0  0  0  0  0  0
   11.6244    7.3924   10.4139 O   0  0  0  0  0  0  0  0  0  0  0  0
   12.1532    9.7297   10.3232 C   0  0  2  0  0  0  0  0  0  0  0  0
   12.2313    9.6772    8.8855 N   0  0  0  0  0  0  0  0  0  0  0  0
   13.5533    9.5176   10.9679 C   0  0  1  0  0  0  0  0  0  0  0  0
   14.4312   10.4847   10.4824 O   0  0  0  0  0  0  0  0  0  0  0  0
   13.3919    9.5899   12.5231 C   0  0  2  0  0  0  0  0  0  0  0  0
   14.6413    9.3947   13.1512 O   0  0  0  0  0  0  0  0  0  0  0  0
   12.3871    8.5102   13.0278 C   0  0  2  0  0  0  0  0  0  0  0  0
   11.1360    8.7136   12.3643 O   0  0  0  0  0  0  0  0  0  0  0  0
   12.1692    8.5801   14.5747 C   0  0  0  0  0  0  0  0  0  0  0  0
   11.2425    7.6033   15.0308 N   0  0  0  0  0  0  0  0  0  0  0  0
   10.5781    4.5319    7.3517 C   0  0  2  0  0  0  0  0  0  0  0  0
   10.2273    3.9812    6.0366 N   0  0  0  0  0  0  0  0  0  0  0  0
    9.4624    5.6219    7.7984 C   0  0  0  0  0  0  0  0  0  0  0  0
    9.8534    6.2227    9.2102 C   0  0  2  0  0  0  0  0  0  0  0  0
    8.8783    7.2387    9.6445 N   0  0  0  0  0  0  0  0  0  0  0  0
   11.2784    6.8668    9.1251 C   0  0  2  0  0  0  0  0  0  0  0  0
   12.3387    5.8121    8.6655 C   0  0  2  0  0  0  0  0  0  0  0  0
   13.6090    6.5063    8.6048 O   0  0  0  0  0  0  0  0  0  0  0  0
   11.9428    5.2350    7.2685 C   0  0  1  0  0  0  0  0  0  0  0  0
   12.8916    4.2943    6.8937 O   0  0  0  0  0  0  0  0  0  0  0  0
   14.7847    5.9600    8.2107 C   0  0  1  0  0  0  0  0  0  0  0  0
   15.8766    7.0492    8.0471 C   0  0  2  0  0  0  0  0  0  0  0  0
   15.8384    7.6819    6.8007 O   0  0  0  0  0  0  0  0  0  0  0  0
   17.1001    6.2290    8.4120 C   0  0  1  0  0  0  0  0  0  0  0  0
   16.6754    5.2799    9.5414 C   0  0  2  0  0  0  0  0  0  0  0  0
   15.3415    4.9816    9.1297 O   0  0  0  0  0  0  0  0  0  0  0  0
   16.7179    5.8868   10.9852 C   0  0  0  0  0  0  0  0  0  0  0  0
   16.0493    7.1751   10.9350 O   0  0  0  0  0  0  0  0  0  0  0  0
   18.8378    5.0147    7.1364 C   0  0  2  0  0  0  0  0  0  0  0  0
   17.5193    5.4858    7.1951 O   0  0  0  0  0  0  0  0  0  0  0  0
   19.7450    5.9456    6.2199 C   0  0  1  0  0  0  0  0  0  0  0  0
   21.3420    0.6733    5.8783 N   0  0  0  0  0  0  0  0  0  0  0  0
   21.2277    5.2989    6.2073 C   0  0  1  0  0  0  0  0  0  0  0  0
   21.7249    5.2324    7.6376 O   0  0  0  0  0  0  0  0  0  0  0  0
   21.1764    3.8143    5.5595 C   0  0  2  0  0  0  0  0  0  0  0  0
   20.7083    3.9053    4.1925 O   0  0  0  0  0  0  0  0  0  0  0  0
   20.2093    2.9014    6.5035 C   0  0  1  0  0  0  0  0  0  0  0  0
   18.8565    3.5503    6.6081 O   0  0  0  0  0  0  0  0  0  0  0  0
   20.0589    1.4362    5.9632 C   0  0  0  0  0  0  0  0  0  0  0  0
   19.1420    6.0638    4.8512 N   0  0  0  0  0  0  0  0  0  0  0  0
  1  2  1  1  0  0  0
  1  3  1  0  0  0  0
  1 10  1  0  0  0  0
  3  4  1  6  0  0  0
  3  5  1  0  0  0  0
  5  6  1  6  0  0  0
  5  7  1  0  0  0  0
  7  8  1  1  0  0  0
  7  9  1  0  0  0  0
  9 10  1  0  0  0  0
  9 11  1  1  0  0  0
 11 12  1  0  0  0  0
 13 14  1  6  0  0  0
 13 15  1  0  0  0  0
 13 21  1  0  0  0  0
 16 15  1  0  0  0  0
 16 17  1  6  0  0  0
 18  2  1  1  0  0  0
 18 16  1  0  0  0  0
 19 18  1  0  0  0  0
 19 20  1  6  0  0  0
 21 19  1  0  0  0  0
 21 22  1  1  0  0  0
 23 20  1  1  0  0  0
 23 24  1  0  0  0  0
 23 28  1  0  0  0  0
 24 25  1  6  0  0  0
 24 26  1  0  0  0  0
 26 27  1  0  0  0  0
 26 32  1  6  0  0  0
 27 28  1  0  0  0  0
 27 29  1  1  0  0  0
 29 30  1  0  0  0  0
 31 32  1  6  0  0  0
 31 40  1  0  0  0  0
 33 31  1  0  0  0  0
 33 42  1  6  0  0  0
 35 33  1  0  0  0  0
 35 36  1  1  0  0  0
 37 35  1  0  0  0  0
 37 38  1  6  0  0  0
 37 39  1  0  0  0  0
 39 40  1  0  0  0  0
 39 41  1  6  0  0  0
 41 34  1  0  0  0  0
M  END
>  <CHROM.1>
-84.68356164,179.41833256,-81.77760832,-177.99857709,170.56229931,159.49342208
48.05623407,-101.89787581,60.58850205,15.03540729,6.28515454,8.79489725,-2.49536085
0.00805343,-2.24946832

>  <Name>
2et4_lig

>  <RI>
0

>  <Rbt.Current_Directory>
/home/itssahil/PROJECTS/Mol_Feturizer/New_Systems/rnas/2et4

>  <Rbt.Executable>
rbdock ($Id: //depot/dev/client3/rdock/2013.1/src/exe/rbdock.cxx#4 $)

>  <Rbt.Library>
libRbt.so (2013.1, Build901 2013/11/27)

>  <Rbt.Parameter_File>
/export/apps/rDock/src/rDock_2013.1_src/data/scripts/dock_solv.prm

>  <Rbt.Receptor>
prm/pocket_docking_6.prm

>  <SCORE>
-13.0736

>  <SCORE.INTER>
-9.80217

>  <SCORE.INTER.CONST>
1

>  <SCORE.INTER.POLAR>
-2.20796

>  <SCORE.INTER.ROT>
9

>  <SCORE.INTER.SOLV>
12.4082

>  <SCORE.INTER.VDW>
-12.911

>  <SCORE.INTER.norm>
-0.233385

>  <SCORE.INTRA>
-3.27147

>  <SCORE.INTRA.DIHEDRAL>
-8.32589

>  <SCORE.INTRA.DIHEDRAL.0>
21.6909

>  <SCORE.INTRA.POLAR>
0

>  <SCORE.INTRA.POLAR.0>
0

>  <SCORE.INTRA.REPUL>
0

>  <SCORE.INTRA.REPUL.0>
0

>  <SCORE.INTRA.SOLV>
-0.968798

>  <SCORE.INTRA.SOLV.lig_0>
-116.606

>  <SCORE.INTRA.VDW>
1.37587

>  <SCORE.INTRA.VDW.0>
-6.01229

>  <SCORE.INTRA.norm>
-0.0778922

>  <SCORE.RESTR>
0

>  <SCORE.RESTR.CAVITY>
0

>  <SCORE.RESTR.norm>
0

>  <SCORE.SYSTEM>
0

>  <SCORE.SYSTEM.CONST>
0

>  <SCORE.SYSTEM.DIHEDRAL>
0

>  <SCORE.SYSTEM.SOLV>
0

>  <SCORE.SYSTEM.norm>
0

>  <SCORE.heavy>
42

>  <SCORE.norm>
-0.311277

>  <RMSD>
9.109

$$$$
2et4_lig
 OpenBabel11021811423D
libRbt.so/2013.1/901 2013/11/27
 42 45  0  0  0  0  0  0  0  0999 V2000
    7.4974    7.9090   12.0410 C   0  0  2  0  0  0  0  0  0  0  0  0
    8.3909    7.3547   11.0731 O   0  0  0  0  0  0  0  0  0  0  0  0
    7.2966    9.4019   11.6754 C   0  0  2  0  0  0  0  0  0  0  0  0
    6.7926    9.5510   10.3340 N   0  0  0  0  0  0  0  0  0  0  0  0
    8.6436   10.1599   11.8547 C   0  0  1  0  0  0  0  0  0  0  0  0
    8.4564   11.5047   11.5411 O   0  0  0  0  0  0  0  0  0  0  0  0
    9.1271    9.9564   13.3294 C   0  0  2  0  0  0  0  0  0  0  0  0
   10.3542   10.6237   13.5354 O   0  0  0  0  0  0  0  0  0  0  0  0
    9.3039    8.4415   13.6516 C   0  0  2  0  0  0  0  0  0  0  0  0
    8.0562    7.7821   13.4169 O   0  0  0  0  0  0  0  0  0  0  0  0
    9.7469    8.1979   15.1314 C   0  0  0  0  0  0  0  0  0  0  0  0
   11.0365    8.7323   15.4005 N   0  0  0  0  0  0  0  0  0  0  0  0
    9.4069    3.5133   12.7661 C   0  0  2  0  0  0  0  0  0  0  0  0
    9.9272    2.1447   12.8743 N   0  0  0  0  0  0  0  0  0  0  0  0
    8.2602    3.5687   11.6198 C   0  0  0  0  0  0  0  0  0  0  0  0
    7.7130    5.0495   11.4976 C   0  0  2  0  0  0  0  0  0  0  0  0
    6.6846    5.1517   10.4471 N   0  0  0  0  0  0  0  0  0  0  0  0
    8.8991    6.0167   11.1654 C   0  0  2  0  0  0  0  0  0  0  0  0
   10.0102    5.9317   12.2636 C   0  0  2  0  0  0  0  0  0  0  0  0
   11.0593    6.8450   11.8581 O   0  0  0  0  0  0  0  0  0  0  0  0
   10.5446    4.4670   12.3661 C   0  0  1  0  0  0  0  0  0  0  0  0
   11.5166    4.4192   13.3554 O   0  0  0  0  0  0  0  0  0  0  0  0
   11.7598    6.7725   10.7003 C   0  0  1  0  0  0  0  0  0  0  0  0
   12.4191    8.1353   10.3633 C   0  0  2  0  0  0  0  0  0  0  0  0
   11.5566    9.0131    9.6996 O   0  0  0  0  0  0  0  0  0  0  0  0
   13.6554    7.6384    9.6371 C   0  0  1  0  0  0  0  0  0  0  0  0
   14.1101    6.3628   10.3600 C   0  0  2  0  0  0  0  0  0  0  0  0
   12.8422    5.8029   10.7016 O   0  0  0  0  0  0  0  0  0  0  0  0
   15.0082    6.5866   11.6241 C   0  0  0  0  0  0  0  0  0  0  0  0
   15.4164    5.2783   12.1045 O   0  0  0  0  0  0  0  0  0  0  0  0
   14.2751    6.9837    7.3330 C   0  0  2  0  0  0  0  0  0  0  0  0
   13.2672    7.3659    8.2286 O   0  0  0  0  0  0  0  0  0  0  0  0
   15.2092    8.2137    6.9533 C   0  0  1  0  0  0  0  0  0  0  0  0
   14.6752    4.6272    2.7561 N   0  0  0  0  0  0  0  0  0  0  0  0
   16.3134    7.6654    5.9060 C   0  0  1  0  0  0  0  0  0  0  0  0
   17.0791    6.5409    6.5745 O   0  0  0  0  0  0  0  0  0  0  0  0
   15.5815    7.1279    4.5637 C   0  0  2  0  0  0  0  0  0  0  0  0
   14.8659    8.2207    3.9394 O   0  0  0  0  0  0  0  0  0  0  0  0
   14.6064    5.8949    4.9980 C   0  0  1  0  0  0  0  0  0  0  0  0
   13.6421    6.3677    6.0509 O   0  0  0  0  0  0  0  0  0  0  0  0
   13.8175    5.3004    3.7792 C   0  0  0  0  0  0  0  0  0  0  0  0
   14.3811    9.3369    6.4022 N   0  0  0  0  0  0  0  0  0  0  0  0
  1  2  1  6  0  0  0
  1  3  1  0  0  0  0
  1 10  1  0  0  0  0
  3  4  1  6  0  0  0
  3  5  1  0  0  0  0
  5  6  1  1  0  0  0
  5  7  1  0  0  0  0
  7  8  1  6  0  0  0
  7  9  1  0  0  0  0
  9 10  1  0  0  0  0
  9 11  1  1  0  0  0
 11 12  1  0  0  0  0
 13 14  1  6  0  0  0
 13 15  1  0  0  0  0
 13 21  1  0  0  0  0
 16 15  1  0  0  0  0
 16 17  1  6  0  0  0
 18  2  1  1  0  0  0
 18 16  1  0  0  0  0
 19 18  1  0  0  0  0
 19 20  1  6  0  0  0
 21 19  1  0  0  0  0
 21 22  1  1  0  0  0
 23 20  1  1  0  0  0
 23 24  1  0  0  0  0
 23 28  1  0  0  0  0
 24 25  1  6  0  0  0
 24 26  1  0  0  0  0
 26 27  1  0  0  0  0
 26 32  1  6  0  0  0
 27 28  1  0  0  0  0
 27 29  1  1  0  0  0
 29 30  1  0  0  0  0
 31 32  1  1  0  0  0
 31 40  1  0  0  0  0
 33 31  1  0  0  0  0
 33 42  1  6  0  0  0
 35 33  1  0  0  0  0
 35 36  1  1  0  0  0
 37 35  1  0  0  0  0
 37 38  1  1  0  0  0
 37 39  1  0  0  0  0
 39 40  1  0  0  0  0
 39 41  1  6  0  0  0
 41 34  1  0  0  0  0
M  END
>  <CHROM.1>
174.31635252,-64.68118588,46.25983986,-59.72067844,159.98639458,175.54396337
-175.75920893,-73.10726262,66.02161359,11.53181991,7.06199747,10.13949387
2.96174798,-0.84205687,2.80049373

>  <Name>
2et4_lig

>  <RI>
0

>  <Rbt.Current_Directory>
/home/itssahil/PROJECTS/Mol_Feturizer/New_Systems/rnas/2et4

>  <Rbt.Executable>
rbdock ($Id: //depot/dev/client3/rdock/2013.1/src/exe/rbdock.cxx#4 $)

>  <Rbt.Library>
libRbt.so (2013.1, Build901 2013/11/27)

>  <Rbt.Parameter_File>
/export/apps/rDock/src/rDock_2013.1_src/data/scripts/dock_solv.prm

>  <Rbt.Receptor>
prm/pocket_docking_5.prm

>  <SCORE>
-10.1504

>  <SCORE.INTER>
-1.70949

>  <SCORE.INTER.CONST>
1

>  <SCORE.INTER.POLAR>
-0.70318

>  <SCORE.INTER.ROT>
9

>  <SCORE.INTER.SOLV>
17.234

>  <SCORE.INTER.VDW>
-14.1404

>  <SCORE.INTER.norm>
-0.0407022

>  <SCORE.INTRA>
-8.46462

>  <SCORE.INTRA.DIHEDRAL>
-17.4987

>  <SCORE.INTRA.DIHEDRAL.0>
21.6909

>  <SCORE.INTRA.POLAR>
0

>  <SCORE.INTRA.POLAR.0>
0

>  <SCORE.INTRA.REPUL>
0

>  <SCORE.INTRA.REPUL.0>
0

>  <SCORE.INTRA.SOLV>
-2.58492

>  <SCORE.INTRA.SOLV.lig_0>
-116.606

>  <SCORE.INTRA.VDW>
1.57717

>  <SCORE.INTRA.VDW.0>
-6.01229

>  <SCORE.INTRA.norm>
-0.201539

>  <SCORE.RESTR>
0.0237119

>  <SCORE.RESTR.CAVITY>
0.0237119

>  <SCORE.RESTR.norm>
0.000564569

>  <SCORE.SYSTEM>
0

>  <SCORE.SYSTEM.CONST>
0

>  <SCORE.SYSTEM.DIHEDRAL>
0

>  <SCORE.SYSTEM.SOLV>
0

>  <SCORE.SYSTEM.norm>
0

>  <SCORE.heavy>
42

>  <SCORE.norm>
-0.241676

>  <RMSD>
9.110

$$$$
2et4_lig
 OpenBabel11021811423D
libRbt.so/2013.1/901 2013/11/27
 42 45  0  0  0  0  0  0  0  0999 V2000
   15.9586    5.0349   11.9471 C   0  0  2  0  0  0  0  0  0  0  0  0
   14.9321    5.9570   11.5751 O   0  0  0  0  0  0  0  0  0  0  0  0
   17.1497    5.2631   10.9818 C   0  0  2  0  0  0  0  0  0  0  0  0
   17.6115    6.6269   11.0306 N   0  0  0  0  0  0  0  0  0  0  0  0
   16.7236    4.8678    9.5384 C   0  0  1  0  0  0  0  0  0  0  0  0
   17.8010    5.0586    8.6755 O   0  0  0  0  0  0  0  0  0  0  0  0
   16.2384    3.3799    9.5617 C   0  0  2  0  0  0  0  0  0  0  0  0
   15.8339    2.9801    8.2694 O   0  0  0  0  0  0  0  0  0  0  0  0
   15.0489    3.1993   10.5528 C   0  0  2  0  0  0  0  0  0  0  0  0
   15.4735    3.6290   11.8497 O   0  0  0  0  0  0  0  0  0  0  0  0
   14.5642    1.7147   10.6332 C   0  0  0  0  0  0  0  0  0  0  0  0
   13.9037    1.3007    9.4443 N   0  0  0  0  0  0  0  0  0  0  0  0
   13.3607    9.6664   13.1325 C   0  0  2  0  0  0  0  0  0  0  0  0
   13.3118   11.0517   13.6164 N   0  0  0  0  0  0  0  0  0  0  0  0
   14.3555    8.7976   14.0748 C   0  0  0  0  0  0  0  0  0  0  0  0
   14.4156    7.3085   13.5398 C   0  0  2  0  0  0  0  0  0  0  0  0
   15.3301    6.4875   14.3530 N   0  0  0  0  0  0  0  0  0  0  0  0
   14.8976    7.3099   12.0498 C   0  0  2  0  0  0  0  0  0  0  0  0
   13.9461    8.1747   11.1584 C   0  0  2  0  0  0  0  0  0  0  0  0
   14.4835    8.1234    9.8139 O   0  0  0  0  0  0  0  0  0  0  0  0
   13.9040    9.6418   11.6944 C   0  0  1  0  0  0  0  0  0  0  0  0
   13.0434   10.3802   10.8946 O   0  0  0  0  0  0  0  0  0  0  0  0
   14.2551    9.0386    8.8411 C   0  0  1  0  0  0  0  0  0  0  0  0
   13.6792    8.3649    7.5683 C   0  0  2  0  0  0  0  0  0  0  0  0
   14.6671    7.8340    6.7334 O   0  0  0  0  0  0  0  0  0  0  0  0
   12.8225    9.5058    7.0513 C   0  0  1  0  0  0  0  0  0  0  0  0
   12.2171   10.1967    8.2813 C   0  0  2  0  0  0  0  0  0  0  0  0
   13.3077   10.0821    9.1952 O   0  0  0  0  0  0  0  0  0  0  0  0
   10.9106    9.5435    8.8480 C   0  0  0  0  0  0  0  0  0  0  0  0
    9.7932   10.0790    8.0906 O   0  0  0  0  0  0  0  0  0  0  0  0
   13.4446   10.6011    4.9218 C   0  0  2  0  0  0  0  0  0  0  0  0
   13.7099   10.4199    6.2860 O   0  0  0  0  0  0  0  0  0  0  0  0
   13.8073    9.2989    4.0836 C   0  0  1  0  0  0  0  0  0  0  0  0
   16.3738   13.2095    2.6376 N   0  0  0  0  0  0  0  0  0  0  0  0
   13.4844    9.6276    2.5330 C   0  0  1  0  0  0  0  0  0  0  0  0
   12.0182    9.9966    2.4251 O   0  0  0  0  0  0  0  0  0  0  0  0
   14.4126   10.8549    2.0244 C   0  0  2  0  0  0  0  0  0  0  0  0
   15.8058   10.4752    2.1281 O   0  0  0  0  0  0  0  0  0  0  0  0
   14.0396   12.1588    2.9301 C   0  0  1  0  0  0  0  0  0  0  0  0
   14.2359   11.8295    4.3844 O   0  0  0  0  0  0  0  0  0  0  0  0
   14.8958   13.4163    2.5467 C   0  0  0  0  0  0  0  0  0  0  0  0
   15.2393    8.9184    4.3193 N   0  0  0  0  0  0  0  0  0  0  0  0
  1  2  1  6  0  0  0
  1  3  1  0  0  0  0
  1 10  1  0  0  0  0
  3  4  1  6  0  0  0
  3  5  1  0  0  0  0
  5  6  1  6  0  0  0
  5  7  1  0  0  0  0
  7  8  1  6  0  0  0
  7  9  1  0  0  0  0
  9 10  1  0  0  0  0
  9 11  1  1  0  0  0
 11 12  1  0  0  0  0
 13 14  1  1  0  0  0
 13 15  1  0  0  0  0
 13 21  1  0  0  0  0
 16 15  1  0  0  0  0
 16 17  1  1  0  0  0
 18  2  1  6  0  0  0
 18 16  1  0  0  0  0
 19 18  1  0  0  0  0
 19 20  1  6  0  0  0
 21 19  1  0  0  0  0
 21 22  1  6  0  0  0
 23 20  1  1  0  0  0
 23 24  1  0  0  0  0
 23 28  1  0  0  0  0
 24 25  1  6  0  0  0
 24 26  1  0  0  0  0
 26 27  1  0  0  0  0
 26 32  1  1  0  0  0
 27 28  1  0  0  0  0
 27 29  1  1  0  0  0
 29 30  1  0  0  0  0
 31 32  1  1  0  0  0
 31 40  1  0  0  0  0
 33 31  1  0  0  0  0
 33 42  1  6  0  0  0
 35 33  1  0  0  0  0
 35 36  1  1  0  0  0
 37 35  1  0  0  0  0
 37 38  1  1  0  0  0
 37 39  1  0  0  0  0
 39 40  1  0  0  0  0
 39 41  1  6  0  0  0
 41 34  1  0  0  0  0
M  END
>  <CHROM.1>
-84.76247325,-70.46326281,-75.41573829,-157.23810930,-124.55296554,117.93825770
-84.83885662,-71.13227565,-56.86766282,14.40682808,8.13422857,8.39905786
-1.26585319,1.16586940,-1.23460076

>  <Name>
2et4_lig

>  <RI>
0

>  <Rbt.Current_Directory>
/home/itssahil/PROJECTS/Mol_Feturizer/New_Systems/rnas/2et4

>  <Rbt.Executable>
rbdock ($Id: //depot/dev/client3/rdock/2013.1/src/exe/rbdock.cxx#4 $)

>  <Rbt.Library>
libRbt.so (2013.1, Build901 2013/11/27)

>  <Rbt.Parameter_File>
/export/apps/rDock/src/rDock_2013.1_src/data/scripts/dock_solv.prm

>  <Rbt.Receptor>
prm/blind_docking_40.prm

>  <SCORE>
32.6466

>  <SCORE.INTER>
-6.34763

>  <SCORE.INTER.CONST>
1

>  <SCORE.INTER.POLAR>
-1.29735

>  <SCORE.INTER.ROT>
9

>  <SCORE.INTER.SOLV>
31.4307

>  <SCORE.INTER.VDW>
-19.9841

>  <SCORE.INTER.norm>
-0.151134

>  <SCORE.INTRA>
21.9748

>  <SCORE.INTRA.DIHEDRAL>
1.60713

>  <SCORE.INTRA.DIHEDRAL.0>
21.6909

>  <SCORE.INTRA.POLAR>
0

>  <SCORE.INTRA.POLAR.0>
0

>  <SCORE.INTRA.REPUL>
0

>  <SCORE.INTRA.REPUL.0>
0

>  <SCORE.INTRA.SOLV>
3.00052

>  <SCORE.INTRA.SOLV.lig_0>
-116.606

>  <SCORE.INTRA.VDW>
19.671

>  <SCORE.INTRA.VDW.0>
-6.01229

>  <SCORE.INTRA.norm>
0.52321

>  <SCORE.RESTR>
17.0194

>  <SCORE.RESTR.CAVITY>
17.0194

>  <SCORE.RESTR.norm>
0.405224

>  <SCORE.SYSTEM>
0

>  <SCORE.SYSTEM.CONST>
0

>  <SCORE.SYSTEM.DIHEDRAL>
0

>  <SCORE.SYSTEM.SOLV>
0

>  <SCORE.SYSTEM.norm>
0

>  <SCORE.heavy>
42

>  <SCORE.norm>
0.7773

>  <RMSD>
9.116

$$$$
2et4_lig
 OpenBabel11021811423D
libRbt.so/2013.1/901 2013/11/27
 42 45  0  0  0  0  0  0  0  0999 V2000
   10.5469    6.8297    7.1144 C   0  0  2  0  0  0  0  0  0  0  0  0
   11.0361    7.3131    5.8618 O   0  0  0  0  0  0  0  0  0  0  0  0
    9.7213    7.9745    7.7552 C   0  0  2  0  0  0  0  0  0  0  0  0
    8.6504    8.3979    6.8894 N   0  0  0  0  0  0  0  0  0  0  0  0
   10.6680    9.1614    8.0960 C   0  0  1  0  0  0  0  0  0  0  0  0
    9.9261   10.1825    8.6866 O   0  0  0  0  0  0  0  0  0  0  0  0
   11.7998    8.6297    9.0374 C   0  0  2  0  0  0  0  0  0  0  0  0
   12.6891    9.6756    9.3674 O   0  0  0  0  0  0  0  0  0  0  0  0
   12.5933    7.4749    8.3542 C   0  0  2  0  0  0  0  0  0  0  0  0
   11.6714    6.4364    8.0102 O   0  0  0  0  0  0  0  0  0  0  0  0
   13.7072    6.8904    9.2831 C   0  0  0  0  0  0  0  0  0  0  0  0
   14.6108    7.8915    9.7330 N   0  0  0  0  0  0  0  0  0  0  0  0
   12.5560    3.7214    4.0059 C   0  0  2  0  0  0  0  0  0  0  0  0
   13.1597    2.8313    3.0064 N   0  0  0  0  0  0  0  0  0  0  0  0
   11.2129    4.3938    3.3926 C   0  0  0  0  0  0  0  0  0  0  0  0
   10.5742    5.3634    4.4693 C   0  0  2  0  0  0  0  0  0  0  0  0
    9.3626    6.0174    3.9440 N   0  0  0  0  0  0  0  0  0  0  0  0
   11.6233    6.4528    4.8759 C   0  0  2  0  0  0  0  0  0  0  0  0
   12.9240    5.7897    5.4383 C   0  0  2  0  0  0  0  0  0  0  0  0
   13.8278    6.8730    5.7679 O   0  0  0  0  0  0  0  0  0  0  0  0
   13.5456    4.8428    4.3619 C   0  0  1  0  0  0  0  0  0  0  0  0
   14.6874    4.2595    4.8926 O   0  0  0  0  0  0  0  0  0  0  0  0
   14.2048    7.8653    4.9257 C   0  0  1  0  0  0  0  0  0  0  0  0
   14.9640    8.9827    5.6877 C   0  0  2  0  0  0  0  0  0  0  0  0
   14.1118    9.9157    6.2861 O   0  0  0  0  0  0  0  0  0  0  0  0
   15.8939    9.4473    4.5821 C   0  0  1  0  0  0  0  0  0  0  0  0
   16.3088    8.1947    3.7976 C   0  0  2  0  0  0  0  0  0  0  0  0
   15.0919    7.4505    3.8520 O   0  0  0  0  0  0  0  0  0  0  0  0
   17.5116    7.3898    4.3976 C   0  0  0  0  0  0  0  0  0  0  0  0
   17.0823    6.8573    5.6787 O   0  0  0  0  0  0  0  0  0  0  0  0
   15.7535   10.8769    2.5676 C   0  0  2  0  0  0  0  0  0  0  0  0
   15.1365   10.4040    3.7336 O   0  0  0  0  0  0  0  0  0  0  0  0
   16.9648   11.8501    2.9073 C   0  0  1  0  0  0  0  0  0  0  0  0
   14.3835   13.1926   -1.8342 N   0  0  0  0  0  0  0  0  0  0  0  0
   17.5828   12.3483    1.4979 C   0  0  1  0  0  0  0  0  0  0  0  0
   18.0231   11.1254    0.7180 O   0  0  0  0  0  0  0  0  0  0  0  0
   16.4636   13.1737    0.6658 C   0  0  2  0  0  0  0  0  0  0  0  0
   16.0668   14.3402    1.4261 O   0  0  0  0  0  0  0  0  0  0  0  0
   15.2243   12.1558    0.3695 C   0  0  1  0  0  0  0  0  0  0  0  0
   14.7093   11.6038    1.6703 O   0  0  0  0  0  0  0  0  0  0  0  0
   14.0570   12.8499   -0.4160 C   0  0  0  0  0  0  0  0  0  0  0  0
   16.4896   12.9786    3.7741 N   0  0  0  0  0  0  0  0  0  0  0  0
  1  2  1  6  0  0  0
  1  3  1  0  0  0  0
  1 10  1  0  0  0  0
  3  4  1  6  0  0  0
  3  5  1  0  0  0  0
  5  6  1  1  0  0  0
  5  7  1  0  0  0  0
  7  8  1  6  0  0  0
  7  9  1  0  0  0  0
  9 10  1  0  0  0  0
  9 11  1  1  0  0  0
 11 12  1  0  0  0  0
 13 14  1  6  0  0  0
 13 15  1  0  0  0  0
 13 21  1  0  0  0  0
 16 15  1  0  0  0  0
 16 17  1  6  0  0  0
 18  2  1  1  0  0  0
 18 16  1  0  0  0  0
 19 18  1  0  0  0  0
 19 20  1  6  0  0  0
 21 19  1  0  0  0  0
 21 22  1  1  0  0  0
 23 20  1  1  0  0  0
 23 24  1  0  0  0  0
 23 28  1  0  0  0  0
 24 25  1  6  0  0  0
 24 26  1  0  0  0  0
 26 27  1  0  0  0  0
 26 32  1  6  0  0  0
 27 28  1  0  0  0  0
 27 29  1  1  0  0  0
 29 30  1  0  0  0  0
 31 32  1  1  0  0  0
 31 40  1  0  0  0  0
 33 31  1  0  0  0  0
 33 42  1  1  0  0  0
 35 33  1  0  0  0  0
 35 36  1  6  0  0  0
 37 35  1  0  0  0  0
 37 38  1  1  0  0  0
 37 39  1  0  0  0  0
 39 40  1  0  0  0  0
 39 41  1  1  0  0  0
 41 34  1  0  0  0  0
M  END
>  <CHROM.1>
-167.76376191,-55.93267819,58.99933595,-53.31100448,169.54240641,-174.19678260
65.25125519,-69.63774724,69.56210573,13.76104399,8.60048305,4.74310563,2.77465997
-1.01218609,-2.79016151

>  <Name>
2et4_lig

>  <RI>
0

>  <Rbt.Current_Directory>
/home/itssahil/PROJECTS/Mol_Feturizer/New_Systems/rnas/2et4

>  <Rbt.Executable>
rbdock ($Id: //depot/dev/client3/rdock/2013.1/src/exe/rbdock.cxx#4 $)

>  <Rbt.Library>
libRbt.so (2013.1, Build901 2013/11/27)

>  <Rbt.Parameter_File>
/export/apps/rDock/src/rDock_2013.1_src/data/scripts/dock_solv.prm

>  <Rbt.Receptor>
prm/pocket_docking_6.prm

>  <SCORE>
-16.5709

>  <SCORE.INTER>
-7.91385

>  <SCORE.INTER.CONST>
1

>  <SCORE.INTER.POLAR>
-1.7203

>  <SCORE.INTER.ROT>
9

>  <SCORE.INTER.SOLV>
18.5935

>  <SCORE.INTER.VDW>
-15.3394

>  <SCORE.INTER.norm>
-0.188425

>  <SCORE.INTRA>
-8.67188

>  <SCORE.INTRA.DIHEDRAL>
-18.9792

>  <SCORE.INTRA.DIHEDRAL.0>
21.6909

>  <SCORE.INTRA.POLAR>
0

>  <SCORE.INTRA.POLAR.0>
0

>  <SCORE.INTRA.REPUL>
0

>  <SCORE.INTRA.REPUL.0>
0

>  <SCORE.INTRA.SOLV>
-0.235847

>  <SCORE.INTRA.SOLV.lig_0>
-116.606

>  <SCORE.INTRA.VDW>
0.935648

>  <SCORE.INTRA.VDW.0>
-6.01229

>  <SCORE.INTRA.norm>
-0.206473

>  <SCORE.RESTR>
0.014797

>  <SCORE.RESTR.CAVITY>
0.014797

>  <SCORE.RESTR.norm>
0.000352308

>  <SCORE.SYSTEM>
0

>  <SCORE.SYSTEM.CONST>
0

>  <SCORE.SYSTEM.DIHEDRAL>
0

>  <SCORE.SYSTEM.SOLV>
0

>  <SCORE.SYSTEM.norm>
0

>  <SCORE.heavy>
42

>  <SCORE.norm>
-0.394546

>  <RMSD>
9.118

$$$$
2et4_lig
 OpenBabel11021811423D
libRbt.so/2013.1/901 2013/11/27
 42 45  0  0  0  0  0  0  0  0999 V2000
    9.1295    3.5398   11.7148 C   0  0  2  0  0  0  0  0  0  0  0  0
    9.9019    4.2373   10.7355 O   0  0  0  0  0  0  0  0  0  0  0  0
    8.4039    2.3813   10.9841 C   0  0  2  0  0  0  0  0  0  0  0  0
    9.3403    1.5102   10.3208 N   0  0  0  0  0  0  0  0  0  0  0  0
    7.3786    2.9735    9.9745 C   0  0  1  0  0  0  0  0  0  0  0  0
    6.7163    1.9300    9.3308 O   0  0  0  0  0  0  0  0  0  0  0  0
    6.3964    3.9028   10.7629 C   0  0  2  0  0  0  0  0  0  0  0  0
    5.4499    4.4693    9.8816 O   0  0  0  0  0  0  0  0  0  0  0  0
    7.1730    5.0436   11.4878 C   0  0  2  0  0  0  0  0  0  0  0  0
    8.1391    4.4484   12.3590 O   0  0  0  0  0  0  0  0  0  0  0  0
    6.2265    5.9688   12.3207 C   0  0  0  0  0  0  0  0  0  0  0  0
    6.9292    7.0402   12.9366 N   0  0  0  0  0  0  0  0  0  0  0  0
   11.7924    7.3502   13.0572 C   0  0  2  0  0  0  0  0  0  0  0  0
   12.6765    8.4684   13.4092 N   0  0  0  0  0  0  0  0  0  0  0  0
   12.6864    6.0700   12.6165 C   0  0  0  0  0  0  0  0  0  0  0  0
   11.7278    4.8723   12.2242 C   0  0  2  0  0  0  0  0  0  0  0  0
   12.4991    3.6934   11.7916 N   0  0  0  0  0  0  0  0  0  0  0  0
   10.7733    5.3267   11.0688 C   0  0  2  0  0  0  0  0  0  0  0  0
    9.9388    6.5789   11.4970 C   0  0  2  0  0  0  0  0  0  0  0  0
    9.1064    6.9252   10.3629 O   0  0  0  0  0  0  0  0  0  0  0  0
   10.8984    7.7533   11.8731 C   0  0  1  0  0  0  0  0  0  0  0  0
   10.1323    8.8432   12.2613 O   0  0  0  0  0  0  0  0  0  0  0  0
    9.5471    7.1271    9.0975 C   0  0  1  0  0  0  0  0  0  0  0  0
    8.4490    7.7898    8.2255 C   0  0  2  0  0  0  0  0  0  0  0  0
    7.5470    6.8684    7.6848 O   0  0  0  0  0  0  0  0  0  0  0  0
    9.3306    8.5876    7.2826 C   0  0  1  0  0  0  0  0  0  0  0  0
   10.5139    9.1032    8.1136 C   0  0  2  0  0  0  0  0  0  0  0  0
   10.7102    7.9912    8.9869 O   0  0  0  0  0  0  0  0  0  0  0  0
   10.2549   10.4291    8.9072 C   0  0  0  0  0  0  0  0  0  0  0  0
   11.4701   10.7425    9.6381 O   0  0  0  0  0  0  0  0  0  0  0  0
   10.7019    8.1542    5.2693 C   0  0  2  0  0  0  0  0  0  0  0  0
    9.7742    7.6695    6.2013 O   0  0  0  0  0  0  0  0  0  0  0  0
   10.7132    7.2676    3.9489 C   0  0  1  0  0  0  0  0  0  0  0  0
   15.7618    9.1735    5.0159 N   0  0  0  0  0  0  0  0  0  0  0  0
   11.8271    7.9010    2.9616 C   0  0  1  0  0  0  0  0  0  0  0  0
   11.4489    9.3431    2.6882 O   0  0  0  0  0  0  0  0  0  0  0  0
   13.2886    7.8246    3.6578 C   0  0  2  0  0  0  0  0  0  0  0  0
   13.6307    6.4387    3.8999 O   0  0  0  0  0  0  0  0  0  0  0  0
   13.2269    8.7125    5.0244 C   0  0  1  0  0  0  0  0  0  0  0  0
   12.1223    8.1973    5.9054 O   0  0  0  0  0  0  0  0  0  0  0  0
   14.5862    8.6973    5.8076 C   0  0  0  0  0  0  0  0  0  0  0  0
   10.9807    5.8327    4.2957 N   0  0  0  0  0  0  0  0  0  0  0  0
  1  2  1  6  0  0  0
  1  3  1  0  0  0  0
  1 10  1  0  0  0  0
  3  4  1  6  0  0  0
  3  5  1  0  0  0  0
  5  6  1  1  0  0  0
  5  7  1  0  0  0  0
  7  8  1  6  0  0  0
  7  9  1  0  0  0  0
  9 10  1  0  0  0  0
  9 11  1  1  0  0  0
 11 12  1  0  0  0  0
 13 14  1  6  0  0  0
 13 15  1  0  0  0  0
 13 21  1  0  0  0  0
 16 15  1  0  0  0  0
 16 17  1  6  0  0  0
 18  2  1  1  0  0  0
 18 16  1  0  0  0  0
 19 18  1  0  0  0  0
 19 20  1  6  0  0  0
 21 19  1  0  0  0  0
 21 22  1  1  0  0  0
 23 20  1  1  0  0  0
 23 24  1  0  0  0  0
 23 28  1  0  0  0  0
 24 25  1  6  0  0  0
 24 26  1  0  0  0  0
 26 27  1  0  0  0  0
 26 32  1  6  0  0  0
 27 28  1  0  0  0  0
 27 29  1  1  0  0  0
 29 30  1  0  0  0  0
 31 32  1  1  0  0  0
 31 40  1  0  0  0  0
 33 31  1  0  0  0  0
 33 42  1  1  0  0  0
 35 33  1  0  0  0  0
 35 36  1  1  0  0  0
 37 35  1  0  0  0  0
 37 38  1  1  0  0  0
 37 39  1  0  0  0  0
 39 40  1  0  0  0  0
 39 41  1  1  0  0  0
 41 34  1  0  0  0  0
M  END
>  <CHROM.1>
-176.11234446,-177.60499341,51.95664105,-52.64423444,-167.02447869,-174.40231834
179.21885304,-161.39636645,57.10174184,10.20400907,6.61267197,8.92423359
2.26538551,0.77211023,1.54016761

>  <Name>
2et4_lig

>  <RI>
3.65815e+07

>  <Rbt.Current_Directory>
/home/itssahil/PROJECTS/Mol_Feturizer/New_Systems/rnas/2et4

>  <Rbt.Executable>
rbdock ($Id: //depot/dev/client3/rdock/2013.1/src/exe/rbdock.cxx#4 $)

>  <Rbt.Library>
libRbt.so (2013.1, Build901 2013/11/27)

>  <Rbt.Parameter_File>
/export/apps/rDock/src/rDock_2013.1_src/data/scripts/dock_solv.prm

>  <Rbt.Receptor>
prm/pocket_docking_4.prm

>  <SCORE>
-12.1521

>  <SCORE.INTER>
-3.269

>  <SCORE.INTER.CONST>
1

>  <SCORE.INTER.POLAR>
0

>  <SCORE.INTER.ROT>
9

>  <SCORE.INTER.SOLV>
13.4494

>  <SCORE.INTER.VDW>
-16.2625

>  <SCORE.INTER.norm>
-0.0778333

>  <SCORE.INTRA>
-8.88306

>  <SCORE.INTRA.DIHEDRAL>
-18.2865

>  <SCORE.INTRA.DIHEDRAL.0>
21.6909

>  <SCORE.INTRA.POLAR>
0

>  <SCORE.INTRA.POLAR.0>
0

>  <SCORE.INTRA.REPUL>
0

>  <SCORE.INTRA.REPUL.0>
0

>  <SCORE.INTRA.SOLV>
-1.08846

>  <SCORE.INTRA.SOLV.lig_0>
-116.606

>  <SCORE.INTRA.VDW>
0.804393

>  <SCORE.INTRA.VDW.0>
-6.01229

>  <SCORE.INTRA.norm>
-0.211501

>  <SCORE.RESTR>
0

>  <SCORE.RESTR.CAVITY>
0

>  <SCORE.RESTR.norm>
0

>  <SCORE.SYSTEM>
0

>  <SCORE.SYSTEM.CONST>
0

>  <SCORE.SYSTEM.DIHEDRAL>
0

>  <SCORE.SYSTEM.SOLV>
0

>  <SCORE.SYSTEM.norm>
0

>  <SCORE.heavy>
42

>  <SCORE.norm>
-0.289335

>  <RMSD>
9.119

$$$$
2et4_lig
 OpenBabel11021811423D
libRbt.so/2013.1/901 2013/11/27
 42 45  0  0  0  0  0  0  0  0999 V2000
   12.1590    8.4811   13.5705 C   0  0  2  0  0  0  0  0  0  0  0  0
   11.2138    7.8809   12.6825 O   0  0  0  0  0  0  0  0  0  0  0  0
   12.8132    9.6632   12.8106 C   0  0  2  0  0  0  0  0  0  0  0  0
   11.8246   10.6100   12.3611 N   0  0  0  0  0  0  0  0  0  0  0  0
   13.6420    9.1095   11.6157 C   0  0  1  0  0  0  0  0  0  0  0  0
   14.2420   10.1729   10.9441 O   0  0  0  0  0  0  0  0  0  0  0  0
   14.6924    8.0943   12.1776 C   0  0  2  0  0  0  0  0  0  0  0  0
   15.4645    7.5598   11.1232 O   0  0  0  0  0  0  0  0  0  0  0  0
   13.9880    6.9319   12.9409 C   0  0  2  0  0  0  0  0  0  0  0  0
   13.1962    7.4963   13.9903 O   0  0  0  0  0  0  0  0  0  0  0  0
   15.0102    5.9188   13.5525 C   0  0  0  0  0  0  0  0  0  0  0  0
   14.5046    4.5902   13.5689 N   0  0  0  0  0  0  0  0  0  0  0  0
    8.2386    4.9499   13.7838 C   0  0  2  0  0  0  0  0  0  0  0  0
    6.9667    4.3759   14.2402 N   0  0  0  0  0  0  0  0  0  0  0  0
    8.8587    5.8912   14.9508 C   0  0  0  0  0  0  0  0  0  0  0  0
   10.2227    6.5188   14.4477 C   0  0  2  0  0  0  0  0  0  0  0  0
   10.8098    7.4038   15.4693 N   0  0  0  0  0  0  0  0  0  0  0  0
    9.9679    7.3320   13.1338 C   0  0  2  0  0  0  0  0  0  0  0  0
    9.3433    6.4192   12.0272 C   0  0  2  0  0  0  0  0  0  0  0  0
    9.1347    7.2632   10.8682 O   0  0  0  0  0  0  0  0  0  0  0  0
    7.9954    5.8144   12.5359 C   0  0  1  0  0  0  0  0  0  0  0  0
    7.4728    5.0002   11.5412 O   0  0  0  0  0  0  0  0  0  0  0  0
    9.9783    7.3716    9.8132 C   0  0  1  0  0  0  0  0  0  0  0  0
    9.2347    7.9002    8.5590 C   0  0  2  0  0  0  0  0  0  0  0  0
    8.5850    6.8920    7.8404 O   0  0  0  0  0  0  0  0  0  0  0  0
   10.3739    8.6514    7.8951 C   0  0  1  0  0  0  0  0  0  0  0  0
   11.1946    9.2955    9.0213 C   0  0  2  0  0  0  0  0  0  0  0  0
   11.0966    8.2770   10.0167 O   0  0  0  0  0  0  0  0  0  0  0  0
   10.6611   10.6733    9.5427 C   0  0  0  0  0  0  0  0  0  0  0  0
    9.3342   10.4473   10.0880 O   0  0  0  0  0  0  0  0  0  0  0  0
   12.2700    8.1343    6.3922 C   0  0  2  0  0  0  0  0  0  0  0  0
   11.1733    7.6624    7.1260 O   0  0  0  0  0  0  0  0  0  0  0  0
   11.8026    9.0325    5.1656 C   0  0  1  0  0  0  0  0  0  0  0  0
   15.5221    5.1062    5.8095 N   0  0  0  0  0  0  0  0  0  0  0  0
   13.1391    9.5000    4.3833 C   0  0  1  0  0  0  0  0  0  0  0  0
   14.0140   10.2616    5.3591 O   0  0  0  0  0  0  0  0  0  0  0  0
   13.9272    8.2033    3.8142 C   0  0  2  0  0  0  0  0  0  0  0  0
   13.0756    7.4991    2.8788 O   0  0  0  0  0  0  0  0  0  0  0  0
   14.3565    7.2901    5.0954 C   0  0  1  0  0  0  0  0  0  0  0  0
   13.1297    6.9371    5.8907 O   0  0  0  0  0  0  0  0  0  0  0  0
   15.1118    5.9826    4.6697 C   0  0  0  0  0  0  0  0  0  0  0  0
   10.8510    8.2626    4.2981 N   0  0  0  0  0  0  0  0  0  0  0  0
  1  2  1  6  0  0  0
  1  3  1  0  0  0  0
  1 10  1  0  0  0  0
  3  4  1  6  0  0  0
  3  5  1  0  0  0  0
  5  6  1  1  0  0  0
  5  7  1  0  0  0  0
  7  8  1  6  0  0  0
  7  9  1  0  0  0  0
  9 10  1  0  0  0  0
  9 11  1  1  0  0  0
 11 12  1  0  0  0  0
 13 14  1  1  0  0  0
 13 15  1  0  0  0  0
 13 21  1  0  0  0  0
 16 15  1  0  0  0  0
 16 17  1  1  0  0  0
 18  2  1  6  0  0  0
 18 16  1  0  0  0  0
 19 18  1  0  0  0  0
 19 20  1  6  0  0  0
 21 19  1  0  0  0  0
 21 22  1  6  0  0  0
 23 20  1  1  0  0  0
 23 24  1  0  0  0  0
 23 28  1  0  0  0  0
 24 25  1  6  0  0  0
 24 26  1  0  0  0  0
 26 27  1  0  0  0  0
 26 32  1  1  0  0  0
 27 28  1  0  0  0  0
 27 29  1  1  0  0  0
 29 30  1  0  0  0  0
 31 32  1  6  0  0  0
 31 40  1  0  0  0  0
 33 31  1  0  0  0  0
 33 42  1  6  0  0  0
 35 33  1  0  0  0  0
 35 36  1  1  0  0  0
 37 35  1  0  0  0  0
 37 38  1  6  0  0  0
 37 39  1  0  0  0  0
 39 40  1  0  0  0  0
 39 41  1  6  0  0  0
 41 34  1  0  0  0  0
M  END
>  <CHROM.1>
-144.33736288,-147.17990160,-42.85784601,96.69264387,158.29494300,178.34555537
61.77559875,-68.24540649,-179.73313371,11.68277554,7.64702583,9.92198431
-1.88560195,-0.16710909,-1.46685758

>  <Name>
2et4_lig

>  <RI>
3.65815e+07

>  <Rbt.Current_Directory>
/home/itssahil/PROJECTS/Mol_Feturizer/New_Systems/rnas/2et4

>  <Rbt.Executable>
rbdock ($Id: //depot/dev/client3/rdock/2013.1/src/exe/rbdock.cxx#4 $)

>  <Rbt.Library>
libRbt.so (2013.1, Build901 2013/11/27)

>  <Rbt.Parameter_File>
/export/apps/rDock/src/rDock_2013.1_src/data/scripts/dock_solv.prm

>  <Rbt.Receptor>
prm/pocket_docking_4.prm

>  <SCORE>
-4.06887

>  <SCORE.INTER>
-7.83987

>  <SCORE.INTER.CONST>
1

>  <SCORE.INTER.POLAR>
-1.17193

>  <SCORE.INTER.ROT>
9

>  <SCORE.INTER.SOLV>
15.9168

>  <SCORE.INTER.VDW>
-16.2258

>  <SCORE.INTER.norm>
-0.186664

>  <SCORE.INTRA>
3.39383

>  <SCORE.INTRA.DIHEDRAL>
-5.21192

>  <SCORE.INTRA.DIHEDRAL.0>
21.6909

>  <SCORE.INTRA.POLAR>
0

>  <SCORE.INTRA.POLAR.0>
0

>  <SCORE.INTRA.REPUL>
0.736987

>  <SCORE.INTRA.REPUL.0>
0

>  <SCORE.INTRA.SOLV>
0.785816

>  <SCORE.INTRA.SOLV.lig_0>
-116.606

>  <SCORE.INTRA.VDW>
1.92194

>  <SCORE.INTRA.VDW.0>
-6.01229

>  <SCORE.INTRA.norm>
0.0808054

>  <SCORE.RESTR>
0.377171

>  <SCORE.RESTR.CAVITY>
0.377171

>  <SCORE.RESTR.norm>
0.00898026

>  <SCORE.SYSTEM>
0

>  <SCORE.SYSTEM.CONST>
0

>  <SCORE.SYSTEM.DIHEDRAL>
0

>  <SCORE.SYSTEM.SOLV>
0

>  <SCORE.SYSTEM.norm>
0

>  <SCORE.heavy>
42

>  <SCORE.norm>
-0.0968779

>  <RMSD>
9.119

$$$$
2et4_lig
 OpenBabel11021811423D
libRbt.so/2013.1/901 2013/11/27
 42 45  0  0  0  0  0  0  0  0999 V2000
   14.0057    4.7021   13.1832 C   0  0  2  0  0  0  0  0  0  0  0  0
   12.7544    4.9770   12.5502 O   0  0  0  0  0  0  0  0  0  0  0  0
   14.8419    6.0062   13.1283 C   0  0  2  0  0  0  0  0  0  0  0  0
   14.1506    7.1004   13.7610 N   0  0  0  0  0  0  0  0  0  0  0  0
   15.1775    6.3386   11.6457 C   0  0  1  0  0  0  0  0  0  0  0  0
   15.9428    7.5022   11.6003 O   0  0  0  0  0  0  0  0  0  0  0  0
   15.9264    5.1115   11.0266 C   0  0  2  0  0  0  0  0  0  0  0  0
   16.2450    5.3675    9.6751 O   0  0  0  0  0  0  0  0  0  0  0  0
   15.0511    3.8246   11.1148 C   0  0  2  0  0  0  0  0  0  0  0  0
   14.7232    3.5958   12.4885 O   0  0  0  0  0  0  0  0  0  0  0  0
   15.7850    2.5680   10.5423 C   0  0  0  0  0  0  0  0  0  0  0  0
   14.9445    1.4217   10.5154 N   0  0  0  0  0  0  0  0  0  0  0  0
    8.6580    5.9630   13.5001 C   0  0  2  0  0  0  0  0  0  0  0  0
    7.4983    6.5104   14.2151 N   0  0  0  0  0  0  0  0  0  0  0  0
    9.4357    4.9075   14.4559 C   0  0  0  0  0  0  0  0  0  0  0  0
   10.6932    4.3314   13.6852 C   0  0  2  0  0  0  0  0  0  0  0  0
   11.4458    3.3851   14.5276 N   0  0  0  0  0  0  0  0  0  0  0  0
   11.6290    5.5128   13.2598 C   0  0  2  0  0  0  0  0  0  0  0  0
   10.8584    6.5373   12.3629 C   0  0  2  0  0  0  0  0  0  0  0  0
   11.8003    7.5894   12.0388 O   0  0  0  0  0  0  0  0  0  0  0  0
    9.6260    7.1018   13.1401 C   0  0  1  0  0  0  0  0  0  0  0  0
    8.9554    7.9951   12.3167 O   0  0  0  0  0  0  0  0  0  0  0  0
   12.3735    7.7846   10.8266 C   0  0  1  0  0  0  0  0  0  0  0  0
   11.2987    8.0450    9.7390 C   0  0  2  0  0  0  0  0  0  0  0  0
   10.7567    6.8695    9.2105 O   0  0  0  0  0  0  0  0  0  0  0  0
   12.0909    8.9596    8.8233 C   0  0  1  0  0  0  0  0  0  0  0  0
   12.9569    9.8483    9.7271 C   0  0  2  0  0  0  0  0  0  0  0  0
   13.2838    8.9152   10.7568 O   0  0  0  0  0  0  0  0  0  0  0  0
   12.2485   11.1233   10.2992 C   0  0  0  0  0  0  0  0  0  0  0  0
   11.1089   10.6741   11.0793 O   0  0  0  0  0  0  0  0  0  0  0  0
   13.6025    8.7118    6.8803 C   0  0  2  0  0  0  0  0  0  0  0  0
   12.9190    8.0987    7.9391 O   0  0  0  0  0  0  0  0  0  0  0  0
   12.5918    9.3483    5.8300 C   0  0  1  0  0  0  0  0  0  0  0  0
   17.1692    6.4185    5.4152 N   0  0  0  0  0  0  0  0  0  0  0  0
   13.4836   10.0033    4.6501 C   0  0  1  0  0  0  0  0  0  0  0  0
   14.4009   11.0375    5.2717 O   0  0  0  0  0  0  0  0  0  0  0  0
   14.3523    8.8518    3.9113 C   0  0  2  0  0  0  0  0  0  0  0  0
   13.4549    7.8826    3.3185 O   0  0  0  0  0  0  0  0  0  0  0  0
   15.3476    8.1985    5.0260 C   0  0  1  0  0  0  0  0  0  0  0  0
   14.5338    7.6797    6.1794 O   0  0  0  0  0  0  0  0  0  0  0  0
   16.2313    7.0453    4.4339 C   0  0  0  0  0  0  0  0  0  0  0  0
   11.6377    8.3013    5.3355 N   0  0  0  0  0  0  0  0  0  0  0  0
  1  2  1  6  0  0  0
  1  3  1  0  0  0  0
  1 10  1  0  0  0  0
  3  4  1  6  0  0  0
  3  5  1  0  0  0  0
  5  6  1  1  0  0  0
  5  7  1  0  0  0  0
  7  8  1  6  0  0  0
  7  9  1  0  0  0  0
  9 10  1  0  0  0  0
  9 11  1  1  0  0  0
 11 12  1  0  0  0  0
 13 14  1  1  0  0  0
 13 15  1  0  0  0  0
 13 21  1  0  0  0  0
 16 15  1  0  0  0  0
 16 17  1  1  0  0  0
 18  2  1  6  0  0  0
 18 16  1  0  0  0  0
 19 18  1  0  0  0  0
 19 20  1  1  0  0  0
 21 19  1  0  0  0  0
 21 22  1  6  0  0  0
 23 20  1  1  0  0  0
 23 24  1  0  0  0  0
 23 28  1  0  0  0  0
 24 25  1  6  0  0  0
 24 26  1  0  0  0  0
 26 27  1  0  0  0  0
 26 32  1  6  0  0  0
 27 28  1  0  0  0  0
 27 29  1  1  0  0  0
 29 30  1  0  0  0  0
 31 32  1  1  0  0  0
 31 40  1  0  0  0  0
 33 31  1  0  0  0  0
 33 42  1  6  0  0  0
 35 33  1  0  0  0  0
 35 36  1  1  0  0  0
 37 35  1  0  0  0  0
 37 38  1  1  0  0  0
 37 39  1  0  0  0  0
 39 40  1  0  0  0  0
 39 41  1  6  0  0  0
 41 34  1  0  0  0  0
M  END
>  <CHROM.1>
-87.67394273,-174.83560841,-96.07072217,107.46440118,60.07098573,171.43262547
59.69612750,-63.80849505,179.61109667,13.01016748,6.97675154,9.96448142,-1.97029722
0.62750907,-0.94579458

>  <Name>
2et4_lig

>  <RI>
0

>  <Rbt.Current_Directory>
/home/itssahil/PROJECTS/Mol_Feturizer/New_Systems/rnas/2et4

>  <Rbt.Executable>
rbdock ($Id: //depot/dev/client3/rdock/2013.1/src/exe/rbdock.cxx#4 $)

>  <Rbt.Library>
libRbt.so (2013.1, Build901 2013/11/27)

>  <Rbt.Parameter_File>
/export/apps/rDock/src/rDock_2013.1_src/data/scripts/dock_solv.prm

>  <Rbt.Receptor>
prm/pocket_docking_5.prm

>  <SCORE>
-17.8387

>  <SCORE.INTER>
-14.6801

>  <SCORE.INTER.CONST>
1

>  <SCORE.INTER.POLAR>
-1.41894

>  <SCORE.INTER.ROT>
9

>  <SCORE.INTER.SOLV>
21.9148

>  <SCORE.INTER.VDW>
-21.9619

>  <SCORE.INTER.norm>
-0.349525

>  <SCORE.INTRA>
-3.15865

>  <SCORE.INTRA.DIHEDRAL>
-6.66617

>  <SCORE.INTRA.DIHEDRAL.0>
21.6909

>  <SCORE.INTRA.POLAR>
0

>  <SCORE.INTRA.POLAR.0>
0

>  <SCORE.INTRA.REPUL>
0

>  <SCORE.INTRA.REPUL.0>
0

>  <SCORE.INTRA.SOLV>
-0.0471315

>  <SCORE.INTRA.SOLV.lig_0>
-116.606

>  <SCORE.INTRA.VDW>
0.198006

>  <SCORE.INTRA.VDW.0>
-6.01229

>  <SCORE.INTRA.norm>
-0.0752059

>  <SCORE.RESTR>
0

>  <SCORE.RESTR.CAVITY>
0

>  <SCORE.RESTR.norm>
0

>  <SCORE.SYSTEM>
0

>  <SCORE.SYSTEM.CONST>
0

>  <SCORE.SYSTEM.DIHEDRAL>
0

>  <SCORE.SYSTEM.SOLV>
0

>  <SCORE.SYSTEM.norm>
0

>  <SCORE.heavy>
42

>  <SCORE.norm>
-0.424731

>  <RMSD>
9.139

$$$$
2et4_lig
 OpenBabel11021811423D
libRbt.so/2013.1/901 2013/11/27
 42 45  0  0  0  0  0  0  0  0999 V2000
    8.0799    6.1684   11.9208 C   0  0  2  0  0  0  0  0  0  0  0  0
    8.8711    6.2703   10.7351 O   0  0  0  0  0  0  0  0  0  0  0  0
    7.9965    7.5879   12.5379 C   0  0  2  0  0  0  0  0  0  0  0  0
    7.4425    8.5349   11.6041 N   0  0  0  0  0  0  0  0  0  0  0  0
    9.4135    8.0278   13.0069 C   0  0  1  0  0  0  0  0  0  0  0  0
    9.3328    9.2973   13.5758 O   0  0  0  0  0  0  0  0  0  0  0  0
    9.9487    6.9581   14.0165 C   0  0  2  0  0  0  0  0  0  0  0  0
   11.2395    7.3146   14.4639 O   0  0  0  0  0  0  0  0  0  0  0  0
   10.0041    5.5481   13.3540 C   0  0  2  0  0  0  0  0  0  0  0  0
    8.6920    5.2161   12.8903 O   0  0  0  0  0  0  0  0  0  0  0  0
   10.4957    4.4451   14.3475 C   0  0  0  0  0  0  0  0  0  0  0  0
   10.5843    3.1676   13.7300 N   0  0  0  0  0  0  0  0  0  0  0  0
    9.0755    2.1791    9.3659 C   0  0  2  0  0  0  0  0  0  0  0  0
    9.3426    1.0226    8.5017 N   0  0  0  0  0  0  0  0  0  0  0  0
    8.0488    3.1889    8.6187 C   0  0  0  0  0  0  0  0  0  0  0  0
    7.7758    4.4408    9.5491 C   0  0  2  0  0  0  0  0  0  0  0  0
    6.8658    5.3995    8.8975 N   0  0  0  0  0  0  0  0  0  0  0  0
    9.1329    5.1488    9.8803 C   0  0  2  0  0  0  0  0  0  0  0  0
   10.1232    4.1559   10.5739 C   0  0  2  0  0  0  0  0  0  0  0  0
   11.3422    4.8984   10.8227 O   0  0  0  0  0  0  0  0  0  0  0  0
   10.3880    2.9311    9.6406 C   0  0  1  0  0  0  0  0  0  0  0  0
   11.2567    2.0628   10.2863 O   0  0  0  0  0  0  0  0  0  0  0  0
   12.1399    5.4405    9.8708 C   0  0  1  0  0  0  0  0  0  0  0  0
   12.9024    4.3381    9.0906 C   0  0  2  0  0  0  0  0  0  0  0  0
   14.0743    3.9234    9.7307 O   0  0  0  0  0  0  0  0  0  0  0  0
   13.0112    5.0218    7.7402 C   0  0  1  0  0  0  0  0  0  0  0  0
   11.7001    5.7916    7.5274 C   0  0  2  0  0  0  0  0  0  0  0  0
   11.4431    6.2229    8.8637 O   0  0  0  0  0  0  0  0  0  0  0  0
   10.5110    4.9526    6.9469 C   0  0  0  0  0  0  0  0  0  0  0  0
   10.9427    4.4133    5.6694 O   0  0  0  0  0  0  0  0  0  0  0  0
   14.6931    6.4183    6.5817 C   0  0  2  0  0  0  0  0  0  0  0  0
   14.1838    5.9333    7.7939 O   0  0  0  0  0  0  0  0  0  0  0  0
   15.8596    7.4720    6.8240 C   0  0  1  0  0  0  0  0  0  0  0  0
   11.9745    9.2751    4.4634 N   0  0  0  0  0  0  0  0  0  0  0  0
   16.3527    7.9771    5.3686 C   0  0  1  0  0  0  0  0  0  0  0  0
   16.8184    6.7674    4.5829 O   0  0  0  0  0  0  0  0  0  0  0  0
   15.1321    8.7133    4.5975 C   0  0  2  0  0  0  0  0  0  0  0  0
   14.7120    9.8690    5.3618 O   0  0  0  0  0  0  0  0  0  0  0  0
   13.9433    7.6143    4.4011 C   0  0  1  0  0  0  0  0  0  0  0  0
   13.5493    7.0595    5.7424 O   0  0  0  0  0  0  0  0  0  0  0  0
   12.6861    8.2174    3.6821 C   0  0  0  0  0  0  0  0  0  0  0  0
   15.3708    8.5873    7.7004 N   0  0  0  0  0  0  0  0  0  0  0  0
  1  2  1  6  0  0  0
  1  3  1  0  0  0  0
  1 10  1  0  0  0  0
  3  4  1  6  0  0  0
  3  5  1  0  0  0  0
  5  6  1  1  0  0  0
  5  7  1  0  0  0  0
  7  8  1  6  0  0  0
  7  9  1  0  0  0  0
  9 10  1  0  0  0  0
  9 11  1  1  0  0  0
 11 12  1  0  0  0  0
 13 14  1  6  0  0  0
 13 15  1  0  0  0  0
 13 21  1  0  0  0  0
 16 15  1  0  0  0  0
 16 17  1  6  0  0  0
 18  2  1  1  0  0  0
 18 16  1  0  0  0  0
 19 18  1  0  0  0  0
 19 20  1  6  0  0  0
 21 19  1  0  0  0  0
 21 22  1  1  0  0  0
 23 20  1  1  0  0  0
 23 24  1  0  0  0  0
 23 28  1  0  0  0  0
 24 25  1  1  0  0  0
 24 26  1  0  0  0  0
 26 27  1  0  0  0  0
 26 32  1  1  0  0  0
 27 28  1  0  0  0  0
 27 29  1  1  0  0  0
 29 30  1  0  0  0  0
 31 32  1  1  0  0  0
 31 40  1  0  0  0  0
 33 31  1  0  0  0  0
 33 42  1  1  0  0  0
 35 33  1  0  0  0  0
 35 36  1  6  0  0  0
 37 35  1  0  0  0  0
 37 38  1  1  0  0  0
 37 39  1  0  0  0  0
 39 40  1  0  0  0  0
 39 41  1  1  0  0  0
 41 34  1  0  0  0  0
M  END
>  <CHROM.1>
-178.34927602,-178.20712145,50.22197977,-62.81120154,-71.23357838,164.17439694
-58.71502177,175.10925089,-65.42867853,11.39403341,5.91276420,9.16498570
-2.83307784,-0.88766957,-2.45195933

>  <Name>
2et4_lig

>  <RI>
3.65815e+07

>  <Rbt.Current_Directory>
/home/itssahil/PROJECTS/Mol_Feturizer/New_Systems/rnas/2et4

>  <Rbt.Executable>
rbdock ($Id: //depot/dev/client3/rdock/2013.1/src/exe/rbdock.cxx#4 $)

>  <Rbt.Library>
libRbt.so (2013.1, Build901 2013/11/27)

>  <Rbt.Parameter_File>
/export/apps/rDock/src/rDock_2013.1_src/data/scripts/dock_solv.prm

>  <Rbt.Receptor>
prm/pocket_docking_4.prm

>  <SCORE>
-6.74705

>  <SCORE.INTER>
1.54411

>  <SCORE.INTER.CONST>
1

>  <SCORE.INTER.POLAR>
-0.944252

>  <SCORE.INTER.ROT>
9

>  <SCORE.INTER.SOLV>
17.4876

>  <SCORE.INTER.VDW>
-11.2523

>  <SCORE.INTER.norm>
0.0367645

>  <SCORE.INTRA>
-8.29116

>  <SCORE.INTRA.DIHEDRAL>
-18.9988

>  <SCORE.INTRA.DIHEDRAL.0>
21.6909

>  <SCORE.INTRA.POLAR>
0

>  <SCORE.INTRA.POLAR.0>
0

>  <SCORE.INTRA.REPUL>
0

>  <SCORE.INTRA.REPUL.0>
0

>  <SCORE.INTRA.SOLV>
1.19857

>  <SCORE.INTRA.SOLV.lig_0>
-116.606

>  <SCORE.INTRA.VDW>
0.608945

>  <SCORE.INTRA.VDW.0>
-6.01229

>  <SCORE.INTRA.norm>
-0.197409

>  <SCORE.RESTR>
0

>  <SCORE.RESTR.CAVITY>
0

>  <SCORE.RESTR.norm>
0

>  <SCORE.SYSTEM>
0

>  <SCORE.SYSTEM.CONST>
0

>  <SCORE.SYSTEM.DIHEDRAL>
0

>  <SCORE.SYSTEM.SOLV>
0

>  <SCORE.SYSTEM.norm>
0

>  <SCORE.heavy>
42

>  <SCORE.norm>
-0.160644

>  <RMSD>
9.151

$$$$
2et4_lig
 OpenBabel11021811423D
libRbt.so/2013.1/901 2013/11/27
 42 45  0  0  0  0  0  0  0  0999 V2000
   14.7474    7.3193   12.1238 C   0  0  2  0  0  0  0  0  0  0  0  0
   14.3582    8.0526   10.9606 O   0  0  0  0  0  0  0  0  0  0  0  0
   15.8443    6.3157   11.6854 C   0  0  2  0  0  0  0  0  0  0  0  0
   16.9629    6.9918   11.0794 N   0  0  0  0  0  0  0  0  0  0  0  0
   15.2258    5.2726   10.7104 C   0  0  1  0  0  0  0  0  0  0  0  0
   16.2100    4.3623   10.3307 O   0  0  0  0  0  0  0  0  0  0  0  0
   14.0236    4.5791   11.4342 C   0  0  2  0  0  0  0  0  0  0  0  0
   13.4259    3.6266   10.5804 O   0  0  0  0  0  0  0  0  0  0  0  0
   12.9542    5.6286   11.8642 C   0  0  2  0  0  0  0  0  0  0  0  0
   13.5850    6.5941   12.7107 O   0  0  0  0  0  0  0  0  0  0  0  0
   11.7562    4.9755   12.6282 C   0  0  0  0  0  0  0  0  0  0  0  0
   11.0039    4.0999   11.7985 N   0  0  0  0  0  0  0  0  0  0  0  0
   10.4817    9.6736   11.9606 C   0  0  2  0  0  0  0  0  0  0  0  0
    9.3040   10.5502   11.9436 N   0  0  0  0  0  0  0  0  0  0  0  0
   11.7986   10.5419   12.3399 C   0  0  0  0  0  0  0  0  0  0  0  0
   13.0674    9.5946   12.3426 C   0  0  2  0  0  0  0  0  0  0  0  0
   14.2937   10.3486   12.6580 N   0  0  0  0  0  0  0  0  0  0  0  0
   13.2149    8.9184   10.9378 C   0  0  2  0  0  0  0  0  0  0  0  0
   11.9270    8.1087   10.5724 C   0  0  2  0  0  0  0  0  0  0  0  0
   12.1578    7.5401    9.2600 O   0  0  0  0  0  0  0  0  0  0  0  0
   10.6864    9.0586   10.5665 C   0  0  1  0  0  0  0  0  0  0  0  0
    9.5593    8.3118   10.2538 O   0  0  0  0  0  0  0  0  0  0  0  0
   12.6790    8.2011    8.1981 C   0  0  1  0  0  0  0  0  0  0  0  0
   13.3267    7.2141    7.1922 C   0  0  2  0  0  0  0  0  0  0  0  0
   14.6399    6.8709    7.5283 O   0  0  0  0  0  0  0  0  0  0  0  0
   13.0785    7.9764    5.9038 C   0  0  1  0  0  0  0  0  0  0  0  0
   11.6996    8.6374    6.0397 C   0  0  2  0  0  0  0  0  0  0  0  0
   11.7178    8.9718    7.4274 O   0  0  0  0  0  0  0  0  0  0  0  0
   10.4764    7.7289    5.6750 C   0  0  0  0  0  0  0  0  0  0  0  0
   10.6421    7.3107    4.2941 O   0  0  0  0  0  0  0  0  0  0  0  0
   14.5581    9.3463    4.4701 C   0  0  2  0  0  0  0  0  0  0  0  0
   14.1621    8.9839    5.7647 O   0  0  0  0  0  0  0  0  0  0  0  0
   15.4521   10.6617    4.4850 C   0  0  1  0  0  0  0  0  0  0  0  0
   12.3594   10.6426   -0.0196 N   0  0  0  0  0  0  0  0  0  0  0  0
   15.8297   10.9962    2.9481 C   0  0  1  0  0  0  0  0  0  0  0  0
   16.5652    9.8021    2.3731 O   0  0  0  0  0  0  0  0  0  0  0  0
   14.4802   11.2882    2.0996 C   0  0  2  0  0  0  0  0  0  0  0  0
   13.8016   12.4370    2.6615 O   0  0  0  0  0  0  0  0  0  0  0  0
   13.5744    9.9325    2.1386 C   0  0  1  0  0  0  0  0  0  0  0  0
   13.3056    9.5524    3.5687 O   0  0  0  0  0  0  0  0  0  0  0  0
   12.2192   10.0981    1.3658 C   0  0  0  0  0  0  0  0  0  0  0  0
   14.7148   11.7764    5.1667 N   0  0  0  0  0  0  0  0  0  0  0  0
  1  2  1  6  0  0  0
  1  3  1  0  0  0  0
  1 10  1  0  0  0  0
  3  4  1  6  0  0  0
  3  5  1  0  0  0  0
  5  6  1  1  0  0  0
  5  7  1  0  0  0  0
  7  8  1  6  0  0  0
  7  9  1  0  0  0  0
  9 10  1  0  0  0  0
  9 11  1  1  0  0  0
 11 12  1  0  0  0  0
 13 14  1  6  0  0  0
 13 15  1  0  0  0  0
 13 21  1  0  0  0  0
 16 15  1  0  0  0  0
 16 17  1  6  0  0  0
 18  2  1  1  0  0  0
 18 16  1  0  0  0  0
 19 18  1  0  0  0  0
 19 20  1  6  0  0  0
 21 19  1  0  0  0  0
 21 22  1  1  0  0  0
 23 20  1  1  0  0  0
 23 24  1  0  0  0  0
 23 28  1  0  0  0  0
 24 25  1  1  0  0  0
 24 26  1  0  0  0  0
 26 27  1  0  0  0  0
 26 32  1  1  0  0  0
 27 28  1  0  0  0  0
 27 29  1  1  0  0  0
 29 30  1  0  0  0  0
 31 32  1  1  0  0  0
 31 40  1  0  0  0  0
 33 31  1  0  0  0  0
 33 42  1  6  0  0  0
 35 33  1  0  0  0  0
 35 36  1  6  0  0  0
 37 35  1  0  0  0  0
 37 38  1  1  0  0  0
 37 39  1  0  0  0  0
 39 40  1  0  0  0  0
 39 41  1  6  0  0  0
 41 34  1  0  0  0  0
M  END
>  <CHROM.1>
169.64822961,-65.47239844,34.56640568,-45.22585248,156.20218179,149.63717387
-59.29262334,166.17204014,50.61275173,13.23279859,8.28685776,8.06416242,-1.65808987
0.56987962,-1.15379824

>  <Name>
2et4_lig

>  <RI>
0

>  <Rbt.Current_Directory>
/home/itssahil/PROJECTS/Mol_Feturizer/New_Systems/rnas/2et4

>  <Rbt.Executable>
rbdock ($Id: //depot/dev/client3/rdock/2013.1/src/exe/rbdock.cxx#4 $)

>  <Rbt.Library>
libRbt.so (2013.1, Build901 2013/11/27)

>  <Rbt.Parameter_File>
/export/apps/rDock/src/rDock_2013.1_src/data/scripts/dock_solv.prm

>  <Rbt.Receptor>
prm/pocket_docking_6.prm

>  <SCORE>
-11.5555

>  <SCORE.INTER>
-7.40063

>  <SCORE.INTER.CONST>
1

>  <SCORE.INTER.POLAR>
-1.19592

>  <SCORE.INTER.ROT>
9

>  <SCORE.INTER.SOLV>
28.0896

>  <SCORE.INTER.VDW>
-19.9105

>  <SCORE.INTER.norm>
-0.176205

>  <SCORE.INTRA>
-4.15485

>  <SCORE.INTRA.DIHEDRAL>
-9.82511

>  <SCORE.INTRA.DIHEDRAL.0>
21.6909

>  <SCORE.INTRA.POLAR>
0

>  <SCORE.INTRA.POLAR.0>
0

>  <SCORE.INTRA.REPUL>
0

>  <SCORE.INTRA.REPUL.0>
0

>  <SCORE.INTRA.SOLV>
-1.84273

>  <SCORE.INTRA.SOLV.lig_0>
-116.606

>  <SCORE.INTRA.VDW>
1.67907

>  <SCORE.INTRA.VDW.0>
-6.01229

>  <SCORE.INTRA.norm>
-0.0989249

>  <SCORE.RESTR>
0

>  <SCORE.RESTR.CAVITY>
0

>  <SCORE.RESTR.norm>
0

>  <SCORE.SYSTEM>
0

>  <SCORE.SYSTEM.CONST>
0

>  <SCORE.SYSTEM.DIHEDRAL>
0

>  <SCORE.SYSTEM.SOLV>
0

>  <SCORE.SYSTEM.norm>
0

>  <SCORE.heavy>
42

>  <SCORE.norm>
-0.27513

>  <RMSD>
9.151

$$$$
2et4_lig
 OpenBabel11021811423D
libRbt.so/2013.1/901 2013/11/27
 42 45  0  0  0  0  0  0  0  0999 V2000
   12.9253    7.0452   12.1789 C   0  0  2  0  0  0  0  0  0  0  0  0
   12.8264    6.7862   10.7770 O   0  0  0  0  0  0  0  0  0  0  0  0
   14.4214    6.9160   12.5632 C   0  0  2  0  0  0  0  0  0  0  0  0
   15.2411    7.8163   11.7931 N   0  0  0  0  0  0  0  0  0  0  0  0
   14.8756    5.4405   12.3689 C   0  0  1  0  0  0  0  0  0  0  0  0
   16.2163    5.3238   12.7303 O   0  0  0  0  0  0  0  0  0  0  0  0
   13.9462    4.5245   13.2332 C   0  0  2  0  0  0  0  0  0  0  0  0
   14.3193    3.1713   13.0809 O   0  0  0  0  0  0  0  0  0  0  0  0
   12.4539    4.6976   12.8172 C   0  0  2  0  0  0  0  0  0  0  0  0
   12.1034    6.0773   12.9594 O   0  0  0  0  0  0  0  0  0  0  0  0
   11.4907    3.8271   13.6890 C   0  0  0  0  0  0  0  0  0  0  0  0
   10.1330    3.9672   13.2913 N   0  0  0  0  0  0  0  0  0  0  0  0
   13.4901    8.6045    6.9160 C   0  0  2  0  0  0  0  0  0  0  0  0
   13.9973    9.5247    5.8905 N   0  0  0  0  0  0  0  0  0  0  0  0
   12.6458    9.4379    8.0228 C   0  0  0  0  0  0  0  0  0  0  0  0
   12.1137    8.4428    9.1336 C   0  0  2  0  0  0  0  0  0  0  0  0
   11.3607    9.1625   10.1760 N   0  0  0  0  0  0  0  0  0  0  0  0
   13.3251    7.6939    9.7849 C   0  0  2  0  0  0  0  0  0  0  0  0
   14.1467    6.9186    8.7025 C   0  0  2  0  0  0  0  0  0  0  0  0
   15.2434    6.2783    9.3998 O   0  0  0  0  0  0  0  0  0  0  0  0
   14.6708    7.9150    7.6190 C   0  0  1  0  0  0  0  0  0  0  0  0
   15.3822    7.1987    6.6669 O   0  0  0  0  0  0  0  0  0  0  0  0
   16.0782    5.3524    8.8688 C   0  0  1  0  0  0  0  0  0  0  0  0
   17.1838    4.9551    9.8814 C   0  0  2  0  0  0  0  0  0  0  0  0
   18.2733    5.8314    9.8765 O   0  0  0  0  0  0  0  0  0  0  0  0
   17.4033    3.5154    9.4548 C   0  0  1  0  0  0  0  0  0  0  0  0
   16.0267    2.9518    9.0753 C   0  0  2  0  0  0  0  0  0  0  0  0
   15.4390    4.1073    8.4776 O   0  0  0  0  0  0  0  0  0  0  0  0
   15.1664    2.4110   10.2678 C   0  0  0  0  0  0  0  0  0  0  0  0
   15.9017    1.3138   10.8717 O   0  0  0  0  0  0  0  0  0  0  0  0
   18.6572    2.3029    7.7000 C   0  0  2  0  0  0  0  0  0  0  0  0
   18.3325    3.5296    8.2950 O   0  0  0  0  0  0  0  0  0  0  0  0
   19.9216    2.4394    6.7448 C   0  0  1  0  0  0  0  0  0  0  0  0
   15.0887    0.0125    6.3312 N   0  0  0  0  0  0  0  0  0  0  0  0
   20.1893    0.9799    6.1007 C   0  0  1  0  0  0  0  0  0  0  0  0
   20.4220    0.0004    7.2338 O   0  0  0  0  0  0  0  0  0  0  0  0
   18.9101    0.5242    5.2163 C   0  0  2  0  0  0  0  0  0  0  0  0
   18.7145    1.4688    4.1367 O   0  0  0  0  0  0  0  0  0  0  0  0
   17.6284    0.4319    6.2206 C   0  0  1  0  0  0  0  0  0  0  0  0
   17.4345    1.7566    6.9060 O   0  0  0  0  0  0  0  0  0  0  0  0
   16.3126    0.0197    5.4724 C   0  0  0  0  0  0  0  0  0  0  0  0
   19.6751    3.5019    5.7147 N   0  0  0  0  0  0  0  0  0  0  0  0
  1  2  1  6  0  0  0
  1  3  1  0  0  0  0
  1 10  1  0  0  0  0
  3  4  1  6  0  0  0
  3  5  1  0  0  0  0
  5  6  1  1  0  0  0
  5  7  1  0  0  0  0
  7  8  1  6  0  0  0
  7  9  1  0  0  0  0
  9 10  1  0  0  0  0
  9 11  1  1  0  0  0
 11 12  1  0  0  0  0
 13 14  1  6  0  0  0
 13 15  1  0  0  0  0
 13 21  1  0  0  0  0
 16 15  1  0  0  0  0
 16 17  1  1  0  0  0
 18  2  1  1  0  0  0
 18 16  1  0  0  0  0
 19 18  1  0  0  0  0
 19 20  1  1  0  0  0
 21 19  1  0  0  0  0
 21 22  1  6  0  0  0
 23 20  1  1  0  0  0
 23 24  1  0  0  0  0
 23 28  1  0  0  0  0
 24 25  1  6  0  0  0
 24 26  1  0  0  0  0
 26 27  1  0  0  0  0
 26 32  1  6  0  0  0
 27 28  1  0  0  0  0
 27 29  1  1  0  0  0
 29 30  1  0  0  0  0
 31 32  1  6  0  0  0
 31 40  1  0  0  0  0
 33 31  1  0  0  0  0
 33 42  1  6  0  0  0
 35 33  1  0  0  0  0
 35 36  1  1  0  0  0
 37 35  1  0  0  0  0
 37 38  1  6  0  0  0
 37 39  1  0  0  0  0
 39 40  1  0  0  0  0
 39 41  1  6  0  0  0
 41 34  1  0  0  0  0
M  END
>  <CHROM.1>
-70.35098137,-178.88763844,-104.62860664,169.73840618,176.53181511,-178.28202042
-61.68092945,-165.29398879,-175.98777790,15.50238221,4.59253273,9.21210215
3.06505871,0.90328802,-0.74603746

>  <Name>
2et4_lig

>  <RI>
1.79929e+07

>  <Rbt.Current_Directory>
/home/itssahil/PROJECTS/Mol_Feturizer/New_Systems/rnas/2et4

>  <Rbt.Executable>
rbdock ($Id: //depot/dev/client3/rdock/2013.1/src/exe/rbdock.cxx#4 $)

>  <Rbt.Library>
libRbt.so (2013.1, Build901 2013/11/27)

>  <Rbt.Parameter_File>
/export/apps/rDock/src/rDock_2013.1_src/data/scripts/dock_solv.prm

>  <Rbt.Receptor>
prm/pocket_docking_7.prm

>  <SCORE>
-25.449

>  <SCORE.INTER>
-18.8146

>  <SCORE.INTER.CONST>
1

>  <SCORE.INTER.POLAR>
-2.19559

>  <SCORE.INTER.ROT>
9

>  <SCORE.INTER.SOLV>
18.6532

>  <SCORE.INTER.VDW>
-21.0422

>  <SCORE.INTER.norm>
-0.447968

>  <SCORE.INTRA>
-6.63434

>  <SCORE.INTRA.DIHEDRAL>
-13.256

>  <SCORE.INTRA.DIHEDRAL.0>
21.6909

>  <SCORE.INTRA.POLAR>
0

>  <SCORE.INTRA.POLAR.0>
0

>  <SCORE.INTRA.REPUL>
0

>  <SCORE.INTRA.REPUL.0>
0

>  <SCORE.INTRA.SOLV>
0.179953

>  <SCORE.INTRA.SOLV.lig_0>
-116.606

>  <SCORE.INTRA.VDW>
-0.0963023

>  <SCORE.INTRA.VDW.0>
-6.01229

>  <SCORE.INTRA.norm>
-0.157961

>  <SCORE.RESTR>
0

>  <SCORE.RESTR.CAVITY>
0

>  <SCORE.RESTR.norm>
0

>  <SCORE.SYSTEM>
0

>  <SCORE.SYSTEM.CONST>
0

>  <SCORE.SYSTEM.DIHEDRAL>
0

>  <SCORE.SYSTEM.SOLV>
0

>  <SCORE.SYSTEM.norm>
0

>  <SCORE.heavy>
42

>  <SCORE.norm>
-0.605928

>  <RMSD>
9.168

$$$$
2et4_lig
 OpenBabel11021811423D
libRbt.so/2013.1/901 2013/11/27
 42 45  0  0  0  0  0  0  0  0999 V2000
    9.0978    5.0519   10.8933 C   0  0  2  0  0  0  0  0  0  0  0  0
    8.9822    6.3927   11.3741 O   0  0  0  0  0  0  0  0  0  0  0  0
    8.5785    5.0438    9.4328 C   0  0  2  0  0  0  0  0  0  0  0  0
    9.3104    5.9727    8.6100 N   0  0  0  0  0  0  0  0  0  0  0  0
    7.0570    5.3694    9.4272 C   0  0  1  0  0  0  0  0  0  0  0  0
    6.5894    5.3455    8.1148 O   0  0  0  0  0  0  0  0  0  0  0  0
    6.3293    4.3228   10.3355 C   0  0  2  0  0  0  0  0  0  0  0  0
    4.9424    4.5857   10.3653 O   0  0  0  0  0  0  0  0  0  0  0  0
    6.8925    4.3617   11.7884 C   0  0  2  0  0  0  0  0  0  0  0  0
    8.3004    4.1136   11.7330 O   0  0  0  0  0  0  0  0  0  0  0  0
    6.2164    3.2989   12.7151 C   0  0  0  0  0  0  0  0  0  0  0  0
    6.4580    1.9697   12.2724 N   0  0  0  0  0  0  0  0  0  0  0  0
   10.3636    8.6074   14.8153 C   0  0  2  0  0  0  0  0  0  0  0  0
   11.2720    9.1833   15.8146 N   0  0  0  0  0  0  0  0  0  0  0  0
   10.4790    6.9893   14.8459 C   0  0  0  0  0  0  0  0  0  0  0  0
    9.5082    6.3744   13.7566 C   0  0  2  0  0  0  0  0  0  0  0  0
    9.5998    4.9038   13.7318 N   0  0  0  0  0  0  0  0  0  0  0  0
    9.8791    6.9464   12.3467 C   0  0  2  0  0  0  0  0  0  0  0  0
    9.7917    8.5085   12.3398 C   0  0  2  0  0  0  0  0  0  0  0  0
   10.1648    8.9348   11.0063 O   0  0  0  0  0  0  0  0  0  0  0  0
   10.7605    9.0994   13.4138 C   0  0  1  0  0  0  0  0  0  0  0  0
   10.6513   10.4827   13.3944 O   0  0  0  0  0  0  0  0  0  0  0  0
   11.2192    8.4639   10.2974 C   0  0  1  0  0  0  0  0  0  0  0  0
   11.5813    9.4249    9.1351 C   0  0  2  0  0  0  0  0  0  0  0  0
   10.8107    9.2134    7.9877 O   0  0  0  0  0  0  0  0  0  0  0  0
   13.0767    9.1764    9.0660 C   0  0  1  0  0  0  0  0  0  0  0  0
   13.5612    8.9907   10.5108 C   0  0  2  0  0  0  0  0  0  0  0  0
   12.4431    8.2958   11.0627 O   0  0  0  0  0  0  0  0  0  0  0  0
   13.8712   10.3116   11.2942 C   0  0  0  0  0  0  0  0  0  0  0  0
   14.5751   11.2002   10.3865 O   0  0  0  0  0  0  0  0  0  0  0  0
   14.6069    7.5969    7.9325 C   0  0  2  0  0  0  0  0  0  0  0  0
   13.2891    7.9519    8.2510 O   0  0  0  0  0  0  0  0  0  0  0  0
   14.6482    6.4821    6.7987 C   0  0  1  0  0  0  0  0  0  0  0  0
   16.6647    5.0786   11.0278 N   0  0  0  0  0  0  0  0  0  0  0  0
   16.2054    6.1366    6.5296 C   0  0  1  0  0  0  0  0  0  0  0  0
   16.9061    7.4141    6.1121 O   0  0  0  0  0  0  0  0  0  0  0  0
   16.8789    5.5398    7.8775 C   0  0  2  0  0  0  0  0  0  0  0  0
   16.1994    4.3168    8.2500 O   0  0  0  0  0  0  0  0  0  0  0  0
   16.7841    6.6949    9.0249 C   0  0  1  0  0  0  0  0  0  0  0  0
   15.3474    7.0998    9.2086 O   0  0  0  0  0  0  0  0  0  0  0  0
   17.3864    6.2252   10.3953 C   0  0  0  0  0  0  0  0  0  0  0  0
   13.8444    5.2883    7.2224 N   0  0  0  0  0  0  0  0  0  0  0  0
  1  2  1  1  0  0  0
  1  3  1  0  0  0  0
  1 10  1  0  0  0  0
  3  4  1  6  0  0  0
  3  5  1  0  0  0  0
  5  6  1  6  0  0  0
  5  7  1  0  0  0  0
  7  8  1  1  0  0  0
  7  9  1  0  0  0  0
  9 10  1  0  0  0  0
  9 11  1  1  0  0  0
 11 12  1  0  0  0  0
 13 14  1  1  0  0  0
 13 15  1  0  0  0  0
 13 21  1  0  0  0  0
 16 15  1  0  0  0  0
 16 17  1  6  0  0  0
 18  2  1  6  0  0  0
 18 16  1  0  0  0  0
 19 18  1  0  0  0  0
 19 20  1  6  0  0  0
 21 19  1  0  0  0  0
 21 22  1  1  0  0  0
 23 20  1  1  0  0  0
 23 24  1  0  0  0  0
 23 28  1  0  0  0  0
 24 25  1  6  0  0  0
 24 26  1  0  0  0  0
 26 27  1  0  0  0  0
 26 32  1  6  0  0  0
 27 28  1  0  0  0  0
 27 29  1  1  0  0  0
 29 30  1  0  0  0  0
 31 32  1  1  0  0  0
 31 40  1  0  0  0  0
 33 31  1  0  0  0  0
 33 42  1  1  0  0  0
 35 33  1  0  0  0  0
 35 36  1  1  0  0  0
 37 35  1  0  0  0  0
 37 38  1  1  0  0  0
 37 39  1  0  0  0  0
 39 40  1  0  0  0  0
 39 41  1  1  0  0  0
 41 34  1  0  0  0  0
M  END
>  <CHROM.1>
-149.25722908,62.52428516,-75.90553985,-45.00836998,-162.22760270,173.65146155
-42.15878320,-166.90274258,-63.56576927,11.45772128,6.84556694,10.47314724
3.01941374,0.42380907,0.84700350

>  <Name>
2et4_lig

>  <RI>
0

>  <Rbt.Current_Directory>
/home/itssahil/PROJECTS/Mol_Feturizer/New_Systems/rnas/2et4

>  <Rbt.Executable>
rbdock ($Id: //depot/dev/client3/rdock/2013.1/src/exe/rbdock.cxx#4 $)

>  <Rbt.Library>
libRbt.so (2013.1, Build901 2013/11/27)

>  <Rbt.Parameter_File>
/export/apps/rDock/src/rDock_2013.1_src/data/scripts/dock_solv.prm

>  <Rbt.Receptor>
prm/pocket_docking_5.prm

>  <SCORE>
-7.54546

>  <SCORE.INTER>
-4.51434

>  <SCORE.INTER.CONST>
1

>  <SCORE.INTER.POLAR>
-1.19961

>  <SCORE.INTER.ROT>
9

>  <SCORE.INTER.SOLV>
11.0994

>  <SCORE.INTER.VDW>
-12.3107

>  <SCORE.INTER.norm>
-0.107484

>  <SCORE.INTRA>
-3.03111

>  <SCORE.INTRA.DIHEDRAL>
-12.0231

>  <SCORE.INTRA.DIHEDRAL.0>
21.6909

>  <SCORE.INTRA.POLAR>
0

>  <SCORE.INTRA.POLAR.0>
0

>  <SCORE.INTRA.REPUL>
0

>  <SCORE.INTRA.REPUL.0>
0

>  <SCORE.INTRA.SOLV>
2.30779

>  <SCORE.INTRA.SOLV.lig_0>
-116.606

>  <SCORE.INTRA.VDW>
1.82655

>  <SCORE.INTRA.VDW.0>
-6.01229

>  <SCORE.INTRA.norm>
-0.0721693

>  <SCORE.RESTR>
0

>  <SCORE.RESTR.CAVITY>
0

>  <SCORE.RESTR.norm>
0

>  <SCORE.SYSTEM>
0

>  <SCORE.SYSTEM.CONST>
0

>  <SCORE.SYSTEM.DIHEDRAL>
0

>  <SCORE.SYSTEM.SOLV>
0

>  <SCORE.SYSTEM.norm>
0

>  <SCORE.heavy>
42

>  <SCORE.norm>
-0.179654

>  <RMSD>
9.187

$$$$
2et4_lig
 OpenBabel11021811423D
libRbt.so/2013.1/901 2013/11/27
 42 45  0  0  0  0  0  0  0  0999 V2000
   11.9756    8.2472   14.1580 C   0  0  2  0  0  0  0  0  0  0  0  0
   11.4817    9.0230   13.0642 O   0  0  0  0  0  0  0  0  0  0  0  0
   13.4436    7.8748   13.8280 C   0  0  2  0  0  0  0  0  0  0  0  0
   14.2452    9.0500   13.6000 N   0  0  0  0  0  0  0  0  0  0  0  0
   13.4682    6.9318   12.5905 C   0  0  1  0  0  0  0  0  0  0  0  0
   14.7877    6.5856   12.3060 O   0  0  0  0  0  0  0  0  0  0  0  0
   12.5826    5.6815   12.9105 C   0  0  2  0  0  0  0  0  0  0  0  0
   12.5705    4.7993   11.8082 O   0  0  0  0  0  0  0  0  0  0  0  0
   11.1211    6.1075   13.2457 C   0  0  2  0  0  0  0  0  0  0  0  0
   11.1583    7.0158   14.3504 O   0  0  0  0  0  0  0  0  0  0  0  0
   10.2164    4.8855   13.6115 C   0  0  0  0  0  0  0  0  0  0  0  0
   10.0332    4.0048   12.5107 N   0  0  0  0  0  0  0  0  0  0  0  0
   11.6892   13.0949   11.6388 C   0  0  2  0  0  0  0  0  0  0  0  0
   12.2442   14.4018   11.2652 N   0  0  0  0  0  0  0  0  0  0  0  0
   11.9691   12.8165   13.2125 C   0  0  0  0  0  0  0  0  0  0  0  0
   11.3814   11.3999   13.6062 C   0  0  2  0  0  0  0  0  0  0  0  0
   11.6364   11.0938   15.0250 N   0  0  0  0  0  0  0  0  0  0  0  0
   12.0348   10.2971   12.7066 C   0  0  2  0  0  0  0  0  0  0  0  0
   11.7819   10.5936   11.1914 C   0  0  2  0  0  0  0  0  0  0  0  0
   12.4339    9.5327   10.4508 O   0  0  0  0  0  0  0  0  0  0  0  0
   12.3742   11.9903   10.8175 C   0  0  1  0  0  0  0  0  0  0  0  0
   12.1231   12.2318    9.4742 O   0  0  0  0  0  0  0  0  0  0  0  0
   12.8875    9.6275    9.1774 C   0  0  1  0  0  0  0  0  0  0  0  0
   13.5154    8.2887    8.7099 C   0  0  2  0  0  0  0  0  0  0  0  0
   14.8515    8.1446    9.0961 O   0  0  0  0  0  0  0  0  0  0  0  0
   13.1876    8.3658    7.2302 C   0  0  1  0  0  0  0  0  0  0  0  0
   11.7987    9.0101    7.1180 C   0  0  2  0  0  0  0  0  0  0  0  0
   11.8712    9.9499    8.1900 O   0  0  0  0  0  0  0  0  0  0  0  0
   10.5855    8.0322    7.2810 C   0  0  0  0  0  0  0  0  0  0  0  0
   10.5697    7.5859    8.6629 O   0  0  0  0  0  0  0  0  0  0  0  0
   15.3287    8.5397    6.0027 C   0  0  2  0  0  0  0  0  0  0  0  0
   14.2356    9.1973    6.5830 O   0  0  0  0  0  0  0  0  0  0  0  0
   14.8944    7.7289    4.7051 C   0  0  1  0  0  0  0  0  0  0  0  0
   18.9405    5.1004    7.3563 N   0  0  0  0  0  0  0  0  0  0  0  0
   16.2206    6.9980    4.1363 C   0  0  1  0  0  0  0  0  0  0  0  0
   17.2537    8.0651    3.8340 O   0  0  0  0  0  0  0  0  0  0  0  0
   16.7926    5.9570    5.2388 C   0  0  2  0  0  0  0  0  0  0  0  0
   15.7928    4.9437    5.5032 O   0  0  0  0  0  0  0  0  0  0  0  0
   17.1911    6.8185    6.5651 C   0  0  1  0  0  0  0  0  0  0  0  0
   15.9891    7.5866    7.0416 O   0  0  0  0  0  0  0  0  0  0  0  0
   17.7396    5.9124    7.7224 C   0  0  0  0  0  0  0  0  0  0  0  0
   13.7921    6.7692    5.0440 N   0  0  0  0  0  0  0  0  0  0  0  0
  1  2  1  6  0  0  0
  1  3  1  0  0  0  0
  1 10  1  0  0  0  0
  3  4  1  6  0  0  0
  3  5  1  0  0  0  0
  5  6  1  1  0  0  0
  5  7  1  0  0  0  0
  7  8  1  6  0  0  0
  7  9  1  0  0  0  0
  9 10  1  0  0  0  0
  9 11  1  1  0  0  0
 11 12  1  0  0  0  0
 13 14  1  6  0  0  0
 13 15  1  0  0  0  0
 13 21  1  0  0  0  0
 16 15  1  0  0  0  0
 16 17  1  1  0  0  0
 18  2  1  1  0  0  0
 18 16  1  0  0  0  0
 19 18  1  0  0  0  0
 19 20  1  6  0  0  0
 21 19  1  0  0  0  0
 21 22  1  6  0  0  0
 23 20  1  1  0  0  0
 23 24  1  0  0  0  0
 23 28  1  0  0  0  0
 24 25  1  6  0  0  0
 24 26  1  0  0  0  0
 26 27  1  0  0  0  0
 26 32  1  6  0  0  0
 27 28  1  0  0  0  0
 27 29  1  1  0  0  0
 29 30  1  0  0  0  0
 31 32  1  1  0  0  0
 31 40  1  0  0  0  0
 33 31  1  0  0  0  0
 33 42  1  1  0  0  0
 35 33  1  0  0  0  0
 35 36  1  1  0  0  0
 37 35  1  0  0  0  0
 37 38  1  1  0  0  0
 37 39  1  0  0  0  0
 39 40  1  0  0  0  0
 39 41  1  1  0  0  0
 41 34  1  0  0  0  0
M  END
>  <CHROM.1>
-63.09155873,-65.29662858,-83.75822399,-154.43491344,-179.42563480,94.81375229
68.34740356,69.16436015,57.92917204,13.34313644,8.31893092,9.80039000,-3.00498487
1.06389619,-0.46795780

>  <Name>
2et4_lig

>  <RI>
1.79929e+07

>  <Rbt.Current_Directory>
/home/itssahil/PROJECTS/Mol_Feturizer/New_Systems/rnas/2et4

>  <Rbt.Executable>
rbdock ($Id: //depot/dev/client3/rdock/2013.1/src/exe/rbdock.cxx#4 $)

>  <Rbt.Library>
libRbt.so (2013.1, Build901 2013/11/27)

>  <Rbt.Parameter_File>
/export/apps/rDock/src/rDock_2013.1_src/data/scripts/dock_solv.prm

>  <Rbt.Receptor>
prm/pocket_docking_7.prm

>  <SCORE>
-11.7655

>  <SCORE.INTER>
-12.01

>  <SCORE.INTER.CONST>
1

>  <SCORE.INTER.POLAR>
-2.03102

>  <SCORE.INTER.ROT>
9

>  <SCORE.INTER.SOLV>
14.0842

>  <SCORE.INTER.VDW>
-15.5313

>  <SCORE.INTER.norm>
-0.285952

>  <SCORE.INTRA>
0.240441

>  <SCORE.INTRA.DIHEDRAL>
-11.0557

>  <SCORE.INTRA.DIHEDRAL.0>
21.6909

>  <SCORE.INTRA.POLAR>
0

>  <SCORE.INTRA.POLAR.0>
0

>  <SCORE.INTRA.REPUL>
0

>  <SCORE.INTRA.REPUL.0>
0

>  <SCORE.INTRA.SOLV>
4.04528

>  <SCORE.INTRA.SOLV.lig_0>
-116.606

>  <SCORE.INTRA.VDW>
3.74566

>  <SCORE.INTRA.VDW.0>
-6.01229

>  <SCORE.INTRA.norm>
0.00572479

>  <SCORE.RESTR>
0.00408389

>  <SCORE.RESTR.CAVITY>
0.00408389

>  <SCORE.RESTR.norm>
9.72354e-05

>  <SCORE.SYSTEM>
0

>  <SCORE.SYSTEM.CONST>
0

>  <SCORE.SYSTEM.DIHEDRAL>
0

>  <SCORE.SYSTEM.SOLV>
0

>  <SCORE.SYSTEM.norm>
0

>  <SCORE.heavy>
42

>  <SCORE.norm>
-0.28013

>  <RMSD>
9.209

$$$$
2et4_lig
 OpenBabel11021811423D
libRbt.so/2013.1/901 2013/11/27
 42 45  0  0  0  0  0  0  0  0999 V2000
    8.8673    9.1148   13.7364 C   0  0  2  0  0  0  0  0  0  0  0  0
    9.8688    9.2510   12.7260 O   0  0  0  0  0  0  0  0  0  0  0  0
    9.5542    8.4949   14.9800 C   0  0  2  0  0  0  0  0  0  0  0  0
   10.6596    9.3035   15.4272 N   0  0  0  0  0  0  0  0  0  0  0  0
   10.0190    7.0489   14.6423 C   0  0  1  0  0  0  0  0  0  0  0  0
   10.6216    6.4883   15.7668 O   0  0  0  0  0  0  0  0  0  0  0  0
    8.7709    6.2318   14.1685 C   0  0  2  0  0  0  0  0  0  0  0  0
    9.1492    4.9109   13.8436 O   0  0  0  0  0  0  0  0  0  0  0  0
    8.1099    6.8993   12.9246 C   0  0  2  0  0  0  0  0  0  0  0  0
    7.7536    8.2414   13.2691 O   0  0  0  0  0  0  0  0  0  0  0  0
    6.8334    6.1319   12.4481 C   0  0  0  0  0  0  0  0  0  0  0  0
    7.1512    4.8839   11.8458 N   0  0  0  0  0  0  0  0  0  0  0  0
   12.0223   12.6088   11.0701 C   0  0  2  0  0  0  0  0  0  0  0  0
   12.9206   13.7668   10.9817 N   0  0  0  0  0  0  0  0  0  0  0  0
   10.8623   12.9045   12.1651 C   0  0  0  0  0  0  0  0  0  0  0  0
    9.9054   11.6471   12.2668 C   0  0  2  0  0  0  0  0  0  0  0  0
    8.8489   11.8624   13.2713 N   0  0  0  0  0  0  0  0  0  0  0  0
   10.7459   10.3834   12.6530 C   0  0  2  0  0  0  0  0  0  0  0  0
   11.8785   10.1271   11.6045 C   0  0  2  0  0  0  0  0  0  0  0  0
   12.6005    8.9557   12.0579 O   0  0  0  0  0  0  0  0  0  0  0  0
   12.8177   11.3731   11.5220 C   0  0  1  0  0  0  0  0  0  0  0  0
   13.8019   11.1230   10.5763 O   0  0  0  0  0  0  0  0  0  0  0  0
   13.2096    8.0491   11.2558 C   0  0  1  0  0  0  0  0  0  0  0  0
   12.1660    7.2019   10.4819 C   0  0  2  0  0  0  0  0  0  0  0  0
   11.6853    6.1155   11.2194 O   0  0  0  0  0  0  0  0  0  0  0  0
   12.9577    6.9315    9.2158 C   0  0  1  0  0  0  0  0  0  0  0  0
   13.7586    8.2060    8.9144 C   0  0  2  0  0  0  0  0  0  0  0  0
   14.0811    8.6191   10.2422 O   0  0  0  0  0  0  0  0  0  0  0  0
   12.9854    9.3196    8.1291 C   0  0  0  0  0  0  0  0  0  0  0  0
   11.7595    9.5937    8.8579 O   0  0  0  0  0  0  0  0  0  0  0  0
   14.5175    5.1944    8.3969 C   0  0  2  0  0  0  0  0  0  0  0  0
   13.8470    5.7713    9.4839 O   0  0  0  0  0  0  0  0  0  0  0  0
   15.5009    4.0377    8.8710 C   0  0  1  0  0  0  0  0  0  0  0  0
   15.8796    8.0571    5.1449 N   0  0  0  0  0  0  0  0  0  0  0  0
   16.2315    3.4636    7.5469 C   0  0  1  0  0  0  0  0  0  0  0  0
   15.1611    2.9617    6.5983 O   0  0  0  0  0  0  0  0  0  0  0  0
   17.1012    4.6368    6.8443 C   0  0  2  0  0  0  0  0  0  0  0  0
   18.1212    5.0923    7.7652 O   0  0  0  0  0  0  0  0  0  0  0  0
   16.0658    5.8186    6.4067 C   0  0  1  0  0  0  0  0  0  0  0  0
   15.3036    6.2877    7.6155 O   0  0  0  0  0  0  0  0  0  0  0  0
   16.7962    7.0318    5.7315 C   0  0  0  0  0  0  0  0  0  0  0  0
   16.4636    4.5681    9.8921 N   0  0  0  0  0  0  0  0  0  0  0  0
  1  2  1  6  0  0  0
  1  3  1  0  0  0  0
  1 10  1  0  0  0  0
  3  4  1  6  0  0  0
  3  5  1  0  0  0  0
  5  6  1  1  0  0  0
  5  7  1  0  0  0  0
  7  8  1  6  0  0  0
  7  9  1  0  0  0  0
  9 10  1  0  0  0  0
  9 11  1  1  0  0  0
 11 12  1  0  0  0  0
 13 14  1  1  0  0  0
 13 15  1  0  0  0  0
 13 21  1  0  0  0  0
 16 15  1  0  0  0  0
 16 17  1  1  0  0  0
 18  2  1  6  0  0  0
 18 16  1  0  0  0  0
 19 18  1  0  0  0  0
 19 20  1  1  0  0  0
 21 19  1  0  0  0  0
 21 22  1  6  0  0  0
 23 20  1  6  0  0  0
 23 24  1  0  0  0  0
 23 28  1  0  0  0  0
 24 25  1  1  0  0  0
 24 26  1  0  0  0  0
 26 27  1  0  0  0  0
 26 32  1  1  0  0  0
 27 28  1  0  0  0  0
 27 29  1  1  0  0  0
 29 30  1  0  0  0  0
 31 32  1  1  0  0  0
 31 40  1  0  0  0  0
 33 31  1  0  0  0  0
 33 42  1  1  0  0  0
 35 33  1  0  0  0  0
 35 36  1  6  0  0  0
 37 35  1  0  0  0  0
 37 38  1  1  0  0  0
 37 39  1  0  0  0  0
 39 40  1  0  0  0  0
 39 41  1  1  0  0  0
 41 34  1  0  0  0  0
M  END
>  <CHROM.1>
-84.75346248,-71.22833157,-68.01953581,148.64746595,-70.20988441,169.71944764
53.57879344,175.97116763,172.08765114,12.32977762,7.80072205,10.77031040
2.74464485,0.73435048,0.04735831

>  <Name>
2et4_lig

>  <RI>
0

>  <Rbt.Current_Directory>
/home/itssahil/PROJECTS/Mol_Feturizer/New_Systems/rnas/2et4

>  <Rbt.Executable>
rbdock ($Id: //depot/dev/client3/rdock/2013.1/src/exe/rbdock.cxx#4 $)

>  <Rbt.Library>
libRbt.so (2013.1, Build901 2013/11/27)

>  <Rbt.Parameter_File>
/export/apps/rDock/src/rDock_2013.1_src/data/scripts/dock_solv.prm

>  <Rbt.Receptor>
prm/pocket_docking_8.prm

>  <SCORE>
-13.601

>  <SCORE.INTER>
-9.33552

>  <SCORE.INTER.CONST>
1

>  <SCORE.INTER.POLAR>
-2.6868

>  <SCORE.INTER.ROT>
9

>  <SCORE.INTER.SOLV>
11.493

>  <SCORE.INTER.VDW>
-10.6987

>  <SCORE.INTER.norm>
-0.222274

>  <SCORE.INTRA>
-4.26544

>  <SCORE.INTRA.DIHEDRAL>
-12.8133

>  <SCORE.INTRA.DIHEDRAL.0>
21.6909

>  <SCORE.INTRA.POLAR>
0

>  <SCORE.INTRA.POLAR.0>
0

>  <SCORE.INTRA.REPUL>
0.0158773

>  <SCORE.INTRA.REPUL.0>
0

>  <SCORE.INTRA.SOLV>
1.63846

>  <SCORE.INTRA.SOLV.lig_0>
-116.606

>  <SCORE.INTRA.VDW>
1.24258

>  <SCORE.INTRA.VDW.0>
-6.01229

>  <SCORE.INTRA.norm>
-0.101558

>  <SCORE.RESTR>
0

>  <SCORE.RESTR.CAVITY>
0

>  <SCORE.RESTR.norm>
0

>  <SCORE.SYSTEM>
0

>  <SCORE.SYSTEM.CONST>
0

>  <SCORE.SYSTEM.DIHEDRAL>
0

>  <SCORE.SYSTEM.SOLV>
0

>  <SCORE.SYSTEM.norm>
0

>  <SCORE.heavy>
42

>  <SCORE.norm>
-0.323832

>  <RMSD>
9.210

$$$$
2et4_lig
 OpenBabel11021811423D
libRbt.so/2013.1/901 2013/11/27
 42 45  0  0  0  0  0  0  0  0999 V2000
   14.5199    6.7169   10.3339 C   0  0  2  0  0  0  0  0  0  0  0  0
   13.2772    6.0114   10.3396 O   0  0  0  0  0  0  0  0  0  0  0  0
   15.3008    6.2772   11.5987 C   0  0  2  0  0  0  0  0  0  0  0  0
   15.4953    4.8500   11.6262 N   0  0  0  0  0  0  0  0  0  0  0  0
   14.5402    6.7630   12.8662 C   0  0  1  0  0  0  0  0  0  0  0  0
   15.2526    6.3805   14.0012 O   0  0  0  0  0  0  0  0  0  0  0  0
   14.3685    8.3157   12.7688 C   0  0  2  0  0  0  0  0  0  0  0  0
   13.6745    8.8001   13.8990 O   0  0  0  0  0  0  0  0  0  0  0  0
   13.5881    8.7080   11.4777 C   0  0  2  0  0  0  0  0  0  0  0  0
   14.2967    8.1905   10.3478 O   0  0  0  0  0  0  0  0  0  0  0  0
   13.4335   10.2567   11.3259 C   0  0  0  0  0  0  0  0  0  0  0  0
   14.6054   10.8638   10.7974 N   0  0  0  0  0  0  0  0  0  0  0  0
   10.2514    4.9181    7.4580 C   0  0  2  0  0  0  0  0  0  0  0  0
    9.2593    5.0388    6.3823 N   0  0  0  0  0  0  0  0  0  0  0  0
    9.8207    5.8665    8.7019 C   0  0  0  0  0  0  0  0  0  0  0  0
   10.9013    5.7434    9.8527 C   0  0  2  0  0  0  0  0  0  0  0  0
   10.5627    6.6102   10.9954 N   0  0  0  0  0  0  0  0  0  0  0  0
   12.3076    6.1426    9.2909 C   0  0  2  0  0  0  0  0  0  0  0  0
   12.6972    5.2394    8.0742 C   0  0  2  0  0  0  0  0  0  0  0  0
   13.9960    5.6960    7.6230 O   0  0  0  0  0  0  0  0  0  0  0  0
   11.6259    5.3782    6.9453 C   0  0  1  0  0  0  0  0  0  0  0  0
   11.9895    4.5571    5.8873 O   0  0  0  0  0  0  0  0  0  0  0  0
   15.0374    4.8960    7.2887 C   0  0  1  0  0  0  0  0  0  0  0  0
   14.7784    4.1827    5.9361 C   0  0  2  0  0  0  0  0  0  0  0  0
   14.0203    3.0152    6.0675 O   0  0  0  0  0  0  0  0  0  0  0  0
   16.2074    4.0727    5.4375 C   0  0  1  0  0  0  0  0  0  0  0  0
   16.9252    5.3608    5.8646 C   0  0  2  0  0  0  0  0  0  0  0  0
   16.3088    5.5823    7.1329 O   0  0  0  0  0  0  0  0  0  0  0  0
   16.7416    6.5859    4.9053 C   0  0  0  0  0  0  0  0  0  0  0  0
   17.6096    7.6470    5.3846 O   0  0  0  0  0  0  0  0  0  0  0  0
   18.0495    2.4277    5.5876 C   0  0  2  0  0  0  0  0  0  0  0  0
   16.8099    2.8699    6.0693 O   0  0  0  0  0  0  0  0  0  0  0  0
   18.3392    0.9266    6.0266 C   0  0  1  0  0  0  0  0  0  0  0  0
   21.7362    4.0232    7.7157 N   0  0  0  0  0  0  0  0  0  0  0  0
   19.7939    0.5328    5.4388 C   0  0  1  0  0  0  0  0  0  0  0  0
   19.7542    0.6988    3.9327 O   0  0  0  0  0  0  0  0  0  0  0  0
   20.9277    1.4959    6.0816 C   0  0  2  0  0  0  0  0  0  0  0  0
   20.9525    1.3124    7.5176 O   0  0  0  0  0  0  0  0  0  0  0  0
   20.5765    3.0266    5.6420 C   0  0  1  0  0  0  0  0  0  0  0  0
   19.1828    3.3684    6.0923 O   0  0  0  0  0  0  0  0  0  0  0  0
   21.5968    4.0645    6.2276 C   0  0  0  0  0  0  0  0  0  0  0  0
   18.2533    0.8021    7.5192 N   0  0  0  0  0  0  0  0  0  0  0  0
  1  2  1  1  0  0  0
  1  3  1  0  0  0  0
  1 10  1  0  0  0  0
  3  4  1  1  0  0  0
  3  5  1  0  0  0  0
  5  6  1  1  0  0  0
  5  7  1  0  0  0  0
  7  8  1  1  0  0  0
  7  9  1  0  0  0  0
  9 10  1  0  0  0  0
  9 11  1  6  0  0  0
 11 12  1  0  0  0  0
 13 14  1  6  0  0  0
 13 15  1  0  0  0  0
 13 21  1  0  0  0  0
 16 15  1  0  0  0  0
 16 17  1  1  0  0  0
 18  2  1  1  0  0  0
 18 16  1  0  0  0  0
 19 18  1  0  0  0  0
 19 20  1  6  0  0  0
 21 19  1  0  0  0  0
 21 22  1  6  0  0  0
 23 20  1  6  0  0  0
 23 24  1  0  0  0  0
 23 28  1  0  0  0  0
 24 25  1  1  0  0  0
 24 26  1  0  0  0  0
 26 27  1  0  0  0  0
 26 32  1  1  0  0  0
 27 28  1  0  0  0  0
 27 29  1  6  0  0  0
 29 30  1  0  0  0  0
 31 32  1  1  0  0  0
 31 40  1  0  0  0  0
 33 31  1  0  0  0  0
 33 42  1  1  0  0  0
 35 33  1  0  0  0  0
 35 36  1  6  0  0  0
 37 35  1  0  0  0  0
 37 38  1  1  0  0  0
 37 39  1  0  0  0  0
 39 40  1  0  0  0  0
 39 41  1  1  0  0  0
 41 34  1  0  0  0  0
M  END
>  <CHROM.1>
-178.17578143,80.56420033,-157.17056961,135.74590488,72.33937635,169.21267357
-173.41963579,-162.39457958,-55.93141320,15.48660082,5.10288904,8.19671769
-2.35143128,0.17395201,-2.18934356

>  <Name>
2et4_lig

>  <RI>
1.79929e+07

>  <Rbt.Current_Directory>
/home/itssahil/PROJECTS/Mol_Feturizer/New_Systems/rnas/2et4

>  <Rbt.Executable>
rbdock ($Id: //depot/dev/client3/rdock/2013.1/src/exe/rbdock.cxx#4 $)

>  <Rbt.Library>
libRbt.so (2013.1, Build901 2013/11/27)

>  <Rbt.Parameter_File>
/export/apps/rDock/src/rDock_2013.1_src/data/scripts/dock_solv.prm

>  <Rbt.Receptor>
prm/pocket_docking_7.prm

>  <SCORE>
-17.5706

>  <SCORE.INTER>
-13.8612

>  <SCORE.INTER.CONST>
1

>  <SCORE.INTER.POLAR>
-3.85726

>  <SCORE.INTER.ROT>
9

>  <SCORE.INTER.SOLV>
17.9497

>  <SCORE.INTER.VDW>
-11.9665

>  <SCORE.INTER.norm>
-0.33003

>  <SCORE.INTRA>
-3.75742

>  <SCORE.INTRA.DIHEDRAL>
-8.90269

>  <SCORE.INTRA.DIHEDRAL.0>
21.6909

>  <SCORE.INTRA.POLAR>
0

>  <SCORE.INTRA.POLAR.0>
0

>  <SCORE.INTRA.REPUL>
0

>  <SCORE.INTRA.REPUL.0>
0

>  <SCORE.INTRA.SOLV>
-1.47287

>  <SCORE.INTRA.SOLV.lig_0>
-116.606

>  <SCORE.INTRA.VDW>
1.43036

>  <SCORE.INTRA.VDW.0>
-6.01229

>  <SCORE.INTRA.norm>
-0.0894625

>  <SCORE.RESTR>
0.0481027

>  <SCORE.RESTR.CAVITY>
0.0481027

>  <SCORE.RESTR.norm>
0.0011453

>  <SCORE.SYSTEM>
0

>  <SCORE.SYSTEM.CONST>
0

>  <SCORE.SYSTEM.DIHEDRAL>
0

>  <SCORE.SYSTEM.SOLV>
0

>  <SCORE.SYSTEM.norm>
0

>  <SCORE.heavy>
42

>  <SCORE.norm>
-0.418347

>  <RMSD>
9.241

$$$$
2et4_lig
 OpenBabel11021811423D
libRbt.so/2013.1/901 2013/11/27
 42 45  0  0  0  0  0  0  0  0999 V2000
   14.3186    3.9454    2.6640 C   0  0  2  0  0  0  0  0  0  0  0  0
   14.2010    5.3278    3.0066 O   0  0  0  0  0  0  0  0  0  0  0  0
   15.3460    3.8470    1.5075 C   0  0  2  0  0  0  0  0  0  0  0  0
   16.6154    4.4156    1.8828 N   0  0  0  0  0  0  0  0  0  0  0  0
   14.7681    4.5516    0.2462 C   0  0  1  0  0  0  0  0  0  0  0  0
   15.6866    4.4476   -0.7965 O   0  0  0  0  0  0  0  0  0  0  0  0
   13.3965    3.8829   -0.1025 C   0  0  2  0  0  0  0  0  0  0  0  0
   12.8309    4.4982   -1.2405 O   0  0  0  0  0  0  0  0  0  0  0  0
   12.4028    3.9981    1.0930 C   0  0  2  0  0  0  0  0  0  0  0  0
   13.0035    3.3875    2.2389 O   0  0  0  0  0  0  0  0  0  0  0  0
   11.0338    3.3034    0.7951 C   0  0  0  0  0  0  0  0  0  0  0  0
   11.1752    1.9032    0.5934 N   0  0  0  0  0  0  0  0  0  0  0  0
   13.4720    7.6891    6.5488 C   0  0  2  0  0  0  0  0  0  0  0  0
   12.8549    8.1534    7.7975 N   0  0  0  0  0  0  0  0  0  0  0  0
   12.3793    7.7437    5.3508 C   0  0  0  0  0  0  0  0  0  0  0  0
   13.0461    7.2284    4.0102 C   0  0  2  0  0  0  0  0  0  0  0  0
   12.0795    7.2367    2.8979 N   0  0  0  0  0  0  0  0  0  0  0  0
   13.5870    5.7743    4.2234 C   0  0  2  0  0  0  0  0  0  0  0  0
   14.6174    5.7313    5.4000 C   0  0  2  0  0  0  0  0  0  0  0  0
   15.0421    4.3516    5.5237 O   0  0  0  0  0  0  0  0  0  0  0  0
   13.9422    6.2349    6.7160 C   0  0  1  0  0  0  0  0  0  0  0  0
   14.8816    6.1990    7.7367 O   0  0  0  0  0  0  0  0  0  0  0  0
   16.3279    3.9243    5.5437 C   0  0  1  0  0  0  0  0  0  0  0  0
   17.0218    4.3117    6.8756 C   0  0  2  0  0  0  0  0  0  0  0  0
   17.5326    5.6132    6.8702 O   0  0  0  0  0  0  0  0  0  0  0  0
   17.9888    3.1486    6.9975 C   0  0  1  0  0  0  0  0  0  0  0  0
   17.2523    1.9051    6.4797 C   0  0  2  0  0  0  0  0  0  0  0  0
   16.4951    2.4863    5.4183 O   0  0  0  0  0  0  0  0  0  0  0  0
   16.3339    1.1811    7.5224 C   0  0  0  0  0  0  0  0  0  0  0  0
   15.8640   -0.0480    6.9081 O   0  0  0  0  0  0  0  0  0  0  0  0
   20.3873    2.8291    6.4813 C   0  0  2  0  0  0  0  0  0  0  0  0
   19.1802    3.4691    6.1691 O   0  0  0  0  0  0  0  0  0  0  0  0
   20.7421    2.9830    8.0240 C   0  0  1  0  0  0  0  0  0  0  0  0
   25.3067    2.8748    4.9041 N   0  0  0  0  0  0  0  0  0  0  0  0
   22.1542    2.2312    8.2634 C   0  0  1  0  0  0  0  0  0  0  0  0
   21.9931    0.7826    7.8476 O   0  0  0  0  0  0  0  0  0  0  0  0
   23.3144    2.9436    7.3843 C   0  0  2  0  0  0  0  0  0  0  0  0
   23.4555    4.3214    7.8061 O   0  0  0  0  0  0  0  0  0  0  0  0
   22.8976    2.7986    5.8143 C   0  0  1  0  0  0  0  0  0  0  0  0
   21.5365    3.4020    5.6010 O   0  0  0  0  0  0  0  0  0  0  0  0
   23.9386    3.4759    4.8557 C   0  0  0  0  0  0  0  0  0  0  0  0
   20.7761    4.4348    8.4011 N   0  0  0  0  0  0  0  0  0  0  0  0
  1  2  1  6  0  0  0
  1  3  1  0  0  0  0
  1 10  1  0  0  0  0
  3  4  1  1  0  0  0
  3  5  1  0  0  0  0
  5  6  1  6  0  0  0
  5  7  1  0  0  0  0
  7  8  1  6  0  0  0
  7  9  1  0  0  0  0
  9 10  1  0  0  0  0
  9 11  1  6  0  0  0
 11 12  1  0  0  0  0
 13 14  1  1  0  0  0
 13 15  1  0  0  0  0
 13 21  1  0  0  0  0
 16 15  1  0  0  0  0
 16 17  1  6  0  0  0
 18  2  1  6  0  0  0
 18 16  1  0  0  0  0
 19 18  1  0  0  0  0
 19 20  1  1  0  0  0
 21 19  1  0  0  0  0
 21 22  1  1  0  0  0
 23 20  1  1  0  0  0
 23 24  1  0  0  0  0
 23 28  1  0  0  0  0
 24 25  1  6  0  0  0
 24 26  1  0  0  0  0
 26 27  1  0  0  0  0
 26 32  1  6  0  0  0
 27 28  1  0  0  0  0
 27 29  1  1  0  0  0
 29 30  1  0  0  0  0
 31 32  1  1  0  0  0
 31 40  1  0  0  0  0
 33 31  1  0  0  0  0
 33 42  1  6  0  0  0
 35 33  1  0  0  0  0
 35 36  1  6  0  0  0
 37 35  1  0  0  0  0
 37 38  1  1  0  0  0
 37 39  1  0  0  0  0
 39 40  1  0  0  0  0
 39 41  1  6  0  0  0
 41 34  1  0  0  0  0
M  END
>  <CHROM.1>
-165.10737479,63.06600479,-154.66984706,127.93032957,71.52268535,157.02949998
-172.95447071,-51.60368478,62.66080983,16.71063586,4.09653240,4.81289372
-2.77079630,-0.37512907,1.21188536

>  <Name>
2et4_lig

>  <RI>
0

>  <Rbt.Current_Directory>
/home/itssahil/PROJECTS/Mol_Feturizer/New_Systems/rnas/2et4

>  <Rbt.Executable>
rbdock ($Id: //depot/dev/client3/rdock/2013.1/src/exe/rbdock.cxx#4 $)

>  <Rbt.Library>
libRbt.so (2013.1, Build901 2013/11/27)

>  <Rbt.Parameter_File>
/export/apps/rDock/src/rDock_2013.1_src/data/scripts/dock_solv.prm

>  <Rbt.Receptor>
prm/pocket_docking_8.prm

>  <SCORE>
-9.90197

>  <SCORE.INTER>
-7.00929

>  <SCORE.INTER.CONST>
1

>  <SCORE.INTER.POLAR>
-1.7586

>  <SCORE.INTER.ROT>
9

>  <SCORE.INTER.SOLV>
15.0481

>  <SCORE.INTER.VDW>
-13.4269

>  <SCORE.INTER.norm>
-0.166888

>  <SCORE.INTRA>
-2.89269

>  <SCORE.INTRA.DIHEDRAL>
-7.38511

>  <SCORE.INTRA.DIHEDRAL.0>
21.6909

>  <SCORE.INTRA.POLAR>
0

>  <SCORE.INTRA.POLAR.0>
0

>  <SCORE.INTRA.REPUL>
0

>  <SCORE.INTRA.REPUL.0>
0

>  <SCORE.INTRA.SOLV>
-0.758215

>  <SCORE.INTRA.SOLV.lig_0>
-116.606

>  <SCORE.INTRA.VDW>
1.17898

>  <SCORE.INTRA.VDW.0>
-6.01229

>  <SCORE.INTRA.norm>
-0.0688735

>  <SCORE.RESTR>
0

>  <SCORE.RESTR.CAVITY>
0

>  <SCORE.RESTR.norm>
0

>  <SCORE.SYSTEM>
0

>  <SCORE.SYSTEM.CONST>
0

>  <SCORE.SYSTEM.DIHEDRAL>
0

>  <SCORE.SYSTEM.SOLV>
0

>  <SCORE.SYSTEM.norm>
0

>  <SCORE.heavy>
42

>  <SCORE.norm>
-0.235761

>  <RMSD>
9.242

$$$$
2et4_lig
 OpenBabel11021811423D
libRbt.so/2013.1/901 2013/11/27
 42 45  0  0  0  0  0  0  0  0999 V2000
    9.9779    4.7315    9.8617 C   0  0  2  0  0  0  0  0  0  0  0  0
    9.0744    5.6415   10.4923 O   0  0  0  0  0  0  0  0  0  0  0  0
    9.5431    4.6098    8.3788 C   0  0  2  0  0  0  0  0  0  0  0  0
    9.5349    5.8945    7.7267 N   0  0  0  0  0  0  0  0  0  0  0  0
    8.1417    3.9374    8.3083 C   0  0  1  0  0  0  0  0  0  0  0  0
    7.7605    3.8145    6.9736 O   0  0  0  0  0  0  0  0  0  0  0  0
    8.2270    2.5516    9.0309 C   0  0  2  0  0  0  0  0  0  0  0  0
    6.9711    1.9074    8.9971 O   0  0  0  0  0  0  0  0  0  0  0  0
    8.6774    2.7251   10.5131 C   0  0  2  0  0  0  0  0  0  0  0  0
    9.9403    3.3972   10.5248 O   0  0  0  0  0  0  0  0  0  0  0  0
    8.8139    1.3556   11.2556 C   0  0  0  0  0  0  0  0  0  0  0  0
    9.1230    1.5206   12.6334 N   0  0  0  0  0  0  0  0  0  0  0  0
    8.4357    7.4436   14.3652 C   0  0  2  0  0  0  0  0  0  0  0  0
    8.3318    7.5867   15.8227 N   0  0  0  0  0  0  0  0  0  0  0  0
    7.3755    6.3274   13.8529 C   0  0  0  0  0  0  0  0  0  0  0  0
    7.5022    6.1669   12.2827 C   0  0  2  0  0  0  0  0  0  0  0  0
    6.5726    5.1417   11.7761 N   0  0  0  0  0  0  0  0  0  0  0  0
    8.9718    5.7681   11.9172 C   0  0  2  0  0  0  0  0  0  0  0  0
    9.9853    6.8381   12.4424 C   0  0  2  0  0  0  0  0  0  0  0  0
   11.3052    6.3717   12.0691 O   0  0  0  0  0  0  0  0  0  0  0  0
    9.8532    6.9788   13.9929 C   0  0  1  0  0  0  0  0  0  0  0  0
   10.7521    7.9424   14.4276 O   0  0  0  0  0  0  0  0  0  0  0  0
   11.8637    6.4952   10.8407 C   0  0  1  0  0  0  0  0  0  0  0  0
   12.3212    7.9545   10.5823 C   0  0  2  0  0  0  0  0  0  0  0  0
   11.2921    8.7778   10.1153 O   0  0  0  0  0  0  0  0  0  0  0  0
   13.5079    7.6842    9.6759 C   0  0  1  0  0  0  0  0  0  0  0  0
   14.1864    6.4120   10.2032 C   0  0  2  0  0  0  0  0  0  0  0  0
   13.0397    5.6706   10.6192 O   0  0  0  0  0  0  0  0  0  0  0  0
   15.2006    6.6250   11.3782 C   0  0  0  0  0  0  0  0  0  0  0  0
   14.4459    7.1064   12.5218 O   0  0  0  0  0  0  0  0  0  0  0  0
   13.8984    7.1671    7.2881 C   0  0  2  0  0  0  0  0  0  0  0  0
   12.9845    7.4996    8.2973 O   0  0  0  0  0  0  0  0  0  0  0  0
   14.8804    8.3783    6.9744 C   0  0  1  0  0  0  0  0  0  0  0  0
   12.1869    7.0265    3.1208 N   0  0  0  0  0  0  0  0  0  0  0  0
   15.8685    7.8932    5.7890 C   0  0  1  0  0  0  0  0  0  0  0  0
   16.6058    6.6579    6.2663 O   0  0  0  0  0  0  0  0  0  0  0  0
   15.0085    7.5561    4.4574 C   0  0  2  0  0  0  0  0  0  0  0  0
   14.3221    8.7521    4.0164 O   0  0  0  0  0  0  0  0  0  0  0  0
   13.9894    6.3380    4.8281 C   0  0  1  0  0  0  0  0  0  0  0  0
   13.1361    6.7396    5.9997 O   0  0  0  0  0  0  0  0  0  0  0  0
   13.0779    5.9333    3.6170 C   0  0  0  0  0  0  0  0  0  0  0  0
   14.0893    9.6023    6.6181 N   0  0  0  0  0  0  0  0  0  0  0  0
  1  2  1  1  0  0  0
  1  3  1  0  0  0  0
  1 10  1  0  0  0  0
  3  4  1  1  0  0  0
  3  5  1  0  0  0  0
  5  6  1  6  0  0  0
  5  7  1  0  0  0  0
  7  8  1  1  0  0  0
  7  9  1  0  0  0  0
  9 10  1  0  0  0  0
  9 11  1  6  0  0  0
 11 12  1  0  0  0  0
 13 14  1  1  0  0  0
 13 15  1  0  0  0  0
 13 21  1  0  0  0  0
 16 15  1  0  0  0  0
 16 17  1  1  0  0  0
 18  2  1  6  0  0  0
 18 16  1  0  0  0  0
 19 18  1  0  0  0  0
 19 20  1  1  0  0  0
 21 19  1  0  0  0  0
 21 22  1  6  0  0  0
 23 20  1  1  0  0  0
 23 24  1  0  0  0  0
 23 28  1  0  0  0  0
 24 25  1  6  0  0  0
 24 26  1  0  0  0  0
 26 27  1  0  0  0  0
 26 32  1  6  0  0  0
 27 28  1  0  0  0  0
 27 29  1  1  0  0  0
 29 30  1  0  0  0  0
 31 32  1  1  0  0  0
 31 40  1  0  0  0  0
 33 31  1  0  0  0  0
 33 42  1  6  0  0  0
 35 33  1  0  0  0  0
 35 36  1  1  0  0  0
 37 35  1  0  0  0  0
 37 38  1  1  0  0  0
 37 39  1  0  0  0  0
 39 40  1  0  0  0  0
 39 41  1  6  0  0  0
 41 34  1  0  0  0  0
M  END
>  <CHROM.1>
165.34084278,-175.42386165,-149.23888767,79.73130706,74.83421153,-176.76746873
65.07280664,-68.67695312,-61.12841630,11.22563061,6.07020393,9.53434796,2.48719137
0.64544069,1.25700373

>  <Name>
2et4_lig

>  <RI>
0

>  <Rbt.Current_Directory>
/home/itssahil/PROJECTS/Mol_Feturizer/New_Systems/rnas/2et4

>  <Rbt.Executable>
rbdock ($Id: //depot/dev/client3/rdock/2013.1/src/exe/rbdock.cxx#4 $)

>  <Rbt.Library>
libRbt.so (2013.1, Build901 2013/11/27)

>  <Rbt.Parameter_File>
/export/apps/rDock/src/rDock_2013.1_src/data/scripts/dock_solv.prm

>  <Rbt.Receptor>
prm/pocket_docking_3.prm

>  <SCORE>
-2.34675

>  <SCORE.INTER>
2.32962

>  <SCORE.INTER.CONST>
1

>  <SCORE.INTER.POLAR>
-0.686458

>  <SCORE.INTER.ROT>
9

>  <SCORE.INTER.SOLV>
10.1965

>  <SCORE.INTER.VDW>
-9.15755

>  <SCORE.INTER.norm>
0.0554672

>  <SCORE.INTRA>
-4.81291

>  <SCORE.INTRA.DIHEDRAL>
-13.4088

>  <SCORE.INTRA.DIHEDRAL.0>
21.6909

>  <SCORE.INTRA.POLAR>
0

>  <SCORE.INTRA.POLAR.0>
0

>  <SCORE.INTRA.REPUL>
0

>  <SCORE.INTRA.REPUL.0>
0

>  <SCORE.INTRA.SOLV>
0.221959

>  <SCORE.INTRA.SOLV.lig_0>
-116.606

>  <SCORE.INTRA.VDW>
1.78051

>  <SCORE.INTRA.VDW.0>
-6.01229

>  <SCORE.INTRA.norm>
-0.114593

>  <SCORE.RESTR>
0.136533

>  <SCORE.RESTR.CAVITY>
0.136533

>  <SCORE.RESTR.norm>
0.00325079

>  <SCORE.SYSTEM>
0

>  <SCORE.SYSTEM.CONST>
0

>  <SCORE.SYSTEM.DIHEDRAL>
0

>  <SCORE.SYSTEM.SOLV>
0

>  <SCORE.SYSTEM.norm>
0

>  <SCORE.heavy>
42

>  <SCORE.norm>
-0.055875

>  <RMSD>
9.260

$$$$
2et4_lig
 OpenBabel11021811423D
libRbt.so/2013.1/901 2013/11/27
 42 45  0  0  0  0  0  0  0  0999 V2000
   12.3703    7.6405   12.6204 C   0  0  2  0  0  0  0  0  0  0  0  0
   13.3884    6.6791   12.9055 O   0  0  0  0  0  0  0  0  0  0  0  0
   12.4946    8.7655   13.6793 C   0  0  2  0  0  0  0  0  0  0  0  0
   13.8084    9.3567   13.6658 N   0  0  0  0  0  0  0  0  0  0  0  0
   12.1551    8.1882   15.0839 C   0  0  1  0  0  0  0  0  0  0  0  0
   12.2519    9.2053   16.0315 O   0  0  0  0  0  0  0  0  0  0  0  0
   10.7194    7.5679   15.0239 C   0  0  2  0  0  0  0  0  0  0  0  0
   10.3718    7.0239   16.2796 O   0  0  0  0  0  0  0  0  0  0  0  0
   10.6420    6.4510   13.9392 C   0  0  2  0  0  0  0  0  0  0  0  0
   11.0173    7.0182   12.6805 O   0  0  0  0  0  0  0  0  0  0  0  0
    9.2089    5.8362   13.8223 C   0  0  0  0  0  0  0  0  0  0  0  0
    9.1536    4.7808   12.8715 N   0  0  0  0  0  0  0  0  0  0  0  0
   15.9331    4.3598   10.2977 C   0  0  2  0  0  0  0  0  0  0  0  0
   16.3585    3.3410    9.3299 N   0  0  0  0  0  0  0  0  0  0  0  0
   15.3151    3.6355   11.6114 C   0  0  0  0  0  0  0  0  0  0  0  0
   14.8449    4.7389   12.6452 C   0  0  2  0  0  0  0  0  0  0  0  0
   14.2518    4.1244   13.8461 N   0  0  0  0  0  0  0  0  0  0  0  0
   13.7928    5.6769   11.9626 C   0  0  2  0  0  0  0  0  0  0  0  0
   14.3925    6.3458   10.6817 C   0  0  2  0  0  0  0  0  0  0  0  0
   13.3439    7.1741   10.1217 O   0  0  0  0  0  0  0  0  0  0  0  0
   14.8440    5.2446    9.6693 C   0  0  1  0  0  0  0  0  0  0  0  0
   15.3833    5.8658    8.5518 O   0  0  0  0  0  0  0  0  0  0  0  0
   13.5054    8.0800    9.1269 C   0  0  1  0  0  0  0  0  0  0  0  0
   12.7897    7.6163    7.8314 C   0  0  2  0  0  0  0  0  0  0  0  0
   13.5622    6.7427    7.0601 O   0  0  0  0  0  0  0  0  0  0  0  0
   12.4235    8.9708    7.2535 C   0  0  1  0  0  0  0  0  0  0  0  0
   12.0457    9.8700    8.4391 C   0  0  2  0  0  0  0  0  0  0  0  0
   12.9773    9.4029    9.4146 O   0  0  0  0  0  0  0  0  0  0  0  0
   10.5660    9.7428    8.9383 C   0  0  0  0  0  0  0  0  0  0  0  0
   10.4124   10.6348   10.0740 O   0  0  0  0  0  0  0  0  0  0  0  0
   13.4267   10.0000    5.2396 C   0  0  2  0  0  0  0  0  0  0  0  0
   13.6152    9.4847    6.5291 O   0  0  0  0  0  0  0  0  0  0  0  0
   13.5928    8.8688    4.1340 C   0  0  1  0  0  0  0  0  0  0  0  0
   15.4367   13.6693    2.2066 N   0  0  0  0  0  0  0  0  0  0  0  0
   13.3778    9.5762    2.6952 C   0  0  1  0  0  0  0  0  0  0  0  0
   11.9980   10.2033    2.6800 O   0  0  0  0  0  0  0  0  0  0  0  0
   14.5134   10.7087    2.4623 C   0  0  2  0  0  0  0  0  0  0  0  0
   15.8197   10.0845    2.4716 O   0  0  0  0  0  0  0  0  0  0  0  0
   14.3354   11.8288    3.6343 C   0  0  1  0  0  0  0  0  0  0  0  0
   14.4284   11.1632    4.9797 O   0  0  0  0  0  0  0  0  0  0  0  0
   15.4013   12.9754    3.5305 C   0  0  0  0  0  0  0  0  0  0  0  0
   14.9329    8.2086    4.2716 N   0  0  0  0  0  0  0  0  0  0  0  0
  1  2  1  1  0  0  0
  1  3  1  0  0  0  0
  1 10  1  0  0  0  0
  3  4  1  1  0  0  0
  3  5  1  0  0  0  0
  5  6  1  1  0  0  0
  5  7  1  0  0  0  0
  7  8  1  1  0  0  0
  7  9  1  0  0  0  0
  9 10  1  0  0  0  0
  9 11  1  6  0  0  0
 11 12  1  0  0  0  0
 13 14  1  6  0  0  0
 13 15  1  0  0  0  0
 13 21  1  0  0  0  0
 16 15  1  0  0  0  0
 16 17  1  1  0  0  0
 18  2  1  1  0  0  0
 18 16  1  0  0  0  0
 19 18  1  0  0  0  0
 19 20  1  6  0  0  0
 21 19  1  0  0  0  0
 21 22  1  6  0  0  0
 23 20  1  1  0  0  0
 23 24  1  0  0  0  0
 23 28  1  0  0  0  0
 24 25  1  6  0  0  0
 24 26  1  0  0  0  0
 26 27  1  0  0  0  0
 26 32  1  1  0  0  0
 27 28  1  0  0  0  0
 27 29  1  1  0  0  0
 29 30  1  0  0  0  0
 31 32  1  1  0  0  0
 31 40  1  0  0  0  0
 33 31  1  0  0  0  0
 33 42  1  6  0  0  0
 35 33  1  0  0  0  0
 35 36  1  1  0  0  0
 37 35  1  0  0  0  0
 37 38  1  1  0  0  0
 37 39  1  0  0  0  0
 39 40  1  0  0  0  0
 39 41  1  1  0  0  0
 41 34  1  0  0  0  0
M  END
>  <CHROM.1>
-164.35528046,-177.59331617,-175.84689345,169.44286066,111.44364264,132.58950509
178.53276582,-90.44312962,55.45249804,13.20633099,8.04489956,9.28952139,1.87643131
-0.88314373,2.19371808

>  <Name>
2et4_lig

>  <RI>
0

>  <Rbt.Current_Directory>
/home/itssahil/PROJECTS/Mol_Feturizer/New_Systems/rnas/2et4

>  <Rbt.Executable>
rbdock ($Id: //depot/dev/client3/rdock/2013.1/src/exe/rbdock.cxx#4 $)

>  <Rbt.Library>
libRbt.so (2013.1, Build901 2013/11/27)

>  <Rbt.Parameter_File>
/export/apps/rDock/src/rDock_2013.1_src/data/scripts/dock_solv.prm

>  <Rbt.Receptor>
prm/pocket_docking_5.prm

>  <SCORE>
-20.1379

>  <SCORE.INTER>
-18.8947

>  <SCORE.INTER.CONST>
1

>  <SCORE.INTER.POLAR>
-1.64137

>  <SCORE.INTER.ROT>
9

>  <SCORE.INTER.SOLV>
22.1592

>  <SCORE.INTER.VDW>
-24.1116

>  <SCORE.INTER.norm>
-0.449873

>  <SCORE.INTRA>
-1.24325

>  <SCORE.INTRA.DIHEDRAL>
-2.75163

>  <SCORE.INTRA.DIHEDRAL.0>
21.6909

>  <SCORE.INTRA.POLAR>
0

>  <SCORE.INTRA.POLAR.0>
0

>  <SCORE.INTRA.REPUL>
0

>  <SCORE.INTRA.REPUL.0>
0

>  <SCORE.INTRA.SOLV>
-3.45652

>  <SCORE.INTRA.SOLV.lig_0>
-116.606

>  <SCORE.INTRA.VDW>
1.86082

>  <SCORE.INTRA.VDW.0>
-6.01229

>  <SCORE.INTRA.norm>
-0.0296013

>  <SCORE.RESTR>
0

>  <SCORE.RESTR.CAVITY>
0

>  <SCORE.RESTR.norm>
0

>  <SCORE.SYSTEM>
0

>  <SCORE.SYSTEM.CONST>
0

>  <SCORE.SYSTEM.DIHEDRAL>
0

>  <SCORE.SYSTEM.SOLV>
0

>  <SCORE.SYSTEM.norm>
0

>  <SCORE.heavy>
42

>  <SCORE.norm>
-0.479474

>  <RMSD>
9.265

$$$$
2et4_lig
 OpenBabel11021811423D
libRbt.so/2013.1/901 2013/11/27
 42 45  0  0  0  0  0  0  0  0999 V2000
    9.8452    7.9038   12.0686 C   0  0  2  0  0  0  0  0  0  0  0  0
    9.4594    9.2744   11.9476 O   0  0  0  0  0  0  0  0  0  0  0  0
    8.5737    7.0487   11.8345 C   0  0  2  0  0  0  0  0  0  0  0  0
    7.9825    7.3272   10.5505 N   0  0  0  0  0  0  0  0  0  0  0  0
    7.5602    7.3100   12.9858 C   0  0  1  0  0  0  0  0  0  0  0  0
    6.4250    6.5281   12.7816 O   0  0  0  0  0  0  0  0  0  0  0  0
    8.2678    6.9853   14.3437 C   0  0  2  0  0  0  0  0  0  0  0  0
    7.3838    7.2161   15.4201 O   0  0  0  0  0  0  0  0  0  0  0  0
    9.5441    7.8611   14.5280 C   0  0  2  0  0  0  0  0  0  0  0  0
   10.4154    7.6274   13.4177 O   0  0  0  0  0  0  0  0  0  0  0  0
   10.3009    7.5339   15.8568 C   0  0  0  0  0  0  0  0  0  0  0  0
   11.3960    8.4122   16.0809 N   0  0  0  0  0  0  0  0  0  0  0  0
   11.6055   12.8910   10.9632 C   0  0  2  0  0  0  0  0  0  0  0  0
   12.5630   13.9998   11.0604 N   0  0  0  0  0  0  0  0  0  0  0  0
   10.6236   12.9077   12.2547 C   0  0  0  0  0  0  0  0  0  0  0  0
    9.6027   11.7016   12.1518 C   0  0  2  0  0  0  0  0  0  0  0  0
    8.7056   11.6628   13.3202 N   0  0  0  0  0  0  0  0  0  0  0  0
   10.3963   10.3549   12.0555 C   0  0  2  0  0  0  0  0  0  0  0  0
   11.3600   10.3642   10.8230 C   0  0  2  0  0  0  0  0  0  0  0  0
   12.0517    9.0912   10.8329 O   0  0  0  0  0  0  0  0  0  0  0  0
   12.3650   11.5545   10.9436 C   0  0  1  0  0  0  0  0  0  0  0  0
   13.1960   11.5458    9.8323 O   0  0  0  0  0  0  0  0  0  0  0  0
   12.7144    8.5491    9.7826 C   0  0  1  0  0  0  0  0  0  0  0  0
   13.4382    7.2415   10.1970 C   0  0  2  0  0  0  0  0  0  0  0  0
   14.6912    7.4672   10.7751 O   0  0  0  0  0  0  0  0  0  0  0  0
   13.3666    6.4916    8.8797 C   0  0  1  0  0  0  0  0  0  0  0  0
   12.0054    6.8262    8.2537 C   0  0  2  0  0  0  0  0  0  0  0  0
   11.8758    8.1912    8.6509 O   0  0  0  0  0  0  0  0  0  0  0  0
   10.8009    5.9571    8.7524 C   0  0  0  0  0  0  0  0  0  0  0  0
   11.1156    4.5699    8.4599 O   0  0  0  0  0  0  0  0  0  0  0  0
   14.5779    6.4792    6.7223 C   0  0  2  0  0  0  0  0  0  0  0  0
   14.4939    6.9644    8.0344 O   0  0  0  0  0  0  0  0  0  0  0  0
   14.6965    4.8933    6.6980 C   0  0  1  0  0  0  0  0  0  0  0  0
   18.5403    7.1445    4.6753 N   0  0  0  0  0  0  0  0  0  0  0  0
   14.8086    4.4496    5.1465 C   0  0  1  0  0  0  0  0  0  0  0  0
   13.5741    4.9496    4.4231 O   0  0  0  0  0  0  0  0  0  0  0  0
   16.1447    5.0861    4.4860 C   0  0  2  0  0  0  0  0  0  0  0  0
   17.3088    4.5868    5.1871 O   0  0  0  0  0  0  0  0  0  0  0  0
   16.0034    6.7090    4.5630 C   0  0  1  0  0  0  0  0  0  0  0  0
   15.7924    7.1248    5.9929 O   0  0  0  0  0  0  0  0  0  0  0  0
   17.2559    7.4457    3.9716 C   0  0  0  0  0  0  0  0  0  0  0  0
   15.8696    4.4530    7.5231 N   0  0  0  0  0  0  0  0  0  0  0  0
  1  2  1  1  0  0  0
  1  3  1  0  0  0  0
  1 10  1  0  0  0  0
  3  4  1  6  0  0  0
  3  5  1  0  0  0  0
  5  6  1  6  0  0  0
  5  7  1  0  0  0  0
  7  8  1  1  0  0  0
  7  9  1  0  0  0  0
  9 10  1  0  0  0  0
  9 11  1  1  0  0  0
 11 12  1  0  0  0  0
 13 14  1  1  0  0  0
 13 15  1  0  0  0  0
 13 21  1  0  0  0  0
 16 15  1  0  0  0  0
 16 17  1  1  0  0  0
 18  2  1  6  0  0  0
 18 16  1  0  0  0  0
 19 18  1  0  0  0  0
 19 20  1  1  0  0  0
 21 19  1  0  0  0  0
 21 22  1  6  0  0  0
 23 20  1  1  0  0  0
 23 24  1  0  0  0  0
 23 28  1  0  0  0  0
 24 25  1  6  0  0  0
 24 26  1  0  0  0  0
 26 27  1  0  0  0  0
 26 32  1  6  0  0  0
 27 28  1  0  0  0  0
 27 29  1  1  0  0  0
 29 30  1  0  0  0  0
 31 32  1  1  0  0  0
 31 40  1  0  0  0  0
 33 31  1  0  0  0  0
 33 42  1  1  0  0  0
 35 33  1  0  0  0  0
 35 36  1  6  0  0  0
 37 35  1  0  0  0  0
 37 38  1  1  0  0  0
 37 39  1  0  0  0  0
 39 40  1  0  0  0  0
 39 41  1  1  0  0  0
 41 34  1  0  0  0  0
M  END
>  <CHROM.1>
-177.64118199,-174.81041146,-169.15076383,162.46624994,174.86655435,-175.49577416
-58.70811769,-59.13964349,-60.85974761,12.11836000,7.89449861,9.92488822
2.59213928,0.76614136,0.34266400

>  <Name>
2et4_lig

>  <RI>
1.79929e+07

>  <Rbt.Current_Directory>
/home/itssahil/PROJECTS/Mol_Feturizer/New_Systems/rnas/2et4

>  <Rbt.Executable>
rbdock ($Id: //depot/dev/client3/rdock/2013.1/src/exe/rbdock.cxx#4 $)

>  <Rbt.Library>
libRbt.so (2013.1, Build901 2013/11/27)

>  <Rbt.Parameter_File>
/export/apps/rDock/src/rDock_2013.1_src/data/scripts/dock_solv.prm

>  <Rbt.Receptor>
prm/pocket_docking_7.prm

>  <SCORE>
-16.8445

>  <SCORE.INTER>
-7.26073

>  <SCORE.INTER.CONST>
1

>  <SCORE.INTER.POLAR>
-2.29615

>  <SCORE.INTER.ROT>
9

>  <SCORE.INTER.SOLV>
16.6201

>  <SCORE.INTER.VDW>
-12.3267

>  <SCORE.INTER.norm>
-0.172874

>  <SCORE.INTRA>
-9.58375

>  <SCORE.INTRA.DIHEDRAL>
-19.1732

>  <SCORE.INTRA.DIHEDRAL.0>
21.6909

>  <SCORE.INTRA.POLAR>
0

>  <SCORE.INTRA.POLAR.0>
0

>  <SCORE.INTRA.REPUL>
0

>  <SCORE.INTRA.REPUL.0>
0

>  <SCORE.INTRA.SOLV>
-2.65432

>  <SCORE.INTRA.SOLV.lig_0>
-116.606

>  <SCORE.INTRA.VDW>
1.33002

>  <SCORE.INTRA.VDW.0>
-6.01229

>  <SCORE.INTRA.norm>
-0.228185

>  <SCORE.RESTR>
0

>  <SCORE.RESTR.CAVITY>
0

>  <SCORE.RESTR.norm>
0

>  <SCORE.SYSTEM>
0

>  <SCORE.SYSTEM.CONST>
0

>  <SCORE.SYSTEM.DIHEDRAL>
0

>  <SCORE.SYSTEM.SOLV>
0

>  <SCORE.SYSTEM.norm>
0

>  <SCORE.heavy>
42

>  <SCORE.norm>
-0.401059

>  <RMSD>
9.275

$$$$
2et4_lig
 OpenBabel11021811423D
libRbt.so/2013.1/901 2013/11/27
 42 45  0  0  0  0  0  0  0  0999 V2000
   13.4976    8.3641    8.6457 C   0  0  2  0  0  0  0  0  0  0  0  0
   14.6479    7.7632    9.2441 O   0  0  0  0  0  0  0  0  0  0  0  0
   12.8951    9.3379    9.6904 C   0  0  2  0  0  0  0  0  0  0  0  0
   13.8593   10.3243   10.1065 N   0  0  0  0  0  0  0  0  0  0  0  0
   12.3671    8.5235   10.9066 C   0  0  1  0  0  0  0  0  0  0  0  0
   11.8116    9.3998   11.8368 O   0  0  0  0  0  0  0  0  0  0  0  0
   11.3272    7.4783   10.3813 C   0  0  2  0  0  0  0  0  0  0  0  0
   10.8258    6.7097   11.4543 O   0  0  0  0  0  0  0  0  0  0  0  0
   11.9764    6.5306    9.3276 C   0  0  2  0  0  0  0  0  0  0  0  0
   12.4952    7.3304    8.2609 O   0  0  0  0  0  0  0  0  0  0  0  0
   10.9541    5.4981    8.7494 C   0  0  0  0  0  0  0  0  0  0  0  0
    9.8944    6.1299    8.0431 N   0  0  0  0  0  0  0  0  0  0  0  0
   18.1368    5.8747    7.5366 C   0  0  2  0  0  0  0  0  0  0  0  0
   18.9736    4.8900    6.8396 N   0  0  0  0  0  0  0  0  0  0  0  0
   17.4397    5.1786    8.8257 C   0  0  0  0  0  0  0  0  0  0  0  0
   16.5275    6.2409    9.5650 C   0  0  2  0  0  0  0  0  0  0  0  0
   15.8527    5.6431   10.7307 N   0  0  0  0  0  0  0  0  0  0  0  0
   15.4557    6.7921    8.5649 C   0  0  2  0  0  0  0  0  0  0  0  0
   16.1411    7.4343    7.3136 C   0  0  2  0  0  0  0  0  0  0  0  0
   15.0721    7.8958    6.4514 O   0  0  0  0  0  0  0  0  0  0  0  0
   17.0307    6.3719    6.5916 C   0  0  1  0  0  0  0  0  0  0  0  0
   17.6354    6.9723    5.4964 O   0  0  0  0  0  0  0  0  0  0  0  0
   15.0942    9.0308    5.7115 C   0  0  1  0  0  0  0  0  0  0  0  0
   15.3450    8.7134    4.2142 C   0  0  2  0  0  0  0  0  0  0  0  0
   16.7007    8.5724    3.9025 O   0  0  0  0  0  0  0  0  0  0  0  0
   14.5666    9.8547    3.5863 C   0  0  1  0  0  0  0  0  0  0  0  0
   13.3196   10.0704    4.4554 C   0  0  2  0  0  0  0  0  0  0  0  0
   13.8661    9.8068    5.7475 O   0  0  0  0  0  0  0  0  0  0  0  0
   12.1035    9.1359    4.1351 C   0  0  0  0  0  0  0  0  0  0  0  0
   11.6771    9.4272    2.7778 O   0  0  0  0  0  0  0  0  0  0  0  0
   16.1530   11.3420    2.4062 C   0  0  2  0  0  0  0  0  0  0  0  0
   15.4501   11.0497    3.5829 O   0  0  0  0  0  0  0  0  0  0  0  0
   17.3405   12.3641    2.6799 C   0  0  1  0  0  0  0  0  0  0  0  0
   13.5200   11.9094   -1.1572 N   0  0  0  0  0  0  0  0  0  0  0  0
   18.0624   12.6440    1.2596 C   0  0  1  0  0  0  0  0  0  0  0  0
   18.5531   11.3189    0.7113 O   0  0  0  0  0  0  0  0  0  0  0  0
   17.0108   13.3241    0.2309 C   0  0  2  0  0  0  0  0  0  0  0  0
   16.5646   14.5908    0.7718 O   0  0  0  0  0  0  0  0  0  0  0  0
   15.7920   12.2643    0.0049 C   0  0  1  0  0  0  0  0  0  0  0  0
   15.1807   11.9152    1.3339 O   0  0  0  0  0  0  0  0  0  0  0  0
   14.6885   12.8215   -0.9611 C   0  0  0  0  0  0  0  0  0  0  0  0
   16.8082   13.6092    3.3258 N   0  0  0  0  0  0  0  0  0  0  0  0
  1  2  1  1  0  0  0
  1  3  1  0  0  0  0
  1 10  1  0  0  0  0
  3  4  1  1  0  0  0
  3  5  1  0  0  0  0
  5  6  1  1  0  0  0
  5  7  1  0  0  0  0
  7  8  1  1  0  0  0
  7  9  1  0  0  0  0
  9 10  1  0  0  0  0
  9 11  1  6  0  0  0
 11 12  1  0  0  0  0
 13 14  1  6  0  0  0
 13 15  1  0  0  0  0
 13 21  1  0  0  0  0
 16 15  1  0  0  0  0
 16 17  1  1  0  0  0
 18  2  1  1  0  0  0
 18 16  1  0  0  0  0
 19 18  1  0  0  0  0
 19 20  1  6  0  0  0
 21 19  1  0  0  0  0
 21 22  1  6  0  0  0
 23 20  1  1  0  0  0
 23 24  1  0  0  0  0
 23 28  1  0  0  0  0
 24 25  1  1  0  0  0
 24 26  1  0  0  0  0
 26 27  1  0  0  0  0
 26 32  1  1  0  0  0
 27 28  1  0  0  0  0
 27 29  1  6  0  0  0
 29 30  1  0  0  0  0
 31 32  1  1  0  0  0
 31 40  1  0  0  0  0
 33 31  1  0  0  0  0
 33 42  1  6  0  0  0
 35 33  1  0  0  0  0
 35 36  1  6  0  0  0
 37 35  1  0  0  0  0
 37 38  1  1  0  0  0
 37 39  1  0  0  0  0
 39 40  1  0  0  0  0
 39 41  1  6  0  0  0
 41 34  1  0  0  0  0
M  END
>  <CHROM.1>
179.45136110,63.07788973,-173.97544371,142.91152101,103.86305047,97.24306769
-62.96044696,-163.65328649,-177.60506349,14.80593608,9.07414582,5.77483886
1.84705723,-0.30645169,2.19809221

>  <Name>
2et4_lig

>  <RI>
3.65815e+07

>  <Rbt.Current_Directory>
/home/itssahil/PROJECTS/Mol_Feturizer/New_Systems/rnas/2et4

>  <Rbt.Executable>
rbdock ($Id: //depot/dev/client3/rdock/2013.1/src/exe/rbdock.cxx#4 $)

>  <Rbt.Library>
libRbt.so (2013.1, Build901 2013/11/27)

>  <Rbt.Parameter_File>
/export/apps/rDock/src/rDock_2013.1_src/data/scripts/dock_solv.prm

>  <Rbt.Receptor>
prm/pocket_docking_4.prm

>  <SCORE>
-23.4263

>  <SCORE.INTER>
-21.3768

>  <SCORE.INTER.CONST>
1

>  <SCORE.INTER.POLAR>
-2.53216

>  <SCORE.INTER.ROT>
9

>  <SCORE.INTER.SOLV>
18.5722

>  <SCORE.INTER.VDW>
-21.6014

>  <SCORE.INTER.norm>
-0.50897

>  <SCORE.INTRA>
-2.04958

>  <SCORE.INTRA.DIHEDRAL>
-4.23043

>  <SCORE.INTRA.DIHEDRAL.0>
21.6909

>  <SCORE.INTRA.POLAR>
0

>  <SCORE.INTRA.POLAR.0>
0

>  <SCORE.INTRA.REPUL>
0

>  <SCORE.INTRA.REPUL.0>
0

>  <SCORE.INTRA.SOLV>
-3.72595

>  <SCORE.INTRA.SOLV.lig_0>
-116.606

>  <SCORE.INTRA.VDW>
1.92861

>  <SCORE.INTRA.VDW.0>
-6.01229

>  <SCORE.INTRA.norm>
-0.0487995

>  <SCORE.RESTR>
0

>  <SCORE.RESTR.CAVITY>
0

>  <SCORE.RESTR.norm>
0

>  <SCORE.SYSTEM>
0

>  <SCORE.SYSTEM.CONST>
0

>  <SCORE.SYSTEM.DIHEDRAL>
0

>  <SCORE.SYSTEM.SOLV>
0

>  <SCORE.SYSTEM.norm>
0

>  <SCORE.heavy>
42

>  <SCORE.norm>
-0.55777

>  <RMSD>
9.279

$$$$
2et4_lig
 OpenBabel11021811423D
libRbt.so/2013.1/901 2013/11/27
 42 45  0  0  0  0  0  0  0  0999 V2000
    8.0584    4.3198   11.1441 C   0  0  2  0  0  0  0  0  0  0  0  0
    8.6892    5.6008   11.2030 O   0  0  0  0  0  0  0  0  0  0  0  0
    9.1188    3.3114   10.6329 C   0  0  2  0  0  0  0  0  0  0  0  0
   10.2823    3.2968   11.4824 N   0  0  0  0  0  0  0  0  0  0  0  0
    9.5005    3.6669    9.1669 C   0  0  1  0  0  0  0  0  0  0  0  0
   10.4418    2.7492    8.7045 O   0  0  0  0  0  0  0  0  0  0  0  0
    8.1935    3.6611    8.3058 C   0  0  2  0  0  0  0  0  0  0  0  0
    8.4930    3.9868    6.9650 O   0  0  0  0  0  0  0  0  0  0  0  0
    7.1560    4.6816    8.8646 C   0  0  2  0  0  0  0  0  0  0  0  0
    6.8828    4.3458   10.2282 O   0  0  0  0  0  0  0  0  0  0  0  0
    5.8196    4.6733    8.0526 C   0  0  0  0  0  0  0  0  0  0  0  0
    5.1269    3.4376    8.1717 N   0  0  0  0  0  0  0  0  0  0  0  0
   11.1123    7.8658   13.9694 C   0  0  2  0  0  0  0  0  0  0  0  0
   12.1764    8.1942   14.9261 N   0  0  0  0  0  0  0  0  0  0  0  0
   10.2147    6.6471   14.5538 C   0  0  0  0  0  0  0  0  0  0  0  0
    9.0779    6.2876   13.5118 C   0  0  2  0  0  0  0  0  0  0  0  0
    8.2520    5.1655   13.9915 N   0  0  0  0  0  0  0  0  0  0  0  0
    9.7308    5.9085   12.1396 C   0  0  2  0  0  0  0  0  0  0  0  0
   10.6162    7.0812   11.6023 C   0  0  2  0  0  0  0  0  0  0  0  0
   11.1812    6.6276   10.3476 O   0  0  0  0  0  0  0  0  0  0  0  0
   11.7368    7.4182   12.6377 C   0  0  1  0  0  0  0  0  0  0  0  0
   12.4958    8.4686   12.1416 O   0  0  0  0  0  0  0  0  0  0  0  0
   11.5108    7.4231    9.3013 C   0  0  1  0  0  0  0  0  0  0  0  0
   11.8362    6.5785    8.0418 C   0  0  2  0  0  0  0  0  0  0  0  0
   13.1572    6.1210    8.0139 O   0  0  0  0  0  0  0  0  0  0  0  0
   11.3770    7.5484    6.9689 C   0  0  1  0  0  0  0  0  0  0  0  0
   10.1226    8.2472    7.5121 C   0  0  2  0  0  0  0  0  0  0  0  0
   10.4729    8.3540    8.8918 O   0  0  0  0  0  0  0  0  0  0  0  0
    8.7766    7.4709    7.3108 C   0  0  0  0  0  0  0  0  0  0  0  0
    7.6943    8.4171    7.5162 O   0  0  0  0  0  0  0  0  0  0  0  0
   12.5832    9.0971    5.4629 C   0  0  2  0  0  0  0  0  0  0  0  0
   12.4851    8.5100    6.7316 O   0  0  0  0  0  0  0  0  0  0  0  0
   12.9449    8.0180    4.3519 C   0  0  1  0  0  0  0  0  0  0  0  0
   15.1945   12.9143    3.1581 N   0  0  0  0  0  0  0  0  0  0  0  0
   13.0534    8.8055    2.9431 C   0  0  1  0  0  0  0  0  0  0  0  0
   11.7245    9.4853    2.6798 O   0  0  0  0  0  0  0  0  0  0  0  0
   14.2430    9.9037    3.0152 C   0  0  2  0  0  0  0  0  0  0  0  0
   15.5013    9.2300    3.2577 O   0  0  0  0  0  0  0  0  0  0  0  0
   13.8555   10.9688    4.1880 C   0  0  1  0  0  0  0  0  0  0  0  0
   13.6483   10.2325    5.4829 O   0  0  0  0  0  0  0  0  0  0  0  0
   14.9503   12.0772    4.3727 C   0  0  0  0  0  0  0  0  0  0  0  0
   14.2086    7.3005    4.7247 N   0  0  0  0  0  0  0  0  0  0  0  0
  1  2  1  6  0  0  0
  1  3  1  0  0  0  0
  1 10  1  0  0  0  0
  3  4  1  1  0  0  0
  3  5  1  0  0  0  0
  5  6  1  6  0  0  0
  5  7  1  0  0  0  0
  7  8  1  6  0  0  0
  7  9  1  0  0  0  0
  9 10  1  0  0  0  0
  9 11  1  6  0  0  0
 11 12  1  0  0  0  0
 13 14  1  1  0  0  0
 13 15  1  0  0  0  0
 13 21  1  0  0  0  0
 16 15  1  0  0  0  0
 16 17  1  1  0  0  0
 18  2  1  6  0  0  0
 18 16  1  0  0  0  0
 19 18  1  0  0  0  0
 19 20  1  6  0  0  0
 21 19  1  0  0  0  0
 21 22  1  6  0  0  0
 23 20  1  1  0  0  0
 23 24  1  0  0  0  0
 23 28  1  0  0  0  0
 24 25  1  6  0  0  0
 24 26  1  0  0  0  0
 26 27  1  0  0  0  0
 26 32  1  1  0  0  0
 27 28  1  0  0  0  0
 27 29  1  1  0  0  0
 29 30  1  0  0  0  0
 31 32  1  1  0  0  0
 31 40  1  0  0  0  0
 33 31  1  0  0  0  0
 33 42  1  1  0  0  0
 35 33  1  0  0  0  0
 35 36  1  1  0  0  0
 37 35  1  0  0  0  0
 37 38  1  1  0  0  0
 37 39  1  0  0  0  0
 39 40  1  0  0  0  0
 39 41  1  1  0  0  0
 41 34  1  0  0  0  0
M  END
>  <CHROM.1>
-68.02594817,65.31962532,-82.47496331,150.26745587,-169.41956661,152.25311648
-163.74947975,-66.50955332,60.49671804,10.80938417,7.00985064,8.46056184
2.29516479,0.74071790,1.60968115

>  <Name>
2et4_lig

>  <RI>
0

>  <Rbt.Current_Directory>
/home/itssahil/PROJECTS/Mol_Feturizer/New_Systems/rnas/2et4

>  <Rbt.Executable>
rbdock ($Id: //depot/dev/client3/rdock/2013.1/src/exe/rbdock.cxx#4 $)

>  <Rbt.Library>
libRbt.so (2013.1, Build901 2013/11/27)

>  <Rbt.Parameter_File>
/export/apps/rDock/src/rDock_2013.1_src/data/scripts/dock_solv.prm

>  <Rbt.Receptor>
prm/pocket_docking_2.prm

>  <SCORE>
-3.1126

>  <SCORE.INTER>
-7.4099

>  <SCORE.INTER.CONST>
1

>  <SCORE.INTER.POLAR>
-0.916515

>  <SCORE.INTER.ROT>
9

>  <SCORE.INTER.SOLV>
15.4341

>  <SCORE.INTER.VDW>
-16.6296

>  <SCORE.INTER.norm>
-0.176426

>  <SCORE.INTRA>
-4.19973

>  <SCORE.INTRA.DIHEDRAL>
-10.6087

>  <SCORE.INTRA.DIHEDRAL.0>
21.6909

>  <SCORE.INTRA.POLAR>
0

>  <SCORE.INTRA.POLAR.0>
0

>  <SCORE.INTRA.REPUL>
0

>  <SCORE.INTRA.REPUL.0>
0

>  <SCORE.INTRA.SOLV>
1.10647

>  <SCORE.INTRA.SOLV.lig_0>
-116.606

>  <SCORE.INTRA.VDW>
0.551363

>  <SCORE.INTRA.VDW.0>
-6.01229

>  <SCORE.INTRA.norm>
-0.0999935

>  <SCORE.RESTR>
8.49703

>  <SCORE.RESTR.CAVITY>
8.49703

>  <SCORE.RESTR.norm>
0.20231

>  <SCORE.SYSTEM>
0

>  <SCORE.SYSTEM.CONST>
0

>  <SCORE.SYSTEM.DIHEDRAL>
0

>  <SCORE.SYSTEM.SOLV>
0

>  <SCORE.SYSTEM.norm>
0

>  <SCORE.heavy>
42

>  <SCORE.norm>
-0.0741096

>  <RMSD>
9.302

$$$$
2et4_lig
 OpenBabel11021811423D
libRbt.so/2013.1/901 2013/11/27
 42 45  0  0  0  0  0  0  0  0999 V2000
   11.2545    3.6126   13.7935 C   0  0  2  0  0  0  0  0  0  0  0  0
   11.0703    4.9835   13.4343 O   0  0  0  0  0  0  0  0  0  0  0  0
   10.5047    2.7592   12.7389 C   0  0  2  0  0  0  0  0  0  0  0  0
   10.9810    3.0325   11.4070 N   0  0  0  0  0  0  0  0  0  0  0  0
    8.9764    3.0286   12.8531 C   0  0  1  0  0  0  0  0  0  0  0  0
    8.3036    2.2481   11.9150 O   0  0  0  0  0  0  0  0  0  0  0  0
    8.5315    2.7091   14.3193 C   0  0  2  0  0  0  0  0  0  0  0  0
    7.1480    2.9474   14.4705 O   0  0  0  0  0  0  0  0  0  0  0  0
    9.3196    3.5831   15.3415 C   0  0  2  0  0  0  0  0  0  0  0  0
   10.7177    3.3418   15.1573 O   0  0  0  0  0  0  0  0  0  0  0  0
    8.9302    3.2609   16.8214 C   0  0  0  0  0  0  0  0  0  0  0  0
    9.5218    4.1686   17.7418 N   0  0  0  0  0  0  0  0  0  0  0  0
   13.4067    7.8607   11.2169 C   0  0  2  0  0  0  0  0  0  0  0  0
   14.1153    8.5001   10.1012 N   0  0  0  0  0  0  0  0  0  0  0  0
   14.0581    6.4038   11.5093 C   0  0  0  0  0  0  0  0  0  0  0  0
   13.2810    5.7130   12.7035 C   0  0  2  0  0  0  0  0  0  0  0  0
   13.8242    4.3728   12.9872 N   0  0  0  0  0  0  0  0  0  0  0  0
   11.7626    5.5964   12.3380 C   0  0  2  0  0  0  0  0  0  0  0  0
   11.1549    7.0049   12.0303 C   0  0  2  0  0  0  0  0  0  0  0  0
    9.7632    6.7867   11.6919 O   0  0  0  0  0  0  0  0  0  0  0  0
   11.9271    7.6692   10.8456 C   0  0  1  0  0  0  0  0  0  0  0  0
   11.3765    8.9201   10.6050 O   0  0  0  0  0  0  0  0  0  0  0  0
    9.3142    6.0144   10.6730 C   0  0  1  0  0  0  0  0  0  0  0  0
    7.7650    6.0336   10.6018 C   0  0  2  0  0  0  0  0  0  0  0  0
    7.1644    5.1127   11.4656 O   0  0  0  0  0  0  0  0  0  0  0  0
    7.5845    5.8559    9.1056 C   0  0  1  0  0  0  0  0  0  0  0  0
    8.7115    6.6474    8.4271 C   0  0  2  0  0  0  0  0  0  0  0  0
    9.7724    6.4173    9.3541 O   0  0  0  0  0  0  0  0  0  0  0  0
    8.4356    8.1763    8.2246 C   0  0  0  0  0  0  0  0  0  0  0  0
    7.2142    8.2985    7.4486 O   0  0  0  0  0  0  0  0  0  0  0  0
    7.6287    3.9977    7.4725 C   0  0  2  0  0  0  0  0  0  0  0  0
    7.6785    4.4017    8.8136 O   0  0  0  0  0  0  0  0  0  0  0  0
    6.2533    4.4164    6.7924 C   0  0  1  0  0  0  0  0  0  0  0  0
    9.2814   -0.0889    6.7893 N   0  0  0  0  0  0  0  0  0  0  0  0
    6.2977    3.8841    5.2655 C   0  0  1  0  0  0  0  0  0  0  0  0
    7.4966    4.5115    4.5825 O   0  0  0  0  0  0  0  0  0  0  0  0
    6.4215    2.2683    5.2480 C   0  0  2  0  0  0  0  0  0  0  0  0
    5.2620    1.6932    5.8967 O   0  0  0  0  0  0  0  0  0  0  0  0
    7.8225    1.8767    5.9855 C   0  0  1  0  0  0  0  0  0  0  0  0
    7.8363    2.4580    7.3726 O   0  0  0  0  0  0  0  0  0  0  0  0
    8.0474    0.3256    6.0539 C   0  0  0  0  0  0  0  0  0  0  0  0
    5.1018    3.8604    7.5770 N   0  0  0  0  0  0  0  0  0  0  0  0
  1  2  1  6  0  0  0
  1  3  1  0  0  0  0
  1 10  1  0  0  0  0
  3  4  1  6  0  0  0
  3  5  1  0  0  0  0
  5  6  1  6  0  0  0
  5  7  1  0  0  0  0
  7  8  1  6  0  0  0
  7  9  1  0  0  0  0
  9 10  1  0  0  0  0
  9 11  1  1  0  0  0
 11 12  1  0  0  0  0
 13 14  1  6  0  0  0
 13 15  1  0  0  0  0
 13 21  1  0  0  0  0
 16 15  1  0  0  0  0
 16 17  1  6  0  0  0
 18  2  1  1  0  0  0
 18 16  1  0  0  0  0
 19 18  1  0  0  0  0
 19 20  1  6  0  0  0
 21 19  1  0  0  0  0
 21 22  1  1  0  0  0
 23 20  1  1  0  0  0
 23 24  1  0  0  0  0
 23 28  1  0  0  0  0
 24 25  1  1  0  0  0
 24 26  1  0  0  0  0
 26 27  1  0  0  0  0
 26 32  1  1  0  0  0
 27 28  1  0  0  0  0
 27 29  1  1  0  0  0
 29 30  1  0  0  0  0
 31 32  1  1  0  0  0
 31 40  1  0  0  0  0
 33 31  1  0  0  0  0
 33 42  1  1  0  0  0
 35 33  1  0  0  0  0
 35 36  1  1  0  0  0
 37 35  1  0  0  0  0
 37 38  1  1  0  0  0
 37 39  1  0  0  0  0
 39 40  1  0  0  0  0
 39 41  1  1  0  0  0
 41 34  1  0  0  0  0
M  END
>  <CHROM.1>
-74.83356072,-172.63742914,-68.99893020,-59.13317944,-179.17505800,-175.89526551
-57.16859708,-61.04779237,-176.72872410,9.27410447,4.63699465,10.44556189
0.73405278,0.86921131,2.05505967

>  <Name>
2et4_lig

>  <RI>
0

>  <Rbt.Current_Directory>
/home/itssahil/PROJECTS/Mol_Feturizer/New_Systems/rnas/2et4

>  <Rbt.Executable>
rbdock ($Id: //depot/dev/client3/rdock/2013.1/src/exe/rbdock.cxx#4 $)

>  <Rbt.Library>
libRbt.so (2013.1, Build901 2013/11/27)

>  <Rbt.Parameter_File>
/export/apps/rDock/src/rDock_2013.1_src/data/scripts/dock_solv.prm

>  <Rbt.Receptor>
prm/pocket_docking_6.prm

>  <SCORE>
-11.8039

>  <SCORE.INTER>
-3.79557

>  <SCORE.INTER.CONST>
1

>  <SCORE.INTER.POLAR>
-0.824621

>  <SCORE.INTER.ROT>
9

>  <SCORE.INTER.SOLV>
12.8555

>  <SCORE.INTER.VDW>
-13.6668

>  <SCORE.INTER.norm>
-0.0903708

>  <SCORE.INTRA>
-8.00836

>  <SCORE.INTRA.DIHEDRAL>
-19.7427

>  <SCORE.INTRA.DIHEDRAL.0>
21.6909

>  <SCORE.INTRA.POLAR>
0

>  <SCORE.INTRA.POLAR.0>
0

>  <SCORE.INTRA.REPUL>
0

>  <SCORE.INTRA.REPUL.0>
0

>  <SCORE.INTRA.SOLV>
0.802765

>  <SCORE.INTRA.SOLV.lig_0>
-116.606

>  <SCORE.INTRA.VDW>
1.46162

>  <SCORE.INTRA.VDW.0>
-6.01229

>  <SCORE.INTRA.norm>
-0.190675

>  <SCORE.RESTR>
0

>  <SCORE.RESTR.CAVITY>
0

>  <SCORE.RESTR.norm>
0

>  <SCORE.SYSTEM>
0

>  <SCORE.SYSTEM.CONST>
0

>  <SCORE.SYSTEM.DIHEDRAL>
0

>  <SCORE.SYSTEM.SOLV>
0

>  <SCORE.SYSTEM.norm>
0

>  <SCORE.heavy>
42

>  <SCORE.norm>
-0.281046

>  <RMSD>
9.303

$$$$
2et4_lig
 OpenBabel11021811423D
libRbt.so/2013.1/901 2013/11/27
 42 45  0  0  0  0  0  0  0  0999 V2000
   12.9673    8.7506   10.4575 C   0  0  2  0  0  0  0  0  0  0  0  0
   14.1070    8.6146    9.6062 O   0  0  0  0  0  0  0  0  0  0  0  0
   12.4139   10.1843   10.2549 C   0  0  2  0  0  0  0  0  0  0  0  0
   12.0833   10.4294    8.8742 N   0  0  0  0  0  0  0  0  0  0  0  0
   13.4582   11.2154   10.7720 C   0  0  1  0  0  0  0  0  0  0  0  0
   12.9516   12.5025   10.6035 O   0  0  0  0  0  0  0  0  0  0  0  0
   13.7655   10.8904   12.2719 C   0  0  2  0  0  0  0  0  0  0  0  0
   14.7173   11.8002   12.7815 O   0  0  0  0  0  0  0  0  0  0  0  0
   14.3083    9.4371   12.4251 C   0  0  2  0  0  0  0  0  0  0  0  0
   13.3388    8.5345   11.8847 O   0  0  0  0  0  0  0  0  0  0  0  0
   14.5876    9.0628   13.9175 C   0  0  0  0  0  0  0  0  0  0  0  0
   15.0524    7.7266   14.0577 N   0  0  0  0  0  0  0  0  0  0  0  0
   16.9278    5.5047    8.5936 C   0  0  2  0  0  0  0  0  0  0  0  0
   17.4553    4.2052    8.1589 N   0  0  0  0  0  0  0  0  0  0  0  0
   15.9982    5.3006    9.9075 C   0  0  0  0  0  0  0  0  0  0  0  0
   15.4206    6.7028   10.3630 C   0  0  2  0  0  0  0  0  0  0  0  0
   14.5472    6.5610   11.5415 N   0  0  0  0  0  0  0  0  0  0  0  0
   14.6103    7.3397    9.1839 C   0  0  2  0  0  0  0  0  0  0  0  0
   15.5108    7.5038    7.9151 C   0  0  2  0  0  0  0  0  0  0  0  0
   14.6700    8.0821    6.8867 O   0  0  0  0  0  0  0  0  0  0  0  0
   16.0660    6.1114    7.4742 C   0  0  1  0  0  0  0  0  0  0  0  0
   16.8706    6.2896    6.3577 O   0  0  0  0  0  0  0  0  0  0  0  0
   15.0576    9.0239    5.9927 C   0  0  1  0  0  0  0  0  0  0  0  0
   15.6431    8.3692    4.7144 C   0  0  2  0  0  0  0  0  0  0  0  0
   16.9956    8.0368    4.8381 O   0  0  0  0  0  0  0  0  0  0  0  0
   15.2395    9.4169    3.6935 C   0  0  1  0  0  0  0  0  0  0  0  0
   13.8549    9.9316    4.1118 C   0  0  2  0  0  0  0  0  0  0  0  0
   13.9953    9.9020    5.5321 O   0  0  0  0  0  0  0  0  0  0  0  0
   12.6395    9.0694    3.6281 C   0  0  0  0  0  0  0  0  0  0  0  0
   12.6152    9.1280    2.1772 O   0  0  0  0  0  0  0  0  0  0  0  0
   16.3750   11.3299    2.6107 C   0  0  2  0  0  0  0  0  0  0  0  0
   16.2628   10.4941    3.7300 O   0  0  0  0  0  0  0  0  0  0  0  0
   16.8966   12.7762    3.0180 C   0  0  1  0  0  0  0  0  0  0  0  0
   13.4808   12.0498   -1.4404 N   0  0  0  0  0  0  0  0  0  0  0  0
   16.9657   13.6550    1.6617 C   0  0  1  0  0  0  0  0  0  0  0  0
   17.8977   12.9543    0.6933 O   0  0  0  0  0  0  0  0  0  0  0  0
   15.4849   13.7931    1.0178 C   0  0  2  0  0  0  0  0  0  0  0  0
   14.6172   14.4729    1.9565 O   0  0  0  0  0  0  0  0  0  0  0  0
   14.9696   12.2904    0.6486 C   0  0  1  0  0  0  0  0  0  0  0  0
   15.0018   11.4336    1.8842 O   0  0  0  0  0  0  0  0  0  0  0  0
   13.5258   12.2889    0.0348 C   0  0  0  0  0  0  0  0  0  0  0  0
   15.9974   13.3718    4.0609 N   0  0  0  0  0  0  0  0  0  0  0  0
  1  2  1  6  0  0  0
  1  3  1  0  0  0  0
  1 10  1  0  0  0  0
  3  4  1  6  0  0  0
  3  5  1  0  0  0  0
  5  6  1  1  0  0  0
  5  7  1  0  0  0  0
  7  8  1  6  0  0  0
  7  9  1  0  0  0  0
  9 10  1  0  0  0  0
  9 11  1  1  0  0  0
 11 12  1  0  0  0  0
 13 14  1  6  0  0  0
 13 15  1  0  0  0  0
 13 21  1  0  0  0  0
 16 15  1  0  0  0  0
 16 17  1  1  0  0  0
 18  2  1  1  0  0  0
 18 16  1  0  0  0  0
 19 18  1  0  0  0  0
 19 20  1  6  0  0  0
 21 19  1  0  0  0  0
 21 22  1  6  0  0  0
 23 20  1  1  0  0  0
 23 24  1  0  0  0  0
 23 28  1  0  0  0  0
 24 25  1  1  0  0  0
 24 26  1  0  0  0  0
 26 27  1  0  0  0  0
 26 32  1  1  0  0  0
 27 28  1  0  0  0  0
 27 29  1  1  0  0  0
 29 30  1  0  0  0  0
 31 32  1  1  0  0  0
 31 40  1  0  0  0  0
 33 31  1  0  0  0  0
 33 42  1  1  0  0  0
 35 33  1  0  0  0  0
 35 36  1  6  0  0  0
 37 35  1  0  0  0  0
 37 38  1  1  0  0  0
 37 39  1  0  0  0  0
 39 40  1  0  0  0  0
 39 41  1  1  0  0  0
 41 34  1  0  0  0  0
M  END
>  <CHROM.1>
-158.77604446,178.60816077,-77.63624479,141.10902232,89.22380027,159.02669681
-64.36230529,151.12690815,105.34712320,14.88561778,9.70029689,6.61297269
1.75114399,-1.18486748,2.10118605

>  <Name>
2et4_lig

>  <RI>
0

>  <Rbt.Current_Directory>
/home/itssahil/PROJECTS/Mol_Feturizer/New_Systems/rnas/2et4

>  <Rbt.Executable>
rbdock ($Id: //depot/dev/client3/rdock/2013.1/src/exe/rbdock.cxx#4 $)

>  <Rbt.Library>
libRbt.so (2013.1, Build901 2013/11/27)

>  <Rbt.Parameter_File>
/export/apps/rDock/src/rDock_2013.1_src/data/scripts/dock_solv.prm

>  <Rbt.Receptor>
prm/blind_docking_40.prm

>  <SCORE>
14.1942

>  <SCORE.INTER>
-13.5885

>  <SCORE.INTER.CONST>
1

>  <SCORE.INTER.POLAR>
-1.61684

>  <SCORE.INTER.ROT>
9

>  <SCORE.INTER.SOLV>
25.3489

>  <SCORE.INTER.VDW>
-21.7192

>  <SCORE.INTER.norm>
-0.323536

>  <SCORE.INTRA>
7.42054

>  <SCORE.INTRA.DIHEDRAL>
0.487342

>  <SCORE.INTRA.DIHEDRAL.0>
21.6909

>  <SCORE.INTRA.POLAR>
0

>  <SCORE.INTRA.POLAR.0>
0

>  <SCORE.INTRA.REPUL>
0.298064

>  <SCORE.INTRA.REPUL.0>
0

>  <SCORE.INTRA.SOLV>
1.89691

>  <SCORE.INTRA.SOLV.lig_0>
-116.606

>  <SCORE.INTRA.VDW>
4.73809

>  <SCORE.INTRA.VDW.0>
-6.01229

>  <SCORE.INTRA.norm>
0.17668

>  <SCORE.RESTR>
20.3621

>  <SCORE.RESTR.CAVITY>
20.3621

>  <SCORE.RESTR.norm>
0.484812

>  <SCORE.SYSTEM>
0

>  <SCORE.SYSTEM.CONST>
0

>  <SCORE.SYSTEM.DIHEDRAL>
0

>  <SCORE.SYSTEM.SOLV>
0

>  <SCORE.SYSTEM.norm>
0

>  <SCORE.heavy>
42

>  <SCORE.norm>
0.337956

>  <RMSD>
9.305

$$$$
2et4_lig
 OpenBabel11021811423D
libRbt.so/2013.1/901 2013/11/27
 42 45  0  0  0  0  0  0  0  0999 V2000
   13.5611    8.2856    8.7502 C   0  0  2  0  0  0  0  0  0  0  0  0
   14.7175    7.7138    9.3651 O   0  0  0  0  0  0  0  0  0  0  0  0
   12.9398    9.2710    9.7727 C   0  0  2  0  0  0  0  0  0  0  0  0
   13.8876   10.2796   10.1729 N   0  0  0  0  0  0  0  0  0  0  0  0
   12.4186    8.4734   11.0029 C   0  0  1  0  0  0  0  0  0  0  0  0
   11.8462    9.3597   11.9131 O   0  0  0  0  0  0  0  0  0  0  0  0
   11.3964    7.4027   10.4944 C   0  0  2  0  0  0  0  0  0  0  0  0
   10.9017    6.6483   11.5805 O   0  0  0  0  0  0  0  0  0  0  0  0
   12.0640    6.4438    9.4625 C   0  0  2  0  0  0  0  0  0  0  0  0
   12.5756    7.2297    8.3821 O   0  0  0  0  0  0  0  0  0  0  0  0
   11.0596    5.3849    8.9009 C   0  0  0  0  0  0  0  0  0  0  0  0
    9.9544    5.9899    8.2424 N   0  0  0  0  0  0  0  0  0  0  0  0
   18.2224    5.7560    7.7724 C   0  0  2  0  0  0  0  0  0  0  0  0
   19.0628    4.7516    7.1086 N   0  0  0  0  0  0  0  0  0  0  0  0
   17.4806    5.0842    9.0494 C   0  0  0  0  0  0  0  0  0  0  0  0
   16.5648    6.1677    9.7526 C   0  0  2  0  0  0  0  0  0  0  0  0
   15.8501    5.5925   10.9058 N   0  0  0  0  0  0  0  0  0  0  0  0
   15.5287    6.7236    8.7182 C   0  0  2  0  0  0  0  0  0  0  0  0
   16.2569    7.3421    7.4793 C   0  0  2  0  0  0  0  0  0  0  0  0
   15.2185    7.8099    6.5838 O   0  0  0  0  0  0  0  0  0  0  0  0
   17.1496    6.2591    6.7927 C   0  0  1  0  0  0  0  0  0  0  0  0
   17.7925    6.8387    5.7081 O   0  0  0  0  0  0  0  0  0  0  0  0
   15.2745    8.9401    5.8383 C   0  0  1  0  0  0  0  0  0  0  0  0
   15.4783    8.6065    4.3374 C   0  0  2  0  0  0  0  0  0  0  0  0
   16.8194    8.4047    3.9972 O   0  0  0  0  0  0  0  0  0  0  0  0
   14.7375    9.7788    3.7213 C   0  0  1  0  0  0  0  0  0  0  0  0
   13.5204   10.0525    4.6161 C   0  0  2  0  0  0  0  0  0  0  0  0
   14.0828    9.7698    5.8973 O   0  0  0  0  0  0  0  0  0  0  0  0
   12.2577    9.1714    4.3265 C   0  0  0  0  0  0  0  0  0  0  0  0
   11.8757    9.4004    2.9442 O   0  0  0  0  0  0  0  0  0  0  0  0
   16.1959   11.3235    2.4530 C   0  0  2  0  0  0  0  0  0  0  0  0
   15.6725   10.9337    3.6933 O   0  0  0  0  0  0  0  0  0  0  0  0
   17.3668   12.3859    2.6268 C   0  0  1  0  0  0  0  0  0  0  0  0
   14.4893   13.2548   -2.0234 N   0  0  0  0  0  0  0  0  0  0  0  0
   17.8761   12.7777    1.1423 C   0  0  1  0  0  0  0  0  0  0  0  0
   18.3413   11.5099    0.4540 O   0  0  0  0  0  0  0  0  0  0  0  0
   16.6672   13.4609    0.3068 C   0  0  2  0  0  0  0  0  0  0  0  0
   16.2475   14.6729    0.9783 O   0  0  0  0  0  0  0  0  0  0  0  0
   15.4733   12.3569    0.1820 C   0  0  1  0  0  0  0  0  0  0  0  0
   15.0637   11.9064    1.5573 O   0  0  0  0  0  0  0  0  0  0  0  0
   14.2265   12.9114   -0.5921 C   0  0  0  0  0  0  0  0  0  0  0  0
   16.8770   13.5664    3.4125 N   0  0  0  0  0  0  0  0  0  0  0  0
  1  2  1  1  0  0  0
  1  3  1  0  0  0  0
  1 10  1  0  0  0  0
  3  4  1  1  0  0  0
  3  5  1  0  0  0  0
  5  6  1  1  0  0  0
  5  7  1  0  0  0  0
  7  8  1  1  0  0  0
  7  9  1  0  0  0  0
  9 10  1  0  0  0  0
  9 11  1  6  0  0  0
 11 12  1  0  0  0  0
 13 14  1  6  0  0  0
 13 15  1  0  0  0  0
 13 21  1  0  0  0  0
 16 15  1  0  0  0  0
 16 17  1  1  0  0  0
 18  2  1  1  0  0  0
 18 16  1  0  0  0  0
 19 18  1  0  0  0  0
 19 20  1  6  0  0  0
 21 19  1  0  0  0  0
 21 22  1  6  0  0  0
 23 20  1  1  0  0  0
 23 24  1  0  0  0  0
 23 28  1  0  0  0  0
 24 25  1  6  0  0  0
 24 26  1  0  0  0  0
 26 27  1  0  0  0  0
 26 32  1  1  0  0  0
 27 28  1  0  0  0  0
 27 29  1  6  0  0  0
 29 30  1  0  0  0  0
 31 32  1  1  0  0  0
 31 40  1  0  0  0  0
 33 31  1  0  0  0  0
 33 42  1  6  0  0  0
 35 33  1  0  0  0  0
 35 36  1  6  0  0  0
 37 35  1  0  0  0  0
 37 38  1  1  0  0  0
 37 39  1  0  0  0  0
 39 40  1  0  0  0  0
 39 41  1  1  0  0  0
 41 34  1  0  0  0  0
M  END
>  <CHROM.1>
178.29859010,59.78549057,-171.37593690,142.53674517,107.34299985,107.34184913
-58.71332594,-169.66016146,64.06576277,14.86306330,9.06280406,5.88207145
1.81951185,-0.34525900,2.21657582

>  <Name>
2et4_lig

>  <RI>
0

>  <Rbt.Current_Directory>
/home/itssahil/PROJECTS/Mol_Feturizer/New_Systems/rnas/2et4

>  <Rbt.Executable>
rbdock ($Id: //depot/dev/client3/rdock/2013.1/src/exe/rbdock.cxx#4 $)

>  <Rbt.Library>
libRbt.so (2013.1, Build901 2013/11/27)

>  <Rbt.Parameter_File>
/export/apps/rDock/src/rDock_2013.1_src/data/scripts/dock_solv.prm

>  <Rbt.Receptor>
prm/pocket_docking_5.prm

>  <SCORE>
-22.7401

>  <SCORE.INTER>
-21.126

>  <SCORE.INTER.CONST>
1

>  <SCORE.INTER.POLAR>
-2.56963

>  <SCORE.INTER.ROT>
9

>  <SCORE.INTER.SOLV>
17.54

>  <SCORE.INTER.VDW>
-20.9653

>  <SCORE.INTER.norm>
-0.503001

>  <SCORE.INTRA>
-1.61403

>  <SCORE.INTRA.DIHEDRAL>
-2.78047

>  <SCORE.INTRA.DIHEDRAL.0>
21.6909

>  <SCORE.INTRA.POLAR>
0

>  <SCORE.INTRA.POLAR.0>
0

>  <SCORE.INTRA.REPUL>
0

>  <SCORE.INTRA.REPUL.0>
0

>  <SCORE.INTRA.SOLV>
-3.29162

>  <SCORE.INTRA.SOLV.lig_0>
-116.606

>  <SCORE.INTRA.VDW>
1.42202

>  <SCORE.INTRA.VDW.0>
-6.01229

>  <SCORE.INTRA.norm>
-0.0384293

>  <SCORE.RESTR>
0

>  <SCORE.RESTR.CAVITY>
0

>  <SCORE.RESTR.norm>
0

>  <SCORE.SYSTEM>
0

>  <SCORE.SYSTEM.CONST>
0

>  <SCORE.SYSTEM.DIHEDRAL>
0

>  <SCORE.SYSTEM.SOLV>
0

>  <SCORE.SYSTEM.norm>
0

>  <SCORE.heavy>
42

>  <SCORE.norm>
-0.54143

>  <RMSD>
9.330

$$$$
2et4_lig
 OpenBabel11021811423D
libRbt.so/2013.1/901 2013/11/27
 42 45  0  0  0  0  0  0  0  0999 V2000
   13.6105    8.2987    4.6278 C   0  0  2  0  0  0  0  0  0  0  0  0
   14.1900    7.1275    4.0494 O   0  0  0  0  0  0  0  0  0  0  0  0
   12.0996    8.0126    4.8225 C   0  0  2  0  0  0  0  0  0  0  0  0
   11.8871    6.8483    5.6441 N   0  0  0  0  0  0  0  0  0  0  0  0
   11.4251    7.8458    3.4303 C   0  0  1  0  0  0  0  0  0  0  0  0
   10.0642    7.6048    3.6078 O   0  0  0  0  0  0  0  0  0  0  0  0
   11.6942    9.1436    2.5976 C   0  0  2  0  0  0  0  0  0  0  0  0
   11.1040    9.0326    1.3198 O   0  0  0  0  0  0  0  0  0  0  0  0
   13.2245    9.3939    2.4386 C   0  0  2  0  0  0  0  0  0  0  0  0
   13.8049    9.4824    3.7432 O   0  0  0  0  0  0  0  0  0  0  0  0
   13.5314   10.7066    1.6461 C   0  0  0  0  0  0  0  0  0  0  0  0
   12.8640   10.7446    0.3915 N   0  0  0  0  0  0  0  0  0  0  0  0
   18.1111    5.6808    5.1390 C   0  0  2  0  0  0  0  0  0  0  0  0
   19.5611    5.4540    5.0982 N   0  0  0  0  0  0  0  0  0  0  0  0
   17.4354    5.1167    3.7761 C   0  0  0  0  0  0  0  0  0  0  0  0
   15.8740    5.3769    3.8192 C   0  0  2  0  0  0  0  0  0  0  0  0
   15.2213    4.9021    2.5863 N   0  0  0  0  0  0  0  0  0  0  0  0
   15.6066    6.9097    3.9967 C   0  0  2  0  0  0  0  0  0  0  0  0
   16.2880    7.4459    5.2990 C   0  0  2  0  0  0  0  0  0  0  0  0
   15.9955    8.8635    5.3618 O   0  0  0  0  0  0  0  0  0  0  0  0
   17.8279    7.1887    5.2373 C   0  0  1  0  0  0  0  0  0  0  0  0
   18.4023    7.6609    6.4090 O   0  0  0  0  0  0  0  0  0  0  0  0
   16.5806    9.8207    4.6016 C   0  0  1  0  0  0  0  0  0  0  0  0
   16.1824    9.6669    3.1106 C   0  0  2  0  0  0  0  0  0  0  0  0
   16.9746    8.7421    2.4234 O   0  0  0  0  0  0  0  0  0  0  0  0
   16.2312   11.1242    2.6905 C   0  0  1  0  0  0  0  0  0  0  0  0
   15.7018   11.9440    3.8756 C   0  0  2  0  0  0  0  0  0  0  0  0
   16.2313   11.1845    4.9621 O   0  0  0  0  0  0  0  0  0  0  0  0
   14.1431   12.0768    3.9622 C   0  0  0  0  0  0  0  0  0  0  0  0
   13.7227   11.4582    5.2070 O   0  0  0  0  0  0  0  0  0  0  0  0
   18.1218   12.7192    2.7489 C   0  0  2  0  0  0  0  0  0  0  0  0
   17.6471   11.4530    2.3808 O   0  0  0  0  0  0  0  0  0  0  0  0
   17.0832   13.8610    2.3648 C   0  0  1  0  0  0  0  0  0  0  0  0
   21.4818   13.9840    0.2109 N   0  0  0  0  0  0  0  0  0  0  0  0
   17.7401   15.2699    2.8121 C   0  0  1  0  0  0  0  0  0  0  0  0
   18.0119   15.2110    4.3021 O   0  0  0  0  0  0  0  0  0  0  0  0
   19.1190   15.5188    1.9978 C   0  0  2  0  0  0  0  0  0  0  0  0
   18.8323   15.5805    0.5800 O   0  0  0  0  0  0  0  0  0  0  0  0
   20.1428   14.3106    2.3877 C   0  0  1  0  0  0  0  0  0  0  0  0
   19.4982   12.9887    2.0730 O   0  0  0  0  0  0  0  0  0  0  0  0
   21.5162   14.4272    1.6384 C   0  0  0  0  0  0  0  0  0  0  0  0
   16.7677   13.7968    0.8994 N   0  0  0  0  0  0  0  0  0  0  0  0
  1  2  1  6  0  0  0
  1  3  1  0  0  0  0
  1 10  1  0  0  0  0
  3  4  1  1  0  0  0
  3  5  1  0  0  0  0
  5  6  1  1  0  0  0
  5  7  1  0  0  0  0
  7  8  1  6  0  0  0
  7  9  1  0  0  0  0
  9 10  1  0  0  0  0
  9 11  1  1  0  0  0
 11 12  1  0  0  0  0
 13 14  1  6  0  0  0
 13 15  1  0  0  0  0
 13 21  1  0  0  0  0
 16 15  1  0  0  0  0
 16 17  1  6  0  0  0
 18  2  1  1  0  0  0
 18 16  1  0  0  0  0
 19 18  1  0  0  0  0
 19 20  1  6  0  0  0
 21 19  1  0  0  0  0
 21 22  1  1  0  0  0
 23 20  1  1  0  0  0
 23 24  1  0  0  0  0
 23 28  1  0  0  0  0
 24 25  1  6  0  0  0
 24 26  1  0  0  0  0
 26 27  1  0  0  0  0
 26 32  1  1  0  0  0
 27 28  1  0  0  0  0
 27 29  1  1  0  0  0
 29 30  1  0  0  0  0
 31 32  1  6  0  0  0
 31 40  1  0  0  0  0
 33 31  1  0  0  0  0
 33 42  1  6  0  0  0
 35 33  1  0  0  0  0
 35 36  1  1  0  0  0
 37 35  1  0  0  0  0
 37 38  1  6  0  0  0
 37 39  1  0  0  0  0
 39 40  1  0  0  0  0
 39 41  1  6  0  0  0
 41 34  1  0  0  0  0
M  END
>  <CHROM.1>
-165.92748875,-53.50015864,158.92633339,-75.08057249,67.21409359,-142.10762209
118.06670946,-44.88830599,-77.62705738,15.97999984,10.11581805,3.34219766
2.19635828,0.10576498,2.78724679

>  <Name>
2et4_lig

>  <RI>
0

>  <Rbt.Current_Directory>
/home/itssahil/PROJECTS/Mol_Feturizer/New_Systems/rnas/2et4

>  <Rbt.Executable>
rbdock ($Id: //depot/dev/client3/rdock/2013.1/src/exe/rbdock.cxx#4 $)

>  <Rbt.Library>
libRbt.so (2013.1, Build901 2013/11/27)

>  <Rbt.Parameter_File>
/export/apps/rDock/src/rDock_2013.1_src/data/scripts/dock_solv.prm

>  <Rbt.Receptor>
prm/blind_docking_80.prm

>  <SCORE>
52.8282

>  <SCORE.INTER>
17.2315

>  <SCORE.INTER.CONST>
1

>  <SCORE.INTER.POLAR>
-0.797277

>  <SCORE.INTER.ROT>
9

>  <SCORE.INTER.SOLV>
24.2914

>  <SCORE.INTER.VDW>
-3.5519

>  <SCORE.INTER.norm>
0.410274

>  <SCORE.INTRA>
13.6501

>  <SCORE.INTRA.DIHEDRAL>
-4.95614

>  <SCORE.INTRA.DIHEDRAL.0>
21.6909

>  <SCORE.INTRA.POLAR>
0

>  <SCORE.INTRA.POLAR.0>
0

>  <SCORE.INTRA.REPUL>
0

>  <SCORE.INTRA.REPUL.0>
0

>  <SCORE.INTRA.SOLV>
3.04877

>  <SCORE.INTRA.SOLV.lig_0>
-116.606

>  <SCORE.INTRA.VDW>
14.6038

>  <SCORE.INTRA.VDW.0>
-6.01229

>  <SCORE.INTRA.norm>
0.325003

>  <SCORE.RESTR>
21.9465

>  <SCORE.RESTR.CAVITY>
21.9465

>  <SCORE.RESTR.norm>
0.522537

>  <SCORE.SYSTEM>
0

>  <SCORE.SYSTEM.CONST>
0

>  <SCORE.SYSTEM.DIHEDRAL>
0

>  <SCORE.SYSTEM.SOLV>
0

>  <SCORE.SYSTEM.norm>
0

>  <SCORE.heavy>
42

>  <SCORE.norm>
1.25781

>  <RMSD>
9.340

$$$$
2et4_lig
 OpenBabel11021811423D
libRbt.so/2013.1/901 2013/11/27
 42 45  0  0  0  0  0  0  0  0999 V2000
    9.9786    4.6868   12.2710 C   0  0  2  0  0  0  0  0  0  0  0  0
   10.9872    5.5713   11.7785 O   0  0  0  0  0  0  0  0  0  0  0  0
    8.6315    5.1406   11.6530 C   0  0  2  0  0  0  0  0  0  0  0  0
    8.6874    5.1405   10.2134 N   0  0  0  0  0  0  0  0  0  0  0  0
    8.2656    6.5511   12.1988 C   0  0  1  0  0  0  0  0  0  0  0  0
    7.0464    6.9497   11.6542 O   0  0  0  0  0  0  0  0  0  0  0  0
    8.2208    6.4746   13.7615 C   0  0  2  0  0  0  0  0  0  0  0  0
    7.8983    7.7389   14.3012 O   0  0  0  0  0  0  0  0  0  0  0  0
    9.5923    6.0045   14.3339 C   0  0  2  0  0  0  0  0  0  0  0  0
    9.9089    4.7333   13.7591 O   0  0  0  0  0  0  0  0  0  0  0  0
    9.5719    5.8765   15.8923 C   0  0  0  0  0  0  0  0  0  0  0  0
    9.3085    7.1198   16.5295 N   0  0  0  0  0  0  0  0  0  0  0  0
   15.2858    5.5158   12.1960 C   0  0  2  0  0  0  0  0  0  0  0  0
   16.6866    5.1138   12.0177 N   0  0  0  0  0  0  0  0  0  0  0  0
   14.4385    4.2738   12.8058 C   0  0  0  0  0  0  0  0  0  0  0  0
   12.9261    4.7083   12.9824 C   0  0  2  0  0  0  0  0  0  0  0  0
   12.1123    3.5994   13.5113 N   0  0  0  0  0  0  0  0  0  0  0  0
   12.3515    5.1668   11.5996 C   0  0  2  0  0  0  0  0  0  0  0  0
   13.1952    6.3451   11.0100 C   0  0  2  0  0  0  0  0  0  0  0  0
   12.5954    6.6818    9.7348 O   0  0  0  0  0  0  0  0  0  0  0  0
   14.6821    5.8980   10.8347 C   0  0  1  0  0  0  0  0  0  0  0  0
   15.4075    6.9653   10.3245 O   0  0  0  0  0  0  0  0  0  0  0  0
   12.9538    7.7264    8.9496 C   0  0  1  0  0  0  0  0  0  0  0  0
   12.1504    7.7257    7.6229 C   0  0  2  0  0  0  0  0  0  0  0  0
   12.7067    6.8959    6.6447 O   0  0  0  0  0  0  0  0  0  0  0  0
   12.0955    9.2205    7.3669 C   0  0  1  0  0  0  0  0  0  0  0  0
   11.9302    9.8976    8.7347 C   0  0  2  0  0  0  0  0  0  0  0  0
   12.7354    9.0364    9.5395 O   0  0  0  0  0  0  0  0  0  0  0  0
   10.4605    9.9895    9.2696 C   0  0  0  0  0  0  0  0  0  0  0  0
    9.6338   10.4892    8.1851 O   0  0  0  0  0  0  0  0  0  0  0  0
   13.3201   10.0150    5.3693 C   0  0  2  0  0  0  0  0  0  0  0  0
   13.3707    9.6085    6.7095 O   0  0  0  0  0  0  0  0  0  0  0  0
   13.5366    8.7861    4.3830 C   0  0  1  0  0  0  0  0  0  0  0  0
   15.7102   13.3711    2.2499 N   0  0  0  0  0  0  0  0  0  0  0  0
   13.4812    9.3717    2.8761 C   0  0  1  0  0  0  0  0  0  0  0  0
   12.1359   10.0420    2.6803 O   0  0  0  0  0  0  0  0  0  0  0  0
   14.6798   10.4397    2.6550 C   0  0  2  0  0  0  0  0  0  0  0  0
   15.9526    9.7743    2.8378 O   0  0  0  0  0  0  0  0  0  0  0  0
   14.4452   11.6637    3.7069 C   0  0  1  0  0  0  0  0  0  0  0  0
   14.3893   11.1158    5.1064 O   0  0  0  0  0  0  0  0  0  0  0  0
   15.5635   12.7595    3.6063 C   0  0  0  0  0  0  0  0  0  0  0  0
   14.8300    8.0949    4.6994 N   0  0  0  0  0  0  0  0  0  0  0  0
  1  2  1  6  0  0  0
  1  3  1  0  0  0  0
  1 10  1  0  0  0  0
  3  4  1  6  0  0  0
  3  5  1  0  0  0  0
  5  6  1  6  0  0  0
  5  7  1  0  0  0  0
  7  8  1  1  0  0  0
  7  9  1  0  0  0  0
  9 10  1  0  0  0  0
  9 11  1  1  0  0  0
 11 12  1  0  0  0  0
 13 14  1  6  0  0  0
 13 15  1  0  0  0  0
 13 21  1  0  0  0  0
 16 15  1  0  0  0  0
 16 17  1  6  0  0  0
 18  2  1  1  0  0  0
 18 16  1  0  0  0  0
 19 18  1  0  0  0  0
 19 20  1  6  0  0  0
 21 19  1  0  0  0  0
 21 22  1  1  0  0  0
 23 20  1  1  0  0  0
 23 24  1  0  0  0  0
 23 28  1  0  0  0  0
 24 25  1  6  0  0  0
 24 26  1  0  0  0  0
 26 27  1  0  0  0  0
 26 32  1  1  0  0  0
 27 28  1  0  0  0  0
 27 29  1  1  0  0  0
 29 30  1  0  0  0  0
 31 32  1  1  0  0  0
 31 40  1  0  0  0  0
 33 31  1  0  0  0  0
 33 42  1  1  0  0  0
 35 33  1  0  0  0  0
 35 36  1  1  0  0  0
 37 35  1  0  0  0  0
 37 38  1  1  0  0  0
 37 39  1  0  0  0  0
 39 40  1  0  0  0  0
 39 41  1  1  0  0  0
 41 34  1  0  0  0  0
M  END
>  <CHROM.1>
-150.54711222,-61.77265045,-59.87682663,174.06924506,176.68209707,111.40539733
-47.54028256,-91.32256141,57.72141903,12.22168131,7.70035338,9.23013180,1.95249607
-0.30169197,2.16328267

>  <Name>
2et4_lig

>  <RI>
0

>  <Rbt.Current_Directory>
/home/itssahil/PROJECTS/Mol_Feturizer/New_Systems/rnas/2et4

>  <Rbt.Executable>
rbdock ($Id: //depot/dev/client3/rdock/2013.1/src/exe/rbdock.cxx#4 $)

>  <Rbt.Library>
libRbt.so (2013.1, Build901 2013/11/27)

>  <Rbt.Parameter_File>
/export/apps/rDock/src/rDock_2013.1_src/data/scripts/dock_solv.prm

>  <Rbt.Receptor>
prm/pocket_docking_5.prm

>  <SCORE>
-20.3494

>  <SCORE.INTER>
-20.2504

>  <SCORE.INTER.CONST>
1

>  <SCORE.INTER.POLAR>
-2.29176

>  <SCORE.INTER.ROT>
9

>  <SCORE.INTER.SOLV>
22.4338

>  <SCORE.INTER.VDW>
-22.939

>  <SCORE.INTER.norm>
-0.482153

>  <SCORE.INTRA>
-0.0989647

>  <SCORE.INTRA.DIHEDRAL>
-6.65847

>  <SCORE.INTRA.DIHEDRAL.0>
21.6909

>  <SCORE.INTRA.POLAR>
0

>  <SCORE.INTRA.POLAR.0>
0

>  <SCORE.INTRA.REPUL>
0

>  <SCORE.INTRA.REPUL.0>
0

>  <SCORE.INTRA.SOLV>
0.243791

>  <SCORE.INTRA.SOLV.lig_0>
-116.606

>  <SCORE.INTRA.VDW>
3.10837

>  <SCORE.INTRA.VDW.0>
-6.01229

>  <SCORE.INTRA.norm>
-0.0023563

>  <SCORE.RESTR>
0

>  <SCORE.RESTR.CAVITY>
0

>  <SCORE.RESTR.norm>
0

>  <SCORE.SYSTEM>
0

>  <SCORE.SYSTEM.CONST>
0

>  <SCORE.SYSTEM.DIHEDRAL>
0

>  <SCORE.SYSTEM.SOLV>
0

>  <SCORE.SYSTEM.norm>
0

>  <SCORE.heavy>
42

>  <SCORE.norm>
-0.484509

>  <RMSD>
9.346

$$$$
2et4_lig
 OpenBabel11021811423D
libRbt.so/2013.1/901 2013/11/27
 42 45  0  0  0  0  0  0  0  0999 V2000
   15.6037    5.9059   12.6574 C   0  0  2  0  0  0  0  0  0  0  0  0
   15.2442    6.8704   11.6661 O   0  0  0  0  0  0  0  0  0  0  0  0
   16.4475    4.8154   11.9492 C   0  0  2  0  0  0  0  0  0  0  0  0
   17.6066    5.3820   11.3080 N   0  0  0  0  0  0  0  0  0  0  0  0
   15.5536    4.0603   10.9235 C   0  0  1  0  0  0  0  0  0  0  0  0
   16.3102    3.0700   10.3000 O   0  0  0  0  0  0  0  0  0  0  0  0
   14.3212    3.4720   11.6883 C   0  0  2  0  0  0  0  0  0  0  0  0
   13.4764    2.7822   10.7917 O   0  0  0  0  0  0  0  0  0  0  0  0
   13.5121    4.6039   12.3913 C   0  0  2  0  0  0  0  0  0  0  0  0
   14.3909    5.3020   13.2785 O   0  0  0  0  0  0  0  0  0  0  0  0
   12.2952    4.0478   13.2008 C   0  0  0  0  0  0  0  0  0  0  0  0
   12.6899    3.4889   14.4469 N   0  0  0  0  0  0  0  0  0  0  0  0
   12.2297    9.3999   13.4463 C   0  0  2  0  0  0  0  0  0  0  0  0
   11.4417   10.5974   13.7635 N   0  0  0  0  0  0  0  0  0  0  0  0
   13.7798    9.6460   13.8573 C   0  0  0  0  0  0  0  0  0  0  0  0
   14.6273    8.3571   13.4998 C   0  0  2  0  0  0  0  0  0  0  0  0
   16.0501    8.5465   13.8336 N   0  0  0  0  0  0  0  0  0  0  0  0
   14.4844    8.0479   11.9712 C   0  0  2  0  0  0  0  0  0  0  0  0
   12.9827    7.8416   11.5836 C   0  0  2  0  0  0  0  0  0  0  0  0
   12.9586    7.5784   10.1591 O   0  0  0  0  0  0  0  0  0  0  0  0
   12.1624    9.1240   11.9353 C   0  0  1  0  0  0  0  0  0  0  0  0
   10.8349    8.9071   11.5942 O   0  0  0  0  0  0  0  0  0  0  0  0
   13.3116    8.4590    9.1915 C   0  0  1  0  0  0  0  0  0  0  0  0
   12.3651    8.3491    7.9678 C   0  0  2  0  0  0  0  0  0  0  0  0
   12.7346    7.3366    7.0771 O   0  0  0  0  0  0  0  0  0  0  0  0
   12.4071    9.7899    7.4931 C   0  0  1  0  0  0  0  0  0  0  0  0
   12.4563   10.6686    8.7510 C   0  0  2  0  0  0  0  0  0  0  0  0
   13.2728    9.8550    9.5931 O   0  0  0  0  0  0  0  0  0  0  0  0
   11.0701   10.9825    9.4100 C   0  0  0  0  0  0  0  0  0  0  0  0
   10.2702    9.7726    9.3368 O   0  0  0  0  0  0  0  0  0  0  0  0
   13.4655   10.3889    5.3385 C   0  0  2  0  0  0  0  0  0  0  0  0
   13.6272    9.9505    6.6597 O   0  0  0  0  0  0  0  0  0  0  0  0
   13.5891    9.1828    4.3090 C   0  0  1  0  0  0  0  0  0  0  0  0
   16.9600   12.6224    3.3715 N   0  0  0  0  0  0  0  0  0  0  0  0
   13.4096    9.8042    2.8264 C   0  0  1  0  0  0  0  0  0  0  0  0
   12.0571   10.4852    2.7615 O   0  0  0  0  0  0  0  0  0  0  0  0
   14.5922   10.8716    2.5288 C   0  0  2  0  0  0  0  0  0  0  0  0
   15.8714   10.1961    2.5870 O   0  0  0  0  0  0  0  0  0  0  0  0
   14.4560   12.0714    3.6251 C   0  0  1  0  0  0  0  0  0  0  0  0
   14.5157   11.4907    5.0111 O   0  0  0  0  0  0  0  0  0  0  0  0
   15.5689   13.1640    3.4551 C   0  0  0  0  0  0  0  0  0  0  0  0
   14.9001    8.4782    4.4980 N   0  0  0  0  0  0  0  0  0  0  0  0
  1  2  1  6  0  0  0
  1  3  1  0  0  0  0
  1 10  1  0  0  0  0
  3  4  1  6  0  0  0
  3  5  1  0  0  0  0
  5  6  1  1  0  0  0
  5  7  1  0  0  0  0
  7  8  1  6  0  0  0
  7  9  1  0  0  0  0
  9 10  1  0  0  0  0
  9 11  1  1  0  0  0
 11 12  1  0  0  0  0
 13 14  1  6  0  0  0
 13 15  1  0  0  0  0
 13 21  1  0  0  0  0
 16 15  1  0  0  0  0
 16 17  1  6  0  0  0
 18  2  1  1  0  0  0
 18 16  1  0  0  0  0
 19 18  1  0  0  0  0
 19 20  1  6  0  0  0
 21 19  1  0  0  0  0
 21 22  1  1  0  0  0
 23 20  1  1  0  0  0
 23 24  1  0  0  0  0
 23 28  1  0  0  0  0
 24 25  1  6  0  0  0
 24 26  1  0  0  0  0
 26 27  1  0  0  0  0
 26 32  1  6  0  0  0
 27 28  1  0  0  0  0
 27 29  1  1  0  0  0
 29 30  1  0  0  0  0
 31 32  1  1  0  0  0
 31 40  1  0  0  0  0
 33 31  1  0  0  0  0
 33 42  1  6  0  0  0
 35 33  1  0  0  0  0
 35 36  1  1  0  0  0
 37 35  1  0  0  0  0
 37 38  1  1  0  0  0
 37 39  1  0  0  0  0
 39 40  1  0  0  0  0
 39 41  1  1  0  0  0
 41 34  1  0  0  0  0
M  END
>  <CHROM.1>
-178.36627716,78.04780980,21.76872528,-65.57102591,-140.98081353,122.10524420
39.45410703,-102.23646176,-50.18722650,13.79459027,8.22321974,9.16337569
-1.59765069,0.98052198,-1.01263119

>  <Name>
2et4_lig

>  <RI>
0

>  <Rbt.Current_Directory>
/home/itssahil/PROJECTS/Mol_Feturizer/New_Systems/rnas/2et4

>  <Rbt.Executable>
rbdock ($Id: //depot/dev/client3/rdock/2013.1/src/exe/rbdock.cxx#4 $)

>  <Rbt.Library>
libRbt.so (2013.1, Build901 2013/11/27)

>  <Rbt.Parameter_File>
/export/apps/rDock/src/rDock_2013.1_src/data/scripts/dock_solv.prm

>  <Rbt.Receptor>
prm/blind_docking_40.prm

>  <SCORE>
29.007

>  <SCORE.INTER>
-0.707144

>  <SCORE.INTER.CONST>
1

>  <SCORE.INTER.POLAR>
-1.55637

>  <SCORE.INTER.ROT>
9

>  <SCORE.INTER.SOLV>
36.0945

>  <SCORE.INTER.VDW>
-16.915

>  <SCORE.INTER.norm>
-0.0168368

>  <SCORE.INTRA>
6.22861

>  <SCORE.INTRA.DIHEDRAL>
4.60258

>  <SCORE.INTRA.DIHEDRAL.0>
21.6909

>  <SCORE.INTRA.POLAR>
0

>  <SCORE.INTRA.POLAR.0>
0

>  <SCORE.INTRA.REPUL>
0

>  <SCORE.INTRA.REPUL.0>
0

>  <SCORE.INTRA.SOLV>
1.43424

>  <SCORE.INTRA.SOLV.lig_0>
-116.606

>  <SCORE.INTRA.VDW>
3.2102

>  <SCORE.INTRA.VDW.0>
-6.01229

>  <SCORE.INTRA.norm>
0.1483

>  <SCORE.RESTR>
23.4855

>  <SCORE.RESTR.CAVITY>
23.4855

>  <SCORE.RESTR.norm>
0.559179

>  <SCORE.SYSTEM>
0

>  <SCORE.SYSTEM.CONST>
0

>  <SCORE.SYSTEM.DIHEDRAL>
0

>  <SCORE.SYSTEM.SOLV>
0

>  <SCORE.SYSTEM.norm>
0

>  <SCORE.heavy>
42

>  <SCORE.norm>
0.690643

>  <RMSD>
9.350

$$$$
2et4_lig
 OpenBabel11021811423D
libRbt.so/2013.1/901 2013/11/27
 42 45  0  0  0  0  0  0  0  0999 V2000
   15.7300    5.9109   12.6461 C   0  0  2  0  0  0  0  0  0  0  0  0
   15.2776    6.8160   11.6369 O   0  0  0  0  0  0  0  0  0  0  0  0
   16.6333    4.8625   11.9479 C   0  0  2  0  0  0  0  0  0  0  0  0
   17.7324    5.4907   11.2603 N   0  0  0  0  0  0  0  0  0  0  0  0
   15.7721    4.0137   10.9686 C   0  0  1  0  0  0  0  0  0  0  0  0
   16.5833    3.0615   10.3545 O   0  0  0  0  0  0  0  0  0  0  0  0
   14.6045    3.3624   11.7824 C   0  0  2  0  0  0  0  0  0  0  0  0
   13.7906    2.5862   10.9288 O   0  0  0  0  0  0  0  0  0  0  0  0
   13.7326    4.4544   12.4732 C   0  0  2  0  0  0  0  0  0  0  0  0
   14.5796    5.2409   13.3162 O   0  0  0  0  0  0  0  0  0  0  0  0
   12.5792    3.8376   13.3303 C   0  0  0  0  0  0  0  0  0  0  0  0
   11.6459    4.8200   13.7605 N   0  0  0  0  0  0  0  0  0  0  0  0
   12.2077    9.3033   13.3816 C   0  0  2  0  0  0  0  0  0  0  0  0
   11.4020   10.4906   13.6926 N   0  0  0  0  0  0  0  0  0  0  0  0
   13.7481    9.5631   13.8195 C   0  0  0  0  0  0  0  0  0  0  0  0
   14.6149    8.2853   13.4687 C   0  0  2  0  0  0  0  0  0  0  0  0
   16.0299    8.4875   13.8270 N   0  0  0  0  0  0  0  0  0  0  0  0
   14.5005    7.9836   11.9362 C   0  0  2  0  0  0  0  0  0  0  0  0
   13.0076    7.7639   11.5227 C   0  0  2  0  0  0  0  0  0  0  0  0
   13.0098    7.5090   10.0965 O   0  0  0  0  0  0  0  0  0  0  0  0
   12.1682    9.0357   11.8681 C   0  0  1  0  0  0  0  0  0  0  0  0
   10.8488    8.8069   11.5039 O   0  0  0  0  0  0  0  0  0  0  0  0
   13.3560    8.4033    9.1391 C   0  0  1  0  0  0  0  0  0  0  0  0
   12.4343    8.2741    7.8984 C   0  0  2  0  0  0  0  0  0  0  0  0
   12.8464    7.2761    7.0100 O   0  0  0  0  0  0  0  0  0  0  0  0
   12.4461    9.7177    7.4308 C   0  0  1  0  0  0  0  0  0  0  0  0
   12.4497   10.5914    8.6931 C   0  0  2  0  0  0  0  0  0  0  0  0
   13.2727    9.7959    9.5460 O   0  0  0  0  0  0  0  0  0  0  0  0
   11.0441   10.8650    9.3289 C   0  0  0  0  0  0  0  0  0  0  0  0
   10.0804   10.9233    8.2441 O   0  0  0  0  0  0  0  0  0  0  0  0
   13.5269   10.3736    5.3040 C   0  0  2  0  0  0  0  0  0  0  0  0
   13.6759    9.9149    6.6198 O   0  0  0  0  0  0  0  0  0  0  0  0
   13.5815    9.1728    4.2625 C   0  0  1  0  0  0  0  0  0  0  0  0
   15.6074   13.9668    2.2527 N   0  0  0  0  0  0  0  0  0  0  0  0
   13.4228    9.8168    2.7871 C   0  0  1  0  0  0  0  0  0  0  0  0
   12.1060   10.5660    2.7392 O   0  0  0  0  0  0  0  0  0  0  0  0
   14.6557   10.8258    2.4901 C   0  0  2  0  0  0  0  0  0  0  0  0
   15.8995   10.0859    2.5320 O   0  0  0  0  0  0  0  0  0  0  0  0
   14.5886   12.0203    3.5985 C   0  0  1  0  0  0  0  0  0  0  0  0
   14.6291   11.4239    4.9786 O   0  0  0  0  0  0  0  0  0  0  0  0
   15.7542   13.0568    3.4299 C   0  0  0  0  0  0  0  0  0  0  0  0
   14.8565    8.4010    4.4345 N   0  0  0  0  0  0  0  0  0  0  0  0
  1  2  1  6  0  0  0
  1  3  1  0  0  0  0
  1 10  1  0  0  0  0
  3  4  1  6  0  0  0
  3  5  1  0  0  0  0
  5  6  1  1  0  0  0
  5  7  1  0  0  0  0
  7  8  1  6  0  0  0
  7  9  1  0  0  0  0
  9 10  1  0  0  0  0
  9 11  1  1  0  0  0
 11 12  1  0  0  0  0
 13 14  1  6  0  0  0
 13 15  1  0  0  0  0
 13 21  1  0  0  0  0
 16 15  1  0  0  0  0
 16 17  1  6  0  0  0
 18  2  1  1  0  0  0
 18 16  1  0  0  0  0
 19 18  1  0  0  0  0
 19 20  1  6  0  0  0
 21 19  1  0  0  0  0
 21 22  1  1  0  0  0
 23 20  1  1  0  0  0
 23 24  1  0  0  0  0
 23 28  1  0  0  0  0
 24 25  1  6  0  0  0
 24 26  1  0  0  0  0
 26 27  1  0  0  0  0
 26 32  1  1  0  0  0
 27 28  1  0  0  0  0
 27 29  1  1  0  0  0
 29 30  1  0  0  0  0
 31 32  1  1  0  0  0
 31 40  1  0  0  0  0
 33 31  1  0  0  0  0
 33 42  1  6  0  0  0
 35 33  1  0  0  0  0
 35 36  1  1  0  0  0
 37 35  1  0  0  0  0
 37 38  1  1  0  0  0
 37 39  1  0  0  0  0
 39 40  1  0  0  0  0
 39 41  1  6  0  0  0
 41 34  1  0  0  0  0
M  END
>  <CHROM.1>
-174.99975314,-169.39497985,16.14487484,-66.30309970,-141.27935050,123.00834243
-33.03068386,-98.05369191,73.25133033,13.80810074,8.25902584,9.07051274,-1.55688571
0.93759392,-1.03519046

>  <Name>
2et4_lig

>  <RI>
0

>  <Rbt.Current_Directory>
/home/itssahil/PROJECTS/Mol_Feturizer/New_Systems/rnas/2et4

>  <Rbt.Executable>
rbdock ($Id: //depot/dev/client3/rdock/2013.1/src/exe/rbdock.cxx#4 $)

>  <Rbt.Library>
libRbt.so (2013.1, Build901 2013/11/27)

>  <Rbt.Parameter_File>
/export/apps/rDock/src/rDock_2013.1_src/data/scripts/dock_solv.prm

>  <Rbt.Receptor>
prm/blind_docking_40.prm

>  <SCORE>
25.6778

>  <SCORE.INTER>
-3.83075

>  <SCORE.INTER.CONST>
1

>  <SCORE.INTER.POLAR>
-1.55238

>  <SCORE.INTER.ROT>
9

>  <SCORE.INTER.SOLV>
31.1302

>  <SCORE.INTER.VDW>
-17.356

>  <SCORE.INTER.norm>
-0.0912084

>  <SCORE.INTRA>
5.04285

>  <SCORE.INTRA.DIHEDRAL>
5.19098

>  <SCORE.INTRA.DIHEDRAL.0>
21.6909

>  <SCORE.INTRA.POLAR>
0

>  <SCORE.INTRA.POLAR.0>
0

>  <SCORE.INTRA.REPUL>
0

>  <SCORE.INTRA.REPUL.0>
0

>  <SCORE.INTRA.SOLV>
-1.46995

>  <SCORE.INTRA.SOLV.lig_0>
-116.606

>  <SCORE.INTRA.VDW>
3.18233

>  <SCORE.INTRA.VDW.0>
-6.01229

>  <SCORE.INTRA.norm>
0.120068

>  <SCORE.RESTR>
24.4657

>  <SCORE.RESTR.CAVITY>
24.4657

>  <SCORE.RESTR.norm>
0.582516

>  <SCORE.SYSTEM>
0

>  <SCORE.SYSTEM.CONST>
0

>  <SCORE.SYSTEM.DIHEDRAL>
0

>  <SCORE.SYSTEM.SOLV>
0

>  <SCORE.SYSTEM.norm>
0

>  <SCORE.heavy>
42

>  <SCORE.norm>
0.611376

>  <RMSD>
9.366

$$$$
2et4_lig
 OpenBabel11021811423D
libRbt.so/2013.1/901 2013/11/27
 42 45  0  0  0  0  0  0  0  0999 V2000
    7.8236    8.5369   13.0727 C   0  0  2  0  0  0  0  0  0  0  0  0
    8.3728    7.4551   12.3174 O   0  0  0  0  0  0  0  0  0  0  0  0
    7.7425    9.7609   12.1252 C   0  0  2  0  0  0  0  0  0  0  0  0
    6.9530    9.4688   10.9560 N   0  0  0  0  0  0  0  0  0  0  0  0
    9.1821   10.2023   11.7324 C   0  0  1  0  0  0  0  0  0  0  0  0
    9.1068   11.3126   10.8938 O   0  0  0  0  0  0  0  0  0  0  0  0
    9.9769   10.5042   13.0466 C   0  0  2  0  0  0  0  0  0  0  0  0
   11.2955   10.9027   12.7367 O   0  0  0  0  0  0  0  0  0  0  0  0
   10.0214    9.2486   13.9694 C   0  0  2  0  0  0  0  0  0  0  0  0
    8.6771    8.8502   14.2537 O   0  0  0  0  0  0  0  0  0  0  0  0
   10.7732    9.5261   15.3122 C   0  0  0  0  0  0  0  0  0  0  0  0
   10.8295    8.3743   16.1436 N   0  0  0  0  0  0  0  0  0  0  0  0
    6.9913    4.2316    9.7964 C   0  0  2  0  0  0  0  0  0  0  0  0
    6.2404    3.5122    8.7600 N   0  0  0  0  0  0  0  0  0  0  0  0
    5.9579    4.8569   10.8796 C   0  0  0  0  0  0  0  0  0  0  0  0
    6.7721    5.6436   11.9866 C   0  0  2  0  0  0  0  0  0  0  0  0
    5.8690    6.2514   12.9798 N   0  0  0  0  0  0  0  0  0  0  0  0
    7.6302    6.7622   11.3048 C   0  0  2  0  0  0  0  0  0  0  0  0
    8.6012    6.1485   10.2426 C   0  0  2  0  0  0  0  0  0  0  0  0
    9.3320    7.2580    9.6646 O   0  0  0  0  0  0  0  0  0  0  0  0
    7.7823    5.3830    9.1541 C   0  0  1  0  0  0  0  0  0  0  0  0
    8.6686    4.8387    8.2354 O   0  0  0  0  0  0  0  0  0  0  0  0
   10.4265    7.1504    8.8729 C   0  0  1  0  0  0  0  0  0  0  0  0
   10.9808    8.5495    8.4978 C   0  0  2  0  0  0  0  0  0  0  0  0
   10.3330    9.1198    7.3977 O   0  0  0  0  0  0  0  0  0  0  0  0
   12.4546    8.2077    8.3804 C   0  0  1  0  0  0  0  0  0  0  0  0
   12.7589    7.1791    9.4787 C   0  0  2  0  0  0  0  0  0  0  0  0
   11.5418    6.4333    9.4676 O   0  0  0  0  0  0  0  0  0  0  0  0
   13.0649    7.7745   10.8953 C   0  0  0  0  0  0  0  0  0  0  0  0
   14.3058    8.5222   10.7936 O   0  0  0  0  0  0  0  0  0  0  0  0
   13.9221    7.0657    6.7482 C   0  0  2  0  0  0  0  0  0  0  0  0
   12.6765    7.6465    7.0222 O   0  0  0  0  0  0  0  0  0  0  0  0
   15.1003    8.1232    6.9014 C   0  0  1  0  0  0  0  0  0  0  0  0
   13.8661    4.3072    3.2403 N   0  0  0  0  0  0  0  0  0  0  0  0
   16.4776    7.3543    6.5427 C   0  0  1  0  0  0  0  0  0  0  0  0
   16.6238    6.1821    7.4925 O   0  0  0  0  0  0  0  0  0  0  0  0
   16.4354    6.8339    5.0085 C   0  0  2  0  0  0  0  0  0  0  0  0
   16.3050    7.9709    4.1217 O   0  0  0  0  0  0  0  0  0  0  0  0
   15.1946    5.7830    4.8820 C   0  0  1  0  0  0  0  0  0  0  0  0
   13.9222    6.4580    5.3149 O   0  0  0  0  0  0  0  0  0  0  0  0
   15.0335    5.2228    3.4254 C   0  0  0  0  0  0  0  0  0  0  0  0
   14.8422    9.3109    6.0219 N   0  0  0  0  0  0  0  0  0  0  0  0
  1  2  1  6  0  0  0
  1  3  1  0  0  0  0
  1 10  1  0  0  0  0
  3  4  1  6  0  0  0
  3  5  1  0  0  0  0
  5  6  1  6  0  0  0
  5  7  1  0  0  0  0
  7  8  1  6  0  0  0
  7  9  1  0  0  0  0
  9 10  1  0  0  0  0
  9 11  1  1  0  0  0
 11 12  1  0  0  0  0
 13 14  1  6  0  0  0
 13 15  1  0  0  0  0
 13 21  1  0  0  0  0
 16 15  1  0  0  0  0
 16 17  1  1  0  0  0
 18  2  1  1  0  0  0
 18 16  1  0  0  0  0
 19 18  1  0  0  0  0
 19 20  1  6  0  0  0
 21 19  1  0  0  0  0
 21 22  1  6  0  0  0
 23 20  1  1  0  0  0
 23 24  1  0  0  0  0
 23 28  1  0  0  0  0
 24 25  1  6  0  0  0
 24 26  1  0  0  0  0
 26 27  1  0  0  0  0
 26 32  1  6  0  0  0
 27 28  1  0  0  0  0
 27 29  1  1  0  0  0
 29 30  1  0  0  0  0
 31 32  1  6  0  0  0
 31 40  1  0  0  0  0
 33 31  1  0  0  0  0
 33 42  1  6  0  0  0
 35 33  1  0  0  0  0
 35 36  1  1  0  0  0
 37 35  1  0  0  0  0
 37 38  1  6  0  0  0
 37 39  1  0  0  0  0
 39 40  1  0  0  0  0
 39 41  1  6  0  0  0
 41 34  1  0  0  0  0
M  END
>  <CHROM.1>
-72.91520314,-179.14418945,-84.71319837,168.14205864,-177.23267344,-170.37486384
-65.67894231,-61.02940607,-177.05325862,11.00516461,7.49961470,9.51049054
-2.44317568,-0.44033377,-2.20705142

>  <Name>
2et4_lig

>  <RI>
0

>  <Rbt.Current_Directory>
/home/itssahil/PROJECTS/Mol_Feturizer/New_Systems/rnas/2et4

>  <Rbt.Executable>
rbdock ($Id: //depot/dev/client3/rdock/2013.1/src/exe/rbdock.cxx#4 $)

>  <Rbt.Library>
libRbt.so (2013.1, Build901 2013/11/27)

>  <Rbt.Parameter_File>
/export/apps/rDock/src/rDock_2013.1_src/data/scripts/dock_solv.prm

>  <Rbt.Receptor>
prm/pocket_docking_5.prm

>  <SCORE>
-13.4267

>  <SCORE.INTER>
-5.78619

>  <SCORE.INTER.CONST>
1

>  <SCORE.INTER.POLAR>
-1.50282

>  <SCORE.INTER.ROT>
9

>  <SCORE.INTER.SOLV>
15.9352

>  <SCORE.INTER.VDW>
-13.7598

>  <SCORE.INTER.norm>
-0.137767

>  <SCORE.INTRA>
-7.64047

>  <SCORE.INTRA.DIHEDRAL>
-16.7991

>  <SCORE.INTRA.DIHEDRAL.0>
21.6909

>  <SCORE.INTRA.POLAR>
0

>  <SCORE.INTRA.POLAR.0>
0

>  <SCORE.INTRA.REPUL>
0

>  <SCORE.INTRA.REPUL.0>
0

>  <SCORE.INTRA.SOLV>
-1.62225

>  <SCORE.INTRA.SOLV.lig_0>
-116.606

>  <SCORE.INTRA.VDW>
1.57021

>  <SCORE.INTRA.VDW.0>
-6.01229

>  <SCORE.INTRA.norm>
-0.181916

>  <SCORE.RESTR>
0

>  <SCORE.RESTR.CAVITY>
0

>  <SCORE.RESTR.norm>
0

>  <SCORE.SYSTEM>
0

>  <SCORE.SYSTEM.CONST>
0

>  <SCORE.SYSTEM.DIHEDRAL>
0

>  <SCORE.SYSTEM.SOLV>
0

>  <SCORE.SYSTEM.norm>
0

>  <SCORE.heavy>
42

>  <SCORE.norm>
-0.319683

>  <RMSD>
9.366

$$$$
2et4_lig
 OpenBabel11021811423D
libRbt.so/2013.1/901 2013/11/27
 42 45  0  0  0  0  0  0  0  0999 V2000
    8.4414    5.4915    9.4667 C   0  0  2  0  0  0  0  0  0  0  0  0
    7.7703    6.2458   10.4781 O   0  0  0  0  0  0  0  0  0  0  0  0
    7.7137    5.7737    8.1275 C   0  0  2  0  0  0  0  0  0  0  0  0
    7.6993    7.1821    7.8243 N   0  0  0  0  0  0  0  0  0  0  0  0
    6.2684    5.2016    8.1982 C   0  0  1  0  0  0  0  0  0  0  0  0
    5.6220    5.4423    6.9874 O   0  0  0  0  0  0  0  0  0  0  0  0
    6.3624    3.6742    8.5271 C   0  0  2  0  0  0  0  0  0  0  0  0
    5.0690    3.1137    8.6081 O   0  0  0  0  0  0  0  0  0  0  0  0
    7.1102    3.4415    9.8749 C   0  0  2  0  0  0  0  0  0  0  0  0
    8.4087    4.0343    9.7782 O   0  0  0  0  0  0  0  0  0  0  0  0
    7.2595    1.9226   10.2156 C   0  0  0  0  0  0  0  0  0  0  0  0
    7.9676    1.7121   11.4302 N   0  0  0  0  0  0  0  0  0  0  0  0
    8.8322    7.6447   14.4239 C   0  0  2  0  0  0  0  0  0  0  0  0
    9.2376    7.6241   15.8349 N   0  0  0  0  0  0  0  0  0  0  0  0
    7.4422    6.8270   14.2470 C   0  0  0  0  0  0  0  0  0  0  0  0
    7.0176    6.8402   12.7216 C   0  0  2  0  0  0  0  0  0  0  0  0
    5.7700    6.0849   12.5101 N   0  0  0  0  0  0  0  0  0  0  0  0
    8.1628    6.2127   11.8571 C   0  0  2  0  0  0  0  0  0  0  0  0
    9.5036    6.9931   12.0597 C   0  0  2  0  0  0  0  0  0  0  0  0
   10.4935    6.3297   11.2355 O   0  0  0  0  0  0  0  0  0  0  0  0
    9.9125    6.9640   13.5675 C   0  0  1  0  0  0  0  0  0  0  0  0
   11.0950    7.6742   13.7187 O   0  0  0  0  0  0  0  0  0  0  0  0
   11.0965    6.8663   10.1471 C   0  0  1  0  0  0  0  0  0  0  0  0
   11.7264    8.2433   10.4828 C   0  0  2  0  0  0  0  0  0  0  0  0
   10.8126    9.2987   10.4043 O   0  0  0  0  0  0  0  0  0  0  0  0
   12.8988    8.2198    9.5197 C   0  0  1  0  0  0  0  0  0  0  0  0
   13.4109    6.7731    9.4816 C   0  0  2  0  0  0  0  0  0  0  0  0
   12.1752    6.0670    9.5909 O   0  0  0  0  0  0  0  0  0  0  0  0
   14.4098    6.3802   10.6229 C   0  0  0  0  0  0  0  0  0  0  0  0
   15.4796    7.3624   10.6214 O   0  0  0  0  0  0  0  0  0  0  0  0
   13.3401    8.9729    7.2046 C   0  0  2  0  0  0  0  0  0  0  0  0
   12.3962    8.6624    8.1929 O   0  0  0  0  0  0  0  0  0  0  0  0
   12.6392    9.2752    5.8092 C   0  0  1  0  0  0  0  0  0  0  0  0
   15.6930    5.4560    5.7281 N   0  0  0  0  0  0  0  0  0  0  0  0
   13.8160    9.5965    4.7469 C   0  0  1  0  0  0  0  0  0  0  0  0
   14.6087   10.7797    5.2656 O   0  0  0  0  0  0  0  0  0  0  0  0
   14.7783    8.3031    4.5817 C   0  0  2  0  0  0  0  0  0  0  0  0
   14.0012    7.1907    4.0768 O   0  0  0  0  0  0  0  0  0  0  0  0
   15.4481    8.0020    6.0379 C   0  0  1  0  0  0  0  0  0  0  0  0
   14.3599    7.8057    7.0573 O   0  0  0  0  0  0  0  0  0  0  0  0
   16.3900    6.7476    6.0135 C   0  0  0  0  0  0  0  0  0  0  0  0
   11.7800    8.1141    5.4035 N   0  0  0  0  0  0  0  0  0  0  0  0
  1  2  1  1  0  0  0
  1  3  1  0  0  0  0
  1 10  1  0  0  0  0
  3  4  1  1  0  0  0
  3  5  1  0  0  0  0
  5  6  1  6  0  0  0
  5  7  1  0  0  0  0
  7  8  1  1  0  0  0
  7  9  1  0  0  0  0
  9 10  1  0  0  0  0
  9 11  1  6  0  0  0
 11 12  1  0  0  0  0
 13 14  1  1  0  0  0
 13 15  1  0  0  0  0
 13 21  1  0  0  0  0
 16 15  1  0  0  0  0
 16 17  1  1  0  0  0
 18  2  1  6  0  0  0
 18 16  1  0  0  0  0
 19 18  1  0  0  0  0
 19 20  1  6  0  0  0
 21 19  1  0  0  0  0
 21 22  1  6  0  0  0
 23 20  1  1  0  0  0
 23 24  1  0  0  0  0
 23 28  1  0  0  0  0
 24 25  1  6  0  0  0
 24 26  1  0  0  0  0
 26 27  1  0  0  0  0
 26 32  1  6  0  0  0
 27 28  1  0  0  0  0
 27 29  1  1  0  0  0
 29 30  1  0  0  0  0
 31 32  1  1  0  0  0
 31 40  1  0  0  0  0
 33 31  1  0  0  0  0
 33 42  1  6  0  0  0
 35 33  1  0  0  0  0
 35 36  1  1  0  0  0
 37 35  1  0  0  0  0
 37 38  1  1  0  0  0
 37 39  1  0  0  0  0
 39 40  1  0  0  0  0
 39 41  1  6  0  0  0
 41 34  1  0  0  0  0
M  END
>  <CHROM.1>
179.07474012,178.69916810,-165.59352827,113.41900256,52.79604127,167.78380091
-52.80139327,173.90196890,-64.70512657,10.60163908,6.68087536,9.33250282
2.63321540,0.48928854,1.39401472

>  <Name>
2et4_lig

>  <RI>
0

>  <Rbt.Current_Directory>
/home/itssahil/PROJECTS/Mol_Feturizer/New_Systems/rnas/2et4

>  <Rbt.Executable>
rbdock ($Id: //depot/dev/client3/rdock/2013.1/src/exe/rbdock.cxx#4 $)

>  <Rbt.Library>
libRbt.so (2013.1, Build901 2013/11/27)

>  <Rbt.Parameter_File>
/export/apps/rDock/src/rDock_2013.1_src/data/scripts/dock_solv.prm

>  <Rbt.Receptor>
prm/pocket_docking_5.prm

>  <SCORE>
-16.202

>  <SCORE.INTER>
-10.026

>  <SCORE.INTER.CONST>
1

>  <SCORE.INTER.POLAR>
-1.72662

>  <SCORE.INTER.ROT>
9

>  <SCORE.INTER.SOLV>
12.632

>  <SCORE.INTER.VDW>
-14.7392

>  <SCORE.INTER.norm>
-0.238714

>  <SCORE.INTRA>
-6.17603

>  <SCORE.INTRA.DIHEDRAL>
-12.156

>  <SCORE.INTRA.DIHEDRAL.0>
21.6909

>  <SCORE.INTRA.POLAR>
0

>  <SCORE.INTRA.POLAR.0>
0

>  <SCORE.INTRA.REPUL>
0

>  <SCORE.INTRA.REPUL.0>
0

>  <SCORE.INTRA.SOLV>
-2.68054

>  <SCORE.INTRA.SOLV.lig_0>
-116.606

>  <SCORE.INTRA.VDW>
1.24224

>  <SCORE.INTRA.VDW.0>
-6.01229

>  <SCORE.INTRA.norm>
-0.147048

>  <SCORE.RESTR>
0

>  <SCORE.RESTR.CAVITY>
0

>  <SCORE.RESTR.norm>
0

>  <SCORE.SYSTEM>
0

>  <SCORE.SYSTEM.CONST>
0

>  <SCORE.SYSTEM.DIHEDRAL>
0

>  <SCORE.SYSTEM.SOLV>
0

>  <SCORE.SYSTEM.norm>
0

>  <SCORE.heavy>
42

>  <SCORE.norm>
-0.385763

>  <RMSD>
9.375

$$$$
2et4_lig
 OpenBabel11021811423D
libRbt.so/2013.1/901 2013/11/27
 42 45  0  0  0  0  0  0  0  0999 V2000
   12.1394    7.2885   11.1255 C   0  0  2  0  0  0  0  0  0  0  0  0
   12.2233    6.6374    9.8562 O   0  0  0  0  0  0  0  0  0  0  0  0
   13.5829    7.6754   11.5369 C   0  0  2  0  0  0  0  0  0  0  0  0
   14.2049    8.5146   10.5446 N   0  0  0  0  0  0  0  0  0  0  0  0
   14.4130    6.3811   11.7754 C   0  0  1  0  0  0  0  0  0  0  0  0
   15.7054    6.7317   12.1608 O   0  0  0  0  0  0  0  0  0  0  0  0
   13.6818    5.5241   12.8620 C   0  0  2  0  0  0  0  0  0  0  0  0
   14.3991    4.3326   13.1053 O   0  0  0  0  0  0  0  0  0  0  0  0
   12.2333    5.1700   12.4076 C   0  0  2  0  0  0  0  0  0  0  0  0
   11.5318    6.3893   12.1471 O   0  0  0  0  0  0  0  0  0  0  0  0
   11.4573    4.3480   13.4881 C   0  0  0  0  0  0  0  0  0  0  0  0
   10.1373    4.0244   13.0707 N   0  0  0  0  0  0  0  0  0  0  0  0
   12.0752    7.9117    5.7320 C   0  0  2  0  0  0  0  0  0  0  0  0
   12.4177    8.6155    4.4898 N   0  0  0  0  0  0  0  0  0  0  0  0
   11.7065    8.9930    6.8840 C   0  0  0  0  0  0  0  0  0  0  0  0
   11.3522    8.2291    8.2250 C   0  0  2  0  0  0  0  0  0  0  0  0
   11.0349    9.1760    9.3087 N   0  0  0  0  0  0  0  0  0  0  0  0
   12.5648    7.3338    8.6498 C   0  0  2  0  0  0  0  0  0  0  0  0
   12.9277    6.3159    7.5184 C   0  0  2  0  0  0  0  0  0  0  0  0
   14.0609    5.5527    8.0006 O   0  0  0  0  0  0  0  0  0  0  0  0
   13.2820    7.0852    6.2054 C   0  0  1  0  0  0  0  0  0  0  0  0
   13.5853    6.1584    5.2181 O   0  0  0  0  0  0  0  0  0  0  0  0
   15.3092    5.5824    7.4743 C   0  0  1  0  0  0  0  0  0  0  0  0
   16.0166    6.9244    7.7968 C   0  0  2  0  0  0  0  0  0  0  0  0
   15.6937    7.9451    6.8974 O   0  0  0  0  0  0  0  0  0  0  0  0
   17.4522    6.4370    7.8629 C   0  0  1  0  0  0  0  0  0  0  0  0
   17.4175    5.0459    8.5113 C   0  0  2  0  0  0  0  0  0  0  0  0
   16.2010    4.5426    7.9594 O   0  0  0  0  0  0  0  0  0  0  0  0
   17.3969    5.0314   10.0778 C   0  0  0  0  0  0  0  0  0  0  0  0
   17.3516    3.6423   10.4990 O   0  0  0  0  0  0  0  0  0  0  0  0
   19.3207    6.0556    6.2866 C   0  0  2  0  0  0  0  0  0  0  0  0
   17.9709    6.3843    6.4711 O   0  0  0  0  0  0  0  0  0  0  0  0
   19.6773    5.9187    4.7426 C   0  0  1  0  0  0  0  0  0  0  0  0
   20.2028    1.8975    7.4841 N   0  0  0  0  0  0  0  0  0  0  0  0
   21.2420    5.5187    4.6507 C   0  0  1  0  0  0  0  0  0  0  0  0
   22.0469    6.6041    5.3374 O   0  0  0  0  0  0  0  0  0  0  0  0
   21.4897    4.0905    5.3754 C   0  0  2  0  0  0  0  0  0  0  0  0
   20.7188    3.0701    4.6966 O   0  0  0  0  0  0  0  0  0  0  0  0
   21.0784    4.2598    6.9445 C   0  0  1  0  0  0  0  0  0  0  0  0
   19.6543    4.7342    7.0392 O   0  0  0  0  0  0  0  0  0  0  0  0
   21.2526    2.9273    7.7540 C   0  0  0  0  0  0  0  0  0  0  0  0
   18.7729    4.9129    4.0935 N   0  0  0  0  0  0  0  0  0  0  0  0
  1  2  1  6  0  0  0
  1  3  1  0  0  0  0
  1 10  1  0  0  0  0
  3  4  1  6  0  0  0
  3  5  1  0  0  0  0
  5  6  1  1  0  0  0
  5  7  1  0  0  0  0
  7  8  1  6  0  0  0
  7  9  1  0  0  0  0
  9 10  1  0  0  0  0
  9 11  1  1  0  0  0
 11 12  1  0  0  0  0
 13 14  1  6  0  0  0
 13 15  1  0  0  0  0
 13 21  1  0  0  0  0
 16 15  1  0  0  0  0
 16 17  1  1  0  0  0
 18  2  1  1  0  0  0
 18 16  1  0  0  0  0
 19 18  1  0  0  0  0
 19 20  1  1  0  0  0
 21 19  1  0  0  0  0
 21 22  1  6  0  0  0
 23 20  1  1  0  0  0
 23 24  1  0  0  0  0
 23 28  1  0  0  0  0
 24 25  1  6  0  0  0
 24 26  1  0  0  0  0
 26 27  1  0  0  0  0
 26 32  1  6  0  0  0
 27 28  1  0  0  0  0
 27 29  1  1  0  0  0
 29 30  1  0  0  0  0
 31 32  1  6  0  0  0
 31 40  1  0  0  0  0
 33 31  1  0  0  0  0
 33 42  1  1  0  0  0
 35 33  1  0  0  0  0
 35 36  1  1  0  0  0
 37 35  1  0  0  0  0
 37 38  1  6  0  0  0
 37 39  1  0  0  0  0
 39 40  1  0  0  0  0
 39 41  1  1  0  0  0
 41 34  1  0  0  0  0
M  END
>  <CHROM.1>
-69.71767717,-179.91004051,-72.58736961,-113.84915722,71.79712346,175.27048139
179.43611610,174.99638266,-74.46697506,15.66840674,5.92529621,8.39474021
-2.74480436,0.42575534,-1.16238026

>  <Name>
2et4_lig

>  <RI>
0

>  <Rbt.Current_Directory>
/home/itssahil/PROJECTS/Mol_Feturizer/New_Systems/rnas/2et4

>  <Rbt.Executable>
rbdock ($Id: //depot/dev/client3/rdock/2013.1/src/exe/rbdock.cxx#4 $)

>  <Rbt.Library>
libRbt.so (2013.1, Build901 2013/11/27)

>  <Rbt.Parameter_File>
/export/apps/rDock/src/rDock_2013.1_src/data/scripts/dock_solv.prm

>  <Rbt.Receptor>
prm/pocket_docking_5.prm

>  <SCORE>
-11.693

>  <SCORE.INTER>
-10.221

>  <SCORE.INTER.CONST>
1

>  <SCORE.INTER.POLAR>
-1.32838

>  <SCORE.INTER.ROT>
9

>  <SCORE.INTER.SOLV>
14.3825

>  <SCORE.INTER.VDW>
-16.7803

>  <SCORE.INTER.norm>
-0.243358

>  <SCORE.INTRA>
-1.47198

>  <SCORE.INTRA.DIHEDRAL>
-11.665

>  <SCORE.INTRA.DIHEDRAL.0>
21.6909

>  <SCORE.INTRA.POLAR>
0

>  <SCORE.INTRA.POLAR.0>
0

>  <SCORE.INTRA.REPUL>
0

>  <SCORE.INTRA.REPUL.0>
0

>  <SCORE.INTRA.SOLV>
2.90817

>  <SCORE.INTRA.SOLV.lig_0>
-116.606

>  <SCORE.INTRA.VDW>
2.90644

>  <SCORE.INTRA.VDW.0>
-6.01229

>  <SCORE.INTRA.norm>
-0.0350471

>  <SCORE.RESTR>
0

>  <SCORE.RESTR.CAVITY>
0

>  <SCORE.RESTR.norm>
0

>  <SCORE.SYSTEM>
0

>  <SCORE.SYSTEM.CONST>
0

>  <SCORE.SYSTEM.DIHEDRAL>
0

>  <SCORE.SYSTEM.SOLV>
0

>  <SCORE.SYSTEM.norm>
0

>  <SCORE.heavy>
42

>  <SCORE.norm>
-0.278405

>  <RMSD>
9.415

$$$$
2et4_lig
 OpenBabel11021811423D
libRbt.so/2013.1/901 2013/11/27
 42 45  0  0  0  0  0  0  0  0999 V2000
   13.3895    7.5112    9.2269 C   0  0  2  0  0  0  0  0  0  0  0  0
   12.4786    6.4148    9.1245 O   0  0  0  0  0  0  0  0  0  0  0  0
   14.8185    6.9356    9.0562 C   0  0  2  0  0  0  0  0  0  0  0  0
   14.9578    6.2389    7.8028 N   0  0  0  0  0  0  0  0  0  0  0  0
   15.1414    5.9990   10.2560 C   0  0  1  0  0  0  0  0  0  0  0  0
   16.4324    5.4957   10.1083 O   0  0  0  0  0  0  0  0  0  0  0  0
   14.9725    6.8207   11.5774 C   0  0  2  0  0  0  0  0  0  0  0  0
   15.2497    6.0051   12.6961 O   0  0  0  0  0  0  0  0  0  0  0  0
   13.5251    7.3865   11.6982 C   0  0  2  0  0  0  0  0  0  0  0  0
   13.2583    8.1920   10.5463 O   0  0  0  0  0  0  0  0  0  0  0  0
   13.3313    8.2491   12.9881 C   0  0  0  0  0  0  0  0  0  0  0  0
   14.1498    9.4115   12.9844 N   0  0  0  0  0  0  0  0  0  0  0  0
    8.3362    5.8710    8.0293 C   0  0  2  0  0  0  0  0  0  0  0  0
    6.8783    6.0434    8.0076 N   0  0  0  0  0  0  0  0  0  0  0  0
    8.8058    5.4099    9.5123 C   0  0  0  0  0  0  0  0  0  0  0  0
   10.3799    5.2396    9.5337 C   0  0  2  0  0  0  0  0  0  0  0  0
   10.8542    4.8452   10.8721 N   0  0  0  0  0  0  0  0  0  0  0  0
   11.0551    6.5892    9.1152 C   0  0  2  0  0  0  0  0  0  0  0  0
   10.5713    7.0364    7.6961 C   0  0  2  0  0  0  0  0  0  0  0  0
   11.2370    8.2914    7.4119 O   0  0  0  0  0  0  0  0  0  0  0  0
    9.0182    7.2074    7.6940 C   0  0  1  0  0  0  0  0  0  0  0  0
    8.6173    7.5900    6.4217 O   0  0  0  0  0  0  0  0  0  0  0  0
   11.4665    8.7965    6.1755 C   0  0  1  0  0  0  0  0  0  0  0  0
   12.9248    8.5217    5.7247 C   0  0  2  0  0  0  0  0  0  0  0  0
   13.8345    9.4711    6.2000 O   0  0  0  0  0  0  0  0  0  0  0  0
   12.7031    8.4087    4.2277 C   0  0  1  0  0  0  0  0  0  0  0  0
   11.3555    7.6998    4.0325 C   0  0  2  0  0  0  0  0  0  0  0  0
   10.6222    8.2500    5.1266 O   0  0  0  0  0  0  0  0  0  0  0  0
   11.4013    6.1348    4.0896 C   0  0  0  0  0  0  0  0  0  0  0  0
   12.2564    5.6851    3.0053 O   0  0  0  0  0  0  0  0  0  0  0  0
   13.8285   10.2346    2.9943 C   0  0  2  0  0  0  0  0  0  0  0  0
   12.6868    9.7874    3.6730 O   0  0  0  0  0  0  0  0  0  0  0  0
   15.0000   10.5959    4.0076 C   0  0  1  0  0  0  0  0  0  0  0  0
   14.9732   13.6704   -0.6622 N   0  0  0  0  0  0  0  0  0  0  0  0
   16.2493   11.1173    3.1221 C   0  0  1  0  0  0  0  0  0  0  0  0
   16.6367   10.0135    2.1582 O   0  0  0  0  0  0  0  0  0  0  0  0
   15.8286   12.4538    2.3079 C   0  0  2  0  0  0  0  0  0  0  0  0
   15.4726   13.4946    3.2492 O   0  0  0  0  0  0  0  0  0  0  0  0
   14.6031   12.0532    1.3091 C   0  0  1  0  0  0  0  0  0  0  0  0
   13.4746   11.4681    2.1128 O   0  0  0  0  0  0  0  0  0  0  0  0
   14.0871   13.2787    0.4766 C   0  0  0  0  0  0  0  0  0  0  0  0
   14.5218   11.6088    5.0058 N   0  0  0  0  0  0  0  0  0  0  0  0
  1  2  1  1  0  0  0
  1  3  1  0  0  0  0
  1 10  1  0  0  0  0
  3  4  1  6  0  0  0
  3  5  1  0  0  0  0
  5  6  1  6  0  0  0
  5  7  1  0  0  0  0
  7  8  1  1  0  0  0
  7  9  1  0  0  0  0
  9 10  1  0  0  0  0
  9 11  1  1  0  0  0
 11 12  1  0  0  0  0
 13 14  1  1  0  0  0
 13 15  1  0  0  0  0
 13 21  1  0  0  0  0
 16 15  1  0  0  0  0
 16 17  1  1  0  0  0
 18  2  1  6  0  0  0
 18 16  1  0  0  0  0
 19 18  1  0  0  0  0
 19 20  1  1  0  0  0
 21 19  1  0  0  0  0
 21 22  1  6  0  0  0
 23 20  1  1  0  0  0
 23 24  1  0  0  0  0
 23 28  1  0  0  0  0
 24 25  1  6  0  0  0
 24 26  1  0  0  0  0
 26 27  1  0  0  0  0
 26 32  1  1  0  0  0
 27 28  1  0  0  0  0
 27 29  1  1  0  0  0
 29 30  1  0  0  0  0
 31 32  1  1  0  0  0
 31 40  1  0  0  0  0
 33 31  1  0  0  0  0
 33 42  1  1  0  0  0
 35 33  1  0  0  0  0
 35 36  1  6  0  0  0
 37 35  1  0  0  0  0
 37 38  1  1  0  0  0
 37 39  1  0  0  0  0
 39 40  1  0  0  0  0
 39 41  1  1  0  0  0
 41 34  1  0  0  0  0
M  END
>  <CHROM.1>
-174.28193350,63.59271913,-158.82882743,156.64431108,-99.67458631,103.32263537
-61.72078989,-75.54952752,76.21660127,12.90523121,8.37844502,6.66500937,-1.82779283
-0.43322861,-1.13006026

>  <Name>
2et4_lig

>  <RI>
3.65815e+07

>  <Rbt.Current_Directory>
/home/itssahil/PROJECTS/Mol_Feturizer/New_Systems/rnas/2et4

>  <Rbt.Executable>
rbdock ($Id: //depot/dev/client3/rdock/2013.1/src/exe/rbdock.cxx#4 $)

>  <Rbt.Library>
libRbt.so (2013.1, Build901 2013/11/27)

>  <Rbt.Parameter_File>
/export/apps/rDock/src/rDock_2013.1_src/data/scripts/dock_solv.prm

>  <Rbt.Receptor>
prm/pocket_docking_4.prm

>  <SCORE>
-15.4568

>  <SCORE.INTER>
-15.9797

>  <SCORE.INTER.CONST>
1

>  <SCORE.INTER.POLAR>
-1.55194

>  <SCORE.INTER.ROT>
9

>  <SCORE.INTER.SOLV>
17.7142

>  <SCORE.INTER.VDW>
-20.9847

>  <SCORE.INTER.norm>
-0.380468

>  <SCORE.INTRA>
0.0592651

>  <SCORE.INTRA.DIHEDRAL>
-3.72237

>  <SCORE.INTRA.DIHEDRAL.0>
21.6909

>  <SCORE.INTRA.POLAR>
0

>  <SCORE.INTRA.POLAR.0>
0

>  <SCORE.INTRA.REPUL>
0

>  <SCORE.INTRA.REPUL.0>
0

>  <SCORE.INTRA.SOLV>
0.170066

>  <SCORE.INTRA.SOLV.lig_0>
-116.606

>  <SCORE.INTRA.VDW>
1.83542

>  <SCORE.INTRA.VDW.0>
-6.01229

>  <SCORE.INTRA.norm>
0.00141107

>  <SCORE.RESTR>
0.46358

>  <SCORE.RESTR.CAVITY>
0.46358

>  <SCORE.RESTR.norm>
0.0110376

>  <SCORE.SYSTEM>
0

>  <SCORE.SYSTEM.CONST>
0

>  <SCORE.SYSTEM.DIHEDRAL>
0

>  <SCORE.SYSTEM.SOLV>
0

>  <SCORE.SYSTEM.norm>
0

>  <SCORE.heavy>
42

>  <SCORE.norm>
-0.36802

>  <RMSD>
9.419

$$$$
2et4_lig
 OpenBabel11021811423D
libRbt.so/2013.1/901 2013/11/27
 42 45  0  0  0  0  0  0  0  0999 V2000
   15.2359    6.4399   12.6573 C   0  0  2  0  0  0  0  0  0  0  0  0
   14.3762    7.3898   12.0242 O   0  0  0  0  0  0  0  0  0  0  0  0
   16.0638    5.7565   11.5393 C   0  0  2  0  0  0  0  0  0  0  0  0
   16.8069    6.7225   10.7709 N   0  0  0  0  0  0  0  0  0  0  0  0
   15.1116    4.9294   10.6281 C   0  0  1  0  0  0  0  0  0  0  0  0
   15.8605    4.3032    9.6337 O   0  0  0  0  0  0  0  0  0  0  0  0
   14.3432    3.9037   11.5266 C   0  0  2  0  0  0  0  0  0  0  0  0
   13.4593    3.1340   10.7393 O   0  0  0  0  0  0  0  0  0  0  0  0
   13.5357    4.6371   12.6402 C   0  0  2  0  0  0  0  0  0  0  0  0
   14.4462    5.4258   13.4120 O   0  0  0  0  0  0  0  0  0  0  0  0
   12.7872    3.6400   13.5841 C   0  0  0  0  0  0  0  0  0  0  0  0
   11.4930    4.1076   13.9411 N   0  0  0  0  0  0  0  0  0  0  0  0
   13.7186   11.6220   12.5816 C   0  0  2  0  0  0  0  0  0  0  0  0
   13.9686   13.0686   12.6020 N   0  0  0  0  0  0  0  0  0  0  0  0
   14.7791   10.8745   13.5556 C   0  0  0  0  0  0  0  0  0  0  0  0
   14.5141    9.3138   13.5184 C   0  0  2  0  0  0  0  0  0  0  0  0
   15.4739    8.5908   14.3715 N   0  0  0  0  0  0  0  0  0  0  0  0
   14.6337    8.8006   12.0437 C   0  0  2  0  0  0  0  0  0  0  0  0
   13.6260    9.5501   11.1106 C   0  0  2  0  0  0  0  0  0  0  0  0
   13.8257    9.0173    9.7782 O   0  0  0  0  0  0  0  0  0  0  0  0
   13.9057   11.0868   11.1525 C   0  0  1  0  0  0  0  0  0  0  0  0
   12.9899   11.7255   10.3284 O   0  0  0  0  0  0  0  0  0  0  0  0
   13.5295    9.6600    8.6226 C   0  0  1  0  0  0  0  0  0  0  0  0
   13.8419    8.7666    7.3939 C   0  0  2  0  0  0  0  0  0  0  0  0
   15.1813    8.8274    6.9973 O   0  0  0  0  0  0  0  0  0  0  0  0
   12.7750    9.2747    6.4418 C   0  0  1  0  0  0  0  0  0  0  0  0
   11.5256    9.5574    7.2878 C   0  0  2  0  0  0  0  0  0  0  0  0
   12.1367   10.0493    8.4805 O   0  0  0  0  0  0  0  0  0  0  0  0
   10.6075    8.3198    7.5708 C   0  0  0  0  0  0  0  0  0  0  0  0
    9.5304    8.7666    8.4364 O   0  0  0  0  0  0  0  0  0  0  0  0
   13.9446   10.3829    4.5641 C   0  0  2  0  0  0  0  0  0  0  0  0
   13.2988   10.5094    5.8014 O   0  0  0  0  0  0  0  0  0  0  0  0
   15.1784   11.3802    4.4503 C   0  0  1  0  0  0  0  0  0  0  0  0
   12.8025   10.8097   -0.4566 N   0  0  0  0  0  0  0  0  0  0  0  0
   15.8293   11.1646    2.9852 C   0  0  1  0  0  0  0  0  0  0  0  0
   16.2451    9.7120    2.8636 O   0  0  0  0  0  0  0  0  0  0  0  0
   14.7452   11.5376    1.8397 C   0  0  2  0  0  0  0  0  0  0  0  0
   14.3715   12.9302    1.9709 O   0  0  0  0  0  0  0  0  0  0  0  0
   13.4816   10.5210    2.0119 C   0  0  1  0  0  0  0  0  0  0  0  0
   12.9337   10.6370    3.4077 O   0  0  0  0  0  0  0  0  0  0  0  0
   12.3452   10.7996    0.9668 C   0  0  0  0  0  0  0  0  0  0  0  0
   14.7238   12.7895    4.6916 N   0  0  0  0  0  0  0  0  0  0  0  0
  1  2  1  6  0  0  0
  1  3  1  0  0  0  0
  1 10  1  0  0  0  0
  3  4  1  6  0  0  0
  3  5  1  0  0  0  0
  5  6  1  6  0  0  0
  5  7  1  0  0  0  0
  7  8  1  6  0  0  0
  7  9  1  0  0  0  0
  9 10  1  0  0  0  0
  9 11  1  1  0  0  0
 11 12  1  0  0  0  0
 13 14  1  6  0  0  0
 13 15  1  0  0  0  0
 13 21  1  0  0  0  0
 16 15  1  0  0  0  0
 16 17  1  1  0  0  0
 18  2  1  1  0  0  0
 18 16  1  0  0  0  0
 19 18  1  0  0  0  0
 19 20  1  6  0  0  0
 21 19  1  0  0  0  0
 21 22  1  6  0  0  0
 23 20  1  1  0  0  0
 23 24  1  0  0  0  0
 23 28  1  0  0  0  0
 24 25  1  6  0  0  0
 24 26  1  0  0  0  0
 26 27  1  0  0  0  0
 26 32  1  1  0  0  0
 27 28  1  0  0  0  0
 27 29  1  1  0  0  0
 29 30  1  0  0  0  0
 31 32  1  1  0  0  0
 31 40  1  0  0  0  0
 33 31  1  0  0  0  0
 33 42  1  6  0  0  0
 35 33  1  0  0  0  0
 35 36  1  6  0  0  0
 37 35  1  0  0  0  0
 37 38  1  1  0  0  0
 37 39  1  0  0  0  0
 39 40  1  0  0  0  0
 39 41  1  6  0  0  0
 41 34  1  0  0  0  0
M  END
>  <CHROM.1>
-103.54628931,-140.64454509,-65.78576285,-155.71388705,-178.44927191,94.01389396
176.94771236,-142.69907981,53.65414000,13.88825403,8.81119518,8.55362698
-0.07912323,1.54219823,-2.61289450

>  <Name>
2et4_lig

>  <RI>
0

>  <Rbt.Current_Directory>
/home/itssahil/PROJECTS/Mol_Feturizer/New_Systems/rnas/2et4

>  <Rbt.Executable>
rbdock ($Id: //depot/dev/client3/rdock/2013.1/src/exe/rbdock.cxx#4 $)

>  <Rbt.Library>
libRbt.so (2013.1, Build901 2013/11/27)

>  <Rbt.Parameter_File>
/export/apps/rDock/src/rDock_2013.1_src/data/scripts/dock_solv.prm

>  <Rbt.Receptor>
prm/blind_docking_40.prm

>  <SCORE>
16.6206

>  <SCORE.INTER>
-2.93937

>  <SCORE.INTER.CONST>
1

>  <SCORE.INTER.POLAR>
-1.32066

>  <SCORE.INTER.ROT>
9

>  <SCORE.INTER.SOLV>
42.2916

>  <SCORE.INTER.VDW>
-21.2546

>  <SCORE.INTER.norm>
-0.0699849

>  <SCORE.INTRA>
2.17052

>  <SCORE.INTRA.DIHEDRAL>
0.43566

>  <SCORE.INTRA.DIHEDRAL.0>
21.6909

>  <SCORE.INTRA.POLAR>
0

>  <SCORE.INTRA.POLAR.0>
0

>  <SCORE.INTRA.REPUL>
0

>  <SCORE.INTRA.REPUL.0>
0

>  <SCORE.INTRA.SOLV>
-2.47776

>  <SCORE.INTRA.SOLV.lig_0>
-116.606

>  <SCORE.INTRA.VDW>
3.19157

>  <SCORE.INTRA.VDW.0>
-6.01229

>  <SCORE.INTRA.norm>
0.0516791

>  <SCORE.RESTR>
17.3894

>  <SCORE.RESTR.CAVITY>
17.3894

>  <SCORE.RESTR.norm>
0.414034

>  <SCORE.SYSTEM>
0

>  <SCORE.SYSTEM.CONST>
0

>  <SCORE.SYSTEM.DIHEDRAL>
0

>  <SCORE.SYSTEM.SOLV>
0

>  <SCORE.SYSTEM.norm>
0

>  <SCORE.heavy>
42

>  <SCORE.norm>
0.395728

>  <RMSD>
9.426

$$$$
2et4_lig
 OpenBabel11021811423D
libRbt.so/2013.1/901 2013/11/27
 42 45  0  0  0  0  0  0  0  0999 V2000
    7.6296    4.2884   11.2792 C   0  0  2  0  0  0  0  0  0  0  0  0
    8.8486    4.9920   11.0318 O   0  0  0  0  0  0  0  0  0  0  0  0
    7.9702    2.7763   11.2972 C   0  0  2  0  0  0  0  0  0  0  0  0
    8.9727    2.4755   12.2873 N   0  0  0  0  0  0  0  0  0  0  0  0
    8.4356    2.3381    9.8785 C   0  0  1  0  0  0  0  0  0  0  0  0
    8.7256    0.9752    9.8935 O   0  0  0  0  0  0  0  0  0  0  0  0
    7.3007    2.6919    8.8603 C   0  0  2  0  0  0  0  0  0  0  0  0
    7.6846    2.3168    7.5544 O   0  0  0  0  0  0  0  0  0  0  0  0
    6.9873    4.2187    8.8867 C   0  0  2  0  0  0  0  0  0  0  0  0
    6.6210    4.5807   10.2214 O   0  0  0  0  0  0  0  0  0  0  0  0
    5.8279    4.6030    7.9103 C   0  0  0  0  0  0  0  0  0  0  0  0
    6.1581    4.3357    6.5536 N   0  0  0  0  0  0  0  0  0  0  0  0
    7.8912    9.0036   12.3142 C   0  0  2  0  0  0  0  0  0  0  0  0
    8.0254   10.4447   12.5611 N   0  0  0  0  0  0  0  0  0  0  0  0
    9.0689    8.2075   13.0963 C   0  0  0  0  0  0  0  0  0  0  0  0
    8.9279    6.6556   12.8148 C   0  0  2  0  0  0  0  0  0  0  0  0
    9.9955    5.8939   13.4869 N   0  0  0  0  0  0  0  0  0  0  0  0
    8.9929    6.3986   11.2714 C   0  0  2  0  0  0  0  0  0  0  0  0
    7.8704    7.1950   10.5273 C   0  0  2  0  0  0  0  0  0  0  0  0
    8.0258    6.9030    9.1167 O   0  0  0  0  0  0  0  0  0  0  0  0
    8.0282    8.7238   10.8087 C   0  0  1  0  0  0  0  0  0  0  0  0
    7.0130    9.4018   10.1489 O   0  0  0  0  0  0  0  0  0  0  0  0
    9.0687    7.2927    8.3441 C   0  0  1  0  0  0  0  0  0  0  0  0
    9.0125    8.8168    8.0623 C   0  0  2  0  0  0  0  0  0  0  0  0
    8.1866    9.1454    6.9830 O   0  0  0  0  0  0  0  0  0  0  0  0
   10.4990    9.1033    7.9574 C   0  0  1  0  0  0  0  0  0  0  0  0
   11.1947    8.2181    9.0012 C   0  0  2  0  0  0  0  0  0  0  0  0
   10.3801    7.0487    8.9207 O   0  0  0  0  0  0  0  0  0  0  0  0
   11.2400    8.7980   10.4559 C   0  0  0  0  0  0  0  0  0  0  0  0
   11.9814    7.8564   11.2762 O   0  0  0  0  0  0  0  0  0  0  0  0
   12.2882    8.8487    6.2676 C   0  0  2  0  0  0  0  0  0  0  0  0
   10.9234    8.7630    6.5744 O   0  0  0  0  0  0  0  0  0  0  0  0
   12.5181    9.0843    4.7115 C   0  0  1  0  0  0  0  0  0  0  0  0
   16.5788    6.0463    6.9197 N   0  0  0  0  0  0  0  0  0  0  0  0
   14.1167    9.1444    4.4719 C   0  0  1  0  0  0  0  0  0  0  0  0
   14.6779   10.2701    5.3176 O   0  0  0  0  0  0  0  0  0  0  0  0
   14.7912    7.7327    4.8944 C   0  0  2  0  0  0  0  0  0  0  0  0
   14.2468    6.6764    4.0673 O   0  0  0  0  0  0  0  0  0  0  0  0
   14.5028    7.5086    6.4838 C   0  0  1  0  0  0  0  0  0  0  0  0
   13.0206    7.5565    6.7342 O   0  0  0  0  0  0  0  0  0  0  0  0
   15.0903    6.1529    7.0114 C   0  0  0  0  0  0  0  0  0  0  0  0
   11.8443    8.0006    3.9226 N   0  0  0  0  0  0  0  0  0  0  0  0
  1  2  1  6  0  0  0
  1  3  1  0  0  0  0
  1 10  1  0  0  0  0
  3  4  1  1  0  0  0
  3  5  1  0  0  0  0
  5  6  1  1  0  0  0
  5  7  1  0  0  0  0
  7  8  1  6  0  0  0
  7  9  1  0  0  0  0
  9 10  1  0  0  0  0
  9 11  1  6  0  0  0
 11 12  1  0  0  0  0
 13 14  1  6  0  0  0
 13 15  1  0  0  0  0
 13 21  1  0  0  0  0
 16 15  1  0  0  0  0
 16 17  1  1  0  0  0
 18  2  1  1  0  0  0
 18 16  1  0  0  0  0
 19 18  1  0  0  0  0
 19 20  1  6  0  0  0
 21 19  1  0  0  0  0
 21 22  1  6  0  0  0
 23 20  1  1  0  0  0
 23 24  1  0  0  0  0
 23 28  1  0  0  0  0
 24 25  1  6  0  0  0
 24 26  1  0  0  0  0
 26 27  1  0  0  0  0
 26 32  1  6  0  0  0
 27 28  1  0  0  0  0
 27 29  1  1  0  0  0
 29 30  1  0  0  0  0
 31 32  1  6  0  0  0
 31 40  1  0  0  0  0
 33 31  1  0  0  0  0
 33 42  1  6  0  0  0
 35 33  1  0  0  0  0
 35 36  1  1  0  0  0
 37 35  1  0  0  0  0
 37 38  1  6  0  0  0
 37 39  1  0  0  0  0
 39 40  1  0  0  0  0
 39 41  1  6  0  0  0
 41 34  1  0  0  0  0
M  END
>  <CHROM.1>
-164.08603058,-62.91831859,67.98735332,-67.50613509,-72.18716165,-175.16421274
-177.49990863,-155.24118555,62.91113734,10.03179711,6.69539749,8.79019826
-3.04425256,0.79169980,0.44872736

>  <Name>
2et4_lig

>  <RI>
0

>  <Rbt.Current_Directory>
/home/itssahil/PROJECTS/Mol_Feturizer/New_Systems/rnas/2et4

>  <Rbt.Executable>
rbdock ($Id: //depot/dev/client3/rdock/2013.1/src/exe/rbdock.cxx#4 $)

>  <Rbt.Library>
libRbt.so (2013.1, Build901 2013/11/27)

>  <Rbt.Parameter_File>
/export/apps/rDock/src/rDock_2013.1_src/data/scripts/dock_solv.prm

>  <Rbt.Receptor>
prm/pocket_docking_5.prm

>  <SCORE>
-13.2291

>  <SCORE.INTER>
-6.17784

>  <SCORE.INTER.CONST>
1

>  <SCORE.INTER.POLAR>
-0.916515

>  <SCORE.INTER.ROT>
9

>  <SCORE.INTER.SOLV>
9.89557

>  <SCORE.INTER.VDW>
-13.962

>  <SCORE.INTER.norm>
-0.147091

>  <SCORE.INTRA>
-7.05123

>  <SCORE.INTRA.DIHEDRAL>
-16.2456

>  <SCORE.INTRA.DIHEDRAL.0>
21.6909

>  <SCORE.INTRA.POLAR>
0

>  <SCORE.INTRA.POLAR.0>
0

>  <SCORE.INTRA.REPUL>
0

>  <SCORE.INTRA.REPUL.0>
0

>  <SCORE.INTRA.SOLV>
0.413295

>  <SCORE.INTRA.SOLV.lig_0>
-116.606

>  <SCORE.INTRA.VDW>
0.864925

>  <SCORE.INTRA.VDW.0>
-6.01229

>  <SCORE.INTRA.norm>
-0.167886

>  <SCORE.RESTR>
0

>  <SCORE.RESTR.CAVITY>
0

>  <SCORE.RESTR.norm>
0

>  <SCORE.SYSTEM>
0

>  <SCORE.SYSTEM.CONST>
0

>  <SCORE.SYSTEM.DIHEDRAL>
0

>  <SCORE.SYSTEM.SOLV>
0

>  <SCORE.SYSTEM.norm>
0

>  <SCORE.heavy>
42

>  <SCORE.norm>
-0.314978

>  <RMSD>
9.426

$$$$
2et4_lig
 OpenBabel11021811423D
libRbt.so/2013.1/901 2013/11/27
 42 45  0  0  0  0  0  0  0  0999 V2000
    7.4832    3.5409    9.7072 C   0  0  2  0  0  0  0  0  0  0  0  0
    8.7182    4.2426    9.5510 O   0  0  0  0  0  0  0  0  0  0  0  0
    7.7354    2.0718    9.2819 C   0  0  2  0  0  0  0  0  0  0  0  0
    8.7925    1.4745   10.0574 N   0  0  0  0  0  0  0  0  0  0  0  0
    8.0625    2.0265    7.7614 C   0  0  1  0  0  0  0  0  0  0  0  0
    8.2728    0.7033    7.3784 O   0  0  0  0  0  0  0  0  0  0  0  0
    6.8744    2.6871    6.9854 C   0  0  2  0  0  0  0  0  0  0  0  0
    7.1331    2.6741    5.5974 O   0  0  0  0  0  0  0  0  0  0  0  0
    6.6538    4.1571    7.4548 C   0  0  2  0  0  0  0  0  0  0  0  0
    6.4141    4.1488    8.8652 O   0  0  0  0  0  0  0  0  0  0  0  0
    5.4463    4.8362    6.7293 C   0  0  0  0  0  0  0  0  0  0  0  0
    4.2492    4.0802    6.8573 N   0  0  0  0  0  0  0  0  0  0  0  0
    7.7270    8.2123   10.9345 C   0  0  2  0  0  0  0  0  0  0  0  0
    7.8854    9.6156   11.3361 N   0  0  0  0  0  0  0  0  0  0  0  0
    8.6326    7.2680   11.8940 C   0  0  0  0  0  0  0  0  0  0  0  0
    8.4691    5.7577   11.4472 C   0  0  2  0  0  0  0  0  0  0  0  0
    9.2965    4.8648   12.2777 N   0  0  0  0  0  0  0  0  0  0  0  0
    8.8861    5.6114    9.9448 C   0  0  2  0  0  0  0  0  0  0  0  0
    8.0249    6.5486    9.0349 C   0  0  2  0  0  0  0  0  0  0  0  0
    8.4955    6.3504    7.6791 O   0  0  0  0  0  0  0  0  0  0  0  0
    8.2032    8.0346    9.4835 C   0  0  1  0  0  0  0  0  0  0  0  0
    7.4186    8.8393    8.6695 O   0  0  0  0  0  0  0  0  0  0  0  0
    9.7022    6.7405    7.2015 C   0  0  1  0  0  0  0  0  0  0  0  0
   10.5863    5.5139    6.8563 C   0  0  2  0  0  0  0  0  0  0  0  0
   11.2726    5.0031    7.9622 O   0  0  0  0  0  0  0  0  0  0  0  0
   11.3864    6.1016    5.7086 C   0  0  1  0  0  0  0  0  0  0  0  0
   10.4288    7.0051    4.9190 C   0  0  2  0  0  0  0  0  0  0  0  0
    9.6493    7.5395    5.9888 O   0  0  0  0  0  0  0  0  0  0  0  0
    9.5377    6.2783    3.8549 C   0  0  0  0  0  0  0  0  0  0  0  0
    8.8034    5.2323    4.5446 O   0  0  0  0  0  0  0  0  0  0  0  0
   13.5100    7.3405    5.4312 C   0  0  2  0  0  0  0  0  0  0  0  0
   12.5127    6.8721    6.2973 O   0  0  0  0  0  0  0  0  0  0  0  0
   14.6821    8.0579    6.2321 C   0  0  1  0  0  0  0  0  0  0  0  0
   12.7105   11.1710    2.9813 N   0  0  0  0  0  0  0  0  0  0  0  0
   15.7571    8.5738    5.1389 C   0  0  1  0  0  0  0  0  0  0  0  0
   16.2430    7.3725    4.3527 O   0  0  0  0  0  0  0  0  0  0  0  0
   15.0621    9.6516    4.1480 C   0  0  2  0  0  0  0  0  0  0  0  0
   14.6155   10.7920    4.9201 O   0  0  0  0  0  0  0  0  0  0  0  0
   13.8444    8.8911    3.3742 C   0  0  1  0  0  0  0  0  0  0  0  0
   12.8923    8.3150    4.3859 O   0  0  0  0  0  0  0  0  0  0  0  0
   13.0724    9.8437    2.3956 C   0  0  0  0  0  0  0  0  0  0  0  0
   14.1243    9.1644    7.0778 N   0  0  0  0  0  0  0  0  0  0  0  0
  1  2  1  6  0  0  0
  1  3  1  0  0  0  0
  1 10  1  0  0  0  0
  3  4  1  1  0  0  0
  3  5  1  0  0  0  0
  5  6  1  6  0  0  0
  5  7  1  0  0  0  0
  7  8  1  6  0  0  0
  7  9  1  0  0  0  0
  9 10  1  0  0  0  0
  9 11  1  6  0  0  0
 11 12  1  0  0  0  0
 13 14  1  1  0  0  0
 13 15  1  0  0  0  0
 13 21  1  0  0  0  0
 16 15  1  0  0  0  0
 16 17  1  1  0  0  0
 18  2  1  6  0  0  0
 18 16  1  0  0  0  0
 19 18  1  0  0  0  0
 19 20  1  6  0  0  0
 21 19  1  0  0  0  0
 21 22  1  6  0  0  0
 23 20  1  6  0  0  0
 23 24  1  0  0  0  0
 23 28  1  0  0  0  0
 24 25  1  1  0  0  0
 24 26  1  0  0  0  0
 26 27  1  0  0  0  0
 26 32  1  1  0  0  0
 27 28  1  0  0  0  0
 27 29  1  6  0  0  0
 29 30  1  0  0  0  0
 31 32  1  1  0  0  0
 31 40  1  0  0  0  0
 33 31  1  0  0  0  0
 33 42  1  6  0  0  0
 35 33  1  0  0  0  0
 35 36  1  6  0  0  0
 37 35  1  0  0  0  0
 37 38  1  1  0  0  0
 37 39  1  0  0  0  0
 39 40  1  0  0  0  0
 39 41  1  6  0  0  0
 41 34  1  0  0  0  0
M  END
>  <CHROM.1>
-175.33425127,54.43954150,54.52154414,-69.22822697,112.73062843,170.48947583
55.98028933,-176.27090504,-46.79460547,9.98572685,6.25980301,7.17507042,-3.09511407
-0.78208894,-2.24291949

>  <Name>
2et4_lig

>  <RI>
0

>  <Rbt.Current_Directory>
/home/itssahil/PROJECTS/Mol_Feturizer/New_Systems/rnas/2et4

>  <Rbt.Executable>
rbdock ($Id: //depot/dev/client3/rdock/2013.1/src/exe/rbdock.cxx#4 $)

>  <Rbt.Library>
libRbt.so (2013.1, Build901 2013/11/27)

>  <Rbt.Parameter_File>
/export/apps/rDock/src/rDock_2013.1_src/data/scripts/dock_solv.prm

>  <Rbt.Receptor>
prm/pocket_docking_5.prm

>  <SCORE>
-13.7384

>  <SCORE.INTER>
-8.15243

>  <SCORE.INTER.CONST>
1

>  <SCORE.INTER.POLAR>
-1.32731

>  <SCORE.INTER.ROT>
9

>  <SCORE.INTER.SOLV>
18.1946

>  <SCORE.INTER.VDW>
-16.6754

>  <SCORE.INTER.norm>
-0.194105

>  <SCORE.INTRA>
-5.58625

>  <SCORE.INTRA.DIHEDRAL>
-12.634

>  <SCORE.INTRA.DIHEDRAL.0>
21.6909

>  <SCORE.INTRA.POLAR>
0

>  <SCORE.INTRA.POLAR.0>
0

>  <SCORE.INTRA.REPUL>
0

>  <SCORE.INTRA.REPUL.0>
0

>  <SCORE.INTRA.SOLV>
0.297844

>  <SCORE.INTRA.SOLV.lig_0>
-116.606

>  <SCORE.INTRA.VDW>
0.581813

>  <SCORE.INTRA.VDW.0>
-6.01229

>  <SCORE.INTRA.norm>
-0.133006

>  <SCORE.RESTR>
0.000323773

>  <SCORE.RESTR.CAVITY>
0.000323773

>  <SCORE.RESTR.norm>
7.70888e-06

>  <SCORE.SYSTEM>
0

>  <SCORE.SYSTEM.CONST>
0

>  <SCORE.SYSTEM.DIHEDRAL>
0

>  <SCORE.SYSTEM.SOLV>
0

>  <SCORE.SYSTEM.norm>
0

>  <SCORE.heavy>
42

>  <SCORE.norm>
-0.327104

>  <RMSD>
9.431

$$$$
2et4_lig
 OpenBabel11021811423D
libRbt.so/2013.1/901 2013/11/27
 42 45  0  0  0  0  0  0  0  0999 V2000
    8.8838    3.6597   10.2367 C   0  0  2  0  0  0  0  0  0  0  0  0
    8.8448    4.0007   11.6239 O   0  0  0  0  0  0  0  0  0  0  0  0
    8.1038    2.3305   10.0707 C   0  0  2  0  0  0  0  0  0  0  0  0
    6.7522    2.4507   10.5549 N   0  0  0  0  0  0  0  0  0  0  0  0
    8.8646    1.1930   10.8113 C   0  0  1  0  0  0  0  0  0  0  0  0
    8.1698   -0.0037   10.6469 O   0  0  0  0  0  0  0  0  0  0  0  0
   10.3176    1.1196   10.2340 C   0  0  2  0  0  0  0  0  0  0  0  0
   11.0486    0.1019   10.8847 O   0  0  0  0  0  0  0  0  0  0  0  0
   11.0561    2.4805   10.4146 C   0  0  2  0  0  0  0  0  0  0  0  0
   10.2889    3.4992    9.7662 O   0  0  0  0  0  0  0  0  0  0  0  0
   12.4986    2.4569    9.8112 C   0  0  0  0  0  0  0  0  0  0  0  0
   12.4869    2.2966    8.3986 N   0  0  0  0  0  0  0  0  0  0  0  0
    9.0875    7.6302   13.9525 C   0  0  2  0  0  0  0  0  0  0  0  0
    9.5934    8.9054   14.4757 N   0  0  0  0  0  0  0  0  0  0  0  0
   10.1698    6.4571   14.2432 C   0  0  0  0  0  0  0  0  0  0  0  0
    9.6256    5.0874   13.6642 C   0  0  2  0  0  0  0  0  0  0  0  0
   10.5910    3.9959   13.8839 N   0  0  0  0  0  0  0  0  0  0  0  0
    9.3512    5.2434   12.1303 C   0  0  2  0  0  0  0  0  0  0  0  0
    8.3284    6.3967   11.8628 C   0  0  2  0  0  0  0  0  0  0  0  0
    8.1562    6.4679   10.4260 O   0  0  0  0  0  0  0  0  0  0  0  0
    8.8833    7.7415   12.4328 C   0  0  1  0  0  0  0  0  0  0  0  0
    7.9510    8.7412   12.1940 O   0  0  0  0  0  0  0  0  0  0  0  0
    9.1491    6.6618    9.5245 C   0  0  1  0  0  0  0  0  0  0  0  0
    8.5766    7.1133    8.1556 C   0  0  2  0  0  0  0  0  0  0  0  0
    8.1602    6.0449    7.3554 O   0  0  0  0  0  0  0  0  0  0  0  0
    9.7300    7.9763    7.6783 C   0  0  1  0  0  0  0  0  0  0  0  0
   10.2824    8.6994    8.9147 C   0  0  2  0  0  0  0  0  0  0  0  0
   10.1216    7.6755    9.8964 O   0  0  0  0  0  0  0  0  0  0  0  0
    9.5343   10.0158    9.3175 C   0  0  0  0  0  0  0  0  0  0  0  0
   10.2280   10.5765   10.4636 O   0  0  0  0  0  0  0  0  0  0  0  0
   11.8726    7.6575    6.4829 C   0  0  2  0  0  0  0  0  0  0  0  0
   10.7414    7.0737    7.0691 O   0  0  0  0  0  0  0  0  0  0  0  0
   11.4682    8.6552    5.3121 C   0  0  1  0  0  0  0  0  0  0  0  0
   15.3349    4.8498    5.9062 N   0  0  0  0  0  0  0  0  0  0  0  0
   12.8423    9.2485    4.6984 C   0  0  1  0  0  0  0  0  0  0  0  0
   13.5967    9.9414    5.8156 O   0  0  0  0  0  0  0  0  0  0  0  0
   13.7341    8.0456    4.0785 C   0  0  2  0  0  0  0  0  0  0  0  0
   12.9969    7.4065    3.0088 O   0  0  0  0  0  0  0  0  0  0  0  0
   14.0966    7.0260    5.2987 C   0  0  1  0  0  0  0  0  0  0  0  0
   12.8254    6.5495    5.9459 O   0  0  0  0  0  0  0  0  0  0  0  0
   14.9444    5.7969    4.8171 C   0  0  0  0  0  0  0  0  0  0  0  0
   10.6288    7.9402    4.2947 N   0  0  0  0  0  0  0  0  0  0  0  0
  1  2  1  1  0  0  0
  1  3  1  0  0  0  0
  1 10  1  0  0  0  0
  3  4  1  1  0  0  0
  3  5  1  0  0  0  0
  5  6  1  6  0  0  0
  5  7  1  0  0  0  0
  7  8  1  1  0  0  0
  7  9  1  0  0  0  0
  9 10  1  0  0  0  0
  9 11  1  6  0  0  0
 11 12  1  0  0  0  0
 13 14  1  6  0  0  0
 13 15  1  0  0  0  0
 13 21  1  0  0  0  0
 16 15  1  0  0  0  0
 16 17  1  6  0  0  0
 18  2  1  1  0  0  0
 18 16  1  0  0  0  0
 19 18  1  0  0  0  0
 19 20  1  6  0  0  0
 21 19  1  0  0  0  0
 21 22  1  1  0  0  0
 23 20  1  1  0  0  0
 23 24  1  0  0  0  0
 23 28  1  0  0  0  0
 24 25  1  6  0  0  0
 24 26  1  0  0  0  0
 26 27  1  0  0  0  0
 26 32  1  1  0  0  0
 27 28  1  0  0  0  0
 27 29  1  1  0  0  0
 29 30  1  0  0  0  0
 31 32  1  6  0  0  0
 31 40  1  0  0  0  0
 33 31  1  0  0  0  0
 33 42  1  6  0  0  0
 35 33  1  0  0  0  0
 35 36  1  1  0  0  0
 37 35  1  0  0  0  0
 37 38  1  6  0  0  0
 37 39  1  0  0  0  0
 39 40  1  0  0  0  0
 39 41  1  6  0  0  0
 41 34  1  0  0  0  0
M  END
>  <CHROM.1>
-173.55761480,65.11709558,-159.94363924,-57.12757626,-162.55399245,176.37497700
-177.77185861,-59.11604285,178.42747108,10.47213314,5.88759494,9.19137504
-2.56289397,1.04228801,-0.11128000

>  <Name>
2et4_lig

>  <RI>
0

>  <Rbt.Current_Directory>
/home/itssahil/PROJECTS/Mol_Feturizer/New_Systems/rnas/2et4

>  <Rbt.Executable>
rbdock ($Id: //depot/dev/client3/rdock/2013.1/src/exe/rbdock.cxx#4 $)

>  <Rbt.Library>
libRbt.so (2013.1, Build901 2013/11/27)

>  <Rbt.Parameter_File>
/export/apps/rDock/src/rDock_2013.1_src/data/scripts/dock_solv.prm

>  <Rbt.Receptor>
prm/pocket_docking_6.prm

>  <SCORE>
-13.6751

>  <SCORE.INTER>
-4.71311

>  <SCORE.INTER.CONST>
1

>  <SCORE.INTER.POLAR>
-0.916515

>  <SCORE.INTER.ROT>
9

>  <SCORE.INTER.SOLV>
7.89277

>  <SCORE.INTER.VDW>
-12.3179

>  <SCORE.INTER.norm>
-0.112217

>  <SCORE.INTRA>
-8.96203

>  <SCORE.INTRA.DIHEDRAL>
-17.88

>  <SCORE.INTRA.DIHEDRAL.0>
21.6909

>  <SCORE.INTRA.POLAR>
0

>  <SCORE.INTRA.POLAR.0>
0

>  <SCORE.INTRA.REPUL>
0

>  <SCORE.INTRA.REPUL.0>
0

>  <SCORE.INTRA.SOLV>
-2.58387

>  <SCORE.INTRA.SOLV.lig_0>
-116.606

>  <SCORE.INTRA.VDW>
1.26991

>  <SCORE.INTRA.VDW.0>
-6.01229

>  <SCORE.INTRA.norm>
-0.213382

>  <SCORE.RESTR>
0

>  <SCORE.RESTR.CAVITY>
0

>  <SCORE.RESTR.norm>
0

>  <SCORE.SYSTEM>
0

>  <SCORE.SYSTEM.CONST>
0

>  <SCORE.SYSTEM.DIHEDRAL>
0

>  <SCORE.SYSTEM.SOLV>
0

>  <SCORE.SYSTEM.norm>
0

>  <SCORE.heavy>
42

>  <SCORE.norm>
-0.325599

>  <RMSD>
9.431

$$$$
2et4_lig
 OpenBabel11021811423D
libRbt.so/2013.1/901 2013/11/27
 42 45  0  0  0  0  0  0  0  0999 V2000
    6.5732    4.3043   11.0722 C   0  0  2  0  0  0  0  0  0  0  0  0
    7.2095    5.5717   10.8956 O   0  0  0  0  0  0  0  0  0  0  0  0
    7.6859    3.2760   11.3994 C   0  0  2  0  0  0  0  0  0  0  0  0
    8.4351    3.6663   12.5665 N   0  0  0  0  0  0  0  0  0  0  0  0
    8.6177    3.1171   10.1634 C   0  0  1  0  0  0  0  0  0  0  0  0
    9.6073    2.1803   10.4546 O   0  0  0  0  0  0  0  0  0  0  0  0
    7.7393    2.6914    8.9399 C   0  0  2  0  0  0  0  0  0  0  0  0
    8.5458    2.5423    7.7906 O   0  0  0  0  0  0  0  0  0  0  0  0
    6.6303    3.7499    8.6575 C   0  0  2  0  0  0  0  0  0  0  0  0
    5.8389    3.9000    9.8398 O   0  0  0  0  0  0  0  0  0  0  0  0
    5.7060    3.3368    7.4657 C   0  0  0  0  0  0  0  0  0  0  0  0
    4.9063    4.4188    7.0067 N   0  0  0  0  0  0  0  0  0  0  0  0
    8.7353    8.6442   13.5197 C   0  0  2  0  0  0  0  0  0  0  0  0
    9.5284    9.2974   14.5686 N   0  0  0  0  0  0  0  0  0  0  0  0
    7.8599    7.4432   14.1704 C   0  0  0  0  0  0  0  0  0  0  0  0
    7.0179    6.7333   13.0327 C   0  0  2  0  0  0  0  0  0  0  0  0
    6.2249    5.6164   13.5761 N   0  0  0  0  0  0  0  0  0  0  0  0
    7.9871    6.1977   11.9254 C   0  0  2  0  0  0  0  0  0  0  0  0
    8.8453    7.3612   11.3273 C   0  0  2  0  0  0  0  0  0  0  0  0
    9.7113    6.7631   10.3317 O   0  0  0  0  0  0  0  0  0  0  0  0
    9.6752    8.0457   12.4604 C   0  0  1  0  0  0  0  0  0  0  0  0
   10.4140    9.0803   11.9040 O   0  0  0  0  0  0  0  0  0  0  0  0
   10.5270    7.4427    9.4897 C   0  0  1  0  0  0  0  0  0  0  0  0
   10.9703    6.5484    8.3027 C   0  0  2  0  0  0  0  0  0  0  0  0
   12.0740    5.7444    8.6033 O   0  0  0  0  0  0  0  0  0  0  0  0
   11.1135    7.6135    7.2313 C   0  0  1  0  0  0  0  0  0  0  0  0
    9.9848    8.6281    7.4627 C   0  0  2  0  0  0  0  0  0  0  0  0
    9.9349    8.6262    8.8893 O   0  0  0  0  0  0  0  0  0  0  0  0
    8.6008    8.2543    6.8305 C   0  0  0  0  0  0  0  0  0  0  0  0
    8.8381    7.9037    5.4413 O   0  0  0  0  0  0  0  0  0  0  0  0
   13.5737    7.4866    7.0016 C   0  0  2  0  0  0  0  0  0  0  0  0
   12.4544    8.2334    7.3936 O   0  0  0  0  0  0  0  0  0  0  0  0
   14.8989    8.3652    7.0417 C   0  0  1  0  0  0  0  0  0  0  0  0
   12.8594    4.7085    3.5347 N   0  0  0  0  0  0  0  0  0  0  0  0
   16.1132    7.4148    6.5527 C   0  0  1  0  0  0  0  0  0  0  0  0
   16.1811    6.2207    7.4838 O   0  0  0  0  0  0  0  0  0  0  0  0
   15.8527    6.9268    5.0295 C   0  0  2  0  0  0  0  0  0  0  0  0
   15.8013    8.0829    4.1594 O   0  0  0  0  0  0  0  0  0  0  0  0
   14.4692    6.0631    5.0219 C   0  0  1  0  0  0  0  0  0  0  0  0
   13.3520    6.9047    5.5747 O   0  0  0  0  0  0  0  0  0  0  0  0
   14.0933    5.5513    3.5873 C   0  0  0  0  0  0  0  0  0  0  0  0
   14.7296    9.5894    6.1912 N   0  0  0  0  0  0  0  0  0  0  0  0
  1  2  1  6  0  0  0
  1  3  1  0  0  0  0
  1 10  1  0  0  0  0
  3  4  1  1  0  0  0
  3  5  1  0  0  0  0
  5  6  1  1  0  0  0
  5  7  1  0  0  0  0
  7  8  1  6  0  0  0
  7  9  1  0  0  0  0
  9 10  1  0  0  0  0
  9 11  1  6  0  0  0
 11 12  1  0  0  0  0
 13 14  1  1  0  0  0
 13 15  1  0  0  0  0
 13 21  1  0  0  0  0
 16 15  1  0  0  0  0
 16 17  1  1  0  0  0
 18  2  1  6  0  0  0
 18 16  1  0  0  0  0
 19 18  1  0  0  0  0
 19 20  1  6  0  0  0
 21 19  1  0  0  0  0
 21 22  1  6  0  0  0
 23 20  1  1  0  0  0
 23 24  1  0  0  0  0
 23 28  1  0  0  0  0
 24 25  1  1  0  0  0
 24 26  1  0  0  0  0
 26 27  1  0  0  0  0
 26 32  1  1  0  0  0
 27 28  1  0  0  0  0
 27 29  1  6  0  0  0
 29 30  1  0  0  0  0
 31 32  1  6  0  0  0
 31 40  1  0  0  0  0
 33 31  1  0  0  0  0
 33 42  1  6  0  0  0
 35 33  1  0  0  0  0
 35 36  1  1  0  0  0
 37 35  1  0  0  0  0
 37 38  1  6  0  0  0
 37 39  1  0  0  0  0
 39 40  1  0  0  0  0
 39 41  1  6  0  0  0
 41 34  1  0  0  0  0
M  END
>  <CHROM.1>
-59.32697926,-166.26653635,-72.99391310,173.47975367,-162.91070724,73.32237357
-50.05264691,171.73002066,177.75446256,10.25484380,6.28965890,8.86797227
2.72396698,0.60775125,0.97254925

>  <Name>
2et4_lig

>  <RI>
3.65815e+07

>  <Rbt.Current_Directory>
/home/itssahil/PROJECTS/Mol_Feturizer/New_Systems/rnas/2et4

>  <Rbt.Executable>
rbdock ($Id: //depot/dev/client3/rdock/2013.1/src/exe/rbdock.cxx#4 $)

>  <Rbt.Library>
libRbt.so (2013.1, Build901 2013/11/27)

>  <Rbt.Parameter_File>
/export/apps/rDock/src/rDock_2013.1_src/data/scripts/dock_solv.prm

>  <Rbt.Receptor>
prm/pocket_docking_4.prm

>  <SCORE>
-6.59015

>  <SCORE.INTER>
-1.2605

>  <SCORE.INTER.CONST>
1

>  <SCORE.INTER.POLAR>
-0.7404

>  <SCORE.INTER.ROT>
9

>  <SCORE.INTER.SOLV>
11.6361

>  <SCORE.INTER.VDW>
-11.851

>  <SCORE.INTER.norm>
-0.0300118

>  <SCORE.INTRA>
-5.32966

>  <SCORE.INTRA.DIHEDRAL>
-17.0013

>  <SCORE.INTRA.DIHEDRAL.0>
21.6909

>  <SCORE.INTRA.POLAR>
0

>  <SCORE.INTRA.POLAR.0>
0

>  <SCORE.INTRA.REPUL>
0

>  <SCORE.INTRA.REPUL.0>
0

>  <SCORE.INTRA.SOLV>
-0.34105

>  <SCORE.INTRA.SOLV.lig_0>
-116.606

>  <SCORE.INTRA.VDW>
3.34149

>  <SCORE.INTRA.VDW.0>
-6.01229

>  <SCORE.INTRA.norm>
-0.126897

>  <SCORE.RESTR>
0

>  <SCORE.RESTR.CAVITY>
0

>  <SCORE.RESTR.norm>
0

>  <SCORE.SYSTEM>
0

>  <SCORE.SYSTEM.CONST>
0

>  <SCORE.SYSTEM.DIHEDRAL>
0

>  <SCORE.SYSTEM.SOLV>
0

>  <SCORE.SYSTEM.norm>
0

>  <SCORE.heavy>
42

>  <SCORE.norm>
-0.156908

>  <RMSD>
9.434

$$$$
2et4_lig
 OpenBabel11021811423D
libRbt.so/2013.1/901 2013/11/27
 42 45  0  0  0  0  0  0  0  0999 V2000
   11.7490    5.2402   12.3027 C   0  0  2  0  0  0  0  0  0  0  0  0
   10.6143    5.0863   11.4477 O   0  0  0  0  0  0  0  0  0  0  0  0
   11.4355    4.4838   13.6188 C   0  0  2  0  0  0  0  0  0  0  0  0
   11.1374    3.0965   13.3691 N   0  0  0  0  0  0  0  0  0  0  0  0
   10.2541    5.1879   14.3467 C   0  0  1  0  0  0  0  0  0  0  0  0
    9.9851    4.5155   15.5372 O   0  0  0  0  0  0  0  0  0  0  0  0
   10.6486    6.6835   14.5861 C   0  0  2  0  0  0  0  0  0  0  0  0
    9.5989    7.3646   15.2401 O   0  0  0  0  0  0  0  0  0  0  0  0
   10.9642    7.3973   13.2367 C   0  0  2  0  0  0  0  0  0  0  0  0
   12.0148    6.6799   12.5822 O   0  0  0  0  0  0  0  0  0  0  0  0
   11.4030    8.8843   13.4410 C   0  0  0  0  0  0  0  0  0  0  0  0
   11.5855    9.5645   12.2060 N   0  0  0  0  0  0  0  0  0  0  0  0
   10.2084    5.4047    7.1596 C   0  0  2  0  0  0  0  0  0  0  0  0
   10.1369    5.9977    5.8183 N   0  0  0  0  0  0  0  0  0  0  0  0
    9.0341    6.0261    8.0907 C   0  0  0  0  0  0  0  0  0  0  0  0
    9.1251    5.3939    9.5396 C   0  0  2  0  0  0  0  0  0  0  0  0
    8.0900    5.9503   10.4288 N   0  0  0  0  0  0  0  0  0  0  0  0
   10.5421    5.6776   10.1431 C   0  0  2  0  0  0  0  0  0  0  0  0
   11.6654    5.0986    9.2208 C   0  0  2  0  0  0  0  0  0  0  0  0
   12.9264    5.4245    9.8553 O   0  0  0  0  0  0  0  0  0  0  0  0
   11.5667    5.7377    7.7984 C   0  0  1  0  0  0  0  0  0  0  0  0
   12.5642    5.1961    7.0001 O   0  0  0  0  0  0  0  0  0  0  0  0
   14.1476    5.3149    9.2783 C   0  0  1  0  0  0  0  0  0  0  0  0
   15.2651    5.7745   10.2507 C   0  0  2  0  0  0  0  0  0  0  0  0
   15.4669    7.1581   10.2405 O   0  0  0  0  0  0  0  0  0  0  0  0
   16.3889    4.8696    9.7805 C   0  0  1  0  0  0  0  0  0  0  0  0
   15.7498    3.5204    9.4224 C   0  0  2  0  0  0  0  0  0  0  0  0
   14.5116    3.9683    8.8711 O   0  0  0  0  0  0  0  0  0  0  0  0
   15.5319    2.5368   10.6223 C   0  0  0  0  0  0  0  0  0  0  0  0
   14.5369    3.1319   11.4968 O   0  0  0  0  0  0  0  0  0  0  0  0
   18.2241    4.9825    8.1250 C   0  0  2  0  0  0  0  0  0  0  0  0
   17.0166    5.5141    8.5976 O   0  0  0  0  0  0  0  0  0  0  0  0
   18.8794    5.9240    7.0232 C   0  0  1  0  0  0  0  0  0  0  0  0
   18.5496    0.4128    7.5414 N   0  0  0  0  0  0  0  0  0  0  0  0
   20.2452    5.2064    6.5373 C   0  0  1  0  0  0  0  0  0  0  0  0
   21.1379    5.0235    7.7486 O   0  0  0  0  0  0  0  0  0  0  0  0
   19.9055    3.7708    5.8664 C   0  0  2  0  0  0  0  0  0  0  0  0
   19.0609    3.9726    4.7080 O   0  0  0  0  0  0  0  0  0  0  0  0
   19.2026    2.8485    7.0132 C   0  0  1  0  0  0  0  0  0  0  0  0
   17.9879    3.5560    7.5480 O   0  0  0  0  0  0  0  0  0  0  0  0
   18.8016    1.4304    6.4753 C   0  0  0  0  0  0  0  0  0  0  0  0
   17.9075    6.1597    5.9049 N   0  0  0  0  0  0  0  0  0  0  0  0
  1  2  1  6  0  0  0
  1  3  1  0  0  0  0
  1 10  1  0  0  0  0
  3  4  1  6  0  0  0
  3  5  1  0  0  0  0
  5  6  1  1  0  0  0
  5  7  1  0  0  0  0
  7  8  1  6  0  0  0
  7  9  1  0  0  0  0
  9 10  1  0  0  0  0
  9 11  1  1  0  0  0
 11 12  1  0  0  0  0
 13 14  1  6  0  0  0
 13 15  1  0  0  0  0
 13 21  1  0  0  0  0
 16 15  1  0  0  0  0
 16 17  1  1  0  0  0
 18  2  1  1  0  0  0
 18 16  1  0  0  0  0
 19 18  1  0  0  0  0
 19 20  1  1  0  0  0
 21 19  1  0  0  0  0
 21 22  1  6  0  0  0
 23 20  1  1  0  0  0
 23 24  1  0  0  0  0
 23 28  1  0  0  0  0
 24 25  1  6  0  0  0
 24 26  1  0  0  0  0
 26 27  1  0  0  0  0
 26 32  1  6  0  0  0
 27 28  1  0  0  0  0
 27 29  1  1  0  0  0
 29 30  1  0  0  0  0
 31 32  1  6  0  0  0
 31 40  1  0  0  0  0
 33 31  1  0  0  0  0
 33 42  1  6  0  0  0
 35 33  1  0  0  0  0
 35 36  1  1  0  0  0
 37 35  1  0  0  0  0
 37 38  1  6  0  0  0
 37 39  1  0  0  0  0
 39 40  1  0  0  0  0
 39 41  1  6  0  0  0
 41 34  1  0  0  0  0
M  END
>  <CHROM.1>
178.97030166,-175.23959827,-175.81519013,-167.76838742,179.09308661,169.22392342
66.42878154,-170.45815400,162.16673962,13.96531087,5.12099925,9.77602576
-2.56683824,0.23790740,-1.59179825

>  <Name>
2et4_lig

>  <RI>
0

>  <Rbt.Current_Directory>
/home/itssahil/PROJECTS/Mol_Feturizer/New_Systems/rnas/2et4

>  <Rbt.Executable>
rbdock ($Id: //depot/dev/client3/rdock/2013.1/src/exe/rbdock.cxx#4 $)

>  <Rbt.Library>
libRbt.so (2013.1, Build901 2013/11/27)

>  <Rbt.Parameter_File>
/export/apps/rDock/src/rDock_2013.1_src/data/scripts/dock_solv.prm

>  <Rbt.Receptor>
prm/pocket_docking_8.prm

>  <SCORE>
-15.5015

>  <SCORE.INTER>
-5.8714

>  <SCORE.INTER.CONST>
1

>  <SCORE.INTER.POLAR>
-2.27051

>  <SCORE.INTER.ROT>
9

>  <SCORE.INTER.SOLV>
13.9429

>  <SCORE.INTER.VDW>
-10.5935

>  <SCORE.INTER.norm>
-0.139795

>  <SCORE.INTRA>
-9.63015

>  <SCORE.INTRA.DIHEDRAL>
-18.4272

>  <SCORE.INTRA.DIHEDRAL.0>
21.6909

>  <SCORE.INTRA.POLAR>
0

>  <SCORE.INTRA.POLAR.0>
0

>  <SCORE.INTRA.REPUL>
0

>  <SCORE.INTRA.REPUL.0>
0

>  <SCORE.INTRA.SOLV>
-4.50239

>  <SCORE.INTRA.SOLV.lig_0>
-116.606

>  <SCORE.INTRA.VDW>
1.83465

>  <SCORE.INTRA.VDW.0>
-6.01229

>  <SCORE.INTRA.norm>
-0.229289

>  <SCORE.RESTR>
0

>  <SCORE.RESTR.CAVITY>
0

>  <SCORE.RESTR.norm>
0

>  <SCORE.SYSTEM>
0

>  <SCORE.SYSTEM.CONST>
0

>  <SCORE.SYSTEM.DIHEDRAL>
0

>  <SCORE.SYSTEM.SOLV>
0

>  <SCORE.SYSTEM.norm>
0

>  <SCORE.heavy>
42

>  <SCORE.norm>
-0.369084

>  <RMSD>
9.441

$$$$
2et4_lig
 OpenBabel11021811423D
libRbt.so/2013.1/901 2013/11/27
 42 45  0  0  0  0  0  0  0  0999 V2000
   13.9676    7.1633    9.8376 C   0  0  2  0  0  0  0  0  0  0  0  0
   12.6460    6.6434    9.9963 O   0  0  0  0  0  0  0  0  0  0  0  0
   14.8836    6.3912   10.8212 C   0  0  2  0  0  0  0  0  0  0  0  0
   14.8341    4.9716   10.5806 N   0  0  0  0  0  0  0  0  0  0  0  0
   14.4658    6.7262   12.2822 C   0  0  1  0  0  0  0  0  0  0  0  0
   15.3011    6.0435   13.1642 O   0  0  0  0  0  0  0  0  0  0  0  0
   14.5457    8.2780   12.4703 C   0  0  2  0  0  0  0  0  0  0  0  0
   14.1666    8.6287   13.7844 O   0  0  0  0  0  0  0  0  0  0  0  0
   13.6172    9.0090   11.4537 C   0  0  2  0  0  0  0  0  0  0  0  0
   14.0049    8.6241   10.1315 O   0  0  0  0  0  0  0  0  0  0  0  0
   13.7028   10.5649   11.5851 C   0  0  0  0  0  0  0  0  0  0  0  0
   14.7838   11.1078   10.8382 N   0  0  0  0  0  0  0  0  0  0  0  0
    8.7057    7.5963    8.5060 C   0  0  2  0  0  0  0  0  0  0  0  0
    7.4996    8.3689    8.1834 N   0  0  0  0  0  0  0  0  0  0  0  0
    8.9434    7.6067   10.1109 C   0  0  0  0  0  0  0  0  0  0  0  0
   10.2530    6.7844   10.4515 C   0  0  2  0  0  0  0  0  0  0  0  0
   10.5224    6.7891   11.9004 N   0  0  0  0  0  0  0  0  0  0  0  0
   11.4715    7.4074    9.6901 C   0  0  2  0  0  0  0  0  0  0  0  0
   11.2165    7.4175    8.1465 C   0  0  2  0  0  0  0  0  0  0  0  0
   12.3857    8.0218    7.5410 O   0  0  0  0  0  0  0  0  0  0  0  0
    9.9262    8.2387    7.8267 C   0  0  1  0  0  0  0  0  0  0  0  0
    9.7179    8.2185    6.4549 O   0  0  0  0  0  0  0  0  0  0  0  0
   12.4809    8.4296    6.2522 C   0  0  1  0  0  0  0  0  0  0  0  0
   13.9639    8.5986    5.8308 C   0  0  2  0  0  0  0  0  0  0  0  0
   14.4971    9.8416    6.1854 O   0  0  0  0  0  0  0  0  0  0  0  0
   13.8435    8.2492    4.3590 C   0  0  1  0  0  0  0  0  0  0  0  0
   12.8085    7.1201    4.2557 C   0  0  2  0  0  0  0  0  0  0  0  0
   11.8981    7.5204    5.2798 O   0  0  0  0  0  0  0  0  0  0  0  0
   13.3602    5.6740    4.4989 C   0  0  0  0  0  0  0  0  0  0  0  0
   12.2457    4.7539    4.3560 O   0  0  0  0  0  0  0  0  0  0  0  0
   14.3503   10.1797    2.8969 C   0  0  2  0  0  0  0  0  0  0  0  0
   13.3978    9.4734    3.6438 O   0  0  0  0  0  0  0  0  0  0  0  0
   15.3032   11.0382    3.8375 C   0  0  1  0  0  0  0  0  0  0  0  0
   12.8424   13.8274    0.6537 N   0  0  0  0  0  0  0  0  0  0  0  0
   16.3396   11.8222    2.8742 C   0  0  1  0  0  0  0  0  0  0  0  0
   17.1006   10.7922    2.0635 O   0  0  0  0  0  0  0  0  0  0  0  0
   15.5293   12.8249    1.8922 C   0  0  2  0  0  0  0  0  0  0  0  0
   14.8194   13.8036    2.6887 O   0  0  0  0  0  0  0  0  0  0  0  0
   14.5379   11.9138    0.9720 C   0  0  1  0  0  0  0  0  0  0  0  0
   13.6392   11.0994    1.8613 O   0  0  0  0  0  0  0  0  0  0  0  0
   13.6748   12.7788   -0.0119 C   0  0  0  0  0  0  0  0  0  0  0  0
   14.4854   11.9578    4.6956 N   0  0  0  0  0  0  0  0  0  0  0  0
  1  2  1  1  0  0  0
  1  3  1  0  0  0  0
  1 10  1  0  0  0  0
  3  4  1  6  0  0  0
  3  5  1  0  0  0  0
  5  6  1  1  0  0  0
  5  7  1  0  0  0  0
  7  8  1  1  0  0  0
  7  9  1  0  0  0  0
  9 10  1  0  0  0  0
  9 11  1  6  0  0  0
 11 12  1  0  0  0  0
 13 14  1  1  0  0  0
 13 15  1  0  0  0  0
 13 21  1  0  0  0  0
 16 15  1  0  0  0  0
 16 17  1  1  0  0  0
 18  2  1  6  0  0  0
 18 16  1  0  0  0  0
 19 18  1  0  0  0  0
 19 20  1  6  0  0  0
 21 19  1  0  0  0  0
 21 22  1  6  0  0  0
 23 20  1  1  0  0  0
 23 24  1  0  0  0  0
 23 28  1  0  0  0  0
 24 25  1  6  0  0  0
 24 26  1  0  0  0  0
 26 27  1  0  0  0  0
 26 32  1  6  0  0  0
 27 28  1  0  0  0  0
 27 29  1  1  0  0  0
 29 30  1  0  0  0  0
 31 32  1  1  0  0  0
 31 40  1  0  0  0  0
 33 31  1  0  0  0  0
 33 42  1  6  0  0  0
 35 33  1  0  0  0  0
 35 36  1  6  0  0  0
 37 35  1  0  0  0  0
 37 38  1  1  0  0  0
 37 39  1  0  0  0  0
 39 40  1  0  0  0  0
 39 41  1  6  0  0  0
 41 34  1  0  0  0  0
M  END
>  <CHROM.1>
154.43381543,85.02357717,-159.12017263,-168.04689593,-161.88052168,104.16471917
-179.81504601,-76.66294909,-56.72542582,13.17120817,8.86375684,7.00411933
-1.76639930,-0.53250628,-1.23745767

>  <Name>
2et4_lig

>  <RI>
0

>  <Rbt.Current_Directory>
/home/itssahil/PROJECTS/Mol_Feturizer/New_Systems/rnas/2et4

>  <Rbt.Executable>
rbdock ($Id: //depot/dev/client3/rdock/2013.1/src/exe/rbdock.cxx#4 $)

>  <Rbt.Library>
libRbt.so (2013.1, Build901 2013/11/27)

>  <Rbt.Parameter_File>
/export/apps/rDock/src/rDock_2013.1_src/data/scripts/dock_solv.prm

>  <Rbt.Receptor>
prm/pocket_docking_6.prm

>  <SCORE>
-17.1444

>  <SCORE.INTER>
-17.3407

>  <SCORE.INTER.CONST>
1

>  <SCORE.INTER.POLAR>
-2.90017

>  <SCORE.INTER.ROT>
9

>  <SCORE.INTER.SOLV>
27.6328

>  <SCORE.INTER.VDW>
-20.7042

>  <SCORE.INTER.norm>
-0.412874

>  <SCORE.INTRA>
0.196362

>  <SCORE.INTRA.DIHEDRAL>
-5.36649

>  <SCORE.INTRA.DIHEDRAL.0>
21.6909

>  <SCORE.INTRA.POLAR>
0

>  <SCORE.INTRA.POLAR.0>
0

>  <SCORE.INTRA.REPUL>
0

>  <SCORE.INTRA.REPUL.0>
0

>  <SCORE.INTRA.SOLV>
0.534664

>  <SCORE.INTRA.SOLV.lig_0>
-116.606

>  <SCORE.INTRA.VDW>
2.61228

>  <SCORE.INTRA.VDW.0>
-6.01229

>  <SCORE.INTRA.norm>
0.00467527

>  <SCORE.RESTR>
0

>  <SCORE.RESTR.CAVITY>
0

>  <SCORE.RESTR.norm>
0

>  <SCORE.SYSTEM>
0

>  <SCORE.SYSTEM.CONST>
0

>  <SCORE.SYSTEM.DIHEDRAL>
0

>  <SCORE.SYSTEM.SOLV>
0

>  <SCORE.SYSTEM.norm>
0

>  <SCORE.heavy>
42

>  <SCORE.norm>
-0.408199

>  <RMSD>
9.461

$$$$
2et4_lig
 OpenBabel11021811423D
libRbt.so/2013.1/901 2013/11/27
 42 45  0  0  0  0  0  0  0  0999 V2000
   13.1541    7.8907    5.0179 C   0  0  2  0  0  0  0  0  0  0  0  0
   13.6248    7.0743    6.0922 O   0  0  0  0  0  0  0  0  0  0  0  0
   11.7627    8.4337    5.4323 C   0  0  2  0  0  0  0  0  0  0  0  0
   11.8323    9.1663    6.6709 N   0  0  0  0  0  0  0  0  0  0  0  0
   10.7600    7.2485    5.5386 C   0  0  1  0  0  0  0  0  0  0  0  0
    9.5063    7.7413    5.8954 O   0  0  0  0  0  0  0  0  0  0  0  0
   10.7350    6.5038    4.1622 C   0  0  2  0  0  0  0  0  0  0  0  0
    9.8404    5.4128    4.2157 O   0  0  0  0  0  0  0  0  0  0  0  0
   12.1563    5.9868    3.7848 C   0  0  2  0  0  0  0  0  0  0  0  0
   13.0496    7.1039    3.7564 O   0  0  0  0  0  0  0  0  0  0  0  0
   12.1775    5.2726    2.3938 C   0  0  0  0  0  0  0  0  0  0  0  0
   13.4523    4.7193    2.0939 N   0  0  0  0  0  0  0  0  0  0  0  0
   17.6313    5.9089    7.2077 C   0  0  2  0  0  0  0  0  0  0  0  0
   18.9313    5.2271    7.1776 N   0  0  0  0  0  0  0  0  0  0  0  0
   16.4455    4.8100    7.3440 C   0  0  0  0  0  0  0  0  0  0  0  0
   15.0456    5.5499    7.3614 C   0  0  2  0  0  0  0  0  0  0  0  0
   13.9355    4.5856    7.4584 N   0  0  0  0  0  0  0  0  0  0  0  0
   14.8895    6.3989    6.0547 C   0  0  2  0  0  0  0  0  0  0  0  0
   16.0550    7.4341    5.9216 C   0  0  2  0  0  0  0  0  0  0  0  0
   15.8274    8.1519    4.6839 O   0  0  0  0  0  0  0  0  0  0  0  0
   17.4278    6.6881    5.8981 C   0  0  1  0  0  0  0  0  0  0  0  0
   18.4412    7.6303    5.7938 O   0  0  0  0  0  0  0  0  0  0  0  0
   16.0727    9.4695    4.4834 C   0  0  1  0  0  0  0  0  0  0  0  0
   16.0758    9.8103    2.9704 C   0  0  2  0  0  0  0  0  0  0  0  0
   17.3068    9.5639    2.3547 O   0  0  0  0  0  0  0  0  0  0  0  0
   15.5665   11.2382    3.0380 C   0  0  1  0  0  0  0  0  0  0  0  0
   14.5166   11.2806    4.1573 C   0  0  2  0  0  0  0  0  0  0  0  0
   15.1036   10.3692    5.0860 O   0  0  0  0  0  0  0  0  0  0  0  0
   13.0707   10.8412    3.7438 C   0  0  0  0  0  0  0  0  0  0  0  0
   13.2008    9.7001    2.8550 O   0  0  0  0  0  0  0  0  0  0  0  0
   17.5470   12.5072    2.2706 C   0  0  2  0  0  0  0  0  0  0  0  0
   16.7292   12.1137    3.3386 O   0  0  0  0  0  0  0  0  0  0  0  0
   18.7190   13.4641    2.7609 C   0  0  1  0  0  0  0  0  0  0  0  0
   15.3067   13.4906   -1.4843 N   0  0  0  0  0  0  0  0  0  0  0  0
   19.5790   13.8699    1.4522 C   0  0  1  0  0  0  0  0  0  0  0  0
   20.0987   12.5959    0.8164 O   0  0  0  0  0  0  0  0  0  0  0  0
   18.6427   14.6798    0.4063 C   0  0  2  0  0  0  0  0  0  0  0  0
   18.1671   15.8953    1.0328 O   0  0  0  0  0  0  0  0  0  0  0  0
   17.4343   13.6813   -0.0437 C   0  0  1  0  0  0  0  0  0  0  0  0
   16.6920   13.2132    1.1777 O   0  0  0  0  0  0  0  0  0  0  0  0
   16.4383   14.3638   -1.0455 C   0  0  0  0  0  0  0  0  0  0  0  0
   18.1472   14.6495    3.4810 N   0  0  0  0  0  0  0  0  0  0  0  0
  1  2  1  1  0  0  0
  1  3  1  0  0  0  0
  1 10  1  0  0  0  0
  3  4  1  1  0  0  0
  3  5  1  0  0  0  0
  5  6  1  6  0  0  0
  5  7  1  0  0  0  0
  7  8  1  1  0  0  0
  7  9  1  0  0  0  0
  9 10  1  0  0  0  0
  9 11  1  6  0  0  0
 11 12  1  0  0  0  0
 13 14  1  6  0  0  0
 13 15  1  0  0  0  0
 13 21  1  0  0  0  0
 16 15  1  0  0  0  0
 16 17  1  6  0  0  0
 18  2  1  1  0  0  0
 18 16  1  0  0  0  0
 19 18  1  0  0  0  0
 19 20  1  6  0  0  0
 21 19  1  0  0  0  0
 21 22  1  1  0  0  0
 23 20  1  6  0  0  0
 23 24  1  0  0  0  0
 23 28  1  0  0  0  0
 24 25  1  1  0  0  0
 24 26  1  0  0  0  0
 26 27  1  0  0  0  0
 26 32  1  1  0  0  0
 27 28  1  0  0  0  0
 27 29  1  6  0  0  0
 29 30  1  0  0  0  0
 31 32  1  1  0  0  0
 31 40  1  0  0  0  0
 33 31  1  0  0  0  0
 33 42  1  6  0  0  0
 35 33  1  0  0  0  0
 35 36  1  6  0  0  0
 37 35  1  0  0  0  0
 37 38  1  1  0  0  0
 37 39  1  0  0  0  0
 39 40  1  0  0  0  0
 39 41  1  6  0  0  0
 41 34  1  0  0  0  0
M  END
>  <CHROM.1>
179.80228715,-175.84879726,-177.38430527,143.28557575,164.84071549,82.74864160
40.14462227,178.69217148,-179.72441750,15.25503808,9.34339326,3.85822488
2.07288623,0.21662099,2.49339563

>  <Name>
2et4_lig

>  <RI>
1.79929e+07

>  <Rbt.Current_Directory>
/home/itssahil/PROJECTS/Mol_Feturizer/New_Systems/rnas/2et4

>  <Rbt.Executable>
rbdock ($Id: //depot/dev/client3/rdock/2013.1/src/exe/rbdock.cxx#4 $)

>  <Rbt.Library>
libRbt.so (2013.1, Build901 2013/11/27)

>  <Rbt.Parameter_File>
/export/apps/rDock/src/rDock_2013.1_src/data/scripts/dock_solv.prm

>  <Rbt.Receptor>
prm/pocket_docking_7.prm

>  <SCORE>
-19.4728

>  <SCORE.INTER>
-13.316

>  <SCORE.INTER.CONST>
1

>  <SCORE.INTER.POLAR>
-0.886577

>  <SCORE.INTER.ROT>
9

>  <SCORE.INTER.SOLV>
17.2631

>  <SCORE.INTER.VDW>
-21.2765

>  <SCORE.INTER.norm>
-0.317048

>  <SCORE.INTRA>
-6.15682

>  <SCORE.INTRA.DIHEDRAL>
-11.9608

>  <SCORE.INTRA.DIHEDRAL.0>
21.6909

>  <SCORE.INTRA.POLAR>
0

>  <SCORE.INTRA.POLAR.0>
0

>  <SCORE.INTRA.REPUL>
0.000400295

>  <SCORE.INTRA.REPUL.0>
0

>  <SCORE.INTRA.SOLV>
-2.56329

>  <SCORE.INTRA.SOLV.lig_0>
-116.606

>  <SCORE.INTRA.VDW>
1.10321

>  <SCORE.INTRA.VDW.0>
-6.01229

>  <SCORE.INTRA.norm>
-0.146591

>  <SCORE.RESTR>
0

>  <SCORE.RESTR.CAVITY>
0

>  <SCORE.RESTR.norm>
0

>  <SCORE.SYSTEM>
0

>  <SCORE.SYSTEM.CONST>
0

>  <SCORE.SYSTEM.DIHEDRAL>
0

>  <SCORE.SYSTEM.SOLV>
0

>  <SCORE.SYSTEM.norm>
0

>  <SCORE.heavy>
42

>  <SCORE.norm>
-0.463639

>  <RMSD>
9.465

$$$$
2et4_lig
 OpenBabel11021811423D
libRbt.so/2013.1/901 2013/11/27
 42 45  0  0  0  0  0  0  0  0999 V2000
   12.0752    8.5234   15.4951 C   0  0  2  0  0  0  0  0  0  0  0  0
   11.8409    9.1685   14.2416 O   0  0  0  0  0  0  0  0  0  0  0  0
   11.0165    7.4001   15.6358 C   0  0  2  0  0  0  0  0  0  0  0  0
   11.0850    6.4729   14.5352 N   0  0  0  0  0  0  0  0  0  0  0  0
    9.6015    8.0387   15.7424 C   0  0  1  0  0  0  0  0  0  0  0  0
    8.6534    7.0275   15.8850 O   0  0  0  0  0  0  0  0  0  0  0  0
    9.6012    9.0277   16.9555 C   0  0  2  0  0  0  0  0  0  0  0  0
    8.3344    9.6375   17.0855 O   0  0  0  0  0  0  0  0  0  0  0  0
   10.6877   10.1306   16.7730 C   0  0  2  0  0  0  0  0  0  0  0  0
   11.9585    9.4909   16.6228 O   0  0  0  0  0  0  0  0  0  0  0  0
   10.7442   11.1139   17.9876 C   0  0  0  0  0  0  0  0  0  0  0  0
    9.4930   11.7454   18.2256 N   0  0  0  0  0  0  0  0  0  0  0  0
   13.2609   12.3460   11.6838 C   0  0  2  0  0  0  0  0  0  0  0  0
   14.0639   13.4754   11.1989 N   0  0  0  0  0  0  0  0  0  0  0  0
   12.5509   12.7478   13.0862 C   0  0  0  0  0  0  0  0  0  0  0  0
   11.6981   11.5214   13.6116 C   0  0  2  0  0  0  0  0  0  0  0  0
   11.0544   11.8340   14.8998 N   0  0  0  0  0  0  0  0  0  0  0  0
   12.6298   10.2740   13.7804 C   0  0  2  0  0  0  0  0  0  0  0  0
   13.3298    9.9157   12.4279 C   0  0  2  0  0  0  0  0  0  0  0  0
   14.1730    8.7678   12.6933 O   0  0  0  0  0  0  0  0  0  0  0  0
   14.1728   11.1324   11.9275 C   0  0  1  0  0  0  0  0  0  0  0  0
   14.7693   10.7911   10.7220 O   0  0  0  0  0  0  0  0  0  0  0  0
   14.0559    7.5537   12.1029 C   0  0  1  0  0  0  0  0  0  0  0  0
   14.0542    7.6850   10.5575 C   0  0  2  0  0  0  0  0  0  0  0  0
   12.7920    7.9791   10.0329 O   0  0  0  0  0  0  0  0  0  0  0  0
   14.7045    6.3622   10.1968 C   0  0  1  0  0  0  0  0  0  0  0  0
   15.7770    6.0918   11.2613 C   0  0  2  0  0  0  0  0  0  0  0  0
   15.1223    6.6175   12.4157 O   0  0  0  0  0  0  0  0  0  0  0  0
   17.1629    6.7793   11.0134 C   0  0  0  0  0  0  0  0  0  0  0  0
   17.7033    6.2354    9.7800 O   0  0  0  0  0  0  0  0  0  0  0  0
   14.0042    4.0104    9.8806 C   0  0  2  0  0  0  0  0  0  0  0  0
   13.6414    5.3237   10.2084 O   0  0  0  0  0  0  0  0  0  0  0  0
   13.1958    2.9521   10.7503 C   0  0  1  0  0  0  0  0  0  0  0  0
   18.3733    3.5707    9.3964 N   0  0  0  0  0  0  0  0  0  0  0  0
   13.7078    1.4832   10.3065 C   0  0  1  0  0  0  0  0  0  0  0  0
   13.4556    1.3255    8.8203 O   0  0  0  0  0  0  0  0  0  0  0  0
   15.2886    1.3294   10.6288 C   0  0  2  0  0  0  0  0  0  0  0  0
   15.5021    1.4744   12.0534 O   0  0  0  0  0  0  0  0  0  0  0  0
   16.0790    2.4529    9.7496 C   0  0  1  0  0  0  0  0  0  0  0  0
   15.5364    3.8166   10.0778 O   0  0  0  0  0  0  0  0  0  0  0  0
   17.6282    2.4209    9.9949 C   0  0  0  0  0  0  0  0  0  0  0  0
   13.3943    3.2289   12.2114 N   0  0  0  0  0  0  0  0  0  0  0  0
  1  2  1  6  0  0  0
  1  3  1  0  0  0  0
  1 10  1  0  0  0  0
  3  4  1  6  0  0  0
  3  5  1  0  0  0  0
  5  6  1  1  0  0  0
  5  7  1  0  0  0  0
  7  8  1  6  0  0  0
  7  9  1  0  0  0  0
  9 10  1  0  0  0  0
  9 11  1  1  0  0  0
 11 12  1  0  0  0  0
 13 14  1  1  0  0  0
 13 15  1  0  0  0  0
 13 21  1  0  0  0  0
 16 15  1  0  0  0  0
 16 17  1  1  0  0  0
 18  2  1  6  0  0  0
 18 16  1  0  0  0  0
 19 18  1  0  0  0  0
 19 20  1  1  0  0  0
 21 19  1  0  0  0  0
 21 22  1  6  0  0  0
 23 20  1  1  0  0  0
 23 24  1  0  0  0  0
 23 28  1  0  0  0  0
 24 25  1  6  0  0  0
 24 26  1  0  0  0  0
 26 27  1  0  0  0  0
 26 32  1  1  0  0  0
 27 28  1  0  0  0  0
 27 29  1  6  0  0  0
 29 30  1  0  0  0  0
 31 32  1  1  0  0  0
 31 40  1  0  0  0  0
 33 31  1  0  0  0  0
 33 42  1  1  0  0  0
 35 33  1  0  0  0  0
 35 36  1  6  0  0  0
 37 35  1  0  0  0  0
 37 38  1  1  0  0  0
 37 39  1  0  0  0  0
 39 40  1  0  0  0  0
 39 41  1  1  0  0  0
 41 34  1  0  0  0  0
M  END
>  <CHROM.1>
179.37161478,-57.37929817,-118.32007638,119.00156241,52.98234155,178.98731724
-62.92438100,143.58845250,-170.20668719,13.29360536,7.33959140,12.67064210
2.29274835,0.80220599,0.08119891

>  <Name>
2et4_lig

>  <RI>
0

>  <Rbt.Current_Directory>
/home/itssahil/PROJECTS/Mol_Feturizer/New_Systems/rnas/2et4

>  <Rbt.Executable>
rbdock ($Id: //depot/dev/client3/rdock/2013.1/src/exe/rbdock.cxx#4 $)

>  <Rbt.Library>
libRbt.so (2013.1, Build901 2013/11/27)

>  <Rbt.Parameter_File>
/export/apps/rDock/src/rDock_2013.1_src/data/scripts/dock_solv.prm

>  <Rbt.Receptor>
prm/blind_docking_80.prm

>  <SCORE>
19.4106

>  <SCORE.INTER>
-3.85256

>  <SCORE.INTER.CONST>
1

>  <SCORE.INTER.POLAR>
-1.45523

>  <SCORE.INTER.ROT>
9

>  <SCORE.INTER.SOLV>
23.3581

>  <SCORE.INTER.VDW>
-15.1036

>  <SCORE.INTER.norm>
-0.0917276

>  <SCORE.INTRA>
5.1999

>  <SCORE.INTRA.DIHEDRAL>
-1.75813

>  <SCORE.INTRA.DIHEDRAL.0>
21.6909

>  <SCORE.INTRA.POLAR>
0

>  <SCORE.INTRA.POLAR.0>
0

>  <SCORE.INTRA.REPUL>
0.0215114

>  <SCORE.INTRA.REPUL.0>
0

>  <SCORE.INTRA.SOLV>
4.87172

>  <SCORE.INTRA.SOLV.lig_0>
-116.606

>  <SCORE.INTRA.VDW>
3.53555

>  <SCORE.INTRA.VDW.0>
-6.01229

>  <SCORE.INTRA.norm>
0.123807

>  <SCORE.RESTR>
18.0633

>  <SCORE.RESTR.CAVITY>
18.0633

>  <SCORE.RESTR.norm>
0.430078

>  <SCORE.SYSTEM>
0

>  <SCORE.SYSTEM.CONST>
0

>  <SCORE.SYSTEM.DIHEDRAL>
0

>  <SCORE.SYSTEM.SOLV>
0

>  <SCORE.SYSTEM.norm>
0

>  <SCORE.heavy>
42

>  <SCORE.norm>
0.462158

>  <RMSD>
9.487

$$$$
2et4_lig
 OpenBabel11021811423D
libRbt.so/2013.1/901 2013/11/27
 42 45  0  0  0  0  0  0  0  0999 V2000
    8.6897    5.2669   13.6147 C   0  0  2  0  0  0  0  0  0  0  0  0
    8.1000    5.8352   12.4436 O   0  0  0  0  0  0  0  0  0  0  0  0
    8.7844    6.3959   14.6725 C   0  0  2  0  0  0  0  0  0  0  0  0
    7.4909    6.9676   14.9477 N   0  0  0  0  0  0  0  0  0  0  0  0
    9.7822    7.4819   14.1763 C   0  0  1  0  0  0  0  0  0  0  0  0
    9.8777    8.4874   15.1362 O   0  0  0  0  0  0  0  0  0  0  0  0
   11.1597    6.7915   13.9012 C   0  0  2  0  0  0  0  0  0  0  0  0
   12.0967    7.7420   13.4405 O   0  0  0  0  0  0  0  0  0  0  0  0
   11.0111    5.6586   12.8408 C   0  0  2  0  0  0  0  0  0  0  0  0
   10.0436    4.7188   13.3178 O   0  0  0  0  0  0  0  0  0  0  0  0
   12.3617    4.9181   12.5710 C   0  0  0  0  0  0  0  0  0  0  0  0
   12.2182    3.8687   11.6227 N   0  0  0  0  0  0  0  0  0  0  0  0
    8.6683    2.8536    9.3708 C   0  0  2  0  0  0  0  0  0  0  0  0
    8.4579    2.0773    8.1425 N   0  0  0  0  0  0  0  0  0  0  0  0
    7.3526    2.7440   10.3137 C   0  0  0  0  0  0  0  0  0  0  0  0
    7.5794    3.5945   11.6300 C   0  0  2  0  0  0  0  0  0  0  0  0
    6.3958    3.5442   12.5065 N   0  0  0  0  0  0  0  0  0  0  0  0
    7.8819    5.0816   11.2429 C   0  0  2  0  0  0  0  0  0  0  0  0
    9.1352    5.1696   10.3105 C   0  0  2  0  0  0  0  0  0  0  0  0
    9.3192    6.5730   10.0011 O   0  0  0  0  0  0  0  0  0  0  0  0
    8.8924    4.3321    9.0139 C   0  0  1  0  0  0  0  0  0  0  0  0
   10.0234    4.4172    8.2144 O   0  0  0  0  0  0  0  0  0  0  0  0
   10.1867    7.0683    9.0856 C   0  0  1  0  0  0  0  0  0  0  0  0
   10.3938    8.5926    9.2838 C   0  0  2  0  0  0  0  0  0  0  0  0
    9.4100    9.3659    8.6601 O   0  0  0  0  0  0  0  0  0  0  0  0
   11.8285    8.7112    8.8039 C   0  0  1  0  0  0  0  0  0  0  0  0
   12.5591    7.4466    9.2772 C   0  0  2  0  0  0  0  0  0  0  0  0
   11.5164    6.4835    9.1258 O   0  0  0  0  0  0  0  0  0  0  0  0
   13.1032    7.4908   10.7457 C   0  0  0  0  0  0  0  0  0  0  0  0
   14.2756    8.3479   10.7492 O   0  0  0  0  0  0  0  0  0  0  0  0
   13.0146    8.9871    6.6502 C   0  0  2  0  0  0  0  0  0  0  0  0
   11.7973    8.8081    7.3212 O   0  0  0  0  0  0  0  0  0  0  0  0
   12.7846    9.3071    5.1092 C   0  0  1  0  0  0  0  0  0  0  0  0
   16.1392    6.0475    7.8562 N   0  0  0  0  0  0  0  0  0  0  0  0
   14.2461    9.4710    4.4354 C   0  0  1  0  0  0  0  0  0  0  0  0
   14.9748   10.5874    5.1567 O   0  0  0  0  0  0  0  0  0  0  0  0
   15.0724    8.0830    4.5658 C   0  0  2  0  0  0  0  0  0  0  0  0
   14.3620    7.0361    3.8620 O   0  0  0  0  0  0  0  0  0  0  0  0
   15.2553    7.7696    6.1558 C   0  0  1  0  0  0  0  0  0  0  0  0
   13.9038    7.7197    6.8138 O   0  0  0  0  0  0  0  0  0  0  0  0
   16.0256    6.4276    6.4146 C   0  0  0  0  0  0  0  0  0  0  0  0
   11.9623    8.2234    4.4766 N   0  0  0  0  0  0  0  0  0  0  0  0
  1  2  1  6  0  0  0
  1  3  1  0  0  0  0
  1 10  1  0  0  0  0
  3  4  1  6  0  0  0
  3  5  1  0  0  0  0
  5  6  1  1  0  0  0
  5  7  1  0  0  0  0
  7  8  1  6  0  0  0
  7  9  1  0  0  0  0
  9 10  1  0  0  0  0
  9 11  1  1  0  0  0
 11 12  1  0  0  0  0
 13 14  1  6  0  0  0
 13 15  1  0  0  0  0
 13 21  1  0  0  0  0
 16 15  1  0  0  0  0
 16 17  1  1  0  0  0
 18  2  1  1  0  0  0
 18 16  1  0  0  0  0
 19 18  1  0  0  0  0
 19 20  1  6  0  0  0
 21 19  1  0  0  0  0
 21 22  1  6  0  0  0
 23 20  1  1  0  0  0
 23 24  1  0  0  0  0
 23 28  1  0  0  0  0
 24 25  1  6  0  0  0
 24 26  1  0  0  0  0
 26 27  1  0  0  0  0
 26 32  1  6  0  0  0
 27 28  1  0  0  0  0
 27 29  1  1  0  0  0
 29 30  1  0  0  0  0
 31 32  1  1  0  0  0
 31 40  1  0  0  0  0
 33 31  1  0  0  0  0
 33 42  1  6  0  0  0
 35 33  1  0  0  0  0
 35 36  1  1  0  0  0
 37 35  1  0  0  0  0
 37 38  1  6  0  0  0
 37 39  1  0  0  0  0
 39 40  1  0  0  0  0
 39 41  1  6  0  0  0
 41 34  1  0  0  0  0
M  END
>  <CHROM.1>
178.69973744,178.87353431,32.27916172,-170.96686270,-164.73092644,177.19879455
-74.49169276,-170.72114480,-176.08291434,11.17028565,6.61336426,9.70773588
-2.46878927,-0.74934794,-1.87450607

>  <Name>
2et4_lig

>  <RI>
0

>  <Rbt.Current_Directory>
/home/itssahil/PROJECTS/Mol_Feturizer/New_Systems/rnas/2et4

>  <Rbt.Executable>
rbdock ($Id: //depot/dev/client3/rdock/2013.1/src/exe/rbdock.cxx#4 $)

>  <Rbt.Library>
libRbt.so (2013.1, Build901 2013/11/27)

>  <Rbt.Parameter_File>
/export/apps/rDock/src/rDock_2013.1_src/data/scripts/dock_solv.prm

>  <Rbt.Receptor>
prm/pocket_docking_3.prm

>  <SCORE>
-12.2124

>  <SCORE.INTER>
-5.44853

>  <SCORE.INTER.CONST>
1

>  <SCORE.INTER.POLAR>
-1.69447

>  <SCORE.INTER.ROT>
9

>  <SCORE.INTER.SOLV>
8.85107

>  <SCORE.INTER.VDW>
-10.5345

>  <SCORE.INTER.norm>
-0.129727

>  <SCORE.INTRA>
-6.80482

>  <SCORE.INTRA.DIHEDRAL>
-15.6234

>  <SCORE.INTRA.DIHEDRAL.0>
21.6909

>  <SCORE.INTRA.POLAR>
0

>  <SCORE.INTRA.POLAR.0>
0

>  <SCORE.INTRA.REPUL>
0

>  <SCORE.INTRA.REPUL.0>
0

>  <SCORE.INTRA.SOLV>
-0.191231

>  <SCORE.INTRA.SOLV.lig_0>
-116.606

>  <SCORE.INTRA.VDW>
1.10251

>  <SCORE.INTRA.VDW.0>
-6.01229

>  <SCORE.INTRA.norm>
-0.162019

>  <SCORE.RESTR>
0.0409174

>  <SCORE.RESTR.CAVITY>
0.0409174

>  <SCORE.RESTR.norm>
0.000974223

>  <SCORE.SYSTEM>
0

>  <SCORE.SYSTEM.CONST>
0

>  <SCORE.SYSTEM.DIHEDRAL>
0

>  <SCORE.SYSTEM.SOLV>
0

>  <SCORE.SYSTEM.norm>
0

>  <SCORE.heavy>
42

>  <SCORE.norm>
-0.290772

>  <RMSD>
9.493

$$$$
2et4_lig
 OpenBabel11021811423D
libRbt.so/2013.1/901 2013/11/27
 42 45  0  0  0  0  0  0  0  0999 V2000
    8.9443    3.1286   10.6533 C   0  0  2  0  0  0  0  0  0  0  0  0
    8.3260    2.4794   11.7662 O   0  0  0  0  0  0  0  0  0  0  0  0
    8.0548    2.8561    9.4134 C   0  0  2  0  0  0  0  0  0  0  0  0
    6.7065    3.3192    9.6222 N   0  0  0  0  0  0  0  0  0  0  0  0
    8.0799    1.3348    9.0879 C   0  0  1  0  0  0  0  0  0  0  0  0
    7.2926    1.0950    7.9634 O   0  0  0  0  0  0  0  0  0  0  0  0
    9.5694    0.9052    8.8718 C   0  0  2  0  0  0  0  0  0  0  0  0
    9.6403   -0.4744    8.5801 O   0  0  0  0  0  0  0  0  0  0  0  0
   10.4242    1.2084   10.1396 C   0  0  2  0  0  0  0  0  0  0  0  0
   10.3219    2.6058   10.4288 O   0  0  0  0  0  0  0  0  0  0  0  0
   11.9289    0.8297    9.9447 C   0  0  0  0  0  0  0  0  0  0  0  0
   12.5555    1.6194    8.9423 N   0  0  0  0  0  0  0  0  0  0  0  0
    9.1757    3.0490   15.9624 C   0  0  2  0  0  0  0  0  0  0  0  0
    9.8313    2.9197   17.2697 N   0  0  0  0  0  0  0  0  0  0  0  0
    8.6427    1.5956   15.4768 C   0  0  0  0  0  0  0  0  0  0  0  0
    7.9496    1.7386   14.0603 C   0  0  2  0  0  0  0  0  0  0  0  0
    7.4719    0.4345   13.5677 N   0  0  0  0  0  0  0  0  0  0  0  0
    8.9724    2.3417   13.0391 C   0  0  2  0  0  0  0  0  0  0  0  0
    9.4998    3.7291   13.5339 C   0  0  2  0  0  0  0  0  0  0  0  0
   10.4421    4.1904   12.5348 O   0  0  0  0  0  0  0  0  0  0  0  0
   10.1871    3.5695   14.9280 C   0  0  1  0  0  0  0  0  0  0  0  0
   10.6315    4.8155   15.3471 O   0  0  0  0  0  0  0  0  0  0  0  0
   11.0025    5.4235   12.4935 C   0  0  1  0  0  0  0  0  0  0  0  0
   11.9458    5.5648   11.2705 C   0  0  2  0  0  0  0  0  0  0  0  0
   13.2316    5.0701   11.5090 O   0  0  0  0  0  0  0  0  0  0  0  0
   11.7734    7.0472   10.9959 C   0  0  1  0  0  0  0  0  0  0  0  0
   10.3009    7.3803   11.2741 C   0  0  2  0  0  0  0  0  0  0  0  0
   10.0557    6.5209   12.3872 O   0  0  0  0  0  0  0  0  0  0  0  0
    9.3105    7.1010   10.0927 C   0  0  0  0  0  0  0  0  0  0  0  0
    7.9998    7.5723   10.5038 O   0  0  0  0  0  0  0  0  0  0  0  0
   12.9108    9.1413   11.6612 C   0  0  2  0  0  0  0  0  0  0  0  0
   12.6873    7.7804   11.9102 O   0  0  0  0  0  0  0  0  0  0  0  0
   14.0322    9.7295   12.6236 C   0  0  1  0  0  0  0  0  0  0  0  0
   10.1970   13.5338   11.4676 N   0  0  0  0  0  0  0  0  0  0  0  0
   14.1897   11.2990   12.2650 C   0  0  1  0  0  0  0  0  0  0  0  0
   14.5649   11.4124   10.8008 O   0  0  0  0  0  0  0  0  0  0  0  0
   12.7945   12.0726   12.5502 C   0  0  2  0  0  0  0  0  0  0  0  0
   12.4631   11.9581   13.9549 O   0  0  0  0  0  0  0  0  0  0  0  0
   11.6635   11.4182   11.5744 C   0  0  1  0  0  0  0  0  0  0  0  0
   11.5831    9.9375   11.8258 O   0  0  0  0  0  0  0  0  0  0  0  0
   10.2515   12.0717   11.7756 C   0  0  0  0  0  0  0  0  0  0  0  0
   13.6586    9.4870   14.0562 N   0  0  0  0  0  0  0  0  0  0  0  0
  1  2  1  1  0  0  0
  1  3  1  0  0  0  0
  1 10  1  0  0  0  0
  3  4  1  1  0  0  0
  3  5  1  0  0  0  0
  5  6  1  6  0  0  0
  5  7  1  0  0  0  0
  7  8  1  1  0  0  0
  7  9  1  0  0  0  0
  9 10  1  0  0  0  0
  9 11  1  6  0  0  0
 11 12  1  0  0  0  0
 13 14  1  1  0  0  0
 13 15  1  0  0  0  0
 13 21  1  0  0  0  0
 16 15  1  0  0  0  0
 16 17  1  6  0  0  0
 18  2  1  6  0  0  0
 18 16  1  0  0  0  0
 19 18  1  0  0  0  0
 19 20  1  6  0  0  0
 21 19  1  0  0  0  0
 21 22  1  1  0  0  0
 23 20  1  6  0  0  0
 23 24  1  0  0  0  0
 23 28  1  0  0  0  0
 24 25  1  1  0  0  0
 24 26  1  0  0  0  0
 26 27  1  0  0  0  0
 26 32  1  1  0  0  0
 27 28  1  0  0  0  0
 27 29  1  6  0  0  0
 29 30  1  0  0  0  0
 31 32  1  1  0  0  0
 31 40  1  0  0  0  0
 33 31  1  0  0  0  0
 33 42  1  1  0  0  0
 35 33  1  0  0  0  0
 35 36  1  6  0  0  0
 37 35  1  0  0  0  0
 37 38  1  1  0  0  0
 37 39  1  0  0  0  0
 39 40  1  0  0  0  0
 39 41  1  1  0  0  0
 41 34  1  0  0  0  0
M  END
>  <CHROM.1>
170.14800374,64.64733941,173.37153028,171.27480560,-179.14961251,167.21057848
-175.58958575,-173.54082363,61.53868645,10.51206635,5.50975330,11.84275477
-3.01555762,1.21936311,1.54774133

>  <Name>
2et4_lig

>  <RI>
0

>  <Rbt.Current_Directory>
/home/itssahil/PROJECTS/Mol_Feturizer/New_Systems/rnas/2et4

>  <Rbt.Executable>
rbdock ($Id: //depot/dev/client3/rdock/2013.1/src/exe/rbdock.cxx#4 $)

>  <Rbt.Library>
libRbt.so (2013.1, Build901 2013/11/27)

>  <Rbt.Parameter_File>
/export/apps/rDock/src/rDock_2013.1_src/data/scripts/dock_solv.prm

>  <Rbt.Receptor>
prm/pocket_docking_8.prm

>  <SCORE>
-13.157

>  <SCORE.INTER>
-3.35759

>  <SCORE.INTER.CONST>
1

>  <SCORE.INTER.POLAR>
-0.959166

>  <SCORE.INTER.ROT>
9

>  <SCORE.INTER.SOLV>
10.7087

>  <SCORE.INTER.VDW>
-12.2107

>  <SCORE.INTER.norm>
-0.0799426

>  <SCORE.INTRA>
-9.79937

>  <SCORE.INTRA.DIHEDRAL>
-19.341

>  <SCORE.INTRA.DIHEDRAL.0>
21.6909

>  <SCORE.INTRA.POLAR>
0

>  <SCORE.INTRA.POLAR.0>
0

>  <SCORE.INTRA.REPUL>
0

>  <SCORE.INTRA.REPUL.0>
0

>  <SCORE.INTRA.SOLV>
-4.00519

>  <SCORE.INTRA.SOLV.lig_0>
-116.606

>  <SCORE.INTRA.VDW>
1.87373

>  <SCORE.INTRA.VDW.0>
-6.01229

>  <SCORE.INTRA.norm>
-0.233318

>  <SCORE.RESTR>
0

>  <SCORE.RESTR.CAVITY>
0

>  <SCORE.RESTR.norm>
0

>  <SCORE.SYSTEM>
0

>  <SCORE.SYSTEM.CONST>
0

>  <SCORE.SYSTEM.DIHEDRAL>
0

>  <SCORE.SYSTEM.SOLV>
0

>  <SCORE.SYSTEM.norm>
0

>  <SCORE.heavy>
42

>  <SCORE.norm>
-0.313261

>  <RMSD>
9.547

$$$$
2et4_lig
 OpenBabel11021811423D
libRbt.so/2013.1/901 2013/11/27
 42 45  0  0  0  0  0  0  0  0999 V2000
   14.8272    5.9477    8.4838 C   0  0  2  0  0  0  0  0  0  0  0  0
   14.2173    4.7458    8.0090 O   0  0  0  0  0  0  0  0  0  0  0  0
   16.2754    5.5899    8.9048 C   0  0  2  0  0  0  0  0  0  0  0  0
   17.0128    5.0113    7.8107 N   0  0  0  0  0  0  0  0  0  0  0  0
   16.2317    4.6234   10.1235 C   0  0  1  0  0  0  0  0  0  0  0  0
   17.5348    4.3162   10.5100 O   0  0  0  0  0  0  0  0  0  0  0  0
   15.4209    5.3165   11.2689 C   0  0  2  0  0  0  0  0  0  0  0  0
   15.3496    4.4689   12.3958 O   0  0  0  0  0  0  0  0  0  0  0  0
   13.9776    5.6657   10.7946 C   0  0  2  0  0  0  0  0  0  0  0  0
   14.0733    6.5071    9.6414 O   0  0  0  0  0  0  0  0  0  0  0  0
   13.1506    6.3980   11.9015 C   0  0  0  0  0  0  0  0  0  0  0  0
   13.7105    7.6591   12.2437 N   0  0  0  0  0  0  0  0  0  0  0  0
   11.0704    3.9370    5.1634 C   0  0  2  0  0  0  0  0  0  0  0  0
    9.7382    3.9094    4.5467 N   0  0  0  0  0  0  0  0  0  0  0  0
   11.0185    3.1858    6.6005 C   0  0  0  0  0  0  0  0  0  0  0  0
   12.4540    3.2312    7.2672 C   0  0  2  0  0  0  0  0  0  0  0  0
   12.4472    2.5810    8.5896 N   0  0  0  0  0  0  0  0  0  0  0  0
   12.9105    4.7216    7.4185 C   0  0  2  0  0  0  0  0  0  0  0  0
   12.9281    5.4415    6.0295 C   0  0  2  0  0  0  0  0  0  0  0  0
   13.3457    6.8062    6.2794 O   0  0  0  0  0  0  0  0  0  0  0  0
   11.5037    5.3947    5.3890 C   0  0  1  0  0  0  0  0  0  0  0  0
   11.5529    6.0270    4.1547 O   0  0  0  0  0  0  0  0  0  0  0  0
   13.5602    7.7485    5.3296 C   0  0  1  0  0  0  0  0  0  0  0  0
   14.0541    9.0748    5.9639 C   0  0  2  0  0  0  0  0  0  0  0  0
   13.0116    9.8842    6.4255 O   0  0  0  0  0  0  0  0  0  0  0  0
   14.9244    9.5821    4.8290 C   0  0  1  0  0  0  0  0  0  0  0  0
   15.6085    8.3535    4.2131 C   0  0  2  0  0  0  0  0  0  0  0  0
   14.5575    7.3950    4.3335 O   0  0  0  0  0  0  0  0  0  0  0  0
   16.9167    7.8777    4.9320 C   0  0  0  0  0  0  0  0  0  0  0  0
   17.4854    6.8055    4.1345 O   0  0  0  0  0  0  0  0  0  0  0  0
   14.6193   10.8129    2.7045 C   0  0  2  0  0  0  0  0  0  0  0  0
   14.0344   10.2648    3.8541 O   0  0  0  0  0  0  0  0  0  0  0  0
   15.7656   11.8507    3.0767 C   0  0  1  0  0  0  0  0  0  0  0  0
   12.2879   14.0353    0.3854 N   0  0  0  0  0  0  0  0  0  0  0  0
   16.3499   12.4318    1.6847 C   0  0  1  0  0  0  0  0  0  0  0  0
   16.8675   11.2650    0.8674 O   0  0  0  0  0  0  0  0  0  0  0  0
   15.1796   13.2095    0.8773 C   0  0  2  0  0  0  0  0  0  0  0  0
   14.7089   14.3235    1.6733 O   0  0  0  0  0  0  0  0  0  0  0  0
   14.0081   12.1240    0.5470 C   0  0  1  0  0  0  0  0  0  0  0  0
   13.5302   11.4993    1.8288 O   0  0  0  0  0  0  0  0  0  0  0  0
   12.7983   12.7661   -0.2181 C   0  0  0  0  0  0  0  0  0  0  0  0
   15.2193   12.9185    3.9779 N   0  0  0  0  0  0  0  0  0  0  0  0
  1  2  1  1  0  0  0
  1  3  1  0  0  0  0
  1 10  1  0  0  0  0
  3  4  1  6  0  0  0
  3  5  1  0  0  0  0
  5  6  1  1  0  0  0
  5  7  1  0  0  0  0
  7  8  1  1  0  0  0
  7  9  1  0  0  0  0
  9 10  1  0  0  0  0
  9 11  1  1  0  0  0
 11 12  1  0  0  0  0
 13 14  1  1  0  0  0
 13 15  1  0  0  0  0
 13 21  1  0  0  0  0
 16 15  1  0  0  0  0
 16 17  1  1  0  0  0
 18  2  1  6  0  0  0
 18 16  1  0  0  0  0
 19 18  1  0  0  0  0
 19 20  1  1  0  0  0
 21 19  1  0  0  0  0
 21 22  1  6  0  0  0
 23 20  1  1  0  0  0
 23 24  1  0  0  0  0
 23 28  1  0  0  0  0
 24 25  1  6  0  0  0
 24 26  1  0  0  0  0
 26 27  1  0  0  0  0
 26 32  1  6  0  0  0
 27 28  1  0  0  0  0
 27 29  1  1  0  0  0
 29 30  1  0  0  0  0
 31 32  1  1  0  0  0
 31 40  1  0  0  0  0
 33 31  1  0  0  0  0
 33 42  1  1  0  0  0
 35 33  1  0  0  0  0
 35 36  1  6  0  0  0
 37 35  1  0  0  0  0
 37 38  1  1  0  0  0
 37 39  1  0  0  0  0
 39 40  1  0  0  0  0
 39 41  1  1  0  0  0
 41 34  1  0  0  0  0
M  END
>  <CHROM.1>
-174.09450723,63.50538420,-169.38217438,176.24181993,-177.63797680,-179.58016682
-174.27434840,-56.38615237,-48.40941739,14.21197304,7.77040580,5.82756128
-1.61646447,-0.70486066,-0.84021006

>  <Name>
2et4_lig

>  <RI>
0

>  <Rbt.Current_Directory>
/home/itssahil/PROJECTS/Mol_Feturizer/New_Systems/rnas/2et4

>  <Rbt.Executable>
rbdock ($Id: //depot/dev/client3/rdock/2013.1/src/exe/rbdock.cxx#4 $)

>  <Rbt.Library>
libRbt.so (2013.1, Build901 2013/11/27)

>  <Rbt.Parameter_File>
/export/apps/rDock/src/rDock_2013.1_src/data/scripts/dock_solv.prm

>  <Rbt.Receptor>
prm/pocket_docking_6.prm

>  <SCORE>
-13.8982

>  <SCORE.INTER>
-5.12293

>  <SCORE.INTER.CONST>
1

>  <SCORE.INTER.POLAR>
-0.527052

>  <SCORE.INTER.ROT>
9

>  <SCORE.INTER.SOLV>
16.9667

>  <SCORE.INTER.VDW>
-16.914

>  <SCORE.INTER.norm>
-0.121975

>  <SCORE.INTRA>
-8.77523

>  <SCORE.INTRA.DIHEDRAL>
-20.0316

>  <SCORE.INTRA.DIHEDRAL.0>
21.6909

>  <SCORE.INTRA.POLAR>
0

>  <SCORE.INTRA.POLAR.0>
0

>  <SCORE.INTRA.REPUL>
0

>  <SCORE.INTRA.REPUL.0>
0

>  <SCORE.INTRA.SOLV>
-1.55938

>  <SCORE.INTRA.SOLV.lig_0>
-116.606

>  <SCORE.INTRA.VDW>
2.02029

>  <SCORE.INTRA.VDW.0>
-6.01229

>  <SCORE.INTRA.norm>
-0.208934

>  <SCORE.RESTR>
0

>  <SCORE.RESTR.CAVITY>
0

>  <SCORE.RESTR.norm>
0

>  <SCORE.SYSTEM>
0

>  <SCORE.SYSTEM.CONST>
0

>  <SCORE.SYSTEM.DIHEDRAL>
0

>  <SCORE.SYSTEM.SOLV>
0

>  <SCORE.SYSTEM.norm>
0

>  <SCORE.heavy>
42

>  <SCORE.norm>
-0.330909

>  <RMSD>
9.559

$$$$
2et4_lig
 OpenBabel11021811423D
libRbt.so/2013.1/901 2013/11/27
 42 45  0  0  0  0  0  0  0  0999 V2000
   13.3656    7.4350   11.2726 C   0  0  2  0  0  0  0  0  0  0  0  0
   14.1428    8.5421   10.8115 O   0  0  0  0  0  0  0  0  0  0  0  0
   13.6527    7.2745   12.7874 C   0  0  2  0  0  0  0  0  0  0  0  0
   13.3464    8.4822   13.5109 N   0  0  0  0  0  0  0  0  0  0  0  0
   15.1403    6.8643   12.9873 C   0  0  1  0  0  0  0  0  0  0  0  0
   15.3913    6.7050   14.3487 O   0  0  0  0  0  0  0  0  0  0  0  0
   15.3981    5.5493   12.1786 C   0  0  2  0  0  0  0  0  0  0  0  0
   16.7423    5.1433   12.3262 O   0  0  0  0  0  0  0  0  0  0  0  0
   15.0859    5.7577   10.6656 C   0  0  2  0  0  0  0  0  0  0  0  0
   13.7272    6.1879   10.5408 O   0  0  0  0  0  0  0  0  0  0  0  0
   15.2929    4.4509    9.8320 C   0  0  0  0  0  0  0  0  0  0  0  0
   16.6556    4.0473    9.7964 N   0  0  0  0  0  0  0  0  0  0  0  0
   11.2421   11.7362   10.6174 C   0  0  2  0  0  0  0  0  0  0  0  0
   10.6394   13.0389   10.3085 N   0  0  0  0  0  0  0  0  0  0  0  0
   12.5642   11.9536   11.5323 C   0  0  0  0  0  0  0  0  0  0  0  0
   13.2180   10.5469   11.8501 C   0  0  2  0  0  0  0  0  0  0  0  0
   14.4398   10.6989   12.6599 N   0  0  0  0  0  0  0  0  0  0  0  0
   13.5663    9.8196   10.5076 C   0  0  2  0  0  0  0  0  0  0  0  0
   12.2879    9.6427    9.6231 C   0  0  2  0  0  0  0  0  0  0  0  0
   12.7172    8.9792    8.4088 O   0  0  0  0  0  0  0  0  0  0  0  0
   11.6598   11.0392    9.3122 C   0  0  1  0  0  0  0  0  0  0  0  0
   10.5225   10.8504    8.5399 O   0  0  0  0  0  0  0  0  0  0  0  0
   13.2483    9.5932    7.3238 C   0  0  1  0  0  0  0  0  0  0  0  0
   14.3326    8.7060    6.6583 C   0  0  2  0  0  0  0  0  0  0  0  0
   15.5904    8.8360    7.2549 O   0  0  0  0  0  0  0  0  0  0  0  0
   14.1599    9.1453    5.2161 C   0  0  1  0  0  0  0  0  0  0  0  0
   12.6565    9.3676    4.9986 C   0  0  2  0  0  0  0  0  0  0  0  0
   12.2959    9.9041    6.2713 O   0  0  0  0  0  0  0  0  0  0  0  0
   11.8276    8.0845    4.6507 C   0  0  0  0  0  0  0  0  0  0  0  0
   12.1017    7.7528    3.2636 O   0  0  0  0  0  0  0  0  0  0  0  0
   15.2580   10.7889    3.7281 C   0  0  2  0  0  0  0  0  0  0  0  0
   14.9351   10.4004    5.0353 O   0  0  0  0  0  0  0  0  0  0  0  0
   16.1067   12.1340    3.7169 C   0  0  1  0  0  0  0  0  0  0  0  0
   12.0243   10.1960    0.5767 N   0  0  0  0  0  0  0  0  0  0  0  0
   16.4010   12.4964    2.1681 C   0  0  1  0  0  0  0  0  0  0  0  0
   17.1489   11.3340    1.5461 O   0  0  0  0  0  0  0  0  0  0  0  0
   15.0044   12.7504    1.3861 C   0  0  2  0  0  0  0  0  0  0  0  0
   14.3142   13.8696    1.9919 O   0  0  0  0  0  0  0  0  0  0  0  0
   14.1477   11.3641    1.4513 C   0  0  1  0  0  0  0  0  0  0  0  0
   13.9587   10.9608    2.8878 O   0  0  0  0  0  0  0  0  0  0  0  0
   12.7532   11.4908    0.7438 C   0  0  0  0  0  0  0  0  0  0  0  0
   15.3646   13.2160    4.4445 N   0  0  0  0  0  0  0  0  0  0  0  0
  1  2  1  6  0  0  0
  1  3  1  0  0  0  0
  1 10  1  0  0  0  0
  3  4  1  1  0  0  0
  3  5  1  0  0  0  0
  5  6  1  1  0  0  0
  5  7  1  0  0  0  0
  7  8  1  6  0  0  0
  7  9  1  0  0  0  0
  9 10  1  0  0  0  0
  9 11  1  6  0  0  0
 11 12  1  0  0  0  0
 13 14  1  6  0  0  0
 13 15  1  0  0  0  0
 13 21  1  0  0  0  0
 16 15  1  0  0  0  0
 16 17  1  1  0  0  0
 18  2  1  1  0  0  0
 18 16  1  0  0  0  0
 19 18  1  0  0  0  0
 19 20  1  6  0  0  0
 21 19  1  0  0  0  0
 21 22  1  6  0  0  0
 23 20  1  1  0  0  0
 23 24  1  0  0  0  0
 23 28  1  0  0  0  0
 24 25  1  1  0  0  0
 24 26  1  0  0  0  0
 26 27  1  0  0  0  0
 26 32  1  1  0  0  0
 27 28  1  0  0  0  0
 27 29  1  1  0  0  0
 29 30  1  0  0  0  0
 31 32  1  1  0  0  0
 31 40  1  0  0  0  0
 33 31  1  0  0  0  0
 33 42  1  6  0  0  0
 35 33  1  0  0  0  0
 35 36  1  6  0  0  0
 37 35  1  0  0  0  0
 37 38  1  1  0  0  0
 37 39  1  0  0  0  0
 39 40  1  0  0  0  0
 39 41  1  1  0  0  0
 41 34  1  0  0  0  0
M  END
>  <CHROM.1>
-105.47203373,-65.97983971,74.62482154,-83.89026812,144.71959302,161.60324421
-75.77776174,-179.01047668,170.44298148,13.92129096,9.44008173,7.58701567
-1.55836755,0.98790295,-1.18350043

>  <Name>
2et4_lig

>  <RI>
0

>  <Rbt.Current_Directory>
/home/itssahil/PROJECTS/Mol_Feturizer/New_Systems/rnas/2et4

>  <Rbt.Executable>
rbdock ($Id: //depot/dev/client3/rdock/2013.1/src/exe/rbdock.cxx#4 $)

>  <Rbt.Library>
libRbt.so (2013.1, Build901 2013/11/27)

>  <Rbt.Parameter_File>
/export/apps/rDock/src/rDock_2013.1_src/data/scripts/dock_solv.prm

>  <Rbt.Receptor>
prm/blind_docking_40.prm

>  <SCORE>
15.7849

>  <SCORE.INTER>
-4.17595

>  <SCORE.INTER.CONST>
1

>  <SCORE.INTER.POLAR>
-1.82277

>  <SCORE.INTER.ROT>
9

>  <SCORE.INTER.SOLV>
36.5106

>  <SCORE.INTER.VDW>
-18.4783

>  <SCORE.INTER.norm>
-0.0994273

>  <SCORE.INTRA>
1.20956

>  <SCORE.INTRA.DIHEDRAL>
-4.41539

>  <SCORE.INTRA.DIHEDRAL.0>
21.6909

>  <SCORE.INTRA.POLAR>
0

>  <SCORE.INTRA.POLAR.0>
0

>  <SCORE.INTRA.REPUL>
0

>  <SCORE.INTRA.REPUL.0>
0

>  <SCORE.INTRA.SOLV>
1.47566

>  <SCORE.INTRA.SOLV.lig_0>
-116.606

>  <SCORE.INTRA.VDW>
2.67942

>  <SCORE.INTRA.VDW.0>
-6.01229

>  <SCORE.INTRA.norm>
0.028799

>  <SCORE.RESTR>
18.7513

>  <SCORE.RESTR.CAVITY>
18.7513

>  <SCORE.RESTR.norm>
0.44646

>  <SCORE.SYSTEM>
0

>  <SCORE.SYSTEM.CONST>
0

>  <SCORE.SYSTEM.DIHEDRAL>
0

>  <SCORE.SYSTEM.SOLV>
0

>  <SCORE.SYSTEM.norm>
0

>  <SCORE.heavy>
42

>  <SCORE.norm>
0.375832

>  <RMSD>
9.606

$$$$
2et4_lig
 OpenBabel11021811423D
libRbt.so/2013.1/901 2013/11/27
 42 45  0  0  0  0  0  0  0  0999 V2000
   11.3778    4.0672   10.6377 C   0  0  2  0  0  0  0  0  0  0  0  0
   10.3062    4.7312    9.9647 O   0  0  0  0  0  0  0  0  0  0  0  0
   11.5588    2.6862    9.9574 C   0  0  2  0  0  0  0  0  0  0  0  0
   11.8167    2.8253    8.5468 N   0  0  0  0  0  0  0  0  0  0  0  0
   10.2923    1.8187   10.2120 C   0  0  1  0  0  0  0  0  0  0  0  0
   10.4644    0.5723    9.6132 O   0  0  0  0  0  0  0  0  0  0  0  0
   10.0769    1.7094   11.7584 C   0  0  2  0  0  0  0  0  0  0  0  0
    8.9301    0.9339   12.0360 O   0  0  0  0  0  0  0  0  0  0  0  0
    9.9110    3.1216   12.3971 C   0  0  2  0  0  0  0  0  0  0  0  0
   11.0731    3.8962   12.0866 O   0  0  0  0  0  0  0  0  0  0  0  0
    9.7348    3.0534   13.9494 C   0  0  0  0  0  0  0  0  0  0  0  0
    9.5576    4.3405   14.5265 N   0  0  0  0  0  0  0  0  0  0  0  0
    8.6316    8.7064   10.1843 C   0  0  2  0  0  0  0  0  0  0  0  0
    8.5244   10.1679   10.0933 N   0  0  0  0  0  0  0  0  0  0  0  0
    9.8154    8.3130   11.2217 C   0  0  0  0  0  0  0  0  0  0  0  0
    9.9361    6.7363   11.3048 C   0  0  2  0  0  0  0  0  0  0  0  0
   11.0193    6.3332   12.2190 N   0  0  0  0  0  0  0  0  0  0  0  0
   10.2148    6.1597    9.8757 C   0  0  2  0  0  0  0  0  0  0  0  0
    9.0809    6.5710    8.8793 C   0  0  2  0  0  0  0  0  0  0  0  0
    9.4383    6.0054    7.5942 O   0  0  0  0  0  0  0  0  0  0  0  0
    8.9800    8.1283    8.8029 C   0  0  1  0  0  0  0  0  0  0  0  0
    7.9591    8.4627    7.9245 O   0  0  0  0  0  0  0  0  0  0  0  0
   10.5502    6.3119    6.8829 C   0  0  1  0  0  0  0  0  0  0  0  0
   10.3818    7.6649    6.1437 C   0  0  2  0  0  0  0  0  0  0  0  0
    9.7217    7.5419    4.9173 O   0  0  0  0  0  0  0  0  0  0  0  0
   11.8256    8.1319    6.1518 C   0  0  1  0  0  0  0  0  0  0  0  0
   12.4231    7.6983    7.4978 C   0  0  2  0  0  0  0  0  0  0  0  0
   11.7626    6.4450    7.6729 O   0  0  0  0  0  0  0  0  0  0  0  0
   12.1583    8.6695    8.6984 C   0  0  0  0  0  0  0  0  0  0  0  0
   12.7626    8.0767    9.8784 O   0  0  0  0  0  0  0  0  0  0  0  0
   13.5569    8.1772    4.3849 C   0  0  2  0  0  0  0  0  0  0  0  0
   12.5130    7.4793    5.0071 O   0  0  0  0  0  0  0  0  0  0  0  0
   14.6378    8.6672    5.4438 C   0  0  1  0  0  0  0  0  0  0  0  0
   12.3231   10.9583    1.0331 N   0  0  0  0  0  0  0  0  0  0  0  0
   15.7749    9.4732    4.6228 C   0  0  1  0  0  0  0  0  0  0  0  0
   16.3621    8.5352    3.5870 O   0  0  0  0  0  0  0  0  0  0  0  0
   15.1208   10.7691    3.9024 C   0  0  2  0  0  0  0  0  0  0  0  0
   14.5761   11.6528    4.9115 O   0  0  0  0  0  0  0  0  0  0  0  0
   13.9939   10.2297    2.8540 C   0  0  1  0  0  0  0  0  0  0  0  0
   12.9876    9.3894    3.5910 O   0  0  0  0  0  0  0  0  0  0  0  0
   13.2664   11.4009    2.1053 C   0  0  0  0  0  0  0  0  0  0  0  0
   13.9778    9.4969    6.5053 N   0  0  0  0  0  0  0  0  0  0  0  0
  1  2  1  6  0  0  0
  1  3  1  0  0  0  0
  1 10  1  0  0  0  0
  3  4  1  6  0  0  0
  3  5  1  0  0  0  0
  5  6  1  1  0  0  0
  5  7  1  0  0  0  0
  7  8  1  6  0  0  0
  7  9  1  0  0  0  0
  9 10  1  0  0  0  0
  9 11  1  1  0  0  0
 11 12  1  0  0  0  0
 13 14  1  6  0  0  0
 13 15  1  0  0  0  0
 13 21  1  0  0  0  0
 16 15  1  0  0  0  0
 16 17  1  1  0  0  0
 18  2  1  1  0  0  0
 18 16  1  0  0  0  0
 19 18  1  0  0  0  0
 19 20  1  6  0  0  0
 21 19  1  0  0  0  0
 21 22  1  6  0  0  0
 23 20  1  1  0  0  0
 23 24  1  0  0  0  0
 23 28  1  0  0  0  0
 24 25  1  6  0  0  0
 24 26  1  0  0  0  0
 26 27  1  0  0  0  0
 26 32  1  6  0  0  0
 27 28  1  0  0  0  0
 27 29  1  1  0  0  0
 29 30  1  0  0  0  0
 31 32  1  1  0  0  0
 31 40  1  0  0  0  0
 33 31  1  0  0  0  0
 33 42  1  1  0  0  0
 35 33  1  0  0  0  0
 35 36  1  6  0  0  0
 37 35  1  0  0  0  0
 37 38  1  1  0  0  0
 37 39  1  0  0  0  0
 39 40  1  0  0  0  0
 39 41  1  1  0  0  0
 41 34  1  0  0  0  0
M  END
>  <CHROM.1>
-151.73265551,-178.85283579,-67.98878143,-62.12547743,-78.44804647,148.52750727
178.45213889,52.24231553,174.07575015,11.41285882,6.80039489,8.06699072,-2.14513944
0.87431065,-0.42025311

>  <Name>
2et4_lig

>  <RI>
3.65815e+07

>  <Rbt.Current_Directory>
/home/itssahil/PROJECTS/Mol_Feturizer/New_Systems/rnas/2et4

>  <Rbt.Executable>
rbdock ($Id: //depot/dev/client3/rdock/2013.1/src/exe/rbdock.cxx#4 $)

>  <Rbt.Library>
libRbt.so (2013.1, Build901 2013/11/27)

>  <Rbt.Parameter_File>
/export/apps/rDock/src/rDock_2013.1_src/data/scripts/dock_solv.prm

>  <Rbt.Receptor>
prm/pocket_docking_4.prm

>  <SCORE>
-10.4513

>  <SCORE.INTER>
-12.1125

>  <SCORE.INTER.CONST>
1

>  <SCORE.INTER.POLAR>
-1.39872

>  <SCORE.INTER.ROT>
9

>  <SCORE.INTER.SOLV>
17.5762

>  <SCORE.INTER.VDW>
-18.8713

>  <SCORE.INTER.norm>
-0.288393

>  <SCORE.INTRA>
1.65451

>  <SCORE.INTRA.DIHEDRAL>
-12.0771

>  <SCORE.INTRA.DIHEDRAL.0>
21.6909

>  <SCORE.INTRA.POLAR>
0

>  <SCORE.INTRA.POLAR.0>
0

>  <SCORE.INTRA.REPUL>
0

>  <SCORE.INTRA.REPUL.0>
0

>  <SCORE.INTRA.SOLV>
6.19388

>  <SCORE.INTRA.SOLV.lig_0>
-116.606

>  <SCORE.INTRA.VDW>
4.59611

>  <SCORE.INTRA.VDW.0>
-6.01229

>  <SCORE.INTRA.norm>
0.0393932

>  <SCORE.RESTR>
0.00664916

>  <SCORE.RESTR.CAVITY>
0.00664916

>  <SCORE.RESTR.norm>
0.000158313

>  <SCORE.SYSTEM>
0

>  <SCORE.SYSTEM.CONST>
0

>  <SCORE.SYSTEM.DIHEDRAL>
0

>  <SCORE.SYSTEM.SOLV>
0

>  <SCORE.SYSTEM.norm>
0

>  <SCORE.heavy>
42

>  <SCORE.norm>
-0.248841

>  <RMSD>
9.627

$$$$
2et4_lig
 OpenBabel11021811423D
libRbt.so/2013.1/901 2013/11/27
 42 45  0  0  0  0  0  0  0  0999 V2000
    7.5490    4.3330    9.0523 C   0  0  2  0  0  0  0  0  0  0  0  0
    7.3529    5.6948    9.4386 O   0  0  0  0  0  0  0  0  0  0  0  0
    7.3383    4.2581    7.5185 C   0  0  2  0  0  0  0  0  0  0  0  0
    8.2329    5.1466    6.8214 N   0  0  0  0  0  0  0  0  0  0  0  0
    5.8536    4.5860    7.1877 C   0  0  1  0  0  0  0  0  0  0  0  0
    5.6632    4.5022    5.8098 O   0  0  0  0  0  0  0  0  0  0  0  0
    4.9443    3.5839    7.9743 C   0  0  2  0  0  0  0  0  0  0  0  0
    3.5835    3.8505    7.7085 O   0  0  0  0  0  0  0  0  0  0  0  0
    5.1999    3.6891    9.5085 C   0  0  2  0  0  0  0  0  0  0  0  0
    6.5866    3.4360    9.7528 O   0  0  0  0  0  0  0  0  0  0  0  0
    4.3371    2.6716   10.3244 C   0  0  0  0  0  0  0  0  0  0  0  0
    4.6545    1.3228   10.0065 N   0  0  0  0  0  0  0  0  0  0  0  0
    8.0483    8.0012   13.0235 C   0  0  2  0  0  0  0  0  0  0  0  0
    8.7526    8.6254   14.1504 N   0  0  0  0  0  0  0  0  0  0  0  0
    8.2219    6.3899   13.1008 C   0  0  0  0  0  0  0  0  0  0  0  0
    7.4727    5.7233   11.8754 C   0  0  2  0  0  0  0  0  0  0  0  0
    7.6261    4.2577   11.8915 N   0  0  0  0  0  0  0  0  0  0  0  0
    8.0512    6.2960   10.5376 C   0  0  2  0  0  0  0  0  0  0  0  0
    7.9035    7.8528   10.4893 C   0  0  2  0  0  0  0  0  0  0  0  0
    8.4773    8.2810    9.2297 O   0  0  0  0  0  0  0  0  0  0  0  0
    8.6542    8.4953   11.6997 C   0  0  1  0  0  0  0  0  0  0  0  0
    8.4944    9.8724   11.6386 O   0  0  0  0  0  0  0  0  0  0  0  0
    9.6809    7.8932    8.7426 C   0  0  1  0  0  0  0  0  0  0  0  0
   10.0937    8.7610    7.5253 C   0  0  2  0  0  0  0  0  0  0  0  0
    9.5450    8.3124    6.3200 O   0  0  0  0  0  0  0  0  0  0  0  0
   11.6009    8.7277    7.6982 C   0  0  1  0  0  0  0  0  0  0  0  0
   11.8741    8.7772    9.2081 C   0  0  2  0  0  0  0  0  0  0  0  0
   10.7817    7.9922    9.6861 O   0  0  0  0  0  0  0  0  0  0  0  0
   11.8864   10.2083    9.8456 C   0  0  0  0  0  0  0  0  0  0  0  0
   13.1598   10.8216    9.5120 O   0  0  0  0  0  0  0  0  0  0  0  0
   13.0512    7.5567    6.0712 C   0  0  2  0  0  0  0  0  0  0  0  0
   12.0928    7.4642    7.0896 O   0  0  0  0  0  0  0  0  0  0  0  0
   14.4671    7.9966    6.6469 C   0  0  1  0  0  0  0  0  0  0  0  0
   11.5923    9.3430    2.1782 N   0  0  0  0  0  0  0  0  0  0  0  0
   15.4813    8.0918    5.3903 C   0  0  1  0  0  0  0  0  0  0  0  0
   15.5257    6.7346    4.7169 O   0  0  0  0  0  0  0  0  0  0  0  0
   14.9645    9.2205    4.3486 C   0  0  2  0  0  0  0  0  0  0  0  0
   14.9398   10.5073    5.0117 O   0  0  0  0  0  0  0  0  0  0  0  0
   13.4974    8.7544    3.8099 C   0  0  1  0  0  0  0  0  0  0  0  0
   12.5738    8.5603    4.9809 O   0  0  0  0  0  0  0  0  0  0  0  0
   12.8758    9.7858    2.8043 C   0  0  0  0  0  0  0  0  0  0  0  0
   14.3373    9.2884    7.3986 N   0  0  0  0  0  0  0  0  0  0  0  0
  1  2  1  1  0  0  0
  1  3  1  0  0  0  0
  1 10  1  0  0  0  0
  3  4  1  6  0  0  0
  3  5  1  0  0  0  0
  5  6  1  6  0  0  0
  5  7  1  0  0  0  0
  7  8  1  1  0  0  0
  7  9  1  0  0  0  0
  9 10  1  0  0  0  0
  9 11  1  1  0  0  0
 11 12  1  0  0  0  0
 13 14  1  1  0  0  0
 13 15  1  0  0  0  0
 13 21  1  0  0  0  0
 16 15  1  0  0  0  0
 16 17  1  6  0  0  0
 18  2  1  6  0  0  0
 18 16  1  0  0  0  0
 19 18  1  0  0  0  0
 19 20  1  6  0  0  0
 21 19  1  0  0  0  0
 21 22  1  6  0  0  0
 23 20  1  1  0  0  0
 23 24  1  0  0  0  0
 23 28  1  0  0  0  0
 24 25  1  6  0  0  0
 24 26  1  0  0  0  0
 26 27  1  0  0  0  0
 26 32  1  1  0  0  0
 27 28  1  0  0  0  0
 27 29  1  1  0  0  0
 29 30  1  0  0  0  0
 31 32  1  1  0  0  0
 31 40  1  0  0  0  0
 33 31  1  0  0  0  0
 33 42  1  6  0  0  0
 35 33  1  0  0  0  0
 35 36  1  6  0  0  0
 37 35  1  0  0  0  0
 37 38  1  1  0  0  0
 37 39  1  0  0  0  0
 39 40  1  0  0  0  0
 39 41  1  6  0  0  0
 41 34  1  0  0  0  0
M  END
>  <CHROM.1>
-148.46135123,62.87936376,-72.44395485,-48.09873706,-168.47720131,122.60900073
-77.57304933,71.66352297,174.31594947,9.69759278,7.05674161,8.25506155,2.87539661
0.64688111,1.21442005

>  <Name>
2et4_lig

>  <RI>
0

>  <Rbt.Current_Directory>
/home/itssahil/PROJECTS/Mol_Feturizer/New_Systems/rnas/2et4

>  <Rbt.Executable>
rbdock ($Id: //depot/dev/client3/rdock/2013.1/src/exe/rbdock.cxx#4 $)

>  <Rbt.Library>
libRbt.so (2013.1, Build901 2013/11/27)

>  <Rbt.Parameter_File>
/export/apps/rDock/src/rDock_2013.1_src/data/scripts/dock_solv.prm

>  <Rbt.Receptor>
prm/pocket_docking_6.prm

>  <SCORE>
-12.3039

>  <SCORE.INTER>
-12.5357

>  <SCORE.INTER.CONST>
1

>  <SCORE.INTER.POLAR>
-1.91403

>  <SCORE.INTER.ROT>
9

>  <SCORE.INTER.SOLV>
18.4771

>  <SCORE.INTER.VDW>
-17.736

>  <SCORE.INTER.norm>
-0.298468

>  <SCORE.INTRA>
0.231821

>  <SCORE.INTRA.DIHEDRAL>
-6.64693

>  <SCORE.INTRA.DIHEDRAL.0>
21.6909

>  <SCORE.INTRA.POLAR>
0

>  <SCORE.INTRA.POLAR.0>
0

>  <SCORE.INTRA.REPUL>
0

>  <SCORE.INTRA.REPUL.0>
0

>  <SCORE.INTRA.SOLV>
3.68905

>  <SCORE.INTRA.SOLV.lig_0>
-116.606

>  <SCORE.INTRA.VDW>
1.71076

>  <SCORE.INTRA.VDW.0>
-6.01229

>  <SCORE.INTRA.norm>
0.00551954

>  <SCORE.RESTR>
0

>  <SCORE.RESTR.CAVITY>
0

>  <SCORE.RESTR.norm>
0

>  <SCORE.SYSTEM>
0

>  <SCORE.SYSTEM.CONST>
0

>  <SCORE.SYSTEM.DIHEDRAL>
0

>  <SCORE.SYSTEM.SOLV>
0

>  <SCORE.SYSTEM.norm>
0

>  <SCORE.heavy>
42

>  <SCORE.norm>
-0.292949

>  <RMSD>
9.635

$$$$
2et4_lig
 OpenBabel11021811423D
libRbt.so/2013.1/901 2013/11/27
 42 45  0  0  0  0  0  0  0  0999 V2000
   12.0210    8.8451   15.6426 C   0  0  2  0  0  0  0  0  0  0  0  0
   11.7264    9.5464   14.4328 O   0  0  0  0  0  0  0  0  0  0  0  0
   11.0399    7.6480   15.7273 C   0  0  2  0  0  0  0  0  0  0  0  0
   11.1521    6.7941   14.5723 N   0  0  0  0  0  0  0  0  0  0  0  0
    9.5881    8.1845   15.8877 C   0  0  1  0  0  0  0  0  0  0  0  0
    8.7101    7.1064   15.9798 O   0  0  0  0  0  0  0  0  0  0  0  0
    9.5416    9.0978   17.1580 C   0  0  2  0  0  0  0  0  0  0  0  0
    8.2398    9.6139   17.3384 O   0  0  0  0  0  0  0  0  0  0  0  0
   10.5510   10.2787   17.0300 C   0  0  2  0  0  0  0  0  0  0  0  0
   11.8584    9.7343   16.8276 O   0  0  0  0  0  0  0  0  0  0  0  0
   10.5616   11.1900   18.3008 C   0  0  0  0  0  0  0  0  0  0  0  0
    9.3099   11.8296   18.5130 N   0  0  0  0  0  0  0  0  0  0  0  0
   13.1089   12.8028   11.9550 C   0  0  2  0  0  0  0  0  0  0  0  0
   13.8141   14.0228   11.5427 N   0  0  0  0  0  0  0  0  0  0  0  0
   12.1074   13.1447   13.1849 C   0  0  0  0  0  0  0  0  0  0  0  0
   11.3605   11.8230   13.6347 C   0  0  2  0  0  0  0  0  0  0  0  0
   10.4569   12.0825   14.7696 N   0  0  0  0  0  0  0  0  0  0  0  0
   12.4170   10.7414   14.0429 C   0  0  2  0  0  0  0  0  0  0  0  0
   13.3936   10.4429   12.8576 C   0  0  2  0  0  0  0  0  0  0  0  0
   14.3322    9.4498   13.3389 O   0  0  0  0  0  0  0  0  0  0  0  0
   14.1278   11.7546   12.4311 C   0  0  1  0  0  0  0  0  0  0  0  0
   14.9747   11.4626   11.3713 O   0  0  0  0  0  0  0  0  0  0  0  0
   14.6090    8.2707   12.7310 C   0  0  1  0  0  0  0  0  0  0  0  0
   14.2487    7.0739   13.6492 C   0  0  2  0  0  0  0  0  0  0  0  0
   15.2610    6.7565   14.5600 O   0  0  0  0  0  0  0  0  0  0  0  0
   13.8742    6.0540   12.5898 C   0  0  1  0  0  0  0  0  0  0  0  0
   13.1511    6.8210   11.4737 C   0  0  2  0  0  0  0  0  0  0  0  0
   13.8913    8.0415   11.4884 O   0  0  0  0  0  0  0  0  0  0  0  0
   11.6206    7.0646   11.7037 C   0  0  0  0  0  0  0  0  0  0  0  0
   11.4398    8.4829   11.9585 O   0  0  0  0  0  0  0  0  0  0  0  0
   15.0351    4.4297   11.1285 C   0  0  2  0  0  0  0  0  0  0  0  0
   15.1330    5.4305   12.1047 O   0  0  0  0  0  0  0  0  0  0  0  0
   14.1572    3.2060   11.6398 C   0  0  1  0  0  0  0  0  0  0  0  0
   18.8905    3.6675    9.0666 N   0  0  0  0  0  0  0  0  0  0  0  0
   14.1314    2.1106   10.4498 C   0  0  1  0  0  0  0  0  0  0  0  0
   13.5457    2.7687    9.2164 O   0  0  0  0  0  0  0  0  0  0  0  0
   15.6355    1.5879   10.1486 C   0  0  2  0  0  0  0  0  0  0  0  0
   16.1688    0.9559   11.3370 O   0  0  0  0  0  0  0  0  0  0  0  0
   16.5131    2.8744    9.6642 C   0  0  1  0  0  0  0  0  0  0  0  0
   16.4568    3.9437   10.7203 O   0  0  0  0  0  0  0  0  0  0  0  0
   18.0062    2.4988    9.3630 C   0  0  0  0  0  0  0  0  0  0  0  0
   14.7210    2.6695   12.9224 N   0  0  0  0  0  0  0  0  0  0  0  0
  1  2  1  6  0  0  0
  1  3  1  0  0  0  0
  1 10  1  0  0  0  0
  3  4  1  6  0  0  0
  3  5  1  0  0  0  0
  5  6  1  1  0  0  0
  5  7  1  0  0  0  0
  7  8  1  6  0  0  0
  7  9  1  0  0  0  0
  9 10  1  0  0  0  0
  9 11  1  1  0  0  0
 11 12  1  0  0  0  0
 13 14  1  1  0  0  0
 13 15  1  0  0  0  0
 13 21  1  0  0  0  0
 16 15  1  0  0  0  0
 16 17  1  1  0  0  0
 18  2  1  6  0  0  0
 18 16  1  0  0  0  0
 19 18  1  0  0  0  0
 19 20  1  1  0  0  0
 21 19  1  0  0  0  0
 21 22  1  6  0  0  0
 23 20  1  1  0  0  0
 23 24  1  0  0  0  0
 23 28  1  0  0  0  0
 24 25  1  6  0  0  0
 24 26  1  0  0  0  0
 26 27  1  0  0  0  0
 26 32  1  6  0  0  0
 27 28  1  0  0  0  0
 27 29  1  1  0  0  0
 29 30  1  0  0  0  0
 31 32  1  1  0  0  0
 31 40  1  0  0  0  0
 33 31  1  0  0  0  0
 33 42  1  1  0  0  0
 35 33  1  0  0  0  0
 35 36  1  6  0  0  0
 37 35  1  0  0  0  0
 37 38  1  1  0  0  0
 37 39  1  0  0  0  0
 39 40  1  0  0  0  0
 39 41  1  1  0  0  0
 41 34  1  0  0  0  0
M  END
>  <CHROM.1>
178.13171166,-63.32088250,-131.20658187,126.88930553,-118.88126937,178.89381260
109.68829488,-59.32710748,-173.35398014,13.12153266,7.65528245,13.19977214
2.33559550,0.81150903,-0.02641671

>  <Name>
2et4_lig

>  <RI>
0

>  <Rbt.Current_Directory>
/home/itssahil/PROJECTS/Mol_Feturizer/New_Systems/rnas/2et4

>  <Rbt.Executable>
rbdock ($Id: //depot/dev/client3/rdock/2013.1/src/exe/rbdock.cxx#4 $)

>  <Rbt.Library>
libRbt.so (2013.1, Build901 2013/11/27)

>  <Rbt.Parameter_File>
/export/apps/rDock/src/rDock_2013.1_src/data/scripts/dock_solv.prm

>  <Rbt.Receptor>
prm/blind_docking_80.prm

>  <SCORE>
20.4794

>  <SCORE.INTER>
-2.68133

>  <SCORE.INTER.CONST>
1

>  <SCORE.INTER.POLAR>
-0.470844

>  <SCORE.INTER.ROT>
9

>  <SCORE.INTER.SOLV>
24.6954

>  <SCORE.INTER.VDW>
-18.0499

>  <SCORE.INTER.norm>
-0.0638411

>  <SCORE.INTRA>
4.77862

>  <SCORE.INTRA.DIHEDRAL>
4.14594

>  <SCORE.INTRA.DIHEDRAL.0>
21.6909

>  <SCORE.INTRA.POLAR>
0

>  <SCORE.INTRA.POLAR.0>
0

>  <SCORE.INTRA.REPUL>
0.0446581

>  <SCORE.INTRA.REPUL.0>
0

>  <SCORE.INTRA.SOLV>
5.01156

>  <SCORE.INTRA.SOLV.lig_0>
-116.606

>  <SCORE.INTRA.VDW>
-0.0234241

>  <SCORE.INTRA.VDW.0>
-6.01229

>  <SCORE.INTRA.norm>
0.113777

>  <SCORE.RESTR>
18.3821

>  <SCORE.RESTR.CAVITY>
18.3821

>  <SCORE.RESTR.norm>
0.437668

>  <SCORE.SYSTEM>
0

>  <SCORE.SYSTEM.CONST>
0

>  <SCORE.SYSTEM.DIHEDRAL>
0

>  <SCORE.SYSTEM.SOLV>
0

>  <SCORE.SYSTEM.norm>
0

>  <SCORE.heavy>
42

>  <SCORE.norm>
0.487604

>  <RMSD>
9.666

$$$$
2et4_lig
 OpenBabel11021811423D
libRbt.so/2013.1/901 2013/11/27
 42 45  0  0  0  0  0  0  0  0999 V2000
    9.1547    4.4335   13.2041 C   0  0  2  0  0  0  0  0  0  0  0  0
    8.8870    5.6094   12.4374 O   0  0  0  0  0  0  0  0  0  0  0  0
   10.5404    4.6282   13.8708 C   0  0  2  0  0  0  0  0  0  0  0  0
   10.5693    5.8165   14.6850 N   0  0  0  0  0  0  0  0  0  0  0  0
   11.6378    4.6781   12.7688 C   0  0  1  0  0  0  0  0  0  0  0  0
   12.8840    4.8370   13.3717 O   0  0  0  0  0  0  0  0  0  0  0  0
   11.5486    3.3601   11.9294 C   0  0  2  0  0  0  0  0  0  0  0  0
   12.5251    3.3659   10.9096 O   0  0  0  0  0  0  0  0  0  0  0  0
   10.1359    3.2042   11.2891 C   0  0  2  0  0  0  0  0  0  0  0  0
    9.1617    3.2214   12.3367 O   0  0  0  0  0  0  0  0  0  0  0  0
    9.9968    1.8758   10.4758 C   0  0  0  0  0  0  0  0  0  0  0  0
    8.6617    1.6484   10.0436 N   0  0  0  0  0  0  0  0  0  0  0  0
    7.3374    4.1600    8.6754 C   0  0  2  0  0  0  0  0  0  0  0  0
    6.5919    4.1200    7.4112 N   0  0  0  0  0  0  0  0  0  0  0  0
    6.3021    4.3528    9.9097 C   0  0  0  0  0  0  0  0  0  0  0  0
    7.1126    4.4097   11.2688 C   0  0  2  0  0  0  0  0  0  0  0  0
    6.2115    4.6103   12.4175 N   0  0  0  0  0  0  0  0  0  0  0  0
    8.1510    5.5804   11.2068 C   0  0  2  0  0  0  0  0  0  0  0  0
    9.1241    5.3969    9.9955 C   0  0  2  0  0  0  0  0  0  0  0  0
   10.0272    6.5296   10.0189 O   0  0  0  0  0  0  0  0  0  0  0  0
    8.3101    5.3505    8.6626 C   0  0  1  0  0  0  0  0  0  0  0  0
    9.1961    5.1734    7.6094 O   0  0  0  0  0  0  0  0  0  0  0  0
   10.6149    7.0882    8.9331 C   0  0  1  0  0  0  0  0  0  0  0  0
   10.1021    8.5342    8.7059 C   0  0  2  0  0  0  0  0  0  0  0  0
    8.9022    8.5850    7.9898 O   0  0  0  0  0  0  0  0  0  0  0  0
   11.3471    9.1433    8.0879 C   0  0  1  0  0  0  0  0  0  0  0  0
   12.5497    8.5198    8.8104 C   0  0  2  0  0  0  0  0  0  0  0  0
   12.0623    7.1928    9.0087 O   0  0  0  0  0  0  0  0  0  0  0  0
   12.9526    9.2010   10.1625 C   0  0  0  0  0  0  0  0  0  0  0  0
   14.3401    8.8610   10.4238 O   0  0  0  0  0  0  0  0  0  0  0  0
   12.4752    9.1258    5.8860 C   0  0  2  0  0  0  0  0  0  0  0  0
   11.3380    8.8069    6.6403 O   0  0  0  0  0  0  0  0  0  0  0  0
   12.2358    8.8587    4.3364 C   0  0  1  0  0  0  0  0  0  0  0  0
   15.9074    6.1915    6.1683 N   0  0  0  0  0  0  0  0  0  0  0  0
   13.6101    9.2373    3.5718 C   0  0  1  0  0  0  0  0  0  0  0  0
   13.9289   10.6894    3.8671 O   0  0  0  0  0  0  0  0  0  0  0  0
   14.8112    8.2806    4.0900 C   0  0  2  0  0  0  0  0  0  0  0  0
   14.4879    6.9020    3.7885 O   0  0  0  0  0  0  0  0  0  0  0  0
   15.0014    8.5548    5.6864 C   0  0  1  0  0  0  0  0  0  0  0  0
   13.6979    8.3071    6.3946 O   0  0  0  0  0  0  0  0  0  0  0  0
   16.1288    7.6629    6.3147 C   0  0  0  0  0  0  0  0  0  0  0  0
   11.8136    7.4355    4.1196 N   0  0  0  0  0  0  0  0  0  0  0  0
  1  2  1  6  0  0  0
  1  3  1  0  0  0  0
  1 10  1  0  0  0  0
  3  4  1  6  0  0  0
  3  5  1  0  0  0  0
  5  6  1  1  0  0  0
  5  7  1  0  0  0  0
  7  8  1  6  0  0  0
  7  9  1  0  0  0  0
  9 10  1  0  0  0  0
  9 11  1  1  0  0  0
 11 12  1  0  0  0  0
 13 14  1  6  0  0  0
 13 15  1  0  0  0  0
 13 21  1  0  0  0  0
 16 15  1  0  0  0  0
 16 17  1  1  0  0  0
 18  2  1  1  0  0  0
 18 16  1  0  0  0  0
 19 18  1  0  0  0  0
 19 20  1  6  0  0  0
 21 19  1  0  0  0  0
 21 22  1  6  0  0  0
 23 20  1  1  0  0  0
 23 24  1  0  0  0  0
 23 28  1  0  0  0  0
 24 25  1  6  0  0  0
 24 26  1  0  0  0  0
 26 27  1  0  0  0  0
 26 32  1  6  0  0  0
 27 28  1  0  0  0  0
 27 29  1  1  0  0  0
 29 30  1  0  0  0  0
 31 32  1  1  0  0  0
 31 40  1  0  0  0  0
 33 31  1  0  0  0  0
 33 42  1  1  0  0  0
 35 33  1  0  0  0  0
 35 36  1  1  0  0  0
 37 35  1  0  0  0  0
 37 38  1  1  0  0  0
 37 39  1  0  0  0  0
 39 40  1  0  0  0  0
 39 41  1  1  0  0  0
 41 34  1  0  0  0  0
M  END
>  <CHROM.1>
146.55878978,172.14977402,30.67129209,-150.09789055,114.27524060,-172.43490318
-158.15942418,-173.30729827,-58.81902063,11.04239858,6.29096466,8.98054900
-2.15838366,-0.34409383,-1.18631032

>  <Name>
2et4_lig

>  <RI>
0

>  <Rbt.Current_Directory>
/home/itssahil/PROJECTS/Mol_Feturizer/New_Systems/rnas/2et4

>  <Rbt.Executable>
rbdock ($Id: //depot/dev/client3/rdock/2013.1/src/exe/rbdock.cxx#4 $)

>  <Rbt.Library>
libRbt.so (2013.1, Build901 2013/11/27)

>  <Rbt.Parameter_File>
/export/apps/rDock/src/rDock_2013.1_src/data/scripts/dock_solv.prm

>  <Rbt.Receptor>
prm/pocket_docking_2.prm

>  <SCORE>
4.35255

>  <SCORE.INTER>
-4.78262

>  <SCORE.INTER.CONST>
1

>  <SCORE.INTER.POLAR>
-0.700133

>  <SCORE.INTER.ROT>
9

>  <SCORE.INTER.SOLV>
8.30511

>  <SCORE.INTER.VDW>
-13.223

>  <SCORE.INTER.norm>
-0.113872

>  <SCORE.INTRA>
5.67091

>  <SCORE.INTRA.DIHEDRAL>
-1.01579

>  <SCORE.INTRA.DIHEDRAL.0>
21.6909

>  <SCORE.INTRA.POLAR>
0

>  <SCORE.INTRA.POLAR.0>
0

>  <SCORE.INTRA.REPUL>
0

>  <SCORE.INTRA.REPUL.0>
0

>  <SCORE.INTRA.SOLV>
2.61016

>  <SCORE.INTRA.SOLV.lig_0>
-116.606

>  <SCORE.INTRA.VDW>
4.87372

>  <SCORE.INTRA.VDW.0>
-6.01229

>  <SCORE.INTRA.norm>
0.135022

>  <SCORE.RESTR>
3.46426

>  <SCORE.RESTR.CAVITY>
3.46426

>  <SCORE.RESTR.norm>
0.0824825

>  <SCORE.SYSTEM>
0

>  <SCORE.SYSTEM.CONST>
0

>  <SCORE.SYSTEM.DIHEDRAL>
0

>  <SCORE.SYSTEM.SOLV>
0

>  <SCORE.SYSTEM.norm>
0

>  <SCORE.heavy>
42

>  <SCORE.norm>
0.103632

>  <RMSD>
9.666

$$$$
2et4_lig
 OpenBabel11021811423D
libRbt.so/2013.1/901 2013/11/27
 42 45  0  0  0  0  0  0  0  0999 V2000
   15.5892    6.6735   10.1634 C   0  0  2  0  0  0  0  0  0  0  0  0
   14.2750    7.1040    9.8034 O   0  0  0  0  0  0  0  0  0  0  0  0
   15.7722    5.2420    9.5977 C   0  0  2  0  0  0  0  0  0  0  0  0
   15.5705    5.2111    8.1715 N   0  0  0  0  0  0  0  0  0  0  0  0
   14.7925    4.2745   10.3226 C   0  0  1  0  0  0  0  0  0  0  0  0
   14.9704    2.9856    9.8236 O   0  0  0  0  0  0  0  0  0  0  0  0
   15.0702    4.3588   11.8607 C   0  0  2  0  0  0  0  0  0  0  0  0
   14.1957    3.4992   12.5605 O   0  0  0  0  0  0  0  0  0  0  0  0
   14.8841    5.8169   12.3793 C   0  0  2  0  0  0  0  0  0  0  0  0
   15.7633    6.6728   11.6437 O   0  0  0  0  0  0  0  0  0  0  0  0
   15.1941    5.9471   13.9066 C   0  0  0  0  0  0  0  0  0  0  0  0
   14.9434    7.2584   14.3952 N   0  0  0  0  0  0  0  0  0  0  0  0
   11.8172   10.6085   10.3799 C   0  0  2  0  0  0  0  0  0  0  0  0
   11.3997   12.0160   10.3984 N   0  0  0  0  0  0  0  0  0  0  0  0
   13.1155   10.4153   11.3335 C   0  0  0  0  0  0  0  0  0  0  0  0
   13.5699    8.8989   11.2983 C   0  0  2  0  0  0  0  0  0  0  0  0
   14.7650    8.6821   12.1328 N   0  0  0  0  0  0  0  0  0  0  0  0
   13.8801    8.4827    9.8207 C   0  0  2  0  0  0  0  0  0  0  0  0
   12.6290    8.7015    8.9071 C   0  0  2  0  0  0  0  0  0  0  0  0
   13.0220    8.3041    7.5704 O   0  0  0  0  0  0  0  0  0  0  0  0
   12.1984   10.2029    8.9467 C   0  0  1  0  0  0  0  0  0  0  0  0
   11.0807   10.3638    8.1402 O   0  0  0  0  0  0  0  0  0  0  0  0
   13.4971    9.1355    6.6116 C   0  0  1  0  0  0  0  0  0  0  0  0
   14.4410    8.3808    5.6394 C   0  0  2  0  0  0  0  0  0  0  0  0
   15.7551    8.2919    6.1086 O   0  0  0  0  0  0  0  0  0  0  0  0
   14.1705    9.1691    4.3712 C   0  0  1  0  0  0  0  0  0  0  0  0
   12.6759    9.5195    4.3786 C   0  0  2  0  0  0  0  0  0  0  0  0
   12.4787    9.7464    5.7741 O   0  0  0  0  0  0  0  0  0  0  0  0
   11.7190    8.4080    3.8278 C   0  0  0  0  0  0  0  0  0  0  0  0
   12.0346    8.2200    2.4228 O   0  0  0  0  0  0  0  0  0  0  0  0
   15.4105   10.9550    3.1904 C   0  0  2  0  0  0  0  0  0  0  0  0
   15.0228   10.3860    4.4110 O   0  0  0  0  0  0  0  0  0  0  0  0
   16.2502   12.2873    3.4134 C   0  0  1  0  0  0  0  0  0  0  0  0
   12.2137   13.1711    0.7725 N   0  0  0  0  0  0  0  0  0  0  0  0
   16.6220   12.8646    1.9488 C   0  0  1  0  0  0  0  0  0  0  0  0
   17.4083   11.8009    1.2088 O   0  0  0  0  0  0  0  0  0  0  0  0
   15.2662   13.2281    1.1388 C   0  0  2  0  0  0  0  0  0  0  0  0
   14.5385   14.2512    1.8597 O   0  0  0  0  0  0  0  0  0  0  0  0
   14.4160   11.8474    0.9628 C   0  0  1  0  0  0  0  0  0  0  0  0
   14.1554   11.2454    2.3162 O   0  0  0  0  0  0  0  0  0  0  0  0
   13.0592   12.0744    0.2086 C   0  0  0  0  0  0  0  0  0  0  0  0
   15.4647   13.2563    4.2469 N   0  0  0  0  0  0  0  0  0  0  0  0
  1  2  1  1  0  0  0
  1  3  1  0  0  0  0
  1 10  1  0  0  0  0
  3  4  1  6  0  0  0
  3  5  1  0  0  0  0
  5  6  1  6  0  0  0
  5  7  1  0  0  0  0
  7  8  1  1  0  0  0
  7  9  1  0  0  0  0
  9 10  1  0  0  0  0
  9 11  1  1  0  0  0
 11 12  1  0  0  0  0
 13 14  1  6  0  0  0
 13 15  1  0  0  0  0
 13 21  1  0  0  0  0
 16 15  1  0  0  0  0
 16 17  1  1  0  0  0
 18  2  1  1  0  0  0
 18 16  1  0  0  0  0
 19 18  1  0  0  0  0
 19 20  1  6  0  0  0
 21 19  1  0  0  0  0
 21 22  1  6  0  0  0
 23 20  1  1  0  0  0
 23 24  1  0  0  0  0
 23 28  1  0  0  0  0
 24 25  1  1  0  0  0
 24 26  1  0  0  0  0
 26 27  1  0  0  0  0
 26 32  1  1  0  0  0
 27 28  1  0  0  0  0
 27 29  1  1  0  0  0
 29 30  1  0  0  0  0
 31 32  1  1  0  0  0
 31 40  1  0  0  0  0
 33 31  1  0  0  0  0
 33 42  1  6  0  0  0
 35 33  1  0  0  0  0
 35 36  1  6  0  0  0
 37 35  1  0  0  0  0
 37 38  1  1  0  0  0
 37 39  1  0  0  0  0
 39 40  1  0  0  0  0
 39 41  1  1  0  0  0
 41 34  1  0  0  0  0
M  END
>  <CHROM.1>
-162.11663100,-176.32348390,-79.22373786,-93.98116478,151.58808237,152.66718628
-64.19937172,176.99187842,-51.49528484,14.16435952,9.03286205,7.07430149
-1.54778637,1.09508138,-1.04735221

>  <Name>
2et4_lig

>  <RI>
0

>  <Rbt.Current_Directory>
/home/itssahil/PROJECTS/Mol_Feturizer/New_Systems/rnas/2et4

>  <Rbt.Executable>
rbdock ($Id: //depot/dev/client3/rdock/2013.1/src/exe/rbdock.cxx#4 $)

>  <Rbt.Library>
libRbt.so (2013.1, Build901 2013/11/27)

>  <Rbt.Parameter_File>
/export/apps/rDock/src/rDock_2013.1_src/data/scripts/dock_solv.prm

>  <Rbt.Receptor>
prm/blind_docking_40.prm

>  <SCORE>
22.2953

>  <SCORE.INTER>
0.774209

>  <SCORE.INTER.CONST>
1

>  <SCORE.INTER.POLAR>
-0.0611632

>  <SCORE.INTER.ROT>
9

>  <SCORE.INTER.SOLV>
32.5139

>  <SCORE.INTER.VDW>
-19.7179

>  <SCORE.INTER.norm>
0.0184336

>  <SCORE.INTRA>
1.94053

>  <SCORE.INTRA.DIHEDRAL>
-7.24739

>  <SCORE.INTRA.DIHEDRAL.0>
21.6909

>  <SCORE.INTRA.POLAR>
0

>  <SCORE.INTRA.POLAR.0>
0

>  <SCORE.INTRA.REPUL>
0

>  <SCORE.INTRA.REPUL.0>
0

>  <SCORE.INTRA.SOLV>
3.49994

>  <SCORE.INTRA.SOLV.lig_0>
-116.606

>  <SCORE.INTRA.VDW>
3.81425

>  <SCORE.INTRA.VDW.0>
-6.01229

>  <SCORE.INTRA.norm>
0.0462031

>  <SCORE.RESTR>
19.5805

>  <SCORE.RESTR.CAVITY>
19.5805

>  <SCORE.RESTR.norm>
0.466203

>  <SCORE.SYSTEM>
0

>  <SCORE.SYSTEM.CONST>
0

>  <SCORE.SYSTEM.DIHEDRAL>
0

>  <SCORE.SYSTEM.SOLV>
0

>  <SCORE.SYSTEM.norm>
0

>  <SCORE.heavy>
42

>  <SCORE.norm>
0.53084

>  <RMSD>
9.669

$$$$
2et4_lig
 OpenBabel11021811423D
libRbt.so/2013.1/901 2013/11/27
 42 45  0  0  0  0  0  0  0  0999 V2000
   11.9483    8.1836    8.1629 C   0  0  2  0  0  0  0  0  0  0  0  0
   12.8531    8.8478    7.2784 O   0  0  0  0  0  0  0  0  0  0  0  0
   11.2088    9.2816    8.9693 C   0  0  2  0  0  0  0  0  0  0  0  0
   10.5258   10.2033    8.0976 N   0  0  0  0  0  0  0  0  0  0  0  0
   12.2285   10.0240    9.8804 C   0  0  1  0  0  0  0  0  0  0  0  0
   11.5584   10.9994   10.6160 O   0  0  0  0  0  0  0  0  0  0  0  0
   12.9269    8.9649   10.7972 C   0  0  2  0  0  0  0  0  0  0  0  0
   13.8690    9.5959   11.6386 O   0  0  0  0  0  0  0  0  0  0  0  0
   13.6463    7.8783    9.9419 C   0  0  2  0  0  0  0  0  0  0  0  0
   12.6789    7.2669    9.0834 O   0  0  0  0  0  0  0  0  0  0  0  0
   14.3213    6.7789   10.8257 C   0  0  0  0  0  0  0  0  0  0  0  0
   13.3660    5.9845   11.5167 N   0  0  0  0  0  0  0  0  0  0  0  0
   15.5055    6.5792    4.7343 C   0  0  2  0  0  0  0  0  0  0  0  0
   16.0575    5.9405    3.5330 N   0  0  0  0  0  0  0  0  0  0  0  0
   14.0317    5.9742    5.0416 C   0  0  0  0  0  0  0  0  0  0  0  0
   13.4355    6.6768    6.3293 C   0  0  2  0  0  0  0  0  0  0  0  0
   12.0833    6.1747    6.6313 N   0  0  0  0  0  0  0  0  0  0  0  0
   13.3803    8.2249    6.0990 C   0  0  2  0  0  0  0  0  0  0  0  0
   14.8029    8.7900    5.7752 C   0  0  2  0  0  0  0  0  0  0  0  0
   14.6411   10.2145    5.5662 O   0  0  0  0  0  0  0  0  0  0  0  0
   15.3734    8.0927    4.4986 C   0  0  1  0  0  0  0  0  0  0  0  0
   16.6387    8.6026    4.2445 O   0  0  0  0  0  0  0  0  0  0  0  0
   13.9988   10.7869    4.5194 C   0  0  1  0  0  0  0  0  0  0  0  0
   14.8016   10.6007    3.2054 C   0  0  2  0  0  0  0  0  0  0  0  0
   15.7958   11.5676    3.0279 O   0  0  0  0  0  0  0  0  0  0  0  0
   13.6503   10.5479    2.2182 C   0  0  1  0  0  0  0  0  0  0  0  0
   12.5096    9.7877    2.9094 C   0  0  2  0  0  0  0  0  0  0  0  0
   12.6749   10.2519    4.2491 O   0  0  0  0  0  0  0  0  0  0  0  0
   12.5876    8.2255    2.8199 C   0  0  0  0  0  0  0  0  0  0  0  0
   11.3885    7.6941    3.4434 O   0  0  0  0  0  0  0  0  0  0  0  0
   12.5822   12.1866    0.7032 C   0  0  2  0  0  0  0  0  0  0  0  0
   13.2679   11.9488    1.9022 O   0  0  0  0  0  0  0  0  0  0  0  0
   13.4886   11.8478   -0.5591 C   0  0  1  0  0  0  0  0  0  0  0  0
    9.9761   16.0342   -1.5440 N   0  0  0  0  0  0  0  0  0  0  0  0
   12.6100   12.1783   -1.8765 C   0  0  1  0  0  0  0  0  0  0  0  0
   11.3498   11.3376   -1.8254 O   0  0  0  0  0  0  0  0  0  0  0  0
   12.2344   13.7545   -1.9078 C   0  0  2  0  0  0  0  0  0  0  0  0
   13.4524   14.5349   -1.9659 O   0  0  0  0  0  0  0  0  0  0  0  0
   11.3389   14.0708   -0.5819 C   0  0  1  0  0  0  0  0  0  0  0  0
   12.1067   13.6680    0.6471 O   0  0  0  0  0  0  0  0  0  0  0  0
   10.9299   15.5823   -0.4850 C   0  0  0  0  0  0  0  0  0  0  0  0
   14.7701   12.6253   -0.4951 N   0  0  0  0  0  0  0  0  0  0  0  0
  1  2  1  6  0  0  0
  1  3  1  0  0  0  0
  1 10  1  0  0  0  0
  3  4  1  6  0  0  0
  3  5  1  0  0  0  0
  5  6  1  1  0  0  0
  5  7  1  0  0  0  0
  7  8  1  1  0  0  0
  7  9  1  0  0  0  0
  9 10  1  0  0  0  0
  9 11  1  1  0  0  0
 11 12  1  0  0  0  0
 13 14  1  6  0  0  0
 13 15  1  0  0  0  0
 13 21  1  0  0  0  0
 16 15  1  0  0  0  0
 16 17  1  6  0  0  0
 18  2  1  1  0  0  0
 18 16  1  0  0  0  0
 19 18  1  0  0  0  0
 19 20  1  6  0  0  0
 21 19  1  0  0  0  0
 21 22  1  1  0  0  0
 23 20  1  1  0  0  0
 23 24  1  0  0  0  0
 23 28  1  0  0  0  0
 24 25  1  6  0  0  0
 24 26  1  0  0  0  0
 26 27  1  0  0  0  0
 26 32  1  1  0  0  0
 27 28  1  0  0  0  0
 27 29  1  1  0  0  0
 29 30  1  0  0  0  0
 31 32  1  1  0  0  0
 31 40  1  0  0  0  0
 33 31  1  0  0  0  0
 33 42  1  1  0  0  0
 35 33  1  0  0  0  0
 35 36  1  1  0  0  0
 37 35  1  0  0  0  0
 37 38  1  1  0  0  0
 37 39  1  0  0  0  0
 39 40  1  0  0  0  0
 39 41  1  1  0  0  0
 41 34  1  0  0  0  0
M  END
>  <CHROM.1>
-159.15073843,67.31435276,-28.32648727,-68.77418354,-69.90368487,157.92109732
-176.13907445,-64.91890200,67.34290367,13.15833819,9.98925951,4.46942499
1.45193334,-0.96297860,1.96348733

>  <Name>
2et4_lig

>  <RI>
1.79929e+07

>  <Rbt.Current_Directory>
/home/itssahil/PROJECTS/Mol_Feturizer/New_Systems/rnas/2et4

>  <Rbt.Executable>
rbdock ($Id: //depot/dev/client3/rdock/2013.1/src/exe/rbdock.cxx#4 $)

>  <Rbt.Library>
libRbt.so (2013.1, Build901 2013/11/27)

>  <Rbt.Parameter_File>
/export/apps/rDock/src/rDock_2013.1_src/data/scripts/dock_solv.prm

>  <Rbt.Receptor>
prm/pocket_docking_7.prm

>  <SCORE>
-20.5362

>  <SCORE.INTER>
-19.417

>  <SCORE.INTER.CONST>
1

>  <SCORE.INTER.POLAR>
-1.54159

>  <SCORE.INTER.ROT>
9

>  <SCORE.INTER.SOLV>
16.614

>  <SCORE.INTER.VDW>
-22.9441

>  <SCORE.INTER.norm>
-0.462311

>  <SCORE.INTRA>
-1.11914

>  <SCORE.INTRA.DIHEDRAL>
-12.1522

>  <SCORE.INTRA.DIHEDRAL.0>
21.6909

>  <SCORE.INTRA.POLAR>
0

>  <SCORE.INTRA.POLAR.0>
0

>  <SCORE.INTRA.REPUL>
0

>  <SCORE.INTRA.REPUL.0>
0

>  <SCORE.INTRA.SOLV>
1.60657

>  <SCORE.INTRA.SOLV.lig_0>
-116.606

>  <SCORE.INTRA.VDW>
4.15366

>  <SCORE.INTRA.VDW.0>
-6.01229

>  <SCORE.INTRA.norm>
-0.0266462

>  <SCORE.RESTR>
0

>  <SCORE.RESTR.CAVITY>
0

>  <SCORE.RESTR.norm>
0

>  <SCORE.SYSTEM>
0

>  <SCORE.SYSTEM.CONST>
0

>  <SCORE.SYSTEM.DIHEDRAL>
0

>  <SCORE.SYSTEM.SOLV>
0

>  <SCORE.SYSTEM.norm>
0

>  <SCORE.heavy>
42

>  <SCORE.norm>
-0.488957

>  <RMSD>
9.709

$$$$
2et4_lig
 OpenBabel11021811423D
libRbt.so/2013.1/901 2013/11/27
 42 45  0  0  0  0  0  0  0  0999 V2000
   11.5197    9.9495   15.4171 C   0  0  2  0  0  0  0  0  0  0  0  0
   10.8933   10.6750   14.3571 O   0  0  0  0  0  0  0  0  0  0  0  0
   12.3742    8.8331   14.7643 C   0  0  2  0  0  0  0  0  0  0  0  0
   13.3401    9.3802   13.8459 N   0  0  0  0  0  0  0  0  0  0  0  0
   11.4347    7.8190   14.0501 C   0  0  1  0  0  0  0  0  0  0  0  0
   12.2042    6.8079   13.4780 O   0  0  0  0  0  0  0  0  0  0  0  0
   10.4188    7.2666   15.1049 C   0  0  2  0  0  0  0  0  0  0  0  0
    9.5391    6.3448   14.4966 O   0  0  0  0  0  0  0  0  0  0  0  0
    9.5922    8.4258   15.7397 C   0  0  2  0  0  0  0  0  0  0  0  0
   10.5027    9.3571   16.3316 O   0  0  0  0  0  0  0  0  0  0  0  0
    8.5943    7.9146   16.8299 C   0  0  0  0  0  0  0  0  0  0  0  0
    7.8730    8.9780   17.4380 N   0  0  0  0  0  0  0  0  0  0  0  0
   11.6330   14.1612   11.9171 C   0  0  2  0  0  0  0  0  0  0  0  0
   12.3428   15.1394   11.0835 N   0  0  0  0  0  0  0  0  0  0  0  0
   12.3345   14.0829   13.3779 C   0  0  0  0  0  0  0  0  0  0  0  0
   11.5740   13.0163   14.2675 C   0  0  2  0  0  0  0  0  0  0  0  0
   12.1951   12.8935   15.5982 N   0  0  0  0  0  0  0  0  0  0  0  0
   11.5985   11.6258   13.5474 C   0  0  2  0  0  0  0  0  0  0  0  0
   10.9453   11.7225   12.1290 C   0  0  2  0  0  0  0  0  0  0  0  0
   11.0311   10.3989   11.5462 O   0  0  0  0  0  0  0  0  0  0  0  0
   11.7115   12.7726   11.2620 C   0  0  1  0  0  0  0  0  0  0  0  0
   11.1026   12.8469   10.0172 O   0  0  0  0  0  0  0  0  0  0  0  0
   11.6048   10.1006   10.3554 C   0  0  1  0  0  0  0  0  0  0  0  0
   11.8041    8.5701   10.2022 C   0  0  2  0  0  0  0  0  0  0  0  0
   12.9801    8.1072   10.8002 O   0  0  0  0  0  0  0  0  0  0  0  0
   11.6551    8.4513    8.6967 C   0  0  1  0  0  0  0  0  0  0  0  0
   10.5667    9.4505    8.2798 C   0  0  2  0  0  0  0  0  0  0  0  0
   10.8424   10.5153    9.1898 O   0  0  0  0  0  0  0  0  0  0  0  0
    9.0924    8.9374    8.4124 C   0  0  0  0  0  0  0  0  0  0  0  0
    8.9612    7.7677    7.5617 O   0  0  0  0  0  0  0  0  0  0  0  0
   13.4683    7.9289    7.0965 C   0  0  2  0  0  0  0  0  0  0  0  0
   12.9705    8.7830    8.0898 O   0  0  0  0  0  0  0  0  0  0  0  0
   14.8250    8.4857    6.4808 C   0  0  1  0  0  0  0  0  0  0  0  0
   11.7923    5.6780    2.7654 N   0  0  0  0  0  0  0  0  0  0  0  0
   15.2923    7.4396    5.3388 C   0  0  1  0  0  0  0  0  0  0  0  0
   15.4648    6.0804    5.9871 O   0  0  0  0  0  0  0  0  0  0  0  0
   14.1750    7.3667    4.1671 C   0  0  2  0  0  0  0  0  0  0  0  0
   14.0355    8.6727    3.5580 O   0  0  0  0  0  0  0  0  0  0  0  0
   12.7915    6.8290    4.8427 C   0  0  1  0  0  0  0  0  0  0  0  0
   12.4035    7.7372    5.9770 O   0  0  0  0  0  0  0  0  0  0  0  0
   11.6176    6.7374    3.8059 C   0  0  0  0  0  0  0  0  0  0  0  0
   14.6191    9.8765    5.9573 N   0  0  0  0  0  0  0  0  0  0  0  0
  1  2  1  6  0  0  0
  1  3  1  0  0  0  0
  1 10  1  0  0  0  0
  3  4  1  6  0  0  0
  3  5  1  0  0  0  0
  5  6  1  1  0  0  0
  5  7  1  0  0  0  0
  7  8  1  6  0  0  0
  7  9  1  0  0  0  0
  9 10  1  0  0  0  0
  9 11  1  1  0  0  0
 11 12  1  0  0  0  0
 13 14  1  6  0  0  0
 13 15  1  0  0  0  0
 13 21  1  0  0  0  0
 16 15  1  0  0  0  0
 16 17  1  1  0  0  0
 18  2  1  1  0  0  0
 18 16  1  0  0  0  0
 19 18  1  0  0  0  0
 19 20  1  6  0  0  0
 21 19  1  0  0  0  0
 21 22  1  6  0  0  0
 23 20  1  1  0  0  0
 23 24  1  0  0  0  0
 23 28  1  0  0  0  0
 24 25  1  6  0  0  0
 24 26  1  0  0  0  0
 26 27  1  0  0  0  0
 26 32  1  6  0  0  0
 27 28  1  0  0  0  0
 27 29  1  1  0  0  0
 29 30  1  0  0  0  0
 31 32  1  1  0  0  0
 31 40  1  0  0  0  0
 33 31  1  0  0  0  0
 33 42  1  6  0  0  0
 35 33  1  0  0  0  0
 35 36  1  1  0  0  0
 37 35  1  0  0  0  0
 37 38  1  1  0  0  0
 37 39  1  0  0  0  0
 39 40  1  0  0  0  0
 39 41  1  6  0  0  0
 41 34  1  0  0  0  0
M  END
>  <CHROM.1>
-76.30496955,178.08385765,-85.90182058,-124.44915802,166.96463308,133.04414279
-60.03324477,175.74648610,68.31480725,11.79305100,9.34965960,10.55043061
2.35185264,1.22279291,0.56821287

>  <Name>
2et4_lig

>  <RI>
0

>  <Rbt.Current_Directory>
/home/itssahil/PROJECTS/Mol_Feturizer/New_Systems/rnas/2et4

>  <Rbt.Executable>
rbdock ($Id: //depot/dev/client3/rdock/2013.1/src/exe/rbdock.cxx#4 $)

>  <Rbt.Library>
libRbt.so (2013.1, Build901 2013/11/27)

>  <Rbt.Parameter_File>
/export/apps/rDock/src/rDock_2013.1_src/data/scripts/dock_solv.prm

>  <Rbt.Receptor>
prm/pocket_docking_8.prm

>  <SCORE>
-7.21014

>  <SCORE.INTER>
-8.17041

>  <SCORE.INTER.CONST>
1

>  <SCORE.INTER.POLAR>
-1.8546

>  <SCORE.INTER.ROT>
9

>  <SCORE.INTER.SOLV>
17.2189

>  <SCORE.INTER.VDW>
-14.6046

>  <SCORE.INTER.norm>
-0.194534

>  <SCORE.INTRA>
0.960273

>  <SCORE.INTRA.DIHEDRAL>
-2.87003

>  <SCORE.INTRA.DIHEDRAL.0>
21.6909

>  <SCORE.INTRA.POLAR>
0

>  <SCORE.INTRA.POLAR.0>
0

>  <SCORE.INTRA.REPUL>
0

>  <SCORE.INTRA.REPUL.0>
0

>  <SCORE.INTRA.SOLV>
-0.00227994

>  <SCORE.INTRA.SOLV.lig_0>
-116.606

>  <SCORE.INTRA.VDW>
2.39643

>  <SCORE.INTRA.VDW.0>
-6.01229

>  <SCORE.INTRA.norm>
0.0228636

>  <SCORE.RESTR>
0

>  <SCORE.RESTR.CAVITY>
0

>  <SCORE.RESTR.norm>
0

>  <SCORE.SYSTEM>
0

>  <SCORE.SYSTEM.CONST>
0

>  <SCORE.SYSTEM.DIHEDRAL>
0

>  <SCORE.SYSTEM.SOLV>
0

>  <SCORE.SYSTEM.norm>
0

>  <SCORE.heavy>
42

>  <SCORE.norm>
-0.17167

>  <RMSD>
9.709

$$$$
2et4_lig
 OpenBabel11021811423D
libRbt.so/2013.1/901 2013/11/27
 42 45  0  0  0  0  0  0  0  0999 V2000
   15.7949    6.3363    5.6703 C   0  0  2  0  0  0  0  0  0  0  0  0
   15.3869    6.4737    7.0330 O   0  0  0  0  0  0  0  0  0  0  0  0
   15.8564    4.8183    5.3626 C   0  0  2  0  0  0  0  0  0  0  0  0
   14.5882    4.1806    5.6088 N   0  0  0  0  0  0  0  0  0  0  0  0
   16.9848    4.1674    6.2136 C   0  0  1  0  0  0  0  0  0  0  0  0
   17.0487    2.8060    5.9230 O   0  0  0  0  0  0  0  0  0  0  0  0
   18.3271    4.9060    5.8933 C   0  0  2  0  0  0  0  0  0  0  0  0
   19.3807    4.3506    6.6517 O   0  0  0  0  0  0  0  0  0  0  0  0
   18.2121    6.4283    6.2086 C   0  0  2  0  0  0  0  0  0  0  0  0
   17.1272    6.9658    5.4465 O   0  0  0  0  0  0  0  0  0  0  0  0
   19.5233    7.2064    5.8613 C   0  0  0  0  0  0  0  0  0  0  0  0
   19.9265    7.0037    4.5132 N   0  0  0  0  0  0  0  0  0  0  0  0
   12.1083    8.8672    8.5083 C   0  0  2  0  0  0  0  0  0  0  0  0
   11.3561   10.0295    8.9971 N   0  0  0  0  0  0  0  0  0  0  0  0
   13.3498    8.5651    9.5081 C   0  0  0  0  0  0  0  0  0  0  0  0
   14.1656    7.3200    8.9684 C   0  0  2  0  0  0  0  0  0  0  0  0
   15.3208    7.0249    9.8345 N   0  0  0  0  0  0  0  0  0  0  0  0
   14.6636    7.6153    7.5133 C   0  0  2  0  0  0  0  0  0  0  0  0
   13.4589    7.9333    6.5670 C   0  0  2  0  0  0  0  0  0  0  0  0
   14.0233    8.2043    5.2605 O   0  0  0  0  0  0  0  0  0  0  0  0
   12.6695    9.1680    7.1089 C   0  0  1  0  0  0  0  0  0  0  0  0
   11.6011    9.4173    6.2591 O   0  0  0  0  0  0  0  0  0  0  0  0
   14.5541    9.3864    4.8640 C   0  0  1  0  0  0  0  0  0  0  0  0
   15.2876    9.2385    3.5054 C   0  0  2  0  0  0  0  0  0  0  0  0
   16.6012    8.7782    3.6381 O   0  0  0  0  0  0  0  0  0  0  0  0
   15.0548   10.6299    2.9465 C   0  0  1  0  0  0  0  0  0  0  0  0
   13.6417   11.0484    3.3764 C   0  0  2  0  0  0  0  0  0  0  0  0
   13.5888   10.4558    4.6740 O   0  0  0  0  0  0  0  0  0  0  0  0
   12.4785   10.5426    2.4566 C   0  0  0  0  0  0  0  0  0  0  0  0
   12.5146    9.0909    2.4691 O   0  0  0  0  0  0  0  0  0  0  0  0
   16.1678   12.8375    3.0431 C   0  0  2  0  0  0  0  0  0  0  0  0
   16.0939   11.5227    3.5227 O   0  0  0  0  0  0  0  0  0  0  0  0
   16.1772   12.8741    1.4530 C   0  0  1  0  0  0  0  0  0  0  0  0
   20.2106   14.8577    3.3916 N   0  0  0  0  0  0  0  0  0  0  0  0
   16.2864   14.4275    1.0149 C   0  0  1  0  0  0  0  0  0  0  0  0
   15.1025   15.1677    1.6047 O   0  0  0  0  0  0  0  0  0  0  0  0
   17.6748   15.0588    1.5627 C   0  0  2  0  0  0  0  0  0  0  0  0
   18.7889   14.3420    0.9786 O   0  0  0  0  0  0  0  0  0  0  0  0
   17.6444   14.9695    3.1909 C   0  0  1  0  0  0  0  0  0  0  0  0
   17.4369   13.5397    3.6089 O   0  0  0  0  0  0  0  0  0  0  0  0
   18.9553   15.5323    3.8438 C   0  0  0  0  0  0  0  0  0  0  0  0
   17.3021   12.0328    0.9263 N   0  0  0  0  0  0  0  0  0  0  0  0
  1  2  1  1  0  0  0
  1  3  1  0  0  0  0
  1 10  1  0  0  0  0
  3  4  1  1  0  0  0
  3  5  1  0  0  0  0
  5  6  1  6  0  0  0
  5  7  1  0  0  0  0
  7  8  1  1  0  0  0
  7  9  1  0  0  0  0
  9 10  1  0  0  0  0
  9 11  1  6  0  0  0
 11 12  1  0  0  0  0
 13 14  1  1  0  0  0
 13 15  1  0  0  0  0
 13 21  1  0  0  0  0
 16 15  1  0  0  0  0
 16 17  1  1  0  0  0
 18  2  1  6  0  0  0
 18 16  1  0  0  0  0
 19 18  1  0  0  0  0
 19 20  1  6  0  0  0
 21 19  1  0  0  0  0
 21 22  1  6  0  0  0
 23 20  1  6  0  0  0
 23 24  1  0  0  0  0
 23 28  1  0  0  0  0
 24 25  1  1  0  0  0
 24 26  1  0  0  0  0
 26 27  1  0  0  0  0
 26 32  1  1  0  0  0
 27 28  1  0  0  0  0
 27 29  1  6  0  0  0
 29 30  1  0  0  0  0
 31 32  1  6  0  0  0
 31 40  1  0  0  0  0
 33 31  1  0  0  0  0
 33 42  1  1  0  0  0
 35 33  1  0  0  0  0
 35 36  1  1  0  0  0
 37 35  1  0  0  0  0
 37 38  1  6  0  0  0
 37 39  1  0  0  0  0
 39 40  1  0  0  0  0
 39 41  1  1  0  0  0
 41 34  1  0  0  0  0
M  END
>  <CHROM.1>
-151.49382487,54.70301096,170.05477934,-81.78058703,169.73968133,173.49122954
60.65563191,-49.01619471,-57.67453449,15.77937081,9.42852612,4.85886128,-1.73081408
0.36076580,-0.47400894

>  <Name>
2et4_lig

>  <RI>
1.79929e+07

>  <Rbt.Current_Directory>
/home/itssahil/PROJECTS/Mol_Feturizer/New_Systems/rnas/2et4

>  <Rbt.Executable>
rbdock ($Id: //depot/dev/client3/rdock/2013.1/src/exe/rbdock.cxx#4 $)

>  <Rbt.Library>
libRbt.so (2013.1, Build901 2013/11/27)

>  <Rbt.Parameter_File>
/export/apps/rDock/src/rDock_2013.1_src/data/scripts/dock_solv.prm

>  <Rbt.Receptor>
prm/pocket_docking_7.prm

>  <SCORE>
-16.0536

>  <SCORE.INTER>
-12.1205

>  <SCORE.INTER.CONST>
1

>  <SCORE.INTER.POLAR>
-0.382778

>  <SCORE.INTER.ROT>
9

>  <SCORE.INTER.SOLV>
21.1967

>  <SCORE.INTER.VDW>
-23.47

>  <SCORE.INTER.norm>
-0.288583

>  <SCORE.INTRA>
-3.93306

>  <SCORE.INTRA.DIHEDRAL>
-14.2158

>  <SCORE.INTRA.DIHEDRAL.0>
21.6909

>  <SCORE.INTRA.POLAR>
0

>  <SCORE.INTRA.POLAR.0>
0

>  <SCORE.INTRA.REPUL>
0

>  <SCORE.INTRA.REPUL.0>
0

>  <SCORE.INTRA.SOLV>
0.532837

>  <SCORE.INTRA.SOLV.lig_0>
-116.606

>  <SCORE.INTRA.VDW>
2.90842

>  <SCORE.INTRA.VDW.0>
-6.01229

>  <SCORE.INTRA.norm>
-0.0936442

>  <SCORE.RESTR>
0

>  <SCORE.RESTR.CAVITY>
0

>  <SCORE.RESTR.norm>
0

>  <SCORE.SYSTEM>
0

>  <SCORE.SYSTEM.CONST>
0

>  <SCORE.SYSTEM.DIHEDRAL>
0

>  <SCORE.SYSTEM.SOLV>
0

>  <SCORE.SYSTEM.norm>
0

>  <SCORE.heavy>
42

>  <SCORE.norm>
-0.382228

>  <RMSD>
9.732

$$$$
2et4_lig
 OpenBabel11021811423D
libRbt.so/2013.1/901 2013/11/27
 42 45  0  0  0  0  0  0  0  0999 V2000
   10.8655    9.6456   15.3185 C   0  0  2  0  0  0  0  0  0  0  0  0
   12.1614    9.0815   15.1074 O   0  0  0  0  0  0  0  0  0  0  0  0
   10.5674    9.5504   16.8366 C   0  0  2  0  0  0  0  0  0  0  0  0
   11.5773   10.2230   17.6135 N   0  0  0  0  0  0  0  0  0  0  0  0
   10.4526    8.0531   17.2442 C   0  0  1  0  0  0  0  0  0  0  0  0
   10.1686    7.9707   18.6060 O   0  0  0  0  0  0  0  0  0  0  0  0
    9.3400    7.3906   16.3650 C   0  0  2  0  0  0  0  0  0  0  0  0
    9.2065    6.0248   16.6974 O   0  0  0  0  0  0  0  0  0  0  0  0
    9.6791    7.5212   14.8491 C   0  0  2  0  0  0  0  0  0  0  0  0
    9.8301    8.9097   14.5390 O   0  0  0  0  0  0  0  0  0  0  0  0
    8.5673    6.9060   13.9377 C   0  0  0  0  0  0  0  0  0  0  0  0
    7.3299    7.5951   14.0610 N   0  0  0  0  0  0  0  0  0  0  0  0
   13.7774   10.4859   11.3562 C   0  0  2  0  0  0  0  0  0  0  0  0
   14.7263   11.0328   10.3785 N   0  0  0  0  0  0  0  0  0  0  0  0
   13.5370   11.5669   12.5420 C   0  0  0  0  0  0  0  0  0  0  0  0
   12.5242   10.9661   13.6007 C   0  0  2  0  0  0  0  0  0  0  0  0
   12.2960   11.9068   14.7118 N   0  0  0  0  0  0  0  0  0  0  0  0
   13.0959    9.6206   14.1623 C   0  0  2  0  0  0  0  0  0  0  0  0
   13.3500    8.5984   13.0054 C   0  0  2  0  0  0  0  0  0  0  0  0
   13.8876    7.4036   13.6238 O   0  0  0  0  0  0  0  0  0  0  0  0
   14.3565    9.2028   11.9743 C   0  0  1  0  0  0  0  0  0  0  0  0
   14.5514    8.2818   10.9548 O   0  0  0  0  0  0  0  0  0  0  0  0
   14.4223    6.3490   12.9618 C   0  0  1  0  0  0  0  0  0  0  0  0
   14.7946    5.2073   13.9433 C   0  0  2  0  0  0  0  0  0  0  0  0
   16.0506    5.3784   14.5333 O   0  0  0  0  0  0  0  0  0  0  0  0
   14.5731    4.0153   13.0307 C   0  0  1  0  0  0  0  0  0  0  0  0
   13.3502    4.3439   12.1629 C   0  0  2  0  0  0  0  0  0  0  0  0
   13.5488    5.7444   11.9702 O   0  0  0  0  0  0  0  0  0  0  0  0
   11.9584    4.0366   12.8132 C   0  0  0  0  0  0  0  0  0  0  0  0
   12.1905    3.7365   14.2151 O   0  0  0  0  0  0  0  0  0  0  0  0
   15.6462    3.5325   10.8543 C   0  0  2  0  0  0  0  0  0  0  0  0
   15.8015    3.8452   12.2116 O   0  0  0  0  0  0  0  0  0  0  0  0
   15.3210    1.9892   10.6492 C   0  0  1  0  0  0  0  0  0  0  0  0
   19.4748    3.7921    8.7599 N   0  0  0  0  0  0  0  0  0  0  0  0
   15.1856    1.7404    9.0566 C   0  0  1  0  0  0  0  0  0  0  0  0
   14.0843    2.6396    8.5312 O   0  0  0  0  0  0  0  0  0  0  0  0
   16.5897    2.0829    8.3235 C   0  0  2  0  0  0  0  0  0  0  0  0
   17.6221    1.2059    8.8347 O   0  0  0  0  0  0  0  0  0  0  0  0
   16.9075    3.6607    8.5871 C   0  0  1  0  0  0  0  0  0  0  0  0
   16.9311    3.9249   10.0675 O   0  0  0  0  0  0  0  0  0  0  0  0
   18.2647    4.1117    7.9421 C   0  0  0  0  0  0  0  0  0  0  0  0
   16.3878    1.1499   11.2882 N   0  0  0  0  0  0  0  0  0  0  0  0
  1  2  1  1  0  0  0
  1  3  1  0  0  0  0
  1 10  1  0  0  0  0
  3  4  1  1  0  0  0
  3  5  1  0  0  0  0
  5  6  1  1  0  0  0
  5  7  1  0  0  0  0
  7  8  1  1  0  0  0
  7  9  1  0  0  0  0
  9 10  1  0  0  0  0
  9 11  1  6  0  0  0
 11 12  1  0  0  0  0
 13 14  1  6  0  0  0
 13 15  1  0  0  0  0
 13 21  1  0  0  0  0
 16 15  1  0  0  0  0
 16 17  1  1  0  0  0
 18  2  1  1  0  0  0
 18 16  1  0  0  0  0
 19 18  1  0  0  0  0
 19 20  1  1  0  0  0
 21 19  1  0  0  0  0
 21 22  1  6  0  0  0
 23 20  1  1  0  0  0
 23 24  1  0  0  0  0
 23 28  1  0  0  0  0
 24 25  1  6  0  0  0
 24 26  1  0  0  0  0
 26 27  1  0  0  0  0
 26 32  1  6  0  0  0
 27 28  1  0  0  0  0
 27 29  1  1  0  0  0
 29 30  1  0  0  0  0
 31 32  1  1  0  0  0
 31 40  1  0  0  0  0
 33 31  1  0  0  0  0
 33 42  1  6  0  0  0
 35 33  1  0  0  0  0
 35 36  1  6  0  0  0
 37 35  1  0  0  0  0
 37 38  1  1  0  0  0
 37 39  1  0  0  0  0
 39 40  1  0  0  0  0
 39 41  1  1  0  0  0
 41 34  1  0  0  0  0
M  END
>  <CHROM.1>
-142.09072064,63.95675685,7.27981232,-169.96274210,-175.64694129,-138.68997842
10.63087876,-78.99159908,-81.94311845,13.45640099,6.40402050,12.82438527
-2.46445764,-0.74763877,-3.06818609

>  <Name>
2et4_lig

>  <RI>
0

>  <Rbt.Current_Directory>
/home/itssahil/PROJECTS/Mol_Feturizer/New_Systems/rnas/2et4

>  <Rbt.Executable>
rbdock ($Id: //depot/dev/client3/rdock/2013.1/src/exe/rbdock.cxx#4 $)

>  <Rbt.Library>
libRbt.so (2013.1, Build901 2013/11/27)

>  <Rbt.Parameter_File>
/export/apps/rDock/src/rDock_2013.1_src/data/scripts/dock_solv.prm

>  <Rbt.Receptor>
prm/blind_docking_100.prm

>  <SCORE>
22.048

>  <SCORE.INTER>
-2.03788

>  <SCORE.INTER.CONST>
1

>  <SCORE.INTER.POLAR>
-0.978369

>  <SCORE.INTER.ROT>
9

>  <SCORE.INTER.SOLV>
33.6859

>  <SCORE.INTER.VDW>
-18.926

>  <SCORE.INTER.norm>
-0.0485209

>  <SCORE.INTRA>
8.50206

>  <SCORE.INTRA.DIHEDRAL>
4.56141

>  <SCORE.INTRA.DIHEDRAL.0>
21.6909

>  <SCORE.INTRA.POLAR>
0

>  <SCORE.INTRA.POLAR.0>
0

>  <SCORE.INTRA.REPUL>
0

>  <SCORE.INTRA.REPUL.0>
0

>  <SCORE.INTRA.SOLV>
1.0311

>  <SCORE.INTRA.SOLV.lig_0>
-116.606

>  <SCORE.INTRA.VDW>
5.70581

>  <SCORE.INTRA.VDW.0>
-6.01229

>  <SCORE.INTRA.norm>
0.20243

>  <SCORE.RESTR>
15.5839

>  <SCORE.RESTR.CAVITY>
15.5839

>  <SCORE.RESTR.norm>
0.371044

>  <SCORE.SYSTEM>
0

>  <SCORE.SYSTEM.CONST>
0

>  <SCORE.SYSTEM.DIHEDRAL>
0

>  <SCORE.SYSTEM.SOLV>
0

>  <SCORE.SYSTEM.norm>
0

>  <SCORE.heavy>
42

>  <SCORE.norm>
0.524953

>  <RMSD>
9.740

$$$$
2et4_lig
 OpenBabel11021811423D
libRbt.so/2013.1/901 2013/11/27
 42 45  0  0  0  0  0  0  0  0999 V2000
   10.6925    8.0839   14.3574 C   0  0  2  0  0  0  0  0  0  0  0  0
   11.8629    8.6417   14.9585 O   0  0  0  0  0  0  0  0  0  0  0  0
    9.5450    9.1069   14.5559 C   0  0  2  0  0  0  0  0  0  0  0  0
    9.8796   10.3882   13.9886 N   0  0  0  0  0  0  0  0  0  0  0  0
    9.2264    9.2328   16.0737 C   0  0  1  0  0  0  0  0  0  0  0  0
    8.1838   10.1407   16.2480 O   0  0  0  0  0  0  0  0  0  0  0  0
    8.8709    7.8093   16.6188 C   0  0  2  0  0  0  0  0  0  0  0  0
    8.5808    7.8755   17.9990 O   0  0  0  0  0  0  0  0  0  0  0  0
   10.0494    6.8157   16.3870 C   0  0  2  0  0  0  0  0  0  0  0  0
   10.3398    6.7796   14.9866 O   0  0  0  0  0  0  0  0  0  0  0  0
    9.7132    5.3711   16.8826 C   0  0  0  0  0  0  0  0  0  0  0  0
    9.2207    5.3623   18.2161 N   0  0  0  0  0  0  0  0  0  0  0  0
   13.9429   10.3411   11.5762 C   0  0  2  0  0  0  0  0  0  0  0  0
   15.0002   10.9796   10.7824 N   0  0  0  0  0  0  0  0  0  0  0  0
   13.4948   11.3325   12.7798 C   0  0  0  0  0  0  0  0  0  0  0  0
   12.3650   10.6330   13.6410 C   0  0  2  0  0  0  0  0  0  0  0  0
   11.9448   11.4899   14.7639 N   0  0  0  0  0  0  0  0  0  0  0  0
   12.9014    9.2697   14.1944 C   0  0  2  0  0  0  0  0  0  0  0  0
   13.3568    8.3355   13.0249 C   0  0  2  0  0  0  0  0  0  0  0  0
   13.8457    7.1176   13.6388 O   0  0  0  0  0  0  0  0  0  0  0  0
   14.4763    9.0365   12.1903 C   0  0  1  0  0  0  0  0  0  0  0  0
   14.8497    8.1921   11.1543 O   0  0  0  0  0  0  0  0  0  0  0  0
   14.3579    6.0536   12.9740 C   0  0  1  0  0  0  0  0  0  0  0  0
   14.7330    4.9129   13.9557 C   0  0  2  0  0  0  0  0  0  0  0  0
   16.0002    5.0729   14.5246 O   0  0  0  0  0  0  0  0  0  0  0  0
   14.4837    3.7188   13.0531 C   0  0  1  0  0  0  0  0  0  0  0  0
   13.2508    4.0566   12.2031 C   0  0  2  0  0  0  0  0  0  0  0  0
   13.4619    5.4537   11.9998 O   0  0  0  0  0  0  0  0  0  0  0  0
   11.8662    3.7684   12.8772 C   0  0  0  0  0  0  0  0  0  0  0  0
   10.8944    3.5866   11.8134 O   0  0  0  0  0  0  0  0  0  0  0  0
   15.5601    3.6555   10.8263 C   0  0  2  0  0  0  0  0  0  0  0  0
   15.6968    3.5306   12.2154 O   0  0  0  0  0  0  0  0  0  0  0  0
   16.1177    2.3712   10.0718 C   0  0  1  0  0  0  0  0  0  0  0  0
   17.7983    7.0866    9.6590 N   0  0  0  0  0  0  0  0  0  0  0  0
   15.9306    2.6336    8.4866 C   0  0  1  0  0  0  0  0  0  0  0  0
   14.4573    2.8689    8.2188 O   0  0  0  0  0  0  0  0  0  0  0  0
   16.7983    3.9257    8.0351 C   0  0  2  0  0  0  0  0  0  0  0  0
   18.2005    3.6730    8.2918 O   0  0  0  0  0  0  0  0  0  0  0  0
   16.2233    5.2125    8.8557 C   0  0  1  0  0  0  0  0  0  0  0  0
   16.2949    4.9361   10.3323 O   0  0  0  0  0  0  0  0  0  0  0  0
   17.0041    6.5313    8.5204 C   0  0  0  0  0  0  0  0  0  0  0  0
   17.5447    2.1242   10.4637 N   0  0  0  0  0  0  0  0  0  0  0  0
  1  2  1  1  0  0  0
  1  3  1  0  0  0  0
  1 10  1  0  0  0  0
  3  4  1  1  0  0  0
  3  5  1  0  0  0  0
  5  6  1  6  0  0  0
  5  7  1  0  0  0  0
  7  8  1  1  0  0  0
  7  9  1  0  0  0  0
  9 10  1  0  0  0  0
  9 11  1  6  0  0  0
 11 12  1  0  0  0  0
 13 14  1  1  0  0  0
 13 15  1  0  0  0  0
 13 21  1  0  0  0  0
 16 15  1  0  0  0  0
 16 17  1  1  0  0  0
 18  2  1  6  0  0  0
 18 16  1  0  0  0  0
 19 18  1  0  0  0  0
 19 20  1  1  0  0  0
 21 19  1  0  0  0  0
 21 22  1  6  0  0  0
 23 20  1  1  0  0  0
 23 24  1  0  0  0  0
 23 28  1  0  0  0  0
 24 25  1  6  0  0  0
 24 26  1  0  0  0  0
 26 27  1  0  0  0  0
 26 32  1  6  0  0  0
 27 28  1  0  0  0  0
 27 29  1  1  0  0  0
 29 30  1  0  0  0  0
 31 32  1  1  0  0  0
 31 40  1  0  0  0  0
 33 31  1  0  0  0  0
 33 42  1  6  0  0  0
 35 33  1  0  0  0  0
 35 36  1  1  0  0  0
 37 35  1  0  0  0  0
 37 38  1  1  0  0  0
 37 39  1  0  0  0  0
 39 40  1  0  0  0  0
 39 41  1  1  0  0  0
 41 34  1  0  0  0  0
M  END
>  <CHROM.1>
-101.19444100,-50.88412752,70.74303774,-178.74527701,-178.04723875,-117.92158316
-155.98303809,-126.14471932,-113.18785700,13.30870248,6.58104566,12.77513448
-2.68701440,-0.77191674,3.11926073

>  <Name>
2et4_lig

>  <RI>
0

>  <Rbt.Current_Directory>
/home/itssahil/PROJECTS/Mol_Feturizer/New_Systems/rnas/2et4

>  <Rbt.Executable>
rbdock ($Id: //depot/dev/client3/rdock/2013.1/src/exe/rbdock.cxx#4 $)

>  <Rbt.Library>
libRbt.so (2013.1, Build901 2013/11/27)

>  <Rbt.Parameter_File>
/export/apps/rDock/src/rDock_2013.1_src/data/scripts/dock_solv.prm

>  <Rbt.Receptor>
prm/blind_docking_100.prm

>  <SCORE>
28.3937

>  <SCORE.INTER>
0.73442

>  <SCORE.INTER.CONST>
1

>  <SCORE.INTER.POLAR>
-1.04038

>  <SCORE.INTER.ROT>
9

>  <SCORE.INTER.SOLV>
31.2764

>  <SCORE.INTER.VDW>
-16.0679

>  <SCORE.INTER.norm>
0.0174862

>  <SCORE.INTRA>
10.5062

>  <SCORE.INTRA.DIHEDRAL>
5.85323

>  <SCORE.INTRA.DIHEDRAL.0>
21.6909

>  <SCORE.INTRA.POLAR>
0

>  <SCORE.INTRA.POLAR.0>
0

>  <SCORE.INTRA.REPUL>
0

>  <SCORE.INTRA.REPUL.0>
0

>  <SCORE.INTRA.SOLV>
3.65326

>  <SCORE.INTRA.SOLV.lig_0>
-116.606

>  <SCORE.INTRA.VDW>
5.753

>  <SCORE.INTRA.VDW.0>
-6.01229

>  <SCORE.INTRA.norm>
0.250149

>  <SCORE.RESTR>
17.153

>  <SCORE.RESTR.CAVITY>
17.153

>  <SCORE.RESTR.norm>
0.408405

>  <SCORE.SYSTEM>
0

>  <SCORE.SYSTEM.CONST>
0

>  <SCORE.SYSTEM.DIHEDRAL>
0

>  <SCORE.SYSTEM.SOLV>
0

>  <SCORE.SYSTEM.norm>
0

>  <SCORE.heavy>
42

>  <SCORE.norm>
0.67604

>  <RMSD>
9.743

$$$$
2et4_lig
 OpenBabel11021811423D
libRbt.so/2013.1/901 2013/11/27
 42 45  0  0  0  0  0  0  0  0999 V2000
   15.3647    6.7653    9.8371 C   0  0  2  0  0  0  0  0  0  0  0  0
   14.0534    7.2646    9.5661 O   0  0  0  0  0  0  0  0  0  0  0  0
   15.4899    5.3968    9.1202 C   0  0  2  0  0  0  0  0  0  0  0  0
   15.2457    5.5205    7.7057 N   0  0  0  0  0  0  0  0  0  0  0  0
   14.5046    4.3839    9.7717 C   0  0  1  0  0  0  0  0  0  0  0  0
   14.6308    3.1503    9.1361 O   0  0  0  0  0  0  0  0  0  0  0  0
   14.8295    4.2996   11.3005 C   0  0  2  0  0  0  0  0  0  0  0  0
   13.9515    3.3940   11.9350 O   0  0  0  0  0  0  0  0  0  0  0  0
   14.7004    5.6997   11.9736 C   0  0  2  0  0  0  0  0  0  0  0  0
   15.5819    6.6053   11.3030 O   0  0  0  0  0  0  0  0  0  0  0  0
   15.0587    5.6614   13.4953 C   0  0  0  0  0  0  0  0  0  0  0  0
   14.9204    6.9351   14.1114 N   0  0  0  0  0  0  0  0  0  0  0  0
   11.7605   10.7347   10.7304 C   0  0  2  0  0  0  0  0  0  0  0  0
   11.3811   12.1402   10.9213 N   0  0  0  0  0  0  0  0  0  0  0  0
   13.1543   10.4390   11.5064 C   0  0  0  0  0  0  0  0  0  0  0  0
   13.5660    8.9261   11.2851 C   0  0  2  0  0  0  0  0  0  0  0  0
   14.8431    8.6191   11.9532 N   0  0  0  0  0  0  0  0  0  0  0  0
   13.6955    8.6411    9.7507 C   0  0  2  0  0  0  0  0  0  0  0  0
   12.3537    8.9580    9.0110 C   0  0  2  0  0  0  0  0  0  0  0  0
   12.5821    8.6779    7.6080 O   0  0  0  0  0  0  0  0  0  0  0  0
   11.9659   10.4553    9.2326 C   0  0  1  0  0  0  0  0  0  0  0  0
   10.7675   10.7031    8.5783 O   0  0  0  0  0  0  0  0  0  0  0  0
   13.2228    9.4956    6.7379 C   0  0  1  0  0  0  0  0  0  0  0  0
   14.4879    8.8098    6.1593 C   0  0  2  0  0  0  0  0  0  0  0  0
   15.6078    8.9360    6.9869 O   0  0  0  0  0  0  0  0  0  0  0  0
   14.5163    9.4605    4.7886 C   0  0  1  0  0  0  0  0  0  0  0  0
   13.0562    9.6020    4.3360 C   0  0  2  0  0  0  0  0  0  0  0  0
   12.4341    9.8993    5.5860 O   0  0  0  0  0  0  0  0  0  0  0  0
   12.4322    8.3330    3.6616 C   0  0  0  0  0  0  0  0  0  0  0  0
   11.6659    8.7836    2.5132 O   0  0  0  0  0  0  0  0  0  0  0  0
   15.1855   11.6392    3.8259 C   0  0  2  0  0  0  0  0  0  0  0  0
   15.1792   10.7825    4.9350 O   0  0  0  0  0  0  0  0  0  0  0  0
   15.4088   10.8332    2.4730 C   0  0  1  0  0  0  0  0  0  0  0  0
   18.9321   14.1908    3.0968 N   0  0  0  0  0  0  0  0  0  0  0  0
   15.4202   11.9164    1.2717 C   0  0  1  0  0  0  0  0  0  0  0  0
   14.0982   12.6576    1.2933 O   0  0  0  0  0  0  0  0  0  0  0  0
   16.6498   12.9524    1.4748 C   0  0  2  0  0  0  0  0  0  0  0  0
   17.8998   12.2228    1.4411 O   0  0  0  0  0  0  0  0  0  0  0  0
   16.4057   13.7312    2.8868 C   0  0  1  0  0  0  0  0  0  0  0  0
   16.2879   12.7249    3.9983 O   0  0  0  0  0  0  0  0  0  0  0  0
   17.5514   14.7530    3.2103 C   0  0  0  0  0  0  0  0  0  0  0  0
   16.6742   10.0315    2.5555 N   0  0  0  0  0  0  0  0  0  0  0  0
  1  2  1  1  0  0  0
  1  3  1  0  0  0  0
  1 10  1  0  0  0  0
  3  4  1  6  0  0  0
  3  5  1  0  0  0  0
  5  6  1  6  0  0  0
  5  7  1  0  0  0  0
  7  8  1  1  0  0  0
  7  9  1  0  0  0  0
  9 10  1  0  0  0  0
  9 11  1  1  0  0  0
 11 12  1  0  0  0  0
 13 14  1  6  0  0  0
 13 15  1  0  0  0  0
 13 21  1  0  0  0  0
 16 15  1  0  0  0  0
 16 17  1  1  0  0  0
 18  2  1  1  0  0  0
 18 16  1  0  0  0  0
 19 18  1  0  0  0  0
 19 20  1  6  0  0  0
 21 19  1  0  0  0  0
 21 22  1  6  0  0  0
 23 20  1  1  0  0  0
 23 24  1  0  0  0  0
 23 28  1  0  0  0  0
 24 25  1  1  0  0  0
 24 26  1  0  0  0  0
 26 27  1  0  0  0  0
 26 32  1  1  0  0  0
 27 28  1  0  0  0  0
 27 29  1  1  0  0  0
 29 30  1  0  0  0  0
 31 32  1  1  0  0  0
 31 40  1  0  0  0  0
 33 31  1  0  0  0  0
 33 42  1  1  0  0  0
 35 33  1  0  0  0  0
 35 36  1  1  0  0  0
 37 35  1  0  0  0  0
 37 38  1  1  0  0  0
 37 39  1  0  0  0  0
 39 40  1  0  0  0  0
 39 41  1  1  0  0  0
 41 34  1  0  0  0  0
M  END
>  <CHROM.1>
-162.69165141,-179.09287787,-73.98846039,-79.37738381,118.89248407,-172.81253450
-137.48194246,-38.72998102,-50.03882242,14.45738856,9.16089940,7.18793739
-1.90653944,1.08819695,-0.67873497

>  <Name>
2et4_lig

>  <RI>
0

>  <Rbt.Current_Directory>
/home/itssahil/PROJECTS/Mol_Feturizer/New_Systems/rnas/2et4

>  <Rbt.Executable>
rbdock ($Id: //depot/dev/client3/rdock/2013.1/src/exe/rbdock.cxx#4 $)

>  <Rbt.Library>
libRbt.so (2013.1, Build901 2013/11/27)

>  <Rbt.Parameter_File>
/export/apps/rDock/src/rDock_2013.1_src/data/scripts/dock_solv.prm

>  <Rbt.Receptor>
prm/blind_docking_40.prm

>  <SCORE>
17.8528

>  <SCORE.INTER>
-6.93813

>  <SCORE.INTER.CONST>
1

>  <SCORE.INTER.POLAR>
-0.922786

>  <SCORE.INTER.ROT>
9

>  <SCORE.INTER.SOLV>
26.6915

>  <SCORE.INTER.VDW>
-20.0466

>  <SCORE.INTER.norm>
-0.165194

>  <SCORE.INTRA>
6.19592

>  <SCORE.INTRA.DIHEDRAL>
-3.66772

>  <SCORE.INTRA.DIHEDRAL.0>
21.6909

>  <SCORE.INTRA.POLAR>
0

>  <SCORE.INTRA.POLAR.0>
0

>  <SCORE.INTRA.REPUL>
0

>  <SCORE.INTRA.REPUL.0>
0

>  <SCORE.INTRA.SOLV>
4.98365

>  <SCORE.INTRA.SOLV.lig_0>
-116.606

>  <SCORE.INTRA.VDW>
5.53796

>  <SCORE.INTRA.VDW.0>
-6.01229

>  <SCORE.INTRA.norm>
0.147522

>  <SCORE.RESTR>
18.595

>  <SCORE.RESTR.CAVITY>
18.595

>  <SCORE.RESTR.norm>
0.442738

>  <SCORE.SYSTEM>
0

>  <SCORE.SYSTEM.CONST>
0

>  <SCORE.SYSTEM.DIHEDRAL>
0

>  <SCORE.SYSTEM.SOLV>
0

>  <SCORE.SYSTEM.norm>
0

>  <SCORE.heavy>
42

>  <SCORE.norm>
0.425067

>  <RMSD>
9.748

$$$$
2et4_lig
 OpenBabel11021811423D
libRbt.so/2013.1/901 2013/11/27
 42 45  0  0  0  0  0  0  0  0999 V2000
   11.5399    5.1868   11.8998 C   0  0  2  0  0  0  0  0  0  0  0  0
   10.8540    4.1254   11.2326 O   0  0  0  0  0  0  0  0  0  0  0  0
   12.2363    4.5720   13.1406 C   0  0  2  0  0  0  0  0  0  0  0  0
   13.1321    3.5074   12.7665 N   0  0  0  0  0  0  0  0  0  0  0  0
   11.1547    4.0684   14.1395 C   0  0  1  0  0  0  0  0  0  0  0  0
   11.7833    3.5310   15.2610 O   0  0  0  0  0  0  0  0  0  0  0  0
   10.2240    5.2736   14.5015 C   0  0  2  0  0  0  0  0  0  0  0  0
    9.2199    4.8588   15.4033 O   0  0  0  0  0  0  0  0  0  0  0  0
    9.5563    5.8632   13.2223 C   0  0  2  0  0  0  0  0  0  0  0  0
   10.5899    6.2575   12.3152 O   0  0  0  0  0  0  0  0  0  0  0  0
    8.6502    7.0972   13.5415 C   0  0  0  0  0  0  0  0  0  0  0  0
    9.4045    8.2140   13.9942 N   0  0  0  0  0  0  0  0  0  0  0  0
    7.5455    3.6899    8.4906 C   0  0  2  0  0  0  0  0  0  0  0  0
    6.2115    3.8483    7.8980 N   0  0  0  0  0  0  0  0  0  0  0  0
    7.4079    3.0388    9.9702 C   0  0  0  0  0  0  0  0  0  0  0  0
    8.8480    2.8837   10.6100 C   0  0  2  0  0  0  0  0  0  0  0  0
    8.7686    2.3182   11.9684 N   0  0  0  0  0  0  0  0  0  0  0  0
    9.5463    4.2844   10.6656 C   0  0  2  0  0  0  0  0  0  0  0  0
    9.6461    4.9131    9.2364 C   0  0  2  0  0  0  0  0  0  0  0  0
   10.2879    6.2019    9.3985 O   0  0  0  0  0  0  0  0  0  0  0  0
    8.2174    5.0665    8.6227 C   0  0  1  0  0  0  0  0  0  0  0  0
    8.3380    5.6122    7.3525 O   0  0  0  0  0  0  0  0  0  0  0  0
   10.8977    6.9052    8.4138 C   0  0  1  0  0  0  0  0  0  0  0  0
   11.6364    8.1415    8.9893 C   0  0  2  0  0  0  0  0  0  0  0  0
   10.8010    9.2494    9.1611 O   0  0  0  0  0  0  0  0  0  0  0  0
   12.7761    8.2345    7.9917 C   0  0  1  0  0  0  0  0  0  0  0  0
   13.1791    6.7943    7.6451 C   0  0  2  0  0  0  0  0  0  0  0  0
   11.8983    6.1643    7.6644 O   0  0  0  0  0  0  0  0  0  0  0  0
   14.1783    6.1142    8.6419 C   0  0  0  0  0  0  0  0  0  0  0  0
   15.4158    6.8733    8.6024 O   0  0  0  0  0  0  0  0  0  0  0  0
   12.8087    8.6378    5.5509 C   0  0  2  0  0  0  0  0  0  0  0  0
   12.2700    8.9674    6.8020 O   0  0  0  0  0  0  0  0  0  0  0  0
   14.3980    8.5969    5.5974 C   0  0  1  0  0  0  0  0  0  0  0  0
   12.5047   10.2851    0.6663 N   0  0  0  0  0  0  0  0  0  0  0  0
   14.9070    8.2316    4.1060 C   0  0  1  0  0  0  0  0  0  0  0  0
   14.3040    6.8967    3.7162 O   0  0  0  0  0  0  0  0  0  0  0  0
   14.4418    9.3845    3.0665 C   0  0  2  0  0  0  0  0  0  0  0  0
   15.0373   10.6460    3.4541 O   0  0  0  0  0  0  0  0  0  0  0  0
   12.8113    9.4219    3.0744 C   0  0  1  0  0  0  0  0  0  0  0  0
   12.3239    9.6564    4.4778 O   0  0  0  0  0  0  0  0  0  0  0  0
   12.2352   10.5236    2.1175 C   0  0  0  0  0  0  0  0  0  0  0  0
   14.9313    9.9068    6.0977 N   0  0  0  0  0  0  0  0  0  0  0  0
  1  2  1  1  0  0  0
  1  3  1  0  0  0  0
  1 10  1  0  0  0  0
  3  4  1  6  0  0  0
  3  5  1  0  0  0  0
  5  6  1  1  0  0  0
  5  7  1  0  0  0  0
  7  8  1  1  0  0  0
  7  9  1  0  0  0  0
  9 10  1  0  0  0  0
  9 11  1  1  0  0  0
 11 12  1  0  0  0  0
 13 14  1  1  0  0  0
 13 15  1  0  0  0  0
 13 21  1  0  0  0  0
 16 15  1  0  0  0  0
 16 17  1  1  0  0  0
 18  2  1  6  0  0  0
 18 16  1  0  0  0  0
 19 18  1  0  0  0  0
 19 20  1  1  0  0  0
 21 19  1  0  0  0  0
 21 22  1  6  0  0  0
 23 20  1  1  0  0  0
 23 24  1  0  0  0  0
 23 28  1  0  0  0  0
 24 25  1  6  0  0  0
 24 26  1  0  0  0  0
 26 27  1  0  0  0  0
 26 32  1  6  0  0  0
 27 28  1  0  0  0  0
 27 29  1  1  0  0  0
 29 30  1  0  0  0  0
 31 32  1  1  0  0  0
 31 40  1  0  0  0  0
 33 31  1  0  0  0  0
 33 42  1  6  0  0  0
 35 33  1  0  0  0  0
 35 36  1  6  0  0  0
 37 35  1  0  0  0  0
 37 38  1  1  0  0  0
 37 39  1  0  0  0  0
 39 40  1  0  0  0  0
 39 41  1  6  0  0  0
 41 34  1  0  0  0  0
M  END
>  <CHROM.1>
139.43043507,67.01787775,-154.81756156,160.54325074,-172.28834999,-148.72867666
-63.10181103,-48.38743155,65.74225599,11.37248838,6.54532835,8.84243962,-1.97566834
-0.47612371,-1.27364060

>  <Name>
2et4_lig

>  <RI>
0

>  <Rbt.Current_Directory>
/home/itssahil/PROJECTS/Mol_Feturizer/New_Systems/rnas/2et4

>  <Rbt.Executable>
rbdock ($Id: //depot/dev/client3/rdock/2013.1/src/exe/rbdock.cxx#4 $)

>  <Rbt.Library>
libRbt.so (2013.1, Build901 2013/11/27)

>  <Rbt.Parameter_File>
/export/apps/rDock/src/rDock_2013.1_src/data/scripts/dock_solv.prm

>  <Rbt.Receptor>
prm/pocket_docking_2.prm

>  <SCORE>
4.27219

>  <SCORE.INTER>
1.83283

>  <SCORE.INTER.CONST>
1

>  <SCORE.INTER.POLAR>
-0.638511

>  <SCORE.INTER.ROT>
9

>  <SCORE.INTER.SOLV>
21.3498

>  <SCORE.INTER.VDW>
-13.3663

>  <SCORE.INTER.norm>
0.0436389

>  <SCORE.INTRA>
-1.31515

>  <SCORE.INTRA.DIHEDRAL>
-6.55113

>  <SCORE.INTRA.DIHEDRAL.0>
21.6909

>  <SCORE.INTRA.POLAR>
0

>  <SCORE.INTRA.POLAR.0>
0

>  <SCORE.INTRA.REPUL>
0

>  <SCORE.INTRA.REPUL.0>
0

>  <SCORE.INTRA.SOLV>
-1.16701

>  <SCORE.INTRA.SOLV.lig_0>
-116.606

>  <SCORE.INTRA.VDW>
2.54392

>  <SCORE.INTRA.VDW.0>
-6.01229

>  <SCORE.INTRA.norm>
-0.0313131

>  <SCORE.RESTR>
3.75451

>  <SCORE.RESTR.CAVITY>
3.75451

>  <SCORE.RESTR.norm>
0.0893931

>  <SCORE.SYSTEM>
0

>  <SCORE.SYSTEM.CONST>
0

>  <SCORE.SYSTEM.DIHEDRAL>
0

>  <SCORE.SYSTEM.SOLV>
0

>  <SCORE.SYSTEM.norm>
0

>  <SCORE.heavy>
42

>  <SCORE.norm>
0.101719

>  <RMSD>
9.770

$$$$
2et4_lig
 OpenBabel11021811423D
libRbt.so/2013.1/901 2013/11/27
 42 45  0  0  0  0  0  0  0  0999 V2000
    7.3554    7.2970   13.6575 C   0  0  2  0  0  0  0  0  0  0  0  0
    8.6649    7.2969   13.0854 O   0  0  0  0  0  0  0  0  0  0  0  0
    7.4950    6.7992   15.1188 C   0  0  2  0  0  0  0  0  0  0  0  0
    8.4075    7.6234   15.8696 N   0  0  0  0  0  0  0  0  0  0  0  0
    7.9579    5.3137   15.1130 C   0  0  1  0  0  0  0  0  0  0  0  0
    8.0670    4.8639   16.4273 O   0  0  0  0  0  0  0  0  0  0  0  0
    6.9223    4.4817   14.2852 C   0  0  2  0  0  0  0  0  0  0  0  0
    7.3082    3.1241   14.2474 O   0  0  0  0  0  0  0  0  0  0  0  0
    6.8098    5.0262   12.8289 C   0  0  2  0  0  0  0  0  0  0  0  0
    6.4384    6.4064   12.8911 O   0  0  0  0  0  0  0  0  0  0  0  0
    5.7521    4.2439   11.9835 C   0  0  0  0  0  0  0  0  0  0  0  0
    6.1002    2.8751   11.8218 N   0  0  0  0  0  0  0  0  0  0  0  0
    7.9178    8.0876    8.9055 C   0  0  2  0  0  0  0  0  0  0  0  0
    8.1591    8.4428    7.5015 N   0  0  0  0  0  0  0  0  0  0  0  0
    8.3383    9.3308    9.8595 C   0  0  0  0  0  0  0  0  0  0  0  0
    8.0896    8.9369   11.3729 C   0  0  2  0  0  0  0  0  0  0  0  0
    8.4831   10.0305   12.2788 N   0  0  0  0  0  0  0  0  0  0  0  0
    8.9122    7.6495   11.7174 C   0  0  2  0  0  0  0  0  0  0  0  0
    8.5175    6.4676   10.7713 C   0  0  2  0  0  0  0  0  0  0  0  0
    9.3386    5.3389   11.1596 O   0  0  0  0  0  0  0  0  0  0  0  0
    8.7759    6.8692    9.2836 C   0  0  1  0  0  0  0  0  0  0  0  0
    8.4044    5.8092    8.4686 O   0  0  0  0  0  0  0  0  0  0  0  0
   10.6871    5.2717   11.0440 C   0  0  1  0  0  0  0  0  0  0  0  0
   11.2889    4.3132   12.1044 C   0  0  2  0  0  0  0  0  0  0  0  0
   11.5003    4.9275   13.3425 O   0  0  0  0  0  0  0  0  0  0  0  0
   12.4894    3.8069   11.3264 C   0  0  1  0  0  0  0  0  0  0  0  0
   12.0411    3.6639    9.8651 C   0  0  2  0  0  0  0  0  0  0  0  0
   11.1661    4.7870    9.7605 O   0  0  0  0  0  0  0  0  0  0  0  0
   11.3130    2.3227    9.5103 C   0  0  0  0  0  0  0  0  0  0  0  0
   10.1442    2.2231   10.3665 O   0  0  0  0  0  0  0  0  0  0  0  0
   14.7651    4.6003   10.7667 C   0  0  2  0  0  0  0  0  0  0  0  0
   13.5744    4.8117   11.4749 O   0  0  0  0  0  0  0  0  0  0  0  0
   15.8835    5.6498   11.1880 C   0  0  1  0  0  0  0  0  0  0  0  0
   14.2890    3.5115    6.3927 N   0  0  0  0  0  0  0  0  0  0  0  0
   17.1956    5.3276   10.2986 C   0  0  1  0  0  0  0  0  0  0  0  0
   17.6112    3.8961   10.5733 O   0  0  0  0  0  0  0  0  0  0  0  0
   16.8576    5.5237    8.7258 C   0  0  2  0  0  0  0  0  0  0  0  0
   16.4730    6.8990    8.4875 O   0  0  0  0  0  0  0  0  0  0  0  0
   15.6835    4.4592    8.3410 C   0  0  1  0  0  0  0  0  0  0  0  0
   14.4950    4.6813    9.2355 O   0  0  0  0  0  0  0  0  0  0  0  0
   15.2485    4.5684    6.8376 C   0  0  0  0  0  0  0  0  0  0  0  0
   15.3730    7.0479   11.0002 N   0  0  0  0  0  0  0  0  0  0  0  0
  1  2  1  6  0  0  0
  1  3  1  0  0  0  0
  1 10  1  0  0  0  0
  3  4  1  1  0  0  0
  3  5  1  0  0  0  0
  5  6  1  1  0  0  0
  5  7  1  0  0  0  0
  7  8  1  6  0  0  0
  7  9  1  0  0  0  0
  9 10  1  0  0  0  0
  9 11  1  6  0  0  0
 11 12  1  0  0  0  0
 13 14  1  6  0  0  0
 13 15  1  0  0  0  0
 13 21  1  0  0  0  0
 16 15  1  0  0  0  0
 16 17  1  1  0  0  0
 18  2  1  1  0  0  0
 18 16  1  0  0  0  0
 19 18  1  0  0  0  0
 19 20  1  1  0  0  0
 21 19  1  0  0  0  0
 21 22  1  6  0  0  0
 23 20  1  6  0  0  0
 23 24  1  0  0  0  0
 23 28  1  0  0  0  0
 24 25  1  1  0  0  0
 24 26  1  0  0  0  0
 26 27  1  0  0  0  0
 26 32  1  6  0  0  0
 27 28  1  0  0  0  0
 27 29  1  1  0  0  0
 29 30  1  0  0  0  0
 31 32  1  1  0  0  0
 31 40  1  0  0  0  0
 33 31  1  0  0  0  0
 33 42  1  6  0  0  0
 35 33  1  0  0  0  0
 35 36  1  6  0  0  0
 37 35  1  0  0  0  0
 37 38  1  1  0  0  0
 37 39  1  0  0  0  0
 39 40  1  0  0  0  0
 39 41  1  6  0  0  0
 41 34  1  0  0  0  0
M  END
>  <CHROM.1>
177.34707761,-62.85961834,44.67168138,-65.31325744,152.85080276,-175.99797492
58.59290092,-172.21418765,173.29989236,10.73075156,5.55487446,11.18029529
2.84319286,-0.36180755,2.11907774

>  <Name>
2et4_lig

>  <RI>
1.79929e+07

>  <Rbt.Current_Directory>
/home/itssahil/PROJECTS/Mol_Feturizer/New_Systems/rnas/2et4

>  <Rbt.Executable>
rbdock ($Id: //depot/dev/client3/rdock/2013.1/src/exe/rbdock.cxx#4 $)

>  <Rbt.Library>
libRbt.so (2013.1, Build901 2013/11/27)

>  <Rbt.Parameter_File>
/export/apps/rDock/src/rDock_2013.1_src/data/scripts/dock_solv.prm

>  <Rbt.Receptor>
prm/pocket_docking_7.prm

>  <SCORE>
-11.2475

>  <SCORE.INTER>
-3.4606

>  <SCORE.INTER.CONST>
1

>  <SCORE.INTER.POLAR>
-0.806785

>  <SCORE.INTER.ROT>
9

>  <SCORE.INTER.SOLV>
10.9918

>  <SCORE.INTER.VDW>
-12.8817

>  <SCORE.INTER.norm>
-0.0823951

>  <SCORE.INTRA>
-7.78693

>  <SCORE.INTRA.DIHEDRAL>
-16.6054

>  <SCORE.INTRA.DIHEDRAL.0>
21.6909

>  <SCORE.INTRA.POLAR>
0

>  <SCORE.INTRA.POLAR.0>
0

>  <SCORE.INTRA.REPUL>
0

>  <SCORE.INTRA.REPUL.0>
0

>  <SCORE.INTRA.SOLV>
-1.87936

>  <SCORE.INTRA.SOLV.lig_0>
-116.606

>  <SCORE.INTRA.VDW>
1.45546

>  <SCORE.INTRA.VDW.0>
-6.01229

>  <SCORE.INTRA.norm>
-0.185403

>  <SCORE.RESTR>
0

>  <SCORE.RESTR.CAVITY>
0

>  <SCORE.RESTR.norm>
0

>  <SCORE.SYSTEM>
0

>  <SCORE.SYSTEM.CONST>
0

>  <SCORE.SYSTEM.DIHEDRAL>
0

>  <SCORE.SYSTEM.SOLV>
0

>  <SCORE.SYSTEM.norm>
0

>  <SCORE.heavy>
42

>  <SCORE.norm>
-0.267798

>  <RMSD>
9.775

$$$$
2et4_lig
 OpenBabel11021811423D
libRbt.so/2013.1/901 2013/11/27
 42 45  0  0  0  0  0  0  0  0999 V2000
   15.3962    6.8604   10.7026 C   0  0  2  0  0  0  0  0  0  0  0  0
   14.4976    7.3472    9.7037 O   0  0  0  0  0  0  0  0  0  0  0  0
   16.4629    6.0005    9.9778 C   0  0  2  0  0  0  0  0  0  0  0  0
   17.1495    6.7598    8.9641 N   0  0  0  0  0  0  0  0  0  0  0  0
   15.7801    4.7421    9.3682 C   0  0  1  0  0  0  0  0  0  0  0  0
   16.7438    3.9628    8.7312 O   0  0  0  0  0  0  0  0  0  0  0  0
   15.0598    3.9686   10.5226 C   0  0  2  0  0  0  0  0  0  0  0  0
   14.4184    2.8193   10.0116 O   0  0  0  0  0  0  0  0  0  0  0  0
   14.0062    4.8767   11.2264 C   0  0  2  0  0  0  0  0  0  0  0  0
   14.6729    6.0432   11.7179 O   0  0  0  0  0  0  0  0  0  0  0  0
   13.2950    4.1490   12.4138 C   0  0  0  0  0  0  0  0  0  0  0  0
   12.3330    4.9783   13.0526 N   0  0  0  0  0  0  0  0  0  0  0  0
   11.4539   10.3733   10.1867 C   0  0  2  0  0  0  0  0  0  0  0  0
   10.8179   11.6946   10.2590 N   0  0  0  0  0  0  0  0  0  0  0  0
   12.6203   10.2707   11.3098 C   0  0  0  0  0  0  0  0  0  0  0  0
   13.3123    8.8494   11.2176 C   0  0  2  0  0  0  0  0  0  0  0  0
   14.3982    8.7213   12.2054 N   0  0  0  0  0  0  0  0  0  0  0  0
   13.8884    8.6436    9.7759 C   0  0  2  0  0  0  0  0  0  0  0  0
   12.7584    8.7739    8.7017 C   0  0  2  0  0  0  0  0  0  0  0  0
   13.3928    8.5837    7.4131 O   0  0  0  0  0  0  0  0  0  0  0  0
   12.0915   10.1835    8.8007 C   0  0  1  0  0  0  0  0  0  0  0  0
   11.0862   10.2649    7.8476 O   0  0  0  0  0  0  0  0  0  0  0  0
   13.3078    9.4351    6.3624 C   0  0  1  0  0  0  0  0  0  0  0  0
   14.4921    9.2285    5.3824 C   0  0  2  0  0  0  0  0  0  0  0  0
   15.6440    9.9260    5.7586 O   0  0  0  0  0  0  0  0  0  0  0  0
   13.8045    9.6022    4.0822 C   0  0  1  0  0  0  0  0  0  0  0  0
   12.3670    9.0714    4.1736 C   0  0  2  0  0  0  0  0  0  0  0  0
   12.1050    9.2949    5.5590 O   0  0  0  0  0  0  0  0  0  0  0  0
   12.1763    7.5670    3.7796 C   0  0  0  0  0  0  0  0  0  0  0  0
   12.5417    7.4346    2.3803 O   0  0  0  0  0  0  0  0  0  0  0  0
   15.0385   11.6813    3.5565 C   0  0  2  0  0  0  0  0  0  0  0  0
   13.8395   11.0836    3.9679 O   0  0  0  0  0  0  0  0  0  0  0  0
   14.7731   13.0703    2.8286 C   0  0  1  0  0  0  0  0  0  0  0  0
   19.0246   10.6000    0.4572 N   0  0  0  0  0  0  0  0  0  0  0  0
   16.2137   13.6543    2.3810 C   0  0  1  0  0  0  0  0  0  0  0  0
   17.0677   13.8054    3.6241 O   0  0  0  0  0  0  0  0  0  0  0  0
   16.9192   12.6389    1.3333 C   0  0  2  0  0  0  0  0  0  0  0  0
   16.0903   12.5188    0.1524 O   0  0  0  0  0  0  0  0  0  0  0  0
   17.1404   11.2178    2.1024 C   0  0  1  0  0  0  0  0  0  0  0  0
   15.8186   10.7167    2.6159 O   0  0  0  0  0  0  0  0  0  0  0  0
   17.7996   10.1354    1.1776 C   0  0  0  0  0  0  0  0  0  0  0  0
   13.8326   12.8750    1.6761 N   0  0  0  0  0  0  0  0  0  0  0  0
  1  2  1  6  0  0  0
  1  3  1  0  0  0  0
  1 10  1  0  0  0  0
  3  4  1  6  0  0  0
  3  5  1  0  0  0  0
  5  6  1  1  0  0  0
  5  7  1  0  0  0  0
  7  8  1  6  0  0  0
  7  9  1  0  0  0  0
  9 10  1  0  0  0  0
  9 11  1  1  0  0  0
 11 12  1  0  0  0  0
 13 14  1  6  0  0  0
 13 15  1  0  0  0  0
 13 21  1  0  0  0  0
 16 15  1  0  0  0  0
 16 17  1  1  0  0  0
 18  2  1  1  0  0  0
 18 16  1  0  0  0  0
 19 18  1  0  0  0  0
 19 20  1  6  0  0  0
 21 19  1  0  0  0  0
 21 22  1  6  0  0  0
 23 20  1  1  0  0  0
 23 24  1  0  0  0  0
 23 28  1  0  0  0  0
 24 25  1  1  0  0  0
 24 26  1  0  0  0  0
 26 27  1  0  0  0  0
 26 32  1  1  0  0  0
 27 28  1  0  0  0  0
 27 29  1  1  0  0  0
 29 30  1  0  0  0  0
 31 32  1  6  0  0  0
 31 40  1  0  0  0  0
 33 31  1  0  0  0  0
 33 42  1  6  0  0  0
 35 33  1  0  0  0  0
 35 36  1  1  0  0  0
 37 35  1  0  0  0  0
 37 38  1  6  0  0  0
 37 39  1  0  0  0  0
 39 40  1  0  0  0  0
 39 41  1  6  0  0  0
 41 34  1  0  0  0  0
M  END
>  <CHROM.1>
-144.91089229,-179.90034225,-47.26734166,-126.58342629,158.14790873,78.23890775
-63.03589234,152.69586625,49.73166075,14.42080819,8.90194954,6.80821127,-1.80800092
0.79414037,-0.83763299

>  <Name>
2et4_lig

>  <RI>
0

>  <Rbt.Current_Directory>
/home/itssahil/PROJECTS/Mol_Feturizer/New_Systems/rnas/2et4

>  <Rbt.Executable>
rbdock ($Id: //depot/dev/client3/rdock/2013.1/src/exe/rbdock.cxx#4 $)

>  <Rbt.Library>
libRbt.so (2013.1, Build901 2013/11/27)

>  <Rbt.Parameter_File>
/export/apps/rDock/src/rDock_2013.1_src/data/scripts/dock_solv.prm

>  <Rbt.Receptor>
prm/blind_docking_40.prm

>  <SCORE>
22.585

>  <SCORE.INTER>
1.13476

>  <SCORE.INTER.CONST>
1

>  <SCORE.INTER.POLAR>
0

>  <SCORE.INTER.ROT>
9

>  <SCORE.INTER.SOLV>
31.3063

>  <SCORE.INTER.VDW>
-19.2789

>  <SCORE.INTER.norm>
0.0270182

>  <SCORE.INTRA>
3.32346

>  <SCORE.INTRA.DIHEDRAL>
-2.10431

>  <SCORE.INTRA.DIHEDRAL.0>
21.6909

>  <SCORE.INTRA.POLAR>
0

>  <SCORE.INTRA.POLAR.0>
0

>  <SCORE.INTRA.REPUL>
0

>  <SCORE.INTRA.REPUL.0>
0

>  <SCORE.INTRA.SOLV>
-1.72624

>  <SCORE.INTRA.SOLV.lig_0>
-116.606

>  <SCORE.INTRA.VDW>
5.23874

>  <SCORE.INTRA.VDW.0>
-6.01229

>  <SCORE.INTRA.norm>
0.0791301

>  <SCORE.RESTR>
18.1268

>  <SCORE.RESTR.CAVITY>
18.1268

>  <SCORE.RESTR.norm>
0.431591

>  <SCORE.SYSTEM>
0

>  <SCORE.SYSTEM.CONST>
0

>  <SCORE.SYSTEM.DIHEDRAL>
0

>  <SCORE.SYSTEM.SOLV>
0

>  <SCORE.SYSTEM.norm>
0

>  <SCORE.heavy>
42

>  <SCORE.norm>
0.537739

>  <RMSD>
9.831

$$$$
2et4_lig
 OpenBabel11021811423D
libRbt.so/2013.1/901 2013/11/27
 42 45  0  0  0  0  0  0  0  0999 V2000
    8.9138    5.5145   13.6838 C   0  0  2  0  0  0  0  0  0  0  0  0
    8.0121    6.3959   13.0114 O   0  0  0  0  0  0  0  0  0  0  0  0
    9.7381    6.3738   14.6762 C   0  0  2  0  0  0  0  0  0  0  0  0
    8.8831    7.0731   15.6012 N   0  0  0  0  0  0  0  0  0  0  0  0
   10.6293    7.3678   13.8769 C   0  0  1  0  0  0  0  0  0  0  0  0
   11.3811    8.1278   14.7708 O   0  0  0  0  0  0  0  0  0  0  0  0
   11.5288    6.5407   12.8988 C   0  0  2  0  0  0  0  0  0  0  0  0
   12.3518    7.4061   12.1456 O   0  0  0  0  0  0  0  0  0  0  0  0
   10.6561    5.6867   11.9299 C   0  0  2  0  0  0  0  0  0  0  0  0
    9.8166    4.8331   12.7132 O   0  0  0  0  0  0  0  0  0  0  0  0
   11.5229    4.8142   10.9641 C   0  0  0  0  0  0  0  0  0  0  0  0
   12.3665    5.6055   10.1375 N   0  0  0  0  0  0  0  0  0  0  0  0
    6.0849    3.8134   10.1354 C   0  0  2  0  0  0  0  0  0  0  0  0
    5.1265    3.3359    9.1309 N   0  0  0  0  0  0  0  0  0  0  0  0
    5.3026    4.1422   11.5182 C   0  0  0  0  0  0  0  0  0  0  0  0
    6.3385    4.6703   12.5930 C   0  0  2  0  0  0  0  0  0  0  0  0
    5.6656    5.0065   13.8602 N   0  0  0  0  0  0  0  0  0  0  0  0
    7.0672    5.9389   12.0340 C   0  0  2  0  0  0  0  0  0  0  0  0
    7.7927    5.6148   10.6863 C   0  0  2  0  0  0  0  0  0  0  0  0
    8.4172    6.8469   10.2494 O   0  0  0  0  0  0  0  0  0  0  0  0
    6.7563    5.1028    9.6350 C   0  0  1  0  0  0  0  0  0  0  0  0
    7.4291    4.8107    8.4570 O   0  0  0  0  0  0  0  0  0  0  0  0
    9.0020    7.0466    9.0434 C   0  0  1  0  0  0  0  0  0  0  0  0
    8.1171    7.9425    8.1380 C   0  0  2  0  0  0  0  0  0  0  0  0
    7.1279    7.2270    7.4565 O   0  0  0  0  0  0  0  0  0  0  0  0
    9.2044    8.6313    7.3342 C   0  0  1  0  0  0  0  0  0  0  0  0
   10.3744    8.8813    8.2961 C   0  0  2  0  0  0  0  0  0  0  0  0
   10.2987    7.7005    9.0948 O   0  0  0  0  0  0  0  0  0  0  0  0
   10.2683   10.1806    9.1652 C   0  0  0  0  0  0  0  0  0  0  0  0
   11.5180   10.3206    9.8918 O   0  0  0  0  0  0  0  0  0  0  0  0
   10.5807    8.1481    5.3358 C   0  0  2  0  0  0  0  0  0  0  0  0
    9.5869    7.7184    6.2255 O   0  0  0  0  0  0  0  0  0  0  0  0
   10.5832    7.2763    4.0055 C   0  0  1  0  0  0  0  0  0  0  0  0
   15.7021    8.8378    5.2931 N   0  0  0  0  0  0  0  0  0  0  0  0
   11.7749    7.8422    3.0695 C   0  0  1  0  0  0  0  0  0  0  0  0
   11.5062    9.3095    2.8003 O   0  0  0  0  0  0  0  0  0  0  0  0
   13.1997    7.6593    3.8197 C   0  0  2  0  0  0  0  0  0  0  0  0
   13.4375    6.2510    4.0569 O   0  0  0  0  0  0  0  0  0  0  0  0
   13.1454    8.5354    5.1942 C   0  0  1  0  0  0  0  0  0  0  0  0
   11.9750    8.0878    6.0259 O   0  0  0  0  0  0  0  0  0  0  0  0
   14.4691    8.4196    6.0282 C   0  0  0  0  0  0  0  0  0  0  0  0
   10.7393    5.8230    4.3439 N   0  0  0  0  0  0  0  0  0  0  0  0
  1  2  1  6  0  0  0
  1  3  1  0  0  0  0
  1 10  1  0  0  0  0
  3  4  1  1  0  0  0
  3  5  1  0  0  0  0
  5  6  1  1  0  0  0
  5  7  1  0  0  0  0
  7  8  1  6  0  0  0
  7  9  1  0  0  0  0
  9 10  1  0  0  0  0
  9 11  1  6  0  0  0
 11 12  1  0  0  0  0
 13 14  1  6  0  0  0
 13 15  1  0  0  0  0
 13 21  1  0  0  0  0
 16 15  1  0  0  0  0
 16 17  1  1  0  0  0
 18  2  1  1  0  0  0
 18 16  1  0  0  0  0
 19 18  1  0  0  0  0
 19 20  1  6  0  0  0
 21 19  1  0  0  0  0
 21 22  1  6  0  0  0
 23 20  1  1  0  0  0
 23 24  1  0  0  0  0
 23 28  1  0  0  0  0
 24 25  1  6  0  0  0
 24 26  1  0  0  0  0
 26 27  1  0  0  0  0
 26 32  1  6  0  0  0
 27 28  1  0  0  0  0
 27 29  1  1  0  0  0
 29 30  1  0  0  0  0
 31 32  1  1  0  0  0
 31 40  1  0  0  0  0
 33 31  1  0  0  0  0
 33 42  1  1  0  0  0
 35 33  1  0  0  0  0
 35 36  1  1  0  0  0
 37 35  1  0  0  0  0
 37 38  1  1  0  0  0
 37 39  1  0  0  0  0
 39 40  1  0  0  0  0
 39 41  1  1  0  0  0
 41 34  1  0  0  0  0
M  END
>  <CHROM.1>
-178.63837980,-60.73161604,46.61987261,-171.06114335,106.30822293,179.67415957
-173.83123210,-163.85090587,57.78102900,9.89182371,6.85288117,9.25721984
-2.08073568,-0.46513440,-1.53355217

>  <Name>
2et4_lig

>  <RI>
3.65815e+07

>  <Rbt.Current_Directory>
/home/itssahil/PROJECTS/Mol_Feturizer/New_Systems/rnas/2et4

>  <Rbt.Executable>
rbdock ($Id: //depot/dev/client3/rdock/2013.1/src/exe/rbdock.cxx#4 $)

>  <Rbt.Library>
libRbt.so (2013.1, Build901 2013/11/27)

>  <Rbt.Parameter_File>
/export/apps/rDock/src/rDock_2013.1_src/data/scripts/dock_solv.prm

>  <Rbt.Receptor>
prm/pocket_docking_4.prm

>  <SCORE>
-11.3445

>  <SCORE.INTER>
-5.9973

>  <SCORE.INTER.CONST>
1

>  <SCORE.INTER.POLAR>
0

>  <SCORE.INTER.ROT>
9

>  <SCORE.INTER.SOLV>
10.1179

>  <SCORE.INTER.VDW>
-16.9708

>  <SCORE.INTER.norm>
-0.142793

>  <SCORE.INTRA>
-5.34724

>  <SCORE.INTRA.DIHEDRAL>
-12.6132

>  <SCORE.INTRA.DIHEDRAL.0>
21.6909

>  <SCORE.INTRA.POLAR>
0

>  <SCORE.INTRA.POLAR.0>
0

>  <SCORE.INTRA.REPUL>
0.0111769

>  <SCORE.INTRA.REPUL.0>
0

>  <SCORE.INTRA.SOLV>
-0.379836

>  <SCORE.INTRA.SOLV.lig_0>
-116.606

>  <SCORE.INTRA.VDW>
1.09338

>  <SCORE.INTRA.VDW.0>
-6.01229

>  <SCORE.INTRA.norm>
-0.127315

>  <SCORE.RESTR>
0

>  <SCORE.RESTR.CAVITY>
0

>  <SCORE.RESTR.norm>
0

>  <SCORE.SYSTEM>
0

>  <SCORE.SYSTEM.CONST>
0

>  <SCORE.SYSTEM.DIHEDRAL>
0

>  <SCORE.SYSTEM.SOLV>
0

>  <SCORE.SYSTEM.norm>
0

>  <SCORE.heavy>
42

>  <SCORE.norm>
-0.270108

>  <RMSD>
9.834

$$$$
2et4_lig
 OpenBabel11021811423D
libRbt.so/2013.1/901 2013/11/27
 42 45  0  0  0  0  0  0  0  0999 V2000
   15.0978    6.9955   11.1742 C   0  0  2  0  0  0  0  0  0  0  0  0
   14.1954    7.4729   10.1742 O   0  0  0  0  0  0  0  0  0  0  0  0
   16.1233    6.0762   10.4630 C   0  0  2  0  0  0  0  0  0  0  0  0
   16.8132    6.7755    9.4091 N   0  0  0  0  0  0  0  0  0  0  0  0
   15.3906    4.8182    9.9137 C   0  0  1  0  0  0  0  0  0  0  0  0
   16.3174    3.9859    9.2891 O   0  0  0  0  0  0  0  0  0  0  0  0
   14.6694    4.1110   11.1094 C   0  0  2  0  0  0  0  0  0  0  0  0
   13.9832    2.9642   10.6538 O   0  0  0  0  0  0  0  0  0  0  0  0
   13.6580    5.0772   11.7975 C   0  0  2  0  0  0  0  0  0  0  0  0
   14.3696    6.2396   12.2325 O   0  0  0  0  0  0  0  0  0  0  0  0
   12.9479    4.4168   13.0243 C   0  0  0  0  0  0  0  0  0  0  0  0
   11.7845    5.1318   13.4199 N   0  0  0  0  0  0  0  0  0  0  0  0
   11.4305   10.7518   10.6829 C   0  0  2  0  0  0  0  0  0  0  0  0
   10.8901   12.1170   10.6810 N   0  0  0  0  0  0  0  0  0  0  0  0
   12.7283   10.6835   11.6540 C   0  0  0  0  0  0  0  0  0  0  0  0
   13.3153    9.2129   11.6409 C   0  0  2  0  0  0  0  0  0  0  0  0
   14.5139    9.1109   12.4920 N   0  0  0  0  0  0  0  0  0  0  0  0
   13.6801    8.8113   10.1718 C   0  0  2  0  0  0  0  0  0  0  0  0
   12.4265    8.9096    9.2408 C   0  0  2  0  0  0  0  0  0  0  0  0
   12.8703    8.5356    7.9134 O   0  0  0  0  0  0  0  0  0  0  0  0
   11.8645   10.3675    9.2589 C   0  0  1  0  0  0  0  0  0  0  0  0
   10.7475   10.4210    8.4373 O   0  0  0  0  0  0  0  0  0  0  0  0
   13.4212    9.3753    7.0036 C   0  0  1  0  0  0  0  0  0  0  0  0
   14.5030    8.6501    6.1614 C   0  0  2  0  0  0  0  0  0  0  0  0
   15.7551    8.6220    6.7831 O   0  0  0  0  0  0  0  0  0  0  0  0
   14.3524    9.4118    4.8576 C   0  0  1  0  0  0  0  0  0  0  0  0
   12.8544    9.6989    4.6837 C   0  0  2  0  0  0  0  0  0  0  0  0
   12.4848    9.9331    6.0425 O   0  0  0  0  0  0  0  0  0  0  0  0
   12.0150    8.5417    4.0424 C   0  0  0  0  0  0  0  0  0  0  0  0
   12.4015    8.4470    2.6457 O   0  0  0  0  0  0  0  0  0  0  0  0
   15.0668   11.5911    3.9294 C   0  0  2  0  0  0  0  0  0  0  0  0
   15.1440   10.6639    4.9774 O   0  0  0  0  0  0  0  0  0  0  0  0
   15.1356   10.8709    2.5129 C   0  0  1  0  0  0  0  0  0  0  0  0
   18.7975   14.0856    3.0511 N   0  0  0  0  0  0  0  0  0  0  0  0
   15.0609   12.0301    1.3871 C   0  0  1  0  0  0  0  0  0  0  0  0
   13.7684   12.7967    1.5853 O   0  0  0  0  0  0  0  0  0  0  0  0
   16.3328   13.0237    1.5332 C   0  0  2  0  0  0  0  0  0  0  0  0
   17.5529   12.2710    1.3308 O   0  0  0  0  0  0  0  0  0  0  0  0
   16.2484   13.7133    3.0087 C   0  0  1  0  0  0  0  0  0  0  0  0
   16.2106   12.6391    4.0607 O   0  0  0  0  0  0  0  0  0  0  0  0
   17.4480   14.6867    3.2818 C   0  0  0  0  0  0  0  0  0  0  0  0
   16.3802   10.0383    2.4198 N   0  0  0  0  0  0  0  0  0  0  0  0
  1  2  1  6  0  0  0
  1  3  1  0  0  0  0
  1 10  1  0  0  0  0
  3  4  1  6  0  0  0
  3  5  1  0  0  0  0
  5  6  1  1  0  0  0
  5  7  1  0  0  0  0
  7  8  1  6  0  0  0
  7  9  1  0  0  0  0
  9 10  1  0  0  0  0
  9 11  1  1  0  0  0
 11 12  1  0  0  0  0
 13 14  1  6  0  0  0
 13 15  1  0  0  0  0
 13 21  1  0  0  0  0
 16 15  1  0  0  0  0
 16 17  1  1  0  0  0
 18  2  1  1  0  0  0
 18 16  1  0  0  0  0
 19 18  1  0  0  0  0
 19 20  1  6  0  0  0
 21 19  1  0  0  0  0
 21 22  1  6  0  0  0
 23 20  1  1  0  0  0
 23 24  1  0  0  0  0
 23 28  1  0  0  0  0
 24 25  1  1  0  0  0
 24 26  1  0  0  0  0
 26 27  1  0  0  0  0
 26 32  1  1  0  0  0
 27 28  1  0  0  0  0
 27 29  1  1  0  0  0
 29 30  1  0  0  0  0
 31 32  1  1  0  0  0
 31 40  1  0  0  0  0
 33 31  1  0  0  0  0
 33 42  1  1  0  0  0
 35 33  1  0  0  0  0
 35 36  1  1  0  0  0
 37 35  1  0  0  0  0
 37 38  1  1  0  0  0
 37 39  1  0  0  0  0
 39 40  1  0  0  0  0
 39 41  1  1  0  0  0
 41 34  1  0  0  0  0
M  END
>  <CHROM.1>
-141.70196680,-163.68332926,-41.47901759,-86.21114878,145.13676845,-174.75165156
-70.18397717,-43.15622483,-52.40462756,14.30492805,9.13212771,7.35076473
-1.84929679,0.85135551,-0.75836852

>  <Name>
2et4_lig

>  <RI>
0

>  <Rbt.Current_Directory>
/home/itssahil/PROJECTS/Mol_Feturizer/New_Systems/rnas/2et4

>  <Rbt.Executable>
rbdock ($Id: //depot/dev/client3/rdock/2013.1/src/exe/rbdock.cxx#4 $)

>  <Rbt.Library>
libRbt.so (2013.1, Build901 2013/11/27)

>  <Rbt.Parameter_File>
/export/apps/rDock/src/rDock_2013.1_src/data/scripts/dock_solv.prm

>  <Rbt.Receptor>
prm/blind_docking_40.prm

>  <SCORE>
14.9128

>  <SCORE.INTER>
-5.94114

>  <SCORE.INTER.CONST>
1

>  <SCORE.INTER.POLAR>
-0.824934

>  <SCORE.INTER.ROT>
9

>  <SCORE.INTER.SOLV>
25.9241

>  <SCORE.INTER.VDW>
-19.4523

>  <SCORE.INTER.norm>
-0.141456

>  <SCORE.INTRA>
3.02614

>  <SCORE.INTRA.DIHEDRAL>
-4.52534

>  <SCORE.INTRA.DIHEDRAL.0>
21.6909

>  <SCORE.INTRA.POLAR>
0

>  <SCORE.INTRA.POLAR.0>
0

>  <SCORE.INTRA.REPUL>
0.139218

>  <SCORE.INTRA.REPUL.0>
0

>  <SCORE.INTRA.SOLV>
0.309771

>  <SCORE.INTRA.SOLV.lig_0>
-116.606

>  <SCORE.INTRA.VDW>
4.43783

>  <SCORE.INTRA.VDW.0>
-6.01229

>  <SCORE.INTRA.norm>
0.0720509

>  <SCORE.RESTR>
17.8278

>  <SCORE.RESTR.CAVITY>
17.8278

>  <SCORE.RESTR.norm>
0.42447

>  <SCORE.SYSTEM>
0

>  <SCORE.SYSTEM.CONST>
0

>  <SCORE.SYSTEM.DIHEDRAL>
0

>  <SCORE.SYSTEM.SOLV>
0

>  <SCORE.SYSTEM.norm>
0

>  <SCORE.heavy>
42

>  <SCORE.norm>
0.355066

>  <RMSD>
9.854

$$$$
2et4_lig
 OpenBabel11021811423D
libRbt.so/2013.1/901 2013/11/27
 42 45  0  0  0  0  0  0  0  0999 V2000
   10.6089    8.4470   14.4051 C   0  0  2  0  0  0  0  0  0  0  0  0
   11.7891    8.9752   15.0135 O   0  0  0  0  0  0  0  0  0  0  0  0
    9.4394    9.3931   14.7790 C   0  0  2  0  0  0  0  0  0  0  0  0
    9.7014   10.7449   14.3552 N   0  0  0  0  0  0  0  0  0  0  0  0
    9.1950    9.3252   16.3142 C   0  0  1  0  0  0  0  0  0  0  0  0
    8.1328   10.1642   16.6453 O   0  0  0  0  0  0  0  0  0  0  0  0
    8.9158    7.8342   16.6997 C   0  0  2  0  0  0  0  0  0  0  0  0
    8.6948    7.7245   18.0899 O   0  0  0  0  0  0  0  0  0  0  0  0
   10.1135    6.9224   16.2949 C   0  0  2  0  0  0  0  0  0  0  0  0
   10.3328    7.0643   14.8883 O   0  0  0  0  0  0  0  0  0  0  0  0
    9.8518    5.4170   16.6279 C   0  0  0  0  0  0  0  0  0  0  0  0
   10.6667    4.5466   15.8537 N   0  0  0  0  0  0  0  0  0  0  0  0
   13.8098   10.8383   11.6818 C   0  0  2  0  0  0  0  0  0  0  0  0
   14.8479   11.5272   10.9050 N   0  0  0  0  0  0  0  0  0  0  0  0
   13.3490   11.7762   12.9229 C   0  0  0  0  0  0  0  0  0  0  0  0
   12.2401   11.0225   13.7652 C   0  0  2  0  0  0  0  0  0  0  0  0
   11.8096   11.8296   14.9206 N   0  0  0  0  0  0  0  0  0  0  0  0
   12.8090    9.6521   14.2661 C   0  0  2  0  0  0  0  0  0  0  0  0
   13.2760    8.7701   13.0612 C   0  0  2  0  0  0  0  0  0  0  0  0
   13.7947    7.5418   13.6280 O   0  0  0  0  0  0  0  0  0  0  0  0
   14.3748    9.5242   12.2455 C   0  0  1  0  0  0  0  0  0  0  0  0
   14.7589    8.7256   11.1776 O   0  0  0  0  0  0  0  0  0  0  0  0
   14.4973    6.6003   12.9527 C   0  0  1  0  0  0  0  0  0  0  0  0
   14.7225    5.3402   13.8285 C   0  0  2  0  0  0  0  0  0  0  0  0
   15.8291    5.4513   14.6758 O   0  0  0  0  0  0  0  0  0  0  0  0
   14.7400    4.2830   12.7399 C   0  0  1  0  0  0  0  0  0  0  0  0
   13.6971    4.7061   11.6958 C   0  0  2  0  0  0  0  0  0  0  0  0
   13.8643    6.1232   11.7347 O   0  0  0  0  0  0  0  0  0  0  0  0
   12.2205    4.2845   12.0070 C   0  0  0  0  0  0  0  0  0  0  0  0
   12.0298    2.9461   11.4767 O   0  0  0  0  0  0  0  0  0  0  0  0
   16.2400    4.1595   10.7762 C   0  0  2  0  0  0  0  0  0  0  0  0
   16.1117    4.2523   12.1687 O   0  0  0  0  0  0  0  0  0  0  0  0
   15.5061    2.8661   10.2121 C   0  0  1  0  0  0  0  0  0  0  0  0
   20.0164    4.5294    7.3197 N   0  0  0  0  0  0  0  0  0  0  0  0
   15.7370    2.8499    8.6111 C   0  0  1  0  0  0  0  0  0  0  0  0
   15.1688    4.1340    8.0402 O   0  0  0  0  0  0  0  0  0  0  0  0
   17.3203    2.7402    8.2832 C   0  0  2  0  0  0  0  0  0  0  0  0
   17.8368    1.5030    8.8297 O   0  0  0  0  0  0  0  0  0  0  0  0
   18.0425    4.0621    8.9083 C   0  0  1  0  0  0  0  0  0  0  0  0
   17.7457    4.1444   10.3804 O   0  0  0  0  0  0  0  0  0  0  0  0
   19.5939    4.0607    8.6753 C   0  0  0  0  0  0  0  0  0  0  0  0
   16.0313    1.6381   10.8956 N   0  0  0  0  0  0  0  0  0  0  0  0
  1  2  1  1  0  0  0
  1  3  1  0  0  0  0
  1 10  1  0  0  0  0
  3  4  1  1  0  0  0
  3  5  1  0  0  0  0
  5  6  1  6  0  0  0
  5  7  1  0  0  0  0
  7  8  1  1  0  0  0
  7  9  1  0  0  0  0
  9 10  1  0  0  0  0
  9 11  1  6  0  0  0
 11 12  1  0  0  0  0
 13 14  1  1  0  0  0
 13 15  1  0  0  0  0
 13 21  1  0  0  0  0
 16 15  1  0  0  0  0
 16 17  1  1  0  0  0
 18  2  1  6  0  0  0
 18 16  1  0  0  0  0
 19 18  1  0  0  0  0
 19 20  1  1  0  0  0
 21 19  1  0  0  0  0
 21 22  1  6  0  0  0
 23 20  1  1  0  0  0
 23 24  1  0  0  0  0
 23 28  1  0  0  0  0
 24 25  1  6  0  0  0
 24 26  1  0  0  0  0
 26 27  1  0  0  0  0
 26 32  1  6  0  0  0
 27 28  1  0  0  0  0
 27 29  1  1  0  0  0
 29 30  1  0  0  0  0
 31 32  1  1  0  0  0
 31 40  1  0  0  0  0
 33 31  1  0  0  0  0
 33 42  1  1  0  0  0
 35 33  1  0  0  0  0
 35 36  1  6  0  0  0
 37 35  1  0  0  0  0
 37 38  1  1  0  0  0
 37 39  1  0  0  0  0
 39 40  1  0  0  0  0
 39 41  1  1  0  0  0
 41 34  1  0  0  0  0
M  END
>  <CHROM.1>
-105.49943268,158.43482417,68.95139007,-168.58818753,-172.35659243,-137.27410333
-86.98251723,-57.44438100,81.41580123,13.56194520,6.59902674,12.68989630
2.59656485,0.72566533,-0.00325642

>  <Name>
2et4_lig

>  <RI>
0

>  <Rbt.Current_Directory>
/home/itssahil/PROJECTS/Mol_Feturizer/New_Systems/rnas/2et4

>  <Rbt.Executable>
rbdock ($Id: //depot/dev/client3/rdock/2013.1/src/exe/rbdock.cxx#4 $)

>  <Rbt.Library>
libRbt.so (2013.1, Build901 2013/11/27)

>  <Rbt.Parameter_File>
/export/apps/rDock/src/rDock_2013.1_src/data/scripts/dock_solv.prm

>  <Rbt.Receptor>
prm/blind_docking_100.prm

>  <SCORE>
17.2204

>  <SCORE.INTER>
-4.83786

>  <SCORE.INTER.CONST>
1

>  <SCORE.INTER.POLAR>
-1.18542

>  <SCORE.INTER.ROT>
9

>  <SCORE.INTER.SOLV>
27.2182

>  <SCORE.INTER.VDW>
-17.9466

>  <SCORE.INTER.norm>
-0.115187

>  <SCORE.INTRA>
5.15662

>  <SCORE.INTRA.DIHEDRAL>
-3.03936

>  <SCORE.INTRA.DIHEDRAL.0>
21.6909

>  <SCORE.INTRA.POLAR>
0

>  <SCORE.INTRA.POLAR.0>
0

>  <SCORE.INTRA.REPUL>
0

>  <SCORE.INTRA.REPUL.0>
0

>  <SCORE.INTRA.SOLV>
1.68464

>  <SCORE.INTRA.SOLV.lig_0>
-116.606

>  <SCORE.INTRA.VDW>
5.83398

>  <SCORE.INTRA.VDW.0>
-6.01229

>  <SCORE.INTRA.norm>
0.122777

>  <SCORE.RESTR>
16.9016

>  <SCORE.RESTR.CAVITY>
16.9016

>  <SCORE.RESTR.norm>
0.40242

>  <SCORE.SYSTEM>
0

>  <SCORE.SYSTEM.CONST>
0

>  <SCORE.SYSTEM.DIHEDRAL>
0

>  <SCORE.SYSTEM.SOLV>
0

>  <SCORE.SYSTEM.norm>
0

>  <SCORE.heavy>
42

>  <SCORE.norm>
0.410009

>  <RMSD>
9.868

$$$$
2et4_lig
 OpenBabel11021811423D
libRbt.so/2013.1/901 2013/11/27
 42 45  0  0  0  0  0  0  0  0999 V2000
   14.4980    6.6522    9.4204 C   0  0  2  0  0  0  0  0  0  0  0  0
   14.9014    8.0228    9.4490 O   0  0  0  0  0  0  0  0  0  0  0  0
   14.4777    6.1511   10.8871 C   0  0  2  0  0  0  0  0  0  0  0  0
   13.6002    6.9508   11.7033 N   0  0  0  0  0  0  0  0  0  0  0  0
   15.9276    6.1575   11.4518 C   0  0  1  0  0  0  0  0  0  0  0  0
   15.9086    5.6914   12.7649 O   0  0  0  0  0  0  0  0  0  0  0  0
   16.8194    5.2706   10.5202 C   0  0  2  0  0  0  0  0  0  0  0  0
   18.1498    5.2538   10.9928 O   0  0  0  0  0  0  0  0  0  0  0  0
   16.7991    5.8074    9.0569 C   0  0  2  0  0  0  0  0  0  0  0  0
   15.4417    5.8354    8.6058 O   0  0  0  0  0  0  0  0  0  0  0  0
   17.6475    4.9202    8.0881 C   0  0  0  0  0  0  0  0  0  0  0  0
   19.0046    4.8222    8.5000 N   0  0  0  0  0  0  0  0  0  0  0  0
   11.1818   10.2177    9.4970 C   0  0  2  0  0  0  0  0  0  0  0  0
   10.2238   11.3175    9.3291 N   0  0  0  0  0  0  0  0  0  0  0  0
   12.3554   10.6722   10.5209 C   0  0  0  0  0  0  0  0  0  0  0  0
   13.3931    9.4878   10.6869 C   0  0  2  0  0  0  0  0  0  0  0  0
   14.4932    9.8671   11.5911 N   0  0  0  0  0  0  0  0  0  0  0  0
   13.9758    9.1059    9.2843 C   0  0  2  0  0  0  0  0  0  0  0  0
   12.8310    8.6978    8.2990 C   0  0  2  0  0  0  0  0  0  0  0  0
   13.4687    8.3805    7.0374 O   0  0  0  0  0  0  0  0  0  0  0  0
   11.8207    9.8791    8.1402 C   0  0  1  0  0  0  0  0  0  0  0  0
   10.8113    9.4841    7.2737 O   0  0  0  0  0  0  0  0  0  0  0  0
   14.1577    9.2540    6.2638 C   0  0  1  0  0  0  0  0  0  0  0  0
   14.8867    8.5187    5.1091 C   0  0  2  0  0  0  0  0  0  0  0  0
   16.1254    7.9930    5.4886 O   0  0  0  0  0  0  0  0  0  0  0  0
   14.8492    9.6123    4.0576 C   0  0  1  0  0  0  0  0  0  0  0  0
   13.4973   10.3240    4.2079 C   0  0  2  0  0  0  0  0  0  0  0  0
   13.3456   10.2768    5.6265 O   0  0  0  0  0  0  0  0  0  0  0  0
   12.2922    9.6473    3.4700 C   0  0  0  0  0  0  0  0  0  0  0  0
   12.6902    9.4383    2.0890 O   0  0  0  0  0  0  0  0  0  0  0  0
   16.1495   11.6371    3.4827 C   0  0  2  0  0  0  0  0  0  0  0  0
   15.9881   10.5288    4.3252 O   0  0  0  0  0  0  0  0  0  0  0  0
   16.1901   11.2010    1.9537 C   0  0  1  0  0  0  0  0  0  0  0  0
   19.1490   15.7791    3.3491 N   0  0  0  0  0  0  0  0  0  0  0  0
   16.4004   12.5472    1.0818 C   0  0  1  0  0  0  0  0  0  0  0  0
   15.2525   13.4893    1.3855 O   0  0  0  0  0  0  0  0  0  0  0  0
   17.8139   13.2394    1.4680 C   0  0  2  0  0  0  0  0  0  0  0  0
   18.8935   12.3250    1.1604 O   0  0  0  0  0  0  0  0  0  0  0  0
   17.7485   13.6376    3.0482 C   0  0  1  0  0  0  0  0  0  0  0  0
   17.4480   12.4084    3.8610 O   0  0  0  0  0  0  0  0  0  0  0  0
   19.0786   14.2995    3.5521 C   0  0  0  0  0  0  0  0  0  0  0  0
   17.2719   10.1842    1.7379 N   0  0  0  0  0  0  0  0  0  0  0  0
  1  2  1  1  0  0  0
  1  3  1  0  0  0  0
  1 10  1  0  0  0  0
  3  4  1  1  0  0  0
  3  5  1  0  0  0  0
  5  6  1  1  0  0  0
  5  7  1  0  0  0  0
  7  8  1  1  0  0  0
  7  9  1  0  0  0  0
  9 10  1  0  0  0  0
  9 11  1  6  0  0  0
 11 12  1  0  0  0  0
 13 14  1  6  0  0  0
 13 15  1  0  0  0  0
 13 21  1  0  0  0  0
 16 15  1  0  0  0  0
 16 17  1  1  0  0  0
 18  2  1  1  0  0  0
 18 16  1  0  0  0  0
 19 18  1  0  0  0  0
 19 20  1  6  0  0  0
 21 19  1  0  0  0  0
 21 22  1  6  0  0  0
 23 20  1  6  0  0  0
 23 24  1  0  0  0  0
 23 28  1  0  0  0  0
 24 25  1  1  0  0  0
 24 26  1  0  0  0  0
 26 27  1  0  0  0  0
 26 32  1  1  0  0  0
 27 28  1  0  0  0  0
 27 29  1  6  0  0  0
 29 30  1  0  0  0  0
 31 32  1  1  0  0  0
 31 40  1  0  0  0  0
 33 31  1  0  0  0  0
 33 42  1  1  0  0  0
 35 33  1  0  0  0  0
 35 36  1  1  0  0  0
 37 35  1  0  0  0  0
 37 38  1  1  0  0  0
 37 39  1  0  0  0  0
 39 40  1  0  0  0  0
 39 41  1  1  0  0  0
 41 34  1  0  0  0  0
M  END
>  <CHROM.1>
-103.30908858,-58.21342163,88.07550350,-63.79738086,170.98115646,-179.24688613
-52.00296229,-53.22146441,86.65081691,15.17781274,9.39616497,6.63816428,-1.77048520
0.34798140,-0.89997161

>  <Name>
2et4_lig

>  <RI>
0

>  <Rbt.Current_Directory>
/home/itssahil/PROJECTS/Mol_Feturizer/New_Systems/rnas/2et4

>  <Rbt.Executable>
rbdock ($Id: //depot/dev/client3/rdock/2013.1/src/exe/rbdock.cxx#4 $)

>  <Rbt.Library>
libRbt.so (2013.1, Build901 2013/11/27)

>  <Rbt.Parameter_File>
/export/apps/rDock/src/rDock_2013.1_src/data/scripts/dock_solv.prm

>  <Rbt.Receptor>
prm/blind_docking_40.prm

>  <SCORE>
9.84022

>  <SCORE.INTER>
-7.45111

>  <SCORE.INTER.CONST>
1

>  <SCORE.INTER.POLAR>
-1.14508

>  <SCORE.INTER.ROT>
9

>  <SCORE.INTER.SOLV>
28.6479

>  <SCORE.INTER.VDW>
-20.2997

>  <SCORE.INTER.norm>
-0.177407

>  <SCORE.INTRA>
-1.15925

>  <SCORE.INTRA.DIHEDRAL>
-9.3117

>  <SCORE.INTRA.DIHEDRAL.0>
21.6909

>  <SCORE.INTRA.POLAR>
0

>  <SCORE.INTRA.POLAR.0>
0

>  <SCORE.INTRA.REPUL>
0

>  <SCORE.INTRA.REPUL.0>
0

>  <SCORE.INTRA.SOLV>
1.16031

>  <SCORE.INTRA.SOLV.lig_0>
-116.606

>  <SCORE.INTRA.VDW>
2.91644

>  <SCORE.INTRA.VDW.0>
-6.01229

>  <SCORE.INTRA.norm>
-0.0276012

>  <SCORE.RESTR>
18.4506

>  <SCORE.RESTR.CAVITY>
18.4506

>  <SCORE.RESTR.norm>
0.439299

>  <SCORE.SYSTEM>
0

>  <SCORE.SYSTEM.CONST>
0

>  <SCORE.SYSTEM.DIHEDRAL>
0

>  <SCORE.SYSTEM.SOLV>
0

>  <SCORE.SYSTEM.norm>
0

>  <SCORE.heavy>
42

>  <SCORE.norm>
0.234291

>  <RMSD>
9.916

$$$$
2et4_lig
 OpenBabel11021811423D
libRbt.so/2013.1/901 2013/11/27
 42 45  0  0  0  0  0  0  0  0999 V2000
    9.7135    5.3549   13.2144 C   0  0  2  0  0  0  0  0  0  0  0  0
    8.5030    4.7426   12.7651 O   0  0  0  0  0  0  0  0  0  0  0  0
    9.8737    5.0031   14.7155 C   0  0  2  0  0  0  0  0  0  0  0  0
    9.8858    3.5774   14.9225 N   0  0  0  0  0  0  0  0  0  0  0  0
    8.7286    5.6766   15.5256 C   0  0  1  0  0  0  0  0  0  0  0  0
    8.8843    5.3720   16.8765 O   0  0  0  0  0  0  0  0  0  0  0  0
    8.7786    7.2174   15.2552 C   0  0  2  0  0  0  0  0  0  0  0  0
    7.7487    7.8698   15.9674 O   0  0  0  0  0  0  0  0  0  0  0  0
    8.6242    7.5194   13.7338 C   0  0  2  0  0  0  0  0  0  0  0  0
    9.6638    6.8331   13.0302 O   0  0  0  0  0  0  0  0  0  0  0  0
    8.7111    9.0491   13.4211 C   0  0  0  0  0  0  0  0  0  0  0  0
   10.0060    9.5767   13.6779 N   0  0  0  0  0  0  0  0  0  0  0  0
    7.1391    3.9230    8.7497 C   0  0  2  0  0  0  0  0  0  0  0  0
    6.5907    4.1398    7.4052 N   0  0  0  0  0  0  0  0  0  0  0  0
    6.0399    4.3587    9.8606 C   0  0  0  0  0  0  0  0  0  0  0  0
    6.6419    4.1365   11.3082 C   0  0  2  0  0  0  0  0  0  0  0  0
    5.6841    4.5446   12.3511 N   0  0  0  0  0  0  0  0  0  0  0  0
    7.9620    4.9660   11.4557 C   0  0  2  0  0  0  0  0  0  0  0  0
    9.0016    4.5561   10.3607 C   0  0  2  0  0  0  0  0  0  0  0  0
   10.1708    5.3848   10.5737 O   0  0  0  0  0  0  0  0  0  0  0  0
    8.3956    4.7886    8.9394 C   0  0  1  0  0  0  0  0  0  0  0  0
    9.3326    4.4040    7.9909 O   0  0  0  0  0  0  0  0  0  0  0  0
   11.3876    5.1859   10.0114 C   0  0  1  0  0  0  0  0  0  0  0  0
   12.2250    6.4914   10.0224 C   0  0  2  0  0  0  0  0  0  0  0  0
   11.9453    7.3321    8.9408 O   0  0  0  0  0  0  0  0  0  0  0  0
   13.6143    5.8924   10.1409 C   0  0  1  0  0  0  0  0  0  0  0  0
   13.4929    4.6737   11.0666 C   0  0  2  0  0  0  0  0  0  0  0  0
   12.2099    4.1871   10.6731 O   0  0  0  0  0  0  0  0  0  0  0  0
   13.5536    4.9828   12.6013 C   0  0  0  0  0  0  0  0  0  0  0  0
   13.6411    3.7113   13.2975 O   0  0  0  0  0  0  0  0  0  0  0  0
   15.3862    5.1122    8.6004 C   0  0  2  0  0  0  0  0  0  0  0  0
   14.0524    5.5059    8.7744 O   0  0  0  0  0  0  0  0  0  0  0  0
   16.3861    6.3192    8.8706 C   0  0  1  0  0  0  0  0  0  0  0  0
   18.3157    2.8962    4.9690 N   0  0  0  0  0  0  0  0  0  0  0  0
   17.8833    5.7601    8.6208 C   0  0  1  0  0  0  0  0  0  0  0  0
   18.1140    4.5945    9.5619 O   0  0  0  0  0  0  0  0  0  0  0  0
   18.0432    5.2805    7.0810 C   0  0  2  0  0  0  0  0  0  0  0  0
   17.8278    6.4117    6.2035 O   0  0  0  0  0  0  0  0  0  0  0  0
   16.9784    4.0706    6.8320 C   0  0  1  0  0  0  0  0  0  0  0  0
   15.5917    4.5494    7.1634 O   0  0  0  0  0  0  0  0  0  0  0  0
   17.0202    3.5329    5.3587 C   0  0  0  0  0  0  0  0  0  0  0  0
   16.0370    7.4826    7.9901 N   0  0  0  0  0  0  0  0  0  0  0  0
  1  2  1  1  0  0  0
  1  3  1  0  0  0  0
  1 10  1  0  0  0  0
  3  4  1  6  0  0  0
  3  5  1  0  0  0  0
  5  6  1  1  0  0  0
  5  7  1  0  0  0  0
  7  8  1  1  0  0  0
  7  9  1  0  0  0  0
  9 10  1  0  0  0  0
  9 11  1  1  0  0  0
 11 12  1  0  0  0  0
 13 14  1  6  0  0  0
 13 15  1  0  0  0  0
 13 21  1  0  0  0  0
 16 15  1  0  0  0  0
 16 17  1  1  0  0  0
 18  2  1  1  0  0  0
 18 16  1  0  0  0  0
 19 18  1  0  0  0  0
 19 20  1  6  0  0  0
 21 19  1  0  0  0  0
 21 22  1  6  0  0  0
 23 20  1  1  0  0  0
 23 24  1  0  0  0  0
 23 28  1  0  0  0  0
 24 25  1  6  0  0  0
 24 26  1  0  0  0  0
 26 27  1  0  0  0  0
 26 32  1  6  0  0  0
 27 28  1  0  0  0  0
 27 29  1  1  0  0  0
 29 30  1  0  0  0  0
 31 32  1  6  0  0  0
 31 40  1  0  0  0  0
 33 31  1  0  0  0  0
 33 42  1  6  0  0  0
 35 33  1  0  0  0  0
 35 36  1  1  0  0  0
 37 35  1  0  0  0  0
 37 38  1  6  0  0  0
 37 39  1  0  0  0  0
 39 40  1  0  0  0  0
 39 41  1  6  0  0  0
 41 34  1  0  0  0  0
M  END
>  <CHROM.1>
173.56383171,66.78270596,179.75316334,166.93794651,159.05033138,170.65178176
-170.97790873,-65.71896669,64.13462397,11.68405374,5.40738348,10.69481939
-2.54563036,-0.12194273,-1.88849736

>  <Name>
2et4_lig

>  <RI>
3.65815e+07

>  <Rbt.Current_Directory>
/home/itssahil/PROJECTS/Mol_Feturizer/New_Systems/rnas/2et4

>  <Rbt.Executable>
rbdock ($Id: //depot/dev/client3/rdock/2013.1/src/exe/rbdock.cxx#4 $)

>  <Rbt.Library>
libRbt.so (2013.1, Build901 2013/11/27)

>  <Rbt.Parameter_File>
/export/apps/rDock/src/rDock_2013.1_src/data/scripts/dock_solv.prm

>  <Rbt.Receptor>
prm/pocket_docking_4.prm

>  <SCORE>
-4.99691

>  <SCORE.INTER>
3.71129

>  <SCORE.INTER.CONST>
1

>  <SCORE.INTER.POLAR>
0

>  <SCORE.INTER.ROT>
9

>  <SCORE.INTER.SOLV>
8.86648

>  <SCORE.INTER.VDW>
-10.0813

>  <SCORE.INTER.norm>
0.088364

>  <SCORE.INTRA>
-8.7082

>  <SCORE.INTRA.DIHEDRAL>
-17.4815

>  <SCORE.INTRA.DIHEDRAL.0>
21.6909

>  <SCORE.INTRA.POLAR>
0

>  <SCORE.INTRA.POLAR.0>
0

>  <SCORE.INTRA.REPUL>
0

>  <SCORE.INTRA.REPUL.0>
0

>  <SCORE.INTRA.SOLV>
-3.39322

>  <SCORE.INTRA.SOLV.lig_0>
-116.606

>  <SCORE.INTRA.VDW>
1.72914

>  <SCORE.INTRA.VDW.0>
-6.01229

>  <SCORE.INTRA.norm>
-0.207338

>  <SCORE.RESTR>
0

>  <SCORE.RESTR.CAVITY>
0

>  <SCORE.RESTR.norm>
0

>  <SCORE.SYSTEM>
0

>  <SCORE.SYSTEM.CONST>
0

>  <SCORE.SYSTEM.DIHEDRAL>
0

>  <SCORE.SYSTEM.SOLV>
0

>  <SCORE.SYSTEM.norm>
0

>  <SCORE.heavy>
42

>  <SCORE.norm>
-0.118974

>  <RMSD>
9.986

$$$$
2et4_lig
 OpenBabel11021811423D
libRbt.so/2013.1/901 2013/11/27
 42 45  0  0  0  0  0  0  0  0999 V2000
    8.9573    1.8854   12.0181 C   0  0  2  0  0  0  0  0  0  0  0  0
    9.7852    2.8052   11.3034 O   0  0  0  0  0  0  0  0  0  0  0  0
    9.2387    0.4743   11.4417 C   0  0  2  0  0  0  0  0  0  0  0  0
   10.6343    0.1324   11.5475 N   0  0  0  0  0  0  0  0  0  0  0  0
    8.7596    0.4191    9.9623 C   0  0  1  0  0  0  0  0  0  0  0  0
    8.9989   -0.8552    9.4518 O   0  0  0  0  0  0  0  0  0  0  0  0
    7.2412    0.7975    9.9254 C   0  0  2  0  0  0  0  0  0  0  0  0
    6.7647    0.7671    8.5967 O   0  0  0  0  0  0  0  0  0  0  0  0
    7.0083    2.2178   10.5241 C   0  0  2  0  0  0  0  0  0  0  0  0
    7.5162    2.2322   11.8614 O   0  0  0  0  0  0  0  0  0  0  0  0
    5.4954    2.6131   10.5415 C   0  0  0  0  0  0  0  0  0  0  0  0
    4.9264    2.6158    9.2387 N   0  0  0  0  0  0  0  0  0  0  0  0
    9.0247    6.5335   13.3468 C   0  0  2  0  0  0  0  0  0  0  0  0
    9.1249    7.9496   13.7217 N   0  0  0  0  0  0  0  0  0  0  0  0
   10.4573    5.8084   13.5792 C   0  0  0  0  0  0  0  0  0  0  0  0
   10.3474    4.2854   13.1598 C   0  0  2  0  0  0  0  0  0  0  0  0
   11.6365    3.5922   13.3307 N   0  0  0  0  0  0  0  0  0  0  0  0
    9.8950    4.1891   11.6636 C   0  0  2  0  0  0  0  0  0  0  0  0
    8.5270    4.9172   11.4483 C   0  0  2  0  0  0  0  0  0  0  0  0
    8.2078    4.7839   10.0413 O   0  0  0  0  0  0  0  0  0  0  0  0
    8.6544    6.4193   11.8590 C   0  0  1  0  0  0  0  0  0  0  0  0
    7.4250    7.0349   11.6711 O   0  0  0  0  0  0  0  0  0  0  0  0
    9.0052    5.1677    9.0151 C   0  0  1  0  0  0  0  0  0  0  0  0
    8.2909    4.9709    7.6526 C   0  0  2  0  0  0  0  0  0  0  0  0
    8.4048    3.6688    7.1560 O   0  0  0  0  0  0  0  0  0  0  0  0
    8.9274    6.1073    6.8739 C   0  0  1  0  0  0  0  0  0  0  0  0
    9.0911    7.2777    7.8538 C   0  0  2  0  0  0  0  0  0  0  0  0
    9.4118    6.5625    9.0468 O   0  0  0  0  0  0  0  0  0  0  0  0
    7.8270    8.1845    8.0397 C   0  0  0  0  0  0  0  0  0  0  0  0
    8.1458    9.1712    9.0565 O   0  0  0  0  0  0  0  0  0  0  0  0
   11.0259    6.5160    5.6286 C   0  0  2  0  0  0  0  0  0  0  0  0
   10.2386    5.6233    6.3684 O   0  0  0  0  0  0  0  0  0  0  0  0
   10.2823    6.9813    4.3019 C   0  0  1  0  0  0  0  0  0  0  0  0
   15.3666    5.4196    5.4680 N   0  0  0  0  0  0  0  0  0  0  0  0
   11.2848    7.9835    3.5227 C   0  0  1  0  0  0  0  0  0  0  0  0
   11.6034    9.1429    4.4456 O   0  0  0  0  0  0  0  0  0  0  0  0
   12.6429    7.1986    3.1154 C   0  0  2  0  0  0  0  0  0  0  0  0
   12.3139    6.1033    2.2276 O   0  0  0  0  0  0  0  0  0  0  0  0
   13.3563    6.7054    4.4967 C   0  0  1  0  0  0  0  0  0  0  0  0
   12.3932    5.8573    5.2810 O   0  0  0  0  0  0  0  0  0  0  0  0
   14.6797    5.9055    4.2320 C   0  0  0  0  0  0  0  0  0  0  0  0
    9.8923    5.7850    3.4848 N   0  0  0  0  0  0  0  0  0  0  0  0
  1  2  1  6  0  0  0
  1  3  1  0  0  0  0
  1 10  1  0  0  0  0
  3  4  1  6  0  0  0
  3  5  1  0  0  0  0
  5  6  1  1  0  0  0
  5  7  1  0  0  0  0
  7  8  1  6  0  0  0
  7  9  1  0  0  0  0
  9 10  1  0  0  0  0
  9 11  1  1  0  0  0
 11 12  1  0  0  0  0
 13 14  1  6  0  0  0
 13 15  1  0  0  0  0
 13 21  1  0  0  0  0
 16 15  1  0  0  0  0
 16 17  1  6  0  0  0
 18  2  1  1  0  0  0
 18 16  1  0  0  0  0
 19 18  1  0  0  0  0
 19 20  1  6  0  0  0
 21 19  1  0  0  0  0
 21 22  1  1  0  0  0
 23 20  1  1  0  0  0
 23 24  1  0  0  0  0
 23 28  1  0  0  0  0
 24 25  1  6  0  0  0
 24 26  1  0  0  0  0
 26 27  1  0  0  0  0
 26 32  1  1  0  0  0
 27 28  1  0  0  0  0
 27 29  1  1  0  0  0
 29 30  1  0  0  0  0
 31 32  1  6  0  0  0
 31 40  1  0  0  0  0
 33 31  1  0  0  0  0
 33 42  1  6  0  0  0
 35 33  1  0  0  0  0
 35 36  1  1  0  0  0
 37 35  1  0  0  0  0
 37 38  1  6  0  0  0
 37 39  1  0  0  0  0
 39 40  1  0  0  0  0
 39 41  1  6  0  0  0
 41 34  1  0  0  0  0
M  END
>  <CHROM.1>
-173.23556380,-59.60720205,56.11891842,-55.47947730,-175.64142035,-179.07785944
176.39468423,-61.37641229,-179.47112922,9.58021475,4.81026919,8.72324361
-3.01611874,1.16317357,0.37797159

>  <Name>
2et4_lig

>  <RI>
0

>  <Rbt.Current_Directory>
/home/itssahil/PROJECTS/Mol_Feturizer/New_Systems/rnas/2et4

>  <Rbt.Executable>
rbdock ($Id: //depot/dev/client3/rdock/2013.1/src/exe/rbdock.cxx#4 $)

>  <Rbt.Library>
libRbt.so (2013.1, Build901 2013/11/27)

>  <Rbt.Parameter_File>
/export/apps/rDock/src/rDock_2013.1_src/data/scripts/dock_solv.prm

>  <Rbt.Receptor>
prm/pocket_docking_5.prm

>  <SCORE>
-10.1216

>  <SCORE.INTER>
-0.0902747

>  <SCORE.INTER.CONST>
1

>  <SCORE.INTER.POLAR>
0

>  <SCORE.INTER.ROT>
9

>  <SCORE.INTER.SOLV>
11.2697

>  <SCORE.INTER.VDW>
-13.4167

>  <SCORE.INTER.norm>
-0.0021494

>  <SCORE.INTRA>
-10.0313

>  <SCORE.INTRA.DIHEDRAL>
-20.9551

>  <SCORE.INTRA.DIHEDRAL.0>
21.6909

>  <SCORE.INTRA.POLAR>
0

>  <SCORE.INTRA.POLAR.0>
0

>  <SCORE.INTRA.REPUL>
0

>  <SCORE.INTRA.REPUL.0>
0

>  <SCORE.INTRA.SOLV>
-1.64528

>  <SCORE.INTRA.SOLV.lig_0>
-116.606

>  <SCORE.INTRA.VDW>
1.26884

>  <SCORE.INTRA.VDW.0>
-6.01229

>  <SCORE.INTRA.norm>
-0.238841

>  <SCORE.RESTR>
0

>  <SCORE.RESTR.CAVITY>
0

>  <SCORE.RESTR.norm>
0

>  <SCORE.SYSTEM>
0

>  <SCORE.SYSTEM.CONST>
0

>  <SCORE.SYSTEM.DIHEDRAL>
0

>  <SCORE.SYSTEM.SOLV>
0

>  <SCORE.SYSTEM.norm>
0

>  <SCORE.heavy>
42

>  <SCORE.norm>
-0.240991

>  <RMSD>
10.004

$$$$
2et4_lig
 OpenBabel11021811423D
libRbt.so/2013.1/901 2013/11/27
 42 45  0  0  0  0  0  0  0  0999 V2000
    9.0489    5.7573   13.1653 C   0  0  2  0  0  0  0  0  0  0  0  0
    9.5552    4.4299   13.3197 O   0  0  0  0  0  0  0  0  0  0  0  0
    9.2708    6.4907   14.5127 C   0  0  2  0  0  0  0  0  0  0  0  0
   10.6614    6.4884   14.8892 N   0  0  0  0  0  0  0  0  0  0  0  0
    8.3925    5.8241   15.6106 C   0  0  1  0  0  0  0  0  0  0  0  0
    8.5816    6.4954   16.8170 O   0  0  0  0  0  0  0  0  0  0  0  0
    6.9015    5.8651   15.1362 C   0  0  2  0  0  0  0  0  0  0  0  0
    6.0670    5.2621   16.1024 O   0  0  0  0  0  0  0  0  0  0  0  0
    6.7316    5.1253   13.7747 C   0  0  2  0  0  0  0  0  0  0  0  0
    7.5998    5.7383   12.8171 O   0  0  0  0  0  0  0  0  0  0  0  0
    5.2599    5.1818   13.2488 C   0  0  0  0  0  0  0  0  0  0  0  0
    5.0839    4.4171   12.0633 N   0  0  0  0  0  0  0  0  0  0  0  0
   10.8791    1.4000   10.5409 C   0  0  2  0  0  0  0  0  0  0  0  0
   10.8454    0.4039    9.4628 N   0  0  0  0  0  0  0  0  0  0  0  0
    9.8405    0.9689   11.7104 C   0  0  0  0  0  0  0  0  0  0  0  0
    9.8705    2.0538   12.8634 C   0  0  2  0  0  0  0  0  0  0  0  0
    8.9206    1.7148   13.9378 N   0  0  0  0  0  0  0  0  0  0  0  0
    9.5089    3.4563   12.2676 C   0  0  2  0  0  0  0  0  0  0  0  0
   10.5005    3.8462   11.1220 C   0  0  2  0  0  0  0  0  0  0  0  0
   10.0737    5.1414   10.6325 O   0  0  0  0  0  0  0  0  0  0  0  0
   10.4532    2.7706    9.9896 C   0  0  1  0  0  0  0  0  0  0  0  0
   11.3509    3.1347    8.9961 O   0  0  0  0  0  0  0  0  0  0  0  0
   10.6763    5.8449    9.6435 C   0  0  1  0  0  0  0  0  0  0  0  0
   10.5660    7.3705    9.8999 C   0  0  2  0  0  0  0  0  0  0  0  0
    9.3594    7.9167    9.4516 O   0  0  0  0  0  0  0  0  0  0  0  0
   11.8593    7.8244    9.2486 C   0  0  1  0  0  0  0  0  0  0  0  0
   12.9094    6.7466    9.5524 C   0  0  2  0  0  0  0  0  0  0  0  0
   12.0951    5.5763    9.4807 O   0  0  0  0  0  0  0  0  0  0  0  0
   13.6261    6.8740   10.9397 C   0  0  0  0  0  0  0  0  0  0  0  0
   14.6046    7.9412   10.8270 O   0  0  0  0  0  0  0  0  0  0  0  0
   12.6406    8.4420    6.9838 C   0  0  2  0  0  0  0  0  0  0  0  0
   11.6046    7.9512    7.7899 O   0  0  0  0  0  0  0  0  0  0  0  0
   12.0913    8.9484    5.5796 C   0  0  1  0  0  0  0  0  0  0  0  0
   16.4208    6.0230    7.1439 N   0  0  0  0  0  0  0  0  0  0  0  0
   13.3665    9.4680    4.7307 C   0  0  1  0  0  0  0  0  0  0  0  0
   14.0408   10.5715    5.5214 O   0  0  0  0  0  0  0  0  0  0  0  0
   14.3983    8.2437    4.4802 C   0  0  2  0  0  0  0  0  0  0  0  0
   13.7347    7.2082    3.7163 O   0  0  0  0  0  0  0  0  0  0  0  0
   14.9097    7.7279    5.9405 C   0  0  1  0  0  0  0  0  0  0  0  0
   13.7218    7.3409    6.7777 O   0  0  0  0  0  0  0  0  0  0  0  0
   15.9035    6.5188    5.8316 C   0  0  0  0  0  0  0  0  0  0  0  0
   11.3372    7.8467    4.8953 N   0  0  0  0  0  0  0  0  0  0  0  0
  1  2  1  1  0  0  0
  1  3  1  0  0  0  0
  1 10  1  0  0  0  0
  3  4  1  1  0  0  0
  3  5  1  0  0  0  0
  5  6  1  1  0  0  0
  5  7  1  0  0  0  0
  7  8  1  1  0  0  0
  7  9  1  0  0  0  0
  9 10  1  0  0  0  0
  9 11  1  6  0  0  0
 11 12  1  0  0  0  0
 13 14  1  6  0  0  0
 13 15  1  0  0  0  0
 13 21  1  0  0  0  0
 16 15  1  0  0  0  0
 16 17  1  1  0  0  0
 18  2  1  1  0  0  0
 18 16  1  0  0  0  0
 19 18  1  0  0  0  0
 19 20  1  6  0  0  0
 21 19  1  0  0  0  0
 21 22  1  6  0  0  0
 23 20  1  1  0  0  0
 23 24  1  0  0  0  0
 23 28  1  0  0  0  0
 24 25  1  6  0  0  0
 24 26  1  0  0  0  0
 26 27  1  0  0  0  0
 26 32  1  6  0  0  0
 27 28  1  0  0  0  0
 27 29  1  1  0  0  0
 29 30  1  0  0  0  0
 31 32  1  1  0  0  0
 31 40  1  0  0  0  0
 33 31  1  0  0  0  0
 33 42  1  6  0  0  0
 35 33  1  0  0  0  0
 35 36  1  1  0  0  0
 37 35  1  0  0  0  0
 37 38  1  1  0  0  0
 37 39  1  0  0  0  0
 39 40  1  0  0  0  0
 39 41  1  6  0  0  0
 41 34  1  0  0  0  0
M  END
>  <CHROM.1>
179.58909928,-175.29160429,-168.55112137,179.28850994,-146.81782623,176.09018016
-76.61121983,-161.91835698,178.99224930,10.84620551,5.84370529,10.26770510
2.77157154,-0.92997184,3.08692686

>  <Name>
2et4_lig

>  <RI>
0

>  <Rbt.Current_Directory>
/home/itssahil/PROJECTS/Mol_Feturizer/New_Systems/rnas/2et4

>  <Rbt.Executable>
rbdock ($Id: //depot/dev/client3/rdock/2013.1/src/exe/rbdock.cxx#4 $)

>  <Rbt.Library>
libRbt.so (2013.1, Build901 2013/11/27)

>  <Rbt.Parameter_File>
/export/apps/rDock/src/rDock_2013.1_src/data/scripts/dock_solv.prm

>  <Rbt.Receptor>
prm/pocket_docking_5.prm

>  <SCORE>
-14.6446

>  <SCORE.INTER>
-6.88565

>  <SCORE.INTER.CONST>
1

>  <SCORE.INTER.POLAR>
-1.73346

>  <SCORE.INTER.ROT>
9

>  <SCORE.INTER.SOLV>
12.0009

>  <SCORE.INTER.VDW>
-12.4125

>  <SCORE.INTER.norm>
-0.163944

>  <SCORE.INTRA>
-7.759

>  <SCORE.INTRA.DIHEDRAL>
-14.1093

>  <SCORE.INTRA.DIHEDRAL.0>
21.6909

>  <SCORE.INTRA.POLAR>
0

>  <SCORE.INTRA.POLAR.0>
0

>  <SCORE.INTRA.REPUL>
0

>  <SCORE.INTRA.REPUL.0>
0

>  <SCORE.INTRA.SOLV>
-5.08364

>  <SCORE.INTRA.SOLV.lig_0>
-116.606

>  <SCORE.INTRA.VDW>
1.83749

>  <SCORE.INTRA.VDW.0>
-6.01229

>  <SCORE.INTRA.norm>
-0.184738

>  <SCORE.RESTR>
0

>  <SCORE.RESTR.CAVITY>
0

>  <SCORE.RESTR.norm>
0

>  <SCORE.SYSTEM>
0

>  <SCORE.SYSTEM.CONST>
0

>  <SCORE.SYSTEM.DIHEDRAL>
0

>  <SCORE.SYSTEM.SOLV>
0

>  <SCORE.SYSTEM.norm>
0

>  <SCORE.heavy>
42

>  <SCORE.norm>
-0.348682

>  <RMSD>
10.024

$$$$
2et4_lig
 OpenBabel11021811423D
libRbt.so/2013.1/901 2013/11/27
 42 45  0  0  0  0  0  0  0  0999 V2000
   11.2059    8.2260   15.9836 C   0  0  2  0  0  0  0  0  0  0  0  0
   11.1560    9.0246   14.7996 O   0  0  0  0  0  0  0  0  0  0  0  0
   10.3728    6.9482   15.7085 C   0  0  2  0  0  0  0  0  0  0  0  0
   10.8695    6.2345   14.5598 N   0  0  0  0  0  0  0  0  0  0  0  0
    8.8787    7.3402   15.5208 C   0  0  1  0  0  0  0  0  0  0  0  0
    8.1296    6.1881   15.2897 O   0  0  0  0  0  0  0  0  0  0  0  0
    8.4090    8.1060   16.8025 C   0  0  2  0  0  0  0  0  0  0  0  0
    7.0561    8.4884   16.6721 O   0  0  0  0  0  0  0  0  0  0  0  0
    9.2823    9.3748   17.0423 C   0  0  2  0  0  0  0  0  0  0  0  0
   10.6493    8.9673   17.1507 O   0  0  0  0  0  0  0  0  0  0  0  0
    8.8676   10.1435   18.3395 C   0  0  0  0  0  0  0  0  0  0  0  0
    7.5150   10.5791   18.2960 N   0  0  0  0  0  0  0  0  0  0  0  0
   13.5466   11.6303   12.3196 C   0  0  2  0  0  0  0  0  0  0  0  0
   14.6553   12.4876   11.8821 N   0  0  0  0  0  0  0  0  0  0  0  0
   12.8827   12.2468   13.6656 C   0  0  0  0  0  0  0  0  0  0  0  0
   11.6973   11.3107   14.1408 C   0  0  2  0  0  0  0  0  0  0  0  0
   11.0803   11.8203   15.3782 N   0  0  0  0  0  0  0  0  0  0  0  0
   12.2431    9.8633   14.3850 C   0  0  2  0  0  0  0  0  0  0  0  0
   12.9059    9.2927   13.0877 C   0  0  2  0  0  0  0  0  0  0  0  0
   13.3875    7.9676   13.4213 O   0  0  0  0  0  0  0  0  0  0  0  0
   14.0777   10.2228   12.6368 C   0  0  1  0  0  0  0  0  0  0  0  0
   14.6362    9.7005   11.4789 O   0  0  0  0  0  0  0  0  0  0  0  0
   14.4398    7.3443   12.8380 C   0  0  1  0  0  0  0  0  0  0  0  0
   14.7397    5.9909   13.5337 C   0  0  2  0  0  0  0  0  0  0  0  0
   15.5438    6.1240   14.6698 O   0  0  0  0  0  0  0  0  0  0  0  0
   15.2780    5.2163   12.3451 C   0  0  1  0  0  0  0  0  0  0  0  0
   14.4534    5.6493   11.1248 C   0  0  2  0  0  0  0  0  0  0  0  0
   14.2595    7.0301   11.4306 O   0  0  0  0  0  0  0  0  0  0  0  0
   13.0920    4.8989   10.9290 C   0  0  0  0  0  0  0  0  0  0  0  0
   13.3792    3.4754   10.9106 O   0  0  0  0  0  0  0  0  0  0  0  0
   17.4089    5.0363   11.1007 C   0  0  2  0  0  0  0  0  0  0  0  0
   16.7137    5.5697   12.1944 O   0  0  0  0  0  0  0  0  0  0  0  0
   17.5911    6.1166    9.9477 C   0  0  1  0  0  0  0  0  0  0  0  0
   15.8870    1.0596   10.1020 N   0  0  0  0  0  0  0  0  0  0  0  0
   18.3803    5.3899    8.7370 C   0  0  1  0  0  0  0  0  0  0  0  0
   19.7053    4.8861    9.2737 O   0  0  0  0  0  0  0  0  0  0  0  0
   17.4985    4.1560    8.1658 C   0  0  2  0  0  0  0  0  0  0  0  0
   16.2439    4.6633    7.6511 O   0  0  0  0  0  0  0  0  0  0  0  0
   17.3016    3.0897    9.3840 C   0  0  1  0  0  0  0  0  0  0  0  0
   16.6631    3.7828   10.5562 O   0  0  0  0  0  0  0  0  0  0  0  0
   16.4367    1.8517    8.9592 C   0  0  0  0  0  0  0  0  0  0  0  0
   16.2544    6.6604    9.5372 N   0  0  0  0  0  0  0  0  0  0  0  0
  1  2  1  6  0  0  0
  1  3  1  0  0  0  0
  1 10  1  0  0  0  0
  3  4  1  6  0  0  0
  3  5  1  0  0  0  0
  5  6  1  1  0  0  0
  5  7  1  0  0  0  0
  7  8  1  6  0  0  0
  7  9  1  0  0  0  0
  9 10  1  0  0  0  0
  9 11  1  1  0  0  0
 11 12  1  0  0  0  0
 13 14  1  1  0  0  0
 13 15  1  0  0  0  0
 13 21  1  0  0  0  0
 16 15  1  0  0  0  0
 16 17  1  1  0  0  0
 18  2  1  6  0  0  0
 18 16  1  0  0  0  0
 19 18  1  0  0  0  0
 19 20  1  1  0  0  0
 21 19  1  0  0  0  0
 21 22  1  6  0  0  0
 23 20  1  1  0  0  0
 23 24  1  0  0  0  0
 23 28  1  0  0  0  0
 24 25  1  1  0  0  0
 24 26  1  0  0  0  0
 26 27  1  0  0  0  0
 26 32  1  6  0  0  0
 27 28  1  0  0  0  0
 27 29  1  1  0  0  0
 29 30  1  0  0  0  0
 31 32  1  1  0  0  0
 31 40  1  0  0  0  0
 33 31  1  0  0  0  0
 33 42  1  6  0  0  0
 35 33  1  0  0  0  0
 35 36  1  1  0  0  0
 37 35  1  0  0  0  0
 37 38  1  1  0  0  0
 37 39  1  0  0  0  0
 39 40  1  0  0  0  0
 39 41  1  6  0  0  0
 41 34  1  0  0  0  0
M  END
>  <CHROM.1>
-147.58116344,-59.76648654,-127.42127448,-151.91310612,175.03749888,-176.03501891
-54.36658775,102.29856475,-162.79961440,13.44900540,7.20958762,12.89670461
2.56343482,0.65872537,0.15522205

>  <Name>
2et4_lig

>  <RI>
0

>  <Rbt.Current_Directory>
/home/itssahil/PROJECTS/Mol_Feturizer/New_Systems/rnas/2et4

>  <Rbt.Executable>
rbdock ($Id: //depot/dev/client3/rdock/2013.1/src/exe/rbdock.cxx#4 $)

>  <Rbt.Library>
libRbt.so (2013.1, Build901 2013/11/27)

>  <Rbt.Parameter_File>
/export/apps/rDock/src/rDock_2013.1_src/data/scripts/dock_solv.prm

>  <Rbt.Receptor>
prm/blind_docking_100.prm

>  <SCORE>
12.9952

>  <SCORE.INTER>
-4.03607

>  <SCORE.INTER.CONST>
1

>  <SCORE.INTER.POLAR>
-0.420157

>  <SCORE.INTER.ROT>
9

>  <SCORE.INTER.SOLV>
26.9815

>  <SCORE.INTER.VDW>
-19.884

>  <SCORE.INTER.norm>
-0.0960968

>  <SCORE.INTRA>
5.0855

>  <SCORE.INTRA.DIHEDRAL>
-0.301882

>  <SCORE.INTRA.DIHEDRAL.0>
21.6909

>  <SCORE.INTRA.POLAR>
0

>  <SCORE.INTRA.POLAR.0>
0

>  <SCORE.INTRA.REPUL>
0.0115704

>  <SCORE.INTRA.REPUL.0>
0

>  <SCORE.INTRA.SOLV>
4.21139

>  <SCORE.INTRA.SOLV.lig_0>
-116.606

>  <SCORE.INTRA.VDW>
3.0729

>  <SCORE.INTRA.VDW.0>
-6.01229

>  <SCORE.INTRA.norm>
0.121083

>  <SCORE.RESTR>
11.9457

>  <SCORE.RESTR.CAVITY>
11.9457

>  <SCORE.RESTR.norm>
0.284422

>  <SCORE.SYSTEM>
0

>  <SCORE.SYSTEM.CONST>
0

>  <SCORE.SYSTEM.DIHEDRAL>
0

>  <SCORE.SYSTEM.SOLV>
0

>  <SCORE.SYSTEM.norm>
0

>  <SCORE.heavy>
42

>  <SCORE.norm>
0.309409

>  <RMSD>
10.034

$$$$
2et4_lig
 OpenBabel11021811423D
libRbt.so/2013.1/901 2013/11/27
 42 45  0  0  0  0  0  0  0  0999 V2000
   16.0614    6.9428    4.7990 C   0  0  2  0  0  0  0  0  0  0  0  0
   15.1847    5.8270    4.6298 O   0  0  0  0  0  0  0  0  0  0  0  0
   17.4055    6.5750    4.1201 C   0  0  2  0  0  0  0  0  0  0  0  0
   17.2191    6.2464    2.7298 N   0  0  0  0  0  0  0  0  0  0  0  0
   18.0637    5.3943    4.8909 C   0  0  1  0  0  0  0  0  0  0  0  0
   19.2792    5.0764    4.2883 O   0  0  0  0  0  0  0  0  0  0  0  0
   18.2368    5.8224    6.3864 C   0  0  2  0  0  0  0  0  0  0  0  0
   18.8261    4.7746    7.1270 O   0  0  0  0  0  0  0  0  0  0  0  0
   16.8618    6.1920    7.0209 C   0  0  2  0  0  0  0  0  0  0  0  0
   16.2739    7.2397    6.2441 O   0  0  0  0  0  0  0  0  0  0  0  0
   17.0015    6.6650    8.5049 C   0  0  0  0  0  0  0  0  0  0  0  0
   15.7461    6.9998    9.0819 N   0  0  0  0  0  0  0  0  0  0  0  0
   10.9082    5.2231    4.6702 C   0  0  2  0  0  0  0  0  0  0  0  0
    9.5168    5.2233    5.1389 N   0  0  0  0  0  0  0  0  0  0  0  0
   11.8192    4.3342    5.6763 C   0  0  0  0  0  0  0  0  0  0  0  0
   13.3209    4.3495    5.1743 C   0  0  2  0  0  0  0  0  0  0  0  0
   14.1910    3.5733    6.0755 N   0  0  0  0  0  0  0  0  0  0  0  0
   13.8298    5.8287    5.1001 C   0  0  2  0  0  0  0  0  0  0  0  0
   12.9253    6.6809    4.1497 C   0  0  2  0  0  0  0  0  0  0  0  0
   13.4674    8.0245    4.1624 O   0  0  0  0  0  0  0  0  0  0  0  0
   11.4496    6.6621    4.6628 C   0  0  1  0  0  0  0  0  0  0  0  0
   10.6699    7.4128    3.7944 O   0  0  0  0  0  0  0  0  0  0  0  0
   13.4384    8.8931    3.1228 C   0  0  1  0  0  0  0  0  0  0  0  0
   12.3318    9.9614    3.3217 C   0  0  2  0  0  0  0  0  0  0  0  0
   11.0704    9.5302    2.8998 O   0  0  0  0  0  0  0  0  0  0  0  0
   12.9827   11.1280    2.6020 C   0  0  1  0  0  0  0  0  0  0  0  0
   14.4854   11.0530    2.9071 C   0  0  2  0  0  0  0  0  0  0  0  0
   14.6691    9.6374    2.9149 O   0  0  0  0  0  0  0  0  0  0  0  0
   14.9334   11.7065    4.2588 C   0  0  0  0  0  0  0  0  0  0  0  0
   14.2545   10.9985    5.3298 O   0  0  0  0  0  0  0  0  0  0  0  0
   12.8124   12.1027    0.3343 C   0  0  2  0  0  0  0  0  0  0  0  0
   12.7058   10.9685    1.1505 O   0  0  0  0  0  0  0  0  0  0  0  0
   12.3535   11.7888   -1.1559 C   0  0  1  0  0  0  0  0  0  0  0  0
   17.0149   13.2427   -0.8477 N   0  0  0  0  0  0  0  0  0  0  0  0
   12.5384   13.1523   -2.0065 C   0  0  1  0  0  0  0  0  0  0  0  0
   11.6960   14.2314   -1.3558 O   0  0  0  0  0  0  0  0  0  0  0  0
   14.0994   13.5875   -2.0185 C   0  0  2  0  0  0  0  0  0  0  0  0
   14.8809   12.5465   -2.6525 O   0  0  0  0  0  0  0  0  0  0  0  0
   14.5426   13.8639   -0.4735 C   0  0  1  0  0  0  0  0  0  0  0  0
   14.2757   12.6341    0.3503 O   0  0  0  0  0  0  0  0  0  0  0  0
   16.0522   14.2727   -0.3499 C   0  0  0  0  0  0  0  0  0  0  0  0
   13.1452   10.6393   -1.7060 N   0  0  0  0  0  0  0  0  0  0  0  0
  1  2  1  1  0  0  0
  1  3  1  0  0  0  0
  1 10  1  0  0  0  0
  3  4  1  6  0  0  0
  3  5  1  0  0  0  0
  5  6  1  6  0  0  0
  5  7  1  0  0  0  0
  7  8  1  1  0  0  0
  7  9  1  0  0  0  0
  9 10  1  0  0  0  0
  9 11  1  1  0  0  0
 11 12  1  0  0  0  0
 13 14  1  1  0  0  0
 13 15  1  0  0  0  0
 13 21  1  0  0  0  0
 16 15  1  0  0  0  0
 16 17  1  1  0  0  0
 18  2  1  6  0  0  0
 18 16  1  0  0  0  0
 19 18  1  0  0  0  0
 19 20  1  1  0  0  0
 21 19  1  0  0  0  0
 21 22  1  6  0  0  0
 23 20  1  1  0  0  0
 23 24  1  0  0  0  0
 23 28  1  0  0  0  0
 24 25  1  6  0  0  0
 24 26  1  0  0  0  0
 26 27  1  0  0  0  0
 26 32  1  6  0  0  0
 27 28  1  0  0  0  0
 27 29  1  1  0  0  0
 29 30  1  0  0  0  0
 31 32  1  1  0  0  0
 31 40  1  0  0  0  0
 33 31  1  0  0  0  0
 33 42  1  6  0  0  0
 35 33  1  0  0  0  0
 35 36  1  1  0  0  0
 37 35  1  0  0  0  0
 37 38  1  1  0  0  0
 37 39  1  0  0  0  0
 39 40  1  0  0  0  0
 39 41  1  6  0  0  0
 41 34  1  0  0  0  0
M  END
>  <CHROM.1>
-178.06536290,-179.92310981,-161.91101097,148.08690209,102.53738785,159.66426314
61.09807629,-174.67956897,-60.50510776,14.35532823,8.75743548,3.21174598
-1.37950133,-0.11621897,-0.72534616

>  <Name>
2et4_lig

>  <RI>
0

>  <Rbt.Current_Directory>
/home/itssahil/PROJECTS/Mol_Feturizer/New_Systems/rnas/2et4

>  <Rbt.Executable>
rbdock ($Id: //depot/dev/client3/rdock/2013.1/src/exe/rbdock.cxx#4 $)

>  <Rbt.Library>
libRbt.so (2013.1, Build901 2013/11/27)

>  <Rbt.Parameter_File>
/export/apps/rDock/src/rDock_2013.1_src/data/scripts/dock_solv.prm

>  <Rbt.Receptor>
prm/pocket_docking_8.prm

>  <SCORE>
-15.8495

>  <SCORE.INTER>
-12.8361

>  <SCORE.INTER.CONST>
1

>  <SCORE.INTER.POLAR>
-1.11447

>  <SCORE.INTER.ROT>
9

>  <SCORE.INTER.SOLV>
23.3054

>  <SCORE.INTER.VDW>
-22.211

>  <SCORE.INTER.norm>
-0.305622

>  <SCORE.INTRA>
-3.01334

>  <SCORE.INTRA.DIHEDRAL>
-8.26574

>  <SCORE.INTRA.DIHEDRAL.0>
21.6909

>  <SCORE.INTRA.POLAR>
0

>  <SCORE.INTRA.POLAR.0>
0

>  <SCORE.INTRA.REPUL>
0

>  <SCORE.INTRA.REPUL.0>
0

>  <SCORE.INTRA.SOLV>
-2.1221

>  <SCORE.INTRA.SOLV.lig_0>
-116.606

>  <SCORE.INTRA.VDW>
2.18058

>  <SCORE.INTRA.VDW.0>
-6.01229

>  <SCORE.INTRA.norm>
-0.0717462

>  <SCORE.RESTR>
0

>  <SCORE.RESTR.CAVITY>
0

>  <SCORE.RESTR.norm>
0

>  <SCORE.SYSTEM>
0

>  <SCORE.SYSTEM.CONST>
0

>  <SCORE.SYSTEM.DIHEDRAL>
0

>  <SCORE.SYSTEM.SOLV>
0

>  <SCORE.SYSTEM.norm>
0

>  <SCORE.heavy>
42

>  <SCORE.norm>
-0.377368

>  <RMSD>
10.055

$$$$
2et4_lig
 OpenBabel11021811423D
libRbt.so/2013.1/901 2013/11/27
 42 45  0  0  0  0  0  0  0  0999 V2000
   15.4065    6.8712   10.8612 C   0  0  2  0  0  0  0  0  0  0  0  0
   14.5496    7.2619    9.7864 O   0  0  0  0  0  0  0  0  0  0  0  0
   16.3883    5.8109   10.3006 C   0  0  2  0  0  0  0  0  0  0  0  0
   17.1345    6.3259    9.1809 N   0  0  0  0  0  0  0  0  0  0  0  0
   15.5928    4.5340    9.9033 C   0  0  1  0  0  0  0  0  0  0  0  0
   16.4797    3.5766    9.4148 O   0  0  0  0  0  0  0  0  0  0  0  0
   14.8126    4.0316   11.1638 C   0  0  2  0  0  0  0  0  0  0  0  0
   14.0685    2.8745   10.8459 O   0  0  0  0  0  0  0  0  0  0  0  0
   13.8481    5.1346   11.6958 C   0  0  2  0  0  0  0  0  0  0  0  0
   14.6188    6.3029   11.9918 O   0  0  0  0  0  0  0  0  0  0  0  0
   13.0812    4.6819   12.9812 C   0  0  0  0  0  0  0  0  0  0  0  0
   12.2698    3.5382   12.7473 N   0  0  0  0  0  0  0  0  0  0  0  0
   11.5350   10.3538    9.8715 C   0  0  2  0  0  0  0  0  0  0  0  0
   10.9144   11.6817    9.7862 N   0  0  0  0  0  0  0  0  0  0  0  0
   12.6764   10.3617   11.0245 C   0  0  0  0  0  0  0  0  0  0  0  0
   13.3520    8.9317   11.1021 C   0  0  2  0  0  0  0  0  0  0  0  0
   14.4155    8.9005   12.1218 N   0  0  0  0  0  0  0  0  0  0  0  0
   13.9554    8.5647    9.7044 C   0  0  2  0  0  0  0  0  0  0  0  0
   12.8498    8.5893    8.5976 C   0  0  2  0  0  0  0  0  0  0  0  0
   13.5085    8.2538    7.3516 O   0  0  0  0  0  0  0  0  0  0  0  0
   12.1990   10.0081    8.5286 C   0  0  1  0  0  0  0  0  0  0  0  0
   11.2148    9.9960    7.5503 O   0  0  0  0  0  0  0  0  0  0  0  0
   14.1522    9.1298    6.5425 C   0  0  1  0  0  0  0  0  0  0  0  0
   15.0066    8.3844    5.4843 C   0  0  2  0  0  0  0  0  0  0  0  0
   16.2675    8.0121    5.9600 O   0  0  0  0  0  0  0  0  0  0  0  0
   14.9219    9.3869    4.3482 C   0  0  1  0  0  0  0  0  0  0  0  0
   13.5032    9.9726    4.3800 C   0  0  2  0  0  0  0  0  0  0  0  0
   13.2823   10.0176    5.7896 O   0  0  0  0  0  0  0  0  0  0  0  0
   12.4073    9.1279    3.6449 C   0  0  0  0  0  0  0  0  0  0  0  0
   12.5925    7.7415    4.0357 O   0  0  0  0  0  0  0  0  0  0  0  0
   16.0462   11.4870    3.6797 C   0  0  2  0  0  0  0  0  0  0  0  0
   15.9541   10.4278    4.5927 O   0  0  0  0  0  0  0  0  0  0  0  0
   16.0413   10.9600    2.1790 C   0  0  1  0  0  0  0  0  0  0  0  0
   18.9733   15.6591    3.0183 N   0  0  0  0  0  0  0  0  0  0  0  0
   16.1731   12.2563    1.2204 C   0  0  1  0  0  0  0  0  0  0  0  0
   15.0077   13.1799    1.5141 O   0  0  0  0  0  0  0  0  0  0  0  0
   17.5772   13.0133    1.5064 C   0  0  2  0  0  0  0  0  0  0  0  0
   18.6734   12.1152    1.2100 O   0  0  0  0  0  0  0  0  0  0  0  0
   17.5605   13.5050    3.0614 C   0  0  1  0  0  0  0  0  0  0  0  0
   17.3324   12.3190    3.9578 O   0  0  0  0  0  0  0  0  0  0  0  0
   18.8869   14.2365    3.4701 C   0  0  0  0  0  0  0  0  0  0  0  0
   17.1466    9.9653    1.9802 N   0  0  0  0  0  0  0  0  0  0  0  0
  1  2  1  6  0  0  0
  1  3  1  0  0  0  0
  1 10  1  0  0  0  0
  3  4  1  6  0  0  0
  3  5  1  0  0  0  0
  5  6  1  1  0  0  0
  5  7  1  0  0  0  0
  7  8  1  6  0  0  0
  7  9  1  0  0  0  0
  9 10  1  0  0  0  0
  9 11  1  1  0  0  0
 11 12  1  0  0  0  0
 13 14  1  6  0  0  0
 13 15  1  0  0  0  0
 13 21  1  0  0  0  0
 16 15  1  0  0  0  0
 16 17  1  1  0  0  0
 18  2  1  1  0  0  0
 18 16  1  0  0  0  0
 19 18  1  0  0  0  0
 19 20  1  6  0  0  0
 21 19  1  0  0  0  0
 21 22  1  6  0  0  0
 23 20  1  6  0  0  0
 23 24  1  0  0  0  0
 23 28  1  0  0  0  0
 24 25  1  1  0  0  0
 24 26  1  0  0  0  0
 26 27  1  0  0  0  0
 26 32  1  1  0  0  0
 27 28  1  0  0  0  0
 27 29  1  6  0  0  0
 29 30  1  0  0  0  0
 31 32  1  1  0  0  0
 31 40  1  0  0  0  0
 33 31  1  0  0  0  0
 33 42  1  1  0  0  0
 35 33  1  0  0  0  0
 35 36  1  1  0  0  0
 37 35  1  0  0  0  0
 37 38  1  1  0  0  0
 37 39  1  0  0  0  0
 39 40  1  0  0  0  0
 39 41  1  1  0  0  0
 41 34  1  0  0  0  0
M  END
>  <CHROM.1>
-151.06283795,-61.00189376,-46.40183962,-85.04441359,166.87353525,-178.63209349
45.31850720,-47.16302882,79.09973113,14.82252730,8.97156954,7.07093522,-1.89160812
0.65144425,-0.71541307

>  <Name>
2et4_lig

>  <RI>
0

>  <Rbt.Current_Directory>
/home/itssahil/PROJECTS/Mol_Feturizer/New_Systems/rnas/2et4

>  <Rbt.Executable>
rbdock ($Id: //depot/dev/client3/rdock/2013.1/src/exe/rbdock.cxx#4 $)

>  <Rbt.Library>
libRbt.so (2013.1, Build901 2013/11/27)

>  <Rbt.Parameter_File>
/export/apps/rDock/src/rDock_2013.1_src/data/scripts/dock_solv.prm

>  <Rbt.Receptor>
prm/blind_docking_40.prm

>  <SCORE>
17.8601

>  <SCORE.INTER>
-0.170891

>  <SCORE.INTER.CONST>
1

>  <SCORE.INTER.POLAR>
-0.240325

>  <SCORE.INTER.ROT>
9

>  <SCORE.INTER.SOLV>
26.3243

>  <SCORE.INTER.VDW>
-17.6876

>  <SCORE.INTER.norm>
-0.00406882

>  <SCORE.INTRA>
0.010512

>  <SCORE.INTRA.DIHEDRAL>
-11.0185

>  <SCORE.INTRA.DIHEDRAL.0>
21.6909

>  <SCORE.INTRA.POLAR>
0

>  <SCORE.INTRA.POLAR.0>
0

>  <SCORE.INTRA.REPUL>
0.121217

>  <SCORE.INTRA.REPUL.0>
0

>  <SCORE.INTRA.SOLV>
0.230263

>  <SCORE.INTRA.SOLV.lig_0>
-116.606

>  <SCORE.INTRA.VDW>
4.79855

>  <SCORE.INTRA.VDW.0>
-6.01229

>  <SCORE.INTRA.norm>
0.000250285

>  <SCORE.RESTR>
18.0205

>  <SCORE.RESTR.CAVITY>
18.0205

>  <SCORE.RESTR.norm>
0.429059

>  <SCORE.SYSTEM>
0

>  <SCORE.SYSTEM.CONST>
0

>  <SCORE.SYSTEM.DIHEDRAL>
0

>  <SCORE.SYSTEM.SOLV>
0

>  <SCORE.SYSTEM.norm>
0

>  <SCORE.heavy>
42

>  <SCORE.norm>
0.425241

>  <RMSD>
10.058

$$$$
2et4_lig
 OpenBabel11021811423D
libRbt.so/2013.1/901 2013/11/27
 42 45  0  0  0  0  0  0  0  0999 V2000
    9.9658    4.4027   13.8778 C   0  0  2  0  0  0  0  0  0  0  0  0
    8.6374    3.9569   13.5971 O   0  0  0  0  0  0  0  0  0  0  0  0
   10.2030    4.2047   15.3967 C   0  0  2  0  0  0  0  0  0  0  0  0
   10.0060    2.8312   15.7844 N   0  0  0  0  0  0  0  0  0  0  0  0
    9.2582    5.1517   16.1915 C   0  0  1  0  0  0  0  0  0  0  0  0
    9.4849    4.9833   17.5561 O   0  0  0  0  0  0  0  0  0  0  0  0
    9.5289    6.6200   15.7218 C   0  0  2  0  0  0  0  0  0  0  0  0
    8.6851    7.5155   16.4144 O   0  0  0  0  0  0  0  0  0  0  0  0
    9.2876    6.7659   14.1887 C   0  0  2  0  0  0  0  0  0  0  0  0
   10.1362    5.8366   13.5083 O   0  0  0  0  0  0  0  0  0  0  0  0
    9.5889    8.2122   13.6761 C   0  0  0  0  0  0  0  0  0  0  0  0
   10.9373    8.5954   13.9129 N   0  0  0  0  0  0  0  0  0  0  0  0
    6.6697    2.1327   10.2125 C   0  0  2  0  0  0  0  0  0  0  0  0
    6.1657    1.9367    8.8475 N   0  0  0  0  0  0  0  0  0  0  0  0
    6.0252    3.4830   10.8399 C   0  0  0  0  0  0  0  0  0  0  0  0
    6.5832    3.6971   12.3063 C   0  0  2  0  0  0  0  0  0  0  0  0
    6.0424    4.9295   12.9066 N   0  0  0  0  0  0  0  0  0  0  0  0
    8.1465    3.7785   12.2614 C   0  0  2  0  0  0  0  0  0  0  0  0
    8.7528    2.4828   11.6278 C   0  0  2  0  0  0  0  0  0  0  0  0
   10.1903    2.6637   11.6191 O   0  0  0  0  0  0  0  0  0  0  0  0
    8.1987    2.2903   10.1796 C   0  0  1  0  0  0  0  0  0  0  0  0
    8.7416    1.1286    9.6492 O   0  0  0  0  0  0  0  0  0  0  0  0
   10.8760    3.4654   10.7687 C   0  0  1  0  0  0  0  0  0  0  0  0
   10.4156    4.9404   10.9023 C   0  0  2  0  0  0  0  0  0  0  0  0
    9.2789    5.2317   10.1421 O   0  0  0  0  0  0  0  0  0  0  0  0
   11.7197    5.6377   10.5619 C   0  0  1  0  0  0  0  0  0  0  0  0
   12.8458    4.7931   11.1745 C   0  0  2  0  0  0  0  0  0  0  0  0
   12.3146    3.4835   10.9733 O   0  0  0  0  0  0  0  0  0  0  0  0
   13.1535    5.0716   12.6852 C   0  0  0  0  0  0  0  0  0  0  0  0
   14.1873    4.1387   13.0974 O   0  0  0  0  0  0  0  0  0  0  0  0
   12.6995    6.6368    8.5215 C   0  0  2  0  0  0  0  0  0  0  0  0
   11.8199    5.6998    9.0804 O   0  0  0  0  0  0  0  0  0  0  0  0
   12.1807    8.1235    8.7457 C   0  0  1  0  0  0  0  0  0  0  0  0
   12.5919    6.8646    4.0374 N   0  0  0  0  0  0  0  0  0  0  0  0
   13.2538    9.1111    8.0459 C   0  0  1  0  0  0  0  0  0  0  0  0
   14.6061    8.8665    8.6853 O   0  0  0  0  0  0  0  0  0  0  0  0
   13.3215    8.8132    6.4543 C   0  0  2  0  0  0  0  0  0  0  0  0
   12.0225    9.0627    5.8658 O   0  0  0  0  0  0  0  0  0  0  0  0
   13.8198    7.2718    6.2656 C   0  0  1  0  0  0  0  0  0  0  0  0
   12.8863    6.3512    7.0024 O   0  0  0  0  0  0  0  0  0  0  0  0
   13.9030    6.8524    4.7561 C   0  0  0  0  0  0  0  0  0  0  0  0
   10.7942    8.2728    8.1925 N   0  0  0  0  0  0  0  0  0  0  0  0
  1  2  1  1  0  0  0
  1  3  1  0  0  0  0
  1 10  1  0  0  0  0
  3  4  1  1  0  0  0
  3  5  1  0  0  0  0
  5  6  1  1  0  0  0
  5  7  1  0  0  0  0
  7  8  1  1  0  0  0
  7  9  1  0  0  0  0
  9 10  1  0  0  0  0
  9 11  1  6  0  0  0
 11 12  1  0  0  0  0
 13 14  1  6  0  0  0
 13 15  1  0  0  0  0
 13 21  1  0  0  0  0
 16 15  1  0  0  0  0
 16 17  1  6  0  0  0
 18  2  1  1  0  0  0
 18 16  1  0  0  0  0
 19 18  1  0  0  0  0
 19 20  1  6  0  0  0
 21 19  1  0  0  0  0
 21 22  1  1  0  0  0
 23 20  1  1  0  0  0
 23 24  1  0  0  0  0
 23 28  1  0  0  0  0
 24 25  1  6  0  0  0
 24 26  1  0  0  0  0
 26 27  1  0  0  0  0
 26 32  1  6  0  0  0
 27 28  1  0  0  0  0
 27 29  1  1  0  0  0
 29 30  1  0  0  0  0
 31 32  1  6  0  0  0
 31 40  1  0  0  0  0
 33 31  1  0  0  0  0
 33 42  1  6  0  0  0
 35 33  1  0  0  0  0
 35 36  1  1  0  0  0
 37 35  1  0  0  0  0
 37 38  1  1  0  0  0
 37 39  1  0  0  0  0
 39 40  1  0  0  0  0
 39 41  1  6  0  0  0
 41 34  1  0  0  0  0
M  END
>  <CHROM.1>
-169.15003728,59.98863915,-163.68131870,-74.86187461,59.68312280,160.66434514
177.09818990,-69.09012794,-63.37161402,10.49942222,5.38751269,11.10624576
-2.30888712,-0.80730030,-1.75814924

>  <Name>
2et4_lig

>  <RI>
3.65815e+07

>  <Rbt.Current_Directory>
/home/itssahil/PROJECTS/Mol_Feturizer/New_Systems/rnas/2et4

>  <Rbt.Executable>
rbdock ($Id: //depot/dev/client3/rdock/2013.1/src/exe/rbdock.cxx#4 $)

>  <Rbt.Library>
libRbt.so (2013.1, Build901 2013/11/27)

>  <Rbt.Parameter_File>
/export/apps/rDock/src/rDock_2013.1_src/data/scripts/dock_solv.prm

>  <Rbt.Receptor>
prm/pocket_docking_4.prm

>  <SCORE>
-5.54477

>  <SCORE.INTER>
1.44652

>  <SCORE.INTER.CONST>
1

>  <SCORE.INTER.POLAR>
-0.231102

>  <SCORE.INTER.ROT>
9

>  <SCORE.INTER.SOLV>
7.13337

>  <SCORE.INTER.VDW>
-10.2431

>  <SCORE.INTER.norm>
0.0344409

>  <SCORE.INTRA>
-6.99129

>  <SCORE.INTRA.DIHEDRAL>
-16.5257

>  <SCORE.INTRA.DIHEDRAL.0>
21.6909

>  <SCORE.INTRA.POLAR>
0

>  <SCORE.INTRA.POLAR.0>
0

>  <SCORE.INTRA.REPUL>
0

>  <SCORE.INTRA.REPUL.0>
0

>  <SCORE.INTRA.SOLV>
0.418354

>  <SCORE.INTRA.SOLV.lig_0>
-116.606

>  <SCORE.INTRA.VDW>
1.06238

>  <SCORE.INTRA.VDW.0>
-6.01229

>  <SCORE.INTRA.norm>
-0.166459

>  <SCORE.RESTR>
0

>  <SCORE.RESTR.CAVITY>
0

>  <SCORE.RESTR.norm>
0

>  <SCORE.SYSTEM>
0

>  <SCORE.SYSTEM.CONST>
0

>  <SCORE.SYSTEM.DIHEDRAL>
0

>  <SCORE.SYSTEM.SOLV>
0

>  <SCORE.SYSTEM.norm>
0

>  <SCORE.heavy>
42

>  <SCORE.norm>
-0.132018

>  <RMSD>
10.086

$$$$
2et4_lig
 OpenBabel11021811423D
libRbt.so/2013.1/901 2013/11/27
 42 45  0  0  0  0  0  0  0  0999 V2000
   10.8823   10.3553   16.7147 C   0  0  2  0  0  0  0  0  0  0  0  0
   11.0379   10.1331   15.3116 O   0  0  0  0  0  0  0  0  0  0  0  0
   10.8132    8.9632   17.3929 C   0  0  2  0  0  0  0  0  0  0  0  0
   11.9857    8.1783   17.1018 N   0  0  0  0  0  0  0  0  0  0  0  0
    9.5204    8.2307   16.9309 C   0  0  1  0  0  0  0  0  0  0  0  0
    9.4527    6.9864   17.5544 O   0  0  0  0  0  0  0  0  0  0  0  0
    8.2931    9.1370   17.2802 C   0  0  2  0  0  0  0  0  0  0  0  0
    7.0950    8.5123   16.8705 O   0  0  0  0  0  0  0  0  0  0  0  0
    8.4135   10.5269   16.5848 C   0  0  2  0  0  0  0  0  0  0  0  0
    9.6423   11.1325   16.9973 O   0  0  0  0  0  0  0  0  0  0  0  0
    7.2234   11.4753   16.9450 C   0  0  0  0  0  0  0  0  0  0  0  0
    7.2271   12.6621   16.1624 N   0  0  0  0  0  0  0  0  0  0  0  0
   12.6733   12.2110   11.8966 C   0  0  2  0  0  0  0  0  0  0  0  0
   13.6085   12.9745   11.0610 N   0  0  0  0  0  0  0  0  0  0  0  0
   12.2886   13.0790   13.2122 C   0  0  0  0  0  0  0  0  0  0  0  0
   11.2914   12.2452   14.1164 C   0  0  2  0  0  0  0  0  0  0  0  0
   10.9345   12.9871   15.3386 N   0  0  0  0  0  0  0  0  0  0  0  0
   11.9581   10.8828   14.5065 C   0  0  2  0  0  0  0  0  0  0  0  0
   12.3500   10.0695   13.2286 C   0  0  2  0  0  0  0  0  0  0  0  0
   12.9668    8.8442   13.6948 O   0  0  0  0  0  0  0  0  0  0  0  0
   13.3394   10.9023   12.3518 C   0  0  1  0  0  0  0  0  0  0  0  0
   13.6577   10.1633   11.2212 O   0  0  0  0  0  0  0  0  0  0  0  0
   13.4989    7.8820   12.9028 C   0  0  1  0  0  0  0  0  0  0  0  0
   14.3129    6.8608   13.7395 C   0  0  2  0  0  0  0  0  0  0  0  0
   15.6245    7.2765   13.9885 O   0  0  0  0  0  0  0  0  0  0  0  0
   14.0886    5.6179   12.8982 C   0  0  1  0  0  0  0  0  0  0  0  0
   12.6456    5.6898   12.3791 C   0  0  2  0  0  0  0  0  0  0  0  0
   12.5275    7.0957   12.1613 O   0  0  0  0  0  0  0  0  0  0  0  0
   11.5472    5.1578   13.3615 C   0  0  0  0  0  0  0  0  0  0  0  0
   11.9332    3.8155   13.7592 O   0  0  0  0  0  0  0  0  0  0  0  0
   15.0545    4.5910   10.8650 C   0  0  2  0  0  0  0  0  0  0  0  0
   15.0764    5.6452   11.7881 O   0  0  0  0  0  0  0  0  0  0  0  0
   14.2349    3.3482   11.4248 C   0  0  1  0  0  0  0  0  0  0  0  0
   18.9777    3.9310    8.8624 N   0  0  0  0  0  0  0  0  0  0  0  0
   14.2948    2.1924   10.2946 C   0  0  1  0  0  0  0  0  0  0  0  0
   13.6998    2.7512    9.0174 O   0  0  0  0  0  0  0  0  0  0  0  0
   15.8315    1.7402   10.0489 C   0  0  2  0  0  0  0  0  0  0  0  0
   16.3737    1.2021   11.2788 O   0  0  0  0  0  0  0  0  0  0  0  0
   16.6466    3.0470    9.5126 C   0  0  1  0  0  0  0  0  0  0  0  0
   16.5091    4.1651   10.5091 O   0  0  0  0  0  0  0  0  0  0  0  0
   18.1643    2.7409    9.2590 C   0  0  0  0  0  0  0  0  0  0  0  0
   14.8004    2.9119   12.7442 N   0  0  0  0  0  0  0  0  0  0  0  0
  1  2  1  6  0  0  0
  1  3  1  0  0  0  0
  1 10  1  0  0  0  0
  3  4  1  6  0  0  0
  3  5  1  0  0  0  0
  5  6  1  1  0  0  0
  5  7  1  0  0  0  0
  7  8  1  6  0  0  0
  7  9  1  0  0  0  0
  9 10  1  0  0  0  0
  9 11  1  1  0  0  0
 11 12  1  0  0  0  0
 13 14  1  6  0  0  0
 13 15  1  0  0  0  0
 13 21  1  0  0  0  0
 16 15  1  0  0  0  0
 16 17  1  1  0  0  0
 18  2  1  1  0  0  0
 18 16  1  0  0  0  0
 19 18  1  0  0  0  0
 19 20  1  1  0  0  0
 21 19  1  0  0  0  0
 21 22  1  6  0  0  0
 23 20  1  1  0  0  0
 23 24  1  0  0  0  0
 23 28  1  0  0  0  0
 24 25  1  6  0  0  0
 24 26  1  0  0  0  0
 26 27  1  0  0  0  0
 26 32  1  6  0  0  0
 27 28  1  0  0  0  0
 27 29  1  1  0  0  0
 29 30  1  0  0  0  0
 31 32  1  1  0  0  0
 31 40  1  0  0  0  0
 33 31  1  0  0  0  0
 33 42  1  1  0  0  0
 35 33  1  0  0  0  0
 35 36  1  6  0  0  0
 37 35  1  0  0  0  0
 37 38  1  1  0  0  0
 37 39  1  0  0  0  0
 39 40  1  0  0  0  0
 39 41  1  1  0  0  0
 41 34  1  0  0  0  0
M  END
>  <CHROM.1>
-136.60644393,-171.30626727,-82.02655386,-177.18989972,168.75466384,-179.57834064
-53.28959956,-16.31747468,-175.72311812,12.68229066,7.54201637,13.41006700
2.44755564,0.76879687,-0.07292153

>  <Name>
2et4_lig

>  <RI>
0

>  <Rbt.Current_Directory>
/home/itssahil/PROJECTS/Mol_Feturizer/New_Systems/rnas/2et4

>  <Rbt.Executable>
rbdock ($Id: //depot/dev/client3/rdock/2013.1/src/exe/rbdock.cxx#4 $)

>  <Rbt.Library>
libRbt.so (2013.1, Build901 2013/11/27)

>  <Rbt.Parameter_File>
/export/apps/rDock/src/rDock_2013.1_src/data/scripts/dock_solv.prm

>  <Rbt.Receptor>
prm/blind_docking_80.prm

>  <SCORE>
19.8563

>  <SCORE.INTER>
0.120011

>  <SCORE.INTER.CONST>
1

>  <SCORE.INTER.POLAR>
-0.355655

>  <SCORE.INTER.ROT>
9

>  <SCORE.INTER.SOLV>
29.2658

>  <SCORE.INTER.VDW>
-18.0897

>  <SCORE.INTER.norm>
0.0028574

>  <SCORE.INTRA>
1.50796

>  <SCORE.INTRA.DIHEDRAL>
-6.41268

>  <SCORE.INTRA.DIHEDRAL.0>
21.6909

>  <SCORE.INTRA.POLAR>
0

>  <SCORE.INTRA.POLAR.0>
0

>  <SCORE.INTRA.REPUL>
0

>  <SCORE.INTRA.REPUL.0>
0

>  <SCORE.INTRA.SOLV>
1.10259

>  <SCORE.INTRA.SOLV.lig_0>
-116.606

>  <SCORE.INTRA.VDW>
4.16301

>  <SCORE.INTRA.VDW.0>
-6.01229

>  <SCORE.INTRA.norm>
0.0359039

>  <SCORE.RESTR>
18.2283

>  <SCORE.RESTR.CAVITY>
18.2283

>  <SCORE.RESTR.norm>
0.434008

>  <SCORE.SYSTEM>
0

>  <SCORE.SYSTEM.CONST>
0

>  <SCORE.SYSTEM.DIHEDRAL>
0

>  <SCORE.SYSTEM.SOLV>
0

>  <SCORE.SYSTEM.norm>
0

>  <SCORE.heavy>
42

>  <SCORE.norm>
0.472769

>  <RMSD>
10.088

$$$$
2et4_lig
 OpenBabel11021811423D
libRbt.so/2013.1/901 2013/11/27
 42 45  0  0  0  0  0  0  0  0999 V2000
   10.0407    8.1381   12.0541 C   0  0  2  0  0  0  0  0  0  0  0  0
    9.2412    9.3225   12.0518 O   0  0  0  0  0  0  0  0  0  0  0  0
    9.0731    6.9338   12.1814 C   0  0  2  0  0  0  0  0  0  0  0  0
    8.1040    6.9237   11.1154 N   0  0  0  0  0  0  0  0  0  0  0  0
    8.3755    6.9806   13.5715 C   0  0  1  0  0  0  0  0  0  0  0  0
    7.5186    5.8881   13.6896 O   0  0  0  0  0  0  0  0  0  0  0  0
    9.4849    6.9865   14.6757 C   0  0  2  0  0  0  0  0  0  0  0  0
    8.8949    7.0359   15.9575 O   0  0  0  0  0  0  0  0  0  0  0  0
   10.4372    8.2079   14.4993 C   0  0  2  0  0  0  0  0  0  0  0  0
   11.0074    8.1494   13.1885 O   0  0  0  0  0  0  0  0  0  0  0  0
   11.5845    8.2235   15.5618 C   0  0  0  0  0  0  0  0  0  0  0  0
   11.0996    8.4900   16.8714 N   0  0  0  0  0  0  0  0  0  0  0  0
    9.8033   13.5126   11.1672 C   0  0  2  0  0  0  0  0  0  0  0  0
   10.3773   14.8639   11.1844 N   0  0  0  0  0  0  0  0  0  0  0  0
    9.3452   13.0988   12.6676 C   0  0  0  0  0  0  0  0  0  0  0  0
    8.7404   11.6355   12.6456 C   0  0  2  0  0  0  0  0  0  0  0  0
    8.3336   11.2077   13.9958 N   0  0  0  0  0  0  0  0  0  0  0  0
    9.8084   10.6395   12.0799 C   0  0  2  0  0  0  0  0  0  0  0  0
   10.2622   11.0669   10.6449 C   0  0  2  0  0  0  0  0  0  0  0  0
   11.2528   10.0979   10.2218 O   0  0  0  0  0  0  0  0  0  0  0  0
   10.8632   12.5086   10.6852 C   0  0  1  0  0  0  0  0  0  0  0  0
   11.2433   12.8654    9.3992 O   0  0  0  0  0  0  0  0  0  0  0  0
   11.8584   10.0716    9.0099 C   0  0  1  0  0  0  0  0  0  0  0  0
   12.7735    8.8269    8.8727 C   0  0  2  0  0  0  0  0  0  0  0  0
   14.0454    9.0175    9.4211 O   0  0  0  0  0  0  0  0  0  0  0  0
   12.6505    8.5938    7.3782 C   0  0  1  0  0  0  0  0  0  0  0  0
   11.1997    8.9207    6.9976 C   0  0  2  0  0  0  0  0  0  0  0  0
   10.9517   10.0186    7.8755 O   0  0  0  0  0  0  0  0  0  0  0  0
   10.1682    7.7606    7.2092 C   0  0  0  0  0  0  0  0  0  0  0  0
   10.5850    6.6502    6.3710 O   0  0  0  0  0  0  0  0  0  0  0  0
   13.3642    9.8504    5.3700 C   0  0  2  0  0  0  0  0  0  0  0  0
   13.6157    9.5003    6.7035 O   0  0  0  0  0  0  0  0  0  0  0  0
   13.6516    8.6330    4.3877 C   0  0  1  0  0  0  0  0  0  0  0  0
   16.4433   12.5439    3.4665 N   0  0  0  0  0  0  0  0  0  0  0  0
   13.3514    9.1540    2.8860 C   0  0  1  0  0  0  0  0  0  0  0  0
   11.9095    9.6178    2.8276 O   0  0  0  0  0  0  0  0  0  0  0  0
   14.3508   10.3747    2.5155 C   0  0  2  0  0  0  0  0  0  0  0  0
   15.7193    9.9050    2.5689 O   0  0  0  0  0  0  0  0  0  0  0  0
   14.0532   11.5869    3.5652 C   0  0  1  0  0  0  0  0  0  0  0  0
   14.2270   11.0836    4.9718 O   0  0  0  0  0  0  0  0  0  0  0  0
   14.9823   12.8276    3.3229 C   0  0  0  0  0  0  0  0  0  0  0  0
   15.0583    8.1451    4.5719 N   0  0  0  0  0  0  0  0  0  0  0  0
  1  2  1  1  0  0  0
  1  3  1  0  0  0  0
  1 10  1  0  0  0  0
  3  4  1  6  0  0  0
  3  5  1  0  0  0  0
  5  6  1  1  0  0  0
  5  7  1  0  0  0  0
  7  8  1  1  0  0  0
  7  9  1  0  0  0  0
  9 10  1  0  0  0  0
  9 11  1  1  0  0  0
 11 12  1  0  0  0  0
 13 14  1  1  0  0  0
 13 15  1  0  0  0  0
 13 21  1  0  0  0  0
 16 15  1  0  0  0  0
 16 17  1  1  0  0  0
 18  2  1  6  0  0  0
 18 16  1  0  0  0  0
 19 18  1  0  0  0  0
 19 20  1  1  0  0  0
 21 19  1  0  0  0  0
 21 22  1  6  0  0  0
 23 20  1  1  0  0  0
 23 24  1  0  0  0  0
 23 28  1  0  0  0  0
 24 25  1  6  0  0  0
 24 26  1  0  0  0  0
 26 27  1  0  0  0  0
 26 32  1  6  0  0  0
 27 28  1  0  0  0  0
 27 29  1  1  0  0  0
 29 30  1  0  0  0  0
 31 32  1  1  0  0  0
 31 40  1  0  0  0  0
 33 31  1  0  0  0  0
 33 42  1  6  0  0  0
 35 33  1  0  0  0  0
 35 36  1  1  0  0  0
 37 35  1  0  0  0  0
 37 38  1  1  0  0  0
 37 39  1  0  0  0  0
 39 40  1  0  0  0  0
 39 41  1  6  0  0  0
 41 34  1  0  0  0  0
M  END
>  <CHROM.1>
173.70315827,-68.87203114,-157.15096247,176.97493967,-175.34726913,-156.41720350
-60.80578856,-73.09223382,-60.47458938,11.43553264,9.64339253,9.27899143
3.05794564,1.13335912,0.25148461

>  <Name>
2et4_lig

>  <RI>
1.79929e+07

>  <Rbt.Current_Directory>
/home/itssahil/PROJECTS/Mol_Feturizer/New_Systems/rnas/2et4

>  <Rbt.Executable>
rbdock ($Id: //depot/dev/client3/rdock/2013.1/src/exe/rbdock.cxx#4 $)

>  <Rbt.Library>
libRbt.so (2013.1, Build901 2013/11/27)

>  <Rbt.Parameter_File>
/export/apps/rDock/src/rDock_2013.1_src/data/scripts/dock_solv.prm

>  <Rbt.Receptor>
prm/pocket_docking_7.prm

>  <SCORE>
-25.6649

>  <SCORE.INTER>
-19.0222

>  <SCORE.INTER.CONST>
1

>  <SCORE.INTER.POLAR>
-2.1056

>  <SCORE.INTER.ROT>
9

>  <SCORE.INTER.SOLV>
22.8068

>  <SCORE.INTER.VDW>
-22.8651

>  <SCORE.INTER.norm>
-0.452909

>  <SCORE.INTRA>
-6.64274

>  <SCORE.INTRA.DIHEDRAL>
-15.4081

>  <SCORE.INTRA.DIHEDRAL.0>
21.6909

>  <SCORE.INTRA.POLAR>
0

>  <SCORE.INTRA.POLAR.0>
0

>  <SCORE.INTRA.REPUL>
0

>  <SCORE.INTRA.REPUL.0>
0

>  <SCORE.INTRA.SOLV>
-1.68985

>  <SCORE.INTRA.SOLV.lig_0>
-116.606

>  <SCORE.INTRA.VDW>
1.90623

>  <SCORE.INTRA.VDW.0>
-6.01229

>  <SCORE.INTRA.norm>
-0.158161

>  <SCORE.RESTR>
0

>  <SCORE.RESTR.CAVITY>
0

>  <SCORE.RESTR.norm>
0

>  <SCORE.SYSTEM>
0

>  <SCORE.SYSTEM.CONST>
0

>  <SCORE.SYSTEM.DIHEDRAL>
0

>  <SCORE.SYSTEM.SOLV>
0

>  <SCORE.SYSTEM.norm>
0

>  <SCORE.heavy>
42

>  <SCORE.norm>
-0.61107

>  <RMSD>
10.096

$$$$
2et4_lig
 OpenBabel11021811423D
libRbt.so/2013.1/901 2013/11/27
 42 45  0  0  0  0  0  0  0  0999 V2000
   10.8670    8.2214   16.8740 C   0  0  2  0  0  0  0  0  0  0  0  0
   10.9835    8.6566   15.5178 O   0  0  0  0  0  0  0  0  0  0  0  0
    9.9176    6.9961   16.8808 C   0  0  2  0  0  0  0  0  0  0  0  0
   10.4069    5.9478   16.0221 N   0  0  0  0  0  0  0  0  0  0  0  0
    8.4916    7.4493   16.4540 C   0  0  1  0  0  0  0  0  0  0  0  0
    7.6367    6.3491   16.4766 O   0  0  0  0  0  0  0  0  0  0  0  0
    8.0262    8.5824   17.4283 C   0  0  2  0  0  0  0  0  0  0  0  0
    6.7353    9.0301   17.0723 O   0  0  0  0  0  0  0  0  0  0  0  0
    9.0166    9.7857   17.3939 C   0  0  2  0  0  0  0  0  0  0  0  0
   10.3202    9.3065   17.7372 O   0  0  0  0  0  0  0  0  0  0  0  0
    8.6050   10.9209   18.3875 C   0  0  0  0  0  0  0  0  0  0  0  0
    7.7199   11.8606   17.7919 N   0  0  0  0  0  0  0  0  0  0  0  0
   13.1012   11.4337   12.9766 C   0  0  2  0  0  0  0  0  0  0  0  0
   14.1017   12.4105   12.5288 N   0  0  0  0  0  0  0  0  0  0  0  0
   12.3068   12.0218   14.2632 C   0  0  0  0  0  0  0  0  0  0  0  0
   11.2395   10.9586   14.7504 C   0  0  2  0  0  0  0  0  0  0  0  0
   10.5102   11.4418   15.9363 N   0  0  0  0  0  0  0  0  0  0  0  0
   11.9641    9.6132   15.0932 C   0  0  2  0  0  0  0  0  0  0  0  0
   12.7494    9.0728   13.8526 C   0  0  2  0  0  0  0  0  0  0  0  0
   13.3904    7.8443   14.2756 O   0  0  0  0  0  0  0  0  0  0  0  0
   13.8030   10.1296   13.3894 C   0  0  1  0  0  0  0  0  0  0  0  0
   14.4730    9.6299   12.2817 O   0  0  0  0  0  0  0  0  0  0  0  0
   13.7417    6.8205   13.4603 C   0  0  1  0  0  0  0  0  0  0  0  0
   12.4934    6.1921   12.7877 C   0  0  2  0  0  0  0  0  0  0  0  0
   11.8596    5.2379   13.5895 O   0  0  0  0  0  0  0  0  0  0  0  0
   13.1167    5.7469   11.4777 C   0  0  1  0  0  0  0  0  0  0  0  0
   14.1338    6.8266   11.0824 C   0  0  2  0  0  0  0  0  0  0  0  0
   14.6319    7.1854   12.3712 O   0  0  0  0  0  0  0  0  0  0  0  0
   13.5450    8.0624   10.3203 C   0  0  0  0  0  0  0  0  0  0  0  0
   12.8561    7.5600    9.1447 O   0  0  0  0  0  0  0  0  0  0  0  0
   14.4378    3.8282   10.6440 C   0  0  2  0  0  0  0  0  0  0  0  0
   13.7707    4.4340   11.7174 O   0  0  0  0  0  0  0  0  0  0  0  0
   14.5481    2.2543   10.8449 C   0  0  1  0  0  0  0  0  0  0  0  0
   19.0108    4.1396    8.2579 N   0  0  0  0  0  0  0  0  0  0  0  0
   15.3490    1.6680    9.5676 C   0  0  1  0  0  0  0  0  0  0  0  0
   14.5780    2.0400    8.3168 O   0  0  0  0  0  0  0  0  0  0  0  0
   16.8418    2.2966    9.5165 C   0  0  2  0  0  0  0  0  0  0  0  0
   17.5602    1.9200   10.7158 O   0  0  0  0  0  0  0  0  0  0  0  0
   16.6876    3.9114    9.3482 C   0  0  1  0  0  0  0  0  0  0  0  0
   15.8536    4.4538   10.4762 O   0  0  0  0  0  0  0  0  0  0  0  0
   18.0751    4.6425    9.3101 C   0  0  0  0  0  0  0  0  0  0  0  0
   15.2186    1.9488   12.1518 N   0  0  0  0  0  0  0  0  0  0  0  0
  1  2  1  6  0  0  0
  1  3  1  0  0  0  0
  1 10  1  0  0  0  0
  3  4  1  6  0  0  0
  3  5  1  0  0  0  0
  5  6  1  1  0  0  0
  5  7  1  0  0  0  0
  7  8  1  6  0  0  0
  7  9  1  0  0  0  0
  9 10  1  0  0  0  0
  9 11  1  1  0  0  0
 11 12  1  0  0  0  0
 13 14  1  1  0  0  0
 13 15  1  0  0  0  0
 13 21  1  0  0  0  0
 16 15  1  0  0  0  0
 16 17  1  1  0  0  0
 18  2  1  6  0  0  0
 18 16  1  0  0  0  0
 19 18  1  0  0  0  0
 19 20  1  1  0  0  0
 21 19  1  0  0  0  0
 21 22  1  6  0  0  0
 23 20  1  6  0  0  0
 23 24  1  0  0  0  0
 23 28  1  0  0  0  0
 24 25  1  1  0  0  0
 24 26  1  0  0  0  0
 26 27  1  0  0  0  0
 26 32  1  1  0  0  0
 27 28  1  0  0  0  0
 27 29  1  1  0  0  0
 29 30  1  0  0  0  0
 31 32  1  1  0  0  0
 31 40  1  0  0  0  0
 33 31  1  0  0  0  0
 33 42  1  1  0  0  0
 35 33  1  0  0  0  0
 35 36  1  6  0  0  0
 37 35  1  0  0  0  0
 37 38  1  1  0  0  0
 37 39  1  0  0  0  0
 39 40  1  0  0  0  0
 39 41  1  1  0  0  0
 41 34  1  0  0  0  0
M  END
>  <CHROM.1>
-168.47594948,-88.71092717,-108.89215526,154.24994821,-62.86748112,-179.06895962
-56.26707797,-156.47119055,55.49209262,12.72982435,7.09131007,13.28466749
2.48091890,0.73648118,0.11847041

>  <Name>
2et4_lig

>  <RI>
0

>  <Rbt.Current_Directory>
/home/itssahil/PROJECTS/Mol_Feturizer/New_Systems/rnas/2et4

>  <Rbt.Executable>
rbdock ($Id: //depot/dev/client3/rdock/2013.1/src/exe/rbdock.cxx#4 $)

>  <Rbt.Library>
libRbt.so (2013.1, Build901 2013/11/27)

>  <Rbt.Parameter_File>
/export/apps/rDock/src/rDock_2013.1_src/data/scripts/dock_solv.prm

>  <Rbt.Receptor>
prm/blind_docking_80.prm

>  <SCORE>
25.7272

>  <SCORE.INTER>
4.86817

>  <SCORE.INTER.CONST>
1

>  <SCORE.INTER.POLAR>
0

>  <SCORE.INTER.ROT>
9

>  <SCORE.INTER.SOLV>
23.9973

>  <SCORE.INTER.VDW>
-14.3537

>  <SCORE.INTER.norm>
0.115909

>  <SCORE.INTRA>
1.35555

>  <SCORE.INTRA.DIHEDRAL>
-6.47356

>  <SCORE.INTRA.DIHEDRAL.0>
21.6909

>  <SCORE.INTRA.POLAR>
0

>  <SCORE.INTRA.POLAR.0>
0

>  <SCORE.INTRA.REPUL>
0.0756949

>  <SCORE.INTRA.REPUL.0>
0

>  <SCORE.INTRA.SOLV>
2.96234

>  <SCORE.INTRA.SOLV.lig_0>
-116.606

>  <SCORE.INTRA.VDW>
2.73268

>  <SCORE.INTRA.VDW.0>
-6.01229

>  <SCORE.INTRA.norm>
0.0322749

>  <SCORE.RESTR>
19.5035

>  <SCORE.RESTR.CAVITY>
19.5035

>  <SCORE.RESTR.norm>
0.46437

>  <SCORE.SYSTEM>
0

>  <SCORE.SYSTEM.CONST>
0

>  <SCORE.SYSTEM.DIHEDRAL>
0

>  <SCORE.SYSTEM.SOLV>
0

>  <SCORE.SYSTEM.norm>
0

>  <SCORE.heavy>
42

>  <SCORE.norm>
0.612554

>  <RMSD>
10.174

$$$$
2et4_lig
 OpenBabel11021811423D
libRbt.so/2013.1/901 2013/11/27
 42 45  0  0  0  0  0  0  0  0999 V2000
   14.0253   10.5654    4.9242 C   0  0  2  0  0  0  0  0  0  0  0  0
   13.0605   10.5856    3.8702 O   0  0  0  0  0  0  0  0  0  0  0  0
   15.1576   11.5462    4.5261 C   0  0  2  0  0  0  0  0  0  0  0  0
   14.6458   12.8728    4.2940 N   0  0  0  0  0  0  0  0  0  0  0  0
   15.8902   11.0006    3.2665 C   0  0  1  0  0  0  0  0  0  0  0  0
   16.9177   11.8759    2.9205 O   0  0  0  0  0  0  0  0  0  0  0  0
   16.4190    9.5638    3.5921 C   0  0  2  0  0  0  0  0  0  0  0  0
   17.0867    9.0257    2.4704 O   0  0  0  0  0  0  0  0  0  0  0  0
   15.2469    8.6191    3.9963 C   0  0  2  0  0  0  0  0  0  0  0  0
   14.5725    9.1929    5.1200 O   0  0  0  0  0  0  0  0  0  0  0  0
   15.7436    7.1840    4.3692 C   0  0  0  0  0  0  0  0  0  0  0  0
   16.7661    7.2097    5.3566 N   0  0  0  0  0  0  0  0  0  0  0  0
   12.0926    6.4388    3.1475 C   0  0  2  0  0  0  0  0  0  0  0  0
   11.3336    5.2449    2.7548 N   0  0  0  0  0  0  0  0  0  0  0  0
   11.3050    7.2161    4.3340 C   0  0  0  0  0  0  0  0  0  0  0  0
   12.1204    8.5102    4.7435 C   0  0  2  0  0  0  0  0  0  0  0  0
   11.4267    9.2629    5.8036 N   0  0  0  0  0  0  0  0  0  0  0  0
   12.3077    9.4264    3.4872 C   0  0  2  0  0  0  0  0  0  0  0  0
   13.0424    8.6553    2.3411 C   0  0  2  0  0  0  0  0  0  0  0  0
   13.1516    9.5780    1.2296 O   0  0  0  0  0  0  0  0  0  0  0  0
   12.2216    7.3864    1.9438 C   0  0  1  0  0  0  0  0  0  0  0  0
   12.9029    6.7165    0.9374 O   0  0  0  0  0  0  0  0  0  0  0  0
   12.3328   10.6334    1.0014 C   0  0  1  0  0  0  0  0  0  0  0  0
   13.1287   11.9645    1.0009 C   0  0  2  0  0  0  0  0  0  0  0  0
   13.3235   12.4881    2.2826 O   0  0  0  0  0  0  0  0  0  0  0  0
   12.2916   12.7522    0.0101 C   0  0  1  0  0  0  0  0  0  0  0  0
   11.8351   11.7610   -1.0696 C   0  0  2  0  0  0  0  0  0  0  0  0
   11.6296   10.5966   -0.2698 O   0  0  0  0  0  0  0  0  0  0  0  0
   12.8610   11.5011   -2.2249 C   0  0  0  0  0  0  0  0  0  0  0  0
   14.0498   10.9187   -1.6275 O   0  0  0  0  0  0  0  0  0  0  0  0
   10.2402   14.1349    0.0476 C   0  0  2  0  0  0  0  0  0  0  0  0
   11.1404   13.3262    0.7545 O   0  0  0  0  0  0  0  0  0  0  0  0
   10.7329   15.6465    0.0017 C   0  0  1  0  0  0  0  0  0  0  0  0
    5.2078   14.4188   -0.1007 N   0  0  0  0  0  0  0  0  0  0  0  0
    9.6151   16.4853   -0.8129 C   0  0  1  0  0  0  0  0  0  0  0  0
    9.4834   15.8764   -2.1947 O   0  0  0  0  0  0  0  0  0  0  0  0
    8.1971   16.4188   -0.0310 C   0  0  2  0  0  0  0  0  0  0  0  0
    8.3462   17.0140    1.2804 O   0  0  0  0  0  0  0  0  0  0  0  0
    7.7440   14.8533    0.0289 C   0  0  1  0  0  0  0  0  0  0  0  0
    8.8256   14.0452    0.6916 O   0  0  0  0  0  0  0  0  0  0  0  0
    6.3862   14.6539    0.7890 C   0  0  0  0  0  0  0  0  0  0  0  0
   10.9538   16.1575    1.3948 N   0  0  0  0  0  0  0  0  0  0  0  0
  1  2  1  6  0  0  0
  1  3  1  0  0  0  0
  1 10  1  0  0  0  0
  3  4  1  6  0  0  0
  3  5  1  0  0  0  0
  5  6  1  1  0  0  0
  5  7  1  0  0  0  0
  7  8  1  6  0  0  0
  7  9  1  0  0  0  0
  9 10  1  0  0  0  0
  9 11  1  1  0  0  0
 11 12  1  0  0  0  0
 13 14  1  6  0  0  0
 13 15  1  0  0  0  0
 13 21  1  0  0  0  0
 16 15  1  0  0  0  0
 16 17  1  1  0  0  0
 18  2  1  1  0  0  0
 18 16  1  0  0  0  0
 19 18  1  0  0  0  0
 19 20  1  6  0  0  0
 21 19  1  0  0  0  0
 21 22  1  6  0  0  0
 23 20  1  6  0  0  0
 23 24  1  0  0  0  0
 23 28  1  0  0  0  0
 24 25  1  1  0  0  0
 24 26  1  0  0  0  0
 26 27  1  0  0  0  0
 26 32  1  1  0  0  0
 27 28  1  0  0  0  0
 27 29  1  6  0  0  0
 29 30  1  0  0  0  0
 31 32  1  1  0  0  0
 31 40  1  0  0  0  0
 33 31  1  0  0  0  0
 33 42  1  1  0  0  0
 35 33  1  0  0  0  0
 35 36  1  6  0  0  0
 37 35  1  0  0  0  0
 37 38  1  1  0  0  0
 37 39  1  0  0  0  0
 39 40  1  0  0  0  0
 39 41  1  1  0  0  0
 41 34  1  0  0  0  0
M  END
>  <CHROM.1>
146.03586474,53.07488835,29.65826018,-24.93882755,119.78039691,178.16823482
62.11341885,-85.98444772,103.09184509,12.29397879,11.28159133,1.88936213
-0.91834763,-0.26028320,-0.32316660

>  <Name>
2et4_lig

>  <RI>
0

>  <Rbt.Current_Directory>
/home/itssahil/PROJECTS/Mol_Feturizer/New_Systems/rnas/2et4

>  <Rbt.Executable>
rbdock ($Id: //depot/dev/client3/rdock/2013.1/src/exe/rbdock.cxx#4 $)

>  <Rbt.Library>
libRbt.so (2013.1, Build901 2013/11/27)

>  <Rbt.Parameter_File>
/export/apps/rDock/src/rDock_2013.1_src/data/scripts/dock_solv.prm

>  <Rbt.Receptor>
prm/blind_docking_20.prm

>  <SCORE>
40.0923

>  <SCORE.INTER>
6.36325

>  <SCORE.INTER.CONST>
1

>  <SCORE.INTER.POLAR>
-0.678883

>  <SCORE.INTER.ROT>
9

>  <SCORE.INTER.SOLV>
37.0814

>  <SCORE.INTER.VDW>
-15.4554

>  <SCORE.INTER.norm>
0.151506

>  <SCORE.INTRA>
9.30466

>  <SCORE.INTRA.DIHEDRAL>
5.53607

>  <SCORE.INTRA.DIHEDRAL.0>
21.6909

>  <SCORE.INTRA.POLAR>
0

>  <SCORE.INTRA.POLAR.0>
0

>  <SCORE.INTRA.REPUL>
0

>  <SCORE.INTRA.REPUL.0>
0

>  <SCORE.INTRA.SOLV>
0.978988

>  <SCORE.INTRA.SOLV.lig_0>
-116.606

>  <SCORE.INTRA.VDW>
6.04713

>  <SCORE.INTRA.VDW.0>
-6.01229

>  <SCORE.INTRA.norm>
0.221539

>  <SCORE.RESTR>
24.4244

>  <SCORE.RESTR.CAVITY>
24.4244

>  <SCORE.RESTR.norm>
0.581534

>  <SCORE.SYSTEM>
0

>  <SCORE.SYSTEM.CONST>
0

>  <SCORE.SYSTEM.DIHEDRAL>
0

>  <SCORE.SYSTEM.SOLV>
0

>  <SCORE.SYSTEM.norm>
0

>  <SCORE.heavy>
42

>  <SCORE.norm>
0.95458

>  <RMSD>
10.202

$$$$
2et4_lig
 OpenBabel11021811423D
libRbt.so/2013.1/901 2013/11/27
 42 45  0  0  0  0  0  0  0  0999 V2000
   10.4324    5.1819   13.5553 C   0  0  2  0  0  0  0  0  0  0  0  0
    9.3067    5.7161   12.8555 O   0  0  0  0  0  0  0  0  0  0  0  0
   10.4084    3.6452   13.3542 C   0  0  2  0  0  0  0  0  0  0  0  0
   10.4329    3.2979   11.9562 N   0  0  0  0  0  0  0  0  0  0  0  0
    9.1508    3.0553   14.0555 C   0  0  1  0  0  0  0  0  0  0  0  0
    9.1403    1.6721   13.8870 O   0  0  0  0  0  0  0  0  0  0  0  0
    9.1929    3.4689   15.5645 C   0  0  2  0  0  0  0  0  0  0  0  0
    8.0627    2.9592   16.2401 O   0  0  0  0  0  0  0  0  0  0  0  0
    9.2266    5.0201   15.7143 C   0  0  2  0  0  0  0  0  0  0  0  0
   10.3663    5.5167   15.0062 O   0  0  0  0  0  0  0  0  0  0  0  0
    9.3110    5.4697   17.2097 C   0  0  0  0  0  0  0  0  0  0  0  0
    9.1915    6.8790   17.3539 N   0  0  0  0  0  0  0  0  0  0  0  0
    8.4120    9.5746   11.1333 C   0  0  2  0  0  0  0  0  0  0  0  0
    8.1465   11.0151   11.0325 N   0  0  0  0  0  0  0  0  0  0  0  0
    7.2989    8.8836   12.0903 C   0  0  0  0  0  0  0  0  0  0  0  0
    7.5985    7.3331   12.2069 C   0  0  2  0  0  0  0  0  0  0  0  0
    6.6243    6.6680   13.0901 N   0  0  0  0  0  0  0  0  0  0  0  0
    9.0447    7.1236   12.7702 C   0  0  2  0  0  0  0  0  0  0  0  0
   10.1047    7.8194   11.8536 C   0  0  2  0  0  0  0  0  0  0  0  0
   11.3963    7.5809   12.4651 O   0  0  0  0  0  0  0  0  0  0  0  0
    9.7997    9.3487   11.7552 C   0  0  1  0  0  0  0  0  0  0  0  0
   10.7455    9.9357   10.9267 O   0  0  0  0  0  0  0  0  0  0  0  0
   12.5390    7.2878   11.7984 C   0  0  1  0  0  0  0  0  0  0  0  0
   13.7853    7.6017   12.6667 C   0  0  2  0  0  0  0  0  0  0  0  0
   14.1777    8.9420   12.5994 O   0  0  0  0  0  0  0  0  0  0  0  0
   14.7289    6.5375   12.1379 C   0  0  1  0  0  0  0  0  0  0  0  0
   13.8798    5.2866   11.8712 C   0  0  2  0  0  0  0  0  0  0  0  0
   12.6760    5.8957   11.4047 O   0  0  0  0  0  0  0  0  0  0  0  0
   13.6242    4.3665   13.1133 C   0  0  0  0  0  0  0  0  0  0  0  0
   14.9163    4.0638   13.7031 O   0  0  0  0  0  0  0  0  0  0  0  0
   15.6647    6.1472    9.8810 C   0  0  2  0  0  0  0  0  0  0  0  0
   15.3426    7.0639   10.8909 O   0  0  0  0  0  0  0  0  0  0  0  0
   16.6426    5.0137   10.4183 C   0  0  1  0  0  0  0  0  0  0  0  0
   17.5834    6.2054    5.0869 N   0  0  0  0  0  0  0  0  0  0  0  0
   16.9619    4.0328    9.1722 C   0  0  1  0  0  0  0  0  0  0  0  0
   15.6481    3.4722    8.6652 O   0  0  0  0  0  0  0  0  0  0  0  0
   17.7119    4.8597    7.9975 C   0  0  2  0  0  0  0  0  0  0  0  0
   18.9665    5.3762    8.5028 O   0  0  0  0  0  0  0  0  0  0  0  0
   16.6953    6.0336    7.4993 C   0  0  1  0  0  0  0  0  0  0  0  0
   16.3077    6.8901    8.6733 O   0  0  0  0  0  0  0  0  0  0  0  0
   17.3212    6.9256    6.3706 C   0  0  0  0  0  0  0  0  0  0  0  0
   17.8735    5.6350   11.0097 N   0  0  0  0  0  0  0  0  0  0  0  0
  1  2  1  6  0  0  0
  1  3  1  0  0  0  0
  1 10  1  0  0  0  0
  3  4  1  6  0  0  0
  3  5  1  0  0  0  0
  5  6  1  1  0  0  0
  5  7  1  0  0  0  0
  7  8  1  1  0  0  0
  7  9  1  0  0  0  0
  9 10  1  0  0  0  0
  9 11  1  1  0  0  0
 11 12  1  0  0  0  0
 13 14  1  1  0  0  0
 13 15  1  0  0  0  0
 13 21  1  0  0  0  0
 16 15  1  0  0  0  0
 16 17  1  1  0  0  0
 18  2  1  6  0  0  0
 18 16  1  0  0  0  0
 19 18  1  0  0  0  0
 19 20  1  1  0  0  0
 21 19  1  0  0  0  0
 21 22  1  6  0  0  0
 23 20  1  1  0  0  0
 23 24  1  0  0  0  0
 23 28  1  0  0  0  0
 24 25  1  6  0  0  0
 24 26  1  0  0  0  0
 26 27  1  0  0  0  0
 26 32  1  6  0  0  0
 27 28  1  0  0  0  0
 27 29  1  1  0  0  0
 29 30  1  0  0  0  0
 31 32  1  1  0  0  0
 31 40  1  0  0  0  0
 33 31  1  0  0  0  0
 33 42  1  6  0  0  0
 35 33  1  0  0  0  0
 35 36  1  6  0  0  0
 37 35  1  0  0  0  0
 37 38  1  1  0  0  0
 37 39  1  0  0  0  0
 39 40  1  0  0  0  0
 39 41  1  6  0  0  0
 41 34  1  0  0  0  0
M  END
>  <CHROM.1>
-177.00080695,-173.43976249,-168.12042299,140.05532229,159.29067306,-147.65045196
-52.69938206,-56.67550565,65.35178898,12.32297629,6.05558699,11.89878955
-2.82739889,0.51549142,-0.60611646

>  <Name>
2et4_lig

>  <RI>
1.79929e+07

>  <Rbt.Current_Directory>
/home/itssahil/PROJECTS/Mol_Feturizer/New_Systems/rnas/2et4

>  <Rbt.Executable>
rbdock ($Id: //depot/dev/client3/rdock/2013.1/src/exe/rbdock.cxx#4 $)

>  <Rbt.Library>
libRbt.so (2013.1, Build901 2013/11/27)

>  <Rbt.Parameter_File>
/export/apps/rDock/src/rDock_2013.1_src/data/scripts/dock_solv.prm

>  <Rbt.Receptor>
prm/pocket_docking_7.prm

>  <SCORE>
-11.7023

>  <SCORE.INTER>
-7.6919

>  <SCORE.INTER.CONST>
1

>  <SCORE.INTER.POLAR>
-0.831483

>  <SCORE.INTER.ROT>
9

>  <SCORE.INTER.SOLV>
19.6907

>  <SCORE.INTER.VDW>
-18.5199

>  <SCORE.INTER.norm>
-0.183141

>  <SCORE.INTRA>
-4.01649

>  <SCORE.INTRA.DIHEDRAL>
-9.00783

>  <SCORE.INTRA.DIHEDRAL.0>
21.6909

>  <SCORE.INTRA.POLAR>
0

>  <SCORE.INTRA.POLAR.0>
0

>  <SCORE.INTRA.REPUL>
0

>  <SCORE.INTRA.REPUL.0>
0

>  <SCORE.INTRA.SOLV>
-2.31597

>  <SCORE.INTRA.SOLV.lig_0>
-116.606

>  <SCORE.INTRA.VDW>
1.64541

>  <SCORE.INTRA.VDW.0>
-6.01229

>  <SCORE.INTRA.norm>
-0.0956307

>  <SCORE.RESTR>
0.0060758

>  <SCORE.RESTR.CAVITY>
0.0060758

>  <SCORE.RESTR.norm>
0.000144662

>  <SCORE.SYSTEM>
0

>  <SCORE.SYSTEM.CONST>
0

>  <SCORE.SYSTEM.DIHEDRAL>
0

>  <SCORE.SYSTEM.SOLV>
0

>  <SCORE.SYSTEM.norm>
0

>  <SCORE.heavy>
42

>  <SCORE.norm>
-0.278627

>  <RMSD>
10.218

$$$$
2et4_lig
 OpenBabel11021811423D
libRbt.so/2013.1/901 2013/11/27
 42 45  0  0  0  0  0  0  0  0999 V2000
   10.0347    4.8411   14.6253 C   0  0  2  0  0  0  0  0  0  0  0  0
    9.2951    5.8768   15.2754 O   0  0  0  0  0  0  0  0  0  0  0  0
    9.0535    4.1045   13.6781 C   0  0  2  0  0  0  0  0  0  0  0  0
    8.4568    5.0117   12.7312 N   0  0  0  0  0  0  0  0  0  0  0  0
    7.9652    3.3843   14.5254 C   0  0  1  0  0  0  0  0  0  0  0  0
    7.0941    2.7097   13.6723 O   0  0  0  0  0  0  0  0  0  0  0  0
    8.6837    2.4178   15.5252 C   0  0  2  0  0  0  0  0  0  0  0  0
    7.7310    1.7463   16.3220 O   0  0  0  0  0  0  0  0  0  0  0  0
    9.6656    3.2023   16.4472 C   0  0  2  0  0  0  0  0  0  0  0  0
   10.6082    3.8906   15.6199 O   0  0  0  0  0  0  0  0  0  0  0  0
   10.4332    2.2615   17.4327 C   0  0  0  0  0  0  0  0  0  0  0  0
   11.0993    2.9870   18.4579 N   0  0  0  0  0  0  0  0  0  0  0  0
   10.2163    9.6376   17.1893 C   0  0  2  0  0  0  0  0  0  0  0  0
   10.8352   10.6110   18.0977 N   0  0  0  0  0  0  0  0  0  0  0  0
    9.4417    8.5046   18.0546 C   0  0  0  0  0  0  0  0  0  0  0  0
    8.7886    7.4499   17.0705 C   0  0  2  0  0  0  0  0  0  0  0  0
    8.0943    6.3852   17.8163 N   0  0  0  0  0  0  0  0  0  0  0  0
    9.9036    6.8176   16.1707 C   0  0  2  0  0  0  0  0  0  0  0  0
   10.6612    7.9239   15.3644 C   0  0  2  0  0  0  0  0  0  0  0  0
   11.6725    7.2422   14.5824 O   0  0  0  0  0  0  0  0  0  0  0  0
   11.3059    8.9514   16.3493 C   0  0  1  0  0  0  0  0  0  0  0  0
   11.9575    9.9262   15.6072 O   0  0  0  0  0  0  0  0  0  0  0  0
   11.5958    6.9820   13.2547 C   0  0  1  0  0  0  0  0  0  0  0  0
   11.7940    8.2757   12.4225 C   0  0  2  0  0  0  0  0  0  0  0  0
   10.6176    9.0157   12.2696 O   0  0  0  0  0  0  0  0  0  0  0  0
   12.4458    7.6783   11.1892 C   0  0  1  0  0  0  0  0  0  0  0  0
   13.3664    6.5511   11.6777 C   0  0  2  0  0  0  0  0  0  0  0  0
   12.5862    6.0413   12.7589 O   0  0  0  0  0  0  0  0  0  0  0  0
   14.7920    6.9995   12.1481 C   0  0  0  0  0  0  0  0  0  0  0  0
   15.4446    7.6316   11.0152 O   0  0  0  0  0  0  0  0  0  0  0  0
   11.6820    6.8455    8.9882 C   0  0  2  0  0  0  0  0  0  0  0  0
   11.3600    7.1639   10.3144 O   0  0  0  0  0  0  0  0  0  0  0  0
   12.1109    8.1401    8.1697 C   0  0  1  0  0  0  0  0  0  0  0  0
    8.9430    3.8363    7.1008 N   0  0  0  0  0  0  0  0  0  0  0  0
   12.4359    7.6605    6.6594 C   0  0  1  0  0  0  0  0  0  0  0  0
   13.5387    6.6225    6.7217 O   0  0  0  0  0  0  0  0  0  0  0  0
   11.1056    7.0287    5.9830 C   0  0  2  0  0  0  0  0  0  0  0  0
   10.0717    8.0405    5.9263 O   0  0  0  0  0  0  0  0  0  0  0  0
   10.6757    5.7291    6.8696 C   0  0  1  0  0  0  0  0  0  0  0  0
   10.4733    6.1454    8.3006 O   0  0  0  0  0  0  0  0  0  0  0  0
    9.3764    5.0387    6.3250 C   0  0  0  0  0  0  0  0  0  0  0  0
   11.0265    9.1745    8.2390 N   0  0  0  0  0  0  0  0  0  0  0  0
  1  2  1  1  0  0  0
  1  3  1  0  0  0  0
  1 10  1  0  0  0  0
  3  4  1  6  0  0  0
  3  5  1  0  0  0  0
  5  6  1  6  0  0  0
  5  7  1  0  0  0  0
  7  8  1  1  0  0  0
  7  9  1  0  0  0  0
  9 10  1  0  0  0  0
  9 11  1  1  0  0  0
 11 12  1  0  0  0  0
 13 14  1  1  0  0  0
 13 15  1  0  0  0  0
 13 21  1  0  0  0  0
 16 15  1  0  0  0  0
 16 17  1  1  0  0  0
 18  2  1  6  0  0  0
 18 16  1  0  0  0  0
 19 18  1  0  0  0  0
 19 20  1  1  0  0  0
 21 19  1  0  0  0  0
 21 22  1  6  0  0  0
 23 20  1  1  0  0  0
 23 24  1  0  0  0  0
 23 28  1  0  0  0  0
 24 25  1  6  0  0  0
 24 26  1  0  0  0  0
 26 27  1  0  0  0  0
 26 32  1  6  0  0  0
 27 28  1  0  0  0  0
 27 29  1  1  0  0  0
 29 30  1  0  0  0  0
 31 32  1  1  0  0  0
 31 40  1  0  0  0  0
 33 31  1  0  0  0  0
 33 42  1  6  0  0  0
 35 33  1  0  0  0  0
 35 36  1  1  0  0  0
 37 35  1  0  0  0  0
 37 38  1  1  0  0  0
 37 39  1  0  0  0  0
 39 40  1  0  0  0  0
 39 41  1  6  0  0  0
 41 34  1  0  0  0  0
M  END
>  <CHROM.1>
-176.24895592,-167.15531949,-159.96874777,103.12580896,73.08170885,165.63180912
-60.24603122,-65.13535912,179.73777988,10.68833596,6.33824423,12.75968177
1.96850145,1.03182353,1.37577576

>  <Name>
2et4_lig

>  <RI>
1.79929e+07

>  <Rbt.Current_Directory>
/home/itssahil/PROJECTS/Mol_Feturizer/New_Systems/rnas/2et4

>  <Rbt.Executable>
rbdock ($Id: //depot/dev/client3/rdock/2013.1/src/exe/rbdock.cxx#4 $)

>  <Rbt.Library>
libRbt.so (2013.1, Build901 2013/11/27)

>  <Rbt.Parameter_File>
/export/apps/rDock/src/rDock_2013.1_src/data/scripts/dock_solv.prm

>  <Rbt.Receptor>
prm/pocket_docking_7.prm

>  <SCORE>
-9.46727

>  <SCORE.INTER>
-3.17044

>  <SCORE.INTER.CONST>
1

>  <SCORE.INTER.POLAR>
-0.810152

>  <SCORE.INTER.ROT>
9

>  <SCORE.INTER.SOLV>
8.81852

>  <SCORE.INTER.VDW>
-11.9526

>  <SCORE.INTER.norm>
-0.0754867

>  <SCORE.INTRA>
-6.29683

>  <SCORE.INTRA.DIHEDRAL>
-11.2803

>  <SCORE.INTRA.DIHEDRAL.0>
21.6909

>  <SCORE.INTRA.POLAR>
0

>  <SCORE.INTRA.POLAR.0>
0

>  <SCORE.INTRA.REPUL>
0

>  <SCORE.INTRA.REPUL.0>
0

>  <SCORE.INTRA.SOLV>
-3.76415

>  <SCORE.INTRA.SOLV.lig_0>
-116.606

>  <SCORE.INTRA.VDW>
1.2254

>  <SCORE.INTRA.VDW.0>
-6.01229

>  <SCORE.INTRA.norm>
-0.149925

>  <SCORE.RESTR>
0

>  <SCORE.RESTR.CAVITY>
0

>  <SCORE.RESTR.norm>
0

>  <SCORE.SYSTEM>
0

>  <SCORE.SYSTEM.CONST>
0

>  <SCORE.SYSTEM.DIHEDRAL>
0

>  <SCORE.SYSTEM.SOLV>
0

>  <SCORE.SYSTEM.norm>
0

>  <SCORE.heavy>
42

>  <SCORE.norm>
-0.225411

>  <RMSD>
10.697

$$$$
2et4_lig
 OpenBabel11021811423D
libRbt.so/2013.1/901 2013/11/27
 42 45  0  0  0  0  0  0  0  0999 V2000
    6.6217    3.3841   14.2440 C   0  0  2  0  0  0  0  0  0  0  0  0
    7.9206    3.9267   13.9975 O   0  0  0  0  0  0  0  0  0  0  0  0
    6.4457    2.1711   13.2952 C   0  0  2  0  0  0  0  0  0  0  0  0
    7.4825    1.1914   13.4972 N   0  0  0  0  0  0  0  0  0  0  0  0
    6.4270    2.6705   11.8216 C   0  0  1  0  0  0  0  0  0  0  0  0
    6.2524    1.5800   10.9718 O   0  0  0  0  0  0  0  0  0  0  0  0
    5.2795    3.7251   11.6769 C   0  0  2  0  0  0  0  0  0  0  0  0
    5.2306    4.2120   10.3525 O   0  0  0  0  0  0  0  0  0  0  0  0
    5.4950    4.9180   12.6569 C   0  0  2  0  0  0  0  0  0  0  0  0
    5.5619    4.4006   13.9891 O   0  0  0  0  0  0  0  0  0  0  0  0
    4.3438    5.9727   12.5693 C   0  0  0  0  0  0  0  0  0  0  0  0
    3.0906    5.4338   12.9696 N   0  0  0  0  0  0  0  0  0  0  0  0
    8.5495    6.4405   17.4530 C   0  0  2  0  0  0  0  0  0  0  0  0
    9.1971    7.3720   18.3850 N   0  0  0  0  0  0  0  0  0  0  0  0
    9.4624    5.1085   17.2954 C   0  0  0  0  0  0  0  0  0  0  0  0
    8.7665    4.1142   16.2785 C   0  0  2  0  0  0  0  0  0  0  0  0
    9.5763    2.8982   16.0850 N   0  0  0  0  0  0  0  0  0  0  0  0
    8.5651    4.8339   14.9023 C   0  0  2  0  0  0  0  0  0  0  0  0
    7.7079    6.1315   15.0737 C   0  0  2  0  0  0  0  0  0  0  0  0
    7.5937    6.7252   13.7570 O   0  0  0  0  0  0  0  0  0  0  0  0
    8.4115    7.1047   16.0733 C   0  0  1  0  0  0  0  0  0  0  0  0
    7.6233    8.2379   16.2160 O   0  0  0  0  0  0  0  0  0  0  0  0
    8.6234    6.9534   12.9062 C   0  0  1  0  0  0  0  0  0  0  0  0
    8.1117    7.5015   11.5486 C   0  0  2  0  0  0  0  0  0  0  0  0
    7.7052    6.4943   10.6681 O   0  0  0  0  0  0  0  0  0  0  0  0
    9.2985    8.3676   11.1689 C   0  0  1  0  0  0  0  0  0  0  0  0
    9.8178    9.0002   12.4677 C   0  0  2  0  0  0  0  0  0  0  0  0
    9.6006    7.9209   13.3764 O   0  0  0  0  0  0  0  0  0  0  0  0
    9.0806   10.3047   12.9252 C   0  0  0  0  0  0  0  0  0  0  0  0
    9.3514   11.3283   11.9312 O   0  0  0  0  0  0  0  0  0  0  0  0
   11.4217    8.0871    9.9299 C   0  0  2  0  0  0  0  0  0  0  0  0
   10.3147    7.4831   10.5413 O   0  0  0  0  0  0  0  0  0  0  0  0
   10.9745    9.0571    8.7514 C   0  0  1  0  0  0  0  0  0  0  0  0
   15.7997    6.6653    7.5812 N   0  0  0  0  0  0  0  0  0  0  0  0
   12.3237    9.6764    8.1089 C   0  0  1  0  0  0  0  0  0  0  0  0
   13.0763   10.4045    9.2048 O   0  0  0  0  0  0  0  0  0  0  0  0
   13.2371    8.4880    7.4926 C   0  0  2  0  0  0  0  0  0  0  0  0
   12.5010    7.8148    6.4432 O   0  0  0  0  0  0  0  0  0  0  0  0
   13.6437    7.4957    8.7214 C   0  0  1  0  0  0  0  0  0  0  0  0
   12.3948    6.9962    9.3943 O   0  0  0  0  0  0  0  0  0  0  0  0
   14.5157    6.2819    8.2445 C   0  0  0  0  0  0  0  0  0  0  0  0
   10.1391    8.3063    7.7569 N   0  0  0  0  0  0  0  0  0  0  0  0
  1  2  1  6  0  0  0
  1  3  1  0  0  0  0
  1 10  1  0  0  0  0
  3  4  1  6  0  0  0
  3  5  1  0  0  0  0
  5  6  1  6  0  0  0
  5  7  1  0  0  0  0
  7  8  1  6  0  0  0
  7  9  1  0  0  0  0
  9 10  1  0  0  0  0
  9 11  1  1  0  0  0
 11 12  1  0  0  0  0
 13 14  1  1  0  0  0
 13 15  1  0  0  0  0
 13 21  1  0  0  0  0
 16 15  1  0  0  0  0
 16 17  1  6  0  0  0
 18  2  1  6  0  0  0
 18 16  1  0  0  0  0
 19 18  1  0  0  0  0
 19 20  1  6  0  0  0
 21 19  1  0  0  0  0
 21 22  1  1  0  0  0
 23 20  1  1  0  0  0
 23 24  1  0  0  0  0
 23 28  1  0  0  0  0
 24 25  1  6  0  0  0
 24 26  1  0  0  0  0
 26 27  1  0  0  0  0
 26 32  1  1  0  0  0
 27 28  1  0  0  0  0
 27 29  1  1  0  0  0
 29 30  1  0  0  0  0
 31 32  1  6  0  0  0
 31 40  1  0  0  0  0
 33 31  1  0  0  0  0
 33 42  1  6  0  0  0
 35 33  1  0  0  0  0
 35 36  1  1  0  0  0
 37 35  1  0  0  0  0
 37 38  1  6  0  0  0
 37 39  1  0  0  0  0
 39 40  1  0  0  0  0
 39 41  1  6  0  0  0
 41 34  1  0  0  0  0
M  END
>  <CHROM.1>
-163.95933420,63.81651870,61.31197742,-49.28233776,175.69968690,170.85885751
-65.68572337,-59.92641460,59.00827578,8.98497587,6.37889131,12.17712240,2.70121083
0.79672709,1.17198167

>  <Name>
2et4_lig

>  <RI>
1.79929e+07

>  <Rbt.Current_Directory>
/home/itssahil/PROJECTS/Mol_Feturizer/New_Systems/rnas/2et4

>  <Rbt.Executable>
rbdock ($Id: //depot/dev/client3/rdock/2013.1/src/exe/rbdock.cxx#4 $)

>  <Rbt.Library>
libRbt.so (2013.1, Build901 2013/11/27)

>  <Rbt.Parameter_File>
/export/apps/rDock/src/rDock_2013.1_src/data/scripts/dock_solv.prm

>  <Rbt.Receptor>
prm/pocket_docking_7.prm

>  <SCORE>
-9.91127

>  <SCORE.INTER>
-0.786069

>  <SCORE.INTER.CONST>
1

>  <SCORE.INTER.POLAR>
-0.537747

>  <SCORE.INTER.ROT>
9

>  <SCORE.INTER.SOLV>
9.20941

>  <SCORE.INTER.VDW>
-11.4014

>  <SCORE.INTER.norm>
-0.0187159

>  <SCORE.INTRA>
-9.12521

>  <SCORE.INTRA.DIHEDRAL>
-19.0841

>  <SCORE.INTRA.DIHEDRAL.0>
21.6909

>  <SCORE.INTRA.POLAR>
0

>  <SCORE.INTRA.POLAR.0>
0

>  <SCORE.INTRA.REPUL>
0

>  <SCORE.INTRA.REPUL.0>
0

>  <SCORE.INTRA.SOLV>
-0.926395

>  <SCORE.INTRA.SOLV.lig_0>
-116.606

>  <SCORE.INTRA.VDW>
0.880028

>  <SCORE.INTRA.VDW.0>
-6.01229

>  <SCORE.INTRA.norm>
-0.217267

>  <SCORE.RESTR>
0

>  <SCORE.RESTR.CAVITY>
0

>  <SCORE.RESTR.norm>
0

>  <SCORE.SYSTEM>
0

>  <SCORE.SYSTEM.CONST>
0

>  <SCORE.SYSTEM.DIHEDRAL>
0

>  <SCORE.SYSTEM.SOLV>
0

>  <SCORE.SYSTEM.norm>
0

>  <SCORE.heavy>
42

>  <SCORE.norm>
-0.235983

>  <RMSD>
10.738

$$$$
2et4_lig
 OpenBabel11021811423D
libRbt.so/2013.1/901 2013/11/27
 42 45  0  0  0  0  0  0  0  0999 V2000
    6.2073    5.4090   11.3864 C   0  0  2  0  0  0  0  0  0  0  0  0
    6.0870    4.1836   10.6610 O   0  0  0  0  0  0  0  0  0  0  0  0
    7.0979    5.1229   12.6223 C   0  0  2  0  0  0  0  0  0  0  0  0
    8.3838    4.6020   12.2338 N   0  0  0  0  0  0  0  0  0  0  0  0
    6.3578    4.1362   13.5710 C   0  0  1  0  0  0  0  0  0  0  0  0
    7.1537    3.8934   14.6888 O   0  0  0  0  0  0  0  0  0  0  0  0
    4.9767    4.7667   13.9517 C   0  0  2  0  0  0  0  0  0  0  0  0
    4.2657    3.8988   14.8089 O   0  0  0  0  0  0  0  0  0  0  0  0
    4.1234    5.0453   12.6772 C   0  0  2  0  0  0  0  0  0  0  0  0
    4.8700    5.9087   11.8147 O   0  0  0  0  0  0  0  0  0  0  0  0
    2.7515    5.7145   13.0169 C   0  0  0  0  0  0  0  0  0  0  0  0
    1.9015    5.8027   11.8807 N   0  0  0  0  0  0  0  0  0  0  0  0
    5.1793    2.8739    6.6466 C   0  0  2  0  0  0  0  0  0  0  0  0
    4.5150    2.7795    5.3406 N   0  0  0  0  0  0  0  0  0  0  0  0
    4.1125    2.5414    7.8229 C   0  0  0  0  0  0  0  0  0  0  0  0
    4.8305    2.6588    9.2293 C   0  0  2  0  0  0  0  0  0  0  0  0
    3.8897    2.3892   10.3311 N   0  0  0  0  0  0  0  0  0  0  0  0
    5.4274    4.0977    9.3903 C   0  0  2  0  0  0  0  0  0  0  0  0
    6.4319    4.4156    8.2337 C   0  0  2  0  0  0  0  0  0  0  0  0
    6.9117    5.7630    8.4651 O   0  0  0  0  0  0  0  0  0  0  0  0
    5.7066    4.3031    6.8544 C   0  0  1  0  0  0  0  0  0  0  0  0
    6.6234    4.5759    5.8491 O   0  0  0  0  0  0  0  0  0  0  0  0
    7.9969    6.3222    7.8771 C   0  0  1  0  0  0  0  0  0  0  0  0
    8.0262    7.8556    8.1086 C   0  0  2  0  0  0  0  0  0  0  0  0
    7.2528    8.5650    7.1847 O   0  0  0  0  0  0  0  0  0  0  0  0
    9.5278    8.0742    8.1240 C   0  0  1  0  0  0  0  0  0  0  0  0
   10.1444    6.8586    8.8303 C   0  0  2  0  0  0  0  0  0  0  0  0
    9.2753    5.8283    8.3603 O   0  0  0  0  0  0  0  0  0  0  0  0
   10.1721    6.9292   10.3952 C   0  0  0  0  0  0  0  0  0  0  0  0
   10.7499    5.6866   10.8761 O   0  0  0  0  0  0  0  0  0  0  0  0
   11.3293    8.4684    6.4746 C   0  0  2  0  0  0  0  0  0  0  0  0
    9.9787    8.1792    6.7117 O   0  0  0  0  0  0  0  0  0  0  0  0
   11.6047    8.7198    4.9284 C   0  0  1  0  0  0  0  0  0  0  0  0
   14.2177    5.9902    8.8668 N   0  0  0  0  0  0  0  0  0  0  0  0
   13.1864    9.0200    4.7709 C   0  0  1  0  0  0  0  0  0  0  0  0
   13.5241   10.2269    5.6234 O   0  0  0  0  0  0  0  0  0  0  0  0
   14.0431    7.7320    5.2541 C   0  0  2  0  0  0  0  0  0  0  0  0
   13.7104    6.5964    4.4198 O   0  0  0  0  0  0  0  0  0  0  0  0
   13.7064    7.4834    6.8304 C   0  0  1  0  0  0  0  0  0  0  0  0
   12.2227    7.3078    7.0026 O   0  0  0  0  0  0  0  0  0  0  0  0
   14.4630    6.2387    7.4130 C   0  0  0  0  0  0  0  0  0  0  0  0
   11.1465    7.5378    4.1260 N   0  0  0  0  0  0  0  0  0  0  0  0
  1  2  1  1  0  0  0
  1  3  1  0  0  0  0
  1 10  1  0  0  0  0
  3  4  1  6  0  0  0
  3  5  1  0  0  0  0
  5  6  1  1  0  0  0
  5  7  1  0  0  0  0
  7  8  1  1  0  0  0
  7  9  1  0  0  0  0
  9 10  1  0  0  0  0
  9 11  1  1  0  0  0
 11 12  1  0  0  0  0
 13 14  1  6  0  0  0
 13 15  1  0  0  0  0
 13 21  1  0  0  0  0
 16 15  1  0  0  0  0
 16 17  1  1  0  0  0
 18  2  1  1  0  0  0
 18 16  1  0  0  0  0
 19 18  1  0  0  0  0
 19 20  1  1  0  0  0
 21 19  1  0  0  0  0
 21 22  1  6  0  0  0
 23 20  1  1  0  0  0
 23 24  1  0  0  0  0
 23 28  1  0  0  0  0
 24 25  1  6  0  0  0
 24 26  1  0  0  0  0
 26 27  1  0  0  0  0
 26 32  1  6  0  0  0
 27 28  1  0  0  0  0
 27 29  1  1  0  0  0
 29 30  1  0  0  0  0
 31 32  1  6  0  0  0
 31 40  1  0  0  0  0
 33 31  1  0  0  0  0
 33 42  1  6  0  0  0
 35 33  1  0  0  0  0
 35 36  1  1  0  0  0
 37 35  1  0  0  0  0
 37 38  1  6  0  0  0
 37 39  1  0  0  0  0
 39 40  1  0  0  0  0
 39 41  1  6  0  0  0
 41 34  1  0  0  0  0
M  END
>  <CHROM.1>
-174.34029375,-172.04535836,-151.20928956,164.91596615,167.17244017,176.08195281
178.40035511,-173.06563835,178.36662958,8.21248987,5.83336874,8.90477807
-2.55373170,-0.41327100,-1.55941294

>  <Name>
2et4_lig

>  <RI>
1.79929e+07

>  <Rbt.Current_Directory>
/home/itssahil/PROJECTS/Mol_Feturizer/New_Systems/rnas/2et4

>  <Rbt.Executable>
rbdock ($Id: //depot/dev/client3/rdock/2013.1/src/exe/rbdock.cxx#4 $)

>  <Rbt.Library>
libRbt.so (2013.1, Build901 2013/11/27)

>  <Rbt.Parameter_File>
/export/apps/rDock/src/rDock_2013.1_src/data/scripts/dock_solv.prm

>  <Rbt.Receptor>
prm/pocket_docking_7.prm

>  <SCORE>
-16.7952

>  <SCORE.INTER>
-8.8262

>  <SCORE.INTER.CONST>
1

>  <SCORE.INTER.POLAR>
-0.916515

>  <SCORE.INTER.ROT>
9

>  <SCORE.INTER.SOLV>
11.1165

>  <SCORE.INTER.VDW>
-16.1346

>  <SCORE.INTER.norm>
-0.210148

>  <SCORE.INTRA>
-7.96897

>  <SCORE.INTRA.DIHEDRAL>
-15.5888

>  <SCORE.INTRA.DIHEDRAL.0>
21.6909

>  <SCORE.INTRA.POLAR>
0

>  <SCORE.INTRA.POLAR.0>
0

>  <SCORE.INTRA.REPUL>
0

>  <SCORE.INTRA.REPUL.0>
0

>  <SCORE.INTRA.SOLV>
-1.68005

>  <SCORE.INTRA.SOLV.lig_0>
-116.606

>  <SCORE.INTRA.VDW>
0.66544

>  <SCORE.INTRA.VDW.0>
-6.01229

>  <SCORE.INTRA.norm>
-0.189737

>  <SCORE.RESTR>
0

>  <SCORE.RESTR.CAVITY>
0

>  <SCORE.RESTR.norm>
0

>  <SCORE.SYSTEM>
0

>  <SCORE.SYSTEM.CONST>
0

>  <SCORE.SYSTEM.DIHEDRAL>
0

>  <SCORE.SYSTEM.SOLV>
0

>  <SCORE.SYSTEM.norm>
0

>  <SCORE.heavy>
42

>  <SCORE.norm>
-0.399885

>  <RMSD>
10.841

$$$$
2et4_lig
 OpenBabel11021811423D
libRbt.so/2013.1/901 2013/11/27
 42 45  0  0  0  0  0  0  0  0999 V2000
    5.8538   15.7212    1.4310 C   0  0  2  0  0  0  0  0  0  0  0  0
    5.3904   14.8143    0.4285 O   0  0  0  0  0  0  0  0  0  0  0  0
    5.7289   17.1513    0.8465 C   0  0  2  0  0  0  0  0  0  0  0  0
    4.3747   17.4396    0.4482 N   0  0  0  0  0  0  0  0  0  0  0  0
    6.7092   17.3033   -0.3523 C   0  0  1  0  0  0  0  0  0  0  0  0
    6.6067   18.5947   -0.8656 O   0  0  0  0  0  0  0  0  0  0  0  0
    8.1545   16.9789    0.1535 C   0  0  2  0  0  0  0  0  0  0  0  0
    9.0790   17.0978   -0.9071 O   0  0  0  0  0  0  0  0  0  0  0  0
    8.2266   15.5367    0.7407 C   0  0  2  0  0  0  0  0  0  0  0  0
    7.2690   15.4323    1.7984 O   0  0  0  0  0  0  0  0  0  0  0  0
    9.6480   15.1923    1.2943 C   0  0  0  0  0  0  0  0  0  0  0  0
   10.6506   15.2793    0.2902 N   0  0  0  0  0  0  0  0  0  0  0  0
    3.0255   11.2183    0.0670 C   0  0  2  0  0  0  0  0  0  0  0  0
    2.4546    9.9023    0.3799 N   0  0  0  0  0  0  0  0  0  0  0  0
    4.6380   11.0935   -0.0610 C   0  0  0  0  0  0  0  0  0  0  0  0
    5.2494   12.5180   -0.3841 C   0  0  2  0  0  0  0  0  0  0  0  0
    6.7184   12.4562   -0.4839 N   0  0  0  0  0  0  0  0  0  0  0  0
    4.8428   13.5266    0.7428 C   0  0  2  0  0  0  0  0  0  0  0  0
    3.2863   13.6151    0.8746 C   0  0  2  0  0  0  0  0  0  0  0  0
    3.0175   14.5545    1.9444 O   0  0  0  0  0  0  0  0  0  0  0  0
    2.6998   12.2041    1.2010 C   0  0  1  0  0  0  0  0  0  0  0  0
    1.3197   12.3106    1.2980 O   0  0  0  0  0  0  0  0  0  0  0  0
    2.5166   14.2356    3.1625 C   0  0  1  0  0  0  0  0  0  0  0  0
    2.2521   15.5101    4.0057 C   0  0  2  0  0  0  0  0  0  0  0  0
    3.3893   15.9703    4.6765 O   0  0  0  0  0  0  0  0  0  0  0  0
    1.0693   15.0242    4.8229 C   0  0  1  0  0  0  0  0  0  0  0  0
    0.2222   14.1430    3.8942 C   0  0  2  0  0  0  0  0  0  0  0  0
    1.2547   13.5154    3.1339 O   0  0  0  0  0  0  0  0  0  0  0  0
   -0.7932   14.9078    2.9784 C   0  0  0  0  0  0  0  0  0  0  0  0
   -1.6452   15.7036    3.8444 O   0  0  0  0  0  0  0  0  0  0  0  0
    0.8128   14.1525    7.1242 C   0  0  2  0  0  0  0  0  0  0  0  0
    1.6077   14.2543    5.9745 O   0  0  0  0  0  0  0  0  0  0  0  0
    0.5955   12.6342    7.5452 C   0  0  1  0  0  0  0  0  0  0  0  0
   -3.9472   14.6758    7.1996 N   0  0  0  0  0  0  0  0  0  0  0  0
   -0.3469   12.6367    8.8600 C   0  0  1  0  0  0  0  0  0  0  0  0
    0.3502   13.4428    9.9377 O   0  0  0  0  0  0  0  0  0  0  0  0
   -1.7852   13.2945    8.5065 C   0  0  2  0  0  0  0  0  0  0  0  0
   -2.4344   12.5024    7.4831 O   0  0  0  0  0  0  0  0  0  0  0  0
   -1.5184   14.8355    8.0442 C   0  0  1  0  0  0  0  0  0  0  0  0
   -0.5583   14.8507    6.8866 O   0  0  0  0  0  0  0  0  0  0  0  0
   -2.8430   15.5779    7.6497 C   0  0  0  0  0  0  0  0  0  0  0  0
    0.0079   11.8626    6.4005 N   0  0  0  0  0  0  0  0  0  0  0  0
  1  2  1  6  0  0  0
  1  3  1  0  0  0  0
  1 10  1  0  0  0  0
  3  4  1  6  0  0  0
  3  5  1  0  0  0  0
  5  6  1  1  0  0  0
  5  7  1  0  0  0  0
  7  8  1  6  0  0  0
  7  9  1  0  0  0  0
  9 10  1  0  0  0  0
  9 11  1  1  0  0  0
 11 12  1  0  0  0  0
 13 14  1  1  0  0  0
 13 15  1  0  0  0  0
 13 21  1  0  0  0  0
 16 15  1  0  0  0  0
 16 17  1  1  0  0  0
 18  2  1  6  0  0  0
 18 16  1  0  0  0  0
 19 18  1  0  0  0  0
 19 20  1  1  0  0  0
 21 19  1  0  0  0  0
 21 22  1  6  0  0  0
 23 20  1  6  0  0  0
 23 24  1  0  0  0  0
 23 28  1  0  0  0  0
 24 25  1  1  0  0  0
 24 26  1  0  0  0  0
 26 27  1  0  0  0  0
 26 32  1  1  0  0  0
 27 28  1  0  0  0  0
 27 29  1  6  0  0  0
 29 30  1  0  0  0  0
 31 32  1  6  0  0  0
 31 40  1  0  0  0  0
 33 31  1  0  0  0  0
 33 42  1  6  0  0  0
 35 33  1  0  0  0  0
 35 36  1  1  0  0  0
 37 35  1  0  0  0  0
 37 38  1  6  0  0  0
 37 39  1  0  0  0  0
 39 40  1  0  0  0  0
 39 41  1  6  0  0  0
 41 34  1  0  0  0  0
M  END
>  <CHROM.1>
-153.71058597,-59.63211996,-145.36130163,-109.89183960,-175.30639161,155.40497972
-56.07393335,125.65460702,-25.02501004,2.91736994,14.39522076,3.18009595
-0.29870104,0.65899001,0.68821442

>  <Name>
2et4_lig

>  <RI>
0

>  <Rbt.Current_Directory>
/home/itssahil/PROJECTS/Mol_Feturizer/New_Systems/rnas/2et4

>  <Rbt.Executable>
rbdock ($Id: //depot/dev/client3/rdock/2013.1/src/exe/rbdock.cxx#4 $)

>  <Rbt.Library>
libRbt.so (2013.1, Build901 2013/11/27)

>  <Rbt.Parameter_File>
/export/apps/rDock/src/rDock_2013.1_src/data/scripts/dock_solv.prm

>  <Rbt.Receptor>
prm/blind_docking_20.prm

>  <SCORE>
26.949

>  <SCORE.INTER>
-4.73716

>  <SCORE.INTER.CONST>
1

>  <SCORE.INTER.POLAR>
-1.38664

>  <SCORE.INTER.ROT>
9

>  <SCORE.INTER.SOLV>
27.9571

>  <SCORE.INTER.VDW>
-17.455

>  <SCORE.INTER.norm>
-0.11279

>  <SCORE.INTRA>
10.6045

>  <SCORE.INTRA.DIHEDRAL>
5.56781

>  <SCORE.INTRA.DIHEDRAL.0>
21.6909

>  <SCORE.INTRA.POLAR>
0

>  <SCORE.INTRA.POLAR.0>
0

>  <SCORE.INTRA.REPUL>
0

>  <SCORE.INTRA.REPUL.0>
0

>  <SCORE.INTRA.SOLV>
1.72983

>  <SCORE.INTRA.SOLV.lig_0>
-116.606

>  <SCORE.INTRA.VDW>
6.95567

>  <SCORE.INTRA.VDW.0>
-6.01229

>  <SCORE.INTRA.norm>
0.252488

>  <SCORE.RESTR>
21.0817

>  <SCORE.RESTR.CAVITY>
21.0817

>  <SCORE.RESTR.norm>
0.501945

>  <SCORE.SYSTEM>
0

>  <SCORE.SYSTEM.CONST>
0

>  <SCORE.SYSTEM.DIHEDRAL>
0

>  <SCORE.SYSTEM.SOLV>
0

>  <SCORE.SYSTEM.norm>
0

>  <SCORE.heavy>
42

>  <SCORE.norm>
0.641643

>  <RMSD>
13.633

$$$$
2et4_lig
 OpenBabel11021811423D
libRbt.so/2013.1/901 2013/11/27
 42 45  0  0  0  0  0  0  0  0999 V2000
    7.3551   14.4701    2.3256 C   0  0  2  0  0  0  0  0  0  0  0  0
    6.6988   15.7363    2.2339 O   0  0  0  0  0  0  0  0  0  0  0  0
    8.5011   14.4728    1.2819 C   0  0  2  0  0  0  0  0  0  0  0  0
    9.4126   15.5658    1.5054 N   0  0  0  0  0  0  0  0  0  0  0  0
    7.8923   14.5353   -0.1488 C   0  0  1  0  0  0  0  0  0  0  0  0
    8.9240   14.5212   -1.0854 O   0  0  0  0  0  0  0  0  0  0  0  0
    6.9191   13.3214   -0.3198 C   0  0  2  0  0  0  0  0  0  0  0  0
    6.3365   13.3427   -1.6058 O   0  0  0  0  0  0  0  0  0  0  0  0
    5.7925   13.3571    0.7570 C   0  0  2  0  0  0  0  0  0  0  0  0
    6.4046   13.3556    2.0500 O   0  0  0  0  0  0  0  0  0  0  0  0
    4.8238   12.1348    0.6423 C   0  0  0  0  0  0  0  0  0  0  0  0
    3.4823   12.4815    0.9605 N   0  0  0  0  0  0  0  0  0  0  0  0
    3.1761   17.5661    0.5319 C   0  0  2  0  0  0  0  0  0  0  0  0
    2.0596   17.8255   -0.3857 N   0  0  0  0  0  0  0  0  0  0  0  0
    4.5803   17.7122   -0.2676 C   0  0  0  0  0  0  0  0  0  0  0  0
    5.7799   17.4174    0.7230 C   0  0  2  0  0  0  0  0  0  0  0  0
    7.0774   17.5140    0.0309 N   0  0  0  0  0  0  0  0  0  0  0  0
    5.6144   15.9825    1.3281 C   0  0  2  0  0  0  0  0  0  0  0  0
    4.2441   15.8469    2.0709 C   0  0  2  0  0  0  0  0  0  0  0  0
    4.1835   14.4906    2.5766 O   0  0  0  0  0  0  0  0  0  0  0  0
    3.0715   16.1330    1.0786 C   0  0  1  0  0  0  0  0  0  0  0  0
    1.8721   16.0195    1.7670 O   0  0  0  0  0  0  0  0  0  0  0  0
    3.5490   14.1021    3.7092 C   0  0  1  0  0  0  0  0  0  0  0  0
    2.6199   15.2253    4.2389 C   0  0  2  0  0  0  0  0  0  0  0  0
    3.2902   16.1665    5.0262 O   0  0  0  0  0  0  0  0  0  0  0  0
    1.5420   14.3716    4.8811 C   0  0  1  0  0  0  0  0  0  0  0  0
    1.3541   13.1440    3.9787 C   0  0  2  0  0  0  0  0  0  0  0  0
    2.7029   12.9297    3.5632 O   0  0  0  0  0  0  0  0  0  0  0  0
    0.3929   13.3442    2.7577 C   0  0  0  0  0  0  0  0  0  0  0  0
   -0.9059   13.7242    3.2849 O   0  0  0  0  0  0  0  0  0  0  0  0
    1.0784   13.9372    7.2723 C   0  0  2  0  0  0  0  0  0  0  0  0
    2.0204   13.9924    6.2361 O   0  0  0  0  0  0  0  0  0  0  0  0
    0.6676   12.4364    7.6020 C   0  0  1  0  0  0  0  0  0  0  0  0
   -3.2148   15.1015    6.2449 N   0  0  0  0  0  0  0  0  0  0  0  0
   -0.4314   12.4949    8.7875 C   0  0  1  0  0  0  0  0  0  0  0  0
    0.1939   13.1989    9.9753 O   0  0  0  0  0  0  0  0  0  0  0  0
   -1.7444   13.2999    8.2832 C   0  0  2  0  0  0  0  0  0  0  0  0
   -2.3281   12.6037    7.1559 O   0  0  0  0  0  0  0  0  0  0  0  0
   -1.2773   14.8196    7.9197 C   0  0  1  0  0  0  0  0  0  0  0  0
   -0.1794   14.7726    6.8929 O   0  0  0  0  0  0  0  0  0  0  0  0
   -2.4649   15.6986    7.3924 C   0  0  0  0  0  0  0  0  0  0  0  0
    0.1623   11.7580    6.3630 N   0  0  0  0  0  0  0  0  0  0  0  0
  1  2  1  6  0  0  0
  1  3  1  0  0  0  0
  1 10  1  0  0  0  0
  3  4  1  1  0  0  0
  3  5  1  0  0  0  0
  5  6  1  6  0  0  0
  5  7  1  0  0  0  0
  7  8  1  6  0  0  0
  7  9  1  0  0  0  0
  9 10  1  0  0  0  0
  9 11  1  1  0  0  0
 11 12  1  0  0  0  0
 13 14  1  6  0  0  0
 13 15  1  0  0  0  0
 13 21  1  0  0  0  0
 16 15  1  0  0  0  0
 16 17  1  6  0  0  0
 18  2  1  1  0  0  0
 18 16  1  0  0  0  0
 19 18  1  0  0  0  0
 19 20  1  6  0  0  0
 21 19  1  0  0  0  0
 21 22  1  1  0  0  0
 23 20  1  6  0  0  0
 23 24  1  0  0  0  0
 23 28  1  0  0  0  0
 24 25  1  1  0  0  0
 24 26  1  0  0  0  0
 26 27  1  0  0  0  0
 26 32  1  1  0  0  0
 27 28  1  0  0  0  0
 27 29  1  6  0  0  0
 29 30  1  0  0  0  0
 31 32  1  6  0  0  0
 31 40  1  0  0  0  0
 33 31  1  0  0  0  0
 33 42  1  6  0  0  0
 35 33  1  0  0  0  0
 35 36  1  1  0  0  0
 37 35  1  0  0  0  0
 37 38  1  6  0  0  0
 37 39  1  0  0  0  0
 39 40  1  0  0  0  0
 39 41  1  6  0  0  0
 41 34  1  0  0  0  0
M  END
>  <CHROM.1>
88.17074244,-144.66854108,-140.44069973,148.66284273,12.92189611,142.83591767
-59.10791750,102.37289165,-53.39201994,3.10911275,14.53068997,3.33512606
-0.63881107,-0.42412260,2.27708757

>  <Name>
2et4_lig

>  <RI>
0

>  <Rbt.Current_Directory>
/home/itssahil/PROJECTS/Mol_Feturizer/New_Systems/rnas/2et4

>  <Rbt.Executable>
rbdock ($Id: //depot/dev/client3/rdock/2013.1/src/exe/rbdock.cxx#4 $)

>  <Rbt.Library>
libRbt.so (2013.1, Build901 2013/11/27)

>  <Rbt.Parameter_File>
/export/apps/rDock/src/rDock_2013.1_src/data/scripts/dock_solv.prm

>  <Rbt.Receptor>
prm/blind_docking_20.prm

>  <SCORE>
26.1075

>  <SCORE.INTER>
-4.08049

>  <SCORE.INTER.CONST>
1

>  <SCORE.INTER.POLAR>
-1.4416

>  <SCORE.INTER.ROT>
9

>  <SCORE.INTER.SOLV>
28.6255

>  <SCORE.INTER.VDW>
-17.0568

>  <SCORE.INTER.norm>
-0.0971546

>  <SCORE.INTRA>
14.4361

>  <SCORE.INTRA.DIHEDRAL>
11.4424

>  <SCORE.INTRA.DIHEDRAL.0>
21.6909

>  <SCORE.INTRA.POLAR>
0

>  <SCORE.INTRA.POLAR.0>
0

>  <SCORE.INTRA.REPUL>
0.00640612

>  <SCORE.INTRA.REPUL.0>
0

>  <SCORE.INTRA.SOLV>
10.3361

>  <SCORE.INTRA.SOLV.lig_0>
-116.606

>  <SCORE.INTRA.VDW>
3.51482

>  <SCORE.INTRA.VDW.0>
-6.01229

>  <SCORE.INTRA.norm>
0.343718

>  <SCORE.RESTR>
15.7519

>  <SCORE.RESTR.CAVITY>
15.7519

>  <SCORE.RESTR.norm>
0.375045

>  <SCORE.SYSTEM>
0

>  <SCORE.SYSTEM.CONST>
0

>  <SCORE.SYSTEM.DIHEDRAL>
0

>  <SCORE.SYSTEM.SOLV>
0

>  <SCORE.SYSTEM.norm>
0

>  <SCORE.heavy>
42

>  <SCORE.norm>
0.621608

>  <RMSD>
13.718

$$$$
2et4_lig
 OpenBabel11021811423D
libRbt.so/2013.1/901 2013/11/27
 42 45  0  0  0  0  0  0  0  0999 V2000
    7.4392   14.4689    2.3326 C   0  0  2  0  0  0  0  0  0  0  0  0
    6.7717   15.7319    2.2953 O   0  0  0  0  0  0  0  0  0  0  0  0
    8.5549   14.5097    1.2573 C   0  0  2  0  0  0  0  0  0  0  0  0
    9.4647   15.6033    1.4856 N   0  0  0  0  0  0  0  0  0  0  0  0
    7.9051   14.6074   -0.1531 C   0  0  1  0  0  0  0  0  0  0  0  0
    8.9097   14.6276   -1.1186 O   0  0  0  0  0  0  0  0  0  0  0  0
    6.9360   13.3912   -0.3307 C   0  0  2  0  0  0  0  0  0  0  0  0
    6.3168   13.4439   -1.5985 O   0  0  0  0  0  0  0  0  0  0  0  0
    5.8404   13.3879    0.7782 C   0  0  2  0  0  0  0  0  0  0  0  0
    6.4892   13.3550    2.0528 O   0  0  0  0  0  0  0  0  0  0  0  0
    4.8775   12.1617    0.6566 C   0  0  0  0  0  0  0  0  0  0  0  0
    3.5098   12.5480    0.6909 N   0  0  0  0  0  0  0  0  0  0  0  0
    3.6652   17.8773    0.1972 C   0  0  2  0  0  0  0  0  0  0  0  0
    2.7125   18.2503   -0.8558 N   0  0  0  0  0  0  0  0  0  0  0  0
    5.1762   17.9441   -0.3899 C   0  0  0  0  0  0  0  0  0  0  0  0
    6.1981   17.5270    0.7455 C   0  0  2  0  0  0  0  0  0  0  0  0
    7.5848   17.5489    0.2474 N   0  0  0  0  0  0  0  0  0  0  0  0
    5.8481   16.0891    1.2579 C   0  0  2  0  0  0  0  0  0  0  0  0
    4.3794   16.0320    1.7941 C   0  0  2  0  0  0  0  0  0  0  0  0
    4.1527   14.6679    2.2263 O   0  0  0  0  0  0  0  0  0  0  0  0
    3.3839   16.4385    0.6605 C   0  0  1  0  0  0  0  0  0  0  0  0
    2.0932   16.3924    1.1680 O   0  0  0  0  0  0  0  0  0  0  0  0
    3.4915   14.2996    3.3504 C   0  0  1  0  0  0  0  0  0  0  0  0
    2.7469   15.5068    3.9780 C   0  0  2  0  0  0  0  0  0  0  0  0
    3.5631   16.2866    4.8031 O   0  0  0  0  0  0  0  0  0  0  0  0
    1.5695   14.7760    4.5966 C   0  0  1  0  0  0  0  0  0  0  0  0
    1.1864   13.6517    3.6240 C   0  0  2  0  0  0  0  0  0  0  0  0
    2.4809   13.2738    3.1556 O   0  0  0  0  0  0  0  0  0  0  0  0
    0.2400   14.0698    2.4475 C   0  0  0  0  0  0  0  0  0  0  0  0
   -0.8853   14.7819    3.0272 O   0  0  0  0  0  0  0  0  0  0  0  0
    1.0588   14.1213    6.9272 C   0  0  2  0  0  0  0  0  0  0  0  0
    2.0151   14.2416    5.9098 O   0  0  0  0  0  0  0  0  0  0  0  0
    1.0424   12.6518    7.5356 C   0  0  1  0  0  0  0  0  0  0  0  0
   -3.0948   16.3093    6.6577 N   0  0  0  0  0  0  0  0  0  0  0  0
   -0.1045   12.6231    8.6759 C   0  0  1  0  0  0  0  0  0  0  0  0
    0.2352   13.6757    9.7123 O   0  0  0  0  0  0  0  0  0  0  0  0
   -1.5502   12.9325    8.0121 C   0  0  2  0  0  0  0  0  0  0  0  0
   -1.8557   11.9098    7.0340 O   0  0  0  0  0  0  0  0  0  0  0  0
   -1.4827   14.4291    7.3675 C   0  0  1  0  0  0  0  0  0  0  0  0
   -0.3497   14.4973    6.3807 O   0  0  0  0  0  0  0  0  0  0  0  0
   -2.8260   14.8386    6.6681 C   0  0  0  0  0  0  0  0  0  0  0  0
    0.8146   11.6467    6.4453 N   0  0  0  0  0  0  0  0  0  0  0  0
  1  2  1  6  0  0  0
  1  3  1  0  0  0  0
  1 10  1  0  0  0  0
  3  4  1  1  0  0  0
  3  5  1  0  0  0  0
  5  6  1  6  0  0  0
  5  7  1  0  0  0  0
  7  8  1  6  0  0  0
  7  9  1  0  0  0  0
  9 10  1  0  0  0  0
  9 11  1  6  0  0  0
 11 12  1  0  0  0  0
 13 14  1  6  0  0  0
 13 15  1  0  0  0  0
 13 21  1  0  0  0  0
 16 15  1  0  0  0  0
 16 17  1  6  0  0  0
 18  2  1  1  0  0  0
 18 16  1  0  0  0  0
 19 18  1  0  0  0  0
 19 20  1  6  0  0  0
 21 19  1  0  0  0  0
 21 22  1  1  0  0  0
 23 20  1  6  0  0  0
 23 24  1  0  0  0  0
 23 28  1  0  0  0  0
 24 25  1  1  0  0  0
 24 26  1  0  0  0  0
 26 27  1  0  0  0  0
 26 32  1  1  0  0  0
 27 28  1  0  0  0  0
 27 29  1  6  0  0  0
 29 30  1  0  0  0  0
 31 32  1  6  0  0  0
 31 40  1  0  0  0  0
 33 31  1  0  0  0  0
 33 42  1  6  0  0  0
 35 33  1  0  0  0  0
 35 36  1  1  0  0  0
 37 35  1  0  0  0  0
 37 38  1  6  0  0  0
 37 39  1  0  0  0  0
 39 40  1  0  0  0  0
 39 41  1  6  0  0  0
 41 34  1  0  0  0  0
M  END
>  <CHROM.1>
75.31078242,-129.89993844,-132.85066897,138.79480940,11.76570898,149.46131167
-50.51094236,127.12526831,151.59651014,3.23163004,14.67945102,3.14511991
-0.62730006,-0.42048027,2.30976615

>  <Name>
2et4_lig

>  <RI>
0

>  <Rbt.Current_Directory>
/home/itssahil/PROJECTS/Mol_Feturizer/New_Systems/rnas/2et4

>  <Rbt.Executable>
rbdock ($Id: //depot/dev/client3/rdock/2013.1/src/exe/rbdock.cxx#4 $)

>  <Rbt.Library>
libRbt.so (2013.1, Build901 2013/11/27)

>  <Rbt.Parameter_File>
/export/apps/rDock/src/rDock_2013.1_src/data/scripts/dock_solv.prm

>  <Rbt.Receptor>
prm/blind_docking_20.prm

>  <SCORE>
24.8745

>  <SCORE.INTER>
-7.72402

>  <SCORE.INTER.CONST>
1

>  <SCORE.INTER.POLAR>
-1.54829

>  <SCORE.INTER.ROT>
9

>  <SCORE.INTER.SOLV>
33.4733

>  <SCORE.INTER.VDW>
-20.7462

>  <SCORE.INTER.norm>
-0.183905

>  <SCORE.INTRA>
15.5741

>  <SCORE.INTRA.DIHEDRAL>
16.3302

>  <SCORE.INTRA.DIHEDRAL.0>
21.6909

>  <SCORE.INTRA.POLAR>
0

>  <SCORE.INTRA.POLAR.0>
0

>  <SCORE.INTRA.REPUL>
0

>  <SCORE.INTRA.REPUL.0>
0

>  <SCORE.INTRA.SOLV>
7.34175

>  <SCORE.INTRA.SOLV.lig_0>
-116.606

>  <SCORE.INTRA.VDW>
3.73815

>  <SCORE.INTRA.VDW.0>
-6.01229

>  <SCORE.INTRA.norm>
0.370812

>  <SCORE.RESTR>
17.0244

>  <SCORE.RESTR.CAVITY>
17.0244

>  <SCORE.RESTR.norm>
0.405343

>  <SCORE.SYSTEM>
0

>  <SCORE.SYSTEM.CONST>
0

>  <SCORE.SYSTEM.DIHEDRAL>
0

>  <SCORE.SYSTEM.SOLV>
0

>  <SCORE.SYSTEM.norm>
0

>  <SCORE.heavy>
42

>  <SCORE.norm>
0.59225

>  <RMSD>
13.749

$$$$
2et4_lig
 OpenBabel11021811423D
libRbt.so/2013.1/901 2013/11/27
 42 45  0  0  0  0  0  0  0  0999 V2000
    5.6019   14.2505    2.1769 C   0  0  2  0  0  0  0  0  0  0  0  0
    4.2128   14.1678    1.8518 O   0  0  0  0  0  0  0  0  0  0  0  0
    5.9485   15.7543    2.3225 C   0  0  2  0  0  0  0  0  0  0  0  0
    5.1261   16.3885    3.3211 N   0  0  0  0  0  0  0  0  0  0  0  0
    5.7911   16.4534    0.9413 C   0  0  1  0  0  0  0  0  0  0  0  0
    6.1188   17.8015    1.0716 O   0  0  0  0  0  0  0  0  0  0  0  0
    6.7112   15.7159   -0.0880 C   0  0  2  0  0  0  0  0  0  0  0  0
    6.5940   16.3148   -1.3612 O   0  0  0  0  0  0  0  0  0  0  0  0
    6.3315   14.2076   -0.1911 C   0  0  2  0  0  0  0  0  0  0  0  0
    6.4370   13.6261    1.1118 O   0  0  0  0  0  0  0  0  0  0  0  0
    7.2584   13.4291   -1.1811 C   0  0  0  0  0  0  0  0  0  0  0  0
    8.6216   13.8114   -1.0530 N   0  0  0  0  0  0  0  0  0  0  0  0
    0.9698   11.3460    1.4333 C   0  0  2  0  0  0  0  0  0  0  0  0
    0.1838   10.1135    1.5706 N   0  0  0  0  0  0  0  0  0  0  0  0
    2.3779   11.0125    0.6996 C   0  0  0  0  0  0  0  0  0  0  0  0
    3.2272   12.3424    0.5673 C   0  0  2  0  0  0  0  0  0  0  0  0
    4.5288   12.0809   -0.0722 N   0  0  0  0  0  0  0  0  0  0  0  0
    3.4562   12.9572    1.9894 C   0  0  2  0  0  0  0  0  0  0  0  0
    2.0909   13.2467    2.6965 C   0  0  2  0  0  0  0  0  0  0  0  0
    2.4110   13.7945    3.9990 O   0  0  0  0  0  0  0  0  0  0  0  0
    1.2690   11.9241    2.8262 C   0  0  1  0  0  0  0  0  0  0  0  0
    0.0601   12.2136    3.4429 O   0  0  0  0  0  0  0  0  0  0  0  0
    1.5583   13.8733    5.0492 C   0  0  1  0  0  0  0  0  0  0  0  0
    0.0837   13.7936    4.5751 C   0  0  2  0  0  0  0  0  0  0  0  0
   -0.4279   15.0279    4.1629 O   0  0  0  0  0  0  0  0  0  0  0  0
   -0.5291   13.1177    5.7877 C   0  0  1  0  0  0  0  0  0  0  0  0
    0.5031   12.1017    6.2965 C   0  0  2  0  0  0  0  0  0  0  0  0
    1.7096   12.8197    6.0385 O   0  0  0  0  0  0  0  0  0  0  0  0
    0.4893   10.7085    5.5799 C   0  0  0  0  0  0  0  0  0  0  0  0
   -0.8879   10.2488    5.5501 O   0  0  0  0  0  0  0  0  0  0  0  0
   -1.6243   13.8426    7.8845 C   0  0  2  0  0  0  0  0  0  0  0  0
   -0.8068   14.1741    6.7956 O   0  0  0  0  0  0  0  0  0  0  0  0
   -1.8656   15.0981    8.8307 C   0  0  1  0  0  0  0  0  0  0  0  0
   -1.5997   10.5656   11.8768 N   0  0  0  0  0  0  0  0  0  0  0  0
   -2.7962   14.5974   10.0554 C   0  0  1  0  0  0  0  0  0  0  0  0
   -4.0861   14.0528    9.4748 O   0  0  0  0  0  0  0  0  0  0  0  0
   -2.0273   13.4457   10.8973 C   0  0  2  0  0  0  0  0  0  0  0  0
   -0.8052   13.9922   11.4486 O   0  0  0  0  0  0  0  0  0  0  0  0
   -1.7646   12.1932    9.8863 C   0  0  1  0  0  0  0  0  0  0  0  0
   -0.9890   12.6713    8.6897 O   0  0  0  0  0  0  0  0  0  0  0  0
   -0.9990   11.0144   10.5832 C   0  0  0  0  0  0  0  0  0  0  0  0
   -0.5505   15.6617    9.2820 N   0  0  0  0  0  0  0  0  0  0  0  0
  1  2  1  6  0  0  0
  1  3  1  0  0  0  0
  1 10  1  0  0  0  0
  3  4  1  1  0  0  0
  3  5  1  0  0  0  0
  5  6  1  1  0  0  0
  5  7  1  0  0  0  0
  7  8  1  6  0  0  0
  7  9  1  0  0  0  0
  9 10  1  0  0  0  0
  9 11  1  6  0  0  0
 11 12  1  0  0  0  0
 13 14  1  1  0  0  0
 13 15  1  0  0  0  0
 13 21  1  0  0  0  0
 16 15  1  0  0  0  0
 16 17  1  1  0  0  0
 18  2  1  6  0  0  0
 18 16  1  0  0  0  0
 19 18  1  0  0  0  0
 19 20  1  1  0  0  0
 21 19  1  0  0  0  0
 21 22  1  6  0  0  0
 23 20  1  6  0  0  0
 23 24  1  0  0  0  0
 23 28  1  0  0  0  0
 24 25  1  1  0  0  0
 24 26  1  0  0  0  0
 26 27  1  0  0  0  0
 26 32  1  1  0  0  0
 27 28  1  0  0  0  0
 27 29  1  6  0  0  0
 29 30  1  0  0  0  0
 31 32  1  6  0  0  0
 31 40  1  0  0  0  0
 33 31  1  0  0  0  0
 33 42  1  1  0  0  0
 35 33  1  0  0  0  0
 35 36  1  6  0  0  0
 37 35  1  0  0  0  0
 37 38  1  6  0  0  0
 37 39  1  0  0  0  0
 39 40  1  0  0  0  0
 39 41  1  1  0  0  0
 41 34  1  0  0  0  0
M  END
>  <CHROM.1>
-162.86764791,41.38860640,-104.37785871,-162.64225866,-20.60453365,166.94911708
-49.08679166,-177.71099957,51.17891170,1.84363281,13.48695174,4.46387242
-0.46293220,0.78268985,0.77298556

>  <Name>
2et4_lig

>  <RI>
0

>  <Rbt.Current_Directory>
/home/itssahil/PROJECTS/Mol_Feturizer/New_Systems/rnas/2et4

>  <Rbt.Executable>
rbdock ($Id: //depot/dev/client3/rdock/2013.1/src/exe/rbdock.cxx#4 $)

>  <Rbt.Library>
libRbt.so (2013.1, Build901 2013/11/27)

>  <Rbt.Parameter_File>
/export/apps/rDock/src/rDock_2013.1_src/data/scripts/dock_solv.prm

>  <Rbt.Receptor>
prm/blind_docking_20.prm

>  <SCORE>
46.4596

>  <SCORE.INTER>
6.38564

>  <SCORE.INTER.CONST>
1

>  <SCORE.INTER.POLAR>
-1.12552

>  <SCORE.INTER.ROT>
9

>  <SCORE.INTER.SOLV>
30.7269

>  <SCORE.INTER.VDW>
-11.8335

>  <SCORE.INTER.norm>
0.152039

>  <SCORE.INTRA>
20.5558

>  <SCORE.INTRA.DIHEDRAL>
-4.78179

>  <SCORE.INTRA.DIHEDRAL.0>
21.6909

>  <SCORE.INTRA.POLAR>
0

>  <SCORE.INTRA.POLAR.0>
0

>  <SCORE.INTRA.REPUL>
0

>  <SCORE.INTRA.REPUL.0>
0

>  <SCORE.INTRA.SOLV>
3.02125

>  <SCORE.INTRA.SOLV.lig_0>
-116.606

>  <SCORE.INTRA.VDW>
21.4361

>  <SCORE.INTRA.VDW.0>
-6.01229

>  <SCORE.INTRA.norm>
0.489424

>  <SCORE.RESTR>
19.5182

>  <SCORE.RESTR.CAVITY>
19.5182

>  <SCORE.RESTR.norm>
0.464718

>  <SCORE.SYSTEM>
0

>  <SCORE.SYSTEM.CONST>
0

>  <SCORE.SYSTEM.DIHEDRAL>
0

>  <SCORE.SYSTEM.SOLV>
0

>  <SCORE.SYSTEM.norm>
0

>  <SCORE.heavy>
42

>  <SCORE.norm>
1.10618

>  <RMSD>
13.898

$$$$
2et4_lig
 OpenBabel11021811423D
libRbt.so/2013.1/901 2013/11/27
 42 45  0  0  0  0  0  0  0  0999 V2000
    5.0678   14.8034    2.4154 C   0  0  2  0  0  0  0  0  0  0  0  0
    4.4793   13.9939    1.3953 O   0  0  0  0  0  0  0  0  0  0  0  0
    4.7395   16.2793    2.0738 C   0  0  2  0  0  0  0  0  0  0  0  0
    3.3180   16.4919    1.9749 N   0  0  0  0  0  0  0  0  0  0  0  0
    5.4576   16.6718    0.7503 C   0  0  1  0  0  0  0  0  0  0  0  0
    5.1740   18.0036    0.4542 O   0  0  0  0  0  0  0  0  0  0  0  0
    6.9914   16.4180    0.9320 C   0  0  2  0  0  0  0  0  0  0  0  0
    7.6836   16.7551   -0.2515 O   0  0  0  0  0  0  0  0  0  0  0  0
    7.2693   14.9252    1.2841 C   0  0  2  0  0  0  0  0  0  0  0  0
    6.5431   14.5997    2.4731 O   0  0  0  0  0  0  0  0  0  0  0  0
    8.7902   14.6433    1.5139 C   0  0  0  0  0  0  0  0  0  0  0  0
    9.5837   15.0429    0.4041 N   0  0  0  0  0  0  0  0  0  0  0  0
    1.1857   11.2030    1.2637 C   0  0  2  0  0  0  0  0  0  0  0  0
    0.3592   10.0256    1.5577 N   0  0  0  0  0  0  0  0  0  0  0  0
    2.6214   10.7253    0.6782 C   0  0  0  0  0  0  0  0  0  0  0  0
    3.5135   11.9982    0.3765 C   0  0  2  0  0  0  0  0  0  0  0  0
    4.8399   11.6093   -0.1344 N   0  0  0  0  0  0  0  0  0  0  0  0
    3.6827   12.8377    1.6877 C   0  0  2  0  0  0  0  0  0  0  0  0
    2.2899   13.2668    2.2569 C   0  0  2  0  0  0  0  0  0  0  0  0
    2.5546   14.0186    3.4668 O   0  0  0  0  0  0  0  0  0  0  0  0
    1.4255   12.0001    2.5563 C   0  0  1  0  0  0  0  0  0  0  0  0
    0.1936   12.4110    3.0455 O   0  0  0  0  0  0  0  0  0  0  0  0
    1.7183   14.1184    4.5283 C   0  0  1  0  0  0  0  0  0  0  0  0
    0.2412   13.9374    4.0912 C   0  0  2  0  0  0  0  0  0  0  0  0
   -0.3396   15.1178    3.6174 O   0  0  0  0  0  0  0  0  0  0  0  0
   -0.3145   13.3065    5.3546 C   0  0  1  0  0  0  0  0  0  0  0  0
    0.7770   12.3753    5.9008 C   0  0  2  0  0  0  0  0  0  0  0  0
    1.9407   13.1352    5.5751 O   0  0  0  0  0  0  0  0  0  0  0  0
    0.8206   10.9424    5.2686 C   0  0  0  0  0  0  0  0  0  0  0  0
   -0.4558   10.3068    5.5441 O   0  0  0  0  0  0  0  0  0  0  0  0
   -1.6344   14.1877    7.2526 C   0  0  2  0  0  0  0  0  0  0  0  0
   -0.6268   14.4068    6.3036 O   0  0  0  0  0  0  0  0  0  0  0  0
   -1.8696   15.4760    8.1552 C   0  0  1  0  0  0  0  0  0  0  0  0
   -1.3419   10.1916    9.1514 N   0  0  0  0  0  0  0  0  0  0  0  0
   -3.0287   15.1039    9.2204 C   0  0  1  0  0  0  0  0  0  0  0  0
   -4.2692   14.7041    8.4465 O   0  0  0  0  0  0  0  0  0  0  0  0
   -2.5375   13.8829   10.1661 C   0  0  2  0  0  0  0  0  0  0  0  0
   -1.3589   14.2919   10.9008 O   0  0  0  0  0  0  0  0  0  0  0  0
   -2.2710   12.5942    9.2028 C   0  0  1  0  0  0  0  0  0  0  0  0
   -1.2709   12.9622    8.1414 O   0  0  0  0  0  0  0  0  0  0  0  0
   -1.7639   11.3447   10.0046 C   0  0  0  0  0  0  0  0  0  0  0  0
   -0.5825   15.8898    8.8056 N   0  0  0  0  0  0  0  0  0  0  0  0
  1  2  1  6  0  0  0
  1  3  1  0  0  0  0
  1 10  1  0  0  0  0
  3  4  1  6  0  0  0
  3  5  1  0  0  0  0
  5  6  1  1  0  0  0
  5  7  1  0  0  0  0
  7  8  1  6  0  0  0
  7  9  1  0  0  0  0
  9 10  1  0  0  0  0
  9 11  1  1  0  0  0
 11 12  1  0  0  0  0
 13 14  1  1  0  0  0
 13 15  1  0  0  0  0
 13 21  1  0  0  0  0
 16 15  1  0  0  0  0
 16 17  1  1  0  0  0
 18  2  1  6  0  0  0
 18 16  1  0  0  0  0
 19 18  1  0  0  0  0
 19 20  1  1  0  0  0
 21 19  1  0  0  0  0
 21 22  1  6  0  0  0
 23 20  1  6  0  0  0
 23 24  1  0  0  0  0
 23 28  1  0  0  0  0
 24 25  1  1  0  0  0
 24 26  1  0  0  0  0
 26 27  1  0  0  0  0
 26 32  1  1  0  0  0
 27 28  1  0  0  0  0
 27 29  1  6  0  0  0
 29 30  1  0  0  0  0
 31 32  1  6  0  0  0
 31 40  1  0  0  0  0
 33 31  1  0  0  0  0
 33 42  1  1  0  0  0
 35 33  1  0  0  0  0
 35 36  1  6  0  0  0
 37 35  1  0  0  0  0
 37 38  1  6  0  0  0
 37 39  1  0  0  0  0
 39 40  1  0  0  0  0
 39 41  1  1  0  0  0
 41 34  1  0  0  0  0
M  END
>  <CHROM.1>
-131.76586830,-55.19178819,-165.65934141,-152.04689241,-27.03337822,153.04709910
-60.74062976,-178.27286378,-172.72784679,1.88603007,13.75105203,4.24873127
-0.27794225,0.73105903,0.61036851

>  <Name>
2et4_lig

>  <RI>
0

>  <Rbt.Current_Directory>
/home/itssahil/PROJECTS/Mol_Feturizer/New_Systems/rnas/2et4

>  <Rbt.Executable>
rbdock ($Id: //depot/dev/client3/rdock/2013.1/src/exe/rbdock.cxx#4 $)

>  <Rbt.Library>
libRbt.so (2013.1, Build901 2013/11/27)

>  <Rbt.Parameter_File>
/export/apps/rDock/src/rDock_2013.1_src/data/scripts/dock_solv.prm

>  <Rbt.Receptor>
prm/blind_docking_20.prm

>  <SCORE>
51.2262

>  <SCORE.INTER>
12.1

>  <SCORE.INTER.CONST>
1

>  <SCORE.INTER.POLAR>
-1.31411

>  <SCORE.INTER.ROT>
9

>  <SCORE.INTER.SOLV>
30.6704

>  <SCORE.INTER.VDW>
-7.37644

>  <SCORE.INTER.norm>
0.288095

>  <SCORE.INTRA>
21.6535

>  <SCORE.INTRA.DIHEDRAL>
-3.35469

>  <SCORE.INTRA.DIHEDRAL.0>
21.6909

>  <SCORE.INTRA.POLAR>
0

>  <SCORE.INTRA.POLAR.0>
0

>  <SCORE.INTRA.REPUL>
0

>  <SCORE.INTRA.REPUL.0>
0

>  <SCORE.INTRA.SOLV>
1.3566

>  <SCORE.INTRA.SOLV.lig_0>
-116.606

>  <SCORE.INTRA.VDW>
22.6525

>  <SCORE.INTRA.VDW.0>
-6.01229

>  <SCORE.INTRA.norm>
0.515559

>  <SCORE.RESTR>
17.4727

>  <SCORE.RESTR.CAVITY>
17.4727

>  <SCORE.RESTR.norm>
0.416016

>  <SCORE.SYSTEM>
0

>  <SCORE.SYSTEM.CONST>
0

>  <SCORE.SYSTEM.DIHEDRAL>
0

>  <SCORE.SYSTEM.SOLV>
0

>  <SCORE.SYSTEM.norm>
0

>  <SCORE.heavy>
42

>  <SCORE.norm>
1.21967

>  <RMSD>
13.999

$$$$
2et4_lig
 OpenBabel11021811423D
libRbt.so/2013.1/901 2013/11/27
 42 45  0  0  0  0  0  0  0  0999 V2000
    5.2645   14.7185    2.0497 C   0  0  2  0  0  0  0  0  0  0  0  0
    4.4868   13.8877    1.1853 O   0  0  0  0  0  0  0  0  0  0  0  0
    4.9050   16.1887    1.7155 C   0  0  2  0  0  0  0  0  0  0  0  0
    3.4930   16.4317    1.8671 N   0  0  0  0  0  0  0  0  0  0  0  0
    5.3773   16.5168    0.2697 C   0  0  1  0  0  0  0  0  0  0  0  0
    5.0675   17.8437   -0.0222 O   0  0  0  0  0  0  0  0  0  0  0  0
    6.9141   16.2331    0.1807 C   0  0  2  0  0  0  0  0  0  0  0  0
    7.3854   16.5113   -1.1208 O   0  0  0  0  0  0  0  0  0  0  0  0
    7.2257   14.7474    0.5350 C   0  0  2  0  0  0  0  0  0  0  0  0
    6.7221   14.4817    1.8475 O   0  0  0  0  0  0  0  0  0  0  0  0
    8.7580   14.4376    0.4968 C   0  0  0  0  0  0  0  0  0  0  0  0
    9.5029   15.3094    1.3372 N   0  0  0  0  0  0  0  0  0  0  0  0
    0.7925   11.7011    1.6603 C   0  0  2  0  0  0  0  0  0  0  0  0
   -0.1777   10.7188    2.1598 N   0  0  0  0  0  0  0  0  0  0  0  0
    2.0661   10.9275    1.0186 C   0  0  0  0  0  0  0  0  0  0  0  0
    3.1154   11.9914    0.4948 C   0  0  2  0  0  0  0  0  0  0  0  0
    4.3034   11.3312   -0.0746 N   0  0  0  0  0  0  0  0  0  0  0  0
    3.5492   12.9208    1.6783 C   0  0  2  0  0  0  0  0  0  0  0  0
    2.3082   13.6378    2.3059 C   0  0  2  0  0  0  0  0  0  0  0  0
    2.8114   14.4545    3.3917 O   0  0  0  0  0  0  0  0  0  0  0  0
    1.2870   12.5750    2.8246 C   0  0  1  0  0  0  0  0  0  0  0  0
    0.1930   13.2385    3.3619 O   0  0  0  0  0  0  0  0  0  0  0  0
    2.1921   14.6481    4.5813 C   0  0  1  0  0  0  0  0  0  0  0  0
    0.6504   14.6512    4.4113 C   0  0  2  0  0  0  0  0  0  0  0  0
    0.1429   15.8967    4.0289 O   0  0  0  0  0  0  0  0  0  0  0  0
    0.2522   14.0841    5.7613 C   0  0  1  0  0  0  0  0  0  0  0  0
    1.3015   13.0232    6.1223 C   0  0  2  0  0  0  0  0  0  0  0  0
    2.4735   13.6381    5.5874 O   0  0  0  0  0  0  0  0  0  0  0  0
    1.0601   11.6001    5.5132 C   0  0  0  0  0  0  0  0  0  0  0  0
   -0.2712   11.1773    5.9107 O   0  0  0  0  0  0  0  0  0  0  0  0
   -0.6182   15.1184    7.8335 C   0  0  2  0  0  0  0  0  0  0  0  0
    0.2462   15.2077    6.7340 O   0  0  0  0  0  0  0  0  0  0  0  0
   -0.2879   13.8452    8.7278 C   0  0  1  0  0  0  0  0  0  0  0  0
   -4.8309   16.0409    6.7811 N   0  0  0  0  0  0  0  0  0  0  0  0
   -1.3532   13.8311    9.9450 C   0  0  1  0  0  0  0  0  0  0  0  0
   -1.2098   15.1308   10.7116 O   0  0  0  0  0  0  0  0  0  0  0  0
   -2.8575   13.6857    9.3599 C   0  0  2  0  0  0  0  0  0  0  0  0
   -2.9717   12.4341    8.6410 O   0  0  0  0  0  0  0  0  0  0  0  0
   -3.1453   14.9873    8.4203 C   0  0  1  0  0  0  0  0  0  0  0  0
   -2.0960   15.0697    7.3460 O   0  0  0  0  0  0  0  0  0  0  0  0
   -4.5731   14.9505    7.7712 C   0  0  0  0  0  0  0  0  0  0  0  0
   -0.3349   12.6021    7.8892 N   0  0  0  0  0  0  0  0  0  0  0  0
  1  2  1  6  0  0  0
  1  3  1  0  0  0  0
  1 10  1  0  0  0  0
  3  4  1  6  0  0  0
  3  5  1  0  0  0  0
  5  6  1  1  0  0  0
  5  7  1  0  0  0  0
  7  8  1  6  0  0  0
  7  9  1  0  0  0  0
  9 10  1  0  0  0  0
  9 11  1  1  0  0  0
 11 12  1  0  0  0  0
 13 14  1  1  0  0  0
 13 15  1  0  0  0  0
 13 21  1  0  0  0  0
 16 15  1  0  0  0  0
 16 17  1  1  0  0  0
 18  2  1  6  0  0  0
 18 16  1  0  0  0  0
 19 18  1  0  0  0  0
 19 20  1  1  0  0  0
 21 19  1  0  0  0  0
 21 22  1  6  0  0  0
 23 20  1  6  0  0  0
 23 24  1  0  0  0  0
 23 28  1  0  0  0  0
 24 25  1  1  0  0  0
 24 26  1  0  0  0  0
 26 27  1  0  0  0  0
 26 32  1  1  0  0  0
 27 28  1  0  0  0  0
 27 29  1  6  0  0  0
 29 30  1  0  0  0  0
 31 32  1  6  0  0  0
 31 40  1  0  0  0  0
 33 31  1  0  0  0  0
 33 42  1  6  0  0  0
 35 33  1  0  0  0  0
 35 36  1  6  0  0  0
 37 35  1  0  0  0  0
 37 38  1  6  0  0  0
 37 39  1  0  0  0  0
 39 40  1  0  0  0  0
 39 41  1  6  0  0  0
 41 34  1  0  0  0  0
M  END
>  <CHROM.1>
-120.04457497,55.24154114,-167.87670687,-142.01163913,-33.55091485,151.81155418
-55.30816409,60.26430731,-173.49788662,1.87696004,14.12215589,4.09013677
-0.35065122,0.67062340,0.64668931

>  <Name>
2et4_lig

>  <RI>
0

>  <Rbt.Current_Directory>
/home/itssahil/PROJECTS/Mol_Feturizer/New_Systems/rnas/2et4

>  <Rbt.Executable>
rbdock ($Id: //depot/dev/client3/rdock/2013.1/src/exe/rbdock.cxx#4 $)

>  <Rbt.Library>
libRbt.so (2013.1, Build901 2013/11/27)

>  <Rbt.Parameter_File>
/export/apps/rDock/src/rDock_2013.1_src/data/scripts/dock_solv.prm

>  <Rbt.Receptor>
prm/blind_docking_20.prm

>  <SCORE>
44.0903

>  <SCORE.INTER>
-2.1218

>  <SCORE.INTER.CONST>
1

>  <SCORE.INTER.POLAR>
-1.12092

>  <SCORE.INTER.ROT>
9

>  <SCORE.INTER.SOLV>
27.2672

>  <SCORE.INTER.VDW>
-16.3672

>  <SCORE.INTER.norm>
-0.0505189

>  <SCORE.INTRA>
30.9183

>  <SCORE.INTRA.DIHEDRAL>
-2.09596

>  <SCORE.INTRA.DIHEDRAL.0>
21.6909

>  <SCORE.INTRA.POLAR>
0

>  <SCORE.INTRA.POLAR.0>
0

>  <SCORE.INTRA.REPUL>
0.0245238

>  <SCORE.INTRA.REPUL.0>
0

>  <SCORE.INTRA.SOLV>
6.56604

>  <SCORE.INTRA.SOLV.lig_0>
-116.606

>  <SCORE.INTRA.VDW>
28.5607

>  <SCORE.INTRA.VDW.0>
-6.01229

>  <SCORE.INTRA.norm>
0.736151

>  <SCORE.RESTR>
15.2938

>  <SCORE.RESTR.CAVITY>
15.2938

>  <SCORE.RESTR.norm>
0.364138

>  <SCORE.SYSTEM>
0

>  <SCORE.SYSTEM.CONST>
0

>  <SCORE.SYSTEM.DIHEDRAL>
0

>  <SCORE.SYSTEM.SOLV>
0

>  <SCORE.SYSTEM.norm>
0

>  <SCORE.heavy>
42

>  <SCORE.norm>
1.04977

>  <RMSD>
14.157

$$$$
2et4_lig
 OpenBabel11021811423D
libRbt.so/2013.1/901 2013/11/27
 42 45  0  0  0  0  0  0  0  0999 V2000
    5.5556   13.7395    1.9776 C   0  0  2  0  0  0  0  0  0  0  0  0
    4.3244   14.4590    1.8853 O   0  0  0  0  0  0  0  0  0  0  0  0
    6.6514   14.7588    2.3814 C   0  0  2  0  0  0  0  0  0  0  0  0
    6.3234   15.4200    3.6187 N   0  0  0  0  0  0  0  0  0  0  0  0
    6.8440   15.7883    1.2306 C   0  0  1  0  0  0  0  0  0  0  0  0
    7.8407   16.6935    1.5894 O   0  0  0  0  0  0  0  0  0  0  0  0
    7.1990   15.0017   -0.0752 C   0  0  2  0  0  0  0  0  0  0  0  0
    7.3760   15.8993   -1.1506 O   0  0  0  0  0  0  0  0  0  0  0  0
    6.0740   13.9838   -0.4334 C   0  0  2  0  0  0  0  0  0  0  0  0
    5.8974   13.0982    0.6763 O   0  0  0  0  0  0  0  0  0  0  0  0
    6.4143   13.1494   -1.7115 C   0  0  0  0  0  0  0  0  0  0  0  0
    5.3421   12.3003   -2.0993 N   0  0  0  0  0  0  0  0  0  0  0  0
    0.1740   13.7459    0.9260 C   0  0  2  0  0  0  0  0  0  0  0  0
   -1.1382   13.0896    0.8682 N   0  0  0  0  0  0  0  0  0  0  0  0
    1.2937   12.7792    0.2596 C   0  0  0  0  0  0  0  0  0  0  0  0
    2.7086   13.4856    0.3376 C   0  0  2  0  0  0  0  0  0  0  0  0
    3.7628   12.6297   -0.2348 N   0  0  0  0  0  0  0  0  0  0  0  0
    3.0483   13.8064    1.8324 C   0  0  2  0  0  0  0  0  0  0  0  0
    1.9460   14.7150    2.4705 C   0  0  2  0  0  0  0  0  0  0  0  0
    2.3436   14.9389    3.8456 O   0  0  0  0  0  0  0  0  0  0  0  0
    0.5584   14.0009    2.3925 C   0  0  1  0  0  0  0  0  0  0  0  0
   -0.3998   14.8343    2.9520 O   0  0  0  0  0  0  0  0  0  0  0  0
    2.0568   14.1233    4.8890 C   0  0  1  0  0  0  0  0  0  0  0  0
    0.5471   14.1800    5.2401 C   0  0  2  0  0  0  0  0  0  0  0  0
    0.2189   15.2478    6.0810 O   0  0  0  0  0  0  0  0  0  0  0  0
    0.3594   12.7637    5.7517 C   0  0  1  0  0  0  0  0  0  0  0  0
    1.2360   11.8574    4.8761 C   0  0  2  0  0  0  0  0  0  0  0  0
    2.3548   12.7186    4.6655 O   0  0  0  0  0  0  0  0  0  0  0  0
    0.5921   11.3971    3.5240 C   0  0  0  0  0  0  0  0  0  0  0  0
   -0.6794   10.7704    3.8393 O   0  0  0  0  0  0  0  0  0  0  0  0
   -0.0558   13.3276    8.1247 C   0  0  2  0  0  0  0  0  0  0  0  0
    0.7905   12.7413    7.1738 O   0  0  0  0  0  0  0  0  0  0  0  0
   -0.5907   12.2508    9.1659 C   0  0  1  0  0  0  0  0  0  0  0  0
   -4.4586   16.0294    8.2423 N   0  0  0  0  0  0  0  0  0  0  0  0
   -1.5672   13.0292   10.1941 C   0  0  1  0  0  0  0  0  0  0  0  0
   -0.7679   14.1318   10.8597 O   0  0  0  0  0  0  0  0  0  0  0  0
   -2.8283   13.6544    9.3909 C   0  0  2  0  0  0  0  0  0  0  0  0
   -3.5801   12.5825    8.7729 O   0  0  0  0  0  0  0  0  0  0  0  0
   -2.2387   14.7234    8.3095 C   0  0  1  0  0  0  0  0  0  0  0  0
   -1.2479   14.0326    7.4134 O   0  0  0  0  0  0  0  0  0  0  0  0
   -3.3699   15.3841    7.4462 C   0  0  0  0  0  0  0  0  0  0  0  0
   -1.2730   11.1290    8.4402 N   0  0  0  0  0  0  0  0  0  0  0  0
  1  2  1  6  0  0  0
  1  3  1  0  0  0  0
  1 10  1  0  0  0  0
  3  4  1  1  0  0  0
  3  5  1  0  0  0  0
  5  6  1  1  0  0  0
  5  7  1  0  0  0  0
  7  8  1  6  0  0  0
  7  9  1  0  0  0  0
  9 10  1  0  0  0  0
  9 11  1  6  0  0  0
 11 12  1  0  0  0  0
 13 14  1  1  0  0  0
 13 15  1  0  0  0  0
 13 21  1  0  0  0  0
 16 15  1  0  0  0  0
 16 17  1  1  0  0  0
 18  2  1  6  0  0  0
 18 16  1  0  0  0  0
 19 18  1  0  0  0  0
 19 20  1  1  0  0  0
 21 19  1  0  0  0  0
 21 22  1  6  0  0  0
 23 20  1  6  0  0  0
 23 24  1  0  0  0  0
 23 28  1  0  0  0  0
 24 25  1  1  0  0  0
 24 26  1  0  0  0  0
 26 27  1  0  0  0  0
 26 32  1  1  0  0  0
 27 28  1  0  0  0  0
 27 29  1  6  0  0  0
 29 30  1  0  0  0  0
 31 32  1  6  0  0  0
 31 40  1  0  0  0  0
 33 31  1  0  0  0  0
 33 42  1  6  0  0  0
 35 33  1  0  0  0  0
 35 36  1  6  0  0  0
 37 35  1  0  0  0  0
 37 38  1  6  0  0  0
 37 39  1  0  0  0  0
 39 40  1  0  0  0  0
 39 41  1  6  0  0  0
 41 34  1  0  0  0  0
M  END
>  <CHROM.1>
-165.46933282,-175.19794313,-87.97904938,-86.28026370,-70.46904011,74.32886845
-54.66028581,116.61593477,54.35085166,1.79862665,13.77947728,3.96845852,-0.75186018
0.35547648,1.30658439

>  <Name>
2et4_lig

>  <RI>
0

>  <Rbt.Current_Directory>
/home/itssahil/PROJECTS/Mol_Feturizer/New_Systems/rnas/2et4

>  <Rbt.Executable>
rbdock ($Id: //depot/dev/client3/rdock/2013.1/src/exe/rbdock.cxx#4 $)

>  <Rbt.Library>
libRbt.so (2013.1, Build901 2013/11/27)

>  <Rbt.Parameter_File>
/export/apps/rDock/src/rDock_2013.1_src/data/scripts/dock_solv.prm

>  <Rbt.Receptor>
prm/blind_docking_20.prm

>  <SCORE>
37.2045

>  <SCORE.INTER>
7.02086

>  <SCORE.INTER.CONST>
1

>  <SCORE.INTER.POLAR>
-1.07703

>  <SCORE.INTER.ROT>
9

>  <SCORE.INTER.SOLV>
23.9823

>  <SCORE.INTER.VDW>
-9.32342

>  <SCORE.INTER.norm>
0.167163

>  <SCORE.INTRA>
9.75735

>  <SCORE.INTRA.DIHEDRAL>
-5.53569

>  <SCORE.INTRA.DIHEDRAL.0>
21.6909

>  <SCORE.INTRA.POLAR>
0

>  <SCORE.INTRA.POLAR.0>
0

>  <SCORE.INTRA.REPUL>
0

>  <SCORE.INTRA.REPUL.0>
0

>  <SCORE.INTRA.SOLV>
5.71556

>  <SCORE.INTRA.SOLV.lig_0>
-116.606

>  <SCORE.INTRA.VDW>
9.66742

>  <SCORE.INTRA.VDW.0>
-6.01229

>  <SCORE.INTRA.norm>
0.232318

>  <SCORE.RESTR>
20.4263

>  <SCORE.RESTR.CAVITY>
20.4263

>  <SCORE.RESTR.norm>
0.486339

>  <SCORE.SYSTEM>
0

>  <SCORE.SYSTEM.CONST>
0

>  <SCORE.SYSTEM.DIHEDRAL>
0

>  <SCORE.SYSTEM.SOLV>
0

>  <SCORE.SYSTEM.norm>
0

>  <SCORE.heavy>
42

>  <SCORE.norm>
0.885821

>  <RMSD>
14.221

$$$$
2et4_lig
 OpenBabel11021811423D
libRbt.so/2013.1/901 2013/11/27
 42 45  0  0  0  0  0  0  0  0999 V2000
    4.6981   14.0982    2.5228 C   0  0  2  0  0  0  0  0  0  0  0  0
    3.3430   14.3231    2.1284 O   0  0  0  0  0  0  0  0  0  0  0  0
    5.3932   15.4825    2.5798 C   0  0  2  0  0  0  0  0  0  0  0  0
    4.7133   16.3747    3.4839 N   0  0  0  0  0  0  0  0  0  0  0  0
    5.4601   16.0827    1.1458 C   0  0  1  0  0  0  0  0  0  0  0  0
    6.0998   17.3196    1.1976 O   0  0  0  0  0  0  0  0  0  0  0  0
    6.2108   15.0647    0.2238 C   0  0  2  0  0  0  0  0  0  0  0  0
    6.2885   15.5673   -1.0933 O   0  0  0  0  0  0  0  0  0  0  0  0
    5.4808   13.6875    0.2077 C   0  0  2  0  0  0  0  0  0  0  0  0
    5.3950   13.2069    1.5525 O   0  0  0  0  0  0  0  0  0  0  0  0
    6.2267   12.6313   -0.6719 C   0  0  0  0  0  0  0  0  0  0  0  0
    6.3849   13.0676   -2.0157 N   0  0  0  0  0  0  0  0  0  0  0  0
   -0.4497   12.2710    1.8857 C   0  0  2  0  0  0  0  0  0  0  0  0
   -1.5449   11.3480    2.2088 N   0  0  0  0  0  0  0  0  0  0  0  0
    0.9021   11.4251    1.5867 C   0  0  0  0  0  0  0  0  0  0  0  0
    2.0830   12.4258    1.2531 C   0  0  2  0  0  0  0  0  0  0  0  0
    3.3400   11.6998    0.9993 N   0  0  0  0  0  0  0  0  0  0  0  0
    2.2816   13.4142    2.4515 C   0  0  2  0  0  0  0  0  0  0  0  0
    0.9625   14.2019    2.7473 C   0  0  2  0  0  0  0  0  0  0  0  0
    1.2459   15.0699    3.8721 O   0  0  0  0  0  0  0  0  0  0  0  0
   -0.1899   13.2012    3.0820 C   0  0  1  0  0  0  0  0  0  0  0  0
   -1.3479   13.9259    3.3254 O   0  0  0  0  0  0  0  0  0  0  0  0
    1.3436   14.6744    5.1645 C   0  0  1  0  0  0  0  0  0  0  0  0
   -0.0521   14.3322    5.7481 C   0  0  2  0  0  0  0  0  0  0  0  0
   -0.7394   15.4541    6.2212 O   0  0  0  0  0  0  0  0  0  0  0  0
    0.3513   13.2531    6.7359 C   0  0  1  0  0  0  0  0  0  0  0  0
    1.4779   12.4468    6.0744 C   0  0  2  0  0  0  0  0  0  0  0  0
    2.1597   13.4917    5.3808 O   0  0  0  0  0  0  0  0  0  0  0  0
    1.0132   11.3088    5.1031 C   0  0  0  0  0  0  0  0  0  0  0  0
   -0.0368   10.5648    5.7762 O   0  0  0  0  0  0  0  0  0  0  0  0
   -0.1016   14.0636    9.0292 C   0  0  2  0  0  0  0  0  0  0  0  0
    0.8125   13.9315    7.9752 O   0  0  0  0  0  0  0  0  0  0  0  0
   -0.3674   12.6676    9.7435 C   0  0  1  0  0  0  0  0  0  0  0  0
   -4.9646   15.6504    9.7549 N   0  0  0  0  0  0  0  0  0  0  0  0
   -1.4455   12.9341   10.9197 C   0  0  1  0  0  0  0  0  0  0  0  0
   -0.8658   13.9676   11.8648 O   0  0  0  0  0  0  0  0  0  0  0  0
   -2.8356   13.4709   10.2825 C   0  0  2  0  0  0  0  0  0  0  0  0
   -3.3734   12.4639    9.3921 O   0  0  0  0  0  0  0  0  0  0  0  0
   -2.5160   14.8813    9.5285 C   0  0  1  0  0  0  0  0  0  0  0  0
   -1.4372   14.6662    8.5029 O   0  0  0  0  0  0  0  0  0  0  0  0
   -3.7884   15.4940    8.8451 C   0  0  0  0  0  0  0  0  0  0  0  0
   -0.8309   11.6557    8.7375 N   0  0  0  0  0  0  0  0  0  0  0  0
  1  2  1  6  0  0  0
  1  3  1  0  0  0  0
  1 10  1  0  0  0  0
  3  4  1  1  0  0  0
  3  5  1  0  0  0  0
  5  6  1  1  0  0  0
  5  7  1  0  0  0  0
  7  8  1  6  0  0  0
  7  9  1  0  0  0  0
  9 10  1  0  0  0  0
  9 11  1  6  0  0  0
 11 12  1  0  0  0  0
 13 14  1  1  0  0  0
 13 15  1  0  0  0  0
 13 21  1  0  0  0  0
 16 15  1  0  0  0  0
 16 17  1  1  0  0  0
 18  2  1  6  0  0  0
 18 16  1  0  0  0  0
 19 18  1  0  0  0  0
 19 20  1  1  0  0  0
 21 19  1  0  0  0  0
 21 22  1  6  0  0  0
 23 20  1  6  0  0  0
 23 24  1  0  0  0  0
 23 28  1  0  0  0  0
 24 25  1  1  0  0  0
 24 26  1  0  0  0  0
 26 27  1  0  0  0  0
 26 32  1  1  0  0  0
 27 28  1  0  0  0  0
 27 29  1  6  0  0  0
 29 30  1  0  0  0  0
 31 32  1  6  0  0  0
 31 40  1  0  0  0  0
 33 31  1  0  0  0  0
 33 42  1  6  0  0  0
 35 33  1  0  0  0  0
 35 36  1  1  0  0  0
 37 35  1  0  0  0  0
 37 38  1  6  0  0  0
 37 39  1  0  0  0  0
 39 40  1  0  0  0  0
 39 41  1  6  0  0  0
 41 34  1  0  0  0  0
M  END
>  <CHROM.1>
-155.22770327,-57.80084436,-94.21885382,-75.79382607,-72.88819438,97.39189958
-46.72863037,72.44657296,53.37392988,1.34829885,13.75933529,4.66745235,-0.68004063
0.62921544,0.99720724

>  <Name>
2et4_lig

>  <RI>
0

>  <Rbt.Current_Directory>
/home/itssahil/PROJECTS/Mol_Feturizer/New_Systems/rnas/2et4

>  <Rbt.Executable>
rbdock ($Id: //depot/dev/client3/rdock/2013.1/src/exe/rbdock.cxx#4 $)

>  <Rbt.Library>
libRbt.so (2013.1, Build901 2013/11/27)

>  <Rbt.Parameter_File>
/export/apps/rDock/src/rDock_2013.1_src/data/scripts/dock_solv.prm

>  <Rbt.Receptor>
prm/blind_docking_20.prm

>  <SCORE>
33.0982

>  <SCORE.INTER>
12.75

>  <SCORE.INTER.CONST>
1

>  <SCORE.INTER.POLAR>
-1.82498

>  <SCORE.INTER.ROT>
9

>  <SCORE.INTER.SOLV>
27.7104

>  <SCORE.INTER.VDW>
-4.25356

>  <SCORE.INTER.norm>
0.303571

>  <SCORE.INTRA>
1.68146

>  <SCORE.INTRA.DIHEDRAL>
-6.16988

>  <SCORE.INTRA.DIHEDRAL.0>
21.6909

>  <SCORE.INTRA.POLAR>
0

>  <SCORE.INTRA.POLAR.0>
0

>  <SCORE.INTRA.REPUL>
0

>  <SCORE.INTRA.REPUL.0>
0

>  <SCORE.INTRA.SOLV>
5.53663

>  <SCORE.INTRA.SOLV.lig_0>
-116.606

>  <SCORE.INTRA.VDW>
1.99808

>  <SCORE.INTRA.VDW.0>
-6.01229

>  <SCORE.INTRA.norm>
0.0400347

>  <SCORE.RESTR>
18.6668

>  <SCORE.RESTR.CAVITY>
18.6668

>  <SCORE.RESTR.norm>
0.444446

>  <SCORE.SYSTEM>
0

>  <SCORE.SYSTEM.CONST>
0

>  <SCORE.SYSTEM.DIHEDRAL>
0

>  <SCORE.SYSTEM.SOLV>
0

>  <SCORE.SYSTEM.norm>
0

>  <SCORE.heavy>
42

>  <SCORE.norm>
0.788052

>  <RMSD>
14.393

$$$$
2et4_lig
 OpenBabel11021811423D
libRbt.so/2013.1/901 2013/11/27
 42 45  0  0  0  0  0  0  0  0999 V2000
    0.8135   13.9474    7.4331 C   0  0  2  0  0  0  0  0  0  0  0  0
    1.0364   12.5634    7.1557 O   0  0  0  0  0  0  0  0  0  0  0  0
   -0.1020   14.0216    8.6816 C   0  0  2  0  0  0  0  0  0  0  0  0
    0.4858   13.3381    9.8054 N   0  0  0  0  0  0  0  0  0  0  0  0
   -1.4965   13.4266    8.3317 C   0  0  1  0  0  0  0  0  0  0  0  0
   -2.3225   13.5093    9.4509 O   0  0  0  0  0  0  0  0  0  0  0  0
   -2.0727   14.2164    7.1093 C   0  0  2  0  0  0  0  0  0  0  0  0
   -3.3386   13.7033    6.7518 O   0  0  0  0  0  0  0  0  0  0  0  0
   -1.1133   14.1209    5.8845 C   0  0  2  0  0  0  0  0  0  0  0  0
    0.1671   14.6262    6.2743 O   0  0  0  0  0  0  0  0  0  0  0  0
   -1.6376   14.9339    4.6558 C   0  0  0  0  0  0  0  0  0  0  0  0
   -0.8832   14.6745    3.4791 N   0  0  0  0  0  0  0  0  0  0  0  0
    0.8370    9.9530    3.7205 C   0  0  2  0  0  0  0  0  0  0  0  0
    0.3177    9.2849    2.5206 N   0  0  0  0  0  0  0  0  0  0  0  0
   -0.1384    9.6422    4.9792 C   0  0  0  0  0  0  0  0  0  0  0  0
    0.4184   10.3767    6.2668 C   0  0  2  0  0  0  0  0  0  0  0  0
   -0.4532   10.1423    7.4317 N   0  0  0  0  0  0  0  0  0  0  0  0
    0.5167   11.9145    5.9870 C   0  0  2  0  0  0  0  0  0  0  0  0
    1.4366   12.1976    4.7535 C   0  0  2  0  0  0  0  0  0  0  0  0
    1.4488   13.6348    4.5715 O   0  0  0  0  0  0  0  0  0  0  0  0
    0.8696   11.4728    3.4907 C   0  0  1  0  0  0  0  0  0  0  0  0
    1.7117   11.7298    2.4181 O   0  0  0  0  0  0  0  0  0  0  0  0
    2.5340   14.3755    4.2401 C   0  0  1  0  0  0  0  0  0  0  0  0
    3.1162   13.9280    2.8739 C   0  0  2  0  0  0  0  0  0  0  0  0
    3.9851   12.8375    2.9782 O   0  0  0  0  0  0  0  0  0  0  0  0
    3.6680   15.2575    2.3935 C   0  0  1  0  0  0  0  0  0  0  0  0
    2.6771   16.3381    2.8487 C   0  0  2  0  0  0  0  0  0  0  0  0
    2.2838   15.8012    4.1115 O   0  0  0  0  0  0  0  0  0  0  0  0
    1.4481   16.5680    1.9046 C   0  0  0  0  0  0  0  0  0  0  0  0
    1.9548   16.6637    0.5470 O   0  0  0  0  0  0  0  0  0  0  0  0
    6.1350   15.2658    2.2046 C   0  0  2  0  0  0  0  0  0  0  0  0
    5.0054   15.4377    3.0161 O   0  0  0  0  0  0  0  0  0  0  0  0
    6.5383   16.6224    1.4788 C   0  0  1  0  0  0  0  0  0  0  0  0
    7.6434   12.3038   -1.7523 N   0  0  0  0  0  0  0  0  0  0  0  0
    7.8302   16.3027    0.5594 C   0  0  1  0  0  0  0  0  0  0  0  0
    8.9308   15.7776    1.4596 O   0  0  0  0  0  0  0  0  0  0  0  0
    7.4479   15.1996   -0.5646 C   0  0  2  0  0  0  0  0  0  0  0  0
    6.4029   15.7276   -1.4163 O   0  0  0  0  0  0  0  0  0  0  0  0
    7.0047   13.8382    0.2164 C   0  0  1  0  0  0  0  0  0  0  0  0
    5.8705   14.1472    1.1545 O   0  0  0  0  0  0  0  0  0  0  0  0
    6.5848   12.6938   -0.7711 C   0  0  0  0  0  0  0  0  0  0  0  0
    5.3737   17.1518    0.6951 N   0  0  0  0  0  0  0  0  0  0  0  0
  1  2  1  6  0  0  0
  1  3  1  0  0  0  0
  1 10  1  0  0  0  0
  3  4  1  1  0  0  0
  3  5  1  0  0  0  0
  5  6  1  1  0  0  0
  5  7  1  0  0  0  0
  7  8  1  6  0  0  0
  7  9  1  0  0  0  0
  9 10  1  0  0  0  0
  9 11  1  6  0  0  0
 11 12  1  0  0  0  0
 13 14  1  6  0  0  0
 13 15  1  0  0  0  0
 13 21  1  0  0  0  0
 16 15  1  0  0  0  0
 16 17  1  1  0  0  0
 18  2  1  1  0  0  0
 18 16  1  0  0  0  0
 19 18  1  0  0  0  0
 19 20  1  6  0  0  0
 21 19  1  0  0  0  0
 21 22  1  6  0  0  0
 23 20  1  6  0  0  0
 23 24  1  0  0  0  0
 23 28  1  0  0  0  0
 24 25  1  1  0  0  0
 24 26  1  0  0  0  0
 26 27  1  0  0  0  0
 26 32  1  1  0  0  0
 27 28  1  0  0  0  0
 27 29  1  6  0  0  0
 29 30  1  0  0  0  0
 31 32  1  6  0  0  0
 31 40  1  0  0  0  0
 33 31  1  0  0  0  0
 33 42  1  6  0  0  0
 35 33  1  0  0  0  0
 35 36  1  1  0  0  0
 37 35  1  0  0  0  0
 37 38  1  1  0  0  0
 37 39  1  0  0  0  0
 39 40  1  0  0  0  0
 39 41  1  6  0  0  0
 41 34  1  0  0  0  0
M  END
>  <CHROM.1>
112.27052544,-170.47253046,-156.86568709,139.96466697,60.01585664,105.71537866
-47.20066254,87.91995903,57.99266493,2.36010828,13.82321551,3.78093509,3.05039592
-0.75894521,-2.95138024

>  <Name>
2et4_lig

>  <RI>
0

>  <Rbt.Current_Directory>
/home/itssahil/PROJECTS/Mol_Feturizer/New_Systems/rnas/2et4

>  <Rbt.Executable>
rbdock ($Id: //depot/dev/client3/rdock/2013.1/src/exe/rbdock.cxx#4 $)

>  <Rbt.Library>
libRbt.so (2013.1, Build901 2013/11/27)

>  <Rbt.Parameter_File>
/export/apps/rDock/src/rDock_2013.1_src/data/scripts/dock_solv.prm

>  <Rbt.Receptor>
prm/blind_docking_20.prm

>  <SCORE>
31.344

>  <SCORE.INTER>
4.28434

>  <SCORE.INTER.CONST>
1

>  <SCORE.INTER.POLAR>
-0.13524

>  <SCORE.INTER.ROT>
9

>  <SCORE.INTER.SOLV>
26.368

>  <SCORE.INTER.VDW>
-15.0823

>  <SCORE.INTER.norm>
0.102008

>  <SCORE.INTRA>
8.47284

>  <SCORE.INTRA.DIHEDRAL>
3.35971

>  <SCORE.INTRA.DIHEDRAL.0>
21.6909

>  <SCORE.INTRA.POLAR>
0

>  <SCORE.INTRA.POLAR.0>
0

>  <SCORE.INTRA.REPUL>
0.091388

>  <SCORE.INTRA.REPUL.0>
0

>  <SCORE.INTRA.SOLV>
5.82029

>  <SCORE.INTRA.SOLV.lig_0>
-116.606

>  <SCORE.INTRA.VDW>
3.4259

>  <SCORE.INTRA.VDW.0>
-6.01229

>  <SCORE.INTRA.norm>
0.201734

>  <SCORE.RESTR>
18.5868

>  <SCORE.RESTR.CAVITY>
18.5868

>  <SCORE.RESTR.norm>
0.442544

>  <SCORE.SYSTEM>
0

>  <SCORE.SYSTEM.CONST>
0

>  <SCORE.SYSTEM.DIHEDRAL>
0

>  <SCORE.SYSTEM.SOLV>
0

>  <SCORE.SYSTEM.norm>
0

>  <SCORE.heavy>
42

>  <SCORE.norm>
0.746286

>  <RMSD>
15.734

$$$$
2et4_lig
 OpenBabel11021811423D
libRbt.so/2013.1/901 2013/11/27
 42 45  0  0  0  0  0  0  0  0999 V2000
    0.5353   14.2227    7.8325 C   0  0  2  0  0  0  0  0  0  0  0  0
    0.5782   12.7947    7.8027 O   0  0  0  0  0  0  0  0  0  0  0  0
   -0.7486   14.6254    8.6021 C   0  0  2  0  0  0  0  0  0  0  0  0
   -0.7651   14.0612    9.9277 N   0  0  0  0  0  0  0  0  0  0  0  0
   -1.9968   14.1779    7.7878 C   0  0  1  0  0  0  0  0  0  0  0  0
   -3.1493   14.5554    8.4740 O   0  0  0  0  0  0  0  0  0  0  0  0
   -1.9126   14.8281    6.3665 C   0  0  2  0  0  0  0  0  0  0  0  0
   -3.0256   14.4418    5.5884 O   0  0  0  0  0  0  0  0  0  0  0  0
   -0.6018   14.4026    5.6381 C   0  0  2  0  0  0  0  0  0  0  0  0
    0.5108   14.7846    6.4522 O   0  0  0  0  0  0  0  0  0  0  0  0
   -0.4638   15.0674    4.2293 C   0  0  0  0  0  0  0  0  0  0  0  0
   -1.3620   14.5064    3.2809 N   0  0  0  0  0  0  0  0  0  0  0  0
   -0.6164    9.4374    5.3620 C   0  0  2  0  0  0  0  0  0  0  0  0
   -1.3684    8.6329    4.3909 N   0  0  0  0  0  0  0  0  0  0  0  0
   -1.6062    9.9085    6.5582 C   0  0  0  0  0  0  0  0  0  0  0  0
   -0.7935   10.7875    7.5946 C   0  0  2  0  0  0  0  0  0  0  0  0
   -1.6617   11.2596    8.6878 N   0  0  0  0  0  0  0  0  0  0  0  0
   -0.1666   12.0174    6.8550 C   0  0  2  0  0  0  0  0  0  0  0  0
    0.7622   11.5491    5.6862 C   0  0  2  0  0  0  0  0  0  0  0  0
    1.2755   12.7519    5.0626 O   0  0  0  0  0  0  0  0  0  0  0  0
   -0.0560   10.6903    4.6692 C   0  0  1  0  0  0  0  0  0  0  0  0
    0.7949   10.2783    3.6533 O   0  0  0  0  0  0  0  0  0  0  0  0
    2.3644   12.8165    4.2586 C   0  0  1  0  0  0  0  0  0  0  0  0
    1.9967   13.4035    2.8709 C   0  0  2  0  0  0  0  0  0  0  0  0
    1.4924   12.4457    1.9858 O   0  0  0  0  0  0  0  0  0  0  0  0
    3.3096   14.0869    2.5362 C   0  0  1  0  0  0  0  0  0  0  0  0
    3.8538   14.6664    3.8495 C   0  0  2  0  0  0  0  0  0  0  0  0
    3.4460   13.6467    4.7614 O   0  0  0  0  0  0  0  0  0  0  0  0
    3.2879   16.0703    4.2538 C   0  0  0  0  0  0  0  0  0  0  0  0
    2.9996   16.7923    3.0272 O   0  0  0  0  0  0  0  0  0  0  0  0
    5.5291   13.4395    1.6550 C   0  0  2  0  0  0  0  0  0  0  0  0
    4.2182   13.0563    1.9695 O   0  0  0  0  0  0  0  0  0  0  0  0
    5.7756   14.9775    1.9767 C   0  0  1  0  0  0  0  0  0  0  0  0
    6.3028   13.7505   -2.7282 N   0  0  0  0  0  0  0  0  0  0  0  0
    7.3018   15.3113    1.5571 C   0  0  1  0  0  0  0  0  0  0  0  0
    8.2181   14.3996    2.3486 O   0  0  0  0  0  0  0  0  0  0  0  0
    7.5024   15.0687   -0.0326 C   0  0  2  0  0  0  0  0  0  0  0  0
    6.6247   15.9563   -0.7660 O   0  0  0  0  0  0  0  0  0  0  0  0
    7.2052   13.4927   -0.3287 C   0  0  1  0  0  0  0  0  0  0  0  0
    5.8241   13.1454    0.1549 O   0  0  0  0  0  0  0  0  0  0  0  0
    7.3445   13.1348   -1.8498 C   0  0  0  0  0  0  0  0  0  0  0  0
    4.7677   15.8216    1.2538 N   0  0  0  0  0  0  0  0  0  0  0  0
  1  2  1  6  0  0  0
  1  3  1  0  0  0  0
  1 10  1  0  0  0  0
  3  4  1  1  0  0  0
  3  5  1  0  0  0  0
  5  6  1  1  0  0  0
  5  7  1  0  0  0  0
  7  8  1  6  0  0  0
  7  9  1  0  0  0  0
  9 10  1  0  0  0  0
  9 11  1  6  0  0  0
 11 12  1  0  0  0  0
 13 14  1  6  0  0  0
 13 15  1  0  0  0  0
 13 21  1  0  0  0  0
 16 15  1  0  0  0  0
 16 17  1  1  0  0  0
 18  2  1  1  0  0  0
 18 16  1  0  0  0  0
 19 18  1  0  0  0  0
 19 20  1  6  0  0  0
 21 19  1  0  0  0  0
 21 22  1  6  0  0  0
 23 20  1  1  0  0  0
 23 24  1  0  0  0  0
 23 28  1  0  0  0  0
 24 25  1  6  0  0  0
 24 26  1  0  0  0  0
 26 27  1  0  0  0  0
 26 32  1  1  0  0  0
 27 28  1  0  0  0  0
 27 29  1  1  0  0  0
 29 30  1  0  0  0  0
 31 32  1  6  0  0  0
 31 40  1  0  0  0  0
 33 31  1  0  0  0  0
 33 42  1  6  0  0  0
 35 33  1  0  0  0  0
 35 36  1  1  0  0  0
 37 35  1  0  0  0  0
 37 38  1  6  0  0  0
 37 39  1  0  0  0  0
 39 40  1  0  0  0  0
 39 41  1  6  0  0  0
 41 34  1  0  0  0  0
M  END
>  <CHROM.1>
81.38803825,-72.69421656,-137.68086683,161.64332566,122.39624254,-176.33342735
-31.48914715,-0.48826247,-67.54226981,1.99957373,13.47518025,4.10405939,-3.00645554
-0.73449190,-2.70935103

>  <Name>
2et4_lig

>  <RI>
0

>  <Rbt.Current_Directory>
/home/itssahil/PROJECTS/Mol_Feturizer/New_Systems/rnas/2et4

>  <Rbt.Executable>
rbdock ($Id: //depot/dev/client3/rdock/2013.1/src/exe/rbdock.cxx#4 $)

>  <Rbt.Library>
libRbt.so (2013.1, Build901 2013/11/27)

>  <Rbt.Parameter_File>
/export/apps/rDock/src/rDock_2013.1_src/data/scripts/dock_solv.prm

>  <Rbt.Receptor>
prm/blind_docking_20.prm

>  <SCORE>
39.5551

>  <SCORE.INTER>
4.86112

>  <SCORE.INTER.CONST>
1

>  <SCORE.INTER.POLAR>
-1.23607

>  <SCORE.INTER.ROT>
9

>  <SCORE.INTER.SOLV>
21.1518

>  <SCORE.INTER.VDW>
-9.28959

>  <SCORE.INTER.norm>
0.115741

>  <SCORE.INTRA>
15.5134

>  <SCORE.INTRA.DIHEDRAL>
5.26519

>  <SCORE.INTRA.DIHEDRAL.0>
21.6909

>  <SCORE.INTRA.POLAR>
0

>  <SCORE.INTRA.POLAR.0>
0

>  <SCORE.INTRA.REPUL>
0

>  <SCORE.INTRA.REPUL.0>
0

>  <SCORE.INTRA.SOLV>
9.22646

>  <SCORE.INTRA.SOLV.lig_0>
-116.606

>  <SCORE.INTRA.VDW>
8.26763

>  <SCORE.INTRA.VDW.0>
-6.01229

>  <SCORE.INTRA.norm>
0.369368

>  <SCORE.RESTR>
19.1806

>  <SCORE.RESTR.CAVITY>
19.1806

>  <SCORE.RESTR.norm>
0.45668

>  <SCORE.SYSTEM>
0

>  <SCORE.SYSTEM.CONST>
0

>  <SCORE.SYSTEM.DIHEDRAL>
0

>  <SCORE.SYSTEM.SOLV>
0

>  <SCORE.SYSTEM.norm>
0

>  <SCORE.heavy>
42

>  <SCORE.norm>
0.941789

>  <RMSD>
15.807

$$$$
2et4_lig
 OpenBabel11021811423D
libRbt.so/2013.1/901 2013/11/27
 42 45  0  0  0  0  0  0  0  0999 V2000
    0.9298   14.3582    6.8340 C   0  0  2  0  0  0  0  0  0  0  0  0
    1.3097   13.0373    6.4429 O   0  0  0  0  0  0  0  0  0  0  0  0
    0.1674   14.2355    8.1780 C   0  0  2  0  0  0  0  0  0  0  0  0
    0.9743   13.5907    9.1826 N   0  0  0  0  0  0  0  0  0  0  0  0
   -1.1616   13.4604    7.9454 C   0  0  1  0  0  0  0  0  0  0  0  0
   -1.8525   13.3656    9.1518 O   0  0  0  0  0  0  0  0  0  0  0  0
   -1.9835   14.2167    6.8488 C   0  0  2  0  0  0  0  0  0  0  0  0
   -3.1985   13.5418    6.5999 O   0  0  0  0  0  0  0  0  0  0  0  0
   -1.1723   14.3237    5.5221 C   0  0  2  0  0  0  0  0  0  0  0  0
    0.0619   14.9914    5.8009 O   0  0  0  0  0  0  0  0  0  0  0  0
   -1.9472   15.1109    4.4151 C   0  0  0  0  0  0  0  0  0  0  0  0
   -1.2231   15.1715    3.1932 N   0  0  0  0  0  0  0  0  0  0  0  0
    0.7928   10.3245    3.1221 C   0  0  2  0  0  0  0  0  0  0  0  0
    0.1568    9.6044    2.0118 N   0  0  0  0  0  0  0  0  0  0  0  0
   -0.0082   10.0152    4.4987 C   0  0  0  0  0  0  0  0  0  0  0  0
    0.6731   10.8056    5.6897 C   0  0  2  0  0  0  0  0  0  0  0  0
   -0.0395   10.5735    6.9586 N   0  0  0  0  0  0  0  0  0  0  0  0
    0.6765   12.3372    5.3632 C   0  0  2  0  0  0  0  0  0  0  0  0
    1.4266   12.6176    4.0192 C   0  0  2  0  0  0  0  0  0  0  0  0
    1.3604   14.0487    3.8027 O   0  0  0  0  0  0  0  0  0  0  0  0
    0.7379   11.8374    2.8537 C   0  0  1  0  0  0  0  0  0  0  0  0
    1.4316   12.0935    1.6795 O   0  0  0  0  0  0  0  0  0  0  0  0
    2.2302   14.7712    3.0559 C   0  0  1  0  0  0  0  0  0  0  0  0
    3.6578   14.7194    3.6597 C   0  0  2  0  0  0  0  0  0  0  0  0
    3.8600   15.6620    4.6724 O   0  0  0  0  0  0  0  0  0  0  0  0
    4.4700   14.8341    2.3830 C   0  0  1  0  0  0  0  0  0  0  0  0
    3.7178   14.0382    1.3072 C   0  0  2  0  0  0  0  0  0  0  0  0
    2.3700   14.3252    1.6799 O   0  0  0  0  0  0  0  0  0  0  0  0
    4.0011   12.4974    1.2855 C   0  0  0  0  0  0  0  0  0  0  0  0
    5.3383   12.3090    0.7512 O   0  0  0  0  0  0  0  0  0  0  0  0
    5.7130   16.7219    1.3767 C   0  0  2  0  0  0  0  0  0  0  0  0
    4.5610   16.2772    2.0393 O   0  0  0  0  0  0  0  0  0  0  0  0
    5.4650   16.8569   -0.1886 C   0  0  1  0  0  0  0  0  0  0  0  0
    9.5822   14.0397    0.3221 N   0  0  0  0  0  0  0  0  0  0  0  0
    6.8565   17.3515   -0.8486 C   0  0  1  0  0  0  0  0  0  0  0  0
    7.2399   18.6700   -0.2068 O   0  0  0  0  0  0  0  0  0  0  0  0
    8.0122   16.2443   -0.5937 C   0  0  2  0  0  0  0  0  0  0  0  0
    7.6276   14.9985   -1.2233 O   0  0  0  0  0  0  0  0  0  0  0  0
    8.2112   16.1068    1.0192 C   0  0  1  0  0  0  0  0  0  0  0  0
    6.8964   15.7497    1.6562 O   0  0  0  0  0  0  0  0  0  0  0  0
    9.2960   15.0383    1.3975 C   0  0  0  0  0  0  0  0  0  0  0  0
    4.9795   15.5515   -0.7463 N   0  0  0  0  0  0  0  0  0  0  0  0
  1  2  1  6  0  0  0
  1  3  1  0  0  0  0
  1 10  1  0  0  0  0
  3  4  1  1  0  0  0
  3  5  1  0  0  0  0
  5  6  1  1  0  0  0
  5  7  1  0  0  0  0
  7  8  1  6  0  0  0
  7  9  1  0  0  0  0
  9 10  1  0  0  0  0
  9 11  1  6  0  0  0
 11 12  1  0  0  0  0
 13 14  1  6  0  0  0
 13 15  1  0  0  0  0
 13 21  1  0  0  0  0
 16 15  1  0  0  0  0
 16 17  1  1  0  0  0
 18  2  1  1  0  0  0
 18 16  1  0  0  0  0
 19 18  1  0  0  0  0
 19 20  1  6  0  0  0
 21 19  1  0  0  0  0
 21 22  1  6  0  0  0
 23 20  1  1  0  0  0
 23 24  1  0  0  0  0
 23 28  1  0  0  0  0
 24 25  1  1  0  0  0
 24 26  1  0  0  0  0
 26 27  1  0  0  0  0
 26 32  1  6  0  0  0
 27 28  1  0  0  0  0
 27 29  1  1  0  0  0
 29 30  1  0  0  0  0
 31 32  1  1  0  0  0
 31 40  1  0  0  0  0
 33 31  1  0  0  0  0
 33 42  1  6  0  0  0
 35 33  1  0  0  0  0
 35 36  1  1  0  0  0
 37 35  1  0  0  0  0
 37 38  1  1  0  0  0
 37 39  1  0  0  0  0
 39 40  1  0  0  0  0
 39 41  1  6  0  0  0
 41 34  1  0  0  0  0
M  END
>  <CHROM.1>
107.19383993,-178.17582762,-147.58475156,155.74517144,-63.36938703,148.80771618
-72.76637257,99.09763705,-20.44388003,2.68124535,14.07366795,3.39315385,-3.04880666
-0.71219516,-2.57507347

>  <Name>
2et4_lig

>  <RI>
0

>  <Rbt.Current_Directory>
/home/itssahil/PROJECTS/Mol_Feturizer/New_Systems/rnas/2et4

>  <Rbt.Executable>
rbdock ($Id: //depot/dev/client3/rdock/2013.1/src/exe/rbdock.cxx#4 $)

>  <Rbt.Library>
libRbt.so (2013.1, Build901 2013/11/27)

>  <Rbt.Parameter_File>
/export/apps/rDock/src/rDock_2013.1_src/data/scripts/dock_solv.prm

>  <Rbt.Receptor>
prm/blind_docking_20.prm

>  <SCORE>
34.3901

>  <SCORE.INTER>
6.96624

>  <SCORE.INTER.CONST>
1

>  <SCORE.INTER.POLAR>
0

>  <SCORE.INTER.ROT>
9

>  <SCORE.INTER.SOLV>
29.7123

>  <SCORE.INTER.VDW>
-14.8599

>  <SCORE.INTER.norm>
0.165863

>  <SCORE.INTRA>
9.90449

>  <SCORE.INTRA.DIHEDRAL>
5.00628

>  <SCORE.INTRA.DIHEDRAL.0>
21.6909

>  <SCORE.INTRA.POLAR>
0

>  <SCORE.INTRA.POLAR.0>
0

>  <SCORE.INTRA.REPUL>
0.00241127

>  <SCORE.INTRA.REPUL.0>
0

>  <SCORE.INTRA.SOLV>
6.80634

>  <SCORE.INTRA.SOLV.lig_0>
-116.606

>  <SCORE.INTRA.VDW>
3.98612

>  <SCORE.INTRA.VDW.0>
-6.01229

>  <SCORE.INTRA.norm>
0.235821

>  <SCORE.RESTR>
17.5194

>  <SCORE.RESTR.CAVITY>
17.5194

>  <SCORE.RESTR.norm>
0.417128

>  <SCORE.SYSTEM>
0

>  <SCORE.SYSTEM.CONST>
0

>  <SCORE.SYSTEM.DIHEDRAL>
0

>  <SCORE.SYSTEM.SOLV>
0

>  <SCORE.SYSTEM.norm>
0

>  <SCORE.heavy>
42

>  <SCORE.norm>
0.818812

>  <RMSD>
15.855

$$$$
2et4_lig
 OpenBabel11021811423D
libRbt.so/2013.1/901 2013/11/27
 42 45  0  0  0  0  0  0  0  0999 V2000
    0.7037   13.9927    8.0850 C   0  0  2  0  0  0  0  0  0  0  0  0
    0.6348   12.5664    8.0308 O   0  0  0  0  0  0  0  0  0  0  0  0
   -0.4763   14.4740    8.9675 C   0  0  2  0  0  0  0  0  0  0  0  0
   -0.4241   13.8849   10.2812 N   0  0  0  0  0  0  0  0  0  0  0  0
   -1.8191   14.1383    8.2566 C   0  0  1  0  0  0  0  0  0  0  0  0
   -2.8776   14.5865    9.0443 O   0  0  0  0  0  0  0  0  0  0  0  0
   -1.8057   14.8101    6.8429 C   0  0  2  0  0  0  0  0  0  0  0  0
   -3.0065   14.5246    6.1574 O   0  0  0  0  0  0  0  0  0  0  0  0
   -0.5972   14.3031    5.9988 C   0  0  2  0  0  0  0  0  0  0  0  0
    0.6059   14.5837    6.7202 O   0  0  0  0  0  0  0  0  0  0  0  0
   -0.5281   14.9852    4.5933 C   0  0  0  0  0  0  0  0  0  0  0  0
   -1.5887   14.5699    3.7425 N   0  0  0  0  0  0  0  0  0  0  0  0
   -0.5075    9.3788    5.3495 C   0  0  2  0  0  0  0  0  0  0  0  0
   -1.2206    8.6507    4.2926 N   0  0  0  0  0  0  0  0  0  0  0  0
   -1.5569    9.8252    6.5035 C   0  0  0  0  0  0  0  0  0  0  0  0
   -0.7850   10.6223    7.6331 C   0  0  2  0  0  0  0  0  0  0  0  0
   -1.7065   11.0706    8.6922 N   0  0  0  0  0  0  0  0  0  0  0  0
   -0.0718   11.8640    6.9991 C   0  0  2  0  0  0  0  0  0  0  0  0
    0.9152   11.4212    5.8687 C   0  0  2  0  0  0  0  0  0  0  0  0
    1.5068   12.6342    5.3417 O   0  0  0  0  0  0  0  0  0  0  0  0
    0.1372   10.6435    4.7590 C   0  0  1  0  0  0  0  0  0  0  0  0
    1.0384   10.2521    3.7791 O   0  0  0  0  0  0  0  0  0  0  0  0
    2.1487   12.7430    4.1532 C   0  0  1  0  0  0  0  0  0  0  0  0
    1.2888   13.5255    3.1267 C   0  0  2  0  0  0  0  0  0  0  0  0
    0.3565   12.7207    2.4648 O   0  0  0  0  0  0  0  0  0  0  0  0
    2.3979   14.1733    2.3186 C   0  0  1  0  0  0  0  0  0  0  0  0
    3.5086   14.5455    3.3109 C   0  0  2  0  0  0  0  0  0  0  0  0
    3.4228   13.4395    4.2093 O   0  0  0  0  0  0  0  0  0  0  0  0
    3.3220   15.9137    4.0511 C   0  0  0  0  0  0  0  0  0  0  0  0
    2.9411   16.8987    3.0543 O   0  0  0  0  0  0  0  0  0  0  0  0
    3.9712   13.5094    0.5282 C   0  0  2  0  0  0  0  0  0  0  0  0
    2.8627   13.1770    1.3185 O   0  0  0  0  0  0  0  0  0  0  0  0
    5.2321   12.6109    0.8921 C   0  0  1  0  0  0  0  0  0  0  0  0
    6.8401   17.6672   -0.5620 N   0  0  0  0  0  0  0  0  0  0  0  0
    6.4488   13.0933   -0.0586 C   0  0  1  0  0  0  0  0  0  0  0  0
    6.0145   12.9256   -1.5011 O   0  0  0  0  0  0  0  0  0  0  0  0
    6.8045   14.6448    0.2455 C   0  0  2  0  0  0  0  0  0  0  0  0
    7.2249   14.7773    1.6246 O   0  0  0  0  0  0  0  0  0  0  0  0
    5.4788   15.5284   -0.1030 C   0  0  1  0  0  0  0  0  0  0  0  0
    4.3135   15.0185    0.6995 O   0  0  0  0  0  0  0  0  0  0  0  0
    5.6910   17.0577    0.1754 C   0  0  0  0  0  0  0  0  0  0  0  0
    5.5438   12.7311    2.3547 N   0  0  0  0  0  0  0  0  0  0  0  0
  1  2  1  6  0  0  0
  1  3  1  0  0  0  0
  1 10  1  0  0  0  0
  3  4  1  1  0  0  0
  3  5  1  0  0  0  0
  5  6  1  1  0  0  0
  5  7  1  0  0  0  0
  7  8  1  6  0  0  0
  7  9  1  0  0  0  0
  9 10  1  0  0  0  0
  9 11  1  6  0  0  0
 11 12  1  0  0  0  0
 13 14  1  6  0  0  0
 13 15  1  0  0  0  0
 13 21  1  0  0  0  0
 16 15  1  0  0  0  0
 16 17  1  1  0  0  0
 18  2  1  1  0  0  0
 18 16  1  0  0  0  0
 19 18  1  0  0  0  0
 19 20  1  6  0  0  0
 21 19  1  0  0  0  0
 21 22  1  6  0  0  0
 23 20  1  1  0  0  0
 23 24  1  0  0  0  0
 23 28  1  0  0  0  0
 24 25  1  6  0  0  0
 24 26  1  0  0  0  0
 26 27  1  0  0  0  0
 26 32  1  6  0  0  0
 27 28  1  0  0  0  0
 27 29  1  1  0  0  0
 29 30  1  0  0  0  0
 31 32  1  1  0  0  0
 31 40  1  0  0  0  0
 33 31  1  0  0  0  0
 33 42  1  1  0  0  0
 35 33  1  0  0  0  0
 35 36  1  6  0  0  0
 37 35  1  0  0  0  0
 37 38  1  1  0  0  0
 37 39  1  0  0  0  0
 39 40  1  0  0  0  0
 39 41  1  1  0  0  0
 41 34  1  0  0  0  0
M  END
>  <CHROM.1>
91.94938116,-69.33809879,-141.57275951,-162.53422397,107.52029979,-174.49675161
-46.01654100,111.55101907,57.21973965,1.73183187,13.46038844,4.22542619,-3.12092099
-0.82341146,-2.83041346

>  <Name>
2et4_lig

>  <RI>
0

>  <Rbt.Current_Directory>
/home/itssahil/PROJECTS/Mol_Feturizer/New_Systems/rnas/2et4

>  <Rbt.Executable>
rbdock ($Id: //depot/dev/client3/rdock/2013.1/src/exe/rbdock.cxx#4 $)

>  <Rbt.Library>
libRbt.so (2013.1, Build901 2013/11/27)

>  <Rbt.Parameter_File>
/export/apps/rDock/src/rDock_2013.1_src/data/scripts/dock_solv.prm

>  <Rbt.Receptor>
prm/blind_docking_20.prm

>  <SCORE>
34.4819

>  <SCORE.INTER>
5.96649

>  <SCORE.INTER.CONST>
1

>  <SCORE.INTER.POLAR>
-0.817723

>  <SCORE.INTER.ROT>
9

>  <SCORE.INTER.SOLV>
24.9315

>  <SCORE.INTER.VDW>
-11.2071

>  <SCORE.INTER.norm>
0.142059

>  <SCORE.INTRA>
10.6909

>  <SCORE.INTRA.DIHEDRAL>
3.35573

>  <SCORE.INTRA.DIHEDRAL.0>
21.6909

>  <SCORE.INTRA.POLAR>
0

>  <SCORE.INTRA.POLAR.0>
0

>  <SCORE.INTRA.REPUL>
0

>  <SCORE.INTRA.REPUL.0>
0

>  <SCORE.INTRA.SOLV>
7.84063

>  <SCORE.INTRA.SOLV.lig_0>
-116.606

>  <SCORE.INTRA.VDW>
5.09275

>  <SCORE.INTRA.VDW.0>
-6.01229

>  <SCORE.INTRA.norm>
0.254546

>  <SCORE.RESTR>
17.8245

>  <SCORE.RESTR.CAVITY>
17.8245

>  <SCORE.RESTR.norm>
0.424392

>  <SCORE.SYSTEM>
0

>  <SCORE.SYSTEM.CONST>
0

>  <SCORE.SYSTEM.DIHEDRAL>
0

>  <SCORE.SYSTEM.SOLV>
0

>  <SCORE.SYSTEM.norm>
0

>  <SCORE.heavy>
42

>  <SCORE.norm>
0.820998

>  <RMSD>
15.925

$$$$
2et4_lig
 OpenBabel11021811423D
libRbt.so/2013.1/901 2013/11/27
 42 45  0  0  0  0  0  0  0  0999 V2000
    0.6371   14.0561    8.0493 C   0  0  2  0  0  0  0  0  0  0  0  0
    0.5894   12.6283    8.0154 O   0  0  0  0  0  0  0  0  0  0  0  0
   -0.5466   14.5322    8.9295 C   0  0  2  0  0  0  0  0  0  0  0  0
   -0.4807   13.9626   10.2512 N   0  0  0  0  0  0  0  0  0  0  0  0
   -1.8869   14.1666    8.2287 C   0  0  1  0  0  0  0  0  0  0  0  0
   -2.9491   14.6100    9.0143 O   0  0  0  0  0  0  0  0  0  0  0  0
   -1.8888   14.8185    6.8058 C   0  0  2  0  0  0  0  0  0  0  0  0
   -3.0878   14.5055    6.1290 O   0  0  0  0  0  0  0  0  0  0  0  0
   -0.6761   14.3177    5.9640 C   0  0  2  0  0  0  0  0  0  0  0  0
    0.5254   14.6262    6.6767 O   0  0  0  0  0  0  0  0  0  0  0  0
   -0.6224   14.9807    4.5488 C   0  0  0  0  0  0  0  0  0  0  0  0
   -1.6392   14.4876    3.6862 N   0  0  0  0  0  0  0  0  0  0  0  0
   -0.4819    9.3878    5.3684 C   0  0  2  0  0  0  0  0  0  0  0  0
   -1.1762    8.6342    4.3169 N   0  0  0  0  0  0  0  0  0  0  0  0
   -1.5455    9.8303    6.5108 C   0  0  0  0  0  0  0  0  0  0  0  0
   -0.7941   10.6549    7.6345 C   0  0  2  0  0  0  0  0  0  0  0  0
   -1.7293   11.1002    8.6827 N   0  0  0  0  0  0  0  0  0  0  0  0
   -0.0990   11.9008    6.9888 C   0  0  2  0  0  0  0  0  0  0  0  0
    0.9020   11.4612    5.8695 C   0  0  2  0  0  0  0  0  0  0  0  0
    1.4754   12.6776    5.3305 O   0  0  0  0  0  0  0  0  0  0  0  0
    0.1440   10.6561    4.7655 C   0  0  1  0  0  0  0  0  0  0  0  0
    1.0575   10.2682    3.7956 O   0  0  0  0  0  0  0  0  0  0  0  0
    2.1347   12.7797    4.1510 C   0  0  1  0  0  0  0  0  0  0  0  0
    1.2984   13.5736    3.1137 C   0  0  2  0  0  0  0  0  0  0  0  0
    0.3655   12.7808    2.4383 O   0  0  0  0  0  0  0  0  0  0  0  0
    2.4262   14.2086    2.3214 C   0  0  1  0  0  0  0  0  0  0  0  0
    3.5277   14.5664    3.3292 C   0  0  2  0  0  0  0  0  0  0  0  0
    3.4163   13.4607    4.2251 O   0  0  0  0  0  0  0  0  0  0  0  0
    3.3476   15.9360    4.0683 C   0  0  0  0  0  0  0  0  0  0  0  0
    2.9299   16.9127    3.0780 O   0  0  0  0  0  0  0  0  0  0  0  0
    3.9897   13.5444    0.5226 C   0  0  2  0  0  0  0  0  0  0  0  0
    2.8924   13.2076    1.3267 O   0  0  0  0  0  0  0  0  0  0  0  0
    5.2572   12.6476    0.8676 C   0  0  1  0  0  0  0  0  0  0  0  0
    4.4856   17.9425   -0.0733 N   0  0  0  0  0  0  0  0  0  0  0  0
    6.4602   13.1349   -0.0978 C   0  0  1  0  0  0  0  0  0  0  0  0
    6.0072   12.9699   -1.5349 O   0  0  0  0  0  0  0  0  0  0  0  0
    6.8167   14.6865    0.2054 C   0  0  2  0  0  0  0  0  0  0  0  0
    7.2550   14.8164    1.5791 O   0  0  0  0  0  0  0  0  0  0  0  0
    5.4846   15.5682   -0.1233 C   0  0  1  0  0  0  0  0  0  0  0  0
    4.3311   15.0538    0.6933 O   0  0  0  0  0  0  0  0  0  0  0  0
    5.6973   17.0972    0.1561 C   0  0  0  0  0  0  0  0  0  0  0  0
    5.5880   12.7648    2.3262 N   0  0  0  0  0  0  0  0  0  0  0  0
  1  2  1  6  0  0  0
  1  3  1  0  0  0  0
  1 10  1  0  0  0  0
  3  4  1  1  0  0  0
  3  5  1  0  0  0  0
  5  6  1  1  0  0  0
  5  7  1  0  0  0  0
  7  8  1  6  0  0  0
  7  9  1  0  0  0  0
  9 10  1  0  0  0  0
  9 11  1  6  0  0  0
 11 12  1  0  0  0  0
 13 14  1  6  0  0  0
 13 15  1  0  0  0  0
 13 21  1  0  0  0  0
 16 15  1  0  0  0  0
 16 17  1  1  0  0  0
 18  2  1  1  0  0  0
 18 16  1  0  0  0  0
 19 18  1  0  0  0  0
 19 20  1  6  0  0  0
 21 19  1  0  0  0  0
 21 22  1  6  0  0  0
 23 20  1  1  0  0  0
 23 24  1  0  0  0  0
 23 28  1  0  0  0  0
 24 25  1  6  0  0  0
 24 26  1  0  0  0  0
 26 27  1  0  0  0  0
 26 32  1  6  0  0  0
 27 28  1  0  0  0  0
 27 29  1  1  0  0  0
 29 30  1  0  0  0  0
 31 32  1  1  0  0  0
 31 40  1  0  0  0  0
 33 31  1  0  0  0  0
 33 42  1  1  0  0  0
 35 33  1  0  0  0  0
 35 36  1  6  0  0  0
 37 35  1  0  0  0  0
 37 38  1  1  0  0  0
 37 39  1  0  0  0  0
 39 40  1  0  0  0  0
 39 41  1  1  0  0  0
 41 34  1  0  0  0  0
M  END
>  <CHROM.1>
92.60775150,-72.30690039,-141.80415461,-163.29086417,109.77862557,-176.46768103
-43.34023848,112.44338329,-177.47746657,1.66225764,13.49440475,4.22278766
3.09909357,-0.83055594,-2.92334919

>  <Name>
2et4_lig

>  <RI>
0

>  <Rbt.Current_Directory>
/home/itssahil/PROJECTS/Mol_Feturizer/New_Systems/rnas/2et4

>  <Rbt.Executable>
rbdock ($Id: //depot/dev/client3/rdock/2013.1/src/exe/rbdock.cxx#4 $)

>  <Rbt.Library>
libRbt.so (2013.1, Build901 2013/11/27)

>  <Rbt.Parameter_File>
/export/apps/rDock/src/rDock_2013.1_src/data/scripts/dock_solv.prm

>  <Rbt.Receptor>
prm/blind_docking_20.prm

>  <SCORE>
34.333

>  <SCORE.INTER>
5.6833

>  <SCORE.INTER.CONST>
1

>  <SCORE.INTER.POLAR>
-0.842285

>  <SCORE.INTER.ROT>
9

>  <SCORE.INTER.SOLV>
25.8526

>  <SCORE.INTER.VDW>
-11.621

>  <SCORE.INTER.norm>
0.135317

>  <SCORE.INTRA>
10.368

>  <SCORE.INTRA.DIHEDRAL>
4.01149

>  <SCORE.INTRA.DIHEDRAL.0>
21.6909

>  <SCORE.INTRA.POLAR>
0

>  <SCORE.INTRA.POLAR.0>
0

>  <SCORE.INTRA.REPUL>
0

>  <SCORE.INTRA.REPUL.0>
0

>  <SCORE.INTRA.SOLV>
7.69195

>  <SCORE.INTRA.SOLV.lig_0>
-116.606

>  <SCORE.INTRA.VDW>
4.51628

>  <SCORE.INTRA.VDW.0>
-6.01229

>  <SCORE.INTRA.norm>
0.246857

>  <SCORE.RESTR>
18.2817

>  <SCORE.RESTR.CAVITY>
18.2817

>  <SCORE.RESTR.norm>
0.43528

>  <SCORE.SYSTEM>
0

>  <SCORE.SYSTEM.CONST>
0

>  <SCORE.SYSTEM.DIHEDRAL>
0

>  <SCORE.SYSTEM.SOLV>
0

>  <SCORE.SYSTEM.norm>
0

>  <SCORE.heavy>
42

>  <SCORE.norm>
0.817453

>  <RMSD>
15.962

$$$$
2et4_lig
 OpenBabel11021811423D
libRbt.so/2013.1/901 2013/11/27
 42 45  0  0  0  0  0  0  0  0999 V2000
    0.6047   13.9999    7.8309 C   0  0  2  0  0  0  0  0  0  0  0  0
    0.7415   12.5867    7.6684 O   0  0  0  0  0  0  0  0  0  0  0  0
   -0.4012   14.2318    8.9871 C   0  0  2  0  0  0  0  0  0  0  0  0
    0.0381   13.5931   10.2016 N   0  0  0  0  0  0  0  0  0  0  0  0
   -1.8044   13.7138    8.5583 C   0  0  1  0  0  0  0  0  0  0  0  0
   -2.7102   13.9382    9.5932 O   0  0  0  0  0  0  0  0  0  0  0  0
   -2.2158   14.4501    7.2398 C   0  0  2  0  0  0  0  0  0  0  0  0
   -3.4843   14.0038    6.8091 O   0  0  0  0  0  0  0  0  0  0  0  0
   -1.1699   14.1956    6.1123 C   0  0  2  0  0  0  0  0  0  0  0  0
    0.1097   14.6355    6.5769 O   0  0  0  0  0  0  0  0  0  0  0  0
   -1.5275   14.9508    4.7905 C   0  0  0  0  0  0  0  0  0  0  0  0
   -0.4352   14.9878    3.8812 N   0  0  0  0  0  0  0  0  0  0  0  0
   -0.2892    9.3670    4.9803 C   0  0  2  0  0  0  0  0  0  0  0  0
   -0.9922    8.6077    3.9387 N   0  0  0  0  0  0  0  0  0  0  0  0
   -1.3217    9.7277    6.1787 C   0  0  0  0  0  0  0  0  0  0  0  0
   -0.5620   10.5587    7.2920 C   0  0  2  0  0  0  0  0  0  0  0  0
   -1.4706   10.9310    8.3909 N   0  0  0  0  0  0  0  0  0  0  0  0
    0.0443   11.8532    6.6521 C   0  0  2  0  0  0  0  0  0  0  0  0
    1.0151   11.4917    5.4797 C   0  0  2  0  0  0  0  0  0  0  0  0
    1.5060   12.7480    4.9507 O   0  0  0  0  0  0  0  0  0  0  0  0
    0.2488   10.6793    4.3869 C   0  0  1  0  0  0  0  0  0  0  0  0
    1.1364   10.3614    3.3687 O   0  0  0  0  0  0  0  0  0  0  0  0
    2.3124   12.8839    3.8702 C   0  0  1  0  0  0  0  0  0  0  0  0
    1.6213   13.7214    2.7627 C   0  0  2  0  0  0  0  0  0  0  0  0
    0.7787   12.9618    1.9453 O   0  0  0  0  0  0  0  0  0  0  0  0
    2.8453   14.3717    2.1451 C   0  0  1  0  0  0  0  0  0  0  0  0
    3.8097   14.6835    3.2982 C   0  0  2  0  0  0  0  0  0  0  0  0
    3.5775   13.5489    4.1326 O   0  0  0  0  0  0  0  0  0  0  0  0
    3.5436   16.0287    4.0560 C   0  0  0  0  0  0  0  0  0  0  0  0
    2.9490   16.9524    3.1061 O   0  0  0  0  0  0  0  0  0  0  0  0
    4.5156   13.8231    0.4043 C   0  0  2  0  0  0  0  0  0  0  0  0
    3.4302   13.4009    1.1838 O   0  0  0  0  0  0  0  0  0  0  0  0
    5.8464   13.0442    0.7944 C   0  0  1  0  0  0  0  0  0  0  0  0
    6.9970   18.2145   -0.7200 N   0  0  0  0  0  0  0  0  0  0  0  0
    7.0283   13.6238   -0.1457 C   0  0  1  0  0  0  0  0  0  0  0  0
    6.6308   13.4038   -1.5917 O   0  0  0  0  0  0  0  0  0  0  0  0
    7.2402   15.2039    0.1458 C   0  0  2  0  0  0  0  0  0  0  0  0
    7.6279   15.3870    1.5286 O   0  0  0  0  0  0  0  0  0  0  0  0
    5.8460   15.9622   -0.2297 C   0  0  1  0  0  0  0  0  0  0  0  0
    4.7197   15.3584    0.5633 O   0  0  0  0  0  0  0  0  0  0  0  0
    5.9173   17.5070    0.0344 C   0  0  0  0  0  0  0  0  0  0  0  0
    6.1258   13.2063    2.2595 N   0  0  0  0  0  0  0  0  0  0  0  0
  1  2  1  6  0  0  0
  1  3  1  0  0  0  0
  1 10  1  0  0  0  0
  3  4  1  1  0  0  0
  3  5  1  0  0  0  0
  5  6  1  1  0  0  0
  5  7  1  0  0  0  0
  7  8  1  6  0  0  0
  7  9  1  0  0  0  0
  9 10  1  0  0  0  0
  9 11  1  6  0  0  0
 11 12  1  0  0  0  0
 13 14  1  6  0  0  0
 13 15  1  0  0  0  0
 13 21  1  0  0  0  0
 16 15  1  0  0  0  0
 16 17  1  1  0  0  0
 18  2  1  1  0  0  0
 18 16  1  0  0  0  0
 19 18  1  0  0  0  0
 19 20  1  6  0  0  0
 21 19  1  0  0  0  0
 21 22  1  6  0  0  0
 23 20  1  1  0  0  0
 23 24  1  0  0  0  0
 23 28  1  0  0  0  0
 24 25  1  6  0  0  0
 24 26  1  0  0  0  0
 26 27  1  0  0  0  0
 26 32  1  6  0  0  0
 27 28  1  0  0  0  0
 27 29  1  1  0  0  0
 29 30  1  0  0  0  0
 31 32  1  1  0  0  0
 31 40  1  0  0  0  0
 33 31  1  0  0  0  0
 33 42  1  1  0  0  0
 35 33  1  0  0  0  0
 35 36  1  6  0  0  0
 37 35  1  0  0  0  0
 37 38  1  1  0  0  0
 37 39  1  0  0  0  0
 39 40  1  0  0  0  0
 39 41  1  1  0  0  0
 41 34  1  0  0  0  0
M  END
>  <CHROM.1>
99.33366544,165.81158130,-134.67133939,-175.79177381,119.12109058,174.88010609
-29.64897256,112.89033070,58.61368072,1.92164855,13.56520889,4.11243098,-3.13753606
-0.80678643,-2.79069701

>  <Name>
2et4_lig

>  <RI>
0

>  <Rbt.Current_Directory>
/home/itssahil/PROJECTS/Mol_Feturizer/New_Systems/rnas/2et4

>  <Rbt.Executable>
rbdock ($Id: //depot/dev/client3/rdock/2013.1/src/exe/rbdock.cxx#4 $)

>  <Rbt.Library>
libRbt.so (2013.1, Build901 2013/11/27)

>  <Rbt.Parameter_File>
/export/apps/rDock/src/rDock_2013.1_src/data/scripts/dock_solv.prm

>  <Rbt.Receptor>
prm/blind_docking_20.prm

>  <SCORE>
38.7255

>  <SCORE.INTER>
9.56665

>  <SCORE.INTER.CONST>
1

>  <SCORE.INTER.POLAR>
-0.519308

>  <SCORE.INTER.ROT>
9

>  <SCORE.INTER.SOLV>
26.2986

>  <SCORE.INTER.VDW>
-10.2574

>  <SCORE.INTER.norm>
0.227777

>  <SCORE.INTRA>
11.1802

>  <SCORE.INTRA.DIHEDRAL>
7.51623

>  <SCORE.INTRA.DIHEDRAL.0>
21.6909

>  <SCORE.INTRA.POLAR>
0

>  <SCORE.INTRA.POLAR.0>
0

>  <SCORE.INTRA.REPUL>
0.000679954

>  <SCORE.INTRA.REPUL.0>
0

>  <SCORE.INTRA.SOLV>
9.10345

>  <SCORE.INTRA.SOLV.lig_0>
-116.606

>  <SCORE.INTRA.VDW>
2.86696

>  <SCORE.INTRA.VDW.0>
-6.01229

>  <SCORE.INTRA.norm>
0.266195

>  <SCORE.RESTR>
17.9786

>  <SCORE.RESTR.CAVITY>
17.9786

>  <SCORE.RESTR.norm>
0.428063

>  <SCORE.SYSTEM>
0

>  <SCORE.SYSTEM.CONST>
0

>  <SCORE.SYSTEM.DIHEDRAL>
0

>  <SCORE.SYSTEM.SOLV>
0

>  <SCORE.SYSTEM.norm>
0

>  <SCORE.heavy>
42

>  <SCORE.norm>
0.922035

>  <RMSD>
15.963

$$$$
2et4_lig
 OpenBabel11021811423D
libRbt.so/2013.1/901 2013/11/27
 42 45  0  0  0  0  0  0  0  0999 V2000
    0.2287   14.6324    7.4598 C   0  0  2  0  0  0  0  0  0  0  0  0
    0.4165   13.2282    7.6473 O   0  0  0  0  0  0  0  0  0  0  0  0
   -0.9427   15.0636    8.3788 C   0  0  2  0  0  0  0  0  0  0  0  0
   -0.6764   14.7381    9.7568 N   0  0  0  0  0  0  0  0  0  0  0  0
   -2.2557   14.3881    7.8879 C   0  0  1  0  0  0  0  0  0  0  0  0
   -3.3098   14.7901    8.7058 O   0  0  0  0  0  0  0  0  0  0  0  0
   -2.4809   14.7867    6.3911 C   0  0  2  0  0  0  0  0  0  0  0  0
   -3.6618   14.1878    5.9008 O   0  0  0  0  0  0  0  0  0  0  0  0
   -1.2738   14.3422    5.5106 C   0  0  2  0  0  0  0  0  0  0  0  0
   -0.0867   14.9430    6.0365 O   0  0  0  0  0  0  0  0  0  0  0  0
   -1.4456   14.7613    4.0138 C   0  0  0  0  0  0  0  0  0  0  0  0
   -0.2851   14.4818    3.2417 N   0  0  0  0  0  0  0  0  0  0  0  0
   -0.0971    9.4874    5.5503 C   0  0  2  0  0  0  0  0  0  0  0  0
   -0.6560    8.4764    4.6442 N   0  0  0  0  0  0  0  0  0  0  0  0
   -1.2182    9.9166    6.6417 C   0  0  0  0  0  0  0  0  0  0  0  0
   -0.6148   11.0173    7.6070 C   0  0  2  0  0  0  0  0  0  0  0  0
   -1.6100   11.4563    8.6013 N   0  0  0  0  0  0  0  0  0  0  0  0
   -0.1410   12.2475    6.7616 C   0  0  2  0  0  0  0  0  0  0  0  0
    0.9179   11.8142    5.6944 C   0  0  2  0  0  0  0  0  0  0  0  0
    1.2770   13.0117    4.9623 O   0  0  0  0  0  0  0  0  0  0  0  0
    0.3049   10.7344    4.7459 C   0  0  1  0  0  0  0  0  0  0  0  0
    1.2690   10.3598    3.8209 O   0  0  0  0  0  0  0  0  0  0  0  0
    2.4036   13.1748    4.2271 C   0  0  1  0  0  0  0  0  0  0  0  0
    2.0919   13.1044    2.7094 C   0  0  2  0  0  0  0  0  0  0  0  0
    2.0497   11.7962    2.2178 O   0  0  0  0  0  0  0  0  0  0  0  0
    3.1659   14.0439    2.1931 C   0  0  1  0  0  0  0  0  0  0  0  0
    3.2958   15.1755    3.2224 C   0  0  2  0  0  0  0  0  0  0  0  0
    3.0859   14.4419    4.4289 O   0  0  0  0  0  0  0  0  0  0  0  0
    2.2700   16.3497    3.0681 C   0  0  0  0  0  0  0  0  0  0  0  0
    2.5743   17.0318    1.8227 O   0  0  0  0  0  0  0  0  0  0  0  0
    5.4533   13.7936    1.2839 C   0  0  2  0  0  0  0  0  0  0  0  0
    4.4235   13.2614    2.0716 O   0  0  0  0  0  0  0  0  0  0  0  0
    6.7120   14.1940    2.1699 C   0  0  1  0  0  0  0  0  0  0  0  0
    3.8292   16.6897   -1.5351 N   0  0  0  0  0  0  0  0  0  0  0  0
    7.8206   14.8123    1.1672 C   0  0  1  0  0  0  0  0  0  0  0  0
    8.1544   13.7607    0.1278 O   0  0  0  0  0  0  0  0  0  0  0  0
    7.2364   16.1444    0.4528 C   0  0  2  0  0  0  0  0  0  0  0  0
    6.9345   17.1356    1.4640 O   0  0  0  0  0  0  0  0  0  0  0  0
    5.9279   15.7013   -0.4140 C   0  0  1  0  0  0  0  0  0  0  0  0
    4.9331   15.0287    0.4916 O   0  0  0  0  0  0  0  0  0  0  0  0
    5.2530   16.9176   -1.1395 C   0  0  0  0  0  0  0  0  0  0  0  0
    6.2971   15.1486    3.2504 N   0  0  0  0  0  0  0  0  0  0  0  0
  1  2  1  6  0  0  0
  1  3  1  0  0  0  0
  1 10  1  0  0  0  0
  3  4  1  1  0  0  0
  3  5  1  0  0  0  0
  5  6  1  1  0  0  0
  5  7  1  0  0  0  0
  7  8  1  6  0  0  0
  7  9  1  0  0  0  0
  9 10  1  0  0  0  0
  9 11  1  6  0  0  0
 11 12  1  0  0  0  0
 13 14  1  6  0  0  0
 13 15  1  0  0  0  0
 13 21  1  0  0  0  0
 16 15  1  0  0  0  0
 16 17  1  1  0  0  0
 18  2  1  1  0  0  0
 18 16  1  0  0  0  0
 19 18  1  0  0  0  0
 19 20  1  6  0  0  0
 21 19  1  0  0  0  0
 21 22  1  6  0  0  0
 23 20  1  1  0  0  0
 23 24  1  0  0  0  0
 23 28  1  0  0  0  0
 24 25  1  6  0  0  0
 24 26  1  0  0  0  0
 26 27  1  0  0  0  0
 26 32  1  1  0  0  0
 27 28  1  0  0  0  0
 27 29  1  6  0  0  0
 29 30  1  0  0  0  0
 31 32  1  1  0  0  0
 31 40  1  0  0  0  0
 33 31  1  0  0  0  0
 33 42  1  1  0  0  0
 35 33  1  0  0  0  0
 35 36  1  6  0  0  0
 37 35  1  0  0  0  0
 37 38  1  1  0  0  0
 37 39  1  0  0  0  0
 39 40  1  0  0  0  0
 39 41  1  1  0  0  0
 41 34  1  0  0  0  0
M  END
>  <CHROM.1>
97.38830685,173.78542828,-142.15050293,160.16745915,105.19642367,162.90807791
-66.73600007,112.97718743,-159.50035760,1.85597573,13.84078010,4.10383548
2.86162522,-0.71101110,3.09319009

>  <Name>
2et4_lig

>  <RI>
0

>  <Rbt.Current_Directory>
/home/itssahil/PROJECTS/Mol_Feturizer/New_Systems/rnas/2et4

>  <Rbt.Executable>
rbdock ($Id: //depot/dev/client3/rdock/2013.1/src/exe/rbdock.cxx#4 $)

>  <Rbt.Library>
libRbt.so (2013.1, Build901 2013/11/27)

>  <Rbt.Parameter_File>
/export/apps/rDock/src/rDock_2013.1_src/data/scripts/dock_solv.prm

>  <Rbt.Receptor>
prm/blind_docking_20.prm

>  <SCORE>
34.6218

>  <SCORE.INTER>
5.12352

>  <SCORE.INTER.CONST>
1

>  <SCORE.INTER.POLAR>
-0.85942

>  <SCORE.INTER.ROT>
9

>  <SCORE.INTER.SOLV>
25.8276

>  <SCORE.INTER.VDW>
-11.9288

>  <SCORE.INTER.norm>
0.121989

>  <SCORE.INTRA>
11.4159

>  <SCORE.INTRA.DIHEDRAL>
6.33245

>  <SCORE.INTRA.DIHEDRAL.0>
21.6909

>  <SCORE.INTRA.POLAR>
0

>  <SCORE.INTRA.POLAR.0>
0

>  <SCORE.INTRA.REPUL>
0

>  <SCORE.INTRA.REPUL.0>
0

>  <SCORE.INTRA.SOLV>
9.52642

>  <SCORE.INTRA.SOLV.lig_0>
-116.606

>  <SCORE.INTRA.VDW>
3.48649

>  <SCORE.INTRA.VDW.0>
-6.01229

>  <SCORE.INTRA.norm>
0.271808

>  <SCORE.RESTR>
18.0824

>  <SCORE.RESTR.CAVITY>
18.0824

>  <SCORE.RESTR.norm>
0.430533

>  <SCORE.SYSTEM>
0

>  <SCORE.SYSTEM.CONST>
0

>  <SCORE.SYSTEM.DIHEDRAL>
0

>  <SCORE.SYSTEM.SOLV>
0

>  <SCORE.SYSTEM.norm>
0

>  <SCORE.heavy>
42

>  <SCORE.norm>
0.824329

>  <RMSD>
15.993

$$$$
2et4_lig
 OpenBabel11021811423D
libRbt.so/2013.1/901 2013/11/27
 42 45  0  0  0  0  0  0  0  0999 V2000
   -0.0889   13.7629    5.9453 C   0  0  2  0  0  0  0  0  0  0  0  0
   -0.0580   12.3442    5.7765 O   0  0  0  0  0  0  0  0  0  0  0  0
    0.8740   14.1055    7.1108 C   0  0  2  0  0  0  0  0  0  0  0  0
    2.2071   13.6262    6.8489 N   0  0  0  0  0  0  0  0  0  0  0  0
    0.3134   13.5061    8.4328 C   0  0  1  0  0  0  0  0  0  0  0  0
    1.1723   13.8293    9.4814 O   0  0  0  0  0  0  0  0  0  0  0  0
   -1.1298   14.0706    8.6526 C   0  0  2  0  0  0  0  0  0  0  0  0
   -1.6815   13.5455    9.8415 O   0  0  0  0  0  0  0  0  0  0  0  0
   -2.0559   13.7101    7.4516 C   0  0  2  0  0  0  0  0  0  0  0  0
   -1.4686   14.2331    6.2566 O   0  0  0  0  0  0  0  0  0  0  0  0
   -3.4969   14.2943    7.6178 C   0  0  0  0  0  0  0  0  0  0  0  0
   -3.4923   15.7119    7.7246 N   0  0  0  0  0  0  0  0  0  0  0  0
   -0.1594    9.3817    2.6352 C   0  0  2  0  0  0  0  0  0  0  0  0
   -0.5054    8.7178    1.3721 N   0  0  0  0  0  0  0  0  0  0  0  0
   -1.5058    9.6226    3.5079 C   0  0  0  0  0  0  0  0  0  0  0  0
   -1.1285   10.3515    4.8620 C   0  0  2  0  0  0  0  0  0  0  0  0
   -2.3280   10.6140    5.6769 N   0  0  0  0  0  0  0  0  0  0  0  0
   -0.4067   11.7038    4.5415 C   0  0  2  0  0  0  0  0  0  0  0  0
    0.8732   11.4593    3.6755 C   0  0  2  0  0  0  0  0  0  0  0  0
    1.4540   12.7625    3.4237 O   0  0  0  0  0  0  0  0  0  0  0  0
    0.4832   10.7470    2.3406 C   0  0  1  0  0  0  0  0  0  0  0  0
    1.6374   10.5309    1.6011 O   0  0  0  0  0  0  0  0  0  0  0  0
    2.6637   12.9871    2.8561 C   0  0  1  0  0  0  0  0  0  0  0  0
    2.5514   14.0075    1.6935 C   0  0  2  0  0  0  0  0  0  0  0  0
    2.1751   13.4199    0.4818 O   0  0  0  0  0  0  0  0  0  0  0  0
    3.9212   14.6521    1.7977 C   0  0  1  0  0  0  0  0  0  0  0  0
    4.2540   14.7443    3.2935 C   0  0  2  0  0  0  0  0  0  0  0  0
    3.6693   13.5268    3.7557 O   0  0  0  0  0  0  0  0  0  0  0  0
    3.6694   15.9918    4.0396 C   0  0  0  0  0  0  0  0  0  0  0  0
    2.2295   15.8177    4.1150 O   0  0  0  0  0  0  0  0  0  0  0  0
    6.0433   14.3721    0.5568 C   0  0  2  0  0  0  0  0  0  0  0  0
    4.8816   13.7808    1.0715 O   0  0  0  0  0  0  0  0  0  0  0  0
    7.2687   14.2078    1.5574 C   0  0  1  0  0  0  0  0  0  0  0  0
    5.9108   18.8127    0.6192 N   0  0  0  0  0  0  0  0  0  0  0  0
    8.5394   14.9411    0.8758 C   0  0  1  0  0  0  0  0  0  0  0  0
    8.7962   14.2871   -0.4672 O   0  0  0  0  0  0  0  0  0  0  0  0
    8.2272   16.5196    0.6828 C   0  0  2  0  0  0  0  0  0  0  0  0
    7.9950   17.1227    1.9784 O   0  0  0  0  0  0  0  0  0  0  0  0
    6.9447   16.6463   -0.3167 C   0  0  1  0  0  0  0  0  0  0  0  0
    5.7861   15.8781    0.2574 O   0  0  0  0  0  0  0  0  0  0  0  0
    6.5266   18.1380   -0.5645 C   0  0  0  0  0  0  0  0  0  0  0  0
    6.9138   14.7722    2.9014 N   0  0  0  0  0  0  0  0  0  0  0  0
  1  2  1  1  0  0  0
  1  3  1  0  0  0  0
  1 10  1  0  0  0  0
  3  4  1  6  0  0  0
  3  5  1  0  0  0  0
  5  6  1  1  0  0  0
  5  7  1  0  0  0  0
  7  8  1  1  0  0  0
  7  9  1  0  0  0  0
  9 10  1  0  0  0  0
  9 11  1  1  0  0  0
 11 12  1  0  0  0  0
 13 14  1  6  0  0  0
 13 15  1  0  0  0  0
 13 21  1  0  0  0  0
 16 15  1  0  0  0  0
 16 17  1  6  0  0  0
 18  2  1  1  0  0  0
 18 16  1  0  0  0  0
 19 18  1  0  0  0  0
 19 20  1  6  0  0  0
 21 19  1  0  0  0  0
 21 22  1  6  0  0  0
 23 20  1  1  0  0  0
 23 24  1  0  0  0  0
 23 28  1  0  0  0  0
 24 25  1  6  0  0  0
 24 26  1  0  0  0  0
 26 27  1  0  0  0  0
 26 32  1  6  0  0  0
 27 28  1  0  0  0  0
 27 29  1  1  0  0  0
 29 30  1  0  0  0  0
 31 32  1  1  0  0  0
 31 40  1  0  0  0  0
 33 31  1  0  0  0  0
 33 42  1  1  0  0  0
 35 33  1  0  0  0  0
 35 36  1  6  0  0  0
 37 35  1  0  0  0  0
 37 38  1  1  0  0  0
 37 39  1  0  0  0  0
 39 40  1  0  0  0  0
 39 41  1  1  0  0  0
 41 34  1  0  0  0  0
M  END
>  <CHROM.1>
-156.55956970,59.60292894,-144.58175478,171.08961600,129.63814647,154.62055220
69.57805990,95.62605532,-70.31437712,2.35926129,13.76107901,3.71419008,-2.92455807
-0.66098126,-2.33062672

>  <Name>
2et4_lig

>  <RI>
0

>  <Rbt.Current_Directory>
/home/itssahil/PROJECTS/Mol_Feturizer/New_Systems/rnas/2et4

>  <Rbt.Executable>
rbdock ($Id: //depot/dev/client3/rdock/2013.1/src/exe/rbdock.cxx#4 $)

>  <Rbt.Library>
libRbt.so (2013.1, Build901 2013/11/27)

>  <Rbt.Parameter_File>
/export/apps/rDock/src/rDock_2013.1_src/data/scripts/dock_solv.prm

>  <Rbt.Receptor>
prm/blind_docking_20.prm

>  <SCORE>
27.896

>  <SCORE.INTER>
3.04095

>  <SCORE.INTER.CONST>
1

>  <SCORE.INTER.POLAR>
-0.829029

>  <SCORE.INTER.ROT>
9

>  <SCORE.INTER.SOLV>
28.0298

>  <SCORE.INTER.VDW>
-14.1525

>  <SCORE.INTER.norm>
0.0724036

>  <SCORE.INTRA>
3.70581

>  <SCORE.INTRA.DIHEDRAL>
0.60708

>  <SCORE.INTRA.DIHEDRAL.0>
21.6909

>  <SCORE.INTRA.POLAR>
0

>  <SCORE.INTRA.POLAR.0>
0

>  <SCORE.INTRA.REPUL>
0.0563503

>  <SCORE.INTRA.REPUL.0>
0

>  <SCORE.INTRA.SOLV>
4.96576

>  <SCORE.INTRA.SOLV.lig_0>
-116.606

>  <SCORE.INTRA.VDW>
0.637643

>  <SCORE.INTRA.VDW.0>
-6.01229

>  <SCORE.INTRA.norm>
0.0882337

>  <SCORE.RESTR>
21.1492

>  <SCORE.RESTR.CAVITY>
21.1492

>  <SCORE.RESTR.norm>
0.503553

>  <SCORE.SYSTEM>
0

>  <SCORE.SYSTEM.CONST>
0

>  <SCORE.SYSTEM.DIHEDRAL>
0

>  <SCORE.SYSTEM.SOLV>
0

>  <SCORE.SYSTEM.norm>
0

>  <SCORE.heavy>
42

>  <SCORE.norm>
0.66419

>  <RMSD>
16.033

$$$$
2et4_lig
 OpenBabel11021811423D
libRbt.so/2013.1/901 2013/11/27
 42 45  0  0  0  0  0  0  0  0999 V2000
    0.2690   13.8742    7.1300 C   0  0  2  0  0  0  0  0  0  0  0  0
    0.2388   12.4474    7.0568 O   0  0  0  0  0  0  0  0  0  0  0  0
    0.3291   14.2535    8.6318 C   0  0  2  0  0  0  0  0  0  0  0  0
    1.4716   13.6598    9.2782 N   0  0  0  0  0  0  0  0  0  0  0  0
   -0.9946   13.8186    9.3244 C   0  0  1  0  0  0  0  0  0  0  0  0
   -0.9445   14.1753   10.6706 O   0  0  0  0  0  0  0  0  0  0  0  0
   -2.1867   14.5009    8.5739 C   0  0  2  0  0  0  0  0  0  0  0  0
   -3.4124   14.1269    9.1666 O   0  0  0  0  0  0  0  0  0  0  0  0
   -2.1983   14.0978    7.0681 C   0  0  2  0  0  0  0  0  0  0  0  0
   -0.9413   14.4667    6.4930 O   0  0  0  0  0  0  0  0  0  0  0  0
   -3.3531   14.7946    6.2767 C   0  0  0  0  0  0  0  0  0  0  0  0
   -4.6201   14.5960    6.8901 N   0  0  0  0  0  0  0  0  0  0  0  0
   -0.4520    9.3287    4.1496 C   0  0  2  0  0  0  0  0  0  0  0  0
   -1.0402    8.5976    3.0204 N   0  0  0  0  0  0  0  0  0  0  0  0
   -1.5902    9.5964    5.2744 C   0  0  0  0  0  0  0  0  0  0  0  0
   -0.9538   10.3975    6.4829 C   0  0  2  0  0  0  0  0  0  0  0  0
   -1.9610   10.6857    7.5193 N   0  0  0  0  0  0  0  0  0  0  0  0
   -0.3467   11.7410    5.9544 C   0  0  2  0  0  0  0  0  0  0  0  0
    0.7280   11.4692    4.8503 C   0  0  2  0  0  0  0  0  0  0  0  0
    1.2127   12.7653    4.4211 O   0  0  0  0  0  0  0  0  0  0  0  0
    0.0827   10.6854    3.6626 C   0  0  1  0  0  0  0  0  0  0  0  0
    1.0605   10.4469    2.7072 O   0  0  0  0  0  0  0  0  0  0  0  0
    2.4420   13.0137    3.9079 C   0  0  1  0  0  0  0  0  0  0  0  0
    2.3848   13.1368    2.3629 C   0  0  2  0  0  0  0  0  0  0  0  0
    2.4443   11.9012    1.7112 O   0  0  0  0  0  0  0  0  0  0  0  0
    3.5143   14.1281    2.1523 C   0  0  1  0  0  0  0  0  0  0  0  0
    3.4558   15.1202    3.3224 C   0  0  2  0  0  0  0  0  0  0  0  0
    3.0622   14.2416    4.3764 O   0  0  0  0  0  0  0  0  0  0  0  0
    2.4512   16.3100    3.1494 C   0  0  0  0  0  0  0  0  0  0  0  0
    2.8076   17.0051    1.9252 O   0  0  0  0  0  0  0  0  0  0  0  0
    5.8579   13.8759    1.4005 C   0  0  2  0  0  0  0  0  0  0  0  0
    4.7868   13.3604    2.1428 O   0  0  0  0  0  0  0  0  0  0  0  0
    7.0159   14.4116    2.3501 C   0  0  1  0  0  0  0  0  0  0  0  0
    5.0751   17.8652   -0.5189 N   0  0  0  0  0  0  0  0  0  0  0  0
    8.1806   14.9988    1.3934 C   0  0  1  0  0  0  0  0  0  0  0  0
    8.6489   13.8822    0.4817 O   0  0  0  0  0  0  0  0  0  0  0  0
    7.6046   16.2356    0.5187 C   0  0  2  0  0  0  0  0  0  0  0  0
    7.1732   17.2914    1.4104 O   0  0  0  0  0  0  0  0  0  0  0  0
    6.3973   15.6564   -0.4123 C   0  0  1  0  0  0  0  0  0  0  0  0
    5.3568   15.0128    0.4623 O   0  0  0  0  0  0  0  0  0  0  0  0
    5.7371   16.7724   -1.2955 C   0  0  0  0  0  0  0  0  0  0  0  0
    6.4674   15.4311    3.3044 N   0  0  0  0  0  0  0  0  0  0  0  0
  1  2  1  1  0  0  0
  1  3  1  0  0  0  0
  1 10  1  0  0  0  0
  3  4  1  1  0  0  0
  3  5  1  0  0  0  0
  5  6  1  1  0  0  0
  5  7  1  0  0  0  0
  7  8  1  1  0  0  0
  7  9  1  0  0  0  0
  9 10  1  0  0  0  0
  9 11  1  6  0  0  0
 11 12  1  0  0  0  0
 13 14  1  6  0  0  0
 13 15  1  0  0  0  0
 13 21  1  0  0  0  0
 16 15  1  0  0  0  0
 16 17  1  1  0  0  0
 18  2  1  1  0  0  0
 18 16  1  0  0  0  0
 19 18  1  0  0  0  0
 19 20  1  6  0  0  0
 21 19  1  0  0  0  0
 21 22  1  6  0  0  0
 23 20  1  1  0  0  0
 23 24  1  0  0  0  0
 23 28  1  0  0  0  0
 24 25  1  6  0  0  0
 24 26  1  0  0  0  0
 26 27  1  0  0  0  0
 26 32  1  1  0  0  0
 27 28  1  0  0  0  0
 27 29  1  6  0  0  0
 29 30  1  0  0  0  0
 31 32  1  1  0  0  0
 31 40  1  0  0  0  0
 33 31  1  0  0  0  0
 33 42  1  1  0  0  0
 35 33  1  0  0  0  0
 35 36  1  6  0  0  0
 37 35  1  0  0  0  0
 37 38  1  1  0  0  0
 37 39  1  0  0  0  0
 39 40  1  0  0  0  0
 39 41  1  1  0  0  0
 41 34  1  0  0  0  0
M  END
>  <CHROM.1>
153.81938511,-52.87059413,-147.71470040,152.67703914,101.06892850,151.66650734
-56.79686978,109.53558132,-62.73902165,1.94860752,13.69063856,4.24481576
-3.01802012,-0.72342437,-2.57678274

>  <Name>
2et4_lig

>  <RI>
0

>  <Rbt.Current_Directory>
/home/itssahil/PROJECTS/Mol_Feturizer/New_Systems/rnas/2et4

>  <Rbt.Executable>
rbdock ($Id: //depot/dev/client3/rdock/2013.1/src/exe/rbdock.cxx#4 $)

>  <Rbt.Library>
libRbt.so (2013.1, Build901 2013/11/27)

>  <Rbt.Parameter_File>
/export/apps/rDock/src/rDock_2013.1_src/data/scripts/dock_solv.prm

>  <Rbt.Receptor>
prm/blind_docking_20.prm

>  <SCORE>
30.8559

>  <SCORE.INTER>
3.92482

>  <SCORE.INTER.CONST>
1

>  <SCORE.INTER.POLAR>
-1.39954

>  <SCORE.INTER.ROT>
9

>  <SCORE.INTER.SOLV>
29.46

>  <SCORE.INTER.VDW>
-12.1383

>  <SCORE.INTER.norm>
0.0934481

>  <SCORE.INTRA>
7.53051

>  <SCORE.INTRA.DIHEDRAL>
4.18338

>  <SCORE.INTRA.DIHEDRAL.0>
21.6909

>  <SCORE.INTRA.POLAR>
0

>  <SCORE.INTRA.POLAR.0>
0

>  <SCORE.INTRA.REPUL>
0

>  <SCORE.INTRA.REPUL.0>
0

>  <SCORE.INTRA.SOLV>
3.08344

>  <SCORE.INTRA.SOLV.lig_0>
-116.606

>  <SCORE.INTRA.VDW>
3.8971

>  <SCORE.INTRA.VDW.0>
-6.01229

>  <SCORE.INTRA.norm>
0.179298

>  <SCORE.RESTR>
19.4006

>  <SCORE.RESTR.CAVITY>
19.4006

>  <SCORE.RESTR.norm>
0.461918

>  <SCORE.SYSTEM>
0

>  <SCORE.SYSTEM.CONST>
0

>  <SCORE.SYSTEM.DIHEDRAL>
0

>  <SCORE.SYSTEM.SOLV>
0

>  <SCORE.SYSTEM.norm>
0

>  <SCORE.heavy>
42

>  <SCORE.norm>
0.734664

>  <RMSD>
16.147

$$$$
2et4_lig
 OpenBabel11021811423D
libRbt.so/2013.1/901 2013/11/27
 42 45  0  0  0  0  0  0  0  0999 V2000
    0.2458   13.9334    7.1743 C   0  0  2  0  0  0  0  0  0  0  0  0
    0.1568   12.5108    7.0721 O   0  0  0  0  0  0  0  0  0  0  0  0
    0.3280   14.2790    8.6831 C   0  0  2  0  0  0  0  0  0  0  0  0
    1.4479   13.6258    9.3113 N   0  0  0  0  0  0  0  0  0  0  0  0
   -1.0095   13.8844    9.3736 C   0  0  1  0  0  0  0  0  0  0  0  0
   -0.9389   14.2109   10.7265 O   0  0  0  0  0  0  0  0  0  0  0  0
   -2.1758   14.6302    8.6433 C   0  0  2  0  0  0  0  0  0  0  0  0
   -3.4132   14.2945    9.2347 O   0  0  0  0  0  0  0  0  0  0  0  0
   -2.2105   14.2591    7.1297 C   0  0  2  0  0  0  0  0  0  0  0  0
   -0.9419   14.5879    6.5558 O   0  0  0  0  0  0  0  0  0  0  0  0
   -3.3392   15.0186    6.3587 C   0  0  0  0  0  0  0  0  0  0  0  0
   -4.6221   14.7962    6.9293 N   0  0  0  0  0  0  0  0  0  0  0  0
   -0.3893    9.4771    4.0467 C   0  0  2  0  0  0  0  0  0  0  0  0
   -0.9019    8.7910    2.8542 N   0  0  0  0  0  0  0  0  0  0  0  0
   -1.6119    9.7677    5.0728 C   0  0  0  0  0  0  0  0  0  0  0  0
   -1.0558   10.5204    6.3501 C   0  0  2  0  0  0  0  0  0  0  0  0
   -2.1395   10.8280    7.3002 N   0  0  0  0  0  0  0  0  0  0  0  0
   -0.3546   11.8488    5.9071 C   0  0  2  0  0  0  0  0  0  0  0  0
    0.8029   11.5562    4.8959 C   0  0  2  0  0  0  0  0  0  0  0  0
    1.3717   12.8402    4.5399 O   0  0  0  0  0  0  0  0  0  0  0  0
    0.2367   10.8208    3.6389 C   0  0  1  0  0  0  0  0  0  0  0  0
    1.2857   10.5624    2.7680 O   0  0  0  0  0  0  0  0  0  0  0  0
    2.0977   13.0957    3.4247 C   0  0  1  0  0  0  0  0  0  0  0  0
    1.4596   14.2412    2.5962 C   0  0  2  0  0  0  0  0  0  0  0  0
    0.4429   13.8011    1.7433 O   0  0  0  0  0  0  0  0  0  0  0  0
    2.7164   14.8355    1.9879 C   0  0  1  0  0  0  0  0  0  0  0  0
    3.8095   14.7530    3.0626 C   0  0  2  0  0  0  0  0  0  0  0  0
    3.4697   13.5070    3.6705 O   0  0  0  0  0  0  0  0  0  0  0  0
    3.8235   15.9245    4.1029 C   0  0  0  0  0  0  0  0  0  0  0  0
    2.7847   15.6505    5.0800 O   0  0  0  0  0  0  0  0  0  0  0  0
    4.3421   14.1709    0.2453 C   0  0  2  0  0  0  0  0  0  0  0  0
    3.0587   14.0262    0.7894 O   0  0  0  0  0  0  0  0  0  0  0  0
    5.2700   12.9326    0.6131 C   0  0  1  0  0  0  0  0  0  0  0  0
    8.2802   17.5081    0.4616 N   0  0  0  0  0  0  0  0  0  0  0  0
    6.7213   13.2157   -0.0429 C   0  0  1  0  0  0  0  0  0  0  0  0
    6.5384   13.3788   -1.5387 O   0  0  0  0  0  0  0  0  0  0  0  0
    7.3624   14.5601    0.5958 C   0  0  2  0  0  0  0  0  0  0  0  0
    7.5357   14.3763    2.0214 O   0  0  0  0  0  0  0  0  0  0  0  0
    6.3663   15.7988    0.2308 C   0  0  1  0  0  0  0  0  0  0  0  0
    4.9855   15.4976    0.7452 O   0  0  0  0  0  0  0  0  0  0  0  0
    6.8701   17.1629    0.8194 C   0  0  0  0  0  0  0  0  0  0  0  0
    5.3211   12.7530    2.1017 N   0  0  0  0  0  0  0  0  0  0  0  0
  1  2  1  1  0  0  0
  1  3  1  0  0  0  0
  1 10  1  0  0  0  0
  3  4  1  1  0  0  0
  3  5  1  0  0  0  0
  5  6  1  1  0  0  0
  5  7  1  0  0  0  0
  7  8  1  1  0  0  0
  7  9  1  0  0  0  0
  9 10  1  0  0  0  0
  9 11  1  6  0  0  0
 11 12  1  0  0  0  0
 13 14  1  6  0  0  0
 13 15  1  0  0  0  0
 13 21  1  0  0  0  0
 16 15  1  0  0  0  0
 16 17  1  1  0  0  0
 18  2  1  1  0  0  0
 18 16  1  0  0  0  0
 19 18  1  0  0  0  0
 19 20  1  6  0  0  0
 21 19  1  0  0  0  0
 21 22  1  6  0  0  0
 23 20  1  1  0  0  0
 23 24  1  0  0  0  0
 23 28  1  0  0  0  0
 24 25  1  6  0  0  0
 24 26  1  0  0  0  0
 26 27  1  0  0  0  0
 26 32  1  6  0  0  0
 27 28  1  0  0  0  0
 27 29  1  1  0  0  0
 29 30  1  0  0  0  0
 31 32  1  1  0  0  0
 31 40  1  0  0  0  0
 33 31  1  0  0  0  0
 33 42  1  1  0  0  0
 35 33  1  0  0  0  0
 35 36  1  6  0  0  0
 37 35  1  0  0  0  0
 37 38  1  1  0  0  0
 37 39  1  0  0  0  0
 39 40  1  0  0  0  0
 39 41  1  1  0  0  0
 41 34  1  0  0  0  0
M  END
>  <CHROM.1>
159.47695588,-56.29192964,-148.35117467,-158.83934004,123.19784401,-164.90078259
79.48244370,104.17534175,53.19279835,1.77217748,13.54777971,4.21867436,-2.80018526
-0.67902324,-2.40251327

>  <Name>
2et4_lig

>  <RI>
0

>  <Rbt.Current_Directory>
/home/itssahil/PROJECTS/Mol_Feturizer/New_Systems/rnas/2et4

>  <Rbt.Executable>
rbdock ($Id: //depot/dev/client3/rdock/2013.1/src/exe/rbdock.cxx#4 $)

>  <Rbt.Library>
libRbt.so (2013.1, Build901 2013/11/27)

>  <Rbt.Parameter_File>
/export/apps/rDock/src/rDock_2013.1_src/data/scripts/dock_solv.prm

>  <Rbt.Receptor>
prm/blind_docking_20.prm

>  <SCORE>
29.5951

>  <SCORE.INTER>
5.05098

>  <SCORE.INTER.CONST>
1

>  <SCORE.INTER.POLAR>
-0.920716

>  <SCORE.INTER.ROT>
9

>  <SCORE.INTER.SOLV>
30.1053

>  <SCORE.INTER.VDW>
-13.1987

>  <SCORE.INTER.norm>
0.120261

>  <SCORE.INTRA>
6.04318

>  <SCORE.INTRA.DIHEDRAL>
1.86305

>  <SCORE.INTRA.DIHEDRAL.0>
21.6909

>  <SCORE.INTRA.POLAR>
0

>  <SCORE.INTRA.POLAR.0>
0

>  <SCORE.INTRA.REPUL>
0

>  <SCORE.INTRA.REPUL.0>
0

>  <SCORE.INTRA.SOLV>
3.21507

>  <SCORE.INTRA.SOLV.lig_0>
-116.606

>  <SCORE.INTRA.VDW>
3.50412

>  <SCORE.INTRA.VDW.0>
-6.01229

>  <SCORE.INTRA.norm>
0.143885

>  <SCORE.RESTR>
18.501

>  <SCORE.RESTR.CAVITY>
18.501

>  <SCORE.RESTR.norm>
0.4405

>  <SCORE.SYSTEM>
0

>  <SCORE.SYSTEM.CONST>
0

>  <SCORE.SYSTEM.DIHEDRAL>
0

>  <SCORE.SYSTEM.SOLV>
0

>  <SCORE.SYSTEM.norm>
0

>  <SCORE.heavy>
42

>  <SCORE.norm>
0.704646

>  <RMSD>
16.182

$$$$
2et4_lig
 OpenBabel11021811423D
libRbt.so/2013.1/901 2013/11/27
 42 45  0  0  0  0  0  0  0  0999 V2000
    0.3144   13.9308    7.0691 C   0  0  2  0  0  0  0  0  0  0  0  0
    0.3194   12.5126    6.8927 O   0  0  0  0  0  0  0  0  0  0  0  0
    0.3714   14.2018    8.5942 C   0  0  2  0  0  0  0  0  0  0  0  0
    1.5309   13.5917    9.1932 N   0  0  0  0  0  0  0  0  0  0  0  0
   -0.9383   13.6848    9.2566 C   0  0  1  0  0  0  0  0  0  0  0  0
   -0.8914   13.9443   10.6249 O   0  0  0  0  0  0  0  0  0  0  0  0
   -2.1500   14.3895    8.5603 C   0  0  2  0  0  0  0  0  0  0  0  0
   -3.3636   13.9430    9.1272 O   0  0  0  0  0  0  0  0  0  0  0  0
   -2.1578   14.0963    7.0293 C   0  0  2  0  0  0  0  0  0  0  0  0
   -0.9128   14.5372    6.4795 O   0  0  0  0  0  0  0  0  0  0  0  0
   -3.3329   14.8194    6.2931 C   0  0  0  0  0  0  0  0  0  0  0  0
   -3.3737   16.2103    6.5844 N   0  0  0  0  0  0  0  0  0  0  0  0
   -0.3564    9.5524    3.8211 C   0  0  2  0  0  0  0  0  0  0  0  0
   -0.9273    8.8900    2.6416 N   0  0  0  0  0  0  0  0  0  0  0  0
   -1.5214    9.7950    4.9239 C   0  0  0  0  0  0  0  0  0  0  0  0
   -0.9031   10.5224    6.1872 C   0  0  2  0  0  0  0  0  0  0  0  0
   -1.9341   10.7863    7.2066 N   0  0  0  0  0  0  0  0  0  0  0  0
   -0.2490   11.8736    5.7414 C   0  0  2  0  0  0  0  0  0  0  0  0
    0.8518   11.6275    4.6572 C   0  0  2  0  0  0  0  0  0  0  0  0
    1.3795   12.9299    4.3046 O   0  0  0  0  0  0  0  0  0  0  0  0
    0.2245   10.9168    3.4151 C   0  0  1  0  0  0  0  0  0  0  0  0
    1.2247   10.6993    2.4782 O   0  0  0  0  0  0  0  0  0  0  0  0
    2.2414   13.1797    3.2892 C   0  0  1  0  0  0  0  0  0  0  0  0
    1.7029   14.3044    2.3670 C   0  0  2  0  0  0  0  0  0  0  0  0
    0.8110   13.8384    1.3962 O   0  0  0  0  0  0  0  0  0  0  0  0
    3.0210   14.9074    1.9177 C   0  0  1  0  0  0  0  0  0  0  0  0
    3.9660   14.8552    3.1265 C   0  0  2  0  0  0  0  0  0  0  0  0
    3.5647   13.6132    3.7046 O   0  0  0  0  0  0  0  0  0  0  0  0
    3.8307   16.0413    4.1411 C   0  0  0  0  0  0  0  0  0  0  0  0
    2.7550   15.7082    5.0581 O   0  0  0  0  0  0  0  0  0  0  0  0
    4.7689   14.4240    0.2347 C   0  0  2  0  0  0  0  0  0  0  0  0
    3.5258   14.0861    0.7867 O   0  0  0  0  0  0  0  0  0  0  0  0
    5.8874   13.3671    0.6366 C   0  0  1  0  0  0  0  0  0  0  0  0
    5.6368   18.7655    0.5146 N   0  0  0  0  0  0  0  0  0  0  0  0
    7.2735   13.8659   -0.0318 C   0  0  1  0  0  0  0  0  0  0  0  0
    7.0693   13.9517   -1.5313 O   0  0  0  0  0  0  0  0  0  0  0  0
    7.6830   15.3161    0.5644 C   0  0  2  0  0  0  0  0  0  0  0  0
    7.8814   15.2061    1.9944 O   0  0  0  0  0  0  0  0  0  0  0  0
    6.4970   16.3621    0.1655 C   0  0  1  0  0  0  0  0  0  0  0  0
    5.1837   15.8530    0.6927 O   0  0  0  0  0  0  0  0  0  0  0  0
    6.7679   17.8077    0.7116 C   0  0  0  0  0  0  0  0  0  0  0  0
    5.9645   13.2432    2.1298 N   0  0  0  0  0  0  0  0  0  0  0  0
  1  2  1  1  0  0  0
  1  3  1  0  0  0  0
  1 10  1  0  0  0  0
  3  4  1  1  0  0  0
  3  5  1  0  0  0  0
  5  6  1  1  0  0  0
  5  7  1  0  0  0  0
  7  8  1  1  0  0  0
  7  9  1  0  0  0  0
  9 10  1  0  0  0  0
  9 11  1  6  0  0  0
 11 12  1  0  0  0  0
 13 14  1  6  0  0  0
 13 15  1  0  0  0  0
 13 21  1  0  0  0  0
 16 15  1  0  0  0  0
 16 17  1  1  0  0  0
 18  2  1  1  0  0  0
 18 16  1  0  0  0  0
 19 18  1  0  0  0  0
 19 20  1  6  0  0  0
 21 19  1  0  0  0  0
 21 22  1  6  0  0  0
 23 20  1  1  0  0  0
 23 24  1  0  0  0  0
 23 28  1  0  0  0  0
 24 25  1  6  0  0  0
 24 26  1  0  0  0  0
 26 27  1  0  0  0  0
 26 32  1  6  0  0  0
 27 28  1  0  0  0  0
 27 29  1  1  0  0  0
 29 30  1  0  0  0  0
 31 32  1  1  0  0  0
 31 40  1  0  0  0  0
 33 31  1  0  0  0  0
 33 42  1  1  0  0  0
 35 33  1  0  0  0  0
 35 36  1  6  0  0  0
 37 35  1  0  0  0  0
 37 38  1  1  0  0  0
 37 39  1  0  0  0  0
 39 40  1  0  0  0  0
 39 41  1  1  0  0  0
 41 34  1  0  0  0  0
M  END
>  <CHROM.1>
154.03305904,51.94347022,-144.15665189,-171.81151322,127.43550841,-177.55595364
84.67070488,107.20761051,-173.07882109,1.89633075,13.73507634,4.11546288
-2.90077497,-0.72767703,-2.47994319

>  <Name>
2et4_lig

>  <RI>
0

>  <Rbt.Current_Directory>
/home/itssahil/PROJECTS/Mol_Feturizer/New_Systems/rnas/2et4

>  <Rbt.Executable>
rbdock ($Id: //depot/dev/client3/rdock/2013.1/src/exe/rbdock.cxx#4 $)

>  <Rbt.Library>
libRbt.so (2013.1, Build901 2013/11/27)

>  <Rbt.Parameter_File>
/export/apps/rDock/src/rDock_2013.1_src/data/scripts/dock_solv.prm

>  <Rbt.Receptor>
prm/blind_docking_20.prm

>  <SCORE>
31.1512

>  <SCORE.INTER>
8.2647

>  <SCORE.INTER.CONST>
1

>  <SCORE.INTER.POLAR>
-1.1696

>  <SCORE.INTER.ROT>
9

>  <SCORE.INTER.SOLV>
29.575

>  <SCORE.INTER.VDW>
-10.0499

>  <SCORE.INTER.norm>
0.196779

>  <SCORE.INTRA>
3.95526

>  <SCORE.INTRA.DIHEDRAL>
1.86847

>  <SCORE.INTRA.DIHEDRAL.0>
21.6909

>  <SCORE.INTRA.POLAR>
0

>  <SCORE.INTRA.POLAR.0>
0

>  <SCORE.INTRA.REPUL>
0

>  <SCORE.INTRA.REPUL.0>
0

>  <SCORE.INTRA.SOLV>
2.73692

>  <SCORE.INTRA.SOLV.lig_0>
-116.606

>  <SCORE.INTRA.VDW>
1.65256

>  <SCORE.INTRA.VDW.0>
-6.01229

>  <SCORE.INTRA.norm>
0.0941728

>  <SCORE.RESTR>
18.9312

>  <SCORE.RESTR.CAVITY>
18.9312

>  <SCORE.RESTR.norm>
0.450743

>  <SCORE.SYSTEM>
0

>  <SCORE.SYSTEM.CONST>
0

>  <SCORE.SYSTEM.DIHEDRAL>
0

>  <SCORE.SYSTEM.SOLV>
0

>  <SCORE.SYSTEM.norm>
0

>  <SCORE.heavy>
42

>  <SCORE.norm>
0.741695

>  <RMSD>
16.192

$$$$
2et4_lig
 OpenBabel11021811423D
libRbt.so/2013.1/901 2013/11/27
 42 45  0  0  0  0  0  0  0  0999 V2000
    0.3127   13.9272    7.1227 C   0  0  2  0  0  0  0  0  0  0  0  0
    0.2772   12.5058    6.9790 O   0  0  0  0  0  0  0  0  0  0  0  0
    0.3539   14.2321    8.6419 C   0  0  2  0  0  0  0  0  0  0  0  0
    1.4848   13.6016    9.2736 N   0  0  0  0  0  0  0  0  0  0  0  0
   -0.9811   13.7703    9.2945 C   0  0  1  0  0  0  0  0  0  0  0  0
   -0.9478   14.0603   10.6571 O   0  0  0  0  0  0  0  0  0  0  0  0
   -2.1598   14.4946    8.5624 C   0  0  2  0  0  0  0  0  0  0  0  0
   -3.3951   14.0982    9.1195 O   0  0  0  0  0  0  0  0  0  0  0  0
   -2.1525   14.1660    7.0386 C   0  0  2  0  0  0  0  0  0  0  0  0
   -0.8862   14.5563    6.4993 O   0  0  0  0  0  0  0  0  0  0  0  0
   -3.2933   14.9066    6.2669 C   0  0  0  0  0  0  0  0  0  0  0  0
   -3.2643   16.3112    6.4846 N   0  0  0  0  0  0  0  0  0  0  0  0
   -0.3138    9.5142    3.9204 C   0  0  2  0  0  0  0  0  0  0  0  0
   -0.8467    8.8430    2.7282 N   0  0  0  0  0  0  0  0  0  0  0  0
   -1.5173    9.7832    4.9747 C   0  0  0  0  0  0  0  0  0  0  0  0
   -0.9396   10.5199    6.2517 C   0  0  2  0  0  0  0  0  0  0  0  0
   -2.0057   10.8079    7.2275 N   0  0  0  0  0  0  0  0  0  0  0  0
   -0.2539   11.8584    5.8147 C   0  0  2  0  0  0  0  0  0  0  0  0
    0.8847   11.5867    4.7766 C   0  0  2  0  0  0  0  0  0  0  0  0
    1.4400   12.8788    4.4285 O   0  0  0  0  0  0  0  0  0  0  0  0
    0.2973   10.8670    3.5202 C   0  0  1  0  0  0  0  0  0  0  0  0
    1.3301   10.6269    2.6251 O   0  0  0  0  0  0  0  0  0  0  0  0
    2.2791   13.1198    3.3921 C   0  0  1  0  0  0  0  0  0  0  0  0
    1.7138   14.2273    2.4651 C   0  0  2  0  0  0  0  0  0  0  0  0
    0.8057   13.7411    1.5196 O   0  0  0  0  0  0  0  0  0  0  0  0
    3.0181   14.8328    1.9803 C   0  0  1  0  0  0  0  0  0  0  0  0
    3.9879   14.8046    3.1701 C   0  0  2  0  0  0  0  0  0  0  0  0
    3.6075   13.5685    3.7741 O   0  0  0  0  0  0  0  0  0  0  0  0
    3.8648   16.0044    4.1702 C   0  0  0  0  0  0  0  0  0  0  0  0
    2.7880   15.6919    5.0932 O   0  0  0  0  0  0  0  0  0  0  0  0
    4.5555   14.5012    0.0704 C   0  0  2  0  0  0  0  0  0  0  0  0
    3.5057   13.9987    0.8511 O   0  0  0  0  0  0  0  0  0  0  0  0
    5.3136   13.3346   -0.7004 C   0  0  1  0  0  0  0  0  0  0  0  0
    9.0662   16.2614    1.2871 N   0  0  0  0  0  0  0  0  0  0  0  0
    6.5093   14.0228   -1.5450 C   0  0  1  0  0  0  0  0  0  0  0  0
    5.8958   15.0379   -2.4888 O   0  0  0  0  0  0  0  0  0  0  0  0
    7.5499   14.7487   -0.5367 C   0  0  2  0  0  0  0  0  0  0  0  0
    8.1287   13.7585    0.3469 O   0  0  0  0  0  0  0  0  0  0  0  0
    6.7291   15.9106    0.2609 C   0  0  1  0  0  0  0  0  0  0  0  0
    5.5511   15.2959    0.9654 O   0  0  0  0  0  0  0  0  0  0  0  0
    7.6296   16.6755    1.2931 C   0  0  0  0  0  0  0  0  0  0  0  0
    5.7992   12.3044    0.2761 N   0  0  0  0  0  0  0  0  0  0  0  0
  1  2  1  1  0  0  0
  1  3  1  0  0  0  0
  1 10  1  0  0  0  0
  3  4  1  1  0  0  0
  3  5  1  0  0  0  0
  5  6  1  1  0  0  0
  5  7  1  0  0  0  0
  7  8  1  1  0  0  0
  7  9  1  0  0  0  0
  9 10  1  0  0  0  0
  9 11  1  6  0  0  0
 11 12  1  0  0  0  0
 13 14  1  6  0  0  0
 13 15  1  0  0  0  0
 13 21  1  0  0  0  0
 16 15  1  0  0  0  0
 16 17  1  1  0  0  0
 18  2  1  1  0  0  0
 18 16  1  0  0  0  0
 19 18  1  0  0  0  0
 19 20  1  6  0  0  0
 21 19  1  0  0  0  0
 21 22  1  6  0  0  0
 23 20  1  1  0  0  0
 23 24  1  0  0  0  0
 23 28  1  0  0  0  0
 24 25  1  6  0  0  0
 24 26  1  0  0  0  0
 26 27  1  0  0  0  0
 26 32  1  6  0  0  0
 27 28  1  0  0  0  0
 27 29  1  1  0  0  0
 29 30  1  0  0  0  0
 31 32  1  1  0  0  0
 31 40  1  0  0  0  0
 33 31  1  0  0  0  0
 33 42  1  1  0  0  0
 35 33  1  0  0  0  0
 35 36  1  6  0  0  0
 37 35  1  0  0  0  0
 37 38  1  1  0  0  0
 37 39  1  0  0  0  0
 39 40  1  0  0  0  0
 39 41  1  1  0  0  0
 41 34  1  0  0  0  0
M  END
>  <CHROM.1>
156.05866357,54.22367934,-145.80698229,-167.50219535,124.69504301,167.88951324
83.27103665,158.51192927,3.70555237,1.95556062,13.58282738,3.99524052,-2.73867641
-0.67991061,-2.34363436

>  <Name>
2et4_lig

>  <RI>
0

>  <Rbt.Current_Directory>
/home/itssahil/PROJECTS/Mol_Feturizer/New_Systems/rnas/2et4

>  <Rbt.Executable>
rbdock ($Id: //depot/dev/client3/rdock/2013.1/src/exe/rbdock.cxx#4 $)

>  <Rbt.Library>
libRbt.so (2013.1, Build901 2013/11/27)

>  <Rbt.Parameter_File>
/export/apps/rDock/src/rDock_2013.1_src/data/scripts/dock_solv.prm

>  <Rbt.Receptor>
prm/blind_docking_20.prm

>  <SCORE>
36.5526

>  <SCORE.INTER>
12.2774

>  <SCORE.INTER.CONST>
1

>  <SCORE.INTER.POLAR>
-1.21086

>  <SCORE.INTER.ROT>
9

>  <SCORE.INTER.SOLV>
34.7838

>  <SCORE.INTER.VDW>
-8.97346

>  <SCORE.INTER.norm>
0.29232

>  <SCORE.INTRA>
4.01385

>  <SCORE.INTRA.DIHEDRAL>
2.85688

>  <SCORE.INTRA.DIHEDRAL.0>
21.6909

>  <SCORE.INTRA.POLAR>
0

>  <SCORE.INTRA.POLAR.0>
0

>  <SCORE.INTRA.REPUL>
0

>  <SCORE.INTRA.REPUL.0>
0

>  <SCORE.INTRA.SOLV>
1.2269

>  <SCORE.INTRA.SOLV.lig_0>
-116.606

>  <SCORE.INTRA.VDW>
1.97196

>  <SCORE.INTRA.VDW.0>
-6.01229

>  <SCORE.INTRA.norm>
0.0955678

>  <SCORE.RESTR>
20.2614

>  <SCORE.RESTR.CAVITY>
20.2614

>  <SCORE.RESTR.norm>
0.482414

>  <SCORE.SYSTEM>
0

>  <SCORE.SYSTEM.CONST>
0

>  <SCORE.SYSTEM.DIHEDRAL>
0

>  <SCORE.SYSTEM.SOLV>
0

>  <SCORE.SYSTEM.norm>
0

>  <SCORE.heavy>
42

>  <SCORE.norm>
0.870301

>  <RMSD>
16.202

$$$$
2et4_lig
 OpenBabel11021811423D
libRbt.so/2013.1/901 2013/11/27
 42 45  0  0  0  0  0  0  0  0999 V2000
    0.5177   14.4106    7.2989 C   0  0  2  0  0  0  0  0  0  0  0  0
    0.9547   13.1674    6.7462 O   0  0  0  0  0  0  0  0  0  0  0  0
    0.3037   14.1856    8.8175 C   0  0  2  0  0  0  0  0  0  0  0  0
    1.5064   13.7104    9.4527 N   0  0  0  0  0  0  0  0  0  0  0  0
   -0.8719   13.1882    9.0280 C   0  0  1  0  0  0  0  0  0  0  0  0
   -1.0726   13.0003   10.3941 O   0  0  0  0  0  0  0  0  0  0  0  0
   -2.1394   13.7688    8.3165 C   0  0  2  0  0  0  0  0  0  0  0  0
   -3.2325   12.8895    8.4764 O   0  0  0  0  0  0  0  0  0  0  0  0
   -1.8717   13.9872    6.7965 C   0  0  2  0  0  0  0  0  0  0  0  0
   -0.7494   14.8633    6.6577 O   0  0  0  0  0  0  0  0  0  0  0  0
   -3.1047   14.6060    6.0602 C   0  0  0  0  0  0  0  0  0  0  0  0
   -3.6472   15.7168    6.7624 N   0  0  0  0  0  0  0  0  0  0  0  0
    0.2269   10.3935    3.5166 C   0  0  2  0  0  0  0  0  0  0  0  0
   -0.4036    9.7685    2.3471 N   0  0  0  0  0  0  0  0  0  0  0  0
   -0.8322   10.4376    4.7449 C   0  0  0  0  0  0  0  0  0  0  0  0
   -0.1518   11.1253    5.9984 C   0  0  2  0  0  0  0  0  0  0  0  0
   -1.0888   11.2100    7.1326 N   0  0  0  0  0  0  0  0  0  0  0  0
    0.3276   12.5638    5.6063 C   0  0  2  0  0  0  0  0  0  0  0  0
    1.3254   12.5085    4.4025 C   0  0  2  0  0  0  0  0  0  0  0  0
    1.6938   13.8791    4.1111 O   0  0  0  0  0  0  0  0  0  0  0  0
    0.6367   11.8347    3.1724 C   0  0  1  0  0  0  0  0  0  0  0  0
    1.5479   11.7870    2.1268 O   0  0  0  0  0  0  0  0  0  0  0  0
    2.3385   14.2991    2.9957 C   0  0  1  0  0  0  0  0  0  0  0  0
    2.6193   15.8232    3.0566 C   0  0  2  0  0  0  0  0  0  0  0  0
    1.5359   16.5984    2.6320 O   0  0  0  0  0  0  0  0  0  0  0  0
    3.9077   15.8689    2.2561 C   0  0  1  0  0  0  0  0  0  0  0  0
    4.6992   14.6047    2.6195 C   0  0  2  0  0  0  0  0  0  0  0  0
    3.6286   13.6717    2.7638 O   0  0  0  0  0  0  0  0  0  0  0  0
    5.5670   14.7020    3.9203 C   0  0  0  0  0  0  0  0  0  0  0  0
    6.7249   15.5218    3.6100 O   0  0  0  0  0  0  0  0  0  0  0  0
    4.5741   15.8416   -0.1265 C   0  0  2  0  0  0  0  0  0  0  0  0
    3.5388   15.8943    0.8166 O   0  0  0  0  0  0  0  0  0  0  0  0
    4.7200   14.3836   -0.7452 C   0  0  1  0  0  0  0  0  0  0  0  0
    8.9146   15.7651    1.3996 N   0  0  0  0  0  0  0  0  0  0  0  0
    5.9491   14.4347   -1.7956 C   0  0  1  0  0  0  0  0  0  0  0  0
    5.6286   15.4803   -2.8452 O   0  0  0  0  0  0  0  0  0  0  0  0
    7.3208   14.8162   -1.0215 C   0  0  2  0  0  0  0  0  0  0  0  0
    7.6099   13.7992   -0.0324 O   0  0  0  0  0  0  0  0  0  0  0  0
    7.1197   16.2978   -0.3703 C   0  0  1  0  0  0  0  0  0  0  0  0
    5.9138   16.2890    0.5285 O   0  0  0  0  0  0  0  0  0  0  0  0
    8.3811   16.7729    0.4325 C   0  0  0  0  0  0  0  0  0  0  0  0
    4.9224   13.3785    0.3501 N   0  0  0  0  0  0  0  0  0  0  0  0
  1  2  1  6  0  0  0
  1  3  1  0  0  0  0
  1 10  1  0  0  0  0
  3  4  1  6  0  0  0
  3  5  1  0  0  0  0
  5  6  1  1  0  0  0
  5  7  1  0  0  0  0
  7  8  1  6  0  0  0
  7  9  1  0  0  0  0
  9 10  1  0  0  0  0
  9 11  1  1  0  0  0
 11 12  1  0  0  0  0
 13 14  1  6  0  0  0
 13 15  1  0  0  0  0
 13 21  1  0  0  0  0
 16 15  1  0  0  0  0
 16 17  1  1  0  0  0
 18  2  1  1  0  0  0
 18 16  1  0  0  0  0
 19 18  1  0  0  0  0
 19 20  1  6  0  0  0
 21 19  1  0  0  0  0
 21 22  1  6  0  0  0
 23 20  1  1  0  0  0
 23 24  1  0  0  0  0
 23 28  1  0  0  0  0
 24 25  1  6  0  0  0
 24 26  1  0  0  0  0
 26 27  1  0  0  0  0
 26 32  1  6  0  0  0
 27 28  1  0  0  0  0
 27 29  1  1  0  0  0
 29 30  1  0  0  0  0
 31 32  1  1  0  0  0
 31 40  1  0  0  0  0
 33 31  1  0  0  0  0
 33 42  1  1  0  0  0
 35 33  1  0  0  0  0
 35 36  1  6  0  0  0
 37 35  1  0  0  0  0
 37 38  1  1  0  0  0
 37 39  1  0  0  0  0
 39 40  1  0  0  0  0
 39 41  1  1  0  0  0
 41 34  1  0  0  0  0
M  END
>  <CHROM.1>
128.25704009,47.32036110,-123.08528716,-167.04469526,-177.54170277,-175.53921256
-74.28074468,101.78164514,-48.72444123,2.29025197,14.00122516,3.76454344
-2.60619448,-0.62064863,-2.06404571

>  <Name>
2et4_lig

>  <RI>
0

>  <Rbt.Current_Directory>
/home/itssahil/PROJECTS/Mol_Feturizer/New_Systems/rnas/2et4

>  <Rbt.Executable>
rbdock ($Id: //depot/dev/client3/rdock/2013.1/src/exe/rbdock.cxx#4 $)

>  <Rbt.Library>
libRbt.so (2013.1, Build901 2013/11/27)

>  <Rbt.Parameter_File>
/export/apps/rDock/src/rDock_2013.1_src/data/scripts/dock_solv.prm

>  <Rbt.Receptor>
prm/blind_docking_20.prm

>  <SCORE>
64.0602

>  <SCORE.INTER>
39.0888

>  <SCORE.INTER.CONST>
1

>  <SCORE.INTER.POLAR>
0

>  <SCORE.INTER.ROT>
9

>  <SCORE.INTER.SOLV>
29.8925

>  <SCORE.INTER.VDW>
6.495

>  <SCORE.INTER.norm>
0.930685

>  <SCORE.INTRA>
8.16413

>  <SCORE.INTRA.DIHEDRAL>
0.757919

>  <SCORE.INTRA.DIHEDRAL.0>
21.6909

>  <SCORE.INTRA.POLAR>
0

>  <SCORE.INTRA.POLAR.0>
0

>  <SCORE.INTRA.REPUL>
0

>  <SCORE.INTRA.REPUL.0>
0

>  <SCORE.INTRA.SOLV>
8.61624

>  <SCORE.INTRA.SOLV.lig_0>
-116.606

>  <SCORE.INTRA.VDW>
3.47705

>  <SCORE.INTRA.VDW.0>
-6.01229

>  <SCORE.INTRA.norm>
0.194384

>  <SCORE.RESTR>
16.8073

>  <SCORE.RESTR.CAVITY>
16.8073

>  <SCORE.RESTR.norm>
0.400174

>  <SCORE.SYSTEM>
0

>  <SCORE.SYSTEM.CONST>
0

>  <SCORE.SYSTEM.DIHEDRAL>
0

>  <SCORE.SYSTEM.SOLV>
0

>  <SCORE.SYSTEM.norm>
0

>  <SCORE.heavy>
42

>  <SCORE.norm>
1.52524

>  <RMSD>
16.208

$$$$
2et4_lig
 OpenBabel11021811423D
libRbt.so/2013.1/901 2013/11/27
 42 45  0  0  0  0  0  0  0  0999 V2000
    0.2879   13.8982    7.1057 C   0  0  2  0  0  0  0  0  0  0  0  0
    0.2315   12.4773    6.9638 O   0  0  0  0  0  0  0  0  0  0  0  0
    0.3545   14.2035    8.6239 C   0  0  2  0  0  0  0  0  0  0  0  0
    1.4856   13.5583    9.2403 N   0  0  0  0  0  0  0  0  0  0  0  0
   -0.9772   13.7601    9.2956 C   0  0  1  0  0  0  0  0  0  0  0  0
   -0.9210   14.0505   10.6573 O   0  0  0  0  0  0  0  0  0  0  0  0
   -2.1563   14.4996    8.5794 C   0  0  2  0  0  0  0  0  0  0  0  0
   -3.3889   14.1202    9.1541 O   0  0  0  0  0  0  0  0  0  0  0  0
   -2.1748   14.1699    7.0560 C   0  0  2  0  0  0  0  0  0  0  0  0
   -0.9110   14.5428    6.4987 O   0  0  0  0  0  0  0  0  0  0  0  0
   -3.3163   14.9252    6.2997 C   0  0  0  0  0  0  0  0  0  0  0  0
   -3.3090   14.6505    4.9048 N   0  0  0  0  0  0  0  0  0  0  0  0
   -0.3037    9.5097    3.8716 C   0  0  2  0  0  0  0  0  0  0  0  0
   -0.8187    8.8455    2.6678 N   0  0  0  0  0  0  0  0  0  0  0  0
   -1.5201    9.7592    4.9158 C   0  0  0  0  0  0  0  0  0  0  0  0
   -0.9616   10.4886    6.2055 C   0  0  2  0  0  0  0  0  0  0  0  0
   -2.0400   10.7588    7.1728 N   0  0  0  0  0  0  0  0  0  0  0  0
   -0.2824   11.8365    5.7880 C   0  0  2  0  0  0  0  0  0  0  0  0
    0.8690   11.5837    4.7594 C   0  0  2  0  0  0  0  0  0  0  0  0
    1.4174   12.8834    4.4290 O   0  0  0  0  0  0  0  0  0  0  0  0
    0.3005   10.8711    3.4904 C   0  0  1  0  0  0  0  0  0  0  0  0
    1.3444   10.6476    2.6038 O   0  0  0  0  0  0  0  0  0  0  0  0
    2.2498   13.1444    3.3921 C   0  0  1  0  0  0  0  0  0  0  0  0
    1.6653   14.2500    2.4747 C   0  0  2  0  0  0  0  0  0  0  0  0
    0.7617   13.7572    1.5284 O   0  0  0  0  0  0  0  0  0  0  0  0
    2.9590   14.8784    1.9906 C   0  0  1  0  0  0  0  0  0  0  0  0
    3.9326   14.8560    3.1773 C   0  0  2  0  0  0  0  0  0  0  0  0
    3.5725   13.6100    3.7734 O   0  0  0  0  0  0  0  0  0  0  0  0
    3.7947   16.0465    4.1865 C   0  0  0  0  0  0  0  0  0  0  0  0
    2.7206   15.7146    5.1059 O   0  0  0  0  0  0  0  0  0  0  0  0
    4.5309   14.5593    0.1068 C   0  0  2  0  0  0  0  0  0  0  0  0
    3.4556   14.0598    0.8540 O   0  0  0  0  0  0  0  0  0  0  0  0
    5.2717   13.3985   -0.6891 C   0  0  1  0  0  0  0  0  0  0  0  0
    8.8797   17.2371    0.8962 N   0  0  0  0  0  0  0  0  0  0  0  0
    6.4988   14.0817   -1.4916 C   0  0  1  0  0  0  0  0  0  0  0  0
    5.9275   15.1421   -2.4118 O   0  0  0  0  0  0  0  0  0  0  0  0
    7.5406   14.7475   -0.4438 C   0  0  2  0  0  0  0  0  0  0  0  0
    8.0787   13.7148    0.4164 O   0  0  0  0  0  0  0  0  0  0  0  0
    6.7365   15.9044    0.3777 C   0  0  1  0  0  0  0  0  0  0  0  0
    5.5314   15.2986    1.0430 O   0  0  0  0  0  0  0  0  0  0  0  0
    7.6387   16.6121    1.4484 C   0  0  0  0  0  0  0  0  0  0  0  0
    5.7141   12.3252    0.2613 N   0  0  0  0  0  0  0  0  0  0  0  0
  1  2  1  1  0  0  0
  1  3  1  0  0  0  0
  1 10  1  0  0  0  0
  3  4  1  1  0  0  0
  3  5  1  0  0  0  0
  5  6  1  1  0  0  0
  5  7  1  0  0  0  0
  7  8  1  1  0  0  0
  7  9  1  0  0  0  0
  9 10  1  0  0  0  0
  9 11  1  6  0  0  0
 11 12  1  0  0  0  0
 13 14  1  6  0  0  0
 13 15  1  0  0  0  0
 13 21  1  0  0  0  0
 16 15  1  0  0  0  0
 16 17  1  1  0  0  0
 18  2  1  1  0  0  0
 18 16  1  0  0  0  0
 19 18  1  0  0  0  0
 19 20  1  6  0  0  0
 21 19  1  0  0  0  0
 21 22  1  6  0  0  0
 23 20  1  1  0  0  0
 23 24  1  0  0  0  0
 23 28  1  0  0  0  0
 24 25  1  6  0  0  0
 24 26  1  0  0  0  0
 26 27  1  0  0  0  0
 26 32  1  6  0  0  0
 27 28  1  0  0  0  0
 27 29  1  1  0  0  0
 29 30  1  0  0  0  0
 31 32  1  1  0  0  0
 31 40  1  0  0  0  0
 33 31  1  0  0  0  0
 33 42  1  1  0  0  0
 35 33  1  0  0  0  0
 35 36  1  6  0  0  0
 37 35  1  0  0  0  0
 37 38  1  1  0  0  0
 37 39  1  0  0  0  0
 39 40  1  0  0  0  0
 39 41  1  1  0  0  0
 41 34  1  0  0  0  0
M  END
>  <CHROM.1>
158.26430033,178.44283091,-147.58530262,-166.48257125,123.87541286,170.39317424
82.97092763,159.30058653,57.20213059,1.93047831,13.57426209,3.95879681,-2.72712768
-0.67099109,-2.28262349

>  <Name>
2et4_lig

>  <RI>
0

>  <Rbt.Current_Directory>
/home/itssahil/PROJECTS/Mol_Feturizer/New_Systems/rnas/2et4

>  <Rbt.Executable>
rbdock ($Id: //depot/dev/client3/rdock/2013.1/src/exe/rbdock.cxx#4 $)

>  <Rbt.Library>
libRbt.so (2013.1, Build901 2013/11/27)

>  <Rbt.Parameter_File>
/export/apps/rDock/src/rDock_2013.1_src/data/scripts/dock_solv.prm

>  <Rbt.Receptor>
prm/blind_docking_20.prm

>  <SCORE>
33.8584

>  <SCORE.INTER>
12.4687

>  <SCORE.INTER.CONST>
1

>  <SCORE.INTER.POLAR>
-1.01117

>  <SCORE.INTER.ROT>
9

>  <SCORE.INTER.SOLV>
30.9969

>  <SCORE.INTER.VDW>
-8.24931

>  <SCORE.INTER.norm>
0.296873

>  <SCORE.INTRA>
-0.516032

>  <SCORE.INTRA.DIHEDRAL>
-3.41685

>  <SCORE.INTRA.DIHEDRAL.0>
21.6909

>  <SCORE.INTRA.POLAR>
0

>  <SCORE.INTRA.POLAR.0>
0

>  <SCORE.INTRA.REPUL>
0

>  <SCORE.INTRA.REPUL.0>
0

>  <SCORE.INTRA.SOLV>
-1.25274

>  <SCORE.INTRA.SOLV.lig_0>
-116.606

>  <SCORE.INTRA.VDW>
1.81876

>  <SCORE.INTRA.VDW.0>
-6.01229

>  <SCORE.INTRA.norm>
-0.0122865

>  <SCORE.RESTR>
21.9057

>  <SCORE.RESTR.CAVITY>
21.9057

>  <SCORE.RESTR.norm>
0.521565

>  <SCORE.SYSTEM>
0

>  <SCORE.SYSTEM.CONST>
0

>  <SCORE.SYSTEM.DIHEDRAL>
0

>  <SCORE.SYSTEM.SOLV>
0

>  <SCORE.SYSTEM.norm>
0

>  <SCORE.heavy>
42

>  <SCORE.norm>
0.806151

>  <RMSD>
16.217

$$$$
2et4_lig
 OpenBabel11021811423D
libRbt.so/2013.1/901 2013/11/27
 42 45  0  0  0  0  0  0  0  0999 V2000
   -0.2950   14.0461    7.2895 C   0  0  2  0  0  0  0  0  0  0  0  0
   -0.5207   12.6383    7.1925 O   0  0  0  0  0  0  0  0  0  0  0  0
    0.0455   14.3534    8.7701 C   0  0  2  0  0  0  0  0  0  0  0  0
    1.1877   13.5960    9.2145 N   0  0  0  0  0  0  0  0  0  0  0  0
   -1.2000   14.0589    9.6550 C   0  0  1  0  0  0  0  0  0  0  0  0
   -0.8963   14.3513   10.9832 O   0  0  0  0  0  0  0  0  0  0  0  0
   -2.3954   14.9145    9.1175 C   0  0  2  0  0  0  0  0  0  0  0  0
   -3.5525   14.6724    9.8895 O   0  0  0  0  0  0  0  0  0  0  0  0
   -2.6920   14.5779    7.6247 C   0  0  2  0  0  0  0  0  0  0  0  0
   -1.5022   14.8103    6.8651 O   0  0  0  0  0  0  0  0  0  0  0  0
   -3.8554   15.4449    7.0412 C   0  0  0  0  0  0  0  0  0  0  0  0
   -4.4607   14.8375    5.9073 N   0  0  0  0  0  0  0  0  0  0  0  0
   -0.8154    9.5736    4.1633 C   0  0  2  0  0  0  0  0  0  0  0  0
   -1.1643    8.9040    2.9041 N   0  0  0  0  0  0  0  0  0  0  0  0
   -2.1712   10.0308    4.9282 C   0  0  0  0  0  0  0  0  0  0  0  0
   -1.7887   10.7650    6.2780 C   0  0  2  0  0  0  0  0  0  0  0  0
   -2.9926   11.2214    6.9950 N   0  0  0  0  0  0  0  0  0  0  0  0
   -0.8709   11.9935    5.9602 C   0  0  2  0  0  0  0  0  0  0  0  0
    0.4183   11.5418    5.1973 C   0  0  2  0  0  0  0  0  0  0  0  0
    1.1854   12.7436    4.9398 O   0  0  0  0  0  0  0  0  0  0  0  0
    0.0240   10.8267    3.8652 C   0  0  1  0  0  0  0  0  0  0  0  0
    1.1845   10.4257    3.2185 O   0  0  0  0  0  0  0  0  0  0  0  0
    2.3018   12.8141    4.1751 C   0  0  1  0  0  0  0  0  0  0  0  0
    1.9889   13.4402    2.7910 C   0  0  2  0  0  0  0  0  0  0  0  0
    1.5037   12.5114    1.8654 O   0  0  0  0  0  0  0  0  0  0  0  0
    3.3207   14.1147    2.5185 C   0  0  1  0  0  0  0  0  0  0  0  0
    3.8266   14.6543    3.8638 C   0  0  2  0  0  0  0  0  0  0  0  0
    3.3755   13.6175    4.7351 O   0  0  0  0  0  0  0  0  0  0  0  0
    3.2641   16.0549    4.2841 C   0  0  0  0  0  0  0  0  0  0  0  0
    3.0083   16.8037    3.0664 O   0  0  0  0  0  0  0  0  0  0  0  0
    5.5468   13.4744    1.6491 C   0  0  2  0  0  0  0  0  0  0  0  0
    4.2356   13.0869    1.9570 O   0  0  0  0  0  0  0  0  0  0  0  0
    5.7888   15.0115    1.9785 C   0  0  1  0  0  0  0  0  0  0  0  0
    7.0893   11.7609   -2.1865 N   0  0  0  0  0  0  0  0  0  0  0  0
    7.3158   15.3504    1.5660 C   0  0  1  0  0  0  0  0  0  0  0  0
    8.2312   14.4371    2.3568 O   0  0  0  0  0  0  0  0  0  0  0  0
    7.5227   15.1154   -0.0240 C   0  0  2  0  0  0  0  0  0  0  0  0
    6.6457   16.0044   -0.7566 O   0  0  0  0  0  0  0  0  0  0  0  0
    7.2300   13.5401   -0.3283 C   0  0  1  0  0  0  0  0  0  0  0  0
    5.8479   13.1877    0.1487 O   0  0  0  0  0  0  0  0  0  0  0  0
    7.3756   13.1894   -1.8505 C   0  0  0  0  0  0  0  0  0  0  0  0
    4.7817   15.8566    1.2558 N   0  0  0  0  0  0  0  0  0  0  0  0
  1  2  1  1  0  0  0
  1  3  1  0  0  0  0
  1 10  1  0  0  0  0
  3  4  1  1  0  0  0
  3  5  1  0  0  0  0
  5  6  1  1  0  0  0
  5  7  1  0  0  0  0
  7  8  1  1  0  0  0
  7  9  1  0  0  0  0
  9 10  1  0  0  0  0
  9 11  1  6  0  0  0
 11 12  1  0  0  0  0
 13 14  1  6  0  0  0
 13 15  1  0  0  0  0
 13 21  1  0  0  0  0
 16 15  1  0  0  0  0
 16 17  1  6  0  0  0
 18  2  1  1  0  0  0
 18 16  1  0  0  0  0
 19 18  1  0  0  0  0
 19 20  1  6  0  0  0
 21 19  1  0  0  0  0
 21 22  1  1  0  0  0
 23 20  1  1  0  0  0
 23 24  1  0  0  0  0
 23 28  1  0  0  0  0
 24 25  1  6  0  0  0
 24 26  1  0  0  0  0
 26 27  1  0  0  0  0
 26 32  1  1  0  0  0
 27 28  1  0  0  0  0
 27 29  1  1  0  0  0
 29 30  1  0  0  0  0
 31 32  1  6  0  0  0
 31 40  1  0  0  0  0
 33 31  1  0  0  0  0
 33 42  1  6  0  0  0
 35 33  1  0  0  0  0
 35 36  1  1  0  0  0
 37 35  1  0  0  0  0
 37 38  1  6  0  0  0
 37 39  1  0  0  0  0
 39 40  1  0  0  0  0
 39 41  1  6  0  0  0
 41 34  1  0  0  0  0
M  END
>  <CHROM.1>
179.55206155,-157.91745056,-148.28015354,-172.47829808,103.60386435,-178.72909524
-30.66951384,-0.18035360,-178.79724001,1.75658156,13.45432996,4.30540806
-2.73330330,-0.61916933,-2.40510848

>  <Name>
2et4_lig

>  <RI>
0

>  <Rbt.Current_Directory>
/home/itssahil/PROJECTS/Mol_Feturizer/New_Systems/rnas/2et4

>  <Rbt.Executable>
rbdock ($Id: //depot/dev/client3/rdock/2013.1/src/exe/rbdock.cxx#4 $)

>  <Rbt.Library>
libRbt.so (2013.1, Build901 2013/11/27)

>  <Rbt.Parameter_File>
/export/apps/rDock/src/rDock_2013.1_src/data/scripts/dock_solv.prm

>  <Rbt.Receptor>
prm/blind_docking_20.prm

>  <SCORE>
31.5487

>  <SCORE.INTER>
2.07729

>  <SCORE.INTER.CONST>
1

>  <SCORE.INTER.POLAR>
-1.75859

>  <SCORE.INTER.ROT>
9

>  <SCORE.INTER.SOLV>
24.2296

>  <SCORE.INTER.VDW>
-10.4297

>  <SCORE.INTER.norm>
0.0494593

>  <SCORE.INTRA>
7.77201

>  <SCORE.INTRA.DIHEDRAL>
-0.21519

>  <SCORE.INTRA.DIHEDRAL.0>
21.6909

>  <SCORE.INTRA.POLAR>
0

>  <SCORE.INTRA.POLAR.0>
0

>  <SCORE.INTRA.REPUL>
0.0144494

>  <SCORE.INTRA.REPUL.0>
0

>  <SCORE.INTRA.SOLV>
0.850673

>  <SCORE.INTRA.SOLV.lig_0>
-116.606

>  <SCORE.INTRA.VDW>
7.38203

>  <SCORE.INTRA.VDW.0>
-6.01229

>  <SCORE.INTRA.norm>
0.185048

>  <SCORE.RESTR>
21.6994

>  <SCORE.RESTR.CAVITY>
21.6994

>  <SCORE.RESTR.norm>
0.516652

>  <SCORE.SYSTEM>
0

>  <SCORE.SYSTEM.CONST>
0

>  <SCORE.SYSTEM.DIHEDRAL>
0

>  <SCORE.SYSTEM.SOLV>
0

>  <SCORE.SYSTEM.norm>
0

>  <SCORE.heavy>
42

>  <SCORE.norm>
0.751159

>  <RMSD>
16.227

$$$$
2et4_lig
 OpenBabel11021811423D
libRbt.so/2013.1/901 2013/11/27
 42 45  0  0  0  0  0  0  0  0999 V2000
   -0.1491   13.7727    7.3128 C   0  0  2  0  0  0  0  0  0  0  0  0
   -0.1338   12.3450    7.3720 O   0  0  0  0  0  0  0  0  0  0  0  0
    0.0883   14.2924    8.7537 C   0  0  2  0  0  0  0  0  0  0  0  0
    1.3261   13.7921    9.2953 N   0  0  0  0  0  0  0  0  0  0  0  0
   -1.1182   13.8896    9.6499 C   0  0  1  0  0  0  0  0  0  0  0  0
   -0.9098   14.3719   10.9406 O   0  0  0  0  0  0  0  0  0  0  0  0
   -2.4218   14.4670    9.0041 C   0  0  2  0  0  0  0  0  0  0  0  0
   -3.5463   14.1181    9.7833 O   0  0  0  0  0  0  0  0  0  0  0  0
   -2.6107   13.9246    7.5549 C   0  0  2  0  0  0  0  0  0  0  0  0
   -1.4527   14.2709    6.7895 O   0  0  0  0  0  0  0  0  0  0  0  0
   -3.8831   14.5136    6.8625 C   0  0  0  0  0  0  0  0  0  0  0  0
   -3.8761   15.9352    6.8470 N   0  0  0  0  0  0  0  0  0  0  0  0
   -0.3312    8.9774    4.6748 C   0  0  2  0  0  0  0  0  0  0  0  0
   -0.7535    8.1257    3.5558 N   0  0  0  0  0  0  0  0  0  0  0  0
   -1.5950    9.2524    5.6542 C   0  0  0  0  0  0  0  0  0  0  0  0
   -1.1373   10.1828    6.8509 C   0  0  2  0  0  0  0  0  0  0  0  0
   -2.2630   10.4803    7.7541 N   0  0  0  0  0  0  0  0  0  0  0  0
   -0.5578   11.5202    6.2779 C   0  0  2  0  0  0  0  0  0  0  0  0
    0.6411   11.2384    5.3130 C   0  0  2  0  0  0  0  0  0  0  0  0
    1.0915   12.5280    4.8301 O   0  0  0  0  0  0  0  0  0  0  0  0
    0.1714   10.3262    4.1346 C   0  0  1  0  0  0  0  0  0  0  0  0
    1.2565   10.0822    3.3047 O   0  0  0  0  0  0  0  0  0  0  0  0
    1.8398   12.7331    3.7191 C   0  0  1  0  0  0  0  0  0  0  0  0
    1.1684   13.7691    2.7802 C   0  0  2  0  0  0  0  0  0  0  0  0
    0.2066   13.2038    1.9374 O   0  0  0  0  0  0  0  0  0  0  0  0
    2.4107   14.3829    2.1616 C   0  0  1  0  0  0  0  0  0  0  0  0
    3.4698   14.4507    3.2708 C   0  0  2  0  0  0  0  0  0  0  0  0
    3.1782   13.2408    3.9699 O   0  0  0  0  0  0  0  0  0  0  0  0
    3.3847   15.7017    4.2102 C   0  0  0  0  0  0  0  0  0  0  0  0
    3.2392   16.8722    3.3630 O   0  0  0  0  0  0  0  0  0  0  0  0
    4.0592   13.7787    0.4184 C   0  0  2  0  0  0  0  0  0  0  0  0
    2.8370   13.4998    1.0448 O   0  0  0  0  0  0  0  0  0  0  0  0
    5.1684   12.7084    0.8107 C   0  0  1  0  0  0  0  0  0  0  0  0
    7.5394   17.5891    0.2807 N   0  0  0  0  0  0  0  0  0  0  0  0
    6.5318   13.1389    0.0540 C   0  0  1  0  0  0  0  0  0  0  0  0
    6.2549   13.1670   -1.4359 O   0  0  0  0  0  0  0  0  0  0  0  0
    7.0086   14.6008    0.5657 C   0  0  2  0  0  0  0  0  0  0  0  0
    7.2756   14.5458    1.9876 O   0  0  0  0  0  0  0  0  0  0  0  0
    5.8320   15.6623    0.1801 C   0  0  1  0  0  0  0  0  0  0  0  0
    4.5339   15.2134    0.7928 O   0  0  0  0  0  0  0  0  0  0  0  0
    6.1678   17.1213    0.6487 C   0  0  0  0  0  0  0  0  0  0  0  0
    5.3170   12.6456    2.3023 N   0  0  0  0  0  0  0  0  0  0  0  0
  1  2  1  1  0  0  0
  1  3  1  0  0  0  0
  1 10  1  0  0  0  0
  3  4  1  1  0  0  0
  3  5  1  0  0  0  0
  5  6  1  1  0  0  0
  5  7  1  0  0  0  0
  7  8  1  1  0  0  0
  7  9  1  0  0  0  0
  9 10  1  0  0  0  0
  9 11  1  6  0  0  0
 11 12  1  0  0  0  0
 13 14  1  6  0  0  0
 13 15  1  0  0  0  0
 13 21  1  0  0  0  0
 16 15  1  0  0  0  0
 16 17  1  1  0  0  0
 18  2  1  1  0  0  0
 18 16  1  0  0  0  0
 19 18  1  0  0  0  0
 19 20  1  6  0  0  0
 21 19  1  0  0  0  0
 21 22  1  6  0  0  0
 23 20  1  1  0  0  0
 23 24  1  0  0  0  0
 23 28  1  0  0  0  0
 24 25  1  6  0  0  0
 24 26  1  0  0  0  0
 26 27  1  0  0  0  0
 26 32  1  6  0  0  0
 27 28  1  0  0  0  0
 27 29  1  1  0  0  0
 29 30  1  0  0  0  0
 31 32  1  1  0  0  0
 31 40  1  0  0  0  0
 33 31  1  0  0  0  0
 33 42  1  1  0  0  0
 35 33  1  0  0  0  0
 35 36  1  6  0  0  0
 37 35  1  0  0  0  0
 37 38  1  1  0  0  0
 37 39  1  0  0  0  0
 39 40  1  0  0  0  0
 39 41  1  1  0  0  0
 41 34  1  0  0  0  0
M  END
>  <CHROM.1>
168.43636101,55.81368808,-150.07704923,-160.63245666,126.64357463,-172.64675581
-47.28857999,107.26059450,48.55056937,1.56496684,13.36656676,4.41003410,-2.94545814
-0.76551061,-2.63026261

>  <Name>
2et4_lig

>  <RI>
0

>  <Rbt.Current_Directory>
/home/itssahil/PROJECTS/Mol_Feturizer/New_Systems/rnas/2et4

>  <Rbt.Executable>
rbdock ($Id: //depot/dev/client3/rdock/2013.1/src/exe/rbdock.cxx#4 $)

>  <Rbt.Library>
libRbt.so (2013.1, Build901 2013/11/27)

>  <Rbt.Parameter_File>
/export/apps/rDock/src/rDock_2013.1_src/data/scripts/dock_solv.prm

>  <Rbt.Receptor>
prm/blind_docking_20.prm

>  <SCORE>
25.7281

>  <SCORE.INTER>
1.54236

>  <SCORE.INTER.CONST>
1

>  <SCORE.INTER.POLAR>
-1.40185

>  <SCORE.INTER.ROT>
9

>  <SCORE.INTER.SOLV>
32.1464

>  <SCORE.INTER.VDW>
-14.6144

>  <SCORE.INTER.norm>
0.0367229

>  <SCORE.INTRA>
3.14249

>  <SCORE.INTRA.DIHEDRAL>
-0.922113

>  <SCORE.INTRA.DIHEDRAL.0>
21.6909

>  <SCORE.INTRA.POLAR>
0

>  <SCORE.INTRA.POLAR.0>
0

>  <SCORE.INTRA.REPUL>
0

>  <SCORE.INTRA.REPUL.0>
0

>  <SCORE.INTRA.SOLV>
2.1139

>  <SCORE.INTRA.SOLV.lig_0>
-116.606

>  <SCORE.INTRA.VDW>
2.54659

>  <SCORE.INTRA.VDW.0>
-6.01229

>  <SCORE.INTRA.norm>
0.0748211

>  <SCORE.RESTR>
21.0432

>  <SCORE.RESTR.CAVITY>
21.0432

>  <SCORE.RESTR.norm>
0.501029

>  <SCORE.SYSTEM>
0

>  <SCORE.SYSTEM.CONST>
0

>  <SCORE.SYSTEM.DIHEDRAL>
0

>  <SCORE.SYSTEM.SOLV>
0

>  <SCORE.SYSTEM.norm>
0

>  <SCORE.heavy>
42

>  <SCORE.norm>
0.612573

>  <RMSD>
16.231

$$$$
2et4_lig
 OpenBabel11021811423D
libRbt.so/2013.1/901 2013/11/27
 42 45  0  0  0  0  0  0  0  0999 V2000
    0.1252   13.9027    7.2237 C   0  0  2  0  0  0  0  0  0  0  0  0
   -0.0204   12.4854    7.1137 O   0  0  0  0  0  0  0  0  0  0  0  0
    0.3078   14.2281    8.7282 C   0  0  2  0  0  0  0  0  0  0  0  0
    1.4386   13.5288    9.2833 N   0  0  0  0  0  0  0  0  0  0  0  0
   -1.0001   13.8729    9.4926 C   0  0  1  0  0  0  0  0  0  0  0  0
   -0.8389   14.1814   10.8419 O   0  0  0  0  0  0  0  0  0  0  0  0
   -2.1798   14.6675    8.8392 C   0  0  2  0  0  0  0  0  0  0  0  0
   -3.3917   14.3689    9.4992 O   0  0  0  0  0  0  0  0  0  0  0  0
   -2.3162   14.3150    7.3269 C   0  0  2  0  0  0  0  0  0  0  0  0
   -1.0725   14.6055    6.6823 O   0  0  0  0  0  0  0  0  0  0  0  0
   -3.4602   15.1225    6.6307 C   0  0  0  0  0  0  0  0  0  0  0  0
   -4.7384   14.8199    7.1746 N   0  0  0  0  0  0  0  0  0  0  0  0
   -0.5374    9.4690    4.0660 C   0  0  2  0  0  0  0  0  0  0  0  0
   -1.0094    8.8053    2.8444 N   0  0  0  0  0  0  0  0  0  0  0  0
   -1.8057    9.8323    5.0104 C   0  0  0  0  0  0  0  0  0  0  0  0
   -1.2922   10.5606    6.3193 C   0  0  2  0  0  0  0  0  0  0  0  0
   -2.4161   10.9328    7.1967 N   0  0  0  0  0  0  0  0  0  0  0  0
   -0.4916   11.8458    5.9196 C   0  0  2  0  0  0  0  0  0  0  0  0
    0.7107   11.4841    4.9860 C   0  0  2  0  0  0  0  0  0  0  0  0
    1.3713   12.7329    4.6647 O   0  0  0  0  0  0  0  0  0  0  0  0
    0.1868   10.7738    3.6966 C   0  0  1  0  0  0  0  0  0  0  0  0
    1.2739   10.4531    2.8959 O   0  0  0  0  0  0  0  0  0  0  0  0
    2.4370   12.8679    3.8386 C   0  0  1  0  0  0  0  0  0  0  0  0
    2.0014   13.4152    2.4543 C   0  0  2  0  0  0  0  0  0  0  0  0
    1.5498   12.4163    1.5865 O   0  0  0  0  0  0  0  0  0  0  0  0
    3.2555   14.1875    2.0886 C   0  0  1  0  0  0  0  0  0  0  0  0
    3.7823   14.8157    3.3865 C   0  0  2  0  0  0  0  0  0  0  0  0
    3.4660   13.7774    4.3137 O   0  0  0  0  0  0  0  0  0  0  0  0
    3.1255   16.1792    3.7919 C   0  0  0  0  0  0  0  0  0  0  0  0
    3.7679   16.6241    5.0159 O   0  0  0  0  0  0  0  0  0  0  0  0
    5.3193   13.7316    0.8024 C   0  0  2  0  0  0  0  0  0  0  0  0
    4.2242   13.2195    1.5113 O   0  0  0  0  0  0  0  0  0  0  0  0
    6.5854   13.9165    1.7471 C   0  0  1  0  0  0  0  0  0  0  0  0
    5.0260   18.0967   -0.2586 N   0  0  0  0  0  0  0  0  0  0  0  0
    7.7726   14.5290    0.8350 C   0  0  1  0  0  0  0  0  0  0  0  0
    8.0359   13.5652   -0.3049 O   0  0  0  0  0  0  0  0  0  0  0  0
    7.3327   15.9777    0.2570 C   0  0  2  0  0  0  0  0  0  0  0  0
    7.0965   16.8817    1.3630 O   0  0  0  0  0  0  0  0  0  0  0  0
    6.0127   15.7532   -0.6740 C   0  0  1  0  0  0  0  0  0  0  0  0
    4.9364   15.0864    0.1377 O   0  0  0  0  0  0  0  0  0  0  0  0
    5.4723   17.0969   -1.2769 C   0  0  0  0  0  0  0  0  0  0  0  0
    6.2313   14.7876    2.9162 N   0  0  0  0  0  0  0  0  0  0  0  0
  1  2  1  1  0  0  0
  1  3  1  0  0  0  0
  1 10  1  0  0  0  0
  3  4  1  1  0  0  0
  3  5  1  0  0  0  0
  5  6  1  1  0  0  0
  5  7  1  0  0  0  0
  7  8  1  1  0  0  0
  7  9  1  0  0  0  0
  9 10  1  0  0  0  0
  9 11  1  6  0  0  0
 11 12  1  0  0  0  0
 13 14  1  6  0  0  0
 13 15  1  0  0  0  0
 13 21  1  0  0  0  0
 16 15  1  0  0  0  0
 16 17  1  1  0  0  0
 18  2  1  1  0  0  0
 18 16  1  0  0  0  0
 19 18  1  0  0  0  0
 19 20  1  6  0  0  0
 21 19  1  0  0  0  0
 21 22  1  6  0  0  0
 23 20  1  1  0  0  0
 23 24  1  0  0  0  0
 23 28  1  0  0  0  0
 24 25  1  6  0  0  0
 24 26  1  0  0  0  0
 26 27  1  0  0  0  0
 26 32  1  1  0  0  0
 27 28  1  0  0  0  0
 27 29  1  1  0  0  0
 29 30  1  0  0  0  0
 31 32  1  1  0  0  0
 31 40  1  0  0  0  0
 33 31  1  0  0  0  0
 33 42  1  1  0  0  0
 35 33  1  0  0  0  0
 35 36  1  6  0  0  0
 37 35  1  0  0  0  0
 37 38  1  1  0  0  0
 37 39  1  0  0  0  0
 39 40  1  0  0  0  0
 39 41  1  1  0  0  0
 41 34  1  0  0  0  0
M  END
>  <CHROM.1>
166.23684439,-63.10962335,-147.58606897,-177.55678358,102.62529341,164.66903688
-178.79100094,92.93230952,-61.89433663,1.83282505,13.68277421,4.28368048
-2.89250801,-0.72221377,-2.47768204

>  <Name>
2et4_lig

>  <RI>
0

>  <Rbt.Current_Directory>
/home/itssahil/PROJECTS/Mol_Feturizer/New_Systems/rnas/2et4

>  <Rbt.Executable>
rbdock ($Id: //depot/dev/client3/rdock/2013.1/src/exe/rbdock.cxx#4 $)

>  <Rbt.Library>
libRbt.so (2013.1, Build901 2013/11/27)

>  <Rbt.Parameter_File>
/export/apps/rDock/src/rDock_2013.1_src/data/scripts/dock_solv.prm

>  <Rbt.Receptor>
prm/blind_docking_20.prm

>  <SCORE>
41.1223

>  <SCORE.INTER>
19.1438

>  <SCORE.INTER.CONST>
1

>  <SCORE.INTER.POLAR>
-1.34982

>  <SCORE.INTER.ROT>
9

>  <SCORE.INTER.SOLV>
29.0743

>  <SCORE.INTER.VDW>
-2.02953

>  <SCORE.INTER.norm>
0.455804

>  <SCORE.INTRA>
3.5008

>  <SCORE.INTRA.DIHEDRAL>
-5.47285

>  <SCORE.INTRA.DIHEDRAL.0>
21.6909

>  <SCORE.INTRA.POLAR>
0

>  <SCORE.INTRA.POLAR.0>
0

>  <SCORE.INTRA.REPUL>
0.0146041

>  <SCORE.INTRA.REPUL.0>
0

>  <SCORE.INTRA.SOLV>
3.22269

>  <SCORE.INTRA.SOLV.lig_0>
-116.606

>  <SCORE.INTRA.VDW>
4.55286

>  <SCORE.INTRA.VDW.0>
-6.01229

>  <SCORE.INTRA.norm>
0.0833524

>  <SCORE.RESTR>
18.4777

>  <SCORE.RESTR.CAVITY>
18.4777

>  <SCORE.RESTR.norm>
0.439945

>  <SCORE.SYSTEM>
0

>  <SCORE.SYSTEM.CONST>
0

>  <SCORE.SYSTEM.DIHEDRAL>
0

>  <SCORE.SYSTEM.SOLV>
0

>  <SCORE.SYSTEM.norm>
0

>  <SCORE.heavy>
42

>  <SCORE.norm>
0.979101

>  <RMSD>
16.248

$$$$
2et4_lig
 OpenBabel11021811423D
libRbt.so/2013.1/901 2013/11/27
 42 45  0  0  0  0  0  0  0  0999 V2000
    0.0522   14.5264    7.2968 C   0  0  2  0  0  0  0  0  0  0  0  0
   -0.0905   13.4477    6.3704 O   0  0  0  0  0  0  0  0  0  0  0  0
    0.4643   13.9087    8.6574 C   0  0  2  0  0  0  0  0  0  0  0  0
    1.6771   13.1400    8.5396 N   0  0  0  0  0  0  0  0  0  0  0  0
   -0.7029   13.0333    9.1983 C   0  0  1  0  0  0  0  0  0  0  0  0
   -0.3361   12.4925   10.4290 O   0  0  0  0  0  0  0  0  0  0  0  0
   -1.9807   13.9314    9.3020 C   0  0  2  0  0  0  0  0  0  0  0  0
   -3.0701   13.1732    9.7836 O   0  0  0  0  0  0  0  0  0  0  0  0
   -2.3479   14.5369    7.9134 C   0  0  2  0  0  0  0  0  0  0  0  0
   -1.2246   15.2827    7.4354 O   0  0  0  0  0  0  0  0  0  0  0  0
   -3.5973   15.4744    7.9870 C   0  0  0  0  0  0  0  0  0  0  0  0
   -4.0344   15.8883    6.6991 N   0  0  0  0  0  0  0  0  0  0  0  0
   -0.6556   12.6175    2.1696 C   0  0  2  0  0  0  0  0  0  0  0  0
   -0.6689   12.8046    0.7134 N   0  0  0  0  0  0  0  0  0  0  0  0
   -1.6086   13.7294    2.8681 C   0  0  0  0  0  0  0  0  0  0  0  0
   -1.5790   13.5320    4.4389 C   0  0  2  0  0  0  0  0  0  0  0  0
   -2.4131   14.5396    5.1175 N   0  0  0  0  0  0  0  0  0  0  0  0
   -0.1028   13.6437    4.9497 C   0  0  2  0  0  0  0  0  0  0  0  0
    0.8104   12.5855    4.2468 C   0  0  2  0  0  0  0  0  0  0  0  0
    2.1459   12.7810    4.7734 O   0  0  0  0  0  0  0  0  0  0  0  0
    0.7763   12.7986    2.6993 C   0  0  1  0  0  0  0  0  0  0  0  0
    1.5823   11.8393    2.1030 O   0  0  0  0  0  0  0  0  0  0  0  0
    2.9787   13.7983    4.4450 C   0  0  1  0  0  0  0  0  0  0  0  0
    3.3947   13.7165    2.9531 C   0  0  2  0  0  0  0  0  0  0  0  0
    4.4761   12.8585    2.7310 O   0  0  0  0  0  0  0  0  0  0  0  0
    3.5655   15.1962    2.6631 C   0  0  1  0  0  0  0  0  0  0  0  0
    2.4659   15.9297    3.4440 C   0  0  2  0  0  0  0  0  0  0  0  0
    2.4187   15.1273    4.6236 O   0  0  0  0  0  0  0  0  0  0  0  0
    1.0709   16.0066    2.7349 C   0  0  0  0  0  0  0  0  0  0  0  0
    1.2908   16.5324    1.3992 O   0  0  0  0  0  0  0  0  0  0  0  0
    6.0222   15.1440    2.3744 C   0  0  2  0  0  0  0  0  0  0  0  0
    4.9235   15.5879    3.1226 O   0  0  0  0  0  0  0  0  0  0  0  0
    6.9246   16.3618    1.8924 C   0  0  1  0  0  0  0  0  0  0  0  0
    5.0182   11.8669   -0.4824 N   0  0  0  0  0  0  0  0  0  0  0  0
    8.1403   15.7380    1.0266 C   0  0  1  0  0  0  0  0  0  0  0  0
    8.8993   14.7686    1.9107 O   0  0  0  0  0  0  0  0  0  0  0  0
    7.5538   14.9716   -0.2753 C   0  0  2  0  0  0  0  0  0  0  0  0
    6.8423   15.9191   -1.1073 O   0  0  0  0  0  0  0  0  0  0  0  0
    6.6060   13.7561    0.2577 C   0  0  1  0  0  0  0  0  0  0  0  0
    5.5328   14.3146    1.1511 O   0  0  0  0  0  0  0  0  0  0  0  0
    5.9550   12.9475   -0.9186 C   0  0  0  0  0  0  0  0  0  0  0  0
    6.0934   17.3428    1.1194 N   0  0  0  0  0  0  0  0  0  0  0  0
  1  2  1  6  0  0  0
  1  3  1  0  0  0  0
  1 10  1  0  0  0  0
  3  4  1  6  0  0  0
  3  5  1  0  0  0  0
  5  6  1  1  0  0  0
  5  7  1  0  0  0  0
  7  8  1  6  0  0  0
  7  9  1  0  0  0  0
  9 10  1  0  0  0  0
  9 11  1  1  0  0  0
 11 12  1  0  0  0  0
 13 14  1  6  0  0  0
 13 15  1  0  0  0  0
 13 21  1  0  0  0  0
 16 15  1  0  0  0  0
 16 17  1  1  0  0  0
 18  2  1  1  0  0  0
 18 16  1  0  0  0  0
 19 18  1  0  0  0  0
 19 20  1  1  0  0  0
 21 19  1  0  0  0  0
 21 22  1  6  0  0  0
 23 20  1  6  0  0  0
 23 24  1  0  0  0  0
 23 28  1  0  0  0  0
 24 25  1  1  0  0  0
 24 26  1  0  0  0  0
 26 27  1  0  0  0  0
 26 32  1  1  0  0  0
 27 28  1  0  0  0  0
 27 29  1  6  0  0  0
 29 30  1  0  0  0  0
 31 32  1  6  0  0  0
 31 40  1  0  0  0  0
 33 31  1  0  0  0  0
 33 42  1  6  0  0  0
 35 33  1  0  0  0  0
 35 36  1  1  0  0  0
 37 35  1  0  0  0  0
 37 38  1  6  0  0  0
 37 39  1  0  0  0  0
 39 40  1  0  0  0  0
 39 41  1  6  0  0  0
 41 34  1  0  0  0  0
M  END
>  <CHROM.1>
-162.50160543,-172.44984064,-103.48755671,-74.82400922,-65.35316867,72.08173865
-51.81733687,123.65671977,-176.89805830,2.00005021,14.22659503,4.02075072
-2.43068666,-0.15276166,-1.62980941

>  <Name>
2et4_lig

>  <RI>
0

>  <Rbt.Current_Directory>
/home/itssahil/PROJECTS/Mol_Feturizer/New_Systems/rnas/2et4

>  <Rbt.Executable>
rbdock ($Id: //depot/dev/client3/rdock/2013.1/src/exe/rbdock.cxx#4 $)

>  <Rbt.Library>
libRbt.so (2013.1, Build901 2013/11/27)

>  <Rbt.Parameter_File>
/export/apps/rDock/src/rDock_2013.1_src/data/scripts/dock_solv.prm

>  <Rbt.Receptor>
prm/blind_docking_20.prm

>  <SCORE>
24.3539

>  <SCORE.INTER>
2.87799

>  <SCORE.INTER.CONST>
1

>  <SCORE.INTER.POLAR>
-0.640413

>  <SCORE.INTER.ROT>
9

>  <SCORE.INTER.SOLV>
32.3702

>  <SCORE.INTER.VDW>
-16.3367

>  <SCORE.INTER.norm>
0.0685237

>  <SCORE.INTRA>
4.40131

>  <SCORE.INTRA.DIHEDRAL>
-4.78613

>  <SCORE.INTRA.DIHEDRAL.0>
21.6909

>  <SCORE.INTRA.POLAR>
0

>  <SCORE.INTRA.POLAR.0>
0

>  <SCORE.INTRA.REPUL>
0.0401844

>  <SCORE.INTRA.REPUL.0>
0

>  <SCORE.INTRA.SOLV>
4.67663

>  <SCORE.INTRA.SOLV.lig_0>
-116.606

>  <SCORE.INTRA.VDW>
4.25513

>  <SCORE.INTRA.VDW.0>
-6.01229

>  <SCORE.INTRA.norm>
0.104793

>  <SCORE.RESTR>
17.0746

>  <SCORE.RESTR.CAVITY>
17.0746

>  <SCORE.RESTR.norm>
0.406537

>  <SCORE.SYSTEM>
0

>  <SCORE.SYSTEM.CONST>
0

>  <SCORE.SYSTEM.DIHEDRAL>
0

>  <SCORE.SYSTEM.SOLV>
0

>  <SCORE.SYSTEM.norm>
0

>  <SCORE.heavy>
42

>  <SCORE.norm>
0.579854

>  <RMSD>
16.257

$$$$
2et4_lig
 OpenBabel11021811423D
libRbt.so/2013.1/901 2013/11/27
 42 45  0  0  0  0  0  0  0  0999 V2000
    0.1097   13.9635    7.2025 C   0  0  2  0  0  0  0  0  0  0  0  0
   -0.0204   12.5459    7.0767 O   0  0  0  0  0  0  0  0  0  0  0  0
    0.2954   14.2734    8.7099 C   0  0  2  0  0  0  0  0  0  0  0  0
    1.4365   13.5807    9.2519 N   0  0  0  0  0  0  0  0  0  0  0  0
   -1.0050   13.8946    9.4758 C   0  0  1  0  0  0  0  0  0  0  0  0
   -0.8413   14.1892   10.8279 O   0  0  0  0  0  0  0  0  0  0  0  0
   -2.1966   14.6831    8.8368 C   0  0  2  0  0  0  0  0  0  0  0  0
   -3.4020   14.3631    9.4986 O   0  0  0  0  0  0  0  0  0  0  0  0
   -2.3358   14.3467    7.3211 C   0  0  2  0  0  0  0  0  0  0  0  0
   -1.0983   14.6588    6.6746 O   0  0  0  0  0  0  0  0  0  0  0  0
   -3.4919   15.1491    6.6394 C   0  0  0  0  0  0  0  0  0  0  0  0
   -3.7600   14.6889    5.3213 N   0  0  0  0  0  0  0  0  0  0  0  0
   -0.6278    9.5369    4.0384 C   0  0  2  0  0  0  0  0  0  0  0  0
   -1.1212    8.8830    2.8200 N   0  0  0  0  0  0  0  0  0  0  0  0
   -1.8828    9.9364    4.9858 C   0  0  0  0  0  0  0  0  0  0  0  0
   -1.3457   10.6539    6.2912 C   0  0  2  0  0  0  0  0  0  0  0  0
   -2.4565   11.0583    7.1712 N   0  0  0  0  0  0  0  0  0  0  0  0
   -0.5123   11.9163    5.8857 C   0  0  2  0  0  0  0  0  0  0  0  0
    0.6768   11.5202    4.9493 C   0  0  2  0  0  0  0  0  0  0  0  0
    1.3696   12.7500    4.6227 O   0  0  0  0  0  0  0  0  0  0  0  0
    0.1300   10.8210    3.6634 C   0  0  1  0  0  0  0  0  0  0  0  0
    1.2054   10.4692    2.8601 O   0  0  0  0  0  0  0  0  0  0  0  0
    2.1439   12.9486    3.5284 C   0  0  1  0  0  0  0  0  0  0  0  0
    1.5101   14.0020    2.5828 C   0  0  2  0  0  0  0  0  0  0  0  0
    0.5559   13.4589    1.7171 O   0  0  0  0  0  0  0  0  0  0  0  0
    2.7753   14.5975    1.9935 C   0  0  1  0  0  0  0  0  0  0  0  0
    3.8126   14.6398    3.1244 C   0  0  2  0  0  0  0  0  0  0  0  0
    3.4856   13.4310    3.8096 O   0  0  0  0  0  0  0  0  0  0  0  0
    3.7304   15.8864    4.0699 C   0  0  0  0  0  0  0  0  0  0  0  0
    2.7011   15.6152    5.0579 O   0  0  0  0  0  0  0  0  0  0  0  0
    4.4309   13.9974    0.2556 C   0  0  2  0  0  0  0  0  0  0  0  0
    3.2088   13.7138    0.8799 O   0  0  0  0  0  0  0  0  0  0  0  0
    5.5636   12.9773    0.7097 C   0  0  1  0  0  0  0  0  0  0  0  0
    5.3408   18.3594    0.0345 N   0  0  0  0  0  0  0  0  0  0  0  0
    6.9244   13.4102   -0.0501 C   0  0  1  0  0  0  0  0  0  0  0  0
    6.6662   13.3625   -1.5429 O   0  0  0  0  0  0  0  0  0  0  0  0
    7.3549   14.9066    0.3992 C   0  0  2  0  0  0  0  0  0  0  0  0
    7.6048   14.9241    1.8252 O   0  0  0  0  0  0  0  0  0  0  0  0
    6.1550   15.9164   -0.0486 C   0  0  1  0  0  0  0  0  0  0  0  0
    4.8617   15.4603    0.5690 O   0  0  0  0  0  0  0  0  0  0  0  0
    6.4451   17.4041    0.3562 C   0  0  0  0  0  0  0  0  0  0  0  0
    5.6945   12.9868    2.2042 N   0  0  0  0  0  0  0  0  0  0  0  0
  1  2  1  1  0  0  0
  1  3  1  0  0  0  0
  1 10  1  0  0  0  0
  3  4  1  1  0  0  0
  3  5  1  0  0  0  0
  5  6  1  1  0  0  0
  5  7  1  0  0  0  0
  7  8  1  1  0  0  0
  7  9  1  0  0  0  0
  9 10  1  0  0  0  0
  9 11  1  6  0  0  0
 11 12  1  0  0  0  0
 13 14  1  6  0  0  0
 13 15  1  0  0  0  0
 13 21  1  0  0  0  0
 16 15  1  0  0  0  0
 16 17  1  1  0  0  0
 18  2  1  1  0  0  0
 18 16  1  0  0  0  0
 19 18  1  0  0  0  0
 19 20  1  6  0  0  0
 21 19  1  0  0  0  0
 21 22  1  6  0  0  0
 23 20  1  1  0  0  0
 23 24  1  0  0  0  0
 23 28  1  0  0  0  0
 24 25  1  6  0  0  0
 24 26  1  0  0  0  0
 26 27  1  0  0  0  0
 26 32  1  6  0  0  0
 27 28  1  0  0  0  0
 27 29  1  1  0  0  0
 29 30  1  0  0  0  0
 31 32  1  1  0  0  0
 31 40  1  0  0  0  0
 33 31  1  0  0  0  0
 33 42  1  1  0  0  0
 35 33  1  0  0  0  0
 35 36  1  6  0  0  0
 37 35  1  0  0  0  0
 37 38  1  1  0  0  0
 37 39  1  0  0  0  0
 39 40  1  0  0  0  0
 39 41  1  1  0  0  0
 41 34  1  0  0  0  0
M  END
>  <CHROM.1>
165.08438932,-170.49628903,-144.84226781,-156.41816112,114.11192790,-174.38613740
82.53875107,104.40851607,-176.81678127,1.68061507,13.58522497,4.18027746
-2.80835263,-0.71338448,-2.42406385

>  <Name>
2et4_lig

>  <RI>
0

>  <Rbt.Current_Directory>
/home/itssahil/PROJECTS/Mol_Feturizer/New_Systems/rnas/2et4

>  <Rbt.Executable>
rbdock ($Id: //depot/dev/client3/rdock/2013.1/src/exe/rbdock.cxx#4 $)

>  <Rbt.Library>
libRbt.so (2013.1, Build901 2013/11/27)

>  <Rbt.Parameter_File>
/export/apps/rDock/src/rDock_2013.1_src/data/scripts/dock_solv.prm

>  <Rbt.Receptor>
prm/blind_docking_20.prm

>  <SCORE>
29.0944

>  <SCORE.INTER>
4.71081

>  <SCORE.INTER.CONST>
1

>  <SCORE.INTER.POLAR>
-1.0715

>  <SCORE.INTER.ROT>
9

>  <SCORE.INTER.SOLV>
29.6188

>  <SCORE.INTER.VDW>
-12.7607

>  <SCORE.INTER.norm>
0.112162

>  <SCORE.INTRA>
3.95431

>  <SCORE.INTRA.DIHEDRAL>
1.59125

>  <SCORE.INTRA.DIHEDRAL.0>
21.6909

>  <SCORE.INTRA.POLAR>
0

>  <SCORE.INTRA.POLAR.0>
0

>  <SCORE.INTRA.REPUL>
0

>  <SCORE.INTRA.REPUL.0>
0

>  <SCORE.INTRA.SOLV>
1.63863

>  <SCORE.INTRA.SOLV.lig_0>
-116.606

>  <SCORE.INTRA.VDW>
2.33937

>  <SCORE.INTRA.VDW.0>
-6.01229

>  <SCORE.INTRA.norm>
0.0941503

>  <SCORE.RESTR>
20.4293

>  <SCORE.RESTR.CAVITY>
20.4293

>  <SCORE.RESTR.norm>
0.486411

>  <SCORE.SYSTEM>
0

>  <SCORE.SYSTEM.CONST>
0

>  <SCORE.SYSTEM.DIHEDRAL>
0

>  <SCORE.SYSTEM.SOLV>
0

>  <SCORE.SYSTEM.norm>
0

>  <SCORE.heavy>
42

>  <SCORE.norm>
0.692724

>  <RMSD>
16.267

$$$$
2et4_lig
 OpenBabel11021811423D
libRbt.so/2013.1/901 2013/11/27
 42 45  0  0  0  0  0  0  0  0999 V2000
    0.1825   14.0047    7.1748 C   0  0  2  0  0  0  0  0  0  0  0  0
    0.0675   12.5909    7.0010 O   0  0  0  0  0  0  0  0  0  0  0  0
    0.3284   14.2678    8.6954 C   0  0  2  0  0  0  0  0  0  0  0  0
    1.4616   13.5670    9.2434 N   0  0  0  0  0  0  0  0  0  0  0  0
   -0.9873   13.8549    9.4163 C   0  0  1  0  0  0  0  0  0  0  0  0
   -0.8593   14.1076   10.7807 O   0  0  0  0  0  0  0  0  0  0  0  0
   -2.1693   14.6543    8.7732 C   0  0  2  0  0  0  0  0  0  0  0  0
   -3.3879   14.3042    9.3943 O   0  0  0  0  0  0  0  0  0  0  0  0
   -2.2683   14.3652    7.2446 C   0  0  2  0  0  0  0  0  0  0  0  0
   -1.0180   14.7072    6.6392 O   0  0  0  0  0  0  0  0  0  0  0  0
   -3.4140   15.1801    6.5600 C   0  0  0  0  0  0  0  0  0  0  0  0
   -3.4888   14.9307    5.1624 N   0  0  0  0  0  0  0  0  0  0  0  0
   -0.6930    9.6482    3.9324 C   0  0  2  0  0  0  0  0  0  0  0  0
   -1.2227    9.0316    2.7097 N   0  0  0  0  0  0  0  0  0  0  0  0
   -1.9231   10.0926    4.8924 C   0  0  0  0  0  0  0  0  0  0  0  0
   -1.3465   10.7698    6.2024 C   0  0  2  0  0  0  0  0  0  0  0  0
   -2.4326   11.2135    7.0941 N   0  0  0  0  0  0  0  0  0  0  0  0
   -0.4594   11.9980    5.8061 C   0  0  2  0  0  0  0  0  0  0  0  0
    0.7051   11.5598    4.8574 C   0  0  2  0  0  0  0  0  0  0  0  0
    1.4507   12.7610    4.5405 O   0  0  0  0  0  0  0  0  0  0  0  0
    0.1197   10.9011    3.5672 C   0  0  1  0  0  0  0  0  0  0  0  0
    1.1734   10.5108    2.7530 O   0  0  0  0  0  0  0  0  0  0  0  0
    2.3407   12.8885    3.5266 C   0  0  1  0  0  0  0  0  0  0  0  0
    1.7791   13.8015    2.4057 C   0  0  2  0  0  0  0  0  0  0  0  0
    0.9595   13.1194    1.5012 O   0  0  0  0  0  0  0  0  0  0  0  0
    3.0786   14.4028    1.9030 C   0  0  1  0  0  0  0  0  0  0  0  0
    3.9707   14.6195    3.1334 C   0  0  2  0  0  0  0  0  0  0  0  0
    3.6170   13.4715    3.9046 O   0  0  0  0  0  0  0  0  0  0  0  0
    3.7221   15.9505    3.9217 C   0  0  0  0  0  0  0  0  0  0  0  0
    2.8205   15.6443    5.0182 O   0  0  0  0  0  0  0  0  0  0  0  0
    4.7901   13.8522    0.2033 C   0  0  2  0  0  0  0  0  0  0  0  0
    3.6797   13.4344    0.9493 O   0  0  0  0  0  0  0  0  0  0  0  0
    6.1375   13.2250    0.7698 C   0  0  1  0  0  0  0  0  0  0  0  0
    6.2761   18.1241    0.8677 N   0  0  0  0  0  0  0  0  0  0  0  0
    7.3454   13.7889   -0.1466 C   0  0  1  0  0  0  0  0  0  0  0  0
    7.0762   13.3838   -1.5822 O   0  0  0  0  0  0  0  0  0  0  0  0
    7.4248   15.4028   -0.0224 C   0  0  2  0  0  0  0  0  0  0  0  0
    7.6915   15.7636    1.3541 O   0  0  0  0  0  0  0  0  0  0  0  0
    6.0146   16.0064   -0.5763 C   0  0  1  0  0  0  0  0  0  0  0  0
    4.8750   15.4068    0.2008 O   0  0  0  0  0  0  0  0  0  0  0  0
    5.9587   17.5716   -0.4849 C   0  0  0  0  0  0  0  0  0  0  0  0
    6.2916   13.5655    2.2228 N   0  0  0  0  0  0  0  0  0  0  0  0
  1  2  1  1  0  0  0
  1  3  1  0  0  0  0
  1 10  1  0  0  0  0
  3  4  1  1  0  0  0
  3  5  1  0  0  0  0
  5  6  1  1  0  0  0
  5  7  1  0  0  0  0
  7  8  1  1  0  0  0
  7  9  1  0  0  0  0
  9 10  1  0  0  0  0
  9 11  1  6  0  0  0
 11 12  1  0  0  0  0
 13 14  1  6  0  0  0
 13 15  1  0  0  0  0
 13 21  1  0  0  0  0
 16 15  1  0  0  0  0
 16 17  1  1  0  0  0
 18  2  1  1  0  0  0
 18 16  1  0  0  0  0
 19 18  1  0  0  0  0
 19 20  1  6  0  0  0
 21 19  1  0  0  0  0
 21 22  1  6  0  0  0
 23 20  1  1  0  0  0
 23 24  1  0  0  0  0
 23 28  1  0  0  0  0
 24 25  1  6  0  0  0
 24 26  1  0  0  0  0
 26 27  1  0  0  0  0
 26 32  1  6  0  0  0
 27 28  1  0  0  0  0
 27 29  1  1  0  0  0
 29 30  1  0  0  0  0
 31 32  1  1  0  0  0
 31 40  1  0  0  0  0
 33 31  1  0  0  0  0
 33 42  1  1  0  0  0
 35 33  1  0  0  0  0
 35 36  1  6  0  0  0
 37 35  1  0  0  0  0
 37 38  1  1  0  0  0
 37 39  1  0  0  0  0
 39 40  1  0  0  0  0
 39 41  1  1  0  0  0
 41 34  1  0  0  0  0
M  END
>  <CHROM.1>
161.52905381,179.07642843,-140.73833831,-164.16770699,109.34791722,170.87193814
95.70937354,104.11627432,-52.60022151,1.81391025,13.64473641,4.08260950,-2.79137168
-0.69891336,-2.37697995

>  <Name>
2et4_lig

>  <RI>
0

>  <Rbt.Current_Directory>
/home/itssahil/PROJECTS/Mol_Feturizer/New_Systems/rnas/2et4

>  <Rbt.Executable>
rbdock ($Id: //depot/dev/client3/rdock/2013.1/src/exe/rbdock.cxx#4 $)

>  <Rbt.Library>
libRbt.so (2013.1, Build901 2013/11/27)

>  <Rbt.Parameter_File>
/export/apps/rDock/src/rDock_2013.1_src/data/scripts/dock_solv.prm

>  <Rbt.Receptor>
prm/blind_docking_20.prm

>  <SCORE>
34.6062

>  <SCORE.INTER>
9.88743

>  <SCORE.INTER.CONST>
1

>  <SCORE.INTER.POLAR>
-1.04959

>  <SCORE.INTER.ROT>
9

>  <SCORE.INTER.SOLV>
31.2996

>  <SCORE.INTER.VDW>
-9.94292

>  <SCORE.INTER.norm>
0.235415

>  <SCORE.INTRA>
4.98893

>  <SCORE.INTRA.DIHEDRAL>
2.95838

>  <SCORE.INTRA.DIHEDRAL.0>
21.6909

>  <SCORE.INTRA.POLAR>
0

>  <SCORE.INTRA.POLAR.0>
0

>  <SCORE.INTRA.REPUL>
0.000824255

>  <SCORE.INTRA.REPUL.0>
0

>  <SCORE.INTRA.SOLV>
3.55385

>  <SCORE.INTRA.SOLV.lig_0>
-116.606

>  <SCORE.INTRA.VDW>
1.72869

>  <SCORE.INTRA.VDW.0>
-6.01229

>  <SCORE.INTRA.norm>
0.118784

>  <SCORE.RESTR>
19.7298

>  <SCORE.RESTR.CAVITY>
19.7298

>  <SCORE.RESTR.norm>
0.469758

>  <SCORE.SYSTEM>
0

>  <SCORE.SYSTEM.CONST>
0

>  <SCORE.SYSTEM.DIHEDRAL>
0

>  <SCORE.SYSTEM.SOLV>
0

>  <SCORE.SYSTEM.norm>
0

>  <SCORE.heavy>
42

>  <SCORE.norm>
0.823957

>  <RMSD>
16.270

$$$$
2et4_lig
 OpenBabel11021811423D
libRbt.so/2013.1/901 2013/11/27
 42 45  0  0  0  0  0  0  0  0999 V2000
    0.1439   14.1108    7.2029 C   0  0  2  0  0  0  0  0  0  0  0  0
    0.3584   12.7300    6.9036 O   0  0  0  0  0  0  0  0  0  0  0  0
    0.2866   14.2733    8.7378 C   0  0  2  0  0  0  0  0  0  0  0  0
    1.5748   13.8197    9.1964 N   0  0  0  0  0  0  0  0  0  0  0  0
   -0.8635   13.4997    9.4450 C   0  0  1  0  0  0  0  0  0  0  0  0
   -0.7422   13.6607   10.8238 O   0  0  0  0  0  0  0  0  0  0  0  0
   -2.2263   14.0449    8.9016 C   0  0  2  0  0  0  0  0  0  0  0  0
   -3.3012   13.3636    9.5131 O   0  0  0  0  0  0  0  0  0  0  0  0
   -2.3177   13.8692    7.3554 C   0  0  2  0  0  0  0  0  0  0  0  0
   -1.2096   14.5489    6.7581 O   0  0  0  0  0  0  0  0  0  0  0  0
   -3.6508   14.4415    6.7714 C   0  0  0  0  0  0  0  0  0  0  0  0
   -3.8339   15.8133    7.0966 N   0  0  0  0  0  0  0  0  0  0  0  0
   -0.3439    9.9737    3.6533 C   0  0  2  0  0  0  0  0  0  0  0  0
   -1.0234    9.2789    2.5528 N   0  0  0  0  0  0  0  0  0  0  0  0
   -1.1906    9.7778    5.0234 C   0  0  0  0  0  0  0  0  0  0  0  0
   -0.4610   10.5410    6.2034 C   0  0  2  0  0  0  0  0  0  0  0  0
   -1.2111   10.4109    7.4652 N   0  0  0  0  0  0  0  0  0  0  0  0
   -0.3172   12.0558    5.8331 C   0  0  2  0  0  0  0  0  0  0  0  0
    0.4758   12.2284    4.4955 C   0  0  2  0  0  0  0  0  0  0  0  0
    0.5396   13.6525    4.2367 O   0  0  0  0  0  0  0  0  0  0  0  0
   -0.2608   11.4767    3.3406 C   0  0  1  0  0  0  0  0  0  0  0  0
    0.4712   11.6352    2.1724 O   0  0  0  0  0  0  0  0  0  0  0  0
    1.5839   14.3013    3.6668 C   0  0  1  0  0  0  0  0  0  0  0  0
    2.9133   13.5429    3.9177 C   0  0  2  0  0  0  0  0  0  0  0  0
    3.4943   13.8474    5.1525 O   0  0  0  0  0  0  0  0  0  0  0  0
    3.6557   13.9198    2.6490 C   0  0  1  0  0  0  0  0  0  0  0  0
    2.6167   13.9430    1.5190 C   0  0  2  0  0  0  0  0  0  0  0  0
    1.4898   14.4614    2.2255 O   0  0  0  0  0  0  0  0  0  0  0  0
    2.3043   12.5561    0.8604 C   0  0  0  0  0  0  0  0  0  0  0  0
    3.5713   11.9696    0.4608 O   0  0  0  0  0  0  0  0  0  0  0  0
    4.9024   15.8733    1.7824 C   0  0  2  0  0  0  0  0  0  0  0  0
    4.2633   15.2583    2.8675 O   0  0  0  0  0  0  0  0  0  0  0  0
    4.8452   14.9584    0.4826 C   0  0  1  0  0  0  0  0  0  0  0  0
    9.6172   16.0415    1.3221 N   0  0  0  0  0  0  0  0  0  0  0  0
    5.6263   15.7519   -0.6908 C   0  0  1  0  0  0  0  0  0  0  0  0
    4.9411   17.0888   -0.8924 O   0  0  0  0  0  0  0  0  0  0  0  0
    7.1762   15.9714   -0.2711 C   0  0  2  0  0  0  0  0  0  0  0  0
    7.8104   14.6820   -0.0938 O   0  0  0  0  0  0  0  0  0  0  0  0
    7.1927   16.8799    1.0833 C   0  0  1  0  0  0  0  0  0  0  0  0
    6.3794   16.2004    2.1504 O   0  0  0  0  0  0  0  0  0  0  0  0
    8.6478   17.1436    1.6070 C   0  0  0  0  0  0  0  0  0  0  0  0
    5.4353   13.6107    0.7764 N   0  0  0  0  0  0  0  0  0  0  0  0
  1  2  1  1  0  0  0
  1  3  1  0  0  0  0
  1 10  1  0  0  0  0
  3  4  1  1  0  0  0
  3  5  1  0  0  0  0
  5  6  1  1  0  0  0
  5  7  1  0  0  0  0
  7  8  1  1  0  0  0
  7  9  1  0  0  0  0
  9 10  1  0  0  0  0
  9 11  1  6  0  0  0
 11 12  1  0  0  0  0
 13 14  1  6  0  0  0
 13 15  1  0  0  0  0
 13 21  1  0  0  0  0
 16 15  1  0  0  0  0
 16 17  1  1  0  0  0
 18  2  1  1  0  0  0
 18 16  1  0  0  0  0
 19 18  1  0  0  0  0
 19 20  1  6  0  0  0
 21 19  1  0  0  0  0
 21 22  1  6  0  0  0
 23 20  1  6  0  0  0
 23 24  1  0  0  0  0
 23 28  1  0  0  0  0
 24 25  1  1  0  0  0
 24 26  1  0  0  0  0
 26 27  1  0  0  0  0
 26 32  1  1  0  0  0
 27 28  1  0  0  0  0
 27 29  1  1  0  0  0
 29 30  1  0  0  0  0
 31 32  1  1  0  0  0
 31 40  1  0  0  0  0
 33 31  1  0  0  0  0
 33 42  1  1  0  0  0
 35 33  1  0  0  0  0
 35 36  1  1  0  0  0
 37 35  1  0  0  0  0
 37 38  1  1  0  0  0
 37 39  1  0  0  0  0
 39 40  1  0  0  0  0
 39 41  1  1  0  0  0
 41 34  1  0  0  0  0
M  END
>  <CHROM.1>
146.74017073,56.63793125,-151.09677391,144.81645525,-26.71202525,-174.27761984
-52.59866953,-0.29106269,-31.26942886,1.90339236,13.75770569,4.14256001,-2.71935137
-0.64599527,-2.15563687

>  <Name>
2et4_lig

>  <RI>
0

>  <Rbt.Current_Directory>
/home/itssahil/PROJECTS/Mol_Feturizer/New_Systems/rnas/2et4

>  <Rbt.Executable>
rbdock ($Id: //depot/dev/client3/rdock/2013.1/src/exe/rbdock.cxx#4 $)

>  <Rbt.Library>
libRbt.so (2013.1, Build901 2013/11/27)

>  <Rbt.Parameter_File>
/export/apps/rDock/src/rDock_2013.1_src/data/scripts/dock_solv.prm

>  <Rbt.Receptor>
prm/blind_docking_20.prm

>  <SCORE>
42.4594

>  <SCORE.INTER>
7.05501

>  <SCORE.INTER.CONST>
1

>  <SCORE.INTER.POLAR>
-1.21265

>  <SCORE.INTER.ROT>
9

>  <SCORE.INTER.SOLV>
30.739

>  <SCORE.INTER.VDW>
-11.1008

>  <SCORE.INTER.norm>
0.167976

>  <SCORE.INTRA>
17.6912

>  <SCORE.INTRA.DIHEDRAL>
4.82958

>  <SCORE.INTRA.DIHEDRAL.0>
21.6909

>  <SCORE.INTRA.POLAR>
0

>  <SCORE.INTRA.POLAR.0>
0

>  <SCORE.INTRA.REPUL>
0

>  <SCORE.INTRA.REPUL.0>
0

>  <SCORE.INTRA.SOLV>
4.82221

>  <SCORE.INTRA.SOLV.lig_0>
-116.606

>  <SCORE.INTRA.VDW>
12.8653

>  <SCORE.INTRA.VDW.0>
-6.01229

>  <SCORE.INTRA.norm>
0.421219

>  <SCORE.RESTR>
17.7132

>  <SCORE.RESTR.CAVITY>
17.7132

>  <SCORE.RESTR.norm>
0.421742

>  <SCORE.SYSTEM>
0

>  <SCORE.SYSTEM.CONST>
0

>  <SCORE.SYSTEM.DIHEDRAL>
0

>  <SCORE.SYSTEM.SOLV>
0

>  <SCORE.SYSTEM.norm>
0

>  <SCORE.heavy>
42

>  <SCORE.norm>
1.01094

>  <RMSD>
16.291

$$$$
2et4_lig
 OpenBabel11021811423D
libRbt.so/2013.1/901 2013/11/27
 42 45  0  0  0  0  0  0  0  0999 V2000
   -0.4603   14.1688    6.2312 C   0  0  2  0  0  0  0  0  0  0  0  0
   -0.6729   12.7838    5.9504 O   0  0  0  0  0  0  0  0  0  0  0  0
    0.7132   14.2556    7.2402 C   0  0  2  0  0  0  0  0  0  0  0  0
    1.9004   13.6261    6.7206 N   0  0  0  0  0  0  0  0  0  0  0  0
    0.2806   13.6085    8.5876 C   0  0  1  0  0  0  0  0  0  0  0  0
    1.3316   13.7024    9.4978 O   0  0  0  0  0  0  0  0  0  0  0  0
   -1.0075   14.3414    9.0910 C   0  0  2  0  0  0  0  0  0  0  0  0
   -1.4408   13.7797   10.3118 O   0  0  0  0  0  0  0  0  0  0  0  0
   -2.1534   14.2354    8.0395 C   0  0  2  0  0  0  0  0  0  0  0  0
   -1.6866   14.7907    6.8065 O   0  0  0  0  0  0  0  0  0  0  0  0
   -3.4447   14.9928    8.4914 C   0  0  0  0  0  0  0  0  0  0  0  0
   -3.9600   14.4907    9.7177 N   0  0  0  0  0  0  0  0  0  0  0  0
   -0.6337    9.9890    2.6577 C   0  0  2  0  0  0  0  0  0  0  0  0
   -0.7565    9.4573    1.2946 N   0  0  0  0  0  0  0  0  0  0  0  0
   -2.0613   10.5950    3.1341 C   0  0  0  0  0  0  0  0  0  0  0  0
   -1.9193   11.1798    4.5988 C   0  0  2  0  0  0  0  0  0  0  0  0
   -3.1893   11.7654    5.0632 N   0  0  0  0  0  0  0  0  0  0  0  0
   -0.8001   12.2752    4.6155 C   0  0  2  0  0  0  0  0  0  0  0  0
    0.5635   11.6843    4.1264 C   0  0  2  0  0  0  0  0  0  0  0  0
    1.5198   12.7721    4.1648 O   0  0  0  0  0  0  0  0  0  0  0  0
    0.4085   11.1190    2.6781 C   0  0  1  0  0  0  0  0  0  0  0  0
    1.6272   10.5903    2.2770 O   0  0  0  0  0  0  0  0  0  0  0  0
    2.5154   12.9748    3.2682 C   0  0  1  0  0  0  0  0  0  0  0  0
    2.0566   13.9281    2.1341 C   0  0  2  0  0  0  0  0  0  0  0  0
    1.3686   13.2710    1.1094 O   0  0  0  0  0  0  0  0  0  0  0  0
    3.3848   14.5888    1.8146 C   0  0  1  0  0  0  0  0  0  0  0  0
    4.1226   14.7667    3.1491 C   0  0  2  0  0  0  0  0  0  0  0  0
    3.7204   13.5719    3.8189 O   0  0  0  0  0  0  0  0  0  0  0  0
    3.7422   16.0488    3.9653 C   0  0  0  0  0  0  0  0  0  0  0  0
    3.0040   16.9274    3.0752 O   0  0  0  0  0  0  0  0  0  0  0  0
    5.2598   14.1936    0.2494 C   0  0  2  0  0  0  0  0  0  0  0  0
    4.1224   13.6865    0.8923 O   0  0  0  0  0  0  0  0  0  0  0  0
    6.5929   13.5754    0.8581 C   0  0  1  0  0  0  0  0  0  0  0  0
    5.0130   18.5661   -0.5433 N   0  0  0  0  0  0  0  0  0  0  0  0
    7.8323   14.2434    0.0617 C   0  0  1  0  0  0  0  0  0  0  0  0
    7.6687   13.9304   -1.4124 O   0  0  0  0  0  0  0  0  0  0  0  0
    7.8409   15.8465    0.2992 C   0  0  2  0  0  0  0  0  0  0  0  0
    8.0076   16.1194    1.7113 O   0  0  0  0  0  0  0  0  0  0  0  0
    6.4453   16.4380   -0.3025 C   0  0  1  0  0  0  0  0  0  0  0  0
    5.2840   15.7466    0.3573 O   0  0  0  0  0  0  0  0  0  0  0  0
    6.3228   17.9901   -0.1095 C   0  0  0  0  0  0  0  0  0  0  0  0
    6.6433   13.8188    2.3376 N   0  0  0  0  0  0  0  0  0  0  0  0
  1  2  1  1  0  0  0
  1  3  1  0  0  0  0
  1 10  1  0  0  0  0
  3  4  1  6  0  0  0
  3  5  1  0  0  0  0
  5  6  1  1  0  0  0
  5  7  1  0  0  0  0
  7  8  1  1  0  0  0
  7  9  1  0  0  0  0
  9 10  1  0  0  0  0
  9 11  1  1  0  0  0
 11 12  1  0  0  0  0
 13 14  1  6  0  0  0
 13 15  1  0  0  0  0
 13 21  1  0  0  0  0
 16 15  1  0  0  0  0
 16 17  1  6  0  0  0
 18  2  1  1  0  0  0
 18 16  1  0  0  0  0
 19 18  1  0  0  0  0
 19 20  1  6  0  0  0
 21 19  1  0  0  0  0
 21 22  1  1  0  0  0
 23 20  1  1  0  0  0
 23 24  1  0  0  0  0
 23 28  1  0  0  0  0
 24 25  1  6  0  0  0
 24 26  1  0  0  0  0
 26 27  1  0  0  0  0
 26 32  1  6  0  0  0
 27 28  1  0  0  0  0
 27 29  1  1  0  0  0
 29 30  1  0  0  0  0
 31 32  1  1  0  0  0
 31 40  1  0  0  0  0
 33 31  1  0  0  0  0
 33 42  1  1  0  0  0
 35 33  1  0  0  0  0
 35 36  1  6  0  0  0
 37 35  1  0  0  0  0
 37 38  1  1  0  0  0
 37 39  1  0  0  0  0
 39 40  1  0  0  0  0
 39 41  1  1  0  0  0
 41 34  1  0  0  0  0
M  END
>  <CHROM.1>
-131.57398125,-59.53087187,-140.23981782,-143.28752397,92.94552558,167.76530115
-13.87388565,107.25570392,-175.24298563,2.04713521,13.83534716,3.76492212
-2.72913061,-0.64025343,-2.21996744

>  <Name>
2et4_lig

>  <RI>
0

>  <Rbt.Current_Directory>
/home/itssahil/PROJECTS/Mol_Feturizer/New_Systems/rnas/2et4

>  <Rbt.Executable>
rbdock ($Id: //depot/dev/client3/rdock/2013.1/src/exe/rbdock.cxx#4 $)

>  <Rbt.Library>
libRbt.so (2013.1, Build901 2013/11/27)

>  <Rbt.Parameter_File>
/export/apps/rDock/src/rDock_2013.1_src/data/scripts/dock_solv.prm

>  <Rbt.Receptor>
prm/blind_docking_20.prm

>  <SCORE>
36.5414

>  <SCORE.INTER>
4.42968

>  <SCORE.INTER.CONST>
1

>  <SCORE.INTER.POLAR>
-0.96393

>  <SCORE.INTER.ROT>
9

>  <SCORE.INTER.SOLV>
25.5579

>  <SCORE.INTER.VDW>
-11.9531

>  <SCORE.INTER.norm>
0.105469

>  <SCORE.INTRA>
9.90371

>  <SCORE.INTRA.DIHEDRAL>
10.9677

>  <SCORE.INTRA.DIHEDRAL.0>
21.6909

>  <SCORE.INTRA.POLAR>
0

>  <SCORE.INTRA.POLAR.0>
0

>  <SCORE.INTRA.REPUL>
0

>  <SCORE.INTRA.REPUL.0>
0

>  <SCORE.INTRA.SOLV>
3.19082

>  <SCORE.INTRA.SOLV.lig_0>
-116.606

>  <SCORE.INTRA.VDW>
2.82442

>  <SCORE.INTRA.VDW.0>
-6.01229

>  <SCORE.INTRA.norm>
0.235803

>  <SCORE.RESTR>
22.208

>  <SCORE.RESTR.CAVITY>
22.208

>  <SCORE.RESTR.norm>
0.528762

>  <SCORE.SYSTEM>
0

>  <SCORE.SYSTEM.CONST>
0

>  <SCORE.SYSTEM.DIHEDRAL>
0

>  <SCORE.SYSTEM.SOLV>
0

>  <SCORE.SYSTEM.norm>
0

>  <SCORE.heavy>
42

>  <SCORE.norm>
0.870033

>  <RMSD>
16.296

$$$$
2et4_lig
 OpenBabel11021811423D
libRbt.so/2013.1/901 2013/11/27
 42 45  0  0  0  0  0  0  0  0999 V2000
   -0.1107   14.5607    7.3246 C   0  0  2  0  0  0  0  0  0  0  0  0
   -0.0535   13.5068    6.3611 O   0  0  0  0  0  0  0  0  0  0  0  0
    0.3019   13.9544    8.6902 C   0  0  2  0  0  0  0  0  0  0  0  0
    1.6118   13.3580    8.6259 N   0  0  0  0  0  0  0  0  0  0  0  0
   -0.7660   12.9129    9.1331 C   0  0  1  0  0  0  0  0  0  0  0  0
   -0.4011   12.3813   10.3684 O   0  0  0  0  0  0  0  0  0  0  0  0
   -2.1568   13.6293    9.1830 C   0  0  2  0  0  0  0  0  0  0  0  0
   -3.1602   12.7164    9.5748 O   0  0  0  0  0  0  0  0  0  0  0  0
   -2.5218   14.2305    7.7919 C   0  0  2  0  0  0  0  0  0  0  0  0
   -1.4835   15.1356    7.4054 O   0  0  0  0  0  0  0  0  0  0  0  0
   -3.8882   14.9909    7.8146 C   0  0  0  0  0  0  0  0  0  0  0  0
   -4.0315   15.8023    8.9731 N   0  0  0  0  0  0  0  0  0  0  0  0
   -0.6661   12.8456    2.1372 C   0  0  2  0  0  0  0  0  0  0  0  0
   -0.6700   13.0802    0.6878 N   0  0  0  0  0  0  0  0  0  0  0  0
   -1.5558   13.9852    2.8734 C   0  0  0  0  0  0  0  0  0  0  0  0
   -1.5362   13.7357    4.4370 C   0  0  2  0  0  0  0  0  0  0  0  0
   -2.3130   14.7653    5.1498 N   0  0  0  0  0  0  0  0  0  0  0  0
   -0.0558   13.7491    4.9476 C   0  0  2  0  0  0  0  0  0  0  0  0
    0.7971   12.6654    4.2087 C   0  0  2  0  0  0  0  0  0  0  0  0
    2.1417   12.7697    4.7382 O   0  0  0  0  0  0  0  0  0  0  0  0
    0.7739   12.9301    2.6690 C   0  0  1  0  0  0  0  0  0  0  0  0
    1.5253   11.9475    2.0401 O   0  0  0  0  0  0  0  0  0  0  0  0
    3.0221   13.7607    4.4567 C   0  0  1  0  0  0  0  0  0  0  0  0
    3.4601   13.7093    2.9698 C   0  0  2  0  0  0  0  0  0  0  0  0
    4.5082   12.8136    2.7369 O   0  0  0  0  0  0  0  0  0  0  0  0
    3.6980   15.1890    2.7314 C   0  0  1  0  0  0  0  0  0  0  0  0
    2.6169   15.9431    3.5182 C   0  0  2  0  0  0  0  0  0  0  0  0
    2.5154   15.1059    4.6700 O   0  0  0  0  0  0  0  0  0  0  0  0
    1.2388   16.1021    2.7899 C   0  0  0  0  0  0  0  0  0  0  0  0
    1.4766   16.8515    1.5688 O   0  0  0  0  0  0  0  0  0  0  0  0
    6.1528   15.1321    2.4279 C   0  0  2  0  0  0  0  0  0  0  0  0
    5.0631   15.5075    3.2251 O   0  0  0  0  0  0  0  0  0  0  0  0
    6.8625   16.4009    1.7828 C   0  0  1  0  0  0  0  0  0  0  0  0
    4.8878   13.1831   -1.3321 N   0  0  0  0  0  0  0  0  0  0  0  0
    8.0819   15.8511    0.8731 C   0  0  1  0  0  0  0  0  0  0  0  0
    9.0146   15.0568    1.7657 O   0  0  0  0  0  0  0  0  0  0  0  0
    7.5042   14.9122   -0.3148 C   0  0  2  0  0  0  0  0  0  0  0  0
    6.6250   15.6949   -1.1577 O   0  0  0  0  0  0  0  0  0  0  0  0
    6.7529   13.6448    0.3845 C   0  0  1  0  0  0  0  0  0  0  0  0
    5.6844   14.1489    1.3153 O   0  0  0  0  0  0  0  0  0  0  0  0
    6.1253   12.6674   -0.6700 C   0  0  0  0  0  0  0  0  0  0  0  0
    5.8648   17.2079    1.0054 N   0  0  0  0  0  0  0  0  0  0  0  0
  1  2  1  6  0  0  0
  1  3  1  0  0  0  0
  1 10  1  0  0  0  0
  3  4  1  6  0  0  0
  3  5  1  0  0  0  0
  5  6  1  1  0  0  0
  5  7  1  0  0  0  0
  7  8  1  6  0  0  0
  7  9  1  0  0  0  0
  9 10  1  0  0  0  0
  9 11  1  1  0  0  0
 11 12  1  0  0  0  0
 13 14  1  6  0  0  0
 13 15  1  0  0  0  0
 13 21  1  0  0  0  0
 16 15  1  0  0  0  0
 16 17  1  1  0  0  0
 18  2  1  1  0  0  0
 18 16  1  0  0  0  0
 19 18  1  0  0  0  0
 19 20  1  1  0  0  0
 21 19  1  0  0  0  0
 21 22  1  6  0  0  0
 23 20  1  6  0  0  0
 23 24  1  0  0  0  0
 23 28  1  0  0  0  0
 24 25  1  1  0  0  0
 24 26  1  0  0  0  0
 26 27  1  0  0  0  0
 26 32  1  1  0  0  0
 27 28  1  0  0  0  0
 27 29  1  6  0  0  0
 29 30  1  0  0  0  0
 31 32  1  6  0  0  0
 31 40  1  0  0  0  0
 33 31  1  0  0  0  0
 33 42  1  6  0  0  0
 35 33  1  0  0  0  0
 35 36  1  1  0  0  0
 37 35  1  0  0  0  0
 37 38  1  1  0  0  0
 37 39  1  0  0  0  0
 39 40  1  0  0  0  0
 39 41  1  6  0  0  0
 41 34  1  0  0  0  0
M  END
>  <CHROM.1>
-164.65551199,43.01152794,-91.06630426,-73.75176656,-66.90749793,76.93203553
-60.67112954,109.57286136,-73.86628420,1.99275658,14.24711321,4.04732399
-2.41954486,-0.14155590,-1.59981678

>  <Name>
2et4_lig

>  <RI>
0

>  <Rbt.Current_Directory>
/home/itssahil/PROJECTS/Mol_Feturizer/New_Systems/rnas/2et4

>  <Rbt.Executable>
rbdock ($Id: //depot/dev/client3/rdock/2013.1/src/exe/rbdock.cxx#4 $)

>  <Rbt.Library>
libRbt.so (2013.1, Build901 2013/11/27)

>  <Rbt.Parameter_File>
/export/apps/rDock/src/rDock_2013.1_src/data/scripts/dock_solv.prm

>  <Rbt.Receptor>
prm/blind_docking_20.prm

>  <SCORE>
25.3952

>  <SCORE.INTER>
2.88659

>  <SCORE.INTER.CONST>
1

>  <SCORE.INTER.POLAR>
-0.724084

>  <SCORE.INTER.ROT>
9

>  <SCORE.INTER.SOLV>
31.7567

>  <SCORE.INTER.VDW>
-15.8476

>  <SCORE.INTER.norm>
0.0687282

>  <SCORE.INTRA>
5.72791

>  <SCORE.INTRA.DIHEDRAL>
-5.90004

>  <SCORE.INTRA.DIHEDRAL.0>
21.6909

>  <SCORE.INTRA.POLAR>
0

>  <SCORE.INTRA.POLAR.0>
0

>  <SCORE.INTRA.REPUL>
0

>  <SCORE.INTRA.REPUL.0>
0

>  <SCORE.INTRA.SOLV>
5.12521

>  <SCORE.INTRA.SOLV.lig_0>
-116.606

>  <SCORE.INTRA.VDW>
6.11533

>  <SCORE.INTRA.VDW.0>
-6.01229

>  <SCORE.INTRA.norm>
0.136379

>  <SCORE.RESTR>
16.7807

>  <SCORE.RESTR.CAVITY>
16.7807

>  <SCORE.RESTR.norm>
0.39954

>  <SCORE.SYSTEM>
0

>  <SCORE.SYSTEM.CONST>
0

>  <SCORE.SYSTEM.DIHEDRAL>
0

>  <SCORE.SYSTEM.SOLV>
0

>  <SCORE.SYSTEM.norm>
0

>  <SCORE.heavy>
42

>  <SCORE.norm>
0.604648

>  <RMSD>
16.310

$$$$
2et4_lig
 OpenBabel11021811423D
libRbt.so/2013.1/901 2013/11/27
 42 45  0  0  0  0  0  0  0  0999 V2000
    0.0853   13.9268    7.2384 C   0  0  2  0  0  0  0  0  0  0  0  0
   -0.0765   12.5107    7.1353 O   0  0  0  0  0  0  0  0  0  0  0  0
    0.2819   14.2562    8.7402 C   0  0  2  0  0  0  0  0  0  0  0  0
    1.4088   13.5470    9.2904 N   0  0  0  0  0  0  0  0  0  0  0  0
   -1.0245   13.9184    9.5151 C   0  0  1  0  0  0  0  0  0  0  0  0
   -0.8506   14.2306   10.8620 O   0  0  0  0  0  0  0  0  0  0  0  0
   -2.2000   14.7231    8.8666 C   0  0  2  0  0  0  0  0  0  0  0  0
   -3.4105   14.4403    9.5362 O   0  0  0  0  0  0  0  0  0  0  0  0
   -2.3507   14.3660    7.3567 C   0  0  2  0  0  0  0  0  0  0  0  0
   -1.1085   14.6404    6.7024 O   0  0  0  0  0  0  0  0  0  0  0  0
   -3.4907   15.1830    6.6651 C   0  0  0  0  0  0  0  0  0  0  0  0
   -4.7361   15.0402    7.3358 N   0  0  0  0  0  0  0  0  0  0  0  0
   -0.5183    9.4666    4.1033 C   0  0  2  0  0  0  0  0  0  0  0  0
   -0.9469    8.7977    2.8686 N   0  0  0  0  0  0  0  0  0  0  0  0
   -1.8212    9.8714    4.9812 C   0  0  0  0  0  0  0  0  0  0  0  0
   -1.3538   10.6051    6.3043 C   0  0  2  0  0  0  0  0  0  0  0  0
   -2.5092   11.0146    7.1222 N   0  0  0  0  0  0  0  0  0  0  0  0
   -0.5050   11.8662    5.9278 C   0  0  2  0  0  0  0  0  0  0  0  0
    0.7315   11.4647    5.0574 C   0  0  2  0  0  0  0  0  0  0  0  0
    1.4359   12.6936    4.7530 O   0  0  0  0  0  0  0  0  0  0  0  0
    0.2532   10.7495    3.7532 C   0  0  1  0  0  0  0  0  0  0  0  0
    1.3693   10.3933    3.0095 O   0  0  0  0  0  0  0  0  0  0  0  0
    2.2455   12.8910    3.6844 C   0  0  1  0  0  0  0  0  0  0  0  0
    1.5709   13.8180    2.6397 C   0  0  2  0  0  0  0  0  0  0  0  0
    0.7149   13.1344    1.7709 O   0  0  0  0  0  0  0  0  0  0  0  0
    2.8074   14.4876    2.0692 C   0  0  1  0  0  0  0  0  0  0  0  0
    3.7766   14.6985    3.2410 C   0  0  2  0  0  0  0  0  0  0  0  0
    3.5227   13.5118    3.9927 O   0  0  0  0  0  0  0  0  0  0  0  0
    3.5352   15.9910    4.0928 C   0  0  0  0  0  0  0  0  0  0  0  0
    2.9947   17.0034    3.2028 O   0  0  0  0  0  0  0  0  0  0  0  0
    4.2853   14.1135    0.1206 C   0  0  2  0  0  0  0  0  0  0  0  0
    3.3747   13.5769    1.0409 O   0  0  0  0  0  0  0  0  0  0  0  0
    5.1325   12.9700   -0.5896 C   0  0  1  0  0  0  0  0  0  0  0  0
    7.8459   16.1361    1.9670 N   0  0  0  0  0  0  0  0  0  0  0  0
    6.1576   13.7004   -1.6056 C   0  0  1  0  0  0  0  0  0  0  0  0
    5.3437   14.5154   -2.5909 O   0  0  0  0  0  0  0  0  0  0  0  0
    7.1648   14.6619   -0.7764 C   0  0  2  0  0  0  0  0  0  0  0  0
    7.9365   13.8601    0.1498 O   0  0  0  0  0  0  0  0  0  0  0  0
    6.2583   15.7961   -0.0336 C   0  0  1  0  0  0  0  0  0  0  0  0
    5.2303   15.1241    0.8345 O   0  0  0  0  0  0  0  0  0  0  0  0
    7.1236   16.7812    0.8278 C   0  0  0  0  0  0  0  0  0  0  0  0
    5.8246   12.1278    0.4413 N   0  0  0  0  0  0  0  0  0  0  0  0
  1  2  1  1  0  0  0
  1  3  1  0  0  0  0
  1 10  1  0  0  0  0
  3  4  1  1  0  0  0
  3  5  1  0  0  0  0
  5  6  1  1  0  0  0
  5  7  1  0  0  0  0
  7  8  1  1  0  0  0
  7  9  1  0  0  0  0
  9 10  1  0  0  0  0
  9 11  1  6  0  0  0
 11 12  1  0  0  0  0
 13 14  1  6  0  0  0
 13 15  1  0  0  0  0
 13 21  1  0  0  0  0
 16 15  1  0  0  0  0
 16 17  1  6  0  0  0
 18  2  1  1  0  0  0
 18 16  1  0  0  0  0
 19 18  1  0  0  0  0
 19 20  1  6  0  0  0
 21 19  1  0  0  0  0
 21 22  1  6  0  0  0
 23 20  1  1  0  0  0
 23 24  1  0  0  0  0
 23 28  1  0  0  0  0
 24 25  1  6  0  0  0
 24 26  1  0  0  0  0
 26 27  1  0  0  0  0
 26 32  1  6  0  0  0
 27 28  1  0  0  0  0
 27 29  1  1  0  0  0
 29 30  1  0  0  0  0
 31 32  1  1  0  0  0
 31 40  1  0  0  0  0
 33 31  1  0  0  0  0
 33 42  1  1  0  0  0
 35 33  1  0  0  0  0
 35 36  1  6  0  0  0
 37 35  1  0  0  0  0
 37 38  1  1  0  0  0
 37 39  1  0  0  0  0
 39 40  1  0  0  0  0
 39 41  1  1  0  0  0
 41 34  1  0  0  0  0
M  END
>  <CHROM.1>
169.13810086,-54.92855014,-146.99932397,-155.17004916,107.54377078,162.65357215
-31.26641532,161.92203707,-63.25498293,1.71633833,13.51133989,4.08006794
-2.73411098,-0.70475931,-2.39399226

>  <Name>
2et4_lig

>  <RI>
0

>  <Rbt.Current_Directory>
/home/itssahil/PROJECTS/Mol_Feturizer/New_Systems/rnas/2et4

>  <Rbt.Executable>
rbdock ($Id: //depot/dev/client3/rdock/2013.1/src/exe/rbdock.cxx#4 $)

>  <Rbt.Library>
libRbt.so (2013.1, Build901 2013/11/27)

>  <Rbt.Parameter_File>
/export/apps/rDock/src/rDock_2013.1_src/data/scripts/dock_solv.prm

>  <Rbt.Receptor>
prm/blind_docking_20.prm

>  <SCORE>
35.2236

>  <SCORE.INTER>
12.3802

>  <SCORE.INTER.CONST>
1

>  <SCORE.INTER.POLAR>
-1.13223

>  <SCORE.INTER.ROT>
9

>  <SCORE.INTER.SOLV>
31.0971

>  <SCORE.INTER.VDW>
-7.93815

>  <SCORE.INTER.norm>
0.294766

>  <SCORE.INTRA>
1.19645

>  <SCORE.INTRA.DIHEDRAL>
-2.37133

>  <SCORE.INTRA.DIHEDRAL.0>
21.6909

>  <SCORE.INTRA.POLAR>
0

>  <SCORE.INTRA.POLAR.0>
0

>  <SCORE.INTRA.REPUL>
0

>  <SCORE.INTRA.REPUL.0>
0

>  <SCORE.INTRA.SOLV>
0.30054

>  <SCORE.INTRA.SOLV.lig_0>
-116.606

>  <SCORE.INTRA.VDW>
2.23184

>  <SCORE.INTRA.VDW.0>
-6.01229

>  <SCORE.INTRA.norm>
0.0284868

>  <SCORE.RESTR>
21.647

>  <SCORE.RESTR.CAVITY>
21.647

>  <SCORE.RESTR.norm>
0.515404

>  <SCORE.SYSTEM>
0

>  <SCORE.SYSTEM.CONST>
0

>  <SCORE.SYSTEM.DIHEDRAL>
0

>  <SCORE.SYSTEM.SOLV>
0

>  <SCORE.SYSTEM.norm>
0

>  <SCORE.heavy>
42

>  <SCORE.norm>
0.838657

>  <RMSD>
16.346

$$$$
2et4_lig
 OpenBabel11021811423D
libRbt.so/2013.1/901 2013/11/27
 42 45  0  0  0  0  0  0  0  0999 V2000
    0.3492   14.4172    6.9276 C   0  0  2  0  0  0  0  0  0  0  0  0
    0.1214   13.3945    5.9558 O   0  0  0  0  0  0  0  0  0  0  0  0
    0.7291   13.7107    8.2540 C   0  0  2  0  0  0  0  0  0  0  0  0
    1.8829   12.8643    8.0866 N   0  0  0  0  0  0  0  0  0  0  0  0
   -0.4923   12.8963    8.7698 C   0  0  1  0  0  0  0  0  0  0  0  0
   -0.1533   12.2754    9.9704 O   0  0  0  0  0  0  0  0  0  0  0  0
   -1.7019   13.8767    8.9298 C   0  0  2  0  0  0  0  0  0  0  0  0
   -2.8379   13.1764    9.3906 O   0  0  0  0  0  0  0  0  0  0  0  0
   -2.0382   14.5692    7.5743 C   0  0  2  0  0  0  0  0  0  0  0  0
   -0.8691   15.2548    7.1160 O   0  0  0  0  0  0  0  0  0  0  0  0
   -3.2169   15.5884    7.7056 C   0  0  0  0  0  0  0  0  0  0  0  0
   -4.3408   15.0264    8.3705 N   0  0  0  0  0  0  0  0  0  0  0  0
   -0.5675   12.9455    1.7157 C   0  0  2  0  0  0  0  0  0  0  0  0
   -1.0456   13.2251    0.3559 N   0  0  0  0  0  0  0  0  0  0  0  0
   -1.8352   12.8081    2.7188 C   0  0  0  0  0  0  0  0  0  0  0  0
   -1.3132   12.5211    4.1859 C   0  0  2  0  0  0  0  0  0  0  0  0
   -2.4333   12.4141    5.1376 N   0  0  0  0  0  0  0  0  0  0  0  0
   -0.3547   13.6762    4.6325 C   0  0  2  0  0  0  0  0  0  0  0  0
    0.8472   13.8163    3.6406 C   0  0  2  0  0  0  0  0  0  0  0  0
    1.6586   14.9119    4.1307 O   0  0  0  0  0  0  0  0  0  0  0  0
    0.3159   14.1068    2.2002 C   0  0  1  0  0  0  0  0  0  0  0  0
    1.4010   14.2118    1.3416 O   0  0  0  0  0  0  0  0  0  0  0  0
    2.9369   15.1689    3.7617 C   0  0  1  0  0  0  0  0  0  0  0  0
    3.4633   14.0830    2.7874 C   0  0  2  0  0  0  0  0  0  0  0  0
    3.9586   12.9514    3.4425 O   0  0  0  0  0  0  0  0  0  0  0  0
    4.4200   14.9293    1.9681 C   0  0  1  0  0  0  0  0  0  0  0  0
    3.7625   16.3069    1.8043 C   0  0  2  0  0  0  0  0  0  0  0  0
    3.1317   16.4365    3.0783 O   0  0  0  0  0  0  0  0  0  0  0  0
    2.7334   16.4285    0.6292 C   0  0  0  0  0  0  0  0  0  0  0  0
    3.4814   16.3512   -0.6132 O   0  0  0  0  0  0  0  0  0  0  0  0
    6.8940   14.9278    1.9946 C   0  0  2  0  0  0  0  0  0  0  0  0
    5.6986   15.0142    2.7210 O   0  0  0  0  0  0  0  0  0  0  0  0
    7.5407   16.3636    1.7711 C   0  0  1  0  0  0  0  0  0  0  0  0
    6.3729   12.2762   -1.4206 N   0  0  0  0  0  0  0  0  0  0  0  0
    8.8926   16.1461    0.9097 C   0  0  1  0  0  0  0  0  0  0  0  0
    9.8020   15.2156    1.6871 O   0  0  0  0  0  0  0  0  0  0  0  0
    8.5299   15.5033   -0.5331 C   0  0  2  0  0  0  0  0  0  0  0  0
    7.6695   16.4136   -1.2591 O   0  0  0  0  0  0  0  0  0  0  0  0
    7.8364   14.0523   -0.2621 C   0  0  1  0  0  0  0  0  0  0  0  0
    6.6363   14.2304    0.6267 O   0  0  0  0  0  0  0  0  0  0  0  0
    7.4145   13.3350   -1.5921 C   0  0  0  0  0  0  0  0  0  0  0  0
    6.5540   17.2727    1.0996 N   0  0  0  0  0  0  0  0  0  0  0  0
  1  2  1  6  0  0  0
  1  3  1  0  0  0  0
  1 10  1  0  0  0  0
  3  4  1  6  0  0  0
  3  5  1  0  0  0  0
  5  6  1  1  0  0  0
  5  7  1  0  0  0  0
  7  8  1  6  0  0  0
  7  9  1  0  0  0  0
  9 10  1  0  0  0  0
  9 11  1  1  0  0  0
 11 12  1  0  0  0  0
 13 14  1  6  0  0  0
 13 15  1  0  0  0  0
 13 21  1  0  0  0  0
 16 15  1  0  0  0  0
 16 17  1  1  0  0  0
 18  2  1  1  0  0  0
 18 16  1  0  0  0  0
 19 18  1  0  0  0  0
 19 20  1  1  0  0  0
 21 19  1  0  0  0  0
 21 22  1  6  0  0  0
 23 20  1  6  0  0  0
 23 24  1  0  0  0  0
 23 28  1  0  0  0  0
 24 25  1  1  0  0  0
 24 26  1  0  0  0  0
 26 27  1  0  0  0  0
 26 32  1  1  0  0  0
 27 28  1  0  0  0  0
 27 29  1  6  0  0  0
 29 30  1  0  0  0  0
 31 32  1  6  0  0  0
 31 40  1  0  0  0  0
 33 31  1  0  0  0  0
 33 42  1  6  0  0  0
 35 33  1  0  0  0  0
 35 36  1  1  0  0  0
 37 35  1  0  0  0  0
 37 38  1  1  0  0  0
 37 39  1  0  0  0  0
 39 40  1  0  0  0  0
 39 41  1  6  0  0  0
 41 34  1  0  0  0  0
M  END
>  <CHROM.1>
174.91016327,-49.64161350,-144.11706791,163.67529822,-3.05125656,139.66085841
-69.18215973,101.19843592,-159.37681228,2.44524519,14.41505523,3.56309979
-2.46019022,-0.17408125,-1.57842330

>  <Name>
2et4_lig

>  <RI>
0

>  <Rbt.Current_Directory>
/home/itssahil/PROJECTS/Mol_Feturizer/New_Systems/rnas/2et4

>  <Rbt.Executable>
rbdock ($Id: //depot/dev/client3/rdock/2013.1/src/exe/rbdock.cxx#4 $)

>  <Rbt.Library>
libRbt.so (2013.1, Build901 2013/11/27)

>  <Rbt.Parameter_File>
/export/apps/rDock/src/rDock_2013.1_src/data/scripts/dock_solv.prm

>  <Rbt.Receptor>
prm/blind_docking_20.prm

>  <SCORE>
38.1476

>  <SCORE.INTER>
8.1584

>  <SCORE.INTER.CONST>
1

>  <SCORE.INTER.POLAR>
-0.570239

>  <SCORE.INTER.ROT>
9

>  <SCORE.INTER.SOLV>
29.5624

>  <SCORE.INTER.VDW>
-12.1144

>  <SCORE.INTER.norm>
0.194248

>  <SCORE.INTRA>
8.24566

>  <SCORE.INTRA.DIHEDRAL>
4.70778

>  <SCORE.INTRA.DIHEDRAL.0>
21.6909

>  <SCORE.INTRA.POLAR>
0

>  <SCORE.INTRA.POLAR.0>
0

>  <SCORE.INTRA.REPUL>
0.00021751

>  <SCORE.INTRA.REPUL.0>
0

>  <SCORE.INTRA.SOLV>
1.60539

>  <SCORE.INTRA.SOLV.lig_0>
-116.606

>  <SCORE.INTRA.VDW>
5.08798

>  <SCORE.INTRA.VDW.0>
-6.01229

>  <SCORE.INTRA.norm>
0.196325

>  <SCORE.RESTR>
21.7435

>  <SCORE.RESTR.CAVITY>
21.7435

>  <SCORE.RESTR.norm>
0.517703

>  <SCORE.SYSTEM>
0

>  <SCORE.SYSTEM.CONST>
0

>  <SCORE.SYSTEM.DIHEDRAL>
0

>  <SCORE.SYSTEM.SOLV>
0

>  <SCORE.SYSTEM.norm>
0

>  <SCORE.heavy>
42

>  <SCORE.norm>
0.908275

>  <RMSD>
16.361

$$$$
2et4_lig
 OpenBabel11021811423D
libRbt.so/2013.1/901 2013/11/27
 42 45  0  0  0  0  0  0  0  0999 V2000
    0.0861   13.9108    7.2316 C   0  0  2  0  0  0  0  0  0  0  0  0
   -0.0834   12.4959    7.1243 O   0  0  0  0  0  0  0  0  0  0  0  0
    0.2896   14.2341    8.7338 C   0  0  2  0  0  0  0  0  0  0  0  0
    1.4147   13.5173    9.2777 N   0  0  0  0  0  0  0  0  0  0  0  0
   -1.0159   13.9005    9.5121 C   0  0  1  0  0  0  0  0  0  0  0  0
   -0.8356   14.2072   10.8594 O   0  0  0  0  0  0  0  0  0  0  0  0
   -2.1894   14.7134    8.8704 C   0  0  2  0  0  0  0  0  0  0  0  0
   -3.3990   14.4347    9.5433 O   0  0  0  0  0  0  0  0  0  0  0  0
   -2.3472   14.3622    7.3599 C   0  0  2  0  0  0  0  0  0  0  0  0
   -1.1058   14.6324    6.7021 O   0  0  0  0  0  0  0  0  0  0  0  0
   -3.4854   15.1874    6.6750 C   0  0  0  0  0  0  0  0  0  0  0  0
   -4.7750   14.8127    7.1413 N   0  0  0  0  0  0  0  0  0  0  0  0
   -0.5514    9.4799    4.0683 C   0  0  2  0  0  0  0  0  0  0  0  0
   -0.9988    8.8186    2.8361 N   0  0  0  0  0  0  0  0  0  0  0  0
   -1.8393    9.8556    4.9806 C   0  0  0  0  0  0  0  0  0  0  0  0
   -1.3519   10.5812    6.3009 C   0  0  2  0  0  0  0  0  0  0  0  0
   -2.4939   10.9644    7.1499 N   0  0  0  0  0  0  0  0  0  0  0  0
   -0.5305   11.8588    5.9197 C   0  0  2  0  0  0  0  0  0  0  0  0
    0.6912   11.4854    5.0164 C   0  0  2  0  0  0  0  0  0  0  0  0
    1.3705   12.7278    4.7101 O   0  0  0  0  0  0  0  0  0  0  0  0
    0.1932   10.7779    3.7153 C   0  0  1  0  0  0  0  0  0  0  0  0
    1.2968   10.4465    2.9421 O   0  0  0  0  0  0  0  0  0  0  0  0
    2.1900   12.9346    3.6508 C   0  0  1  0  0  0  0  0  0  0  0  0
    1.5237   13.8679    2.6065 C   0  0  2  0  0  0  0  0  0  0  0  0
    0.6776   13.1890    1.7244 O   0  0  0  0  0  0  0  0  0  0  0  0
    2.7643   14.5442    2.0530 C   0  0  1  0  0  0  0  0  0  0  0  0
    3.7217   14.7483    3.2356 C   0  0  2  0  0  0  0  0  0  0  0  0
    3.4629   13.5557    3.9761 O   0  0  0  0  0  0  0  0  0  0  0  0
    3.4693   16.0342    4.0944 C   0  0  0  0  0  0  0  0  0  0  0  0
    2.9934   17.0707    3.1955 O   0  0  0  0  0  0  0  0  0  0  0  0
    4.3264   14.1647    0.1722 C   0  0  2  0  0  0  0  0  0  0  0  0
    3.3434   13.6422    1.0235 O   0  0  0  0  0  0  0  0  0  0  0  0
    5.1424   13.0061   -0.5499 C   0  0  1  0  0  0  0  0  0  0  0  0
    8.3649   17.3772    0.4391 N   0  0  0  0  0  0  0  0  0  0  0  0
    6.2550   13.7195   -1.4825 C   0  0  1  0  0  0  0  0  0  0  0  0
    5.5369   14.6222   -2.4659 O   0  0  0  0  0  0  0  0  0  0  0  0
    7.2724   14.5842   -0.5640 C   0  0  2  0  0  0  0  0  0  0  0  0
    7.9520   13.6997    0.3590 O   0  0  0  0  0  0  0  0  0  0  0  0
    6.3952   15.7355    0.1875 C   0  0  1  0  0  0  0  0  0  0  0  0
    5.2901   15.0871    0.9751 O   0  0  0  0  0  0  0  0  0  0  0  0
    7.2707   16.6307    1.1327 C   0  0  0  0  0  0  0  0  0  0  0  0
    5.7352   12.0813    0.4720 N   0  0  0  0  0  0  0  0  0  0  0  0
  1  2  1  1  0  0  0
  1  3  1  0  0  0  0
  1 10  1  0  0  0  0
  3  4  1  1  0  0  0
  3  5  1  0  0  0  0
  5  6  1  1  0  0  0
  5  7  1  0  0  0  0
  7  8  1  1  0  0  0
  7  9  1  0  0  0  0
  9 10  1  0  0  0  0
  9 11  1  6  0  0  0
 11 12  1  0  0  0  0
 13 14  1  6  0  0  0
 13 15  1  0  0  0  0
 13 21  1  0  0  0  0
 16 15  1  0  0  0  0
 16 17  1  1  0  0  0
 18  2  1  1  0  0  0
 18 16  1  0  0  0  0
 19 18  1  0  0  0  0
 19 20  1  6  0  0  0
 21 19  1  0  0  0  0
 21 22  1  6  0  0  0
 23 20  1  1  0  0  0
 23 24  1  0  0  0  0
 23 28  1  0  0  0  0
 24 25  1  6  0  0  0
 24 26  1  0  0  0  0
 26 27  1  0  0  0  0
 26 32  1  6  0  0  0
 27 28  1  0  0  0  0
 27 29  1  1  0  0  0
 29 30  1  0  0  0  0
 31 32  1  1  0  0  0
 31 40  1  0  0  0  0
 33 31  1  0  0  0  0
 33 42  1  1  0  0  0
 35 33  1  0  0  0  0
 35 36  1  6  0  0  0
 37 35  1  0  0  0  0
 37 38  1  1  0  0  0
 37 39  1  0  0  0  0
 39 40  1  0  0  0  0
 39 41  1  1  0  0  0
 41 34  1  0  0  0  0
M  END
>  <CHROM.1>
168.58855750,-68.81168118,-148.29811796,-157.65043919,109.12687466,166.74932807
-33.82824898,162.76641476,60.68293523,1.72849002,13.53747092,4.06384702,-2.76306038
-0.70682270,-2.40462936

>  <Name>
2et4_lig

>  <RI>
0

>  <Rbt.Current_Directory>
/home/itssahil/PROJECTS/Mol_Feturizer/New_Systems/rnas/2et4

>  <Rbt.Executable>
rbdock ($Id: //depot/dev/client3/rdock/2013.1/src/exe/rbdock.cxx#4 $)

>  <Rbt.Library>
libRbt.so (2013.1, Build901 2013/11/27)

>  <Rbt.Parameter_File>
/export/apps/rDock/src/rDock_2013.1_src/data/scripts/dock_solv.prm

>  <Rbt.Receptor>
prm/blind_docking_20.prm

>  <SCORE>
35.3445

>  <SCORE.INTER>
13.647

>  <SCORE.INTER.CONST>
1

>  <SCORE.INTER.POLAR>
-1.13685

>  <SCORE.INTER.ROT>
9

>  <SCORE.INTER.SOLV>
30.0029

>  <SCORE.INTER.VDW>
-6.71348

>  <SCORE.INTER.norm>
0.324928

>  <SCORE.INTRA>
-0.302565

>  <SCORE.INTRA.DIHEDRAL>
-3.69477

>  <SCORE.INTRA.DIHEDRAL.0>
21.6909

>  <SCORE.INTRA.POLAR>
0

>  <SCORE.INTRA.POLAR.0>
0

>  <SCORE.INTRA.REPUL>
0

>  <SCORE.INTRA.REPUL.0>
0

>  <SCORE.INTRA.SOLV>
-1.48093

>  <SCORE.INTRA.SOLV.lig_0>
-116.606

>  <SCORE.INTRA.VDW>
2.28529

>  <SCORE.INTRA.VDW.0>
-6.01229

>  <SCORE.INTRA.norm>
-0.00720392

>  <SCORE.RESTR>
22.0001

>  <SCORE.RESTR.CAVITY>
22.0001

>  <SCORE.RESTR.norm>
0.523811

>  <SCORE.SYSTEM>
0

>  <SCORE.SYSTEM.CONST>
0

>  <SCORE.SYSTEM.DIHEDRAL>
0

>  <SCORE.SYSTEM.SOLV>
0

>  <SCORE.SYSTEM.norm>
0

>  <SCORE.heavy>
42

>  <SCORE.norm>
0.841535

>  <RMSD>
16.371

$$$$
2et4_lig
 OpenBabel11021811423D
libRbt.so/2013.1/901 2013/11/27
 42 45  0  0  0  0  0  0  0  0999 V2000
   -0.1370   14.0460    7.3098 C   0  0  2  0  0  0  0  0  0  0  0  0
   -0.2849   12.6297    7.1900 O   0  0  0  0  0  0  0  0  0  0  0  0
    0.1416   14.3516    8.8037 C   0  0  2  0  0  0  0  0  0  0  0  0
    1.3082   13.6496    9.2747 N   0  0  0  0  0  0  0  0  0  0  0  0
   -1.1129   13.9806    9.6462 C   0  0  1  0  0  0  0  0  0  0  0  0
   -0.8657   14.2714   10.9863 O   0  0  0  0  0  0  0  0  0  0  0  0
   -2.3351   14.7791    9.0815 C   0  0  2  0  0  0  0  0  0  0  0  0
   -3.5007   14.4665    9.8144 O   0  0  0  0  0  0  0  0  0  0  0  0
   -2.5680   14.4466    7.5765 C   0  0  2  0  0  0  0  0  0  0  0  0
   -1.3696   14.7511    6.8569 O   0  0  0  0  0  0  0  0  0  0  0  0
   -3.7573   15.2587    6.9671 C   0  0  0  0  0  0  0  0  0  0  0  0
   -4.0399   14.8735    5.6281 N   0  0  0  0  0  0  0  0  0  0  0  0
   -0.5148    9.7057    4.0195 C   0  0  2  0  0  0  0  0  0  0  0  0
   -0.9272    9.0478    2.7733 N   0  0  0  0  0  0  0  0  0  0  0  0
   -1.8045    9.8944    4.9856 C   0  0  0  0  0  0  0  0  0  0  0  0
   -1.3567   10.6171    6.3214 C   0  0  2  0  0  0  0  0  0  0  0  0
   -2.5044   10.8326    7.2202 N   0  0  0  0  0  0  0  0  0  0  0  0
   -0.6987   11.9947    5.9723 C   0  0  2  0  0  0  0  0  0  0  0  0
    0.5253   11.8002    5.0174 C   0  0  2  0  0  0  0  0  0  0  0  0
    1.0487   13.1236    4.7458 O   0  0  0  0  0  0  0  0  0  0  0  0
    0.0655   11.0935    3.7019 C   0  0  1  0  0  0  0  0  0  0  0  0
    1.1720   10.9221    2.8821 O   0  0  0  0  0  0  0  0  0  0  0  0
    2.2360   13.3919    4.1503 C   0  0  1  0  0  0  0  0  0  0  0  0
    2.1316   13.2428    2.6101 C   0  0  2  0  0  0  0  0  0  0  0  0
    2.2953   11.9245    2.1738 O   0  0  0  0  0  0  0  0  0  0  0  0
    3.1547   14.2825    2.1916 C   0  0  1  0  0  0  0  0  0  0  0  0
    3.0275   15.4507    3.1794 C   0  0  2  0  0  0  0  0  0  0  0  0
    2.7451   14.7333    4.3808 O   0  0  0  0  0  0  0  0  0  0  0  0
    1.9087   16.4963    2.8482 C   0  0  0  0  0  0  0  0  0  0  0  0
    0.6285   15.8348    3.0285 O   0  0  0  0  0  0  0  0  0  0  0  0
    5.4862   14.1027    1.3834 C   0  0  2  0  0  0  0  0  0  0  0  0
    4.4950   13.6441    2.2616 O   0  0  0  0  0  0  0  0  0  0  0  0
    6.8777   14.2936    2.1297 C   0  0  1  0  0  0  0  0  0  0  0  0
    6.3412   18.1599   -1.6959 N   0  0  0  0  0  0  0  0  0  0  0  0
    7.9328   14.8425    1.0333 C   0  0  1  0  0  0  0  0  0  0  0  0
    8.0127   13.8299   -0.0918 O   0  0  0  0  0  0  0  0  0  0  0  0
    7.4407   16.2781    0.4646 C   0  0  2  0  0  0  0  0  0  0  0  0
    7.3816   17.2290    1.5547 O   0  0  0  0  0  0  0  0  0  0  0  0
    5.9971   16.0494   -0.2589 C   0  0  1  0  0  0  0  0  0  0  0  0
    5.0364   15.4398    0.7248 O   0  0  0  0  0  0  0  0  0  0  0  0
    5.4000   17.3815   -0.8335 C   0  0  0  0  0  0  0  0  0  0  0  0
    6.7105   15.2169    3.3003 N   0  0  0  0  0  0  0  0  0  0  0  0
  1  2  1  1  0  0  0
  1  3  1  0  0  0  0
  1 10  1  0  0  0  0
  3  4  1  1  0  0  0
  3  5  1  0  0  0  0
  5  6  1  1  0  0  0
  5  7  1  0  0  0  0
  7  8  1  1  0  0  0
  7  9  1  0  0  0  0
  9 10  1  0  0  0  0
  9 11  1  6  0  0  0
 11 12  1  0  0  0  0
 13 14  1  6  0  0  0
 13 15  1  0  0  0  0
 13 21  1  0  0  0  0
 16 15  1  0  0  0  0
 16 17  1  1  0  0  0
 18  2  1  1  0  0  0
 18 16  1  0  0  0  0
 19 18  1  0  0  0  0
 19 20  1  6  0  0  0
 21 19  1  0  0  0  0
 21 22  1  6  0  0  0
 23 20  1  1  0  0  0
 23 24  1  0  0  0  0
 23 28  1  0  0  0  0
 24 25  1  1  0  0  0
 24 26  1  0  0  0  0
 26 27  1  0  0  0  0
 26 32  1  1  0  0  0
 27 28  1  0  0  0  0
 27 29  1  6  0  0  0
 29 30  1  0  0  0  0
 31 32  1  1  0  0  0
 31 40  1  0  0  0  0
 33 31  1  0  0  0  0
 33 42  1  1  0  0  0
 35 33  1  0  0  0  0
 35 36  1  6  0  0  0
 37 35  1  0  0  0  0
 37 38  1  1  0  0  0
 37 39  1  0  0  0  0
 39 40  1  0  0  0  0
 39 41  1  1  0  0  0
 41 34  1  0  0  0  0
M  END
>  <CHROM.1>
172.90107052,-175.07776126,-155.10959989,168.14396658,79.87316062,150.43412503
67.99098355,135.70710584,50.84266523,1.71651510,13.88216124,4.31425012,-2.94318690
-0.72242611,-2.51631357

>  <Name>
2et4_lig

>  <RI>
0

>  <Rbt.Current_Directory>
/home/itssahil/PROJECTS/Mol_Feturizer/New_Systems/rnas/2et4

>  <Rbt.Executable>
rbdock ($Id: //depot/dev/client3/rdock/2013.1/src/exe/rbdock.cxx#4 $)

>  <Rbt.Library>
libRbt.so (2013.1, Build901 2013/11/27)

>  <Rbt.Parameter_File>
/export/apps/rDock/src/rDock_2013.1_src/data/scripts/dock_solv.prm

>  <Rbt.Receptor>
prm/blind_docking_20.prm

>  <SCORE>
36.8434

>  <SCORE.INTER>
1.50732

>  <SCORE.INTER.CONST>
1

>  <SCORE.INTER.POLAR>
-1.37176

>  <SCORE.INTER.ROT>
9

>  <SCORE.INTER.SOLV>
27.5496

>  <SCORE.INTER.VDW>
-13.2058

>  <SCORE.INTER.norm>
0.0358886

>  <SCORE.INTRA>
15.891

>  <SCORE.INTRA.DIHEDRAL>
-6.08614

>  <SCORE.INTRA.DIHEDRAL.0>
21.6909

>  <SCORE.INTRA.POLAR>
0

>  <SCORE.INTRA.POLAR.0>
0

>  <SCORE.INTRA.REPUL>
0

>  <SCORE.INTRA.REPUL.0>
0

>  <SCORE.INTRA.SOLV>
-1.23737

>  <SCORE.INTRA.SOLV.lig_0>
-116.606

>  <SCORE.INTRA.VDW>
19.5527

>  <SCORE.INTRA.VDW.0>
-6.01229

>  <SCORE.INTRA.norm>
0.378357

>  <SCORE.RESTR>
19.4451

>  <SCORE.RESTR.CAVITY>
19.4451

>  <SCORE.RESTR.norm>
0.462979

>  <SCORE.SYSTEM>
0

>  <SCORE.SYSTEM.CONST>
0

>  <SCORE.SYSTEM.DIHEDRAL>
0

>  <SCORE.SYSTEM.SOLV>
0

>  <SCORE.SYSTEM.norm>
0

>  <SCORE.heavy>
42

>  <SCORE.norm>
0.877224

>  <RMSD>
16.393

$$$$
2et4_lig
 OpenBabel11021811423D
libRbt.so/2013.1/901 2013/11/27
 42 45  0  0  0  0  0  0  0  0999 V2000
    0.1347   14.4327    7.1965 C   0  0  2  0  0  0  0  0  0  0  0  0
   -0.0210   13.2978    6.3420 O   0  0  0  0  0  0  0  0  0  0  0  0
    0.4792   13.8969    8.6096 C   0  0  2  0  0  0  0  0  0  0  0  0
    1.6640   13.0776    8.5863 N   0  0  0  0  0  0  0  0  0  0  0  0
   -0.7379   13.1052    9.1692 C   0  0  1  0  0  0  0  0  0  0  0  0
   -0.4315   12.6386   10.4460 O   0  0  0  0  0  0  0  0  0  0  0  0
   -1.9821   14.0550    9.1674 C   0  0  2  0  0  0  0  0  0  0  0  0
   -3.1150   13.3732    9.6624 O   0  0  0  0  0  0  0  0  0  0  0  0
   -2.2815   14.5750    7.7287 C   0  0  2  0  0  0  0  0  0  0  0  0
   -1.1152   15.2435    7.2392 O   0  0  0  0  0  0  0  0  0  0  0  0
   -3.4948   15.5609    7.6951 C   0  0  0  0  0  0  0  0  0  0  0  0
   -4.6121   15.0617    8.4186 N   0  0  0  0  0  0  0  0  0  0  0  0
   -0.5744   12.1805    2.2068 C   0  0  2  0  0  0  0  0  0  0  0  0
   -0.6067   12.2753    0.7420 N   0  0  0  0  0  0  0  0  0  0  0  0
   -1.5749   13.2874    2.8441 C   0  0  0  0  0  0  0  0  0  0  0  0
   -1.5251   13.1903    4.4238 C   0  0  2  0  0  0  0  0  0  0  0  0
   -2.4019   14.1977    5.0466 N   0  0  0  0  0  0  0  0  0  0  0  0
   -0.0525   13.4038    4.9121 C   0  0  2  0  0  0  0  0  0  0  0  0
    0.9056   12.3482    4.2674 C   0  0  2  0  0  0  0  0  0  0  0  0
    2.2338   12.6394    4.7677 O   0  0  0  0  0  0  0  0  0  0  0  0
    0.8507   12.4622    2.7101 C   0  0  1  0  0  0  0  0  0  0  0  0
    1.6978   11.5068    2.1667 O   0  0  0  0  0  0  0  0  0  0  0  0
    3.0036   13.6881    4.3884 C   0  0  1  0  0  0  0  0  0  0  0  0
    3.3028   13.6367    2.8674 C   0  0  2  0  0  0  0  0  0  0  0  0
    4.3912   12.8186    2.5495 O   0  0  0  0  0  0  0  0  0  0  0  0
    3.4007   15.1244    2.5847 C   0  0  1  0  0  0  0  0  0  0  0  0
    2.3425   15.8113    3.4594 C   0  0  2  0  0  0  0  0  0  0  0  0
    2.4155   14.9952    4.6283 O   0  0  0  0  0  0  0  0  0  0  0  0
    0.8940   15.8479    2.8634 C   0  0  0  0  0  0  0  0  0  0  0  0
   -0.0323   15.9404    3.9781 O   0  0  0  0  0  0  0  0  0  0  0  0
    5.5773   16.0992    1.9262 C   0  0  2  0  0  0  0  0  0  0  0  0
    4.7770   15.5574    2.9411 O   0  0  0  0  0  0  0  0  0  0  0  0
    5.0019   15.7479    0.4856 C   0  0  1  0  0  0  0  0  0  0  0  0
    9.7048   14.1827    0.6416 N   0  0  0  0  0  0  0  0  0  0  0  0
    6.0093   16.3996   -0.5994 C   0  0  1  0  0  0  0  0  0  0  0  0
    6.0703   17.8931   -0.3481 O   0  0  0  0  0  0  0  0  0  0  0  0
    7.4830   15.7426   -0.4482 C   0  0  2  0  0  0  0  0  0  0  0  0
    7.4001   14.3196   -0.7018 O   0  0  0  0  0  0  0  0  0  0  0  0
    8.0229   16.0911    1.0508 C   0  0  1  0  0  0  0  0  0  0  0  0
    7.0387   15.5812    2.0673 O   0  0  0  0  0  0  0  0  0  0  0  0
    9.4423   15.4838    1.3298 C   0  0  0  0  0  0  0  0  0  0  0  0
    4.8581   14.2619    0.3380 N   0  0  0  0  0  0  0  0  0  0  0  0
  1  2  1  6  0  0  0
  1  3  1  0  0  0  0
  1 10  1  0  0  0  0
  3  4  1  6  0  0  0
  3  5  1  0  0  0  0
  5  6  1  1  0  0  0
  5  7  1  0  0  0  0
  7  8  1  6  0  0  0
  7  9  1  0  0  0  0
  9 10  1  0  0  0  0
  9 11  1  1  0  0  0
 11 12  1  0  0  0  0
 13 14  1  6  0  0  0
 13 15  1  0  0  0  0
 13 21  1  0  0  0  0
 16 15  1  0  0  0  0
 16 17  1  1  0  0  0
 18  2  1  1  0  0  0
 18 16  1  0  0  0  0
 19 18  1  0  0  0  0
 19 20  1  1  0  0  0
 21 19  1  0  0  0  0
 21 22  1  6  0  0  0
 23 20  1  6  0  0  0
 23 24  1  0  0  0  0
 23 28  1  0  0  0  0
 24 25  1  1  0  0  0
 24 26  1  0  0  0  0
 26 27  1  0  0  0  0
 26 32  1  1  0  0  0
 27 28  1  0  0  0  0
 27 29  1  6  0  0  0
 29 30  1  0  0  0  0
 31 32  1  1  0  0  0
 31 40  1  0  0  0  0
 33 31  1  0  0  0  0
 33 42  1  6  0  0  0
 35 33  1  0  0  0  0
 35 36  1  1  0  0  0
 37 35  1  0  0  0  0
 37 38  1  1  0  0  0
 37 39  1  0  0  0  0
 39 40  1  0  0  0  0
 39 41  1  1  0  0  0
 41 34  1  0  0  0  0
M  END
>  <CHROM.1>
-165.92611412,-47.48844661,-106.29070981,-73.39586890,-60.36181309,119.10888865
154.40495611,-17.09514207,-32.73458275,2.02818199,14.30947299,4.06757601
-2.47077886,-0.22563361,-1.64058933

>  <Name>
2et4_lig

>  <RI>
0

>  <Rbt.Current_Directory>
/home/itssahil/PROJECTS/Mol_Feturizer/New_Systems/rnas/2et4

>  <Rbt.Executable>
rbdock ($Id: //depot/dev/client3/rdock/2013.1/src/exe/rbdock.cxx#4 $)

>  <Rbt.Library>
libRbt.so (2013.1, Build901 2013/11/27)

>  <Rbt.Parameter_File>
/export/apps/rDock/src/rDock_2013.1_src/data/scripts/dock_solv.prm

>  <Rbt.Receptor>
prm/blind_docking_20.prm

>  <SCORE>
32.3516

>  <SCORE.INTER>
6.59495

>  <SCORE.INTER.CONST>
1

>  <SCORE.INTER.POLAR>
-0.726412

>  <SCORE.INTER.ROT>
9

>  <SCORE.INTER.SOLV>
29.6932

>  <SCORE.INTER.VDW>
-12.6797

>  <SCORE.INTER.norm>
0.157023

>  <SCORE.INTRA>
11.4957

>  <SCORE.INTRA.DIHEDRAL>
4.29619

>  <SCORE.INTRA.DIHEDRAL.0>
21.6909

>  <SCORE.INTRA.POLAR>
0

>  <SCORE.INTRA.POLAR.0>
0

>  <SCORE.INTRA.REPUL>
0

>  <SCORE.INTRA.REPUL.0>
0

>  <SCORE.INTRA.SOLV>
8.41274

>  <SCORE.INTRA.SOLV.lig_0>
-116.606

>  <SCORE.INTRA.VDW>
5.14122

>  <SCORE.INTRA.VDW.0>
-6.01229

>  <SCORE.INTRA.norm>
0.273707

>  <SCORE.RESTR>
14.2609

>  <SCORE.RESTR.CAVITY>
14.2609

>  <SCORE.RESTR.norm>
0.339546

>  <SCORE.SYSTEM>
0

>  <SCORE.SYSTEM.CONST>
0

>  <SCORE.SYSTEM.DIHEDRAL>
0

>  <SCORE.SYSTEM.SOLV>
0

>  <SCORE.SYSTEM.norm>
0

>  <SCORE.heavy>
42

>  <SCORE.norm>
0.770275

>  <RMSD>
16.397

$$$$
2et4_lig
 OpenBabel11021811423D
libRbt.so/2013.1/901 2013/11/27
 42 45  0  0  0  0  0  0  0  0999 V2000
   -0.3730   14.6856    8.3885 C   0  0  2  0  0  0  0  0  0  0  0  0
    0.0131   13.3097    8.3820 O   0  0  0  0  0  0  0  0  0  0  0  0
   -1.4123   14.8633    9.5247 C   0  0  2  0  0  0  0  0  0  0  0  0
   -0.8754   14.4517   10.7967 N   0  0  0  0  0  0  0  0  0  0  0  0
   -2.6985   14.0608    9.1740 C   0  0  1  0  0  0  0  0  0  0  0  0
   -3.6369   14.2353   10.1892 O   0  0  0  0  0  0  0  0  0  0  0  0
   -3.2245   14.5611    7.7873 C   0  0  2  0  0  0  0  0  0  0  0  0
   -4.3907   13.8524    7.4251 O   0  0  0  0  0  0  0  0  0  0  0  0
   -2.1421   14.3717    6.6817 C   0  0  2  0  0  0  0  0  0  0  0  0
   -0.9639   15.0799    7.0782 O   0  0  0  0  0  0  0  0  0  0  0  0
   -2.6184   14.8997    5.2889 C   0  0  0  0  0  0  0  0  0  0  0  0
   -3.1217   16.2273    5.3618 N   0  0  0  0  0  0  0  0  0  0  0  0
   -0.6169    9.5783    6.3000 C   0  0  2  0  0  0  0  0  0  0  0  0
   -1.2002    8.5850    5.3896 N   0  0  0  0  0  0  0  0  0  0  0  0
   -1.7399   10.0623    7.3662 C   0  0  0  0  0  0  0  0  0  0  0  0
   -1.1095   11.1438    8.3359 C   0  0  2  0  0  0  0  0  0  0  0  0
   -2.1044   11.6315    9.3075 N   0  0  0  0  0  0  0  0  0  0  0  0
   -0.5679   12.3467    7.4920 C   0  0  2  0  0  0  0  0  0  0  0  0
    0.4923   11.8614    6.4488 C   0  0  2  0  0  0  0  0  0  0  0  0
    0.9156   13.0374    5.7160 O   0  0  0  0  0  0  0  0  0  0  0  0
   -0.1472   10.8014    5.4955 C   0  0  1  0  0  0  0  0  0  0  0  0
    0.8181   10.3798    4.5921 O   0  0  0  0  0  0  0  0  0  0  0  0
    1.5745   13.0302    4.5319 C   0  0  1  0  0  0  0  0  0  0  0  0
    0.8892   13.9730    3.5087 C   0  0  2  0  0  0  0  0  0  0  0  0
   -0.1766   13.3694    2.8343 O   0  0  0  0  0  0  0  0  0  0  0  0
    2.1081   14.4009    2.7125 C   0  0  1  0  0  0  0  0  0  0  0  0
    3.2630   14.5428    3.7140 C   0  0  2  0  0  0  0  0  0  0  0  0
    2.9589   13.4666    4.6011 O   0  0  0  0  0  0  0  0  0  0  0  0
    3.3394   15.9149    4.4665 C   0  0  0  0  0  0  0  0  0  0  0  0
    4.3622   16.7125    3.8132 O   0  0  0  0  0  0  0  0  0  0  0  0
    3.4520   13.5332    0.8250 C   0  0  2  0  0  0  0  0  0  0  0  0
    2.3783   13.3421    1.7051 O   0  0  0  0  0  0  0  0  0  0  0  0
    4.6365   12.5157    1.1272 C   0  0  1  0  0  0  0  0  0  0  0  0
    6.6065   17.3475   -0.6594 N   0  0  0  0  0  0  0  0  0  0  0  0
    5.8209   12.8400    0.0741 C   0  0  1  0  0  0  0  0  0  0  0  0
    5.2629   12.6806   -1.3261 O   0  0  0  0  0  0  0  0  0  0  0  0
    6.3584   14.3525    0.2972 C   0  0  2  0  0  0  0  0  0  0  0  0
    6.8941   14.4766    1.6365 O   0  0  0  0  0  0  0  0  0  0  0  0
    5.1092   15.3625    0.0156 C   0  0  1  0  0  0  0  0  0  0  0  0
    3.9617   15.0014    0.9183 O   0  0  0  0  0  0  0  0  0  0  0  0
    5.5001   16.8674    0.2243 C   0  0  0  0  0  0  0  0  0  0  0  0
    5.0695   12.6415    2.5581 N   0  0  0  0  0  0  0  0  0  0  0  0
  1  2  1  6  0  0  0
  1  3  1  0  0  0  0
  1 10  1  0  0  0  0
  3  4  1  1  0  0  0
  3  5  1  0  0  0  0
  5  6  1  1  0  0  0
  5  7  1  0  0  0  0
  7  8  1  6  0  0  0
  7  9  1  0  0  0  0
  9 10  1  0  0  0  0
  9 11  1  6  0  0  0
 11 12  1  0  0  0  0
 13 14  1  6  0  0  0
 13 15  1  0  0  0  0
 13 21  1  0  0  0  0
 16 15  1  0  0  0  0
 16 17  1  1  0  0  0
 18  2  1  1  0  0  0
 18 16  1  0  0  0  0
 19 18  1  0  0  0  0
 19 20  1  6  0  0  0
 21 19  1  0  0  0  0
 21 22  1  6  0  0  0
 23 20  1  1  0  0  0
 23 24  1  0  0  0  0
 23 28  1  0  0  0  0
 24 25  1  6  0  0  0
 24 26  1  0  0  0  0
 26 27  1  0  0  0  0
 26 32  1  6  0  0  0
 27 28  1  0  0  0  0
 27 29  1  1  0  0  0
 29 30  1  0  0  0  0
 31 32  1  1  0  0  0
 31 40  1  0  0  0  0
 33 31  1  0  0  0  0
 33 42  1  1  0  0  0
 35 33  1  0  0  0  0
 35 36  1  6  0  0  0
 37 35  1  0  0  0  0
 37 38  1  1  0  0  0
 37 39  1  0  0  0  0
 39 40  1  0  0  0  0
 39 41  1  1  0  0  0
 41 34  1  0  0  0  0
M  END
>  <CHROM.1>
97.21970233,51.03957052,-126.14517616,-163.55804231,130.12033086,178.64048376
-100.58153416,110.78283359,59.82180949,1.17083525,13.59766146,4.74641606
3.11828561,-0.80794840,-2.99029107

>  <Name>
2et4_lig

>  <RI>
0

>  <Rbt.Current_Directory>
/home/itssahil/PROJECTS/Mol_Feturizer/New_Systems/rnas/2et4

>  <Rbt.Executable>
rbdock ($Id: //depot/dev/client3/rdock/2013.1/src/exe/rbdock.cxx#4 $)

>  <Rbt.Library>
libRbt.so (2013.1, Build901 2013/11/27)

>  <Rbt.Parameter_File>
/export/apps/rDock/src/rDock_2013.1_src/data/scripts/dock_solv.prm

>  <Rbt.Receptor>
prm/blind_docking_20.prm

>  <SCORE>
41.5399

>  <SCORE.INTER>
9.97025

>  <SCORE.INTER.CONST>
1

>  <SCORE.INTER.POLAR>
-1.24718

>  <SCORE.INTER.ROT>
9

>  <SCORE.INTER.SOLV>
26.1594

>  <SCORE.INTER.VDW>
-7.51572

>  <SCORE.INTER.norm>
0.237387

>  <SCORE.INTRA>
12.3824

>  <SCORE.INTRA.DIHEDRAL>
9.31887

>  <SCORE.INTRA.DIHEDRAL.0>
21.6909

>  <SCORE.INTRA.POLAR>
0

>  <SCORE.INTRA.POLAR.0>
0

>  <SCORE.INTRA.REPUL>
0

>  <SCORE.INTRA.REPUL.0>
0

>  <SCORE.INTRA.SOLV>
6.12745

>  <SCORE.INTRA.SOLV.lig_0>
-116.606

>  <SCORE.INTRA.VDW>
4.65926

>  <SCORE.INTRA.VDW.0>
-6.01229

>  <SCORE.INTRA.norm>
0.294819

>  <SCORE.RESTR>
19.1872

>  <SCORE.RESTR.CAVITY>
19.1872

>  <SCORE.RESTR.norm>
0.456839

>  <SCORE.SYSTEM>
0

>  <SCORE.SYSTEM.CONST>
0

>  <SCORE.SYSTEM.DIHEDRAL>
0

>  <SCORE.SYSTEM.SOLV>
0

>  <SCORE.SYSTEM.norm>
0

>  <SCORE.heavy>
42

>  <SCORE.norm>
0.989045

>  <RMSD>
16.418

$$$$
2et4_lig
 OpenBabel11021811423D
libRbt.so/2013.1/901 2013/11/27
 42 45  0  0  0  0  0  0  0  0999 V2000
   -0.0285   13.9962    7.2570 C   0  0  2  0  0  0  0  0  0  0  0  0
   -0.1986   12.5800    7.1683 O   0  0  0  0  0  0  0  0  0  0  0  0
    0.1925   14.3371    8.7529 C   0  0  2  0  0  0  0  0  0  0  0  0
    1.3244   13.6269    9.2918 N   0  0  0  0  0  0  0  0  0  0  0  0
   -1.1035   14.0122    9.5504 C   0  0  1  0  0  0  0  0  0  0  0  0
   -0.9075   14.3347   10.8918 O   0  0  0  0  0  0  0  0  0  0  0  0
   -2.2849   14.8172    8.9131 C   0  0  2  0  0  0  0  0  0  0  0  0
   -3.4863   14.5460    9.6035 O   0  0  0  0  0  0  0  0  0  0  0  0
   -2.4603   14.4483    7.4088 C   0  0  2  0  0  0  0  0  0  0  0  0
   -1.2269   14.7111    6.7333 O   0  0  0  0  0  0  0  0  0  0  0  0
   -3.6068   15.2651    6.7278 C   0  0  0  0  0  0  0  0  0  0  0  0
   -4.8884   14.9168    7.2351 N   0  0  0  0  0  0  0  0  0  0  0  0
   -0.0073    9.7525    3.9091 C   0  0  2  0  0  0  0  0  0  0  0  0
   -0.3364    9.0666    2.6533 N   0  0  0  0  0  0  0  0  0  0  0  0
   -1.2775    9.6796    4.9158 C   0  0  0  0  0  0  0  0  0  0  0  0
   -0.9222   10.4331    6.2624 C   0  0  2  0  0  0  0  0  0  0  0  0
   -2.0598   10.4140    7.1989 N   0  0  0  0  0  0  0  0  0  0  0  0
   -0.5323   11.9156    5.9419 C   0  0  2  0  0  0  0  0  0  0  0  0
    0.6747   11.9707    4.9479 C   0  0  2  0  0  0  0  0  0  0  0  0
    0.9444   13.3736    4.7067 O   0  0  0  0  0  0  0  0  0  0  0  0
    0.3054   11.2302    3.6225 C   0  0  1  0  0  0  0  0  0  0  0  0
    1.3971   11.2831    2.7675 O   0  0  0  0  0  0  0  0  0  0  0  0
    2.0827   13.8733    4.1673 C   0  0  1  0  0  0  0  0  0  0  0  0
    2.1435   13.5964    2.6425 C   0  0  2  0  0  0  0  0  0  0  0  0
    2.6431   12.3273    2.3346 O   0  0  0  0  0  0  0  0  0  0  0  0
    2.9297   14.8170    2.2012 C   0  0  1  0  0  0  0  0  0  0  0  0
    2.4545   15.9880    3.0728 C   0  0  2  0  0  0  0  0  0  0  0  0
    2.2470   15.3099    4.3118 O   0  0  0  0  0  0  0  0  0  0  0  0
    1.1557   16.7128    2.5804 C   0  0  0  0  0  0  0  0  0  0  0  0
    0.0540   15.7781    2.7278 O   0  0  0  0  0  0  0  0  0  0  0  0
    5.3091   15.3994    1.8541 C   0  0  2  0  0  0  0  0  0  0  0  0
    4.3707   14.5211    2.4125 O   0  0  0  0  0  0  0  0  0  0  0  0
    4.9182   15.7932    0.3635 C   0  0  1  0  0  0  0  0  0  0  0  0
   10.4150   15.6275    1.1284 N   0  0  0  0  0  0  0  0  0  0  0  0
    6.0736   16.7841   -0.1841 C   0  0  1  0  0  0  0  0  0  0  0  0
    6.1370   17.9873    0.7355 O   0  0  0  0  0  0  0  0  0  0  0  0
    7.4989   16.0130   -0.2014 C   0  0  2  0  0  0  0  0  0  0  0  0
    7.4159   14.8751   -1.0926 O   0  0  0  0  0  0  0  0  0  0  0  0
    7.8471   15.5931    1.3356 C   0  0  1  0  0  0  0  0  0  0  0  0
    6.7269   14.7572    1.8910 O   0  0  0  0  0  0  0  0  0  0  0  0
    9.2031   14.8122    1.4482 C   0  0  0  0  0  0  0  0  0  0  0  0
    4.7594   14.5559   -0.4700 N   0  0  0  0  0  0  0  0  0  0  0  0
  1  2  1  1  0  0  0
  1  3  1  0  0  0  0
  1 10  1  0  0  0  0
  3  4  1  1  0  0  0
  3  5  1  0  0  0  0
  5  6  1  1  0  0  0
  5  7  1  0  0  0  0
  7  8  1  1  0  0  0
  7  9  1  0  0  0  0
  9 10  1  0  0  0  0
  9 11  1  6  0  0  0
 11 12  1  0  0  0  0
 13 14  1  6  0  0  0
 13 15  1  0  0  0  0
 13 21  1  0  0  0  0
 16 15  1  0  0  0  0
 16 17  1  1  0  0  0
 18  2  1  1  0  0  0
 18 16  1  0  0  0  0
 19 18  1  0  0  0  0
 19 20  1  6  0  0  0
 21 19  1  0  0  0  0
 21 22  1  6  0  0  0
 23 20  1  6  0  0  0
 23 24  1  0  0  0  0
 23 28  1  0  0  0  0
 24 25  1  1  0  0  0
 24 26  1  0  0  0  0
 26 27  1  0  0  0  0
 26 32  1  1  0  0  0
 27 28  1  0  0  0  0
 27 29  1  6  0  0  0
 29 30  1  0  0  0  0
 31 32  1  6  0  0  0
 31 40  1  0  0  0  0
 33 31  1  0  0  0  0
 33 42  1  6  0  0  0
 35 33  1  0  0  0  0
 35 36  1  1  0  0  0
 37 35  1  0  0  0  0
 37 38  1  6  0  0  0
 37 39  1  0  0  0  0
 39 40  1  0  0  0  0
 39 41  1  6  0  0  0
 41 34  1  0  0  0  0
M  END
>  <CHROM.1>
174.88624171,-67.49200337,-168.64019453,163.57775341,73.99995415,168.58785479
67.65171883,-44.10115095,67.20134110,1.81452925,13.96574662,4.27666164,-2.96238447
-0.69320522,-2.55956140

>  <Name>
2et4_lig

>  <RI>
0

>  <Rbt.Current_Directory>
/home/itssahil/PROJECTS/Mol_Feturizer/New_Systems/rnas/2et4

>  <Rbt.Executable>
rbdock ($Id: //depot/dev/client3/rdock/2013.1/src/exe/rbdock.cxx#4 $)

>  <Rbt.Library>
libRbt.so (2013.1, Build901 2013/11/27)

>  <Rbt.Parameter_File>
/export/apps/rDock/src/rDock_2013.1_src/data/scripts/dock_solv.prm

>  <Rbt.Receptor>
prm/blind_docking_20.prm

>  <SCORE>
31.5214

>  <SCORE.INTER>
1.04344

>  <SCORE.INTER.CONST>
1

>  <SCORE.INTER.POLAR>
-1.57056

>  <SCORE.INTER.ROT>
9

>  <SCORE.INTER.SOLV>
27.8993

>  <SCORE.INTER.VDW>
-12.9689

>  <SCORE.INTER.norm>
0.0248439

>  <SCORE.INTRA>
12.6007

>  <SCORE.INTRA.DIHEDRAL>
-16.24

>  <SCORE.INTRA.DIHEDRAL.0>
21.6909

>  <SCORE.INTRA.POLAR>
0

>  <SCORE.INTRA.POLAR.0>
0

>  <SCORE.INTRA.REPUL>
0

>  <SCORE.INTRA.REPUL.0>
0

>  <SCORE.INTRA.SOLV>
-1.47329

>  <SCORE.INTRA.SOLV.lig_0>
-116.606

>  <SCORE.INTRA.VDW>
21.4573

>  <SCORE.INTRA.VDW.0>
-6.01229

>  <SCORE.INTRA.norm>
0.300017

>  <SCORE.RESTR>
17.8773

>  <SCORE.RESTR.CAVITY>
17.8773

>  <SCORE.RESTR.norm>
0.425649

>  <SCORE.SYSTEM>
0

>  <SCORE.SYSTEM.CONST>
0

>  <SCORE.SYSTEM.DIHEDRAL>
0

>  <SCORE.SYSTEM.SOLV>
0

>  <SCORE.SYSTEM.norm>
0

>  <SCORE.heavy>
42

>  <SCORE.norm>
0.75051

>  <RMSD>
16.423

$$$$
2et4_lig
 OpenBabel11021811423D
libRbt.so/2013.1/901 2013/11/27
 42 45  0  0  0  0  0  0  0  0999 V2000
    0.1304   13.9445    7.2311 C   0  0  2  0  0  0  0  0  0  0  0  0
    0.0873   12.5186    7.1460 O   0  0  0  0  0  0  0  0  0  0  0  0
    0.2999   14.3079    8.7284 C   0  0  2  0  0  0  0  0  0  0  0  0
    1.4825   13.7022    9.2854 N   0  0  0  0  0  0  0  0  0  0  0  0
   -0.9732   13.8721    9.5097 C   0  0  1  0  0  0  0  0  0  0  0  0
   -0.8250   14.2146   10.8522 O   0  0  0  0  0  0  0  0  0  0  0  0
   -2.2122   14.5677    8.8532 C   0  0  2  0  0  0  0  0  0  0  0  0
   -3.3944   14.1934    9.5284 O   0  0  0  0  0  0  0  0  0  0  0  0
   -2.3337   14.1803    7.3482 C   0  0  2  0  0  0  0  0  0  0  0  0
   -1.1191   14.5492    6.6883 O   0  0  0  0  0  0  0  0  0  0  0  0
   -3.5383   14.8906    6.6484 C   0  0  0  0  0  0  0  0  0  0  0  0
   -4.7787   14.5814    7.2705 N   0  0  0  0  0  0  0  0  0  0  0  0
    0.0327    9.7682    3.8162 C   0  0  2  0  0  0  0  0  0  0  0  0
   -0.4325    9.0556    2.6198 N   0  0  0  0  0  0  0  0  0  0  0  0
   -1.0097    9.5205    5.0346 C   0  0  0  0  0  0  0  0  0  0  0  0
   -0.5108   10.3028    6.3177 C   0  0  2  0  0  0  0  0  0  0  0  0
   -1.4437   10.1263    7.4446 N   0  0  0  0  0  0  0  0  0  0  0  0
   -0.3796   11.8264    5.9798 C   0  0  2  0  0  0  0  0  0  0  0  0
    0.6057   12.0482    4.7849 C   0  0  2  0  0  0  0  0  0  0  0  0
    0.6447   13.4764    4.5443 O   0  0  0  0  0  0  0  0  0  0  0  0
    0.0955   11.2767    3.5256 C   0  0  1  0  0  0  0  0  0  0  0  0
    0.9945   11.4799    2.4883 O   0  0  0  0  0  0  0  0  0  0  0  0
    1.7330   14.1756    4.1408 C   0  0  1  0  0  0  0  0  0  0  0  0
    2.0970   13.8382    2.6714 C   0  0  2  0  0  0  0  0  0  0  0  0
    2.8834   12.6885    2.5507 O   0  0  0  0  0  0  0  0  0  0  0  0
    2.6851   15.1723    2.2503 C   0  0  1  0  0  0  0  0  0  0  0  0
    1.8495   16.2609    2.9383 C   0  0  2  0  0  0  0  0  0  0  0  0
    1.5813   15.6202    4.1854 O   0  0  0  0  0  0  0  0  0  0  0  0
    0.5308   16.6692    2.1973 C   0  0  0  0  0  0  0  0  0  0  0  0
   -0.3884   15.5493    2.2972 O   0  0  0  0  0  0  0  0  0  0  0  0
    5.1011   15.1083    1.7208 C   0  0  2  0  0  0  0  0  0  0  0  0
    4.1017   15.1978    2.6992 O   0  0  0  0  0  0  0  0  0  0  0  0
    6.4998   14.6986    2.3578 C   0  0  1  0  0  0  0  0  0  0  0  0
    7.2099   18.0843   -1.9396 N   0  0  0  0  0  0  0  0  0  0  0  0
    7.5745   14.6476    1.1498 C   0  0  1  0  0  0  0  0  0  0  0  0
    7.0863   13.6410    0.1271 O   0  0  0  0  0  0  0  0  0  0  0  0
    7.7147   16.1139    0.4740 C   0  0  2  0  0  0  0  0  0  0  0  0
    8.1906   17.0541    1.4668 O   0  0  0  0  0  0  0  0  0  0  0  0
    6.2551   16.5147   -0.1333 C   0  0  1  0  0  0  0  0  0  0  0  0
    5.2265   16.4623    0.9627 O   0  0  0  0  0  0  0  0  0  0  0  0
    6.2554   17.9356   -0.7984 C   0  0  0  0  0  0  0  0  0  0  0  0
    6.8751   15.6676    3.4399 N   0  0  0  0  0  0  0  0  0  0  0  0
  1  2  1  1  0  0  0
  1  3  1  0  0  0  0
  1 10  1  0  0  0  0
  3  4  1  1  0  0  0
  3  5  1  0  0  0  0
  5  6  1  1  0  0  0
  5  7  1  0  0  0  0
  7  8  1  1  0  0  0
  7  9  1  0  0  0  0
  9 10  1  0  0  0  0
  9 11  1  6  0  0  0
 11 12  1  0  0  0  0
 13 14  1  6  0  0  0
 13 15  1  0  0  0  0
 13 21  1  0  0  0  0
 16 15  1  0  0  0  0
 16 17  1  1  0  0  0
 18  2  1  1  0  0  0
 18 16  1  0  0  0  0
 19 18  1  0  0  0  0
 19 20  1  6  0  0  0
 21 19  1  0  0  0  0
 21 22  1  6  0  0  0
 23 20  1  6  0  0  0
 23 24  1  0  0  0  0
 23 28  1  0  0  0  0
 24 25  1  1  0  0  0
 24 26  1  0  0  0  0
 26 27  1  0  0  0  0
 26 32  1  1  0  0  0
 27 28  1  0  0  0  0
 27 29  1  6  0  0  0
 29 30  1  0  0  0  0
 31 32  1  1  0  0  0
 31 40  1  0  0  0  0
 33 31  1  0  0  0  0
 33 42  1  1  0  0  0
 35 33  1  0  0  0  0
 35 36  1  6  0  0  0
 37 35  1  0  0  0  0
 37 38  1  1  0  0  0
 37 39  1  0  0  0  0
 39 40  1  0  0  0  0
 39 41  1  1  0  0  0
 41 34  1  0  0  0  0
M  END
>  <CHROM.1>
164.46899787,-58.82166988,-170.79605202,145.25159963,70.13206631,108.91243396
69.57695196,-162.33791359,60.07425225,1.72872618,14.05660913,4.29077435,-3.04464141
-0.75556012,-2.59733849

>  <Name>
2et4_lig

>  <RI>
0

>  <Rbt.Current_Directory>
/home/itssahil/PROJECTS/Mol_Feturizer/New_Systems/rnas/2et4

>  <Rbt.Executable>
rbdock ($Id: //depot/dev/client3/rdock/2013.1/src/exe/rbdock.cxx#4 $)

>  <Rbt.Library>
libRbt.so (2013.1, Build901 2013/11/27)

>  <Rbt.Parameter_File>
/export/apps/rDock/src/rDock_2013.1_src/data/scripts/dock_solv.prm

>  <Rbt.Receptor>
prm/blind_docking_20.prm

>  <SCORE>
26.208

>  <SCORE.INTER>
4.05799

>  <SCORE.INTER.CONST>
1

>  <SCORE.INTER.POLAR>
-1.05108

>  <SCORE.INTER.ROT>
9

>  <SCORE.INTER.SOLV>
28.9779

>  <SCORE.INTER.VDW>
-13.0504

>  <SCORE.INTER.norm>
0.0966189

>  <SCORE.INTRA>
1.13694

>  <SCORE.INTRA.DIHEDRAL>
-6.72605

>  <SCORE.INTRA.DIHEDRAL.0>
21.6909

>  <SCORE.INTRA.POLAR>
0

>  <SCORE.INTRA.POLAR.0>
0

>  <SCORE.INTRA.REPUL>
0.0472478

>  <SCORE.INTRA.REPUL.0>
0

>  <SCORE.INTRA.SOLV>
-2.23765

>  <SCORE.INTRA.SOLV.lig_0>
-116.606

>  <SCORE.INTRA.VDW>
5.38255

>  <SCORE.INTRA.VDW.0>
-6.01229

>  <SCORE.INTRA.norm>
0.0270701

>  <SCORE.RESTR>
21.0131

>  <SCORE.RESTR.CAVITY>
21.0131

>  <SCORE.RESTR.norm>
0.500311

>  <SCORE.SYSTEM>
0

>  <SCORE.SYSTEM.CONST>
0

>  <SCORE.SYSTEM.DIHEDRAL>
0

>  <SCORE.SYSTEM.SOLV>
0

>  <SCORE.SYSTEM.norm>
0

>  <SCORE.heavy>
42

>  <SCORE.norm>
0.624

>  <RMSD>
16.435

$$$$
2et4_lig
 OpenBabel11021811423D
libRbt.so/2013.1/901 2013/11/27
 42 45  0  0  0  0  0  0  0  0999 V2000
   -1.0527   15.0801    7.3484 C   0  0  2  0  0  0  0  0  0  0  0  0
   -0.1764   13.9551    7.2546 O   0  0  0  0  0  0  0  0  0  0  0  0
   -0.9830   15.5932    8.8094 C   0  0  2  0  0  0  0  0  0  0  0  0
    0.3663   15.9329    9.1829 N   0  0  0  0  0  0  0  0  0  0  0  0
   -1.5722   14.5128    9.7616 C   0  0  1  0  0  0  0  0  0  0  0  0
   -1.5232   14.9832   11.0723 O   0  0  0  0  0  0  0  0  0  0  0  0
   -3.0338   14.1973    9.2987 C   0  0  2  0  0  0  0  0  0  0  0  0
   -3.6064   13.2130   10.1335 O   0  0  0  0  0  0  0  0  0  0  0  0
   -3.0527   13.6959    7.8229 C   0  0  2  0  0  0  0  0  0  0  0  0
   -2.4503   14.6980    6.9985 O   0  0  0  0  0  0  0  0  0  0  0  0
   -4.5029   13.4099    7.3124 C   0  0  0  0  0  0  0  0  0  0  0  0
   -5.1677   14.5946    6.8932 N   0  0  0  0  0  0  0  0  0  0  0  0
    0.4310   10.2374    5.1418 C   0  0  2  0  0  0  0  0  0  0  0  0
    0.1806    9.0961    4.2527 N   0  0  0  0  0  0  0  0  0  0  0  0
   -0.7115   10.2893    6.2926 C   0  0  0  0  0  0  0  0  0  0  0  0
   -0.4447   11.5300    7.2396 C   0  0  2  0  0  0  0  0  0  0  0  0
   -1.4761   11.6311    8.2873 N   0  0  0  0  0  0  0  0  0  0  0  0
   -0.4341   12.8432    6.3863 C   0  0  2  0  0  0  0  0  0  0  0  0
    0.6520   12.7675    5.2627 C   0  0  2  0  0  0  0  0  0  0  0  0
    0.5702   14.0134    4.5279 O   0  0  0  0  0  0  0  0  0  0  0  0
    0.3702   11.5436    4.3332 C   0  0  1  0  0  0  0  0  0  0  0  0
    1.3552   11.4938    3.3570 O   0  0  0  0  0  0  0  0  0  0  0  0
    1.5501   14.5313    3.7481 C   0  0  1  0  0  0  0  0  0  0  0  0
    2.8283   13.6548    3.8062 C   0  0  2  0  0  0  0  0  0  0  0  0
    3.6466   13.9495    4.9010 O   0  0  0  0  0  0  0  0  0  0  0  0
    3.3623   13.9041    2.4079 C   0  0  1  0  0  0  0  0  0  0  0  0
    2.1441   13.9851    1.4772 C   0  0  2  0  0  0  0  0  0  0  0  0
    1.2141   14.6415    2.3385 O   0  0  0  0  0  0  0  0  0  0  0  0
    1.5938   12.6109    0.9640 C   0  0  0  0  0  0  0  0  0  0  0  0
    2.7278   11.7152    0.8199 O   0  0  0  0  0  0  0  0  0  0  0  0
    5.4271   15.1837    1.9379 C   0  0  2  0  0  0  0  0  0  0  0  0
    4.1185   15.1831    2.4396 O   0  0  0  0  0  0  0  0  0  0  0  0
    5.8742   16.6424    1.4885 C   0  0  1  0  0  0  0  0  0  0  0  0
    8.1565   12.8147   -1.7556 N   0  0  0  0  0  0  0  0  0  0  0  0
    7.3799   16.5201    0.9102 C   0  0  1  0  0  0  0  0  0  0  0  0
    8.2613   15.9559    2.0067 O   0  0  0  0  0  0  0  0  0  0  0  0
    7.3964   15.5440   -0.3834 C   0  0  2  0  0  0  0  0  0  0  0  0
    6.5561   16.1084   -1.4186 O   0  0  0  0  0  0  0  0  0  0  0  0
    6.8974   14.0712    0.1082 C   0  0  1  0  0  0  0  0  0  0  0  0
    5.5398   14.1904    0.7444 O   0  0  0  0  0  0  0  0  0  0  0  0
    6.8469   13.0349   -1.0686 C   0  0  0  0  0  0  0  0  0  0  0  0
    4.9014   17.1924    0.4875 N   0  0  0  0  0  0  0  0  0  0  0  0
  1  2  1  1  0  0  0
  1  3  1  0  0  0  0
  1 10  1  0  0  0  0
  3  4  1  1  0  0  0
  3  5  1  0  0  0  0
  5  6  1  1  0  0  0
  5  7  1  0  0  0  0
  7  8  1  1  0  0  0
  7  9  1  0  0  0  0
  9 10  1  0  0  0  0
  9 11  1  6  0  0  0
 11 12  1  0  0  0  0
 13 14  1  6  0  0  0
 13 15  1  0  0  0  0
 13 21  1  0  0  0  0
 16 15  1  0  0  0  0
 16 17  1  1  0  0  0
 18  2  1  1  0  0  0
 18 16  1  0  0  0  0
 19 18  1  0  0  0  0
 19 20  1  6  0  0  0
 21 19  1  0  0  0  0
 21 22  1  6  0  0  0
 23 20  1  1  0  0  0
 23 24  1  0  0  0  0
 23 28  1  0  0  0  0
 24 25  1  1  0  0  0
 24 26  1  0  0  0  0
 26 27  1  0  0  0  0
 26 32  1  1  0  0  0
 27 28  1  0  0  0  0
 27 29  1  1  0  0  0
 29 30  1  0  0  0  0
 31 32  1  6  0  0  0
 31 40  1  0  0  0  0
 33 31  1  0  0  0  0
 33 42  1  6  0  0  0
 35 33  1  0  0  0  0
 35 36  1  1  0  0  0
 37 35  1  0  0  0  0
 37 38  1  6  0  0  0
 37 39  1  0  0  0  0
 39 40  1  0  0  0  0
 39 41  1  6  0  0  0
 41 34  1  0  0  0  0
M  END
>  <CHROM.1>
147.21990441,81.52307865,-124.08126569,159.60378406,-3.51525599,127.90511415
-33.13681225,156.68875654,59.22608710,1.68217000,13.83610224,4.34359690,-2.81193643
-0.70457070,-2.50979389

>  <Name>
2et4_lig

>  <RI>
0

>  <Rbt.Current_Directory>
/home/itssahil/PROJECTS/Mol_Feturizer/New_Systems/rnas/2et4

>  <Rbt.Executable>
rbdock ($Id: //depot/dev/client3/rdock/2013.1/src/exe/rbdock.cxx#4 $)

>  <Rbt.Library>
libRbt.so (2013.1, Build901 2013/11/27)

>  <Rbt.Parameter_File>
/export/apps/rDock/src/rDock_2013.1_src/data/scripts/dock_solv.prm

>  <Rbt.Receptor>
prm/blind_docking_20.prm

>  <SCORE>
60.3473

>  <SCORE.INTER>
29.4601

>  <SCORE.INTER.CONST>
1

>  <SCORE.INTER.POLAR>
-0.899603

>  <SCORE.INTER.ROT>
9

>  <SCORE.INTER.SOLV>
26.5536

>  <SCORE.INTER.VDW>
4.18752

>  <SCORE.INTER.norm>
0.70143

>  <SCORE.INTRA>
12.1625

>  <SCORE.INTRA.DIHEDRAL>
11.4895

>  <SCORE.INTRA.DIHEDRAL.0>
21.6909

>  <SCORE.INTRA.POLAR>
0

>  <SCORE.INTRA.POLAR.0>
0

>  <SCORE.INTRA.REPUL>
0

>  <SCORE.INTRA.REPUL.0>
0

>  <SCORE.INTRA.SOLV>
2.632

>  <SCORE.INTRA.SOLV.lig_0>
-116.606

>  <SCORE.INTRA.VDW>
5.10172

>  <SCORE.INTRA.VDW.0>
-6.01229

>  <SCORE.INTRA.norm>
0.289583

>  <SCORE.RESTR>
18.7248

>  <SCORE.RESTR.CAVITY>
18.7248

>  <SCORE.RESTR.norm>
0.445828

>  <SCORE.SYSTEM>
0

>  <SCORE.SYSTEM.CONST>
0

>  <SCORE.SYSTEM.DIHEDRAL>
0

>  <SCORE.SYSTEM.SOLV>
0

>  <SCORE.SYSTEM.norm>
0

>  <SCORE.heavy>
42

>  <SCORE.norm>
1.43684

>  <RMSD>
16.498

$$$$
2et4_lig
 OpenBabel11021811423D
libRbt.so/2013.1/901 2013/11/27
 42 45  0  0  0  0  0  0  0  0999 V2000
   -0.7649   15.2991    8.8064 C   0  0  2  0  0  0  0  0  0  0  0  0
   -0.0214   14.1177    8.5004 O   0  0  0  0  0  0  0  0  0  0  0  0
   -1.7367   14.9415    9.9599 C   0  0  2  0  0  0  0  0  0  0  0  0
   -1.0262   14.4430   11.1098 N   0  0  0  0  0  0  0  0  0  0  0  0
   -2.7771   13.9023    9.4510 C   0  0  1  0  0  0  0  0  0  0  0  0
   -3.6591   13.5949   10.4851 O   0  0  0  0  0  0  0  0  0  0  0  0
   -3.5087   14.5107    8.2083 C   0  0  2  0  0  0  0  0  0  0  0  0
   -4.4601   13.5954    7.7078 O   0  0  0  0  0  0  0  0  0  0  0  0
   -2.4903   14.8630    7.0819 C   0  0  2  0  0  0  0  0  0  0  0  0
   -1.5251   15.7742    7.6157 O   0  0  0  0  0  0  0  0  0  0  0  0
   -3.1822   15.5125    5.8390 C   0  0  0  0  0  0  0  0  0  0  0  0
   -3.7389   16.7857    6.1390 N   0  0  0  0  0  0  0  0  0  0  0  0
   -0.1080   10.5216    6.1097 C   0  0  2  0  0  0  0  0  0  0  0  0
   -0.5996    9.4750    5.2049 N   0  0  0  0  0  0  0  0  0  0  0  0
   -1.0592   10.5949    7.4220 C   0  0  0  0  0  0  0  0  0  0  0  0
   -0.5330   11.7347    8.3870 C   0  0  2  0  0  0  0  0  0  0  0  0
   -1.3850   11.8540    9.5835 N   0  0  0  0  0  0  0  0  0  0  0  0
   -0.5142   13.0993    7.6189 C   0  0  2  0  0  0  0  0  0  0  0  0
    0.3832   13.0056    6.3408 C   0  0  2  0  0  0  0  0  0  0  0  0
    0.3217   14.3035    5.6997 O   0  0  0  0  0  0  0  0  0  0  0  0
   -0.1535   11.8827    5.3961 C   0  0  1  0  0  0  0  0  0  0  0  0
    0.6684   11.8134    4.2802 O   0  0  0  0  0  0  0  0  0  0  0  0
    1.1191   14.7171    4.6852 C   0  0  1  0  0  0  0  0  0  0  0  0
    2.2114   13.6618    4.3711 C   0  0  2  0  0  0  0  0  0  0  0  0
    3.3335   13.7702    5.1982 O   0  0  0  0  0  0  0  0  0  0  0  0
    2.3747   13.9110    2.8831 C   0  0  1  0  0  0  0  0  0  0  0  0
    0.9765   14.2225    2.3309 C   0  0  2  0  0  0  0  0  0  0  0  0
    0.4319   14.9565    3.4274 O   0  0  0  0  0  0  0  0  0  0  0  0
    0.0993   12.9752    1.9712 C   0  0  0  0  0  0  0  0  0  0  0  0
    0.9479   12.0388    1.2556 O   0  0  0  0  0  0  0  0  0  0  0  0
    4.6126   14.7950    2.3073 C   0  0  2  0  0  0  0  0  0  0  0  0
    3.3007   15.0621    2.7217 O   0  0  0  0  0  0  0  0  0  0  0  0
    5.3990   16.1368    1.9741 C   0  0  1  0  0  0  0  0  0  0  0  0
    4.7917   11.3957   -0.5027 N   0  0  0  0  0  0  0  0  0  0  0  0
    6.8819   15.7096    1.4890 C   0  0  1  0  0  0  0  0  0  0  0  0
    7.5331   14.9182    2.6058 O   0  0  0  0  0  0  0  0  0  0  0  0
    6.7847   14.8103    0.1443 C   0  0  2  0  0  0  0  0  0  0  0  0
    6.1688   15.5902   -0.9086 O   0  0  0  0  0  0  0  0  0  0  0  0
    5.9415   13.4645    0.5153 C   0  0  1  0  0  0  0  0  0  0  0  0
    4.5977   13.8534    1.0675 O   0  0  0  0  0  0  0  0  0  0  0  0
    5.7572   12.5163   -0.7209 C   0  0  0  0  0  0  0  0  0  0  0  0
    4.6485   16.9304    0.9456 N   0  0  0  0  0  0  0  0  0  0  0  0
  1  2  1  6  0  0  0
  1  3  1  0  0  0  0
  1 10  1  0  0  0  0
  3  4  1  1  0  0  0
  3  5  1  0  0  0  0
  5  6  1  1  0  0  0
  5  7  1  0  0  0  0
  7  8  1  6  0  0  0
  7  9  1  0  0  0  0
  9 10  1  0  0  0  0
  9 11  1  6  0  0  0
 11 12  1  0  0  0  0
 13 14  1  6  0  0  0
 13 15  1  0  0  0  0
 13 21  1  0  0  0  0
 16 15  1  0  0  0  0
 16 17  1  1  0  0  0
 18  2  1  1  0  0  0
 18 16  1  0  0  0  0
 19 18  1  0  0  0  0
 19 20  1  6  0  0  0
 21 19  1  0  0  0  0
 21 22  1  6  0  0  0
 23 20  1  1  0  0  0
 23 24  1  0  0  0  0
 23 28  1  0  0  0  0
 24 25  1  1  0  0  0
 24 26  1  0  0  0  0
 26 27  1  0  0  0  0
 26 32  1  1  0  0  0
 27 28  1  0  0  0  0
 27 29  1  1  0  0  0
 29 30  1  0  0  0  0
 31 32  1  6  0  0  0
 31 40  1  0  0  0  0
 33 31  1  0  0  0  0
 33 42  1  6  0  0  0
 35 33  1  0  0  0  0
 35 36  1  1  0  0  0
 37 35  1  0  0  0  0
 37 38  1  6  0  0  0
 37 39  1  0  0  0  0
 39 40  1  0  0  0  0
 39 41  1  6  0  0  0
 41 34  1  0  0  0  0
M  END
>  <CHROM.1>
84.21942288,65.95942388,-123.12443961,168.81473206,-5.19787352,105.03502273
-44.44021017,171.40987518,-169.61140581,1.10205061,13.84261003,4.85239020
-2.92362490,-0.77122688,-2.75642649

>  <Name>
2et4_lig

>  <RI>
0

>  <Rbt.Current_Directory>
/home/itssahil/PROJECTS/Mol_Feturizer/New_Systems/rnas/2et4

>  <Rbt.Executable>
rbdock ($Id: //depot/dev/client3/rdock/2013.1/src/exe/rbdock.cxx#4 $)

>  <Rbt.Library>
libRbt.so (2013.1, Build901 2013/11/27)

>  <Rbt.Parameter_File>
/export/apps/rDock/src/rDock_2013.1_src/data/scripts/dock_solv.prm

>  <Rbt.Receptor>
prm/blind_docking_20.prm

>  <SCORE>
29.672

>  <SCORE.INTER>
-0.79596

>  <SCORE.INTER.CONST>
1

>  <SCORE.INTER.POLAR>
-1.72352

>  <SCORE.INTER.ROT>
9

>  <SCORE.INTER.SOLV>
28.0904

>  <SCORE.INTER.VDW>
-13.7491

>  <SCORE.INTER.norm>
-0.0189514

>  <SCORE.INTRA>
14.5494

>  <SCORE.INTRA.DIHEDRAL>
3.53179

>  <SCORE.INTRA.DIHEDRAL.0>
21.6909

>  <SCORE.INTRA.POLAR>
0

>  <SCORE.INTRA.POLAR.0>
0

>  <SCORE.INTRA.REPUL>
0.0108622

>  <SCORE.INTRA.REPUL.0>
0

>  <SCORE.INTRA.SOLV>
4.289

>  <SCORE.INTRA.SOLV.lig_0>
-116.606

>  <SCORE.INTRA.VDW>
10.5847

>  <SCORE.INTRA.VDW.0>
-6.01229

>  <SCORE.INTRA.norm>
0.346414

>  <SCORE.RESTR>
15.9185

>  <SCORE.RESTR.CAVITY>
15.9185

>  <SCORE.RESTR.norm>
0.379013

>  <SCORE.SYSTEM>
0

>  <SCORE.SYSTEM.CONST>
0

>  <SCORE.SYSTEM.DIHEDRAL>
0

>  <SCORE.SYSTEM.SOLV>
0

>  <SCORE.SYSTEM.norm>
0

>  <SCORE.heavy>
42

>  <SCORE.norm>
0.706476

>  <RMSD>
16.524

$$$$
2et4_lig
 OpenBabel11021811423D
libRbt.so/2013.1/901 2013/11/27
 42 45  0  0  0  0  0  0  0  0999 V2000
   -0.3385   14.4293    7.1310 C   0  0  2  0  0  0  0  0  0  0  0  0
   -0.2112   13.1768    6.4549 O   0  0  0  0  0  0  0  0  0  0  0  0
    0.1723   14.2207    8.5796 C   0  0  2  0  0  0  0  0  0  0  0  0
    1.5304   13.7402    8.5935 N   0  0  0  0  0  0  0  0  0  0  0  0
   -0.7773   13.2366    9.3219 C   0  0  1  0  0  0  0  0  0  0  0  0
   -0.3250   13.0634   10.6286 O   0  0  0  0  0  0  0  0  0  0  0  0
   -2.2277   13.8224    9.2688 C   0  0  2  0  0  0  0  0  0  0  0  0
   -3.1269   12.9551    9.9266 O   0  0  0  0  0  0  0  0  0  0  0  0
   -2.6915   14.0238    7.7943 C   0  0  2  0  0  0  0  0  0  0  0  0
   -1.7566   14.8880    7.1417 O   0  0  0  0  0  0  0  0  0  0  0  0
   -4.1227   14.6474    7.7028 C   0  0  0  0  0  0  0  0  0  0  0  0
   -4.1973   15.9157    8.3408 N   0  0  0  0  0  0  0  0  0  0  0  0
   -0.8557   11.3892    2.5763 C   0  0  2  0  0  0  0  0  0  0  0  0
   -0.9531   11.2492    1.1180 N   0  0  0  0  0  0  0  0  0  0  0  0
   -1.9006   12.5221    3.0833 C   0  0  0  0  0  0  0  0  0  0  0  0
   -1.7809   12.6791    4.6544 C   0  0  2  0  0  0  0  0  0  0  0  0
   -2.6965   13.7189    5.1565 N   0  0  0  0  0  0  0  0  0  0  0  0
   -0.3071   13.0533    5.0292 C   0  0  2  0  0  0  0  0  0  0  0  0
    0.6918   11.9673    4.5091 C   0  0  2  0  0  0  0  0  0  0  0  0
    2.0169   12.4117    4.8909 O   0  0  0  0  0  0  0  0  0  0  0  0
    0.5669   11.8303    2.9576 C   0  0  1  0  0  0  0  0  0  0  0  0
    1.4525   10.8525    2.5274 O   0  0  0  0  0  0  0  0  0  0  0  0
    2.6254   13.5388    4.4484 C   0  0  1  0  0  0  0  0  0  0  0  0
    2.5889   13.6188    2.8999 C   0  0  2  0  0  0  0  0  0  0  0  0
    3.6265   12.9081    2.2889 O   0  0  0  0  0  0  0  0  0  0  0  0
    2.5389   15.1262    2.7319 C   0  0  1  0  0  0  0  0  0  0  0  0
    1.6593   15.6687    3.8671 C   0  0  2  0  0  0  0  0  0  0  0  0
    2.0308   14.7783    4.9192 O   0  0  0  0  0  0  0  0  0  0  0  0
    0.1161   15.6413    3.5978 C   0  0  0  0  0  0  0  0  0  0  0  0
   -0.0990   16.1421    2.2516 O   0  0  0  0  0  0  0  0  0  0  0  0
    4.8057   15.3465    1.7652 C   0  0  2  0  0  0  0  0  0  0  0  0
    3.9331   15.6327    2.8238 O   0  0  0  0  0  0  0  0  0  0  0  0
    6.0846   14.5464    2.2692 C   0  0  1  0  0  0  0  0  0  0  0  0
    5.3034   18.7843   -0.9787 N   0  0  0  0  0  0  0  0  0  0  0  0
    7.0246   14.2921    0.9775 C   0  0  1  0  0  0  0  0  0  0  0  0
    6.2201   13.5142   -0.0448 O   0  0  0  0  0  0  0  0  0  0  0  0
    7.5037   15.7101    0.3562 C   0  0  2  0  0  0  0  0  0  0  0  0
    8.2768   16.4291    1.3469 O   0  0  0  0  0  0  0  0  0  0  0  0
    6.1658   16.5157   -0.1138 C   0  0  1  0  0  0  0  0  0  0  0  0
    5.2353   16.6655    1.0583 O   0  0  0  0  0  0  0  0  0  0  0  0
    6.4989   17.9259   -0.7152 C   0  0  0  0  0  0  0  0  0  0  0  0
    6.7745   15.3138    3.3582 N   0  0  0  0  0  0  0  0  0  0  0  0
  1  2  1  6  0  0  0
  1  3  1  0  0  0  0
  1 10  1  0  0  0  0
  3  4  1  6  0  0  0
  3  5  1  0  0  0  0
  5  6  1  1  0  0  0
  5  7  1  0  0  0  0
  7  8  1  6  0  0  0
  7  9  1  0  0  0  0
  9 10  1  0  0  0  0
  9 11  1  1  0  0  0
 11 12  1  0  0  0  0
 13 14  1  6  0  0  0
 13 15  1  0  0  0  0
 13 21  1  0  0  0  0
 16 15  1  0  0  0  0
 16 17  1  6  0  0  0
 18  2  1  1  0  0  0
 18 16  1  0  0  0  0
 19 18  1  0  0  0  0
 19 20  1  6  0  0  0
 21 19  1  0  0  0  0
 21 22  1  1  0  0  0
 23 20  1  6  0  0  0
 23 24  1  0  0  0  0
 23 28  1  0  0  0  0
 24 25  1  6  0  0  0
 24 26  1  0  0  0  0
 26 27  1  0  0  0  0
 26 32  1  1  0  0  0
 27 28  1  0  0  0  0
 27 29  1  6  0  0  0
 29 30  1  0  0  0  0
 31 32  1  1  0  0  0
 31 40  1  0  0  0  0
 33 31  1  0  0  0  0
 33 42  1  1  0  0  0
 35 33  1  0  0  0  0
 35 36  1  6  0  0  0
 37 35  1  0  0  0  0
 37 38  1  1  0  0  0
 37 39  1  0  0  0  0
 39 40  1  0  0  0  0
 39 41  1  1  0  0  0
 41 34  1  0  0  0  0
M  END
>  <CHROM.1>
-165.92956939,59.35404001,-94.70410155,-63.68176087,-51.21544940,70.56906239
-45.11013935,-121.66841939,-171.60216038,1.61347940,14.23920410,4.20548635
-2.57517033,-0.50571970,-1.92745999

>  <Name>
2et4_lig

>  <RI>
0

>  <Rbt.Current_Directory>
/home/itssahil/PROJECTS/Mol_Feturizer/New_Systems/rnas/2et4

>  <Rbt.Executable>
rbdock ($Id: //depot/dev/client3/rdock/2013.1/src/exe/rbdock.cxx#4 $)

>  <Rbt.Library>
libRbt.so (2013.1, Build901 2013/11/27)

>  <Rbt.Parameter_File>
/export/apps/rDock/src/rDock_2013.1_src/data/scripts/dock_solv.prm

>  <Rbt.Receptor>
prm/blind_docking_20.prm

>  <SCORE>
22.2072

>  <SCORE.INTER>
1.66935

>  <SCORE.INTER.CONST>
1

>  <SCORE.INTER.POLAR>
-1.58987

>  <SCORE.INTER.ROT>
9

>  <SCORE.INTER.SOLV>
30.0549

>  <SCORE.INTER.VDW>
-13.2058

>  <SCORE.INTER.norm>
0.0397464

>  <SCORE.INTRA>
2.26523

>  <SCORE.INTRA.DIHEDRAL>
-7.0496

>  <SCORE.INTRA.DIHEDRAL.0>
21.6909

>  <SCORE.INTRA.POLAR>
0

>  <SCORE.INTRA.POLAR.0>
0

>  <SCORE.INTRA.REPUL>
0

>  <SCORE.INTRA.REPUL.0>
0

>  <SCORE.INTRA.SOLV>
3.19018

>  <SCORE.INTRA.SOLV.lig_0>
-116.606

>  <SCORE.INTRA.VDW>
4.19494

>  <SCORE.INTRA.VDW.0>
-6.01229

>  <SCORE.INTRA.norm>
0.053934

>  <SCORE.RESTR>
18.2726

>  <SCORE.RESTR.CAVITY>
18.2726

>  <SCORE.RESTR.norm>
0.435063

>  <SCORE.SYSTEM>
0

>  <SCORE.SYSTEM.CONST>
0

>  <SCORE.SYSTEM.DIHEDRAL>
0

>  <SCORE.SYSTEM.SOLV>
0

>  <SCORE.SYSTEM.norm>
0

>  <SCORE.heavy>
42

>  <SCORE.norm>
0.528743

>  <RMSD>
16.545

$$$$
2et4_lig
 OpenBabel11021811423D
libRbt.so/2013.1/901 2013/11/27
 42 45  0  0  0  0  0  0  0  0999 V2000
   -0.7958   15.2271    8.7688 C   0  0  2  0  0  0  0  0  0  0  0  0
   -0.0585   14.0307    8.5096 O   0  0  0  0  0  0  0  0  0  0  0  0
   -1.7535   14.9269    9.9500 C   0  0  2  0  0  0  0  0  0  0  0  0
   -1.0295   14.4814   11.1132 N   0  0  0  0  0  0  0  0  0  0  0  0
   -2.8023   13.8676    9.5039 C   0  0  1  0  0  0  0  0  0  0  0  0
   -3.6718   13.6115   10.5623 O   0  0  0  0  0  0  0  0  0  0  0  0
   -3.5485   14.4185    8.2431 C   0  0  2  0  0  0  0  0  0  0  0  0
   -4.5080   13.4830    7.7984 O   0  0  0  0  0  0  0  0  0  0  0  0
   -2.5438   14.7146    7.0887 C   0  0  2  0  0  0  0  0  0  0  0  0
   -1.5701   15.6475    7.5666 O   0  0  0  0  0  0  0  0  0  0  0  0
   -3.2500   15.3065    5.8252 C   0  0  0  0  0  0  0  0  0  0  0  0
   -2.6224   14.8955    4.6176 N   0  0  0  0  0  0  0  0  0  0  0  0
    0.2014   10.6917    5.7824 C   0  0  2  0  0  0  0  0  0  0  0  0
   -0.1615    9.7380    4.7267 N   0  0  0  0  0  0  0  0  0  0  0  0
   -0.8989   10.6274    6.9729 C   0  0  0  0  0  0  0  0  0  0  0  0
   -0.5105   11.6680    8.1015 C   0  0  2  0  0  0  0  0  0  0  0  0
   -1.4995   11.6618    9.1940 N   0  0  0  0  0  0  0  0  0  0  0  0
   -0.4258   13.1028    7.4796 C   0  0  2  0  0  0  0  0  0  0  0  0
    0.6174   13.1430    6.3143 C   0  0  2  0  0  0  0  0  0  0  0  0
    0.6086   14.4981    5.8017 O   0  0  0  0  0  0  0  0  0  0  0  0
    0.2158   12.1171    5.2063 C   0  0  1  0  0  0  0  0  0  0  0  0
    1.1645   12.1648    4.1947 O   0  0  0  0  0  0  0  0  0  0  0  0
    1.3040   14.9348    4.7238 C   0  0  1  0  0  0  0  0  0  0  0  0
    2.3572   13.8864    4.2798 C   0  0  2  0  0  0  0  0  0  0  0  0
    3.5553   13.9749    4.9953 O   0  0  0  0  0  0  0  0  0  0  0  0
    2.3747   14.1701    2.7892 C   0  0  1  0  0  0  0  0  0  0  0  0
    0.9301   14.4952    2.3840 C   0  0  2  0  0  0  0  0  0  0  0  0
    0.4976   15.2038    3.5452 O   0  0  0  0  0  0  0  0  0  0  0  0
    0.0183   13.2571    2.0832 C   0  0  0  0  0  0  0  0  0  0  0  0
    0.8321   12.2772    1.3856 O   0  0  0  0  0  0  0  0  0  0  0  0
    4.3108   15.1759    1.6225 C   0  0  2  0  0  0  0  0  0  0  0  0
    3.2838   15.3241    2.5645 O   0  0  0  0  0  0  0  0  0  0  0  0
    5.6019   14.5129    2.2731 C   0  0  1  0  0  0  0  0  0  0  0  0
    7.1228   18.1480   -1.5319 N   0  0  0  0  0  0  0  0  0  0  0  0
    6.7209   14.4119    1.1093 C   0  0  1  0  0  0  0  0  0  0  0  0
    6.1501   13.5804   -0.0222 O   0  0  0  0  0  0  0  0  0  0  0  0
    7.1025   15.8955    0.5807 C   0  0  2  0  0  0  0  0  0  0  0  0
    7.6534   16.6660    1.6757 O   0  0  0  0  0  0  0  0  0  0  0  0
    5.7484   16.5561   -0.0437 C   0  0  1  0  0  0  0  0  0  0  0  0
    4.6662   16.5584    1.0008 O   0  0  0  0  0  0  0  0  0  0  0  0
    5.9846   18.0144   -0.5715 C   0  0  0  0  0  0  0  0  0  0  0  0
    6.0527   15.3185    3.4557 N   0  0  0  0  0  0  0  0  0  0  0  0
  1  2  1  6  0  0  0
  1  3  1  0  0  0  0
  1 10  1  0  0  0  0
  3  4  1  1  0  0  0
  3  5  1  0  0  0  0
  5  6  1  1  0  0  0
  5  7  1  0  0  0  0
  7  8  1  6  0  0  0
  7  9  1  0  0  0  0
  9 10  1  0  0  0  0
  9 11  1  6  0  0  0
 11 12  1  0  0  0  0
 13 14  1  6  0  0  0
 13 15  1  0  0  0  0
 13 21  1  0  0  0  0
 16 15  1  0  0  0  0
 16 17  1  1  0  0  0
 18  2  1  1  0  0  0
 18 16  1  0  0  0  0
 19 18  1  0  0  0  0
 19 20  1  6  0  0  0
 21 19  1  0  0  0  0
 21 22  1  6  0  0  0
 23 20  1  1  0  0  0
 23 24  1  0  0  0  0
 23 28  1  0  0  0  0
 24 25  1  1  0  0  0
 24 26  1  0  0  0  0
 26 27  1  0  0  0  0
 26 32  1  1  0  0  0
 27 28  1  0  0  0  0
 27 29  1  1  0  0  0
 29 30  1  0  0  0  0
 31 32  1  1  0  0  0
 31 40  1  0  0  0  0
 33 31  1  0  0  0  0
 33 42  1  1  0  0  0
 35 33  1  0  0  0  0
 35 36  1  6  0  0  0
 37 35  1  0  0  0  0
 37 38  1  1  0  0  0
 37 39  1  0  0  0  0
 39 40  1  0  0  0  0
 39 41  1  1  0  0  0
 41 34  1  0  0  0  0
M  END
>  <CHROM.1>
97.47002131,-146.62935515,-128.26021825,-175.16545308,-12.43540572,127.07930021
-38.65761538,-85.86971958,52.94657626,1.27727003,14.21088706,4.78266611,-2.99659882
-0.77745344,-2.64621525

>  <Name>
2et4_lig

>  <RI>
0

>  <Rbt.Current_Directory>
/home/itssahil/PROJECTS/Mol_Feturizer/New_Systems/rnas/2et4

>  <Rbt.Executable>
rbdock ($Id: //depot/dev/client3/rdock/2013.1/src/exe/rbdock.cxx#4 $)

>  <Rbt.Library>
libRbt.so (2013.1, Build901 2013/11/27)

>  <Rbt.Parameter_File>
/export/apps/rDock/src/rDock_2013.1_src/data/scripts/dock_solv.prm

>  <Rbt.Receptor>
prm/blind_docking_20.prm

>  <SCORE>
42.8597

>  <SCORE.INTER>
-3.46724

>  <SCORE.INTER.CONST>
1

>  <SCORE.INTER.POLAR>
-1.38157

>  <SCORE.INTER.ROT>
9

>  <SCORE.INTER.SOLV>
24.9951

>  <SCORE.INTER.VDW>
-15.6379

>  <SCORE.INTER.norm>
-0.0825532

>  <SCORE.INTRA>
30.6022

>  <SCORE.INTRA.DIHEDRAL>
11.266

>  <SCORE.INTRA.DIHEDRAL.0>
21.6909

>  <SCORE.INTRA.POLAR>
0

>  <SCORE.INTRA.POLAR.0>
0

>  <SCORE.INTRA.REPUL>
0.163261

>  <SCORE.INTRA.REPUL.0>
0

>  <SCORE.INTRA.SOLV>
7.74249

>  <SCORE.INTRA.SOLV.lig_0>
-116.606

>  <SCORE.INTRA.VDW>
20.2816

>  <SCORE.INTRA.VDW.0>
-6.01229

>  <SCORE.INTRA.norm>
0.728623

>  <SCORE.RESTR>
15.7248

>  <SCORE.RESTR.CAVITY>
15.7248

>  <SCORE.RESTR.norm>
0.3744

>  <SCORE.SYSTEM>
0

>  <SCORE.SYSTEM.CONST>
0

>  <SCORE.SYSTEM.DIHEDRAL>
0

>  <SCORE.SYSTEM.SOLV>
0

>  <SCORE.SYSTEM.norm>
0

>  <SCORE.heavy>
42

>  <SCORE.norm>
1.02047

>  <RMSD>
16.643

$$$$
2et4_lig
 OpenBabel11021811423D
libRbt.so/2013.1/901 2013/11/27
 42 45  0  0  0  0  0  0  0  0999 V2000
   -0.6793   14.4338    8.6823 C   0  0  2  0  0  0  0  0  0  0  0  0
   -0.7084   13.0167    8.5002 O   0  0  0  0  0  0  0  0  0  0  0  0
   -1.3989   14.7374   10.0212 C   0  0  2  0  0  0  0  0  0  0  0  0
   -0.7779   14.0433   11.1205 N   0  0  0  0  0  0  0  0  0  0  0  0
   -2.9017   14.3542    9.8947 C   0  0  1  0  0  0  0  0  0  0  0  0
   -3.5495   14.6431   11.0942 O   0  0  0  0  0  0  0  0  0  0  0  0
   -3.5082   15.1445    8.6875 C   0  0  2  0  0  0  0  0  0  0  0  0
   -4.8735   14.8207    8.5310 O   0  0  0  0  0  0  0  0  0  0  0  0
   -2.7458   14.8145    7.3686 C   0  0  2  0  0  0  0  0  0  0  0  0
   -1.3631   15.1304    7.5560 O   0  0  0  0  0  0  0  0  0  0  0  0
   -3.2988   15.6189    6.1469 C   0  0  0  0  0  0  0  0  0  0  0  0
   -4.6879   15.3962    5.9421 N   0  0  0  0  0  0  0  0  0  0  0  0
    0.2598   10.4395    5.1723 C   0  0  2  0  0  0  0  0  0  0  0  0
    0.1935    9.8077    3.8486 N   0  0  0  0  0  0  0  0  0  0  0  0
   -1.1292   10.1770    5.9687 C   0  0  0  0  0  0  0  0  0  0  0  0
   -1.0576   10.8726    7.3893 C   0  0  2  0  0  0  0  0  0  0  0  0
   -2.3116   10.6809    8.1393 N   0  0  0  0  0  0  0  0  0  0  0  0
   -0.7857   12.4039    7.2058 C   0  0  2  0  0  0  0  0  0  0  0  0
    0.5410   12.6418    6.4115 C   0  0  2  0  0  0  0  0  0  0  0  0
    0.6916   14.0771    6.2840 O   0  0  0  0  0  0  0  0  0  0  0  0
    0.4513   11.9563    5.0102 C   0  0  1  0  0  0  0  0  0  0  0  0
    1.6446   12.1717    4.3355 O   0  0  0  0  0  0  0  0  0  0  0  0
    1.1741   14.7227    5.1946 C   0  0  1  0  0  0  0  0  0  0  0  0
    2.2302   13.8577    4.4584 C   0  0  2  0  0  0  0  0  0  0  0  0
    3.5125   13.9751    5.0034 O   0  0  0  0  0  0  0  0  0  0  0  0
    1.9944   14.3365    3.0378 C   0  0  1  0  0  0  0  0  0  0  0  0
    0.4826   14.5600    2.8917 C   0  0  2  0  0  0  0  0  0  0  0  0
    0.1764   15.0597    4.1933 O   0  0  0  0  0  0  0  0  0  0  0  0
   -0.3581   13.2844    2.5443 C   0  0  0  0  0  0  0  0  0  0  0  0
   -1.7587   13.6259    2.7202 O   0  0  0  0  0  0  0  0  0  0  0  0
    3.6568   15.6743    1.7856 C   0  0  2  0  0  0  0  0  0  0  0  0
    2.7587   15.5984    2.8588 O   0  0  0  0  0  0  0  0  0  0  0  0
    3.6482   14.3351    0.9276 C   0  0  1  0  0  0  0  0  0  0  0  0
    8.6442   16.7549    1.0064 N   0  0  0  0  0  0  0  0  0  0  0  0
    4.7291   14.5259   -0.2606 C   0  0  1  0  0  0  0  0  0  0  0  0
    4.3247   15.7386   -1.0751 O   0  0  0  0  0  0  0  0  0  0  0  0
    6.2079   14.7374    0.3677 C   0  0  2  0  0  0  0  0  0  0  0  0
    6.5747   13.5637    1.1320 O   0  0  0  0  0  0  0  0  0  0  0  0
    6.1673   16.0961    1.2688 C   0  0  1  0  0  0  0  0  0  0  0  0
    5.0914   15.9714    2.3124 O   0  0  0  0  0  0  0  0  0  0  0  0
    7.5452   16.3981    1.9553 C   0  0  0  0  0  0  0  0  0  0  0  0
    3.9436   13.1579    1.8095 N   0  0  0  0  0  0  0  0  0  0  0  0
  1  2  1  6  0  0  0
  1  3  1  0  0  0  0
  1 10  1  0  0  0  0
  3  4  1  1  0  0  0
  3  5  1  0  0  0  0
  5  6  1  1  0  0  0
  5  7  1  0  0  0  0
  7  8  1  6  0  0  0
  7  9  1  0  0  0  0
  9 10  1  0  0  0  0
  9 11  1  6  0  0  0
 11 12  1  0  0  0  0
 13 14  1  6  0  0  0
 13 15  1  0  0  0  0
 13 21  1  0  0  0  0
 16 15  1  0  0  0  0
 16 17  1  6  0  0  0
 18  2  1  1  0  0  0
 18 16  1  0  0  0  0
 19 18  1  0  0  0  0
 19 20  1  6  0  0  0
 21 19  1  0  0  0  0
 21 22  1  6  0  0  0
 23 20  1  1  0  0  0
 23 24  1  0  0  0  0
 23 28  1  0  0  0  0
 24 25  1  1  0  0  0
 24 26  1  0  0  0  0
 26 27  1  0  0  0  0
 26 32  1  1  0  0  0
 27 28  1  0  0  0  0
 27 29  1  1  0  0  0
 29 30  1  0  0  0  0
 31 32  1  1  0  0  0
 31 40  1  0  0  0  0
 33 31  1  0  0  0  0
 33 42  1  1  0  0  0
 35 33  1  0  0  0  0
 35 36  1  1  0  0  0
 37 35  1  0  0  0  0
 37 38  1  1  0  0  0
 37 39  1  0  0  0  0
 39 40  1  0  0  0  0
 39 41  1  1  0  0  0
 41 34  1  0  0  0  0
M  END
>  <CHROM.1>
147.59072626,-57.05549944,-169.88969706,-142.29159432,-31.63395036,125.84742066
168.40262656,1.07745370,67.10763959,0.92280059,14.00513702,4.93367437,-2.87407775
-0.71688781,-2.56857456

>  <Name>
2et4_lig

>  <RI>
0

>  <Rbt.Current_Directory>
/home/itssahil/PROJECTS/Mol_Feturizer/New_Systems/rnas/2et4

>  <Rbt.Executable>
rbdock ($Id: //depot/dev/client3/rdock/2013.1/src/exe/rbdock.cxx#4 $)

>  <Rbt.Library>
libRbt.so (2013.1, Build901 2013/11/27)

>  <Rbt.Parameter_File>
/export/apps/rDock/src/rDock_2013.1_src/data/scripts/dock_solv.prm

>  <Rbt.Receptor>
prm/blind_docking_20.prm

>  <SCORE>
42.1804

>  <SCORE.INTER>
-5.05545

>  <SCORE.INTER.CONST>
1

>  <SCORE.INTER.POLAR>
-0.75584

>  <SCORE.INTER.ROT>
9

>  <SCORE.INTER.SOLV>
24.365

>  <SCORE.INTER.VDW>
-18.5725

>  <SCORE.INTER.norm>
-0.120368

>  <SCORE.INTRA>
31.3344

>  <SCORE.INTRA.DIHEDRAL>
6.13455

>  <SCORE.INTRA.DIHEDRAL.0>
21.6909

>  <SCORE.INTRA.POLAR>
0

>  <SCORE.INTRA.POLAR.0>
0

>  <SCORE.INTRA.REPUL>
0.0450865

>  <SCORE.INTRA.REPUL.0>
0

>  <SCORE.INTRA.SOLV>
2.58231

>  <SCORE.INTRA.SOLV.lig_0>
-116.606

>  <SCORE.INTRA.VDW>
26.7505

>  <SCORE.INTRA.VDW.0>
-6.01229

>  <SCORE.INTRA.norm>
0.746057

>  <SCORE.RESTR>
15.9015

>  <SCORE.RESTR.CAVITY>
15.9015

>  <SCORE.RESTR.norm>
0.378607

>  <SCORE.SYSTEM>
0

>  <SCORE.SYSTEM.CONST>
0

>  <SCORE.SYSTEM.DIHEDRAL>
0

>  <SCORE.SYSTEM.SOLV>
0

>  <SCORE.SYSTEM.norm>
0

>  <SCORE.heavy>
42

>  <SCORE.norm>
1.0043

>  <RMSD>
16.706

$$$$
2et4_lig
 OpenBabel11021811423D
libRbt.so/2013.1/901 2013/11/27
 42 45  0  0  0  0  0  0  0  0999 V2000
   -0.7588   15.2268    8.9418 C   0  0  2  0  0  0  0  0  0  0  0  0
   -0.0771   13.9871    8.7404 O   0  0  0  0  0  0  0  0  0  0  0  0
   -1.7796   15.0061   10.0872 C   0  0  2  0  0  0  0  0  0  0  0  0
   -1.1296   14.5508   11.2897 N   0  0  0  0  0  0  0  0  0  0  0  0
   -2.8647   13.9935    9.6198 C   0  0  1  0  0  0  0  0  0  0  0  0
   -3.7899   13.8094   10.6453 O   0  0  0  0  0  0  0  0  0  0  0  0
   -3.5270   14.5530    8.3166 C   0  0  2  0  0  0  0  0  0  0  0  0
   -4.5163   13.6593    7.8516 O   0  0  0  0  0  0  0  0  0  0  0  0
   -2.4607   14.7676    7.2000 C   0  0  2  0  0  0  0  0  0  0  0  0
   -1.4587   15.6587    7.6988 O   0  0  0  0  0  0  0  0  0  0  0  0
   -3.0808   15.3657    5.8950 C   0  0  0  0  0  0  0  0  0  0  0  0
   -3.5736   16.6848    6.0906 N   0  0  0  0  0  0  0  0  0  0  0  0
   -0.4592   10.1157    6.8639 C   0  0  2  0  0  0  0  0  0  0  0  0
   -1.0501    8.9822    6.1415 N   0  0  0  0  0  0  0  0  0  0  0  0
   -1.3125   10.4029    8.2136 C   0  0  0  0  0  0  0  0  0  0  0  0
   -0.6796   11.6349    8.9809 C   0  0  2  0  0  0  0  0  0  0  0  0
   -1.4404   11.9481   10.2035 N   0  0  0  0  0  0  0  0  0  0  0  0
   -0.6666   12.8847    8.0373 C   0  0  2  0  0  0  0  0  0  0  0  0
    0.1347   12.5842    6.7275 C   0  0  2  0  0  0  0  0  0  0  0  0
    0.0741   13.7881    5.9237 O   0  0  0  0  0  0  0  0  0  0  0  0
   -0.5067   11.3720    5.9789 C   0  0  1  0  0  0  0  0  0  0  0  0
    0.2316   11.1203    4.8312 O   0  0  0  0  0  0  0  0  0  0  0  0
    1.0654   14.2484    5.1225 C   0  0  1  0  0  0  0  0  0  0  0  0
    1.2959   13.2960    3.9203 C   0  0  2  0  0  0  0  0  0  0  0  0
    2.1404   12.2237    4.2236 O   0  0  0  0  0  0  0  0  0  0  0  0
    1.7466   14.3099    2.8851 C   0  0  1  0  0  0  0  0  0  0  0  0
    0.9164   15.5798    3.1193 C   0  0  2  0  0  0  0  0  0  0  0  0
    0.8231   15.5590    4.5436 O   0  0  0  0  0  0  0  0  0  0  0  0
   -0.4966   15.5972    2.4427 C   0  0  0  0  0  0  0  0  0  0  0  0
   -1.2644   14.5037    3.0120 O   0  0  0  0  0  0  0  0  0  0  0  0
    3.9529   15.0080    2.0100 C   0  0  2  0  0  0  0  0  0  0  0  0
    3.1973   14.5518    3.0985 O   0  0  0  0  0  0  0  0  0  0  0  0
    4.0556   13.9015    0.8721 C   0  0  1  0  0  0  0  0  0  0  0  0
    8.6322   17.0084    1.1253 N   0  0  0  0  0  0  0  0  0  0  0  0
    4.9610   14.5242   -0.3150 C   0  0  1  0  0  0  0  0  0  0  0  0
    4.2921   15.7947   -0.8007 O   0  0  0  0  0  0  0  0  0  0  0  0
    6.4494   14.8478    0.2384 C   0  0  2  0  0  0  0  0  0  0  0  0
    7.0701   13.6191    0.6870 O   0  0  0  0  0  0  0  0  0  0  0  0
    6.3001   15.9554    1.4261 C   0  0  1  0  0  0  0  0  0  0  0  0
    5.3741   15.4280    2.4874 O   0  0  0  0  0  0  0  0  0  0  0  0
    7.6819   16.3363    2.0638 C   0  0  0  0  0  0  0  0  0  0  0  0
    4.6193   12.6321    1.4391 N   0  0  0  0  0  0  0  0  0  0  0  0
  1  2  1  6  0  0  0
  1  3  1  0  0  0  0
  1 10  1  0  0  0  0
  3  4  1  1  0  0  0
  3  5  1  0  0  0  0
  5  6  1  1  0  0  0
  5  7  1  0  0  0  0
  7  8  1  6  0  0  0
  7  9  1  0  0  0  0
  9 10  1  0  0  0  0
  9 11  1  6  0  0  0
 11 12  1  0  0  0  0
 13 14  1  6  0  0  0
 13 15  1  0  0  0  0
 13 21  1  0  0  0  0
 16 15  1  0  0  0  0
 16 17  1  1  0  0  0
 18  2  1  1  0  0  0
 18 16  1  0  0  0  0
 19 18  1  0  0  0  0
 19 20  1  6  0  0  0
 21 19  1  0  0  0  0
 21 22  1  6  0  0  0
 23 20  1  6  0  0  0
 23 24  1  0  0  0  0
 23 28  1  0  0  0  0
 24 25  1  1  0  0  0
 24 26  1  0  0  0  0
 26 27  1  0  0  0  0
 26 32  1  1  0  0  0
 27 28  1  0  0  0  0
 27 29  1  6  0  0  0
 29 30  1  0  0  0  0
 31 32  1  1  0  0  0
 31 40  1  0  0  0  0
 33 31  1  0  0  0  0
 33 42  1  1  0  0  0
 35 33  1  0  0  0  0
 35 36  1  1  0  0  0
 37 35  1  0  0  0  0
 37 38  1  1  0  0  0
 37 39  1  0  0  0  0
 39 40  1  0  0  0  0
 39 41  1  1  0  0  0
 41 34  1  0  0  0  0
M  END
>  <CHROM.1>
77.28764878,65.81686282,-122.63727247,144.98652921,67.25185859,155.46578721
61.85669192,-66.87617189,64.12918666,0.90872503,13.98636075,5.17005939,2.79401931
-0.71745598,2.83998104

>  <Name>
2et4_lig

>  <RI>
0

>  <Rbt.Current_Directory>
/home/itssahil/PROJECTS/Mol_Feturizer/New_Systems/rnas/2et4

>  <Rbt.Executable>
rbdock ($Id: //depot/dev/client3/rdock/2013.1/src/exe/rbdock.cxx#4 $)

>  <Rbt.Library>
libRbt.so (2013.1, Build901 2013/11/27)

>  <Rbt.Parameter_File>
/export/apps/rDock/src/rDock_2013.1_src/data/scripts/dock_solv.prm

>  <Rbt.Receptor>
prm/blind_docking_20.prm

>  <SCORE>
26.7106

>  <SCORE.INTER>
3.57721

>  <SCORE.INTER.CONST>
1

>  <SCORE.INTER.POLAR>
-1.17717

>  <SCORE.INTER.ROT>
9

>  <SCORE.INTER.SOLV>
30.7403

>  <SCORE.INTER.VDW>
-13.5381

>  <SCORE.INTER.norm>
0.0851718

>  <SCORE.INTRA>
6.54133

>  <SCORE.INTRA.DIHEDRAL>
-5.22267

>  <SCORE.INTRA.DIHEDRAL.0>
21.6909

>  <SCORE.INTRA.POLAR>
0

>  <SCORE.INTRA.POLAR.0>
0

>  <SCORE.INTRA.REPUL>
0

>  <SCORE.INTRA.REPUL.0>
0

>  <SCORE.INTRA.SOLV>
5.43066

>  <SCORE.INTRA.SOLV.lig_0>
-116.606

>  <SCORE.INTRA.VDW>
6.43734

>  <SCORE.INTRA.VDW.0>
-6.01229

>  <SCORE.INTRA.norm>
0.155746

>  <SCORE.RESTR>
16.592

>  <SCORE.RESTR.CAVITY>
16.592

>  <SCORE.RESTR.norm>
0.395049

>  <SCORE.SYSTEM>
0

>  <SCORE.SYSTEM.CONST>
0

>  <SCORE.SYSTEM.DIHEDRAL>
0

>  <SCORE.SYSTEM.SOLV>
0

>  <SCORE.SYSTEM.norm>
0

>  <SCORE.heavy>
42

>  <SCORE.norm>
0.635967

>  <RMSD>
16.752

$$$$
2et4_lig
 OpenBabel11021811423D
libRbt.so/2013.1/901 2013/11/27
 42 45  0  0  0  0  0  0  0  0999 V2000
   -0.7213   15.2070    8.9436 C   0  0  2  0  0  0  0  0  0  0  0  0
   -0.0757   13.9467    8.7508 O   0  0  0  0  0  0  0  0  0  0  0  0
   -1.7177   15.0350   10.1184 C   0  0  2  0  0  0  0  0  0  0  0  0
   -1.0487   14.5877   11.3134 N   0  0  0  0  0  0  0  0  0  0  0  0
   -2.8389   14.0409    9.6992 C   0  0  1  0  0  0  0  0  0  0  0  0
   -3.7420   13.9007   10.7511 O   0  0  0  0  0  0  0  0  0  0  0  0
   -3.5202   14.5907    8.4017 C   0  0  2  0  0  0  0  0  0  0  0  0
   -4.5428   13.7131    7.9801 O   0  0  0  0  0  0  0  0  0  0  0  0
   -2.4777   14.7561    7.2546 C   0  0  2  0  0  0  0  0  0  0  0  0
   -1.4417   15.6314    7.7098 O   0  0  0  0  0  0  0  0  0  0  0  0
   -3.1160   15.3434    5.9535 C   0  0  0  0  0  0  0  0  0  0  0  0
   -3.5301   16.6930    6.1208 N   0  0  0  0  0  0  0  0  0  0  0  0
   -0.4867   10.1500    6.7332 C   0  0  2  0  0  0  0  0  0  0  0  0
   -1.0838    9.0513    5.9638 N   0  0  0  0  0  0  0  0  0  0  0  0
   -1.3528   10.4011    8.0819 C   0  0  0  0  0  0  0  0  0  0  0  0
   -0.7129   11.5962    8.9002 C   0  0  2  0  0  0  0  0  0  0  0  0
   -1.4848   11.8764   10.1238 N   0  0  0  0  0  0  0  0  0  0  0  0
   -0.6712   12.8783    8.0019 C   0  0  2  0  0  0  0  0  0  0  0  0
    0.1423   12.6133    6.6920 C   0  0  2  0  0  0  0  0  0  0  0  0
    0.1082   13.8456    5.9309 O   0  0  0  0  0  0  0  0  0  0  0  0
   -0.5060   11.4374    5.8929 C   0  0  1  0  0  0  0  0  0  0  0  0
    0.2432   11.2163    4.7460 O   0  0  0  0  0  0  0  0  0  0  0  0
    1.0946   14.2939    5.1171 C   0  0  1  0  0  0  0  0  0  0  0  0
    1.3243   13.3191    3.9329 C   0  0  2  0  0  0  0  0  0  0  0  0
    2.1740   12.2561    4.2537 O   0  0  0  0  0  0  0  0  0  0  0  0
    1.7672   14.3143    2.8764 C   0  0  1  0  0  0  0  0  0  0  0  0
    0.9331   15.5855    3.0889 C   0  0  2  0  0  0  0  0  0  0  0  0
    0.8452   15.5921    4.5137 O   0  0  0  0  0  0  0  0  0  0  0  0
   -0.4825   15.5843    2.4175 C   0  0  0  0  0  0  0  0  0  0  0  0
   -1.2649   14.5400    3.0549 O   0  0  0  0  0  0  0  0  0  0  0  0
    3.9668   15.0076    1.9804 C   0  0  2  0  0  0  0  0  0  0  0  0
    3.2178   14.5658    3.0795 O   0  0  0  0  0  0  0  0  0  0  0  0
    4.0679   13.8838    0.8594 C   0  0  1  0  0  0  0  0  0  0  0  0
    8.6333   17.0137    1.0438 N   0  0  0  0  0  0  0  0  0  0  0  0
    4.9656   14.4910   -0.3415 C   0  0  1  0  0  0  0  0  0  0  0  0
    4.2901   15.7515   -0.8437 O   0  0  0  0  0  0  0  0  0  0  0  0
    6.4555   14.8282    0.1997 C   0  0  2  0  0  0  0  0  0  0  0  0
    7.0825   13.6087    0.6644 O   0  0  0  0  0  0  0  0  0  0  0  0
    6.3079   15.9537    1.3708 C   0  0  1  0  0  0  0  0  0  0  0  0
    5.3887   15.4397    2.4445 O   0  0  0  0  0  0  0  0  0  0  0  0
    7.6914   16.3491    1.9960 C   0  0  0  0  0  0  0  0  0  0  0  0
    4.6387   12.6253    1.4435 N   0  0  0  0  0  0  0  0  0  0  0  0
  1  2  1  6  0  0  0
  1  3  1  0  0  0  0
  1 10  1  0  0  0  0
  3  4  1  1  0  0  0
  3  5  1  0  0  0  0
  5  6  1  1  0  0  0
  5  7  1  0  0  0  0
  7  8  1  6  0  0  0
  7  9  1  0  0  0  0
  9 10  1  0  0  0  0
  9 11  1  6  0  0  0
 11 12  1  0  0  0  0
 13 14  1  6  0  0  0
 13 15  1  0  0  0  0
 13 21  1  0  0  0  0
 16 15  1  0  0  0  0
 16 17  1  1  0  0  0
 18  2  1  1  0  0  0
 18 16  1  0  0  0  0
 19 18  1  0  0  0  0
 19 20  1  6  0  0  0
 21 19  1  0  0  0  0
 21 22  1  6  0  0  0
 23 20  1  6  0  0  0
 23 24  1  0  0  0  0
 23 28  1  0  0  0  0
 24 25  1  1  0  0  0
 24 26  1  0  0  0  0
 26 27  1  0  0  0  0
 26 32  1  1  0  0  0
 27 28  1  0  0  0  0
 27 29  1  6  0  0  0
 29 30  1  0  0  0  0
 31 32  1  1  0  0  0
 31 40  1  0  0  0  0
 33 31  1  0  0  0  0
 33 42  1  1  0  0  0
 35 33  1  0  0  0  0
 35 36  1  1  0  0  0
 37 35  1  0  0  0  0
 37 38  1  1  0  0  0
 37 39  1  0  0  0  0
 39 40  1  0  0  0  0
 39 41  1  1  0  0  0
 41 34  1  0  0  0  0
M  END
>  <CHROM.1>
81.93160176,67.79265997,-125.16424395,147.75532961,63.05299171,155.66280084
64.48142175,-66.81327912,64.31830893,0.91839532,13.99872579,5.15525768,2.84515579
-0.73849853,2.91027329

>  <Name>
2et4_lig

>  <RI>
0

>  <Rbt.Current_Directory>
/home/itssahil/PROJECTS/Mol_Feturizer/New_Systems/rnas/2et4

>  <Rbt.Executable>
rbdock ($Id: //depot/dev/client3/rdock/2013.1/src/exe/rbdock.cxx#4 $)

>  <Rbt.Library>
libRbt.so (2013.1, Build901 2013/11/27)

>  <Rbt.Parameter_File>
/export/apps/rDock/src/rDock_2013.1_src/data/scripts/dock_solv.prm

>  <Rbt.Receptor>
prm/blind_docking_20.prm

>  <SCORE>
27.4824

>  <SCORE.INTER>
3.0288

>  <SCORE.INTER.CONST>
1

>  <SCORE.INTER.POLAR>
-1.24013

>  <SCORE.INTER.ROT>
9

>  <SCORE.INTER.SOLV>
30.7365

>  <SCORE.INTER.VDW>
-13.6925

>  <SCORE.INTER.norm>
0.0721143

>  <SCORE.INTRA>
7.84929

>  <SCORE.INTRA.DIHEDRAL>
-5.18062

>  <SCORE.INTRA.DIHEDRAL.0>
21.6909

>  <SCORE.INTRA.POLAR>
0

>  <SCORE.INTRA.POLAR.0>
0

>  <SCORE.INTRA.REPUL>
0.00298644

>  <SCORE.INTRA.REPUL.0>
0

>  <SCORE.INTRA.SOLV>
5.15336

>  <SCORE.INTRA.SOLV.lig_0>
-116.606

>  <SCORE.INTRA.VDW>
7.84799

>  <SCORE.INTRA.VDW.0>
-6.01229

>  <SCORE.INTRA.norm>
0.186888

>  <SCORE.RESTR>
16.6043

>  <SCORE.RESTR.CAVITY>
16.6043

>  <SCORE.RESTR.norm>
0.395342

>  <SCORE.SYSTEM>
0

>  <SCORE.SYSTEM.CONST>
0

>  <SCORE.SYSTEM.DIHEDRAL>
0

>  <SCORE.SYSTEM.SOLV>
0

>  <SCORE.SYSTEM.norm>
0

>  <SCORE.heavy>
42

>  <SCORE.norm>
0.654344

>  <RMSD>
16.761

$$$$
2et4_lig
 OpenBabel11021811423D
libRbt.so/2013.1/901 2013/11/27
 42 45  0  0  0  0  0  0  0  0999 V2000
   -0.7539   15.2643    8.7651 C   0  0  2  0  0  0  0  0  0  0  0  0
   -0.0566   14.0505    8.4776 O   0  0  0  0  0  0  0  0  0  0  0  0
   -1.7158   14.9705    9.9446 C   0  0  2  0  0  0  0  0  0  0  0  0
   -1.0015   14.4779   11.0947 N   0  0  0  0  0  0  0  0  0  0  0  0
   -2.8000   13.9548    9.4818 C   0  0  1  0  0  0  0  0  0  0  0  0
   -3.6727   13.7048   10.5390 O   0  0  0  0  0  0  0  0  0  0  0  0
   -3.5334   14.5555    8.2364 C   0  0  2  0  0  0  0  0  0  0  0  0
   -4.5244   13.6607    7.7772 O   0  0  0  0  0  0  0  0  0  0  0  0
   -2.5247   14.8432    7.0834 C   0  0  2  0  0  0  0  0  0  0  0  0
   -1.5194   15.7342    7.5757 O   0  0  0  0  0  0  0  0  0  0  0  0
   -3.2169   15.4836    5.8359 C   0  0  0  0  0  0  0  0  0  0  0  0
   -4.5206   14.9602    5.6180 N   0  0  0  0  0  0  0  0  0  0  0  0
   -0.1505   10.5529    5.9454 C   0  0  2  0  0  0  0  0  0  0  0  0
   -0.6344    9.5581    4.9800 N   0  0  0  0  0  0  0  0  0  0  0  0
   -1.1555   10.6073    7.2179 C   0  0  0  0  0  0  0  0  0  0  0  0
   -0.6368   11.6916    8.2487 C   0  0  2  0  0  0  0  0  0  0  0  0
   -1.5363   11.7933    9.4116 N   0  0  0  0  0  0  0  0  0  0  0  0
   -0.5419   13.0832    7.5365 C   0  0  2  0  0  0  0  0  0  0  0  0
    0.4072   13.0088    6.2949 C   0  0  2  0  0  0  0  0  0  0  0  0
    0.4143   14.3314    5.7035 O   0  0  0  0  0  0  0  0  0  0  0  0
   -0.1223   11.9408    5.2848 C   0  0  1  0  0  0  0  0  0  0  0  0
    0.7451   11.8871    4.2030 O   0  0  0  0  0  0  0  0  0  0  0  0
    1.2093   14.7306    4.6814 C   0  0  1  0  0  0  0  0  0  0  0  0
    2.2513   13.6375    4.3280 C   0  0  2  0  0  0  0  0  0  0  0  0
    3.3919   13.6850    5.1354 O   0  0  0  0  0  0  0  0  0  0  0  0
    2.3974   13.9069    2.8418 C   0  0  1  0  0  0  0  0  0  0  0  0
    1.0033   14.2851    2.3219 C   0  0  2  0  0  0  0  0  0  0  0  0
    0.5095   15.0207    3.4412 O   0  0  0  0  0  0  0  0  0  0  0  0
    0.0691   13.0814    1.9573 C   0  0  0  0  0  0  0  0  0  0  0  0
   -0.7089   13.4717    0.7947 O   0  0  0  0  0  0  0  0  0  0  0  0
    4.3916   14.8704    1.7390 C   0  0  2  0  0  0  0  0  0  0  0  0
    3.3669   15.0221    2.6829 O   0  0  0  0  0  0  0  0  0  0  0  0
    5.7996   14.6459    2.4441 C   0  0  1  0  0  0  0  0  0  0  0  0
    4.0952   18.1076   -1.0595 N   0  0  0  0  0  0  0  0  0  0  0  0
    6.9021   14.5066    1.2686 C   0  0  1  0  0  0  0  0  0  0  0  0
    6.5040   13.3412    0.3850 O   0  0  0  0  0  0  0  0  0  0  0  0
    6.9609   15.8752    0.4026 C   0  0  2  0  0  0  0  0  0  0  0  0
    7.3518   16.9702    1.2654 O   0  0  0  0  0  0  0  0  0  0  0  0
    5.4921   16.0907   -0.2727 C   0  0  1  0  0  0  0  0  0  0  0  0
    4.4449   16.1159    0.8065 O   0  0  0  0  0  0  0  0  0  0  0  0
    5.4141   17.4063   -1.1239 C   0  0  0  0  0  0  0  0  0  0  0  0
    6.0862   15.7744    3.3901 N   0  0  0  0  0  0  0  0  0  0  0  0
  1  2  1  6  0  0  0
  1  3  1  0  0  0  0
  1 10  1  0  0  0  0
  3  4  1  1  0  0  0
  3  5  1  0  0  0  0
  5  6  1  1  0  0  0
  5  7  1  0  0  0  0
  7  8  1  6  0  0  0
  7  9  1  0  0  0  0
  9 10  1  0  0  0  0
  9 11  1  6  0  0  0
 11 12  1  0  0  0  0
 13 14  1  6  0  0  0
 13 15  1  0  0  0  0
 13 21  1  0  0  0  0
 16 15  1  0  0  0  0
 16 17  1  1  0  0  0
 18  2  1  1  0  0  0
 18 16  1  0  0  0  0
 19 18  1  0  0  0  0
 19 20  1  6  0  0  0
 21 19  1  0  0  0  0
 21 22  1  6  0  0  0
 23 20  1  1  0  0  0
 23 24  1  0  0  0  0
 23 28  1  0  0  0  0
 24 25  1  1  0  0  0
 24 26  1  0  0  0  0
 26 27  1  0  0  0  0
 26 32  1  1  0  0  0
 27 28  1  0  0  0  0
 27 29  1  1  0  0  0
 29 30  1  0  0  0  0
 31 32  1  1  0  0  0
 31 40  1  0  0  0  0
 33 31  1  0  0  0  0
 33 42  1  1  0  0  0
 35 33  1  0  0  0  0
 35 36  1  6  0  0  0
 37 35  1  0  0  0  0
 37 38  1  1  0  0  0
 37 39  1  0  0  0  0
 39 40  1  0  0  0  0
 39 41  1  1  0  0  0
 41 34  1  0  0  0  0
M  END
>  <CHROM.1>
90.16399658,-36.23742054,-125.25737459,173.36178491,-7.09186601,132.55296173
-143.80046036,-107.95971141,-144.00702399,1.04665870,14.17270901,4.80434304
-2.34300940,-0.01713027,-1.32310286

>  <Name>
2et4_lig

>  <RI>
0

>  <Rbt.Current_Directory>
/home/itssahil/PROJECTS/Mol_Feturizer/New_Systems/rnas/2et4

>  <Rbt.Executable>
rbdock ($Id: //depot/dev/client3/rdock/2013.1/src/exe/rbdock.cxx#4 $)

>  <Rbt.Library>
libRbt.so (2013.1, Build901 2013/11/27)

>  <Rbt.Parameter_File>
/export/apps/rDock/src/rDock_2013.1_src/data/scripts/dock_solv.prm

>  <Rbt.Receptor>
prm/blind_docking_20.prm

>  <SCORE>
42.2587

>  <SCORE.INTER>
-0.816385

>  <SCORE.INTER.CONST>
1

>  <SCORE.INTER.POLAR>
-1.60131

>  <SCORE.INTER.ROT>
9

>  <SCORE.INTER.SOLV>
24.0212

>  <SCORE.INTER.VDW>
-12.8136

>  <SCORE.INTER.norm>
-0.0194377

>  <SCORE.INTRA>
25.4439

>  <SCORE.INTRA.DIHEDRAL>
17.7253

>  <SCORE.INTRA.DIHEDRAL.0>
21.6909

>  <SCORE.INTRA.POLAR>
0

>  <SCORE.INTRA.POLAR.0>
0

>  <SCORE.INTRA.REPUL>
0

>  <SCORE.INTRA.REPUL.0>
0

>  <SCORE.INTRA.SOLV>
4.59032

>  <SCORE.INTRA.SOLV.lig_0>
-116.606

>  <SCORE.INTRA.VDW>
14.2861

>  <SCORE.INTRA.VDW.0>
-6.01229

>  <SCORE.INTRA.norm>
0.605807

>  <SCORE.RESTR>
17.6312

>  <SCORE.RESTR.CAVITY>
17.6312

>  <SCORE.RESTR.norm>
0.41979

>  <SCORE.SYSTEM>
0

>  <SCORE.SYSTEM.CONST>
0

>  <SCORE.SYSTEM.DIHEDRAL>
0

>  <SCORE.SYSTEM.SOLV>
0

>  <SCORE.SYSTEM.norm>
0

>  <SCORE.heavy>
42

>  <SCORE.norm>
1.00616

>  <RMSD>
16.775

$$$$
2et4_lig
 OpenBabel11021811423D
libRbt.so/2013.1/901 2013/11/27
 42 45  0  0  0  0  0  0  0  0999 V2000
   -0.8431   15.2999    8.8649 C   0  0  2  0  0  0  0  0  0  0  0  0
   -0.0806   14.1358    8.5400 O   0  0  0  0  0  0  0  0  0  0  0  0
   -1.7897   14.9155   10.0306 C   0  0  2  0  0  0  0  0  0  0  0  0
   -1.0517   14.4245   11.1664 N   0  0  0  0  0  0  0  0  0  0  0  0
   -2.8165   13.8585    9.5309 C   0  0  1  0  0  0  0  0  0  0  0  0
   -3.6762   13.5268   10.5762 O   0  0  0  0  0  0  0  0  0  0  0  0
   -3.5792   14.4595    8.3034 C   0  0  2  0  0  0  0  0  0  0  0  0
   -4.5194   13.5281    7.8115 O   0  0  0  0  0  0  0  0  0  0  0  0
   -2.5856   14.8394    7.1640 C   0  0  2  0  0  0  0  0  0  0  0  0
   -1.6309   15.7667    7.6889 O   0  0  0  0  0  0  0  0  0  0  0  0
   -3.3094   15.4823    5.9359 C   0  0  0  0  0  0  0  0  0  0  0  0
   -4.1369   16.5752    6.3124 N   0  0  0  0  0  0  0  0  0  0  0  0
   -0.1534   10.5246    6.1716 C   0  0  2  0  0  0  0  0  0  0  0  0
   -0.6445    9.4653    5.2815 N   0  0  0  0  0  0  0  0  0  0  0  0
   -1.0830   10.5913    7.4997 C   0  0  0  0  0  0  0  0  0  0  0  0
   -0.5577   11.7446    8.4490 C   0  0  2  0  0  0  0  0  0  0  0  0
   -1.3908   11.8582    9.6593 N   0  0  0  0  0  0  0  0  0  0  0  0
   -0.5729   13.1048    7.6729 C   0  0  2  0  0  0  0  0  0  0  0  0
    0.3038   13.0171    6.3800 C   0  0  2  0  0  0  0  0  0  0  0  0
    0.2115   14.3100    5.7328 O   0  0  0  0  0  0  0  0  0  0  0  0
   -0.2319   11.8806    5.4512 C   0  0  1  0  0  0  0  0  0  0  0  0
    0.5717   11.8171    4.3217 O   0  0  0  0  0  0  0  0  0  0  0  0
    1.0040   14.7405    4.7214 C   0  0  1  0  0  0  0  0  0  0  0  0
    2.1119   13.7029    4.4031 C   0  0  2  0  0  0  0  0  0  0  0  0
    3.2314   13.8234    5.2321 O   0  0  0  0  0  0  0  0  0  0  0  0
    2.2731   13.9622    2.9166 C   0  0  1  0  0  0  0  0  0  0  0  0
    0.8712   14.2561    2.3643 C   0  0  2  0  0  0  0  0  0  0  0  0
    0.3147   14.9763    3.4640 O   0  0  0  0  0  0  0  0  0  0  0  0
    0.0127   12.9980    1.9972 C   0  0  0  0  0  0  0  0  0  0  0  0
    0.9095   12.0142    1.4166 O   0  0  0  0  0  0  0  0  0  0  0  0
    4.1256   15.0905    1.7263 C   0  0  2  0  0  0  0  0  0  0  0  0
    3.1825   15.1275    2.7622 O   0  0  0  0  0  0  0  0  0  0  0  0
    5.5181   14.5114    2.2315 C   0  0  1  0  0  0  0  0  0  0  0  0
    6.4491   18.3886   -1.4966 N   0  0  0  0  0  0  0  0  0  0  0  0
    6.5284   14.5355    0.9683 C   0  0  1  0  0  0  0  0  0  0  0  0
    5.9193   13.6974   -0.1381 O   0  0  0  0  0  0  0  0  0  0  0  0
    6.7456   16.0605    0.4648 C   0  0  2  0  0  0  0  0  0  0  0  0
    7.3362   16.8373    1.5344 O   0  0  0  0  0  0  0  0  0  0  0  0
    5.2931   16.6313   -0.0087 C   0  0  1  0  0  0  0  0  0  0  0  0
    4.3159   16.5155    1.1287 O   0  0  0  0  0  0  0  0  0  0  0  0
    5.3681   18.1196   -0.4992 C   0  0  0  0  0  0  0  0  0  0  0  0
    6.0148   15.3126    3.3986 N   0  0  0  0  0  0  0  0  0  0  0  0
  1  2  1  6  0  0  0
  1  3  1  0  0  0  0
  1 10  1  0  0  0  0
  3  4  1  1  0  0  0
  3  5  1  0  0  0  0
  5  6  1  1  0  0  0
  5  7  1  0  0  0  0
  7  8  1  6  0  0  0
  7  9  1  0  0  0  0
  9 10  1  0  0  0  0
  9 11  1  6  0  0  0
 11 12  1  0  0  0  0
 13 14  1  6  0  0  0
 13 15  1  0  0  0  0
 13 21  1  0  0  0  0
 16 15  1  0  0  0  0
 16 17  1  1  0  0  0
 18  2  1  1  0  0  0
 18 16  1  0  0  0  0
 19 18  1  0  0  0  0
 19 20  1  6  0  0  0
 21 19  1  0  0  0  0
 21 22  1  6  0  0  0
 23 20  1  1  0  0  0
 23 24  1  0  0  0  0
 23 28  1  0  0  0  0
 24 25  1  1  0  0  0
 24 26  1  0  0  0  0
 26 27  1  0  0  0  0
 26 32  1  1  0  0  0
 27 28  1  0  0  0  0
 27 29  1  1  0  0  0
 29 30  1  0  0  0  0
 31 32  1  1  0  0  0
 31 40  1  0  0  0  0
 33 31  1  0  0  0  0
 33 42  1  1  0  0  0
 35 33  1  0  0  0  0
 35 36  1  6  0  0  0
 37 35  1  0  0  0  0
 37 38  1  1  0  0  0
 37 39  1  0  0  0  0
 39 40  1  0  0  0  0
 39 41  1  1  0  0  0
 41 34  1  0  0  0  0
M  END
>  <CHROM.1>
83.40643682,52.59960492,-122.34731295,167.31103932,-4.25961725,140.49761666
-37.97295651,-93.26766811,49.69872384,1.05191156,14.21001072,4.91122457,3.01751208
-0.80237567,-3.03111443

>  <Name>
2et4_lig

>  <RI>
0

>  <Rbt.Current_Directory>
/home/itssahil/PROJECTS/Mol_Feturizer/New_Systems/rnas/2et4

>  <Rbt.Executable>
rbdock ($Id: //depot/dev/client3/rdock/2013.1/src/exe/rbdock.cxx#4 $)

>  <Rbt.Library>
libRbt.so (2013.1, Build901 2013/11/27)

>  <Rbt.Parameter_File>
/export/apps/rDock/src/rDock_2013.1_src/data/scripts/dock_solv.prm

>  <Rbt.Receptor>
prm/blind_docking_20.prm

>  <SCORE>
29.8522

>  <SCORE.INTER>
-3.15629

>  <SCORE.INTER.CONST>
1

>  <SCORE.INTER.POLAR>
-1.70368

>  <SCORE.INTER.ROT>
9

>  <SCORE.INTER.SOLV>
25.7859

>  <SCORE.INTER.VDW>
-14.6206

>  <SCORE.INTER.norm>
-0.0751498

>  <SCORE.INTRA>
16.8511

>  <SCORE.INTRA.DIHEDRAL>
7.40175

>  <SCORE.INTRA.DIHEDRAL.0>
21.6909

>  <SCORE.INTRA.POLAR>
0

>  <SCORE.INTRA.POLAR.0>
0

>  <SCORE.INTRA.REPUL>
0

>  <SCORE.INTRA.REPUL.0>
0

>  <SCORE.INTRA.SOLV>
5.75106

>  <SCORE.INTRA.SOLV.lig_0>
-116.606

>  <SCORE.INTRA.VDW>
10.2747

>  <SCORE.INTRA.VDW.0>
-6.01229

>  <SCORE.INTRA.norm>
0.401218

>  <SCORE.RESTR>
16.1573

>  <SCORE.RESTR.CAVITY>
16.1573

>  <SCORE.RESTR.norm>
0.384699

>  <SCORE.SYSTEM>
0

>  <SCORE.SYSTEM.CONST>
0

>  <SCORE.SYSTEM.DIHEDRAL>
0

>  <SCORE.SYSTEM.SOLV>
0

>  <SCORE.SYSTEM.norm>
0

>  <SCORE.heavy>
42

>  <SCORE.norm>
0.710767

>  <RMSD>
16.812

$$$$
2et4_lig
 OpenBabel11021811423D
libRbt.so/2013.1/901 2013/11/27
 42 45  0  0  0  0  0  0  0  0999 V2000
   -2.8999   15.1105    6.1144 C   0  0  2  0  0  0  0  0  0  0  0  0
   -2.4124   15.5240    7.3924 O   0  0  0  0  0  0  0  0  0  0  0  0
   -4.4432   15.0153    6.2229 C   0  0  2  0  0  0  0  0  0  0  0  0
   -5.0192   16.2698    6.6355 N   0  0  0  0  0  0  0  0  0  0  0  0
   -4.8189   13.8746    7.2123 C   0  0  1  0  0  0  0  0  0  0  0  0
   -6.2067   13.7805    7.2956 O   0  0  0  0  0  0  0  0  0  0  0  0
   -4.1639   12.5481    6.7011 C   0  0  2  0  0  0  0  0  0  0  0  0
   -4.4738   11.4841    7.5761 O   0  0  0  0  0  0  0  0  0  0  0  0
   -2.6156   12.6969    6.5989 C   0  0  2  0  0  0  0  0  0  0  0  0
   -2.3246   13.7917    5.7252 O   0  0  0  0  0  0  0  0  0  0  0  0
   -1.9304   11.4023    6.0512 C   0  0  0  0  0  0  0  0  0  0  0  0
   -2.2799   11.1416    4.6981 N   0  0  0  0  0  0  0  0  0  0  0  0
   -1.5508   14.0672   11.3661 C   0  0  2  0  0  0  0  0  0  0  0  0
   -1.5263   13.1853   12.5397 N   0  0  0  0  0  0  0  0  0  0  0  0
   -3.0866   14.4425   11.0016 C   0  0  0  0  0  0  0  0  0  0  0  0
   -3.1076   15.3817    9.7269 C   0  0  2  0  0  0  0  0  0  0  0  0
   -4.4879   15.7276    9.3438 N   0  0  0  0  0  0  0  0  0  0  0  0
   -2.3990   14.6557    8.5339 C   0  0  2  0  0  0  0  0  0  0  0  0
   -0.9289   14.2740    8.9094 C   0  0  2  0  0  0  0  0  0  0  0  0
   -0.3716   13.6003    7.7542 O   0  0  0  0  0  0  0  0  0  0  0  0
   -0.9260   13.3417   10.1633 C   0  0  1  0  0  0  0  0  0  0  0  0
    0.3888   13.0317   10.4807 O   0  0  0  0  0  0  0  0  0  0  0  0
    0.5067   14.1428    6.8763 C   0  0  1  0  0  0  0  0  0  0  0  0
    1.4204   13.0524    6.2586 C   0  0  2  0  0  0  0  0  0  0  0  0
    2.5249   12.7440    7.0585 O   0  0  0  0  0  0  0  0  0  0  0  0
    1.6578   13.6732    4.8944 C   0  0  1  0  0  0  0  0  0  0  0  0
    0.3425   14.3483    4.4808 C   0  0  2  0  0  0  0  0  0  0  0  0
   -0.1020   14.8290    5.7492 O   0  0  0  0  0  0  0  0  0  0  0  0
   -0.7167   13.4089    3.8096 C   0  0  0  0  0  0  0  0  0  0  0  0
   -1.5543   14.2362    2.9592 O   0  0  0  0  0  0  0  0  0  0  0  0
    3.2178   15.3040    3.8803 C   0  0  2  0  0  0  0  0  0  0  0  0
    2.7621   14.6575    5.0372 O   0  0  0  0  0  0  0  0  0  0  0  0
    2.4634   14.7726    2.5849 C   0  0  1  0  0  0  0  0  0  0  0  0
    7.6951   16.1942    1.4632 N   0  0  0  0  0  0  0  0  0  0  0  0
    3.0805   15.5661    1.3175 C   0  0  1  0  0  0  0  0  0  0  0  0
    2.8701   17.0501    1.5428 O   0  0  0  0  0  0  0  0  0  0  0  0
    4.6611   15.2366    1.1768 C   0  0  2  0  0  0  0  0  0  0  0  0
    4.8351   13.8168    0.9532 O   0  0  0  0  0  0  0  0  0  0  0  0
    5.3933   15.7608    2.5365 C   0  0  1  0  0  0  0  0  0  0  0  0
    4.7550   15.1074    3.7313 O   0  0  0  0  0  0  0  0  0  0  0  0
    6.9359   15.4748    2.5316 C   0  0  0  0  0  0  0  0  0  0  0  0
    2.6130   13.2837    2.4776 N   0  0  0  0  0  0  0  0  0  0  0  0
  1  2  1  1  0  0  0
  1  3  1  0  0  0  0
  1 10  1  0  0  0  0
  3  4  1  1  0  0  0
  3  5  1  0  0  0  0
  5  6  1  6  0  0  0
  5  7  1  0  0  0  0
  7  8  1  1  0  0  0
  7  9  1  0  0  0  0
  9 10  1  0  0  0  0
  9 11  1  6  0  0  0
 11 12  1  0  0  0  0
 13 14  1  1  0  0  0
 13 15  1  0  0  0  0
 13 21  1  0  0  0  0
 16 15  1  0  0  0  0
 16 17  1  6  0  0  0
 18  2  1  6  0  0  0
 18 16  1  0  0  0  0
 19 18  1  0  0  0  0
 19 20  1  6  0  0  0
 21 19  1  0  0  0  0
 21 22  1  1  0  0  0
 23 20  1  1  0  0  0
 23 24  1  0  0  0  0
 23 28  1  0  0  0  0
 24 25  1  1  0  0  0
 24 26  1  0  0  0  0
 26 27  1  0  0  0  0
 26 32  1  1  0  0  0
 27 28  1  0  0  0  0
 27 29  1  1  0  0  0
 29 30  1  0  0  0  0
 31 32  1  1  0  0  0
 31 40  1  0  0  0  0
 33 31  1  0  0  0  0
 33 42  1  6  0  0  0
 35 33  1  0  0  0  0
 35 36  1  1  0  0  0
 37 35  1  0  0  0  0
 37 38  1  1  0  0  0
 37 39  1  0  0  0  0
 39 40  1  0  0  0  0
 39 41  1  6  0  0  0
 41 34  1  0  0  0  0
M  END
>  <CHROM.1>
72.43656178,66.44343080,-127.71215276,104.18637270,150.69973950,176.14264589
-153.93296822,-2.70279525,63.89314407,-0.13553407,14.20602091,5.91949384
2.46064982,0.08469245,1.65749789

>  <Name>
2et4_lig

>  <RI>
0

>  <Rbt.Current_Directory>
/home/itssahil/PROJECTS/Mol_Feturizer/New_Systems/rnas/2et4

>  <Rbt.Executable>
rbdock ($Id: //depot/dev/client3/rdock/2013.1/src/exe/rbdock.cxx#4 $)

>  <Rbt.Library>
libRbt.so (2013.1, Build901 2013/11/27)

>  <Rbt.Parameter_File>
/export/apps/rDock/src/rDock_2013.1_src/data/scripts/dock_solv.prm

>  <Rbt.Receptor>
prm/blind_docking_20.prm

>  <SCORE>
38.7886

>  <SCORE.INTER>
-2.95836

>  <SCORE.INTER.CONST>
1

>  <SCORE.INTER.POLAR>
-0.893547

>  <SCORE.INTER.ROT>
9

>  <SCORE.INTER.SOLV>
23.6975

>  <SCORE.INTER.VDW>
-16.4929

>  <SCORE.INTER.norm>
-0.0704372

>  <SCORE.INTRA>
15.2542

>  <SCORE.INTRA.DIHEDRAL>
4.99074

>  <SCORE.INTRA.DIHEDRAL.0>
21.6909

>  <SCORE.INTRA.POLAR>
0

>  <SCORE.INTRA.POLAR.0>
0

>  <SCORE.INTRA.REPUL>
0

>  <SCORE.INTRA.REPUL.0>
0

>  <SCORE.INTRA.SOLV>
8.29877

>  <SCORE.INTRA.SOLV.lig_0>
-116.606

>  <SCORE.INTRA.VDW>
8.60945

>  <SCORE.INTRA.VDW.0>
-6.01229

>  <SCORE.INTRA.norm>
0.363195

>  <SCORE.RESTR>
26.4927

>  <SCORE.RESTR.CAVITY>
26.4927

>  <SCORE.RESTR.norm>
0.630779

>  <SCORE.SYSTEM>
0

>  <SCORE.SYSTEM.CONST>
0

>  <SCORE.SYSTEM.DIHEDRAL>
0

>  <SCORE.SYSTEM.SOLV>
0

>  <SCORE.SYSTEM.norm>
0

>  <SCORE.heavy>
42

>  <SCORE.norm>
0.923538

>  <RMSD>
17.357

$$$$
2et4_lig
 OpenBabel11021811423D
libRbt.so/2013.1/901 2013/11/27
 42 45  0  0  0  0  0  0  0  0999 V2000
   -3.6077   34.9635   11.8828 C   0  0  2  0  0  0  0  0  0  0  0  0
   -3.4121   33.5801   12.1828 O   0  0  0  0  0  0  0  0  0  0  0  0
   -2.4058   35.7359   12.4839 C   0  0  2  0  0  0  0  0  0  0  0  0
   -1.1542   35.2469   11.9641 N   0  0  0  0  0  0  0  0  0  0  0  0
   -2.4488   35.6255   14.0354 C   0  0  1  0  0  0  0  0  0  0  0  0
   -1.3766   36.3342   14.5738 O   0  0  0  0  0  0  0  0  0  0  0  0
   -3.8296   36.1748   14.5269 C   0  0  2  0  0  0  0  0  0  0  0  0
   -3.9152   36.0867   15.9335 O   0  0  0  0  0  0  0  0  0  0  0  0
   -5.0048   35.3744   13.8879 C   0  0  2  0  0  0  0  0  0  0  0  0
   -4.8871   35.4597   12.4647 O   0  0  0  0  0  0  0  0  0  0  0  0
   -6.4025   35.9230   14.3248 C   0  0  0  0  0  0  0  0  0  0  0  0
   -7.4724   35.1736   13.7637 N   0  0  0  0  0  0  0  0  0  0  0  0
   -1.9552   30.0869   10.1021 C   0  0  2  0  0  0  0  0  0  0  0  0
   -1.0732   29.2121    9.3193 N   0  0  0  0  0  0  0  0  0  0  0  0
   -2.3306   31.4011    9.2278 C   0  0  0  0  0  0  0  0  0  0  0  0
   -3.2698   32.3474   10.0820 C   0  0  2  0  0  0  0  0  0  0  0  0
   -3.6159   33.5691    9.3341 N   0  0  0  0  0  0  0  0  0  0  0  0
   -2.5438   32.7363   11.4140 C   0  0  2  0  0  0  0  0  0  0  0  0
   -2.1620   31.4589   12.2327 C   0  0  2  0  0  0  0  0  0  0  0  0
   -1.4883   31.9235   13.4283 O   0  0  0  0  0  0  0  0  0  0  0  0
   -1.2296   30.5403   11.3794 C   0  0  1  0  0  0  0  0  0  0  0  0
   -0.9195   29.4112   12.1243 O   0  0  0  0  0  0  0  0  0  0  0  0
   -1.5567   31.3355   14.6472 C   0  0  1  0  0  0  0  0  0  0  0  0
   -0.2752   30.5124   14.9399 C   0  0  2  0  0  0  0  0  0  0  0  0
   -0.3149   29.2238   14.3986 O   0  0  0  0  0  0  0  0  0  0  0  0
   -0.2204   30.6690   16.4483 C   0  0  1  0  0  0  0  0  0  0  0  0
   -0.6872   32.0975   16.7618 C   0  0  2  0  0  0  0  0  0  0  0  0
   -1.6940   32.2570   15.7625 O   0  0  0  0  0  0  0  0  0  0  0  0
    0.4156   33.2058   16.6604 C   0  0  0  0  0  0  0  0  0  0  0  0
    1.6647   32.6185   17.1117 O   0  0  0  0  0  0  0  0  0  0  0  0
   -1.1526   29.5214   18.4321 C   0  0  2  0  0  0  0  0  0  0  0  0
   -1.1284   29.6502   17.0368 O   0  0  0  0  0  0  0  0  0  0  0  0
   -2.4480   30.2034   19.0540 C   0  0  1  0  0  0  0  0  0  0  0  0
    1.9318   32.0124   20.3083 N   0  0  0  0  0  0  0  0  0  0  0  0
   -2.3598   30.0145   20.6581 C   0  0  1  0  0  0  0  0  0  0  0  0
   -2.2876   28.5298   20.9544 O   0  0  0  0  0  0  0  0  0  0  0  0
   -1.0439   30.7675   21.2307 C   0  0  2  0  0  0  0  0  0  0  0  0
   -1.1409   32.1833   20.9440 O   0  0  0  0  0  0  0  0  0  0  0  0
    0.2588   30.0672   20.5434 C   0  0  1  0  0  0  0  0  0  0  0  0
    0.1355   30.1437   19.0464 O   0  0  0  0  0  0  0  0  0  0  0  0
    1.6044   30.7297   21.0033 C   0  0  0  0  0  0  0  0  0  0  0  0
   -2.5238   31.6414   18.6332 N   0  0  0  0  0  0  0  0  0  0  0  0
  1  2  1  1  0  0  0
  1  3  1  0  0  0  0
  1 10  1  0  0  0  0
  3  4  1  6  0  0  0
  3  5  1  0  0  0  0
  5  6  1  1  0  0  0
  5  7  1  0  0  0  0
  7  8  1  1  0  0  0
  7  9  1  0  0  0  0
  9 10  1  0  0  0  0
  9 11  1  1  0  0  0
 11 12  1  0  0  0  0
 13 14  1  6  0  0  0
 13 15  1  0  0  0  0
 13 21  1  0  0  0  0
 16 15  1  0  0  0  0
 16 17  1  6  0  0  0
 18  2  1  1  0  0  0
 18 16  1  0  0  0  0
 19 18  1  0  0  0  0
 19 20  1  1  0  0  0
 21 19  1  0  0  0  0
 21 22  1  1  0  0  0
 23 20  1  6  0  0  0
 23 24  1  0  0  0  0
 23 28  1  0  0  0  0
 24 25  1  1  0  0  0
 24 26  1  0  0  0  0
 26 27  1  0  0  0  0
 26 32  1  1  0  0  0
 27 28  1  0  0  0  0
 27 29  1  6  0  0  0
 29 30  1  0  0  0  0
 31 32  1  6  0  0  0
 31 40  1  0  0  0  0
 33 31  1  0  0  0  0
 33 42  1  1  0  0  0
 35 33  1  0  0  0  0
 35 36  1  6  0  0  0
 37 35  1  0  0  0  0
 37 38  1  6  0  0  0
 37 39  1  0  0  0  0
 39 40  1  0  0  0  0
 39 41  1  1  0  0  0
 41 34  1  0  0  0  0
M  END
>  <CHROM.1>
-80.87391307,-178.73592433,-77.31110670,146.07111485,102.29474269,174.36646318
-35.22147545,103.21261765,-79.39496959,-1.87262095,32.27744582,15.16048575
2.18433947,1.00517006,-1.75257062

>  <Name>
2et4_lig

>  <RI>
0

>  <Rbt.Current_Directory>
/home/itssahil/PROJECTS/Mol_Feturizer/New_Systems/rnas/2et4

>  <Rbt.Executable>
rbdock ($Id: //depot/dev/client3/rdock/2013.1/src/exe/rbdock.cxx#4 $)

>  <Rbt.Library>
libRbt.so (2013.1, Build901 2013/11/27)

>  <Rbt.Parameter_File>
/export/apps/rDock/src/rDock_2013.1_src/data/scripts/dock_solv.prm

>  <Rbt.Receptor>
prm/blind_docking_60.prm

>  <SCORE>
12.4192

>  <SCORE.INTER>
-8.55067

>  <SCORE.INTER.CONST>
1

>  <SCORE.INTER.POLAR>
-0.84482

>  <SCORE.INTER.ROT>
9

>  <SCORE.INTER.SOLV>
33.2234

>  <SCORE.INTER.VDW>
-23.5589

>  <SCORE.INTER.norm>
-0.203587

>  <SCORE.INTRA>
5.83985

>  <SCORE.INTRA.DIHEDRAL>
0.991961

>  <SCORE.INTRA.DIHEDRAL.0>
21.6909

>  <SCORE.INTRA.POLAR>
0

>  <SCORE.INTRA.POLAR.0>
0

>  <SCORE.INTRA.REPUL>
0

>  <SCORE.INTRA.REPUL.0>
0

>  <SCORE.INTRA.SOLV>
4.8305

>  <SCORE.INTRA.SOLV.lig_0>
-116.606

>  <SCORE.INTRA.VDW>
2.92862

>  <SCORE.INTRA.VDW.0>
-6.01229

>  <SCORE.INTRA.norm>
0.139044

>  <SCORE.RESTR>
15.13

>  <SCORE.RESTR.CAVITY>
15.13

>  <SCORE.RESTR.norm>
0.360239

>  <SCORE.SYSTEM>
0

>  <SCORE.SYSTEM.CONST>
0

>  <SCORE.SYSTEM.DIHEDRAL>
0

>  <SCORE.SYSTEM.SOLV>
0

>  <SCORE.SYSTEM.norm>
0

>  <SCORE.heavy>
42

>  <SCORE.norm>
0.295696

>  <RMSD>
30.476

$$$$
2et4_lig
 OpenBabel11021811423D
libRbt.so/2013.1/901 2013/11/27
 42 45  0  0  0  0  0  0  0  0999 V2000
   -1.6003   35.4654   14.0388 C   0  0  2  0  0  0  0  0  0  0  0  0
   -2.1769   34.9171   15.2258 O   0  0  0  0  0  0  0  0  0  0  0  0
   -2.5546   36.5805   13.5401 C   0  0  2  0  0  0  0  0  0  0  0  0
   -2.7595   37.5871   14.5503 N   0  0  0  0  0  0  0  0  0  0  0  0
   -3.9051   35.9429   13.1033 C   0  0  1  0  0  0  0  0  0  0  0  0
   -4.7551   36.9453   12.6404 O   0  0  0  0  0  0  0  0  0  0  0  0
   -3.6059   34.8659   12.0076 C   0  0  2  0  0  0  0  0  0  0  0  0
   -4.8068   34.2545   11.5860 O   0  0  0  0  0  0  0  0  0  0  0  0
   -2.6356   33.7743   12.5524 C   0  0  2  0  0  0  0  0  0  0  0  0
   -1.4355   34.4169   12.9924 O   0  0  0  0  0  0  0  0  0  0  0  0
   -2.2811   32.7026   11.4702 C   0  0  0  0  0  0  0  0  0  0  0  0
   -1.2776   31.8001   11.9171 N   0  0  0  0  0  0  0  0  0  0  0  0
    1.1719   34.8463   17.9527 C   0  0  2  0  0  0  0  0  0  0  0  0
    1.9691   34.5765   19.1557 N   0  0  0  0  0  0  0  0  0  0  0  0
   -0.1232   35.7395   18.3493 C   0  0  0  0  0  0  0  0  0  0  0  0
   -0.9867   36.0152   17.0509 C   0  0  2  0  0  0  0  0  0  0  0  0
   -2.1900   36.8038   17.3698 N   0  0  0  0  0  0  0  0  0  0  0  0
   -1.4094   34.6512   16.4078 C   0  0  2  0  0  0  0  0  0  0  0  0
   -0.1522   33.7884   16.0572 C   0  0  2  0  0  0  0  0  0  0  0  0
   -0.6483   32.5524   15.4869 O   0  0  0  0  0  0  0  0  0  0  0  0
    0.6842   33.5190   17.3492 C   0  0  1  0  0  0  0  0  0  0  0  0
    1.7977   32.7654   17.0059 O   0  0  0  0  0  0  0  0  0  0  0  0
   -0.9606   31.4344   16.1861 C   0  0  1  0  0  0  0  0  0  0  0  0
   -2.3182   30.8478   15.7188 C   0  0  2  0  0  0  0  0  0  0  0  0
   -3.4184   31.4510   16.3358 O   0  0  0  0  0  0  0  0  0  0  0  0
   -2.0529   29.3761   15.9767 C   0  0  1  0  0  0  0  0  0  0  0  0
   -0.5814   29.1228   15.6199 C   0  0  2  0  0  0  0  0  0  0  0  0
   -0.0015   30.3497   16.0628 O   0  0  0  0  0  0  0  0  0  0  0  0
   -0.2907   28.8545   14.1039 C   0  0  0  0  0  0  0  0  0  0  0  0
   -1.5271   28.3901   13.4999 O   0  0  0  0  0  0  0  0  0  0  0  0
   -1.6519   29.9050   18.3602 C   0  0  2  0  0  0  0  0  0  0  0  0
   -2.3241   29.1183   17.4150 O   0  0  0  0  0  0  0  0  0  0  0  0
   -1.6389   29.2078   19.7897 C   0  0  1  0  0  0  0  0  0  0  0  0
   -3.8710   33.5650   19.8811 N   0  0  0  0  0  0  0  0  0  0  0  0
   -0.8630   30.2069   20.7978 C   0  0  1  0  0  0  0  0  0  0  0  0
    0.5324   30.4364   20.2522 O   0  0  0  0  0  0  0  0  0  0  0  0
   -1.6631   31.6120   20.9063 C   0  0  2  0  0  0  0  0  0  0  0  0
   -2.9875   31.3679   21.4378 O   0  0  0  0  0  0  0  0  0  0  0  0
   -1.6880   32.2774   19.4175 C   0  0  1  0  0  0  0  0  0  0  0  0
   -2.3135   31.3115   18.4491 O   0  0  0  0  0  0  0  0  0  0  0  0
   -2.4621   33.6416   19.3866 C   0  0  0  0  0  0  0  0  0  0  0  0
   -3.0418   28.9034   20.2257 N   0  0  0  0  0  0  0  0  0  0  0  0
  1  2  1  1  0  0  0
  1  3  1  0  0  0  0
  1 10  1  0  0  0  0
  3  4  1  1  0  0  0
  3  5  1  0  0  0  0
  5  6  1  6  0  0  0
  5  7  1  0  0  0  0
  7  8  1  1  0  0  0
  7  9  1  0  0  0  0
  9 10  1  0  0  0  0
  9 11  1  6  0  0  0
 11 12  1  0  0  0  0
 13 14  1  1  0  0  0
 13 15  1  0  0  0  0
 13 21  1  0  0  0  0
 16 15  1  0  0  0  0
 16 17  1  1  0  0  0
 18  2  1  6  0  0  0
 18 16  1  0  0  0  0
 19 18  1  0  0  0  0
 19 20  1  1  0  0  0
 21 19  1  0  0  0  0
 21 22  1  6  0  0  0
 23 20  1  6  0  0  0
 23 24  1  0  0  0  0
 23 28  1  0  0  0  0
 24 25  1  1  0  0  0
 24 26  1  0  0  0  0
 26 27  1  0  0  0  0
 26 32  1  1  0  0  0
 27 28  1  0  0  0  0
 27 29  1  6  0  0  0
 29 30  1  0  0  0  0
 31 32  1  6  0  0  0
 31 40  1  0  0  0  0
 33 31  1  0  0  0  0
 33 42  1  1  0  0  0
 35 33  1  0  0  0  0
 35 36  1  6  0  0  0
 37 35  1  0  0  0  0
 37 38  1  6  0  0  0
 37 39  1  0  0  0  0
 39 40  1  0  0  0  0
 39 41  1  1  0  0  0
 41 34  1  0  0  0  0
M  END
>  <CHROM.1>
-135.00393833,173.08317389,69.78081535,-89.25281709,134.51034619,-54.74080141
-22.48180740,-160.10403641,-56.41066215,-1.65191592,32.73217968,16.35432932
-2.77099658,1.35586268,-2.89631388

>  <Name>
2et4_lig

>  <RI>
0

>  <Rbt.Current_Directory>
/home/itssahil/PROJECTS/Mol_Feturizer/New_Systems/rnas/2et4

>  <Rbt.Executable>
rbdock ($Id: //depot/dev/client3/rdock/2013.1/src/exe/rbdock.cxx#4 $)

>  <Rbt.Library>
libRbt.so (2013.1, Build901 2013/11/27)

>  <Rbt.Parameter_File>
/export/apps/rDock/src/rDock_2013.1_src/data/scripts/dock_solv.prm

>  <Rbt.Receptor>
prm/blind_docking_60.prm

>  <SCORE>
13.6056

>  <SCORE.INTER>
-6.02572

>  <SCORE.INTER.CONST>
1

>  <SCORE.INTER.POLAR>
-1.24662

>  <SCORE.INTER.ROT>
9

>  <SCORE.INTER.SOLV>
26.2867

>  <SCORE.INTER.VDW>
-18.224

>  <SCORE.INTER.norm>
-0.143469

>  <SCORE.INTRA>
6.44334

>  <SCORE.INTRA.DIHEDRAL>
0.358855

>  <SCORE.INTRA.DIHEDRAL.0>
21.6909

>  <SCORE.INTRA.POLAR>
0

>  <SCORE.INTRA.POLAR.0>
0

>  <SCORE.INTRA.REPUL>
0

>  <SCORE.INTRA.REPUL.0>
0

>  <SCORE.INTRA.SOLV>
4.69509

>  <SCORE.INTRA.SOLV.lig_0>
-116.606

>  <SCORE.INTRA.VDW>
3.91637

>  <SCORE.INTRA.VDW.0>
-6.01229

>  <SCORE.INTRA.norm>
0.153413

>  <SCORE.RESTR>
13.188

>  <SCORE.RESTR.CAVITY>
13.188

>  <SCORE.RESTR.norm>
0.314

>  <SCORE.SYSTEM>
0

>  <SCORE.SYSTEM.CONST>
0

>  <SCORE.SYSTEM.DIHEDRAL>
0

>  <SCORE.SYSTEM.SOLV>
0

>  <SCORE.SYSTEM.norm>
0

>  <SCORE.heavy>
42

>  <SCORE.norm>
0.323943

>  <RMSD>
30.943

$$$$
2et4_lig
 OpenBabel11021811423D
libRbt.so/2013.1/901 2013/11/27
 42 45  0  0  0  0  0  0  0  0999 V2000
    0.9785   30.1357   20.0431 C   0  0  2  0  0  0  0  0  0  0  0  0
    0.1153   31.2547   19.8316 O   0  0  0  0  0  0  0  0  0  0  0  0
    1.4718   30.2100   21.5107 C   0  0  2  0  0  0  0  0  0  0  0  0
    0.3677   30.2172   22.4363 N   0  0  0  0  0  0  0  0  0  0  0  0
    2.3607   31.4745   21.6900 C   0  0  1  0  0  0  0  0  0  0  0  0
    2.8160   31.5301   23.0058 O   0  0  0  0  0  0  0  0  0  0  0  0
    3.5355   31.3970   20.6586 C   0  0  2  0  0  0  0  0  0  0  0  0
    4.3662   32.5321   20.7814 O   0  0  0  0  0  0  0  0  0  0  0  0
    2.9897   31.3132   19.2008 C   0  0  2  0  0  0  0  0  0  0  0  0
    2.1356   30.1696   19.1042 O   0  0  0  0  0  0  0  0  0  0  0  0
    4.1364   31.1926   18.1444 C   0  0  0  0  0  0  0  0  0  0  0  0
    5.1216   32.2050   18.3038 N   0  0  0  0  0  0  0  0  0  0  0  0
   -3.8315   29.5072   19.9843 C   0  0  2  0  0  0  0  0  0  0  0  0
   -5.2826   29.3543   19.8209 N   0  0  0  0  0  0  0  0  0  0  0  0
   -3.5240   30.7937   20.9237 C   0  0  0  0  0  0  0  0  0  0  0  0
   -1.9578   30.9621   21.0846 C   0  0  2  0  0  0  0  0  0  0  0  0
   -1.6313   32.1372   21.9118 N   0  0  0  0  0  0  0  0  0  0  0  0
   -1.3033   31.1187   19.6705 C   0  0  2  0  0  0  0  0  0  0  0  0
   -1.6320   29.8851   18.7660 C   0  0  2  0  0  0  0  0  0  0  0  0
   -0.9986   30.1334   17.4868 O   0  0  0  0  0  0  0  0  0  0  0  0
   -3.1798   29.7376   18.6110 C   0  0  1  0  0  0  0  0  0  0  0  0
   -3.4410   28.6297   17.8172 O   0  0  0  0  0  0  0  0  0  0  0  0
   -1.4188   31.0317   16.5633 C   0  0  1  0  0  0  0  0  0  0  0  0
   -2.1085   32.2443   17.2411 C   0  0  2  0  0  0  0  0  0  0  0  0
   -3.4584   32.0188   17.5271 O   0  0  0  0  0  0  0  0  0  0  0  0
   -1.7452   33.3258   16.2405 C   0  0  1  0  0  0  0  0  0  0  0  0
   -0.3212   33.0193   15.7556 C   0  0  2  0  0  0  0  0  0  0  0  0
   -0.3655   31.5927   15.7342 O   0  0  0  0  0  0  0  0  0  0  0  0
    0.8332   33.5530   16.6706 C   0  0  0  0  0  0  0  0  0  0  0  0
    1.7739   32.4635   16.8635 O   0  0  0  0  0  0  0  0  0  0  0  0
   -2.2849   33.5553   13.8369 C   0  0  2  0  0  0  0  0  0  0  0  0
   -2.7322   33.2585   15.1314 O   0  0  0  0  0  0  0  0  0  0  0  0
   -2.8230   34.9702   13.3486 C   0  0  1  0  0  0  0  0  0  0  0  0
   -4.2674   31.4998   10.1658 N   0  0  0  0  0  0  0  0  0  0  0  0
   -2.2675   35.1964   11.8463 C   0  0  1  0  0  0  0  0  0  0  0  0
   -0.7536   35.1356   11.8897 O   0  0  0  0  0  0  0  0  0  0  0  0
   -2.8491   34.0460   10.8641 C   0  0  2  0  0  0  0  0  0  0  0  0
   -4.2941   34.1307   10.8322 O   0  0  0  0  0  0  0  0  0  0  0  0
   -2.3082   32.6104   11.4173 C   0  0  1  0  0  0  0  0  0  0  0  0
   -2.7302   32.4362   12.8504 O   0  0  0  0  0  0  0  0  0  0  0  0
   -2.8274   31.4055   10.5571 C   0  0  0  0  0  0  0  0  0  0  0  0
   -4.3203   35.0082   13.4351 N   0  0  0  0  0  0  0  0  0  0  0  0
  1  2  1  6  0  0  0
  1  3  1  0  0  0  0
  1 10  1  0  0  0  0
  3  4  1  1  0  0  0
  3  5  1  0  0  0  0
  5  6  1  1  0  0  0
  5  7  1  0  0  0  0
  7  8  1  6  0  0  0
  7  9  1  0  0  0  0
  9 10  1  0  0  0  0
  9 11  1  6  0  0  0
 11 12  1  0  0  0  0
 13 14  1  6  0  0  0
 13 15  1  0  0  0  0
 13 21  1  0  0  0  0
 16 15  1  0  0  0  0
 16 17  1  1  0  0  0
 18  2  1  1  0  0  0
 18 16  1  0  0  0  0
 19 18  1  0  0  0  0
 19 20  1  6  0  0  0
 21 19  1  0  0  0  0
 21 22  1  6  0  0  0
 23 20  1  1  0  0  0
 23 24  1  0  0  0  0
 23 28  1  0  0  0  0
 24 25  1  6  0  0  0
 24 26  1  0  0  0  0
 26 27  1  0  0  0  0
 26 32  1  6  0  0  0
 27 28  1  0  0  0  0
 27 29  1  1  0  0  0
 29 30  1  0  0  0  0
 31 32  1  1  0  0  0
 31 40  1  0  0  0  0
 33 31  1  0  0  0  0
 33 42  1  6  0  0  0
 35 33  1  0  0  0  0
 35 36  1  1  0  0  0
 37 35  1  0  0  0  0
 37 38  1  1  0  0  0
 37 39  1  0  0  0  0
 39 40  1  0  0  0  0
 39 41  1  6  0  0  0
 41 34  1  0  0  0  0
M  END
>  <CHROM.1>
-109.35275968,-51.88660900,80.39245690,-73.04701116,30.71509686,-145.63001382
132.31632750,-107.18214708,-42.46855627,-0.88004160,31.86943211,17.11465434
1.10527143,0.24270468,1.96588430

>  <Name>
2et4_lig

>  <RI>
0

>  <Rbt.Current_Directory>
/home/itssahil/PROJECTS/Mol_Feturizer/New_Systems/rnas/2et4

>  <Rbt.Executable>
rbdock ($Id: //depot/dev/client3/rdock/2013.1/src/exe/rbdock.cxx#4 $)

>  <Rbt.Library>
libRbt.so (2013.1, Build901 2013/11/27)

>  <Rbt.Parameter_File>
/export/apps/rDock/src/rDock_2013.1_src/data/scripts/dock_solv.prm

>  <Rbt.Receptor>
prm/blind_docking_60.prm

>  <SCORE>
50.4462

>  <SCORE.INTER>
19.121

>  <SCORE.INTER.CONST>
1

>  <SCORE.INTER.POLAR>
-0.486056

>  <SCORE.INTER.ROT>
9

>  <SCORE.INTER.SOLV>
33.8736

>  <SCORE.INTER.VDW>
-6.5237

>  <SCORE.INTER.norm>
0.455261

>  <SCORE.INTRA>
13.0993

>  <SCORE.INTRA.DIHEDRAL>
7.87798

>  <SCORE.INTRA.DIHEDRAL.0>
21.6909

>  <SCORE.INTRA.POLAR>
0

>  <SCORE.INTRA.POLAR.0>
0

>  <SCORE.INTRA.REPUL>
0

>  <SCORE.INTRA.REPUL.0>
0

>  <SCORE.INTRA.SOLV>
5.41149

>  <SCORE.INTRA.SOLV.lig_0>
-116.606

>  <SCORE.INTRA.VDW>
6.45454

>  <SCORE.INTRA.VDW.0>
-6.01229

>  <SCORE.INTRA.norm>
0.311887

>  <SCORE.RESTR>
18.2259

>  <SCORE.RESTR.CAVITY>
18.2259

>  <SCORE.RESTR.norm>
0.433951

>  <SCORE.SYSTEM>
0

>  <SCORE.SYSTEM.CONST>
0

>  <SCORE.SYSTEM.DIHEDRAL>
0

>  <SCORE.SYSTEM.SOLV>
0

>  <SCORE.SYSTEM.norm>
0

>  <SCORE.heavy>
42

>  <SCORE.norm>
1.2011

>  <RMSD>
30.946

$$$$
2et4_lig
 OpenBabel11021811423D
libRbt.so/2013.1/901 2013/11/27
 42 45  0  0  0  0  0  0  0  0999 V2000
   -2.1668   33.3315   11.6185 C   0  0  2  0  0  0  0  0  0  0  0  0
   -3.1461   33.3887   12.6577 O   0  0  0  0  0  0  0  0  0  0  0  0
   -2.9149   32.9932   10.3038 C   0  0  2  0  0  0  0  0  0  0  0  0
   -3.9418   33.9628   10.0193 N   0  0  0  0  0  0  0  0  0  0  0  0
   -3.5116   31.5598   10.4070 C   0  0  1  0  0  0  0  0  0  0  0  0
   -4.1696   31.2521    9.2179 O   0  0  0  0  0  0  0  0  0  0  0  0
   -2.3433   30.5643   10.7134 C   0  0  2  0  0  0  0  0  0  0  0  0
   -2.8422   29.2480   10.8230 O   0  0  0  0  0  0  0  0  0  0  0  0
   -1.6165   30.9518   12.0369 C   0  0  2  0  0  0  0  0  0  0  0  0
   -1.1377   32.2941   11.9119 O   0  0  0  0  0  0  0  0  0  0  0  0
   -0.4153   30.0020   12.3536 C   0  0  0  0  0  0  0  0  0  0  0  0
   -0.8301   28.8152   13.0174 N   0  0  0  0  0  0  0  0  0  0  0  0
   -3.4389   37.5730   13.6874 C   0  0  2  0  0  0  0  0  0  0  0  0
   -3.6705   38.7891   14.4767 N   0  0  0  0  0  0  0  0  0  0  0  0
   -4.8051   36.7004   13.6220 C   0  0  0  0  0  0  0  0  0  0  0  0
   -4.5456   35.3835   12.7820 C   0  0  2  0  0  0  0  0  0  0  0  0
   -5.7564   34.5459   12.7181 N   0  0  0  0  0  0  0  0  0  0  0  0
   -3.3794   34.5694   13.4377 C   0  0  2  0  0  0  0  0  0  0  0  0
   -2.0770   35.4324   13.5207 C   0  0  2  0  0  0  0  0  0  0  0  0
   -1.0722   34.5999   14.1504 O   0  0  0  0  0  0  0  0  0  0  0  0
   -2.3476   36.7231   14.3586 C   0  0  1  0  0  0  0  0  0  0  0  0
   -1.1814   37.4739   14.4032 O   0  0  0  0  0  0  0  0  0  0  0  0
   -1.3026   33.7029   15.1396 C   0  0  1  0  0  0  0  0  0  0  0  0
   -0.0601   32.8055   15.3767 C   0  0  2  0  0  0  0  0  0  0  0  0
    0.0037   31.7147   14.5042 O   0  0  0  0  0  0  0  0  0  0  0  0
   -0.2249   32.5432   16.8622 C   0  0  1  0  0  0  0  0  0  0  0  0
   -0.7601   33.8409   17.4837 C   0  0  2  0  0  0  0  0  0  0  0  0
   -1.6165   34.2875   16.4325 O   0  0  0  0  0  0  0  0  0  0  0  0
    0.3235   34.9123   17.8477 C   0  0  0  0  0  0  0  0  0  0  0  0
    0.5987   35.6781   16.6448 O   0  0  0  0  0  0  0  0  0  0  0  0
   -1.1631   30.6938   18.2117 C   0  0  2  0  0  0  0  0  0  0  0  0
   -1.1873   31.4209   17.0139 O   0  0  0  0  0  0  0  0  0  0  0  0
   -2.4459   30.9998   19.1008 C   0  0  1  0  0  0  0  0  0  0  0  0
    2.8199   30.8172   20.0428 N   0  0  0  0  0  0  0  0  0  0  0  0
   -2.3015   30.1303   20.4572 C   0  0  1  0  0  0  0  0  0  0  0  0
   -2.1994   28.6682   20.0709 O   0  0  0  0  0  0  0  0  0  0  0  0
   -0.9774   30.5917   21.2698 C   0  0  2  0  0  0  0  0  0  0  0  0
   -1.1030   31.9870   21.6351 O   0  0  0  0  0  0  0  0  0  0  0  0
    0.3108   30.2981   20.3137 C   0  0  1  0  0  0  0  0  0  0  0  0
    0.1364   31.0187   19.0052 O   0  0  0  0  0  0  0  0  0  0  0  0
    1.6621   30.7282   20.9847 C   0  0  0  0  0  0  0  0  0  0  0  0
   -2.5552   32.4744   19.3549 N   0  0  0  0  0  0  0  0  0  0  0  0
  1  2  1  1  0  0  0
  1  3  1  0  0  0  0
  1 10  1  0  0  0  0
  3  4  1  1  0  0  0
  3  5  1  0  0  0  0
  5  6  1  6  0  0  0
  5  7  1  0  0  0  0
  7  8  1  1  0  0  0
  7  9  1  0  0  0  0
  9 10  1  0  0  0  0
  9 11  1  6  0  0  0
 11 12  1  0  0  0  0
 13 14  1  1  0  0  0
 13 15  1  0  0  0  0
 13 21  1  0  0  0  0
 16 15  1  0  0  0  0
 16 17  1  1  0  0  0
 18  2  1  6  0  0  0
 18 16  1  0  0  0  0
 19 18  1  0  0  0  0
 19 20  1  1  0  0  0
 21 19  1  0  0  0  0
 21 22  1  6  0  0  0
 23 20  1  6  0  0  0
 23 24  1  0  0  0  0
 23 28  1  0  0  0  0
 24 25  1  6  0  0  0
 24 26  1  0  0  0  0
 26 27  1  0  0  0  0
 26 32  1  6  0  0  0
 27 28  1  0  0  0  0
 27 29  1  6  0  0  0
 29 30  1  0  0  0  0
 31 32  1  6  0  0  0
 31 40  1  0  0  0  0
 33 31  1  0  0  0  0
 33 42  1  1  0  0  0
 35 33  1  0  0  0  0
 35 36  1  6  0  0  0
 37 35  1  0  0  0  0
 37 38  1  6  0  0  0
 37 39  1  0  0  0  0
 39 40  1  0  0  0  0
 39 41  1  1  0  0  0
 41 34  1  0  0  0  0
M  END
>  <CHROM.1>
-120.09277470,-83.95290624,93.81769630,-35.99159821,169.00381168,158.41863027
84.36073645,108.68797245,-164.88871275,-1.72689242,32.83022888,15.24327879
-2.90079836,-1.23966772,0.55451198

>  <Name>
2et4_lig

>  <RI>
0

>  <Rbt.Current_Directory>
/home/itssahil/PROJECTS/Mol_Feturizer/New_Systems/rnas/2et4

>  <Rbt.Executable>
rbdock ($Id: //depot/dev/client3/rdock/2013.1/src/exe/rbdock.cxx#4 $)

>  <Rbt.Library>
libRbt.so (2013.1, Build901 2013/11/27)

>  <Rbt.Parameter_File>
/export/apps/rDock/src/rDock_2013.1_src/data/scripts/dock_solv.prm

>  <Rbt.Receptor>
prm/blind_docking_60.prm

>  <SCORE>
9.34517

>  <SCORE.INTER>
-7.1536

>  <SCORE.INTER.CONST>
1

>  <SCORE.INTER.POLAR>
-0.39068

>  <SCORE.INTER.ROT>
9

>  <SCORE.INTER.SOLV>
27.1137

>  <SCORE.INTER.VDW>
-22.1047

>  <SCORE.INTER.norm>
-0.170324

>  <SCORE.INTRA>
6.86859

>  <SCORE.INTRA.DIHEDRAL>
5.99763

>  <SCORE.INTRA.DIHEDRAL.0>
21.6909

>  <SCORE.INTRA.POLAR>
0

>  <SCORE.INTRA.POLAR.0>
0

>  <SCORE.INTRA.REPUL>
0

>  <SCORE.INTRA.REPUL.0>
0

>  <SCORE.INTRA.SOLV>
3.21666

>  <SCORE.INTRA.SOLV.lig_0>
-116.606

>  <SCORE.INTRA.VDW>
2.26145

>  <SCORE.INTRA.VDW.0>
-6.01229

>  <SCORE.INTRA.norm>
0.163538

>  <SCORE.RESTR>
9.63018

>  <SCORE.RESTR.CAVITY>
9.63018

>  <SCORE.RESTR.norm>
0.22929

>  <SCORE.SYSTEM>
0

>  <SCORE.SYSTEM.CONST>
0

>  <SCORE.SYSTEM.DIHEDRAL>
0

>  <SCORE.SYSTEM.SOLV>
0

>  <SCORE.SYSTEM.norm>
0

>  <SCORE.heavy>
42

>  <SCORE.norm>
0.222504

>  <RMSD>
30.973

$$$$
2et4_lig
 OpenBabel11021811423D
libRbt.so/2013.1/901 2013/11/27
 42 45  0  0  0  0  0  0  0  0999 V2000
   -3.0543   32.4703   12.5267 C   0  0  2  0  0  0  0  0  0  0  0  0
   -2.5913   33.8181   12.4198 O   0  0  0  0  0  0  0  0  0  0  0  0
   -2.1819   31.6108   11.5765 C   0  0  2  0  0  0  0  0  0  0  0  0
   -0.7830   31.7239   11.9017 N   0  0  0  0  0  0  0  0  0  0  0  0
   -2.4509   32.0389   10.1050 C   0  0  1  0  0  0  0  0  0  0  0  0
   -1.6776   31.2537    9.2521 O   0  0  0  0  0  0  0  0  0  0  0  0
   -3.9832   31.8882    9.8238 C   0  0  2  0  0  0  0  0  0  0  0  0
   -4.2745   32.2742    8.4973 O   0  0  0  0  0  0  0  0  0  0  0  0
   -4.8171   32.7616   10.8096 C   0  0  2  0  0  0  0  0  0  0  0  0
   -4.4917   32.3684   12.1461 O   0  0  0  0  0  0  0  0  0  0  0  0
   -6.3566   32.6038   10.5847 C   0  0  0  0  0  0  0  0  0  0  0  0
   -6.6626   31.5375    9.6956 N   0  0  0  0  0  0  0  0  0  0  0  0
   -2.3217   37.5489   14.5792 C   0  0  2  0  0  0  0  0  0  0  0  0
   -2.4352   38.5265   15.6687 N   0  0  0  0  0  0  0  0  0  0  0  0
   -3.7951   36.9851   14.2006 C   0  0  0  0  0  0  0  0  0  0  0  0
   -3.6650   35.9209   13.0353 C   0  0  2  0  0  0  0  0  0  0  0  0
   -4.9803   35.3620   12.6759 N   0  0  0  0  0  0  0  0  0  0  0  0
   -2.7112   34.7651   13.4902 C   0  0  2  0  0  0  0  0  0  0  0  0
   -1.3037   35.3265   13.8797 C   0  0  2  0  0  0  0  0  0  0  0  0
   -0.5088   34.1891   14.2965 O   0  0  0  0  0  0  0  0  0  0  0  0
   -1.4486   36.3684   15.0350 C   0  0  1  0  0  0  0  0  0  0  0  0
   -0.1889   36.8584   15.3491 O   0  0  0  0  0  0  0  0  0  0  0  0
   -0.8241   33.3364   15.3014 C   0  0  1  0  0  0  0  0  0  0  0  0
    0.0394   32.0499   15.2302 C   0  0  2  0  0  0  0  0  0  0  0  0
   -0.4768   31.0902   14.3541 O   0  0  0  0  0  0  0  0  0  0  0  0
    0.1155   31.7216   16.7098 C   0  0  1  0  0  0  0  0  0  0  0  0
    0.2221   33.0597   17.4548 C   0  0  2  0  0  0  0  0  0  0  0  0
   -0.6247   33.8689   16.6388 O   0  0  0  0  0  0  0  0  0  0  0  0
    1.6663   33.6565   17.5677 C   0  0  0  0  0  0  0  0  0  0  0  0
    1.6263   34.7040   18.5727 O   0  0  0  0  0  0  0  0  0  0  0  0
   -1.2000   30.4099   18.3439 C   0  0  2  0  0  0  0  0  0  0  0  0
   -1.1257   30.9873   17.0691 O   0  0  0  0  0  0  0  0  0  0  0  0
   -2.5063   30.8825   19.1184 C   0  0  1  0  0  0  0  0  0  0  0  0
    1.4805   30.5231   22.7358 N   0  0  0  0  0  0  0  0  0  0  0  0
   -2.4763   30.1773   20.5738 C   0  0  1  0  0  0  0  0  0  0  0  0
   -2.4352   28.6760   20.3691 O   0  0  0  0  0  0  0  0  0  0  0  0
   -1.1706   30.6689   21.3982 C   0  0  2  0  0  0  0  0  0  0  0  0
   -1.2377   32.1026   21.5888 O   0  0  0  0  0  0  0  0  0  0  0  0
    0.1452   30.2002   20.5562 C   0  0  1  0  0  0  0  0  0  0  0  0
    0.0748   30.7652   19.1641 O   0  0  0  0  0  0  0  0  0  0  0  0
    1.4833   30.6425   21.2454 C   0  0  0  0  0  0  0  0  0  0  0  0
   -2.5474   32.3805   19.1902 N   0  0  0  0  0  0  0  0  0  0  0  0
  1  2  1  6  0  0  0
  1  3  1  0  0  0  0
  1 10  1  0  0  0  0
  3  4  1  1  0  0  0
  3  5  1  0  0  0  0
  5  6  1  6  0  0  0
  5  7  1  0  0  0  0
  7  8  1  6  0  0  0
  7  9  1  0  0  0  0
  9 10  1  0  0  0  0
  9 11  1  6  0  0  0
 11 12  1  0  0  0  0
 13 14  1  1  0  0  0
 13 15  1  0  0  0  0
 13 21  1  0  0  0  0
 16 15  1  0  0  0  0
 16 17  1  1  0  0  0
 18  2  1  6  0  0  0
 18 16  1  0  0  0  0
 19 18  1  0  0  0  0
 19 20  1  1  0  0  0
 21 19  1  0  0  0  0
 21 22  1  6  0  0  0
 23 20  1  6  0  0  0
 23 24  1  0  0  0  0
 23 28  1  0  0  0  0
 24 25  1  6  0  0  0
 24 26  1  0  0  0  0
 26 27  1  0  0  0  0
 26 32  1  1  0  0  0
 27 28  1  0  0  0  0
 27 29  1  6  0  0  0
 29 30  1  0  0  0  0
 31 32  1  6  0  0  0
 31 40  1  0  0  0  0
 33 31  1  0  0  0  0
 33 42  1  1  0  0  0
 35 33  1  0  0  0  0
 35 36  1  6  0  0  0
 37 35  1  0  0  0  0
 37 38  1  6  0  0  0
 37 39  1  0  0  0  0
 39 40  1  0  0  0  0
 39 41  1  1  0  0  0
 41 34  1  0  0  0  0
M  END
>  <CHROM.1>
-152.20408160,10.04828737,-115.80236229,-57.94158911,165.23388124,171.07087114
-165.51994678,126.23237007,39.40863790,-1.79948046,32.84743698,15.35486918
2.58784138,-1.14529948,-0.38482528

>  <Name>
2et4_lig

>  <RI>
0

>  <Rbt.Current_Directory>
/home/itssahil/PROJECTS/Mol_Feturizer/New_Systems/rnas/2et4

>  <Rbt.Executable>
rbdock ($Id: //depot/dev/client3/rdock/2013.1/src/exe/rbdock.cxx#4 $)

>  <Rbt.Library>
libRbt.so (2013.1, Build901 2013/11/27)

>  <Rbt.Parameter_File>
/export/apps/rDock/src/rDock_2013.1_src/data/scripts/dock_solv.prm

>  <Rbt.Receptor>
prm/blind_docking_60.prm

>  <SCORE>
14.8176

>  <SCORE.INTER>
1.85442

>  <SCORE.INTER.CONST>
1

>  <SCORE.INTER.POLAR>
-0.304485

>  <SCORE.INTER.ROT>
9

>  <SCORE.INTER.SOLV>
36.4248

>  <SCORE.INTER.VDW>
-19.4904

>  <SCORE.INTER.norm>
0.0441528

>  <SCORE.INTRA>
6.19891

>  <SCORE.INTRA.DIHEDRAL>
4.14431

>  <SCORE.INTRA.DIHEDRAL.0>
21.6909

>  <SCORE.INTRA.POLAR>
0

>  <SCORE.INTRA.POLAR.0>
0

>  <SCORE.INTRA.REPUL>
0

>  <SCORE.INTRA.REPUL.0>
0

>  <SCORE.INTRA.SOLV>
4.60527

>  <SCORE.INTRA.SOLV.lig_0>
-116.606

>  <SCORE.INTRA.VDW>
1.82412

>  <SCORE.INTRA.VDW.0>
-6.01229

>  <SCORE.INTRA.norm>
0.147593

>  <SCORE.RESTR>
6.76431

>  <SCORE.RESTR.CAVITY>
6.76431

>  <SCORE.RESTR.norm>
0.161055

>  <SCORE.SYSTEM>
0

>  <SCORE.SYSTEM.CONST>
0

>  <SCORE.SYSTEM.DIHEDRAL>
0

>  <SCORE.SYSTEM.SOLV>
0

>  <SCORE.SYSTEM.norm>
0

>  <SCORE.heavy>
42

>  <SCORE.norm>
0.352801

>  <RMSD>
31.028

$$$$
2et4_lig
 OpenBabel11021811423D
libRbt.so/2013.1/901 2013/11/27
 42 45  0  0  0  0  0  0  0  0999 V2000
   -3.2196   32.6473   12.6419 C   0  0  2  0  0  0  0  0  0  0  0  0
   -2.7007   33.9729   12.5171 O   0  0  0  0  0  0  0  0  0  0  0  0
   -2.5289   31.7821   11.5571 C   0  0  2  0  0  0  0  0  0  0  0  0
   -1.0952   31.8113   11.6962 N   0  0  0  0  0  0  0  0  0  0  0  0
   -2.9648   32.2801   10.1489 C   0  0  1  0  0  0  0  0  0  0  0  0
   -2.3551   31.4904    9.1760 O   0  0  0  0  0  0  0  0  0  0  0  0
   -4.5268   32.2185   10.0700 C   0  0  2  0  0  0  0  0  0  0  0  0
   -4.9681   32.6700    8.8071 O   0  0  0  0  0  0  0  0  0  0  0  0
   -5.1740   33.0942   11.1853 C   0  0  2  0  0  0  0  0  0  0  0  0
   -4.6981   32.6334   12.4534 O   0  0  0  0  0  0  0  0  0  0  0  0
   -6.7361   33.0236   11.1629 C   0  0  0  0  0  0  0  0  0  0  0  0
   -7.3269   33.9112   12.1032 N   0  0  0  0  0  0  0  0  0  0  0  0
   -2.3054   37.7199   14.6286 C   0  0  2  0  0  0  0  0  0  0  0  0
   -2.3320   38.6999   15.7216 N   0  0  0  0  0  0  0  0  0  0  0  0
   -3.7953   37.1188   14.4027 C   0  0  0  0  0  0  0  0  0  0  0  0
   -3.7578   36.0523   13.2329 C   0  0  2  0  0  0  0  0  0  0  0  0
   -5.0886   35.4600   13.0101 N   0  0  0  0  0  0  0  0  0  0  0  0
   -2.7347   34.9221   13.5918 C   0  0  2  0  0  0  0  0  0  0  0  0
   -1.3093   35.5192   13.8353 C   0  0  2  0  0  0  0  0  0  0  0  0
   -0.4487   34.4034   14.1722 O   0  0  0  0  0  0  0  0  0  0  0  0
   -1.3620   36.5631   14.9967 C   0  0  1  0  0  0  0  0  0  0  0  0
   -0.0893   37.0849   15.1802 O   0  0  0  0  0  0  0  0  0  0  0  0
   -0.4605   33.7292   15.3476 C   0  0  1  0  0  0  0  0  0  0  0  0
   -1.9057   33.3300   15.7449 C   0  0  2  0  0  0  0  0  0  0  0  0
   -2.5941   34.3501   16.4086 O   0  0  0  0  0  0  0  0  0  0  0  0
   -1.6095   32.0431   16.4924 C   0  0  1  0  0  0  0  0  0  0  0  0
   -0.4599   31.3523   15.7454 C   0  0  2  0  0  0  0  0  0  0  0  0
    0.3024   32.4925   15.3495 O   0  0  0  0  0  0  0  0  0  0  0  0
   -0.8823   30.4780   14.5159 C   0  0  0  0  0  0  0  0  0  0  0  0
    0.3344   30.0499   13.8485 O   0  0  0  0  0  0  0  0  0  0  0  0
   -0.9542   31.3727   18.7821 C   0  0  2  0  0  0  0  0  0  0  0  0
   -1.2240   32.4106   17.8799 O   0  0  0  0  0  0  0  0  0  0  0  0
   -1.9956   31.3653   19.9843 C   0  0  1  0  0  0  0  0  0  0  0  0
    3.3554   31.0391   19.6253 N   0  0  0  0  0  0  0  0  0  0  0  0
   -1.5775   30.1500   20.9666 C   0  0  1  0  0  0  0  0  0  0  0  0
   -1.6088   28.8641   20.1649 O   0  0  0  0  0  0  0  0  0  0  0  0
   -0.0918   30.4071   21.5606 C   0  0  2  0  0  0  0  0  0  0  0  0
   -0.0901   31.6342   22.3290 O   0  0  0  0  0  0  0  0  0  0  0  0
    0.9402   30.4456   20.2984 C   0  0  1  0  0  0  0  0  0  0  0  0
    0.4991   31.5037   19.3247 O   0  0  0  0  0  0  0  0  0  0  0  0
    2.4198   30.7143   20.7454 C   0  0  0  0  0  0  0  0  0  0  0  0
   -2.0005   32.7007   20.6681 N   0  0  0  0  0  0  0  0  0  0  0  0
  1  2  1  6  0  0  0
  1  3  1  0  0  0  0
  1 10  1  0  0  0  0
  3  4  1  6  0  0  0
  3  5  1  0  0  0  0
  5  6  1  6  0  0  0
  5  7  1  0  0  0  0
  7  8  1  6  0  0  0
  7  9  1  0  0  0  0
  9 10  1  0  0  0  0
  9 11  1  1  0  0  0
 11 12  1  0  0  0  0
 13 14  1  1  0  0  0
 13 15  1  0  0  0  0
 13 21  1  0  0  0  0
 16 15  1  0  0  0  0
 16 17  1  1  0  0  0
 18  2  1  6  0  0  0
 18 16  1  0  0  0  0
 19 18  1  0  0  0  0
 19 20  1  1  0  0  0
 21 19  1  0  0  0  0
 21 22  1  6  0  0  0
 23 20  1  6  0  0  0
 23 24  1  0  0  0  0
 23 28  1  0  0  0  0
 24 25  1  1  0  0  0
 24 26  1  0  0  0  0
 26 27  1  0  0  0  0
 26 32  1  1  0  0  0
 27 28  1  0  0  0  0
 27 29  1  6  0  0  0
 29 30  1  0  0  0  0
 31 32  1  6  0  0  0
 31 40  1  0  0  0  0
 33 31  1  0  0  0  0
 33 42  1  1  0  0  0
 35 33  1  0  0  0  0
 35 36  1  6  0  0  0
 37 35  1  0  0  0  0
 37 38  1  6  0  0  0
 37 39  1  0  0  0  0
 39 40  1  0  0  0  0
 39 41  1  1  0  0  0
 41 34  1  0  0  0  0
M  END
>  <CHROM.1>
-157.89922556,-174.87858943,-110.46706139,-73.09539888,48.56420088,177.47590811
173.04533546,-116.27342706,-167.99823269,-1.91102655,32.97028262,15.28309853
-3.04423752,-1.14045946,0.39993185

>  <Name>
2et4_lig

>  <RI>
0

>  <Rbt.Current_Directory>
/home/itssahil/PROJECTS/Mol_Feturizer/New_Systems/rnas/2et4

>  <Rbt.Executable>
rbdock ($Id: //depot/dev/client3/rdock/2013.1/src/exe/rbdock.cxx#4 $)

>  <Rbt.Library>
libRbt.so (2013.1, Build901 2013/11/27)

>  <Rbt.Parameter_File>
/export/apps/rDock/src/rDock_2013.1_src/data/scripts/dock_solv.prm

>  <Rbt.Receptor>
prm/blind_docking_60.prm

>  <SCORE>
7.50838

>  <SCORE.INTER>
-4.13908

>  <SCORE.INTER.CONST>
1

>  <SCORE.INTER.POLAR>
-1.45009

>  <SCORE.INTER.ROT>
9

>  <SCORE.INTER.SOLV>
33.5477

>  <SCORE.INTER.VDW>
-18.7083

>  <SCORE.INTER.norm>
-0.0985494

>  <SCORE.INTRA>
1.56104

>  <SCORE.INTRA.DIHEDRAL>
-3.29252

>  <SCORE.INTRA.DIHEDRAL.0>
21.6909

>  <SCORE.INTRA.POLAR>
0

>  <SCORE.INTRA.POLAR.0>
0

>  <SCORE.INTRA.REPUL>
0

>  <SCORE.INTRA.REPUL.0>
0

>  <SCORE.INTRA.SOLV>
3.50118

>  <SCORE.INTRA.SOLV.lig_0>
-116.606

>  <SCORE.INTRA.VDW>
1.45672

>  <SCORE.INTRA.VDW.0>
-6.01229

>  <SCORE.INTRA.norm>
0.0371677

>  <SCORE.RESTR>
10.0864

>  <SCORE.RESTR.CAVITY>
10.0864

>  <SCORE.RESTR.norm>
0.240153

>  <SCORE.SYSTEM>
0

>  <SCORE.SYSTEM.CONST>
0

>  <SCORE.SYSTEM.DIHEDRAL>
0

>  <SCORE.SYSTEM.SOLV>
0

>  <SCORE.SYSTEM.norm>
0

>  <SCORE.heavy>
42

>  <SCORE.norm>
0.178771

>  <RMSD>
31.181

$$$$
2et4_lig
 OpenBabel11021811423D
libRbt.so/2013.1/901 2013/11/27
 42 45  0  0  0  0  0  0  0  0999 V2000
    1.1115   30.4829   18.0999 C   0  0  2  0  0  0  0  0  0  0  0  0
    1.4208   31.8209   17.7046 O   0  0  0  0  0  0  0  0  0  0  0  0
   -0.1748   30.0679   17.3411 C   0  0  2  0  0  0  0  0  0  0  0  0
   -0.0022   30.1787   15.9150 N   0  0  0  0  0  0  0  0  0  0  0  0
   -1.3645   30.9433   17.8305 C   0  0  1  0  0  0  0  0  0  0  0  0
   -2.5226   30.5572   17.1586 O   0  0  0  0  0  0  0  0  0  0  0  0
   -1.4930   30.7715   19.3810 C   0  0  2  0  0  0  0  0  0  0  0  0
   -2.5595   31.5566   19.8705 O   0  0  0  0  0  0  0  0  0  0  0  0
   -0.1734   31.1906   20.0972 C   0  0  2  0  0  0  0  0  0  0  0  0
    0.8958   30.3982   19.5723 O   0  0  0  0  0  0  0  0  0  0  0  0
   -0.2511   30.9926   21.6465 C   0  0  0  0  0  0  0  0  0  0  0  0
    1.0286   31.0644   22.2615 N   0  0  0  0  0  0  0  0  0  0  0  0
    4.5246   33.1561   20.3950 C   0  0  2  0  0  0  0  0  0  0  0  0
    5.7039   33.8714   20.8982 N   0  0  0  0  0  0  0  0  0  0  0  0
    4.9490   32.2332   19.1299 C   0  0  0  0  0  0  0  0  0  0  0  0
    3.6710   31.4755   18.5825 C   0  0  2  0  0  0  0  0  0  0  0  0
    4.0061   30.6429   17.4137 N   0  0  0  0  0  0  0  0  0  0  0  0
    2.5765   32.5222   18.1836 C   0  0  2  0  0  0  0  0  0  0  0  0
    2.1980   33.4238   19.4049 C   0  0  2  0  0  0  0  0  0  0  0  0
    1.1986   34.3594   18.9306 O   0  0  0  0  0  0  0  0  0  0  0  0
    3.4674   34.1699   19.9279 C   0  0  1  0  0  0  0  0  0  0  0  0
    3.1048   34.9492   21.0173 O   0  0  0  0  0  0  0  0  0  0  0  0
    0.5648   34.2926   17.7347 C   0  0  1  0  0  0  0  0  0  0  0  0
   -0.9365   34.6536   17.8803 C   0  0  2  0  0  0  0  0  0  0  0  0
   -1.7261   33.5693   18.2751 O   0  0  0  0  0  0  0  0  0  0  0  0
   -1.1752   35.2715   16.5151 C   0  0  1  0  0  0  0  0  0  0  0  0
    0.0975   36.0500   16.1533 C   0  0  2  0  0  0  0  0  0  0  0  0
    1.0866   35.1887   16.7167 O   0  0  0  0  0  0  0  0  0  0  0  0
    0.1892   37.5019   16.7349 C   0  0  0  0  0  0  0  0  0  0  0  0
    1.4787   38.0452   16.3460 O   0  0  0  0  0  0  0  0  0  0  0  0
   -1.6634   34.4912   14.2185 C   0  0  2  0  0  0  0  0  0  0  0  0
   -1.4331   34.1615   15.5610 O   0  0  0  0  0  0  0  0  0  0  0  0
   -2.9248   35.4479   14.0655 C   0  0  1  0  0  0  0  0  0  0  0  0
   -2.6799   32.0764    9.7672 N   0  0  0  0  0  0  0  0  0  0  0  0
   -3.1081   35.7424   12.4855 C   0  0  1  0  0  0  0  0  0  0  0  0
   -1.8317   36.3800   11.9739 O   0  0  0  0  0  0  0  0  0  0  0  0
   -3.4009   34.3573   11.6966 C   0  0  2  0  0  0  0  0  0  0  0  0
   -4.6280   33.7733   12.1957 O   0  0  0  0  0  0  0  0  0  0  0  0
   -2.1046   33.3904   11.9074 C   0  0  1  0  0  0  0  0  0  0  0  0
   -1.8610   33.1952   13.3787 O   0  0  0  0  0  0  0  0  0  0  0  0
   -2.2783   31.9982   11.2052 C   0  0  0  0  0  0  0  0  0  0  0  0
   -4.1313   34.8113   14.6900 N   0  0  0  0  0  0  0  0  0  0  0  0
  1  2  1  1  0  0  0
  1  3  1  0  0  0  0
  1 10  1  0  0  0  0
  3  4  1  6  0  0  0
  3  5  1  0  0  0  0
  5  6  1  6  0  0  0
  5  7  1  0  0  0  0
  7  8  1  1  0  0  0
  7  9  1  0  0  0  0
  9 10  1  0  0  0  0
  9 11  1  1  0  0  0
 11 12  1  0  0  0  0
 13 14  1  6  0  0  0
 13 15  1  0  0  0  0
 13 21  1  0  0  0  0
 16 15  1  0  0  0  0
 16 17  1  6  0  0  0
 18  2  1  1  0  0  0
 18 16  1  0  0  0  0
 19 18  1  0  0  0  0
 19 20  1  6  0  0  0
 21 19  1  0  0  0  0
 21 22  1  1  0  0  0
 23 20  1  1  0  0  0
 23 24  1  0  0  0  0
 23 28  1  0  0  0  0
 24 25  1  6  0  0  0
 24 26  1  0  0  0  0
 26 27  1  0  0  0  0
 26 32  1  6  0  0  0
 27 28  1  0  0  0  0
 27 29  1  1  0  0  0
 29 30  1  0  0  0  0
 31 32  1  1  0  0  0
 31 40  1  0  0  0  0
 33 31  1  0  0  0  0
 33 42  1  6  0  0  0
 35 33  1  0  0  0  0
 35 36  1  6  0  0  0
 37 35  1  0  0  0  0
 37 38  1  1  0  0  0
 37 39  1  0  0  0  0
 39 40  1  0  0  0  0
 39 41  1  6  0  0  0
 41 34  1  0  0  0  0
M  END
>  <CHROM.1>
-178.22688425,165.94487987,25.65539768,10.42470706,139.63406387,-179.05899174
177.13912675,-59.30837484,51.31825431,-0.05115450,33.23887463,16.90627261
0.65407040,0.76819332,2.55078519

>  <Name>
2et4_lig

>  <RI>
0

>  <Rbt.Current_Directory>
/home/itssahil/PROJECTS/Mol_Feturizer/New_Systems/rnas/2et4

>  <Rbt.Executable>
rbdock ($Id: //depot/dev/client3/rdock/2013.1/src/exe/rbdock.cxx#4 $)

>  <Rbt.Library>
libRbt.so (2013.1, Build901 2013/11/27)

>  <Rbt.Parameter_File>
/export/apps/rDock/src/rDock_2013.1_src/data/scripts/dock_solv.prm

>  <Rbt.Receptor>
prm/blind_docking_60.prm

>  <SCORE>
11.7902

>  <SCORE.INTER>
-4.46774

>  <SCORE.INTER.CONST>
1

>  <SCORE.INTER.POLAR>
-0.680129

>  <SCORE.INTER.ROT>
9

>  <SCORE.INTER.SOLV>
37.5731

>  <SCORE.INTER.VDW>
-22.8358

>  <SCORE.INTER.norm>
-0.106375

>  <SCORE.INTRA>
2.0515

>  <SCORE.INTRA.DIHEDRAL>
-3.96712

>  <SCORE.INTRA.DIHEDRAL.0>
21.6909

>  <SCORE.INTRA.POLAR>
0

>  <SCORE.INTRA.POLAR.0>
0

>  <SCORE.INTRA.REPUL>
0.0729608

>  <SCORE.INTRA.REPUL.0>
0

>  <SCORE.INTRA.SOLV>
-0.922752

>  <SCORE.INTRA.SOLV.lig_0>
-116.606

>  <SCORE.INTRA.VDW>
4.13163

>  <SCORE.INTRA.VDW.0>
-6.01229

>  <SCORE.INTRA.norm>
0.0488452

>  <SCORE.RESTR>
14.2065

>  <SCORE.RESTR.CAVITY>
14.2065

>  <SCORE.RESTR.norm>
0.33825

>  <SCORE.SYSTEM>
0

>  <SCORE.SYSTEM.CONST>
0

>  <SCORE.SYSTEM.DIHEDRAL>
0

>  <SCORE.SYSTEM.SOLV>
0

>  <SCORE.SYSTEM.norm>
0

>  <SCORE.heavy>
42

>  <SCORE.norm>
0.28072

>  <RMSD>
31.271

$$$$
2et4_lig
 OpenBabel11021811423D
libRbt.so/2013.1/901 2013/11/27
 42 45  0  0  0  0  0  0  0  0999 V2000
   -1.0830   30.5513   20.6833 C   0  0  2  0  0  0  0  0  0  0  0  0
   -0.1196   29.9225   19.8355 O   0  0  0  0  0  0  0  0  0  0  0  0
   -2.3771   29.7008   20.6138 C   0  0  2  0  0  0  0  0  0  0  0  0
   -2.1302   28.3360   21.0037 N   0  0  0  0  0  0  0  0  0  0  0  0
   -2.9630   29.7744   19.1742 C   0  0  1  0  0  0  0  0  0  0  0  0
   -4.1348   29.0223   19.1188 O   0  0  0  0  0  0  0  0  0  0  0  0
   -3.2069   31.2798   18.8215 C   0  0  2  0  0  0  0  0  0  0  0  0
   -3.7334   31.3943   17.5165 O   0  0  0  0  0  0  0  0  0  0  0  0
   -1.8809   32.0939   18.9156 C   0  0  2  0  0  0  0  0  0  0  0  0
   -1.3548   31.9474   20.2379 O   0  0  0  0  0  0  0  0  0  0  0  0
   -2.0946   33.6125   18.6097 C   0  0  0  0  0  0  0  0  0  0  0  0
   -0.8683   34.2879   18.3624 N   0  0  0  0  0  0  0  0  0  0  0  0
    3.0067   32.8842   19.5045 C   0  0  2  0  0  0  0  0  0  0  0  0
    4.3172   33.4854   19.2275 N   0  0  0  0  0  0  0  0  0  0  0  0
    3.1705   31.7151   20.6175 C   0  0  0  0  0  0  0  0  0  0  0  0
    1.7569   31.0608   20.9015 C   0  0  2  0  0  0  0  0  0  0  0  0
    1.8630   29.9735   21.8906 N   0  0  0  0  0  0  0  0  0  0  0  0
    1.1661   30.4975   19.5650 C   0  0  2  0  0  0  0  0  0  0  0  0
    1.0408   31.6292   18.4919 C   0  0  2  0  0  0  0  0  0  0  0  0
    0.5036   31.0065   17.2992 O   0  0  0  0  0  0  0  0  0  0  0  0
    2.4443   32.2587   18.2175 C   0  0  1  0  0  0  0  0  0  0  0  0
    2.3002   33.2664   17.2744 O   0  0  0  0  0  0  0  0  0  0  0  0
   -0.4929   31.5098   16.5310 C   0  0  1  0  0  0  0  0  0  0  0  0
    0.0485   32.5839   15.5519 C   0  0  2  0  0  0  0  0  0  0  0  0
    0.1445   33.8540   16.1287 O   0  0  0  0  0  0  0  0  0  0  0  0
   -0.9170   32.3766   14.3997 C   0  0  1  0  0  0  0  0  0  0  0  0
   -1.1857   30.8676   14.3139 C   0  0  2  0  0  0  0  0  0  0  0  0
   -1.1771   30.5323   15.7015 O   0  0  0  0  0  0  0  0  0  0  0  0
   -0.1291   30.0384   13.5073 C   0  0  0  0  0  0  0  0  0  0  0  0
   -0.4874   28.6368   13.6347 O   0  0  0  0  0  0  0  0  0  0  0  0
   -2.4654   34.2403   13.8991 C   0  0  2  0  0  0  0  0  0  0  0  0
   -2.1536   33.1405   14.7098 O   0  0  0  0  0  0  0  0  0  0  0  0
   -1.6212   35.5230   14.3135 C   0  0  1  0  0  0  0  0  0  0  0  0
   -6.8431   34.7153   12.8519 N   0  0  0  0  0  0  0  0  0  0  0  0
   -2.0758   36.7271   13.3336 C   0  0  1  0  0  0  0  0  0  0  0  0
   -1.8119   36.2965   11.9044 O   0  0  0  0  0  0  0  0  0  0  0  0
   -3.6509   37.0448   13.5441 C   0  0  2  0  0  0  0  0  0  0  0  0
   -3.8755   37.4623   14.9121 O   0  0  0  0  0  0  0  0  0  0  0  0
   -4.4795   35.6976   13.1461 C   0  0  1  0  0  0  0  0  0  0  0  0
   -3.9900   34.5455   13.9797 O   0  0  0  0  0  0  0  0  0  0  0  0
   -6.0274   35.8724   13.3326 C   0  0  0  0  0  0  0  0  0  0  0  0
   -1.8358   35.8322   15.7657 N   0  0  0  0  0  0  0  0  0  0  0  0
  1  2  1  6  0  0  0
  1  3  1  0  0  0  0
  1 10  1  0  0  0  0
  3  4  1  6  0  0  0
  3  5  1  0  0  0  0
  5  6  1  1  0  0  0
  5  7  1  0  0  0  0
  7  8  1  6  0  0  0
  7  9  1  0  0  0  0
  9 10  1  0  0  0  0
  9 11  1  1  0  0  0
 11 12  1  0  0  0  0
 13 14  1  6  0  0  0
 13 15  1  0  0  0  0
 13 21  1  0  0  0  0
 16 15  1  0  0  0  0
 16 17  1  1  0  0  0
 18  2  1  1  0  0  0
 18 16  1  0  0  0  0
 19 18  1  0  0  0  0
 19 20  1  6  0  0  0
 21 19  1  0  0  0  0
 21 22  1  6  0  0  0
 23 20  1  6  0  0  0
 23 24  1  0  0  0  0
 23 28  1  0  0  0  0
 24 25  1  1  0  0  0
 24 26  1  0  0  0  0
 26 27  1  0  0  0  0
 26 32  1  1  0  0  0
 27 28  1  0  0  0  0
 27 29  1  6  0  0  0
 29 30  1  0  0  0  0
 31 32  1  1  0  0  0
 31 40  1  0  0  0  0
 33 31  1  0  0  0  0
 33 42  1  1  0  0  0
 35 33  1  0  0  0  0
 35 36  1  6  0  0  0
 37 35  1  0  0  0  0
 37 38  1  1  0  0  0
 37 39  1  0  0  0  0
 39 40  1  0  0  0  0
 39 41  1  1  0  0  0
 41 34  1  0  0  0  0
M  END
>  <CHROM.1>
174.60708765,-165.14642900,42.91364274,134.94542334,81.29561062,113.26538395
175.20182706,-79.99385769,174.14558761,-1.19734330,32.54547291,16.90665298
1.06607788,0.29989462,2.36859481

>  <Name>
2et4_lig

>  <RI>
0

>  <Rbt.Current_Directory>
/home/itssahil/PROJECTS/Mol_Feturizer/New_Systems/rnas/2et4

>  <Rbt.Executable>
rbdock ($Id: //depot/dev/client3/rdock/2013.1/src/exe/rbdock.cxx#4 $)

>  <Rbt.Library>
libRbt.so (2013.1, Build901 2013/11/27)

>  <Rbt.Parameter_File>
/export/apps/rDock/src/rDock_2013.1_src/data/scripts/dock_solv.prm

>  <Rbt.Receptor>
prm/blind_docking_60.prm

>  <SCORE>
14.2541

>  <SCORE.INTER>
-1.76894

>  <SCORE.INTER.CONST>
1

>  <SCORE.INTER.POLAR>
-0.448936

>  <SCORE.INTER.ROT>
9

>  <SCORE.INTER.SOLV>
33.4996

>  <SCORE.INTER.VDW>
-20.4494

>  <SCORE.INTER.norm>
-0.0421177

>  <SCORE.INTRA>
3.33019

>  <SCORE.INTRA.DIHEDRAL>
-2.1816

>  <SCORE.INTRA.DIHEDRAL.0>
21.6909

>  <SCORE.INTRA.POLAR>
0

>  <SCORE.INTRA.POLAR.0>
0

>  <SCORE.INTRA.REPUL>
0.169581

>  <SCORE.INTRA.REPUL.0>
0

>  <SCORE.INTRA.SOLV>
5.73436

>  <SCORE.INTRA.SOLV.lig_0>
-116.606

>  <SCORE.INTRA.VDW>
0.705904

>  <SCORE.INTRA.VDW.0>
-6.01229

>  <SCORE.INTRA.norm>
0.0792903

>  <SCORE.RESTR>
12.6929

>  <SCORE.RESTR.CAVITY>
12.6929

>  <SCORE.RESTR.norm>
0.302211

>  <SCORE.SYSTEM>
0

>  <SCORE.SYSTEM.CONST>
0

>  <SCORE.SYSTEM.DIHEDRAL>
0

>  <SCORE.SYSTEM.SOLV>
0

>  <SCORE.SYSTEM.norm>
0

>  <SCORE.heavy>
42

>  <SCORE.norm>
0.339384

>  <RMSD>
31.280

$$$$
2et4_lig
 OpenBabel11021811423D
libRbt.so/2013.1/901 2013/11/27
 42 45  0  0  0  0  0  0  0  0999 V2000
   -3.1818   32.6272   12.6477 C   0  0  2  0  0  0  0  0  0  0  0  0
   -2.6558   33.9496   12.5177 O   0  0  0  0  0  0  0  0  0  0  0  0
   -2.5097   31.7585   11.5539 C   0  0  2  0  0  0  0  0  0  0  0  0
   -1.0743   31.7783   11.6759 N   0  0  0  0  0  0  0  0  0  0  0  0
   -2.9592   32.2606   10.1514 C   0  0  1  0  0  0  0  0  0  0  0  0
   -2.3664   31.4678    9.1707 O   0  0  0  0  0  0  0  0  0  0  0  0
   -4.5224   32.2091   10.0912 C   0  0  2  0  0  0  0  0  0  0  0  0
   -4.9759   32.6645    8.8341 O   0  0  0  0  0  0  0  0  0  0  0  0
   -5.1506   33.0880   11.2150 C   0  0  2  0  0  0  0  0  0  0  0  0
   -4.6624   32.6230   12.4768 O   0  0  0  0  0  0  0  0  0  0  0  0
   -6.7132   33.0275   11.2113 C   0  0  0  0  0  0  0  0  0  0  0  0
   -7.2832   33.8151   12.2485 N   0  0  0  0  0  0  0  0  0  0  0  0
   -2.5218   37.7940   14.4816 C   0  0  2  0  0  0  0  0  0  0  0  0
   -2.6545   38.8182   15.5252 N   0  0  0  0  0  0  0  0  0  0  0  0
   -3.9736   37.1353   14.1805 C   0  0  0  0  0  0  0  0  0  0  0  0
   -3.8220   36.0217   13.0650 C   0  0  2  0  0  0  0  0  0  0  0  0
   -5.1157   35.3772   12.7775 N   0  0  0  0  0  0  0  0  0  0  0  0
   -2.7937   34.9420   13.5439 C   0  0  2  0  0  0  0  0  0  0  0  0
   -1.4073   35.5953   13.8582 C   0  0  2  0  0  0  0  0  0  0  0  0
   -0.5398   34.5238   14.3034 O   0  0  0  0  0  0  0  0  0  0  0  0
   -1.5727   36.6854   14.9654 C   0  0  1  0  0  0  0  0  0  0  0  0
   -0.3322   37.2561   15.2128 O   0  0  0  0  0  0  0  0  0  0  0  0
   -0.8440   33.6124   15.2590 C   0  0  1  0  0  0  0  0  0  0  0  0
    0.2357   32.5012   15.3312 C   0  0  2  0  0  0  0  0  0  0  0  0
    0.0350   31.4794   14.3981 O   0  0  0  0  0  0  0  0  0  0  0  0
    0.1480   32.1676   16.8090 C   0  0  1  0  0  0  0  0  0  0  0  0
   -0.0976   33.4911   17.5473 C   0  0  2  0  0  0  0  0  0  0  0  0
   -0.9440   34.1500   16.6054 O   0  0  0  0  0  0  0  0  0  0  0  0
    1.1840   34.3331   17.8682 C   0  0  0  0  0  0  0  0  0  0  0  0
    0.7478   35.5617   18.5081 O   0  0  0  0  0  0  0  0  0  0  0  0
   -1.7147   31.2879   18.1794 C   0  0  2  0  0  0  0  0  0  0  0  0
   -0.9819   31.2187   16.9868 O   0  0  0  0  0  0  0  0  0  0  0  0
   -0.7667   31.1568   19.4498 C   0  0  1  0  0  0  0  0  0  0  0  0
   -5.4146   28.9034   17.9580 N   0  0  0  0  0  0  0  0  0  0  0  0
   -1.7148   31.2271   20.7585 C   0  0  1  0  0  0  0  0  0  0  0  0
   -2.4635   32.5447   20.7276 O   0  0  0  0  0  0  0  0  0  0  0  0
   -2.7577   29.9867   20.7514 C   0  0  2  0  0  0  0  0  0  0  0  0
   -2.0198   28.7417   20.7909 O   0  0  0  0  0  0  0  0  0  0  0  0
   -3.6851   30.1344   19.4180 C   0  0  1  0  0  0  0  0  0  0  0  0
   -2.8047   30.1764   18.1994 O   0  0  0  0  0  0  0  0  0  0  0  0
   -4.7275   28.9695   19.2843 C   0  0  0  0  0  0  0  0  0  0  0  0
    0.0306   29.8886   19.3673 N   0  0  0  0  0  0  0  0  0  0  0  0
  1  2  1  6  0  0  0
  1  3  1  0  0  0  0
  1 10  1  0  0  0  0
  3  4  1  6  0  0  0
  3  5  1  0  0  0  0
  5  6  1  6  0  0  0
  5  7  1  0  0  0  0
  7  8  1  6  0  0  0
  7  9  1  0  0  0  0
  9 10  1  0  0  0  0
  9 11  1  1  0  0  0
 11 12  1  0  0  0  0
 13 14  1  1  0  0  0
 13 15  1  0  0  0  0
 13 21  1  0  0  0  0
 16 15  1  0  0  0  0
 16 17  1  1  0  0  0
 18  2  1  6  0  0  0
 18 16  1  0  0  0  0
 19 18  1  0  0  0  0
 19 20  1  1  0  0  0
 21 19  1  0  0  0  0
 21 22  1  6  0  0  0
 23 20  1  6  0  0  0
 23 24  1  0  0  0  0
 23 28  1  0  0  0  0
 24 25  1  6  0  0  0
 24 26  1  0  0  0  0
 26 27  1  0  0  0  0
 26 32  1  6  0  0  0
 27 28  1  0  0  0  0
 27 29  1  6  0  0  0
 29 30  1  0  0  0  0
 31 32  1  6  0  0  0
 31 40  1  0  0  0  0
 33 31  1  0  0  0  0
 33 42  1  6  0  0  0
 35 33  1  0  0  0  0
 35 36  1  6  0  0  0
 37 35  1  0  0  0  0
 37 38  1  6  0  0  0
 37 39  1  0  0  0  0
 39 40  1  0  0  0  0
 39 41  1  6  0  0  0
 41 34  1  0  0  0  0
M  END
>  <CHROM.1>
-164.52766401,179.18845773,-108.32358740,-49.98530569,171.97155171,-147.05493927
177.56868083,-54.74005670,-168.54210995,-2.39529674,33.01099730,15.23879050
2.05508210,-0.98529515,-0.81465480

>  <Name>
2et4_lig

>  <RI>
0

>  <Rbt.Current_Directory>
/home/itssahil/PROJECTS/Mol_Feturizer/New_Systems/rnas/2et4

>  <Rbt.Executable>
rbdock ($Id: //depot/dev/client3/rdock/2013.1/src/exe/rbdock.cxx#4 $)

>  <Rbt.Library>
libRbt.so (2013.1, Build901 2013/11/27)

>  <Rbt.Parameter_File>
/export/apps/rDock/src/rDock_2013.1_src/data/scripts/dock_solv.prm

>  <Rbt.Receptor>
prm/blind_docking_60.prm

>  <SCORE>
9.77467

>  <SCORE.INTER>
-1.64045

>  <SCORE.INTER.CONST>
1

>  <SCORE.INTER.POLAR>
-0.844682

>  <SCORE.INTER.ROT>
9

>  <SCORE.INTER.SOLV>
29.1075

>  <SCORE.INTER.VDW>
-17.5805

>  <SCORE.INTER.norm>
-0.0390583

>  <SCORE.INTRA>
-0.126743

>  <SCORE.INTRA.DIHEDRAL>
-8.33911

>  <SCORE.INTRA.DIHEDRAL.0>
21.6909

>  <SCORE.INTRA.POLAR>
0

>  <SCORE.INTRA.POLAR.0>
0

>  <SCORE.INTRA.REPUL>
0

>  <SCORE.INTRA.REPUL.0>
0

>  <SCORE.INTRA.SOLV>
3.27892

>  <SCORE.INTRA.SOLV.lig_0>
-116.606

>  <SCORE.INTRA.VDW>
2.40335

>  <SCORE.INTRA.VDW.0>
-6.01229

>  <SCORE.INTRA.norm>
-0.0030177

>  <SCORE.RESTR>
11.5419

>  <SCORE.RESTR.CAVITY>
11.5419

>  <SCORE.RESTR.norm>
0.274806

>  <SCORE.SYSTEM>
0

>  <SCORE.SYSTEM.CONST>
0

>  <SCORE.SYSTEM.DIHEDRAL>
0

>  <SCORE.SYSTEM.SOLV>
0

>  <SCORE.SYSTEM.norm>
0

>  <SCORE.heavy>
42

>  <SCORE.norm>
0.23273

>  <RMSD>
31.311

$$$$
2et4_lig
 OpenBabel11021811423D
libRbt.so/2013.1/901 2013/11/27
 42 45  0  0  0  0  0  0  0  0999 V2000
   -3.1035   33.0464   12.5505 C   0  0  2  0  0  0  0  0  0  0  0  0
   -3.2195   34.4697   12.4956 O   0  0  0  0  0  0  0  0  0  0  0  0
   -2.5956   32.5755   11.1638 C   0  0  2  0  0  0  0  0  0  0  0  0
   -1.3440   33.2020   10.8223 N   0  0  0  0  0  0  0  0  0  0  0  0
   -3.6821   32.8740   10.0906 C   0  0  1  0  0  0  0  0  0  0  0  0
   -3.2296   32.4350    8.8479 O   0  0  0  0  0  0  0  0  0  0  0  0
   -5.0070   32.1628   10.5248 C   0  0  2  0  0  0  0  0  0  0  0  0
   -6.0258   32.4137    9.5799 O   0  0  0  0  0  0  0  0  0  0  0  0
   -5.4708   32.6609   11.9272 C   0  0  2  0  0  0  0  0  0  0  0  0
   -4.4173   32.4160   12.8636 O   0  0  0  0  0  0  0  0  0  0  0  0
   -6.7712   31.9403   12.4121 C   0  0  0  0  0  0  0  0  0  0  0  0
   -7.2643   32.4847   13.6293 N   0  0  0  0  0  0  0  0  0  0  0  0
   -1.7510   37.8169   14.7966 C   0  0  2  0  0  0  0  0  0  0  0  0
   -1.4671   38.6860   15.9454 N   0  0  0  0  0  0  0  0  0  0  0  0
   -3.3556   37.6429   14.6315 C   0  0  0  0  0  0  0  0  0  0  0  0
   -3.6554   36.6934   13.4003 C   0  0  2  0  0  0  0  0  0  0  0  0
   -5.1043   36.4864   13.2286 N   0  0  0  0  0  0  0  0  0  0  0  0
   -2.9518   35.3124   13.6248 C   0  0  2  0  0  0  0  0  0  0  0  0
   -1.4095   35.4979   13.8113 C   0  0  2  0  0  0  0  0  0  0  0  0
   -0.8595   34.1747   14.0253 O   0  0  0  0  0  0  0  0  0  0  0  0
   -1.1307   36.4303   15.0338 C   0  0  1  0  0  0  0  0  0  0  0  0
    0.2417   36.5876   15.1659 O   0  0  0  0  0  0  0  0  0  0  0  0
   -0.4218   33.6884   15.2120 C   0  0  1  0  0  0  0  0  0  0  0  0
   -1.6118   33.2642   16.1117 C   0  0  2  0  0  0  0  0  0  0  0  0
   -2.1599   34.3281   16.8347 O   0  0  0  0  0  0  0  0  0  0  0  0
   -0.9535   32.1277   16.8718 C   0  0  1  0  0  0  0  0  0  0  0  0
   -0.0339   31.4049   15.8775 C   0  0  2  0  0  0  0  0  0  0  0  0
    0.4325   32.5170   15.1137 O   0  0  0  0  0  0  0  0  0  0  0  0
   -0.7281   30.3283   14.9755 C   0  0  0  0  0  0  0  0  0  0  0  0
    0.2620   29.8540   14.0248 O   0  0  0  0  0  0  0  0  0  0  0  0
   -0.2961   32.1234   19.2570 C   0  0  2  0  0  0  0  0  0  0  0  0
   -0.1882   32.7263   17.9965 O   0  0  0  0  0  0  0  0  0  0  0  0
    0.3505   30.6703   19.2611 C   0  0  1  0  0  0  0  0  0  0  0  0
   -4.2246   32.8076   21.3512 N   0  0  0  0  0  0  0  0  0  0  0  0
    0.1501   30.0660   20.7482 C   0  0  1  0  0  0  0  0  0  0  0  0
    0.8230   31.0025   21.7319 O   0  0  0  0  0  0  0  0  0  0  0  0
   -1.4303   29.9384   21.0834 C   0  0  2  0  0  0  0  0  0  0  0  0
   -2.0478   29.0328   20.1375 O   0  0  0  0  0  0  0  0  0  0  0  0
   -2.0643   31.4402   21.0330 C   0  0  1  0  0  0  0  0  0  0  0  0
   -1.7908   32.0529   19.6870 O   0  0  0  0  0  0  0  0  0  0  0  0
   -3.6068   31.4465   21.3195 C   0  0  0  0  0  0  0  0  0  0  0  0
   -0.2776   29.8254   18.1922 N   0  0  0  0  0  0  0  0  0  0  0  0
  1  2  1  6  0  0  0
  1  3  1  0  0  0  0
  1 10  1  0  0  0  0
  3  4  1  6  0  0  0
  3  5  1  0  0  0  0
  5  6  1  6  0  0  0
  5  7  1  0  0  0  0
  7  8  1  6  0  0  0
  7  9  1  0  0  0  0
  9 10  1  0  0  0  0
  9 11  1  1  0  0  0
 11 12  1  0  0  0  0
 13 14  1  1  0  0  0
 13 15  1  0  0  0  0
 13 21  1  0  0  0  0
 16 15  1  0  0  0  0
 16 17  1  1  0  0  0
 18  2  1  6  0  0  0
 18 16  1  0  0  0  0
 19 18  1  0  0  0  0
 19 20  1  1  0  0  0
 21 19  1  0  0  0  0
 21 22  1  6  0  0  0
 23 20  1  6  0  0  0
 23 24  1  0  0  0  0
 23 28  1  0  0  0  0
 24 25  1  1  0  0  0
 24 26  1  0  0  0  0
 26 27  1  0  0  0  0
 26 32  1  1  0  0  0
 27 28  1  0  0  0  0
 27 29  1  6  0  0  0
 29 30  1  0  0  0  0
 31 32  1  6  0  0  0
 31 40  1  0  0  0  0
 33 31  1  0  0  0  0
 33 42  1  6  0  0  0
 35 33  1  0  0  0  0
 35 36  1  1  0  0  0
 37 35  1  0  0  0  0
 37 38  1  6  0  0  0
 37 39  1  0  0  0  0
 39 40  1  0  0  0  0
 39 41  1  6  0  0  0
 41 34  1  0  0  0  0
M  END
>  <CHROM.1>
-145.45701055,-174.34832101,-159.51536694,-106.03914748,77.58901247,135.24768993
174.59610785,66.59579569,177.14622555,-2.20985696,33.04107705,15.40865798
2.45668906,-1.14578390,-0.41892613

>  <Name>
2et4_lig

>  <RI>
0

>  <Rbt.Current_Directory>
/home/itssahil/PROJECTS/Mol_Feturizer/New_Systems/rnas/2et4

>  <Rbt.Executable>
rbdock ($Id: //depot/dev/client3/rdock/2013.1/src/exe/rbdock.cxx#4 $)

>  <Rbt.Library>
libRbt.so (2013.1, Build901 2013/11/27)

>  <Rbt.Parameter_File>
/export/apps/rDock/src/rDock_2013.1_src/data/scripts/dock_solv.prm

>  <Rbt.Receptor>
prm/blind_docking_60.prm

>  <SCORE>
13.1582

>  <SCORE.INTER>
1.88817

>  <SCORE.INTER.CONST>
1

>  <SCORE.INTER.POLAR>
-0.551456

>  <SCORE.INTER.ROT>
9

>  <SCORE.INTER.SOLV>
30.4655

>  <SCORE.INTER.VDW>
-16.6582

>  <SCORE.INTER.norm>
0.0449564

>  <SCORE.INTRA>
1.2232

>  <SCORE.INTRA.DIHEDRAL>
-0.964314

>  <SCORE.INTRA.DIHEDRAL.0>
21.6909

>  <SCORE.INTRA.POLAR>
0

>  <SCORE.INTRA.POLAR.0>
0

>  <SCORE.INTRA.REPUL>
0

>  <SCORE.INTRA.REPUL.0>
0

>  <SCORE.INTRA.SOLV>
-0.573235

>  <SCORE.INTRA.SOLV.lig_0>
-116.606

>  <SCORE.INTRA.VDW>
1.99198

>  <SCORE.INTRA.VDW.0>
-6.01229

>  <SCORE.INTRA.norm>
0.0291239

>  <SCORE.RESTR>
10.0469

>  <SCORE.RESTR.CAVITY>
10.0469

>  <SCORE.RESTR.norm>
0.239211

>  <SCORE.SYSTEM>
0

>  <SCORE.SYSTEM.CONST>
0

>  <SCORE.SYSTEM.DIHEDRAL>
0

>  <SCORE.SYSTEM.SOLV>
0

>  <SCORE.SYSTEM.norm>
0

>  <SCORE.heavy>
42

>  <SCORE.norm>
0.313291

>  <RMSD>
31.352

$$$$
2et4_lig
 OpenBabel11021811423D
libRbt.so/2013.1/901 2013/11/27
 42 45  0  0  0  0  0  0  0  0999 V2000
    0.1710   35.6553   16.8217 C   0  0  2  0  0  0  0  0  0  0  0  0
   -0.8209   35.3701   15.8334 O   0  0  0  0  0  0  0  0  0  0  0  0
   -0.5625   35.7862   18.1809 C   0  0  2  0  0  0  0  0  0  0  0  0
   -1.3034   34.5913   18.4951 N   0  0  0  0  0  0  0  0  0  0  0  0
   -1.4966   37.0301   18.1424 C   0  0  1  0  0  0  0  0  0  0  0  0
   -2.1424   37.1547   19.3709 O   0  0  0  0  0  0  0  0  0  0  0  0
   -0.6263   38.2851   17.7996 C   0  0  2  0  0  0  0  0  0  0  0  0
   -1.4374   39.4396   17.7470 O   0  0  0  0  0  0  0  0  0  0  0  0
    0.0982   38.1015   16.4317 C   0  0  2  0  0  0  0  0  0  0  0  0
    0.8971   36.9167   16.5001 O   0  0  0  0  0  0  0  0  0  0  0  0
    1.0109   39.3204   16.0758 C   0  0  0  0  0  0  0  0  0  0  0  0
    0.2740   40.5324   15.9789 N   0  0  0  0  0  0  0  0  0  0  0  0
   -1.8432   31.5717   14.0496 C   0  0  2  0  0  0  0  0  0  0  0  0
   -1.7786   30.3924   13.1774 N   0  0  0  0  0  0  0  0  0  0  0  0
   -1.9864   32.9096   13.1431 C   0  0  0  0  0  0  0  0  0  0  0  0
   -2.0410   34.1789   14.0881 C   0  0  2  0  0  0  0  0  0  0  0  0
   -2.1454   35.4221   13.3036 N   0  0  0  0  0  0  0  0  0  0  0  0
   -0.7497   34.2248   14.9730 C   0  0  2  0  0  0  0  0  0  0  0  0
   -0.6092   32.9166   15.8197 C   0  0  2  0  0  0  0  0  0  0  0  0
    0.6137   33.0520   16.5848 O   0  0  0  0  0  0  0  0  0  0  0  0
   -0.5489   31.6751   14.8729 C   0  0  1  0  0  0  0  0  0  0  0  0
   -0.4386   30.5310   15.6505 O   0  0  0  0  0  0  0  0  0  0  0  0
    0.7756   32.6836   17.8788 C   0  0  1  0  0  0  0  0  0  0  0  0
    1.7415   31.4758   17.9962 C   0  0  2  0  0  0  0  0  0  0  0  0
    1.1072   30.2449   17.8028 O   0  0  0  0  0  0  0  0  0  0  0  0
    2.3506   31.7779   19.3528 C   0  0  1  0  0  0  0  0  0  0  0  0
    2.5053   33.3029   19.4385 C   0  0  2  0  0  0  0  0  0  0  0  0
    1.3289   33.7135   18.7419 O   0  0  0  0  0  0  0  0  0  0  0  0
    3.8037   33.8876   18.7851 C   0  0  0  0  0  0  0  0  0  0  0  0
    4.2825   34.9530   19.6481 O   0  0  0  0  0  0  0  0  0  0  0  0
    0.0689   31.6281   20.2979 C   0  0  2  0  0  0  0  0  0  0  0  0
    1.4179   31.2590   20.3871 O   0  0  0  0  0  0  0  0  0  0  0  0
   -0.6943   31.3682   21.6689 C   0  0  1  0  0  0  0  0  0  0  0  0
   -2.4962   28.8211   17.9020 N   0  0  0  0  0  0  0  0  0  0  0  0
   -2.2353   31.8060   21.4444 C   0  0  1  0  0  0  0  0  0  0  0  0
   -2.2558   33.2659   21.0375 O   0  0  0  0  0  0  0  0  0  0  0  0
   -2.9062   30.8898   20.2882 C   0  0  2  0  0  0  0  0  0  0  0  0
   -2.8833   29.5031   20.7039 O   0  0  0  0  0  0  0  0  0  0  0  0
   -2.0752   31.1545   18.9101 C   0  0  1  0  0  0  0  0  0  0  0  0
   -0.6200   30.8507   19.1382 O   0  0  0  0  0  0  0  0  0  0  0  0
   -2.6183   30.2991   17.7123 C   0  0  0  0  0  0  0  0  0  0  0  0
   -0.5431   29.9324   22.0770 N   0  0  0  0  0  0  0  0  0  0  0  0
  1  2  1  6  0  0  0
  1  3  1  0  0  0  0
  1 10  1  0  0  0  0
  3  4  1  6  0  0  0
  3  5  1  0  0  0  0
  5  6  1  1  0  0  0
  5  7  1  0  0  0  0
  7  8  1  6  0  0  0
  7  9  1  0  0  0  0
  9 10  1  0  0  0  0
  9 11  1  1  0  0  0
 11 12  1  0  0  0  0
 13 14  1  6  0  0  0
 13 15  1  0  0  0  0
 13 21  1  0  0  0  0
 16 15  1  0  0  0  0
 16 17  1  6  0  0  0
 18  2  1  1  0  0  0
 18 16  1  0  0  0  0
 19 18  1  0  0  0  0
 19 20  1  6  0  0  0
 21 19  1  0  0  0  0
 21 22  1  1  0  0  0
 23 20  1  6  0  0  0
 23 24  1  0  0  0  0
 23 28  1  0  0  0  0
 24 25  1  1  0  0  0
 24 26  1  0  0  0  0
 26 27  1  0  0  0  0
 26 32  1  1  0  0  0
 27 28  1  0  0  0  0
 27 29  1  6  0  0  0
 29 30  1  0  0  0  0
 31 32  1  1  0  0  0
 31 40  1  0  0  0  0
 33 31  1  0  0  0  0
 33 42  1  6  0  0  0
 35 33  1  0  0  0  0
 35 36  1  6  0  0  0
 37 35  1  0  0  0  0
 37 38  1  1  0  0  0
 37 39  1  0  0  0  0
 39 40  1  0  0  0  0
 39 41  1  6  0  0  0
 41 34  1  0  0  0  0
M  END
>  <CHROM.1>
-124.68903095,-60.29408052,176.33229889,139.07876173,112.01042198,-50.90866633
-140.68458349,-163.12984666,-62.91466532,-0.39831302,33.52481558,17.74655580
-1.33802358,1.18365992,2.53759606

>  <Name>
2et4_lig

>  <RI>
0

>  <Rbt.Current_Directory>
/home/itssahil/PROJECTS/Mol_Feturizer/New_Systems/rnas/2et4

>  <Rbt.Executable>
rbdock ($Id: //depot/dev/client3/rdock/2013.1/src/exe/rbdock.cxx#4 $)

>  <Rbt.Library>
libRbt.so (2013.1, Build901 2013/11/27)

>  <Rbt.Parameter_File>
/export/apps/rDock/src/rDock_2013.1_src/data/scripts/dock_solv.prm

>  <Rbt.Receptor>
prm/blind_docking_80.prm

>  <SCORE>
38.011

>  <SCORE.INTER>
7.62857

>  <SCORE.INTER.CONST>
1

>  <SCORE.INTER.POLAR>
0

>  <SCORE.INTER.ROT>
9

>  <SCORE.INTER.SOLV>
28.8776

>  <SCORE.INTER.VDW>
-14.1402

>  <SCORE.INTER.norm>
0.181633

>  <SCORE.INTRA>
11.9937

>  <SCORE.INTRA.DIHEDRAL>
3.51308

>  <SCORE.INTRA.DIHEDRAL.0>
21.6909

>  <SCORE.INTRA.POLAR>
0

>  <SCORE.INTRA.POLAR.0>
0

>  <SCORE.INTRA.REPUL>
0.170674

>  <SCORE.INTRA.REPUL.0>
0

>  <SCORE.INTRA.SOLV>
6.12446

>  <SCORE.INTRA.SOLV.lig_0>
-116.606

>  <SCORE.INTRA.VDW>
6.3216

>  <SCORE.INTRA.VDW.0>
-6.01229

>  <SCORE.INTRA.norm>
0.285565

>  <SCORE.RESTR>
18.3887

>  <SCORE.RESTR.CAVITY>
18.3887

>  <SCORE.RESTR.norm>
0.437827

>  <SCORE.SYSTEM>
0

>  <SCORE.SYSTEM.CONST>
0

>  <SCORE.SYSTEM.DIHEDRAL>
0

>  <SCORE.SYSTEM.SOLV>
0

>  <SCORE.SYSTEM.norm>
0

>  <SCORE.heavy>
42

>  <SCORE.norm>
0.905024

>  <RMSD>
31.432

$$$$
2et4_lig
 OpenBabel11021811423D
libRbt.so/2013.1/901 2013/11/27
 42 45  0  0  0  0  0  0  0  0999 V2000
   -0.2248   36.0065   15.3700 C   0  0  2  0  0  0  0  0  0  0  0  0
   -1.5089   35.5005   14.9999 O   0  0  0  0  0  0  0  0  0  0  0  0
   -0.0274   35.6950   16.8756 C   0  0  2  0  0  0  0  0  0  0  0  0
   -0.1432   34.2834   17.1395 N   0  0  0  0  0  0  0  0  0  0  0  0
   -1.0619   36.5066   17.7076 C   0  0  1  0  0  0  0  0  0  0  0  0
   -0.8717   36.2372   19.0615 O   0  0  0  0  0  0  0  0  0  0  0  0
   -0.8763   38.0243   17.3729 C   0  0  2  0  0  0  0  0  0  0  0  0
   -1.8030   38.8002   18.1029 O   0  0  0  0  0  0  0  0  0  0  0  0
   -1.0737   38.2849   15.8487 C   0  0  2  0  0  0  0  0  0  0  0  0
   -0.1402   37.4748   15.1283 O   0  0  0  0  0  0  0  0  0  0  0  0
   -0.8545   39.7864   15.4707 C   0  0  0  0  0  0  0  0  0  0  0  0
    0.4341   40.2526   15.8493 N   0  0  0  0  0  0  0  0  0  0  0  0
   -3.8022   34.0834   11.6253 C   0  0  2  0  0  0  0  0  0  0  0  0
   -4.1751   33.7761   10.2389 N   0  0  0  0  0  0  0  0  0  0  0  0
   -3.5781   35.6824   11.7850 C   0  0  0  0  0  0  0  0  0  0  0  0
   -3.1621   36.0062   13.2781 C   0  0  2  0  0  0  0  0  0  0  0  0
   -2.9228   37.4485   13.4628 N   0  0  0  0  0  0  0  0  0  0  0  0
   -1.8640   35.2090   13.6412 C   0  0  2  0  0  0  0  0  0  0  0  0
   -2.0854   33.6714   13.4550 C   0  0  2  0  0  0  0  0  0  0  0  0
   -0.8320   33.0313   13.7993 O   0  0  0  0  0  0  0  0  0  0  0  0
   -2.4873   33.3680   11.9758 C   0  0  1  0  0  0  0  0  0  0  0  0
   -2.6903   32.0016   11.8442 O   0  0  0  0  0  0  0  0  0  0  0  0
   -0.5147   32.5300   15.0175 C   0  0  1  0  0  0  0  0  0  0  0  0
   -1.7860   32.0709   15.7781 C   0  0  2  0  0  0  0  0  0  0  0  0
   -2.4262   33.1128   16.4562 O   0  0  0  0  0  0  0  0  0  0  0  0
   -1.1927   30.9308   16.5849 C   0  0  1  0  0  0  0  0  0  0  0  0
   -0.1603   30.2408   15.6823 C   0  0  2  0  0  0  0  0  0  0  0  0
    0.3654   31.3739   14.9913 O   0  0  0  0  0  0  0  0  0  0  0  0
   -0.7359   29.1704   14.6936 C   0  0  0  0  0  0  0  0  0  0  0  0
    0.3308   28.8067   13.7777 O   0  0  0  0  0  0  0  0  0  0  0  0
   -0.4401   30.7097   18.9314 C   0  0  2  0  0  0  0  0  0  0  0  0
   -0.5618   31.5202   17.7946 O   0  0  0  0  0  0  0  0  0  0  0  0
   -1.5478   31.0640   20.0164 C   0  0  1  0  0  0  0  0  0  0  0  0
    3.1456   31.7321   21.2554 N   0  0  0  0  0  0  0  0  0  0  0  0
   -1.2992   30.0900   21.2838 C   0  0  1  0  0  0  0  0  0  0  0  0
   -1.3973   28.6561   20.8023 O   0  0  0  0  0  0  0  0  0  0  0  0
    0.1655   30.3722   21.9174 C   0  0  2  0  0  0  0  0  0  0  0  0
    0.2309   31.7433   22.3778 O   0  0  0  0  0  0  0  0  0  0  0  0
    1.2702   30.0345   20.7662 C   0  0  1  0  0  0  0  0  0  0  0  0
    0.9842   30.8599   19.5419 O   0  0  0  0  0  0  0  0  0  0  0  0
    2.7386   30.2934   21.2542 C   0  0  0  0  0  0  0  0  0  0  0  0
   -1.4743   32.5204   20.3691 N   0  0  0  0  0  0  0  0  0  0  0  0
  1  2  1  1  0  0  0
  1  3  1  0  0  0  0
  1 10  1  0  0  0  0
  3  4  1  6  0  0  0
  3  5  1  0  0  0  0
  5  6  1  1  0  0  0
  5  7  1  0  0  0  0
  7  8  1  1  0  0  0
  7  9  1  0  0  0  0
  9 10  1  0  0  0  0
  9 11  1  1  0  0  0
 11 12  1  0  0  0  0
 13 14  1  6  0  0  0
 13 15  1  0  0  0  0
 13 21  1  0  0  0  0
 16 15  1  0  0  0  0
 16 17  1  6  0  0  0
 18  2  1  1  0  0  0
 18 16  1  0  0  0  0
 19 18  1  0  0  0  0
 19 20  1  6  0  0  0
 21 19  1  0  0  0  0
 21 22  1  1  0  0  0
 23 20  1  6  0  0  0
 23 24  1  0  0  0  0
 23 28  1  0  0  0  0
 24 25  1  1  0  0  0
 24 26  1  0  0  0  0
 26 27  1  0  0  0  0
 26 32  1  1  0  0  0
 27 28  1  0  0  0  0
 27 29  1  6  0  0  0
 29 30  1  0  0  0  0
 31 32  1  6  0  0  0
 31 40  1  0  0  0  0
 33 31  1  0  0  0  0
 33 42  1  1  0  0  0
 35 33  1  0  0  0  0
 35 36  1  6  0  0  0
 37 35  1  0  0  0  0
 37 38  1  6  0  0  0
 37 39  1  0  0  0  0
 39 40  1  0  0  0  0
 39 41  1  1  0  0  0
 41 34  1  0  0  0  0
M  END
>  <CHROM.1>
-159.13927620,57.25812690,-124.47184701,94.33883784,28.33038643,154.22448436
170.18207991,-102.46326272,-78.15786702,-0.93999138,33.52748753,16.52212909
-2.53492823,1.24356711,-3.06258647

>  <Name>
2et4_lig

>  <RI>
0

>  <Rbt.Current_Directory>
/home/itssahil/PROJECTS/Mol_Feturizer/New_Systems/rnas/2et4

>  <Rbt.Executable>
rbdock ($Id: //depot/dev/client3/rdock/2013.1/src/exe/rbdock.cxx#4 $)

>  <Rbt.Library>
libRbt.so (2013.1, Build901 2013/11/27)

>  <Rbt.Parameter_File>
/export/apps/rDock/src/rDock_2013.1_src/data/scripts/dock_solv.prm

>  <Rbt.Receptor>
prm/blind_docking_60.prm

>  <SCORE>
61.541

>  <SCORE.INTER>
40.3469

>  <SCORE.INTER.CONST>
1

>  <SCORE.INTER.POLAR>
-0.243864

>  <SCORE.INTER.ROT>
9

>  <SCORE.INTER.SOLV>
32.7415

>  <SCORE.INTER.VDW>
7.19699

>  <SCORE.INTER.norm>
0.960641

>  <SCORE.INTRA>
11.6204

>  <SCORE.INTRA.DIHEDRAL>
5.8545

>  <SCORE.INTRA.DIHEDRAL.0>
21.6909

>  <SCORE.INTRA.POLAR>
0

>  <SCORE.INTRA.POLAR.0>
0

>  <SCORE.INTRA.REPUL>
1.00095

>  <SCORE.INTRA.REPUL.0>
0

>  <SCORE.INTRA.SOLV>
6.416

>  <SCORE.INTRA.SOLV.lig_0>
-116.606

>  <SCORE.INTRA.VDW>
0.480376

>  <SCORE.INTRA.VDW.0>
-6.01229

>  <SCORE.INTRA.norm>
0.276675

>  <SCORE.RESTR>
9.5737

>  <SCORE.RESTR.CAVITY>
9.5737

>  <SCORE.RESTR.norm>
0.227945

>  <SCORE.SYSTEM>
0

>  <SCORE.SYSTEM.CONST>
0

>  <SCORE.SYSTEM.DIHEDRAL>
0

>  <SCORE.SYSTEM.SOLV>
0

>  <SCORE.SYSTEM.norm>
0

>  <SCORE.heavy>
42

>  <SCORE.norm>
1.46526

>  <RMSD>
31.536

$$$$
2et4_lig
 OpenBabel11021811423D
libRbt.so/2013.1/901 2013/11/27
 42 45  0  0  0  0  0  0  0  0999 V2000
   -2.2083   33.4339   12.1816 C   0  0  2  0  0  0  0  0  0  0  0  0
   -3.4008   33.6185   12.9470 O   0  0  0  0  0  0  0  0  0  0  0  0
   -2.6429   33.1022   10.7312 C   0  0  2  0  0  0  0  0  0  0  0  0
   -3.4763   34.1412   10.1820 N   0  0  0  0  0  0  0  0  0  0  0  0
   -3.3763   31.7299   10.7162 C   0  0  1  0  0  0  0  0  0  0  0  0
   -3.7515   31.4267    9.4089 O   0  0  0  0  0  0  0  0  0  0  0  0
   -2.4140   30.6543   11.3219 C   0  0  2  0  0  0  0  0  0  0  0  0
   -3.0435   29.3906   11.3345 O   0  0  0  0  0  0  0  0  0  0  0  0
   -1.9974   31.0370   12.7744 C   0  0  2  0  0  0  0  0  0  0  0  0
   -1.3811   32.3276   12.7414 O   0  0  0  0  0  0  0  0  0  0  0  0
   -1.0017   30.0045   13.3972 C   0  0  0  0  0  0  0  0  0  0  0  0
    0.3547   30.3485   13.1464 N   0  0  0  0  0  0  0  0  0  0  0  0
   -4.1686   37.8596   13.2260 C   0  0  2  0  0  0  0  0  0  0  0  0
   -4.5421   39.1623   13.7910 N   0  0  0  0  0  0  0  0  0  0  0  0
   -5.4283   36.8423   13.3295 C   0  0  0  0  0  0  0  0  0  0  0  0
   -5.0153   35.4352   12.7321 C   0  0  2  0  0  0  0  0  0  0  0  0
   -6.1244   34.4698   12.8293 N   0  0  0  0  0  0  0  0  0  0  0  0
   -3.7719   34.8848   13.5090 C   0  0  2  0  0  0  0  0  0  0  0  0
   -2.5748   35.8886   13.4252 C   0  0  2  0  0  0  0  0  0  0  0  0
   -1.4895   35.2975   14.1814 O   0  0  0  0  0  0  0  0  0  0  0  0
   -2.9958   37.2685   14.0253 C   0  0  1  0  0  0  0  0  0  0  0  0
   -1.9211   38.1407   13.9248 O   0  0  0  0  0  0  0  0  0  0  0  0
   -1.5387   34.9592   15.4927 C   0  0  1  0  0  0  0  0  0  0  0  0
   -0.2647   34.1816   15.9143 C   0  0  2  0  0  0  0  0  0  0  0  0
   -0.3392   32.8135   15.6353 O   0  0  0  0  0  0  0  0  0  0  0  0
   -0.1714   34.6272   17.3619 C   0  0  1  0  0  0  0  0  0  0  0  0
   -0.6063   36.0990   17.4005 C   0  0  2  0  0  0  0  0  0  0  0  0
   -1.6338   36.0826   16.4096 O   0  0  0  0  0  0  0  0  0  0  0  0
    0.5124   37.1427   17.0630 C   0  0  0  0  0  0  0  0  0  0  0  0
   -0.0961   38.4607   17.1049 O   0  0  0  0  0  0  0  0  0  0  0  0
   -0.7385   32.4113   18.3050 C   0  0  2  0  0  0  0  0  0  0  0  0
   -1.0822   33.7617   18.1557 O   0  0  0  0  0  0  0  0  0  0  0  0
   -1.7296   31.6685   19.3029 C   0  0  1  0  0  0  0  0  0  0  0  0
    2.9943   31.9472   20.5743 N   0  0  0  0  0  0  0  0  0  0  0  0
   -1.2282   30.1347   19.4155 C   0  0  1  0  0  0  0  0  0  0  0  0
   -1.2447   29.5304   18.0256 O   0  0  0  0  0  0  0  0  0  0  0  0
    0.2699   30.0880   20.0319 C   0  0  2  0  0  0  0  0  0  0  0  0
    0.2577   30.6613   21.3613 O   0  0  0  0  0  0  0  0  0  0  0  0
    1.2481   30.8899   19.0024 C   0  0  1  0  0  0  0  0  0  0  0  0
    0.7298   32.2883   18.8078 O   0  0  0  0  0  0  0  0  0  0  0  0
    2.7337   30.9357   19.5045 C   0  0  0  0  0  0  0  0  0  0  0  0
   -1.7558   32.3785   20.6243 N   0  0  0  0  0  0  0  0  0  0  0  0
  1  2  1  1  0  0  0
  1  3  1  0  0  0  0
  1 10  1  0  0  0  0
  3  4  1  1  0  0  0
  3  5  1  0  0  0  0
  5  6  1  6  0  0  0
  5  7  1  0  0  0  0
  7  8  1  1  0  0  0
  7  9  1  0  0  0  0
  9 10  1  0  0  0  0
  9 11  1  6  0  0  0
 11 12  1  0  0  0  0
 13 14  1  1  0  0  0
 13 15  1  0  0  0  0
 13 21  1  0  0  0  0
 16 15  1  0  0  0  0
 16 17  1  1  0  0  0
 18  2  1  6  0  0  0
 18 16  1  0  0  0  0
 19 18  1  0  0  0  0
 19 20  1  1  0  0  0
 21 19  1  0  0  0  0
 21 22  1  6  0  0  0
 23 20  1  6  0  0  0
 23 24  1  0  0  0  0
 23 28  1  0  0  0  0
 24 25  1  1  0  0  0
 24 26  1  0  0  0  0
 26 27  1  0  0  0  0
 26 32  1  1  0  0  0
 27 28  1  0  0  0  0
 27 29  1  6  0  0  0
 29 30  1  0  0  0  0
 31 32  1  1  0  0  0
 31 40  1  0  0  0  0
 33 31  1  0  0  0  0
 33 42  1  1  0  0  0
 35 33  1  0  0  0  0
 35 36  1  6  0  0  0
 37 35  1  0  0  0  0
 37 38  1  1  0  0  0
 37 39  1  0  0  0  0
 39 40  1  0  0  0  0
 39 41  1  1  0  0  0
 41 34  1  0  0  0  0
M  END
>  <CHROM.1>
-113.74225431,90.45689109,109.70464375,-58.85769699,172.38044749,68.64627002
178.05287282,173.97298730,-78.22459607,-1.64981386,33.50696298,15.28083029
-3.11282846,-1.09960265,0.40007421

>  <Name>
2et4_lig

>  <RI>
0

>  <Rbt.Current_Directory>
/home/itssahil/PROJECTS/Mol_Feturizer/New_Systems/rnas/2et4

>  <Rbt.Executable>
rbdock ($Id: //depot/dev/client3/rdock/2013.1/src/exe/rbdock.cxx#4 $)

>  <Rbt.Library>
libRbt.so (2013.1, Build901 2013/11/27)

>  <Rbt.Parameter_File>
/export/apps/rDock/src/rDock_2013.1_src/data/scripts/dock_solv.prm

>  <Rbt.Receptor>
prm/blind_docking_60.prm

>  <SCORE>
-6.94376

>  <SCORE.INTER>
-16.4456

>  <SCORE.INTER.CONST>
1

>  <SCORE.INTER.POLAR>
-1.95342

>  <SCORE.INTER.ROT>
9

>  <SCORE.INTER.SOLV>
30.5009

>  <SCORE.INTER.VDW>
-24.2193

>  <SCORE.INTER.norm>
-0.391562

>  <SCORE.INTRA>
1.73663

>  <SCORE.INTRA.DIHEDRAL>
-3.1692

>  <SCORE.INTRA.DIHEDRAL.0>
21.6909

>  <SCORE.INTRA.POLAR>
0

>  <SCORE.INTRA.POLAR.0>
0

>  <SCORE.INTRA.REPUL>
0

>  <SCORE.INTRA.REPUL.0>
0

>  <SCORE.INTRA.SOLV>
1.2654

>  <SCORE.INTRA.SOLV.lig_0>
-116.606

>  <SCORE.INTRA.VDW>
2.68853

>  <SCORE.INTRA.VDW.0>
-6.01229

>  <SCORE.INTRA.norm>
0.0413483

>  <SCORE.RESTR>
7.76521

>  <SCORE.RESTR.CAVITY>
7.76521

>  <SCORE.RESTR.norm>
0.184886

>  <SCORE.SYSTEM>
0

>  <SCORE.SYSTEM.CONST>
0

>  <SCORE.SYSTEM.DIHEDRAL>
0

>  <SCORE.SYSTEM.SOLV>
0

>  <SCORE.SYSTEM.norm>
0

>  <SCORE.heavy>
42

>  <SCORE.norm>
-0.165328

>  <RMSD>
31.559

$$$$
2et4_lig
 OpenBabel11021811423D
libRbt.so/2013.1/901 2013/11/27
 42 45  0  0  0  0  0  0  0  0999 V2000
   -2.1812   33.4082   11.8934 C   0  0  2  0  0  0  0  0  0  0  0  0
   -3.1955   33.5345   12.8921 O   0  0  0  0  0  0  0  0  0  0  0  0
   -2.8994   33.1785   10.5391 C   0  0  2  0  0  0  0  0  0  0  0  0
   -3.8140   34.2510   10.2409 N   0  0  0  0  0  0  0  0  0  0  0  0
   -3.6360   31.8084   10.5747 C   0  0  1  0  0  0  0  0  0  0  0  0
   -4.2672   31.5970    9.3505 O   0  0  0  0  0  0  0  0  0  0  0  0
   -2.5843   30.6957   10.8998 C   0  0  2  0  0  0  0  0  0  0  0  0
   -3.2126   29.4322   10.9493 O   0  0  0  0  0  0  0  0  0  0  0  0
   -1.8829   30.9761   12.2634 C   0  0  2  0  0  0  0  0  0  0  0  0
   -1.2713   32.2678   12.1985 O   0  0  0  0  0  0  0  0  0  0  0  0
   -0.7946   29.9054   12.6016 C   0  0  0  0  0  0  0  0  0  0  0  0
    0.2491   30.4369   13.4074 N   0  0  0  0  0  0  0  0  0  0  0  0
   -4.0661   37.7620   13.0506 C   0  0  2  0  0  0  0  0  0  0  0  0
   -4.4905   39.0670   13.5725 N   0  0  0  0  0  0  0  0  0  0  0  0
   -5.3065   36.7188   13.1245 C   0  0  0  0  0  0  0  0  0  0  0  0
   -4.8390   35.3096   12.5740 C   0  0  2  0  0  0  0  0  0  0  0  0
   -5.9299   34.3216   12.6466 N   0  0  0  0  0  0  0  0  0  0  0  0
   -3.6167   34.8031   13.4118 C   0  0  2  0  0  0  0  0  0  0  0  0
   -2.4392   35.8318   13.3554 C   0  0  2  0  0  0  0  0  0  0  0  0
   -1.3731   35.2808   14.1670 O   0  0  0  0  0  0  0  0  0  0  0  0
   -2.9143   37.2137   13.9088 C   0  0  1  0  0  0  0  0  0  0  0  0
   -1.8556   38.1077   13.8334 O   0  0  0  0  0  0  0  0  0  0  0  0
   -1.4649   34.9789   15.4849 C   0  0  1  0  0  0  0  0  0  0  0  0
   -0.2026   34.2198   15.9705 C   0  0  2  0  0  0  0  0  0  0  0  0
   -0.2621   32.8441   15.7277 O   0  0  0  0  0  0  0  0  0  0  0  0
   -0.1597   34.7061   17.4073 C   0  0  1  0  0  0  0  0  0  0  0  0
   -0.6017   36.1762   17.3900 C   0  0  2  0  0  0  0  0  0  0  0  0
   -1.5953   36.1270   16.3663 O   0  0  0  0  0  0  0  0  0  0  0  0
    0.5233   37.2157   17.0610 C   0  0  0  0  0  0  0  0  0  0  0  0
   -0.0873   38.5334   17.0669 O   0  0  0  0  0  0  0  0  0  0  0  0
   -0.7033   32.5424   18.4771 C   0  0  2  0  0  0  0  0  0  0  0  0
   -1.0931   33.8585   18.1942 O   0  0  0  0  0  0  0  0  0  0  0  0
   -1.8421   31.7574   19.2624 C   0  0  1  0  0  0  0  0  0  0  0  0
    3.0451   30.0945   21.0516 N   0  0  0  0  0  0  0  0  0  0  0  0
   -1.2786   30.2692   19.5529 C   0  0  1  0  0  0  0  0  0  0  0  0
   -0.9421   29.6249   18.2229 O   0  0  0  0  0  0  0  0  0  0  0  0
    0.0423   30.3524   20.4883 C   0  0  2  0  0  0  0  0  0  0  0  0
   -0.3064   30.9620   21.7544 O   0  0  0  0  0  0  0  0  0  0  0  0
    1.1717   31.1945   19.6666 C   0  0  1  0  0  0  0  0  0  0  0  0
    0.6191   32.5441   19.2987 O   0  0  0  0  0  0  0  0  0  0  0  0
    2.5000   31.3656   20.4837 C   0  0  0  0  0  0  0  0  0  0  0  0
   -2.2116   32.5019   20.5114 N   0  0  0  0  0  0  0  0  0  0  0  0
  1  2  1  1  0  0  0
  1  3  1  0  0  0  0
  1 10  1  0  0  0  0
  3  4  1  1  0  0  0
  3  5  1  0  0  0  0
  5  6  1  6  0  0  0
  5  7  1  0  0  0  0
  7  8  1  1  0  0  0
  7  9  1  0  0  0  0
  9 10  1  0  0  0  0
  9 11  1  6  0  0  0
 11 12  1  0  0  0  0
 13 14  1  1  0  0  0
 13 15  1  0  0  0  0
 13 21  1  0  0  0  0
 16 15  1  0  0  0  0
 16 17  1  1  0  0  0
 18  2  1  6  0  0  0
 18 16  1  0  0  0  0
 19 18  1  0  0  0  0
 19 20  1  1  0  0  0
 21 19  1  0  0  0  0
 21 22  1  6  0  0  0
 23 20  1  6  0  0  0
 23 24  1  0  0  0  0
 23 28  1  0  0  0  0
 24 25  1  1  0  0  0
 24 26  1  0  0  0  0
 26 27  1  0  0  0  0
 26 32  1  1  0  0  0
 27 28  1  0  0  0  0
 27 29  1  6  0  0  0
 29 30  1  0  0  0  0
 31 32  1  1  0  0  0
 31 40  1  0  0  0  0
 33 31  1  0  0  0  0
 33 42  1  1  0  0  0
 35 33  1  0  0  0  0
 35 36  1  6  0  0  0
 37 35  1  0  0  0  0
 37 38  1  1  0  0  0
 37 39  1  0  0  0  0
 39 40  1  0  0  0  0
 39 41  1  1  0  0  0
 41 34  1  0  0  0  0
M  END
>  <CHROM.1>
-100.93160219,151.11374916,92.52905956,-59.47645808,171.68763054,73.27090296
178.95725248,-177.26459020,50.53398289,-1.67727484,33.51453334,15.27120746
-3.06940100,-1.13301173,0.38291583

>  <Name>
2et4_lig

>  <RI>
0

>  <Rbt.Current_Directory>
/home/itssahil/PROJECTS/Mol_Feturizer/New_Systems/rnas/2et4

>  <Rbt.Executable>
rbdock ($Id: //depot/dev/client3/rdock/2013.1/src/exe/rbdock.cxx#4 $)

>  <Rbt.Library>
libRbt.so (2013.1, Build901 2013/11/27)

>  <Rbt.Parameter_File>
/export/apps/rDock/src/rDock_2013.1_src/data/scripts/dock_solv.prm

>  <Rbt.Receptor>
prm/blind_docking_60.prm

>  <SCORE>
-2.68737

>  <SCORE.INTER>
-9.64902

>  <SCORE.INTER.CONST>
1

>  <SCORE.INTER.POLAR>
-1.61427

>  <SCORE.INTER.ROT>
9

>  <SCORE.INTER.SOLV>
35.5946

>  <SCORE.INTER.VDW>
-22.5167

>  <SCORE.INTER.norm>
-0.229739

>  <SCORE.INTRA>
-0.248897

>  <SCORE.INTRA.DIHEDRAL>
-7.88763

>  <SCORE.INTRA.DIHEDRAL.0>
21.6909

>  <SCORE.INTRA.POLAR>
0

>  <SCORE.INTRA.POLAR.0>
0

>  <SCORE.INTRA.REPUL>
0.0800847

>  <SCORE.INTRA.REPUL.0>
0

>  <SCORE.INTRA.SOLV>
1.28231

>  <SCORE.INTRA.SOLV.lig_0>
-116.606

>  <SCORE.INTRA.VDW>
2.65334

>  <SCORE.INTRA.VDW.0>
-6.01229

>  <SCORE.INTRA.norm>
-0.00592612

>  <SCORE.RESTR>
7.21055

>  <SCORE.RESTR.CAVITY>
7.21055

>  <SCORE.RESTR.norm>
0.17168

>  <SCORE.SYSTEM>
0

>  <SCORE.SYSTEM.CONST>
0

>  <SCORE.SYSTEM.DIHEDRAL>
0

>  <SCORE.SYSTEM.SOLV>
0

>  <SCORE.SYSTEM.norm>
0

>  <SCORE.heavy>
42

>  <SCORE.norm>
-0.0639849

>  <RMSD>
31.562

$$$$
2et4_lig
 OpenBabel11021811423D
libRbt.so/2013.1/901 2013/11/27
 42 45  0  0  0  0  0  0  0  0999 V2000
   -2.2002   33.4530   12.2122 C   0  0  2  0  0  0  0  0  0  0  0  0
   -3.3818   33.6502   12.9914 O   0  0  0  0  0  0  0  0  0  0  0  0
   -2.6551   33.1255   10.7671 C   0  0  2  0  0  0  0  0  0  0  0  0
   -3.4840   34.1729   10.2272 N   0  0  0  0  0  0  0  0  0  0  0  0
   -3.4029   31.7609   10.7611 C   0  0  1  0  0  0  0  0  0  0  0  0
   -3.7965   31.4612    9.4584 O   0  0  0  0  0  0  0  0  0  0  0  0
   -2.4448   30.6754   11.3560 C   0  0  2  0  0  0  0  0  0  0  0  0
   -3.0873   29.4183   11.3763 O   0  0  0  0  0  0  0  0  0  0  0  0
   -2.0075   31.0542   12.8035 C   0  0  2  0  0  0  0  0  0  0  0  0
   -1.3782   32.3383   12.7628 O   0  0  0  0  0  0  0  0  0  0  0  0
   -1.0154   30.0115   13.4150 C   0  0  0  0  0  0  0  0  0  0  0  0
    0.3365   30.2960   13.0794 N   0  0  0  0  0  0  0  0  0  0  0  0
   -4.1437   37.8980   13.1656 C   0  0  2  0  0  0  0  0  0  0  0  0
   -4.5200   39.2140   13.6969 N   0  0  0  0  0  0  0  0  0  0  0  0
   -5.4064   36.8856   13.2803 C   0  0  0  0  0  0  0  0  0  0  0  0
   -4.9905   35.4644   12.7193 C   0  0  2  0  0  0  0  0  0  0  0  0
   -6.1025   34.5034   12.8279 N   0  0  0  0  0  0  0  0  0  0  0  0
   -3.7558   34.9297   13.5205 C   0  0  2  0  0  0  0  0  0  0  0  0
   -2.5559   35.9292   13.4253 C   0  0  2  0  0  0  0  0  0  0  0  0
   -1.4790   35.3537   14.2053 O   0  0  0  0  0  0  0  0  0  0  0  0
   -2.9798   37.3232   13.9895 C   0  0  1  0  0  0  0  0  0  0  0  0
   -1.9025   38.1909   13.8794 O   0  0  0  0  0  0  0  0  0  0  0  0
   -1.5427   35.0422   15.5226 C   0  0  1  0  0  0  0  0  0  0  0  0
   -0.2899   34.2426   15.9659 C   0  0  2  0  0  0  0  0  0  0  0  0
   -0.3959   32.8716   15.7130 O   0  0  0  0  0  0  0  0  0  0  0  0
   -0.1928   34.7140   17.4050 C   0  0  1  0  0  0  0  0  0  0  0  0
   -0.5924   36.1962   17.4128 C   0  0  2  0  0  0  0  0  0  0  0  0
   -1.6152   36.1852   16.4171 O   0  0  0  0  0  0  0  0  0  0  0  0
    0.5527   37.2061   17.0612 C   0  0  0  0  0  0  0  0  0  0  0  0
    0.7633   37.1417   15.6257 O   0  0  0  0  0  0  0  0  0  0  0  0
   -0.8597   32.5152   18.3227 C   0  0  2  0  0  0  0  0  0  0  0  0
   -1.1280   33.8861   18.2106 O   0  0  0  0  0  0  0  0  0  0  0  0
   -1.9464   31.7845   19.2255 C   0  0  1  0  0  0  0  0  0  0  0  0
    2.5995   31.4737   21.0045 N   0  0  0  0  0  0  0  0  0  0  0  0
   -1.5274   30.2240   19.3028 C   0  0  1  0  0  0  0  0  0  0  0  0
   -1.4851   29.6770   17.8899 O   0  0  0  0  0  0  0  0  0  0  0  0
   -0.0752   30.0771   20.0070 C   0  0  2  0  0  0  0  0  0  0  0  0
   -0.1437   30.5971   21.3565 O   0  0  0  0  0  0  0  0  0  0  0  0
    1.0035   30.8688   19.0745 C   0  0  1  0  0  0  0  0  0  0  0  0
    0.5663   32.2982   18.9086 O   0  0  0  0  0  0  0  0  0  0  0  0
    2.4549   30.8193   19.6679 C   0  0  0  0  0  0  0  0  0  0  0  0
   -2.0218   32.4418   20.5720 N   0  0  0  0  0  0  0  0  0  0  0  0
  1  2  1  1  0  0  0
  1  3  1  0  0  0  0
  1 10  1  0  0  0  0
  3  4  1  1  0  0  0
  3  5  1  0  0  0  0
  5  6  1  6  0  0  0
  5  7  1  0  0  0  0
  7  8  1  1  0  0  0
  7  9  1  0  0  0  0
  9 10  1  0  0  0  0
  9 11  1  6  0  0  0
 11 12  1  0  0  0  0
 13 14  1  1  0  0  0
 13 15  1  0  0  0  0
 13 21  1  0  0  0  0
 16 15  1  0  0  0  0
 16 17  1  1  0  0  0
 18  2  1  6  0  0  0
 18 16  1  0  0  0  0
 19 18  1  0  0  0  0
 19 20  1  1  0  0  0
 21 19  1  0  0  0  0
 21 22  1  6  0  0  0
 23 20  1  6  0  0  0
 23 24  1  0  0  0  0
 23 28  1  0  0  0  0
 24 25  1  1  0  0  0
 24 26  1  0  0  0  0
 26 27  1  0  0  0  0
 26 32  1  1  0  0  0
 27 28  1  0  0  0  0
 27 29  1  6  0  0  0
 29 30  1  0  0  0  0
 31 32  1  1  0  0  0
 31 40  1  0  0  0  0
 33 31  1  0  0  0  0
 33 42  1  1  0  0  0
 35 33  1  0  0  0  0
 35 36  1  6  0  0  0
 37 35  1  0  0  0  0
 37 38  1  1  0  0  0
 37 39  1  0  0  0  0
 39 40  1  0  0  0  0
 39 41  1  1  0  0  0
 41 34  1  0  0  0  0
M  END
>  <CHROM.1>
-111.65430781,86.86121233,108.01991238,-58.66409547,170.96797782,64.98628250
75.56958252,179.49019038,-62.24732467,-1.69916853,33.49935239,15.25856273
3.10795647,-1.12850410,0.35133662

>  <Name>
2et4_lig

>  <RI>
0

>  <Rbt.Current_Directory>
/home/itssahil/PROJECTS/Mol_Feturizer/New_Systems/rnas/2et4

>  <Rbt.Executable>
rbdock ($Id: //depot/dev/client3/rdock/2013.1/src/exe/rbdock.cxx#4 $)

>  <Rbt.Library>
libRbt.so (2013.1, Build901 2013/11/27)

>  <Rbt.Parameter_File>
/export/apps/rDock/src/rDock_2013.1_src/data/scripts/dock_solv.prm

>  <Rbt.Receptor>
prm/blind_docking_60.prm

>  <SCORE>
-7.62277

>  <SCORE.INTER>
-16.993

>  <SCORE.INTER.CONST>
1

>  <SCORE.INTER.POLAR>
-2.02099

>  <SCORE.INTER.ROT>
9

>  <SCORE.INTER.SOLV>
31.0042

>  <SCORE.INTER.VDW>
-24.5267

>  <SCORE.INTER.norm>
-0.404595

>  <SCORE.INTRA>
1.54005

>  <SCORE.INTRA.DIHEDRAL>
-4.63135

>  <SCORE.INTRA.DIHEDRAL.0>
21.6909

>  <SCORE.INTRA.POLAR>
0

>  <SCORE.INTRA.POLAR.0>
0

>  <SCORE.INTRA.REPUL>
0

>  <SCORE.INTRA.REPUL.0>
0

>  <SCORE.INTRA.SOLV>
2.36381

>  <SCORE.INTRA.SOLV.lig_0>
-116.606

>  <SCORE.INTRA.VDW>
2.67382

>  <SCORE.INTRA.VDW.0>
-6.01229

>  <SCORE.INTRA.norm>
0.0366679

>  <SCORE.RESTR>
7.83018

>  <SCORE.RESTR.CAVITY>
7.83018

>  <SCORE.RESTR.norm>
0.186433

>  <SCORE.SYSTEM>
0

>  <SCORE.SYSTEM.CONST>
0

>  <SCORE.SYSTEM.DIHEDRAL>
0

>  <SCORE.SYSTEM.SOLV>
0

>  <SCORE.SYSTEM.norm>
0

>  <SCORE.heavy>
42

>  <SCORE.norm>
-0.181495

>  <RMSD>
31.565

$$$$
2et4_lig
 OpenBabel11021811423D
libRbt.so/2013.1/901 2013/11/27
 42 45  0  0  0  0  0  0  0  0999 V2000
   -3.4909   32.5264   12.4732 C   0  0  2  0  0  0  0  0  0  0  0  0
   -2.8279   33.7861   12.5987 O   0  0  0  0  0  0  0  0  0  0  0  0
   -2.3916   31.4351   12.4155 C   0  0  2  0  0  0  0  0  0  0  0  0
   -1.5444   31.4808   13.5799 N   0  0  0  0  0  0  0  0  0  0  0  0
   -1.5608   31.6119   11.1117 C   0  0  1  0  0  0  0  0  0  0  0  0
   -0.5838   30.6199   11.0544 O   0  0  0  0  0  0  0  0  0  0  0  0
   -2.5422   31.5491    9.8939 C   0  0  2  0  0  0  0  0  0  0  0  0
   -1.8295   31.7128    8.6861 O   0  0  0  0  0  0  0  0  0  0  0  0
   -3.6334   32.6569   10.0026 C   0  0  2  0  0  0  0  0  0  0  0  0
   -4.3286   32.4850   11.2411 O   0  0  0  0  0  0  0  0  0  0  0  0
   -4.6577   32.5981    8.8224 C   0  0  0  0  0  0  0  0  0  0  0  0
   -5.5550   31.5022    8.9448 N   0  0  0  0  0  0  0  0  0  0  0  0
   -4.1034   37.8314   13.4131 C   0  0  2  0  0  0  0  0  0  0  0  0
   -4.6903   38.9811   14.1127 N   0  0  0  0  0  0  0  0  0  0  0  0
   -5.2417   36.6989   13.1810 C   0  0  0  0  0  0  0  0  0  0  0  0
   -4.6000   35.4557   12.4394 C   0  0  2  0  0  0  0  0  0  0  0  0
   -5.5951   34.3891   12.2303 N   0  0  0  0  0  0  0  0  0  0  0  0
   -3.4079   34.9008   13.2901 C   0  0  2  0  0  0  0  0  0  0  0  0
   -2.3321   36.0110   13.5306 C   0  0  2  0  0  0  0  0  0  0  0  0
   -1.2887   35.4050   14.3326 O   0  0  0  0  0  0  0  0  0  0  0  0
   -2.9791   37.2262   14.2695 C   0  0  1  0  0  0  0  0  0  0  0  0
   -2.0069   38.1987   14.4563 O   0  0  0  0  0  0  0  0  0  0  0  0
   -1.4118   35.0312   15.6292 C   0  0  1  0  0  0  0  0  0  0  0  0
   -0.1478   34.2727   16.1114 C   0  0  2  0  0  0  0  0  0  0  0  0
   -0.1704   32.9111   15.7943 O   0  0  0  0  0  0  0  0  0  0  0  0
   -0.1567   34.6820   17.5726 C   0  0  1  0  0  0  0  0  0  0  0  0
   -0.6298   36.1417   17.6200 C   0  0  2  0  0  0  0  0  0  0  0  0
   -1.5923   36.1275   16.5659 O   0  0  0  0  0  0  0  0  0  0  0  0
    0.4814   37.2199   17.3802 C   0  0  0  0  0  0  0  0  0  0  0  0
    0.8714   37.1388   15.9837 O   0  0  0  0  0  0  0  0  0  0  0  0
   -0.7069   32.4393   18.4607 C   0  0  2  0  0  0  0  0  0  0  0  0
   -1.0936   33.7749   18.2852 O   0  0  0  0  0  0  0  0  0  0  0  0
   -1.8074   31.6187   19.2640 C   0  0  1  0  0  0  0  0  0  0  0  0
    3.5919   31.9939   19.5204 N   0  0  0  0  0  0  0  0  0  0  0  0
   -1.2494   30.1090   19.4256 C   0  0  1  0  0  0  0  0  0  0  0  0
   -1.0040   29.5465   18.0397 O   0  0  0  0  0  0  0  0  0  0  0  0
    0.1269   30.1183   20.2812 C   0  0  2  0  0  0  0  0  0  0  0  0
   -0.1351   30.6502   21.6021 O   0  0  0  0  0  0  0  0  0  0  0  0
    1.2167   30.9983   19.4459 C   0  0  1  0  0  0  0  0  0  0  0  0
    0.6629   32.3744   19.1978 O   0  0  0  0  0  0  0  0  0  0  0  0
    2.5946   31.1027   20.1888 C   0  0  0  0  0  0  0  0  0  0  0  0
   -2.0893   32.2865   20.5775 N   0  0  0  0  0  0  0  0  0  0  0  0
  1  2  1  6  0  0  0
  1  3  1  0  0  0  0
  1 10  1  0  0  0  0
  3  4  1  1  0  0  0
  3  5  1  0  0  0  0
  5  6  1  6  0  0  0
  5  7  1  0  0  0  0
  7  8  1  6  0  0  0
  7  9  1  0  0  0  0
  9 10  1  0  0  0  0
  9 11  1  6  0  0  0
 11 12  1  0  0  0  0
 13 14  1  1  0  0  0
 13 15  1  0  0  0  0
 13 21  1  0  0  0  0
 16 15  1  0  0  0  0
 16 17  1  1  0  0  0
 18  2  1  6  0  0  0
 18 16  1  0  0  0  0
 19 18  1  0  0  0  0
 19 20  1  1  0  0  0
 21 19  1  0  0  0  0
 21 22  1  6  0  0  0
 23 20  1  6  0  0  0
 23 24  1  0  0  0  0
 23 28  1  0  0  0  0
 24 25  1  1  0  0  0
 24 26  1  0  0  0  0
 26 27  1  0  0  0  0
 26 32  1  1  0  0  0
 27 28  1  0  0  0  0
 27 29  1  6  0  0  0
 29 30  1  0  0  0  0
 31 32  1  1  0  0  0
 31 40  1  0  0  0  0
 33 31  1  0  0  0  0
 33 42  1  1  0  0  0
 35 33  1  0  0  0  0
 35 36  1  6  0  0  0
 37 35  1  0  0  0  0
 37 38  1  1  0  0  0
 37 39  1  0  0  0  0
 39 40  1  0  0  0  0
 39 41  1  1  0  0  0
 41 34  1  0  0  0  0
M  END
>  <CHROM.1>
-149.46326695,73.51717649,-70.81384487,-69.36151128,173.48464699,70.68474159
69.99650032,178.87167326,-175.11949499,-1.72889180,33.55850233,15.07792501
-2.93388391,-1.11678705,0.42256818

>  <Name>
2et4_lig

>  <RI>
0

>  <Rbt.Current_Directory>
/home/itssahil/PROJECTS/Mol_Feturizer/New_Systems/rnas/2et4

>  <Rbt.Executable>
rbdock ($Id: //depot/dev/client3/rdock/2013.1/src/exe/rbdock.cxx#4 $)

>  <Rbt.Library>
libRbt.so (2013.1, Build901 2013/11/27)

>  <Rbt.Parameter_File>
/export/apps/rDock/src/rDock_2013.1_src/data/scripts/dock_solv.prm

>  <Rbt.Receptor>
prm/blind_docking_60.prm

>  <SCORE>
-11.4612

>  <SCORE.INTER>
-14.5795

>  <SCORE.INTER.CONST>
1

>  <SCORE.INTER.POLAR>
-0.19879

>  <SCORE.INTER.ROT>
9

>  <SCORE.INTER.SOLV>
30.5969

>  <SCORE.INTER.VDW>
-28.856

>  <SCORE.INTER.norm>
-0.347131

>  <SCORE.INTRA>
-2.60436

>  <SCORE.INTRA.DIHEDRAL>
-15.0336

>  <SCORE.INTRA.DIHEDRAL.0>
21.6909

>  <SCORE.INTRA.POLAR>
0

>  <SCORE.INTRA.POLAR.0>
0

>  <SCORE.INTRA.REPUL>
0.338664

>  <SCORE.INTRA.REPUL.0>
0

>  <SCORE.INTRA.SOLV>
1.71287

>  <SCORE.INTRA.SOLV.lig_0>
-116.606

>  <SCORE.INTRA.VDW>
2.3627

>  <SCORE.INTRA.VDW.0>
-6.01229

>  <SCORE.INTRA.norm>
-0.0620087

>  <SCORE.RESTR>
5.72273

>  <SCORE.RESTR.CAVITY>
5.72273

>  <SCORE.RESTR.norm>
0.136255

>  <SCORE.SYSTEM>
0

>  <SCORE.SYSTEM.CONST>
0

>  <SCORE.SYSTEM.DIHEDRAL>
0

>  <SCORE.SYSTEM.SOLV>
0

>  <SCORE.SYSTEM.norm>
0

>  <SCORE.heavy>
42

>  <SCORE.norm>
-0.272885

>  <RMSD>
31.581

$$$$
2et4_lig
 OpenBabel11021811423D
libRbt.so/2013.1/901 2013/11/27
 42 45  0  0  0  0  0  0  0  0999 V2000
   -2.1845   33.4994   12.3562 C   0  0  2  0  0  0  0  0  0  0  0  0
   -3.4077   33.6184   13.0854 O   0  0  0  0  0  0  0  0  0  0  0  0
   -2.5591   33.2599   10.8713 C   0  0  2  0  0  0  0  0  0  0  0  0
   -3.3862   34.3231   10.3601 N   0  0  0  0  0  0  0  0  0  0  0  0
   -3.2714   31.8830   10.7373 C   0  0  1  0  0  0  0  0  0  0  0  0
   -3.5926   31.6630    9.3993 O   0  0  0  0  0  0  0  0  0  0  0  0
   -2.3172   30.7810   11.3074 C   0  0  2  0  0  0  0  0  0  0  0  0
   -2.9284   29.5118   11.2121 O   0  0  0  0  0  0  0  0  0  0  0  0
   -1.9615   31.0711   12.7971 C   0  0  2  0  0  0  0  0  0  0  0  0
   -1.3631   32.3683   12.8733 O   0  0  0  0  0  0  0  0  0  0  0  0
   -0.9752   30.0113   13.3883 C   0  0  0  0  0  0  0  0  0  0  0  0
    0.3785   30.2968   13.0611 N   0  0  0  0  0  0  0  0  0  0  0  0
   -4.4433   37.7964   13.4405 C   0  0  2  0  0  0  0  0  0  0  0  0
   -4.8811   39.0662   14.0334 N   0  0  0  0  0  0  0  0  0  0  0  0
   -5.6284   36.6968   13.5774 C   0  0  0  0  0  0  0  0  0  0  0  0
   -5.1455   35.3257   12.9495 C   0  0  2  0  0  0  0  0  0  0  0  0
   -6.1841   34.2879   13.0753 N   0  0  0  0  0  0  0  0  0  0  0  0
   -3.8408   34.8520   13.6748 C   0  0  2  0  0  0  0  0  0  0  0  0
   -2.7165   35.9339   13.5597 C   0  0  2  0  0  0  0  0  0  0  0  0
   -1.5676   35.4094   14.2697 O   0  0  0  0  0  0  0  0  0  0  0  0
   -3.2056   37.2773   14.1903 C   0  0  1  0  0  0  0  0  0  0  0  0
   -2.1953   38.2198   14.0614 O   0  0  0  0  0  0  0  0  0  0  0  0
   -1.5376   35.0861   15.5853 C   0  0  1  0  0  0  0  0  0  0  0  0
   -0.0971   34.7313   16.0377 C   0  0  2  0  0  0  0  0  0  0  0  0
    0.2475   33.4011   15.7793 O   0  0  0  0  0  0  0  0  0  0  0  0
   -0.1688   35.1999   17.4792 C   0  0  1  0  0  0  0  0  0  0  0  0
   -1.0258   36.4736   17.4881 C   0  0  2  0  0  0  0  0  0  0  0  0
   -1.9823   36.1389   16.4828 O   0  0  0  0  0  0  0  0  0  0  0  0
   -0.2656   37.8013   17.1505 C   0  0  0  0  0  0  0  0  0  0  0  0
    0.4135   37.6028   15.8823 O   0  0  0  0  0  0  0  0  0  0  0  0
   -0.1818   32.8484   18.2484 C   0  0  2  0  0  0  0  0  0  0  0  0
   -0.7927   34.1095   18.2732 O   0  0  0  0  0  0  0  0  0  0  0  0
   -1.2479   31.6934   18.0049 C   0  0  1  0  0  0  0  0  0  0  0  0
    1.1210   30.9830   22.2453 N   0  0  0  0  0  0  0  0  0  0  0  0
   -0.4403   30.2919   18.0176 C   0  0  1  0  0  0  0  0  0  0  0  0
    0.6142   30.3460   16.9300 O   0  0  0  0  0  0  0  0  0  0  0  0
    0.2544   30.0686   19.4646 C   0  0  2  0  0  0  0  0  0  0  0  0
   -0.7723   30.0111   20.4838 O   0  0  0  0  0  0  0  0  0  0  0  0
    1.3108   31.2898   19.6942 C   0  0  1  0  0  0  0  0  0  0  0  0
    0.5880   32.6037   19.5793 O   0  0  0  0  0  0  0  0  0  0  0  0
    2.0358   31.1983   21.0824 C   0  0  0  0  0  0  0  0  0  0  0  0
   -2.3261   31.7616   19.0459 N   0  0  0  0  0  0  0  0  0  0  0  0
  1  2  1  1  0  0  0
  1  3  1  0  0  0  0
  1 10  1  0  0  0  0
  3  4  1  1  0  0  0
  3  5  1  0  0  0  0
  5  6  1  6  0  0  0
  5  7  1  0  0  0  0
  7  8  1  1  0  0  0
  7  9  1  0  0  0  0
  9 10  1  0  0  0  0
  9 11  1  6  0  0  0
 11 12  1  0  0  0  0
 13 14  1  1  0  0  0
 13 15  1  0  0  0  0
 13 21  1  0  0  0  0
 16 15  1  0  0  0  0
 16 17  1  1  0  0  0
 18  2  1  6  0  0  0
 18 16  1  0  0  0  0
 19 18  1  0  0  0  0
 19 20  1  1  0  0  0
 21 19  1  0  0  0  0
 21 22  1  6  0  0  0
 23 20  1  6  0  0  0
 23 24  1  0  0  0  0
 23 28  1  0  0  0  0
 24 25  1  1  0  0  0
 24 26  1  0  0  0  0
 26 27  1  0  0  0  0
 26 32  1  1  0  0  0
 27 28  1  0  0  0  0
 27 29  1  6  0  0  0
 29 30  1  0  0  0  0
 31 32  1  1  0  0  0
 31 40  1  0  0  0  0
 33 31  1  0  0  0  0
 33 42  1  1  0  0  0
 35 33  1  0  0  0  0
 35 36  1  6  0  0  0
 37 35  1  0  0  0  0
 37 38  1  1  0  0  0
 37 39  1  0  0  0  0
 39 40  1  0  0  0  0
 39 41  1  1  0  0  0
 41 34  1  0  0  0  0
M  END
>  <CHROM.1>
-111.47512148,82.73145086,114.32627101,-60.49375948,-172.67032731,57.25032991
53.80205487,-133.06638526,-49.03510843,-1.68328077,33.58285178,15.27403580
-3.04325904,-1.09692872,0.50121596

>  <Name>
2et4_lig

>  <RI>
0

>  <Rbt.Current_Directory>
/home/itssahil/PROJECTS/Mol_Feturizer/New_Systems/rnas/2et4

>  <Rbt.Executable>
rbdock ($Id: //depot/dev/client3/rdock/2013.1/src/exe/rbdock.cxx#4 $)

>  <Rbt.Library>
libRbt.so (2013.1, Build901 2013/11/27)

>  <Rbt.Parameter_File>
/export/apps/rDock/src/rDock_2013.1_src/data/scripts/dock_solv.prm

>  <Rbt.Receptor>
prm/blind_docking_60.prm

>  <SCORE>
1.11682

>  <SCORE.INTER>
-13.0208

>  <SCORE.INTER.CONST>
1

>  <SCORE.INTER.POLAR>
-2.74334

>  <SCORE.INTER.ROT>
9

>  <SCORE.INTER.SOLV>
31.5841

>  <SCORE.INTER.VDW>
-19.6641

>  <SCORE.INTER.norm>
-0.31002

>  <SCORE.INTRA>
5.52926

>  <SCORE.INTRA.DIHEDRAL>
1.22352

>  <SCORE.INTRA.DIHEDRAL.0>
21.6909

>  <SCORE.INTRA.POLAR>
0

>  <SCORE.INTRA.POLAR.0>
0

>  <SCORE.INTRA.REPUL>
0

>  <SCORE.INTRA.REPUL.0>
0

>  <SCORE.INTRA.SOLV>
2.31076

>  <SCORE.INTRA.SOLV.lig_0>
-116.606

>  <SCORE.INTRA.VDW>
3.76212

>  <SCORE.INTRA.VDW.0>
-6.01229

>  <SCORE.INTRA.norm>
0.131649

>  <SCORE.RESTR>
8.6084

>  <SCORE.RESTR.CAVITY>
8.6084

>  <SCORE.RESTR.norm>
0.204962

>  <SCORE.SYSTEM>
0

>  <SCORE.SYSTEM.CONST>
0

>  <SCORE.SYSTEM.DIHEDRAL>
0

>  <SCORE.SYSTEM.SOLV>
0

>  <SCORE.SYSTEM.norm>
0

>  <SCORE.heavy>
42

>  <SCORE.norm>
0.0265909

>  <RMSD>
31.645

$$$$
2et4_lig
 OpenBabel11021811423D
libRbt.so/2013.1/901 2013/11/27
 42 45  0  0  0  0  0  0  0  0999 V2000
   -2.1744   33.5289   12.3689 C   0  0  2  0  0  0  0  0  0  0  0  0
   -3.3737   33.6918   13.1287 O   0  0  0  0  0  0  0  0  0  0  0  0
   -2.5953   33.2855   10.8971 C   0  0  2  0  0  0  0  0  0  0  0  0
   -3.4038   34.3677   10.3962 N   0  0  0  0  0  0  0  0  0  0  0  0
   -3.3514   31.9292   10.7970 C   0  0  1  0  0  0  0  0  0  0  0  0
   -3.7144   31.7053    9.4704 O   0  0  0  0  0  0  0  0  0  0  0  0
   -2.4154   30.8051   11.3539 C   0  0  2  0  0  0  0  0  0  0  0  0
   -3.0662   29.5538   11.2886 O   0  0  0  0  0  0  0  0  0  0  0  0
   -2.0117   31.0996   12.8304 C   0  0  2  0  0  0  0  0  0  0  0  0
   -1.3734   32.3791   12.8766 O   0  0  0  0  0  0  0  0  0  0  0  0
   -1.0418   30.0169   13.4072 C   0  0  0  0  0  0  0  0  0  0  0  0
    0.3207   30.3163   13.1330 N   0  0  0  0  0  0  0  0  0  0  0  0
   -4.2617   37.9084   13.4217 C   0  0  2  0  0  0  0  0  0  0  0  0
   -4.6553   39.2013   13.9954 N   0  0  0  0  0  0  0  0  0  0  0  0
   -5.4850   36.8534   13.5717 C   0  0  0  0  0  0  0  0  0  0  0  0
   -5.0498   35.4573   12.9645 C   0  0  2  0  0  0  0  0  0  0  0  0
   -6.1246   34.4587   13.1029 N   0  0  0  0  0  0  0  0  0  0  0  0
   -3.7640   34.9483   13.6995 C   0  0  2  0  0  0  0  0  0  0  0  0
   -2.6019   35.9881   13.5713 C   0  0  2  0  0  0  0  0  0  0  0  0
   -1.4735   35.4336   14.2912 O   0  0  0  0  0  0  0  0  0  0  0  0
   -3.0443   37.3568   14.1815 C   0  0  1  0  0  0  0  0  0  0  0  0
   -2.0011   38.2611   14.0413 O   0  0  0  0  0  0  0  0  0  0  0  0
   -1.4694   35.0916   15.6024 C   0  0  1  0  0  0  0  0  0  0  0  0
   -0.0466   34.6844   16.0662 C   0  0  2  0  0  0  0  0  0  0  0  0
    0.2582   33.3474   15.7932 O   0  0  0  0  0  0  0  0  0  0  0  0
   -0.1203   35.1354   17.5133 C   0  0  1  0  0  0  0  0  0  0  0  0
   -0.9361   36.4358   17.5302 C   0  0  2  0  0  0  0  0  0  0  0  0
   -1.8909   36.1458   16.5094 O   0  0  0  0  0  0  0  0  0  0  0  0
   -0.1298   37.7428   17.2200 C   0  0  0  0  0  0  0  0  0  0  0  0
    0.3401   37.6485   15.8491 O   0  0  0  0  0  0  0  0  0  0  0  0
   -0.1986   32.7835   18.2775 C   0  0  2  0  0  0  0  0  0  0  0  0
   -0.7882   34.0549   18.2848 O   0  0  0  0  0  0  0  0  0  0  0  0
   -1.2760   31.6473   17.9983 C   0  0  1  0  0  0  0  0  0  0  0  0
    0.9408   30.9357   22.3157 N   0  0  0  0  0  0  0  0  0  0  0  0
   -0.4934   30.2321   18.0346 C   0  0  1  0  0  0  0  0  0  0  0  0
    0.5961   30.2691   16.9814 O   0  0  0  0  0  0  0  0  0  0  0  0
    0.1508   29.9954   19.5027 C   0  0  2  0  0  0  0  0  0  0  0  0
   -0.9088   29.9545   20.4885 O   0  0  0  0  0  0  0  0  0  0  0  0
    1.2200   31.1980   19.7678 C   0  0  1  0  0  0  0  0  0  0  0  0
    0.5239   32.5243   19.6320 O   0  0  0  0  0  0  0  0  0  0  0  0
    1.8986   31.0927   21.1784 C   0  0  0  0  0  0  0  0  0  0  0  0
   -2.3856   31.7329   19.0044 N   0  0  0  0  0  0  0  0  0  0  0  0
  1  2  1  1  0  0  0
  1  3  1  0  0  0  0
  1 10  1  0  0  0  0
  3  4  1  1  0  0  0
  3  5  1  0  0  0  0
  5  6  1  6  0  0  0
  5  7  1  0  0  0  0
  7  8  1  1  0  0  0
  7  9  1  0  0  0  0
  9 10  1  0  0  0  0
  9 11  1  6  0  0  0
 11 12  1  0  0  0  0
 13 14  1  1  0  0  0
 13 15  1  0  0  0  0
 13 21  1  0  0  0  0
 16 15  1  0  0  0  0
 16 17  1  1  0  0  0
 18  2  1  6  0  0  0
 18 16  1  0  0  0  0
 19 18  1  0  0  0  0
 19 20  1  1  0  0  0
 21 19  1  0  0  0  0
 21 22  1  6  0  0  0
 23 20  1  6  0  0  0
 23 24  1  0  0  0  0
 23 28  1  0  0  0  0
 24 25  1  1  0  0  0
 24 26  1  0  0  0  0
 26 27  1  0  0  0  0
 26 32  1  1  0  0  0
 27 28  1  0  0  0  0
 27 29  1  6  0  0  0
 29 30  1  0  0  0  0
 31 32  1  1  0  0  0
 31 40  1  0  0  0  0
 33 31  1  0  0  0  0
 33 42  1  1  0  0  0
 35 33  1  0  0  0  0
 35 36  1  6  0  0  0
 37 35  1  0  0  0  0
 37 38  1  1  0  0  0
 37 39  1  0  0  0  0
 39 40  1  0  0  0  0
 39 41  1  1  0  0  0
 41 34  1  0  0  0  0
M  END
>  <CHROM.1>
-110.55143824,87.47147445,112.34851250,-58.42543378,-173.53576957,58.87743097
64.81700437,-133.09389478,-50.88534029,-1.67834947,33.59203280,15.30028322
-3.12538961,-1.11645155,0.43373671

>  <Name>
2et4_lig

>  <RI>
0

>  <Rbt.Current_Directory>
/home/itssahil/PROJECTS/Mol_Feturizer/New_Systems/rnas/2et4

>  <Rbt.Executable>
rbdock ($Id: //depot/dev/client3/rdock/2013.1/src/exe/rbdock.cxx#4 $)

>  <Rbt.Library>
libRbt.so (2013.1, Build901 2013/11/27)

>  <Rbt.Parameter_File>
/export/apps/rDock/src/rDock_2013.1_src/data/scripts/dock_solv.prm

>  <Rbt.Receptor>
prm/blind_docking_60.prm

>  <SCORE>
1.4355

>  <SCORE.INTER>
-12.318

>  <SCORE.INTER.CONST>
1

>  <SCORE.INTER.POLAR>
-2.62427

>  <SCORE.INTER.ROT>
9

>  <SCORE.INTER.SOLV>
32.3823

>  <SCORE.INTER.VDW>
-19.8585

>  <SCORE.INTER.norm>
-0.293285

>  <SCORE.INTRA>
5.27348

>  <SCORE.INTRA.DIHEDRAL>
1.36796

>  <SCORE.INTRA.DIHEDRAL.0>
21.6909

>  <SCORE.INTRA.POLAR>
0

>  <SCORE.INTRA.POLAR.0>
0

>  <SCORE.INTRA.REPUL>
0

>  <SCORE.INTRA.REPUL.0>
0

>  <SCORE.INTRA.SOLV>
2.5712

>  <SCORE.INTRA.SOLV.lig_0>
-116.606

>  <SCORE.INTRA.VDW>
3.3039

>  <SCORE.INTRA.VDW.0>
-6.01229

>  <SCORE.INTRA.norm>
0.125559

>  <SCORE.RESTR>
8.47997

>  <SCORE.RESTR.CAVITY>
8.47997

>  <SCORE.RESTR.norm>
0.201904

>  <SCORE.SYSTEM>
0

>  <SCORE.SYSTEM.CONST>
0

>  <SCORE.SYSTEM.DIHEDRAL>
0

>  <SCORE.SYSTEM.SOLV>
0

>  <SCORE.SYSTEM.norm>
0

>  <SCORE.heavy>
42

>  <SCORE.norm>
0.0341785

>  <RMSD>
31.649

$$$$
2et4_lig
 OpenBabel11021811423D
libRbt.so/2013.1/901 2013/11/27
 42 45  0  0  0  0  0  0  0  0999 V2000
   -2.2766   33.4960   11.9902 C   0  0  2  0  0  0  0  0  0  0  0  0
   -3.4674   33.6763   12.7595 O   0  0  0  0  0  0  0  0  0  0  0  0
   -2.7145   33.1235   10.5507 C   0  0  2  0  0  0  0  0  0  0  0  0
   -3.5704   34.1343    9.9839 N   0  0  0  0  0  0  0  0  0  0  0  0
   -3.4226   31.7381   10.5720 C   0  0  1  0  0  0  0  0  0  0  0  0
   -3.8007   31.3983    9.2746 O   0  0  0  0  0  0  0  0  0  0  0  0
   -2.4368   30.6942   11.1953 C   0  0  2  0  0  0  0  0  0  0  0  0
   -3.0429   29.4199   11.2409 O   0  0  0  0  0  0  0  0  0  0  0  0
   -2.0179   31.1175   12.6359 C   0  0  2  0  0  0  0  0  0  0  0  0
   -1.4256   32.4181   12.5693 O   0  0  0  0  0  0  0  0  0  0  0  0
   -0.9994   30.1178   13.2750 C   0  0  0  0  0  0  0  0  0  0  0  0
    0.3426   30.5734   13.1622 N   0  0  0  0  0  0  0  0  0  0  0  0
   -4.1572   37.9086   13.2756 C   0  0  2  0  0  0  0  0  0  0  0  0
   -4.4883   39.1867   13.9178 N   0  0  0  0  0  0  0  0  0  0  0  0
   -5.4278   36.9049   13.3780 C   0  0  0  0  0  0  0  0  0  0  0  0
   -5.0601   35.5236   12.6968 C   0  0  2  0  0  0  0  0  0  0  0  0
   -6.1798   34.5700   12.7895 N   0  0  0  0  0  0  0  0  0  0  0  0
   -3.7968   34.9182   13.3968 C   0  0  2  0  0  0  0  0  0  0  0  0
   -2.5881   35.9083   13.3159 C   0  0  2  0  0  0  0  0  0  0  0  0
   -1.4842   35.2655   13.9995 O   0  0  0  0  0  0  0  0  0  0  0  0
   -2.9642   37.2624   13.9987 C   0  0  1  0  0  0  0  0  0  0  0  0
   -1.8806   38.1236   13.8995 O   0  0  0  0  0  0  0  0  0  0  0  0
   -1.5456   34.6949   15.2271 C   0  0  1  0  0  0  0  0  0  0  0  0
   -0.2601   33.8804   15.5264 C   0  0  2  0  0  0  0  0  0  0  0  0
   -0.2975   32.5841   15.0039 O   0  0  0  0  0  0  0  0  0  0  0  0
   -0.1999   34.0590   17.0321 C   0  0  1  0  0  0  0  0  0  0  0  0
   -0.6704   35.4902   17.3269 C   0  0  2  0  0  0  0  0  0  0  0  0
   -1.6817   35.6319   16.3295 O   0  0  0  0  0  0  0  0  0  0  0  0
    0.4280   36.6008   17.2051 C   0  0  0  0  0  0  0  0  0  0  0  0
   -0.1554   37.8430   17.6799 O   0  0  0  0  0  0  0  0  0  0  0  0
   -0.7502   32.5198   18.8894 C   0  0  2  0  0  0  0  0  0  0  0  0
   -1.1019   33.0456   17.6389 O   0  0  0  0  0  0  0  0  0  0  0  0
   -0.2021   31.0325   18.7588 C   0  0  1  0  0  0  0  0  0  0  0  0
   -4.2364   31.4343   21.4941 N   0  0  0  0  0  0  0  0  0  0  0  0
    0.1490   30.5232   20.2535 C   0  0  1  0  0  0  0  0  0  0  0  0
    1.1751   31.4692   20.8447 O   0  0  0  0  0  0  0  0  0  0  0  0
   -1.1935   30.5101   21.1612 C   0  0  2  0  0  0  0  0  0  0  0  0
   -2.1530   29.5936   20.5821 O   0  0  0  0  0  0  0  0  0  0  0  0
   -1.7457   32.0426   21.2408 C   0  0  1  0  0  0  0  0  0  0  0  0
   -1.9756   32.5636   19.8488 O   0  0  0  0  0  0  0  0  0  0  0  0
   -3.0664   32.1581   22.0796 C   0  0  0  0  0  0  0  0  0  0  0  0
   -1.2154   30.1705   18.0653 N   0  0  0  0  0  0  0  0  0  0  0  0
  1  2  1  1  0  0  0
  1  3  1  0  0  0  0
  1 10  1  0  0  0  0
  3  4  1  1  0  0  0
  3  5  1  0  0  0  0
  5  6  1  6  0  0  0
  5  7  1  0  0  0  0
  7  8  1  1  0  0  0
  7  9  1  0  0  0  0
  9 10  1  0  0  0  0
  9 11  1  6  0  0  0
 11 12  1  0  0  0  0
 13 14  1  1  0  0  0
 13 15  1  0  0  0  0
 13 21  1  0  0  0  0
 16 15  1  0  0  0  0
 16 17  1  1  0  0  0
 18  2  1  6  0  0  0
 18 16  1  0  0  0  0
 19 18  1  0  0  0  0
 19 20  1  1  0  0  0
 21 19  1  0  0  0  0
 21 22  1  6  0  0  0
 23 20  1  6  0  0  0
 23 24  1  0  0  0  0
 23 28  1  0  0  0  0
 24 25  1  1  0  0  0
 24 26  1  0  0  0  0
 26 27  1  0  0  0  0
 26 32  1  1  0  0  0
 27 28  1  0  0  0  0
 27 29  1  6  0  0  0
 29 30  1  0  0  0  0
 31 32  1  6  0  0  0
 31 40  1  0  0  0  0
 33 31  1  0  0  0  0
 33 42  1  1  0  0  0
 35 33  1  0  0  0  0
 35 36  1  1  0  0  0
 37 35  1  0  0  0  0
 37 38  1  6  0  0  0
 37 39  1  0  0  0  0
 39 40  1  0  0  0  0
 39 41  1  1  0  0  0
 41 34  1  0  0  0  0
M  END
>  <CHROM.1>
-119.55477772,98.33060319,112.63528132,-48.99597438,169.43648323,147.45621794
-172.91873564,-105.83692283,-64.20531059,-2.06821108,33.45252996,15.39369014
-2.84681260,-1.30564735,0.58956794

>  <Name>
2et4_lig

>  <RI>
0

>  <Rbt.Current_Directory>
/home/itssahil/PROJECTS/Mol_Feturizer/New_Systems/rnas/2et4

>  <Rbt.Executable>
rbdock ($Id: //depot/dev/client3/rdock/2013.1/src/exe/rbdock.cxx#4 $)

>  <Rbt.Library>
libRbt.so (2013.1, Build901 2013/11/27)

>  <Rbt.Parameter_File>
/export/apps/rDock/src/rDock_2013.1_src/data/scripts/dock_solv.prm

>  <Rbt.Receptor>
prm/blind_docking_60.prm

>  <SCORE>
4.06657

>  <SCORE.INTER>
-11.7141

>  <SCORE.INTER.CONST>
1

>  <SCORE.INTER.POLAR>
-2.0306

>  <SCORE.INTER.ROT>
9

>  <SCORE.INTER.SOLV>
31.7438

>  <SCORE.INTER.VDW>
-21.222

>  <SCORE.INTER.norm>
-0.278906

>  <SCORE.INTRA>
6.98993

>  <SCORE.INTRA.DIHEDRAL>
7.95409

>  <SCORE.INTRA.DIHEDRAL.0>
21.6909

>  <SCORE.INTRA.POLAR>
0

>  <SCORE.INTRA.POLAR.0>
0

>  <SCORE.INTRA.REPUL>
0

>  <SCORE.INTRA.REPUL.0>
0

>  <SCORE.INTRA.SOLV>
1.53114

>  <SCORE.INTRA.SOLV.lig_0>
-116.606

>  <SCORE.INTRA.VDW>
2.24732

>  <SCORE.INTRA.VDW.0>
-6.01229

>  <SCORE.INTRA.norm>
0.166427

>  <SCORE.RESTR>
8.7907

>  <SCORE.RESTR.CAVITY>
8.7907

>  <SCORE.RESTR.norm>
0.209302

>  <SCORE.SYSTEM>
0

>  <SCORE.SYSTEM.CONST>
0

>  <SCORE.SYSTEM.DIHEDRAL>
0

>  <SCORE.SYSTEM.SOLV>
0

>  <SCORE.SYSTEM.norm>
0

>  <SCORE.heavy>
42

>  <SCORE.norm>
0.096823

>  <RMSD>
31.657

$$$$
2et4_lig
 OpenBabel11021811423D
libRbt.so/2013.1/901 2013/11/27
 42 45  0  0  0  0  0  0  0  0999 V2000
   -2.2935   33.4786   12.0037 C   0  0  2  0  0  0  0  0  0  0  0  0
   -3.4871   33.6524   12.7700 O   0  0  0  0  0  0  0  0  0  0  0  0
   -2.7259   33.1092   10.5617 C   0  0  2  0  0  0  0  0  0  0  0  0
   -3.5836   34.1189    9.9956 N   0  0  0  0  0  0  0  0  0  0  0  0
   -3.4293   31.7214   10.5764 C   0  0  1  0  0  0  0  0  0  0  0  0
   -3.8025   31.3845    9.2768 O   0  0  0  0  0  0  0  0  0  0  0  0
   -2.4418   30.6789   11.1993 C   0  0  2  0  0  0  0  0  0  0  0  0
   -3.0438   29.4023   11.2390 O   0  0  0  0  0  0  0  0  0  0  0  0
   -2.0286   31.0989   12.6424 C   0  0  2  0  0  0  0  0  0  0  0  0
   -1.4406   32.4017   12.5818 O   0  0  0  0  0  0  0  0  0  0  0  0
   -1.0086   30.1006   13.2814 C   0  0  0  0  0  0  0  0  0  0  0  0
    0.3392   30.4930   13.0562 N   0  0  0  0  0  0  0  0  0  0  0  0
   -4.1817   37.8764   13.3442 C   0  0  2  0  0  0  0  0  0  0  0  0
   -4.5101   39.1457   14.0050 N   0  0  0  0  0  0  0  0  0  0  0  0
   -5.4492   36.8686   13.4451 C   0  0  0  0  0  0  0  0  0  0  0  0
   -5.0844   35.4967   12.7437 C   0  0  2  0  0  0  0  0  0  0  0  0
   -6.2011   34.5394   12.8343 N   0  0  0  0  0  0  0  0  0  0  0  0
   -3.8138   34.8855   13.4254 C   0  0  2  0  0  0  0  0  0  0  0  0
   -2.6080   35.8793   13.3464 C   0  0  2  0  0  0  0  0  0  0  0  0
   -1.4969   35.2307   14.0125 O   0  0  0  0  0  0  0  0  0  0  0  0
   -2.9811   37.2241   14.0491 C   0  0  1  0  0  0  0  0  0  0  0  0
   -1.9003   38.0889   13.9512 O   0  0  0  0  0  0  0  0  0  0  0  0
   -1.5449   34.6503   15.2360 C   0  0  1  0  0  0  0  0  0  0  0  0
   -0.2487   33.8480   15.5219 C   0  0  2  0  0  0  0  0  0  0  0  0
   -0.2747   32.5552   14.9899 O   0  0  0  0  0  0  0  0  0  0  0  0
   -0.1818   34.0159   17.0286 C   0  0  1  0  0  0  0  0  0  0  0  0
   -0.6665   35.4396   17.3369 C   0  0  2  0  0  0  0  0  0  0  0  0
   -1.6851   35.5774   16.3463 O   0  0  0  0  0  0  0  0  0  0  0  0
    0.4188   36.5631   17.2173 C   0  0  0  0  0  0  0  0  0  0  0  0
   -0.1878   37.8031   17.6683 O   0  0  0  0  0  0  0  0  0  0  0  0
   -0.7023   32.4539   18.8754 C   0  0  2  0  0  0  0  0  0  0  0  0
   -1.0691   32.9880   17.6328 O   0  0  0  0  0  0  0  0  0  0  0  0
   -0.1800   30.9584   18.7314 C   0  0  1  0  0  0  0  0  0  0  0  0
   -3.9750   33.0746   21.5579 N   0  0  0  0  0  0  0  0  0  0  0  0
    0.1910   30.4402   20.2181 C   0  0  1  0  0  0  0  0  0  0  0  0
    1.2428   31.3686   20.7919 O   0  0  0  0  0  0  0  0  0  0  0  0
   -1.1342   30.4459   21.1510 C   0  0  2  0  0  0  0  0  0  0  0  0
   -2.1187   29.5458   20.5880 O   0  0  0  0  0  0  0  0  0  0  0  0
   -1.6607   31.9866   21.2441 C   0  0  1  0  0  0  0  0  0  0  0  0
   -1.9086   32.5144   19.8577 O   0  0  0  0  0  0  0  0  0  0  0  0
   -2.9635   32.1207   22.1078 C   0  0  0  0  0  0  0  0  0  0  0  0
   -1.2196   30.1140   18.0553 N   0  0  0  0  0  0  0  0  0  0  0  0
  1  2  1  1  0  0  0
  1  3  1  0  0  0  0
  1 10  1  0  0  0  0
  3  4  1  1  0  0  0
  3  5  1  0  0  0  0
  5  6  1  6  0  0  0
  5  7  1  0  0  0  0
  7  8  1  1  0  0  0
  7  9  1  0  0  0  0
  9 10  1  0  0  0  0
  9 11  1  6  0  0  0
 11 12  1  0  0  0  0
 13 14  1  1  0  0  0
 13 15  1  0  0  0  0
 13 21  1  0  0  0  0
 16 15  1  0  0  0  0
 16 17  1  1  0  0  0
 18  2  1  6  0  0  0
 18 16  1  0  0  0  0
 19 18  1  0  0  0  0
 19 20  1  1  0  0  0
 21 19  1  0  0  0  0
 21 22  1  6  0  0  0
 23 20  1  6  0  0  0
 23 24  1  0  0  0  0
 23 28  1  0  0  0  0
 24 25  1  1  0  0  0
 24 26  1  0  0  0  0
 26 27  1  0  0  0  0
 26 32  1  1  0  0  0
 27 28  1  0  0  0  0
 27 29  1  6  0  0  0
 29 30  1  0  0  0  0
 31 32  1  6  0  0  0
 31 40  1  0  0  0  0
 33 31  1  0  0  0  0
 33 42  1  1  0  0  0
 35 33  1  0  0  0  0
 35 36  1  1  0  0  0
 37 35  1  0  0  0  0
 37 38  1  6  0  0  0
 37 39  1  0  0  0  0
 39 40  1  0  0  0  0
 39 41  1  1  0  0  0
 41 34  1  0  0  0  0
M  END
>  <CHROM.1>
-120.42587782,92.39856816,113.52621884,-49.31974587,170.16535095,147.26257409
-174.53702980,-107.47113608,-139.76615630,-2.05589045,33.45234973,15.40366321
-2.71985603,-1.27928645,0.69958774

>  <Name>
2et4_lig

>  <RI>
0

>  <Rbt.Current_Directory>
/home/itssahil/PROJECTS/Mol_Feturizer/New_Systems/rnas/2et4

>  <Rbt.Executable>
rbdock ($Id: //depot/dev/client3/rdock/2013.1/src/exe/rbdock.cxx#4 $)

>  <Rbt.Library>
libRbt.so (2013.1, Build901 2013/11/27)

>  <Rbt.Parameter_File>
/export/apps/rDock/src/rDock_2013.1_src/data/scripts/dock_solv.prm

>  <Rbt.Receptor>
prm/blind_docking_60.prm

>  <SCORE>
4.157

>  <SCORE.INTER>
-13.2837

>  <SCORE.INTER.CONST>
1

>  <SCORE.INTER.POLAR>
-2.00517

>  <SCORE.INTER.ROT>
9

>  <SCORE.INTER.SOLV>
30.6729

>  <SCORE.INTER.VDW>
-21.9962

>  <SCORE.INTER.norm>
-0.316277

>  <SCORE.INTRA>
8.16002

>  <SCORE.INTRA.DIHEDRAL>
11.1872

>  <SCORE.INTRA.DIHEDRAL.0>
21.6909

>  <SCORE.INTRA.POLAR>
0

>  <SCORE.INTRA.POLAR.0>
0

>  <SCORE.INTRA.REPUL>
0

>  <SCORE.INTRA.REPUL.0>
0

>  <SCORE.INTRA.SOLV>
0.2771

>  <SCORE.INTRA.SOLV.lig_0>
-116.606

>  <SCORE.INTRA.VDW>
2.42787

>  <SCORE.INTRA.VDW.0>
-6.01229

>  <SCORE.INTRA.norm>
0.194286

>  <SCORE.RESTR>
9.28062

>  <SCORE.RESTR.CAVITY>
9.28062

>  <SCORE.RESTR.norm>
0.220967

>  <SCORE.SYSTEM>
0

>  <SCORE.SYSTEM.CONST>
0

>  <SCORE.SYSTEM.DIHEDRAL>
0

>  <SCORE.SYSTEM.SOLV>
0

>  <SCORE.SYSTEM.norm>
0

>  <SCORE.heavy>
42

>  <SCORE.norm>
0.0989761

>  <RMSD>
31.659

$$$$
2et4_lig
 OpenBabel11021811423D
libRbt.so/2013.1/901 2013/11/27
 42 45  0  0  0  0  0  0  0  0999 V2000
   -3.0947   35.3775   14.1443 C   0  0  2  0  0  0  0  0  0  0  0  0
   -2.7496   35.1159   12.7825 O   0  0  0  0  0  0  0  0  0  0  0  0
   -4.6397   35.4817   14.2123 C   0  0  2  0  0  0  0  0  0  0  0  0
   -5.2692   34.2825   13.7212 N   0  0  0  0  0  0  0  0  0  0  0  0
   -5.1060   36.7288   13.4069 C   0  0  1  0  0  0  0  0  0  0  0  0
   -6.4937   36.8293   13.4832 O   0  0  0  0  0  0  0  0  0  0  0  0
   -4.3867   37.9882   13.9953 C   0  0  2  0  0  0  0  0  0  0  0  0
   -4.7763   39.1459   13.2872 O   0  0  0  0  0  0  0  0  0  0  0  0
   -2.8379   37.8315   13.9144 C   0  0  2  0  0  0  0  0  0  0  0  0
   -2.4676   36.6432   14.6198 O   0  0  0  0  0  0  0  0  0  0  0  0
   -2.0850   39.0551   14.5320 C   0  0  0  0  0  0  0  0  0  0  0  0
   -1.6086   38.7855   15.8441 N   0  0  0  0  0  0  0  0  0  0  0  0
   -2.7374   30.8581   12.0577 C   0  0  2  0  0  0  0  0  0  0  0  0
   -2.2929   29.5349   11.6024 N   0  0  0  0  0  0  0  0  0  0  0  0
   -2.8694   31.8540   10.7836 C   0  0  0  0  0  0  0  0  0  0  0  0
   -3.3350   33.2829   11.2822 C   0  0  2  0  0  0  0  0  0  0  0  0
   -3.4435   34.2293   10.1578 N   0  0  0  0  0  0  0  0  0  0  0  0
   -2.3066   33.8292   12.3294 C   0  0  2  0  0  0  0  0  0  0  0  0
   -2.1679   32.8454   13.5379 C   0  0  2  0  0  0  0  0  0  0  0  0
   -1.1912   33.4305   14.4339 O   0  0  0  0  0  0  0  0  0  0  0  0
   -1.7007   31.4434   13.0305 C   0  0  1  0  0  0  0  0  0  0  0  0
   -1.6001   30.5898   14.1199 O   0  0  0  0  0  0  0  0  0  0  0  0
   -1.3226   33.5363   15.7784 C   0  0  1  0  0  0  0  0  0  0  0  0
    0.0325   33.2876   16.4907 C   0  0  2  0  0  0  0  0  0  0  0  0
    0.3026   31.9315   16.6986 O   0  0  0  0  0  0  0  0  0  0  0  0
   -0.1543   34.1880   17.6978 C   0  0  1  0  0  0  0  0  0  0  0  0
   -0.9108   35.4313   17.2093 C   0  0  2  0  0  0  0  0  0  0  0  0
   -1.7794   34.8339   16.2468 O   0  0  0  0  0  0  0  0  0  0  0  0
   -0.0233   36.5559   16.5749 C   0  0  0  0  0  0  0  0  0  0  0  0
    0.1891   36.2074   15.1811 O   0  0  0  0  0  0  0  0  0  0  0  0
   -0.4324   32.1899   19.1302 C   0  0  2  0  0  0  0  0  0  0  0  0
   -0.9367   33.4269   18.7064 O   0  0  0  0  0  0  0  0  0  0  0  0
   -1.4069   31.4957   20.1781 C   0  0  1  0  0  0  0  0  0  0  0  0
    4.0792   30.3773   20.7256 N   0  0  0  0  0  0  0  0  0  0  0  0
   -0.7191   30.0972   20.6115 C   0  0  1  0  0  0  0  0  0  0  0  0
   -0.5219   29.2621   19.3620 O   0  0  0  0  0  0  0  0  0  0  0  0
    0.7059   30.3824   21.3287 C   0  0  2  0  0  0  0  0  0  0  0  0
    0.4903   31.1723   22.5227 O   0  0  0  0  0  0  0  0  0  0  0  0
    1.6629   31.1267   20.2378 C   0  0  1  0  0  0  0  0  0  0  0  0
    0.9842   32.3765   19.7485 O   0  0  0  0  0  0  0  0  0  0  0  0
    3.0742   31.4798   20.8249 C   0  0  0  0  0  0  0  0  0  0  0  0
   -1.6537   32.4152   21.3376 N   0  0  0  0  0  0  0  0  0  0  0  0
  1  2  1  6  0  0  0
  1  3  1  0  0  0  0
  1 10  1  0  0  0  0
  3  4  1  6  0  0  0
  3  5  1  0  0  0  0
  5  6  1  1  0  0  0
  5  7  1  0  0  0  0
  7  8  1  6  0  0  0
  7  9  1  0  0  0  0
  9 10  1  0  0  0  0
  9 11  1  1  0  0  0
 11 12  1  0  0  0  0
 13 14  1  6  0  0  0
 13 15  1  0  0  0  0
 13 21  1  0  0  0  0
 16 15  1  0  0  0  0
 16 17  1  6  0  0  0
 18  2  1  1  0  0  0
 18 16  1  0  0  0  0
 19 18  1  0  0  0  0
 19 20  1  1  0  0  0
 21 19  1  0  0  0  0
 21 22  1  1  0  0  0
 23 20  1  6  0  0  0
 23 24  1  0  0  0  0
 23 28  1  0  0  0  0
 24 25  1  1  0  0  0
 24 26  1  0  0  0  0
 26 27  1  0  0  0  0
 26 32  1  1  0  0  0
 27 28  1  0  0  0  0
 27 29  1  6  0  0  0
 29 30  1  0  0  0  0
 31 32  1  1  0  0  0
 31 40  1  0  0  0  0
 33 31  1  0  0  0  0
 33 42  1  1  0  0  0
 35 33  1  0  0  0  0
 35 36  1  6  0  0  0
 37 35  1  0  0  0  0
 37 38  1  1  0  0  0
 37 39  1  0  0  0  0
 39 40  1  0  0  0  0
 39 41  1  1  0  0  0
 41 34  1  0  0  0  0
M  END
>  <CHROM.1>
-106.08608981,100.82670998,117.57850710,134.16408899,142.12652471,56.26258608
84.00526874,-178.56504183,86.24816178,-1.59867598,33.75067881,15.91918564
-3.08786551,1.09400687,-2.64773246

>  <Name>
2et4_lig

>  <RI>
0

>  <Rbt.Current_Directory>
/home/itssahil/PROJECTS/Mol_Feturizer/New_Systems/rnas/2et4

>  <Rbt.Executable>
rbdock ($Id: //depot/dev/client3/rdock/2013.1/src/exe/rbdock.cxx#4 $)

>  <Rbt.Library>
libRbt.so (2013.1, Build901 2013/11/27)

>  <Rbt.Parameter_File>
/export/apps/rDock/src/rDock_2013.1_src/data/scripts/dock_solv.prm

>  <Rbt.Receptor>
prm/blind_docking_60.prm

>  <SCORE>
32.8567

>  <SCORE.INTER>
6.91931

>  <SCORE.INTER.CONST>
1

>  <SCORE.INTER.POLAR>
-0.0971092

>  <SCORE.INTER.ROT>
9

>  <SCORE.INTER.SOLV>
31.8617

>  <SCORE.INTER.VDW>
-15.284

>  <SCORE.INTER.norm>
0.164745

>  <SCORE.INTRA>
13.8145

>  <SCORE.INTRA.DIHEDRAL>
11.1782

>  <SCORE.INTRA.DIHEDRAL.0>
21.6909

>  <SCORE.INTRA.POLAR>
0

>  <SCORE.INTRA.POLAR.0>
0

>  <SCORE.INTRA.REPUL>
0.185362

>  <SCORE.INTRA.REPUL.0>
0

>  <SCORE.INTRA.SOLV>
3.22964

>  <SCORE.INTRA.SOLV.lig_0>
-116.606

>  <SCORE.INTRA.VDW>
5.68378

>  <SCORE.INTRA.VDW.0>
-6.01229

>  <SCORE.INTRA.norm>
0.328916

>  <SCORE.RESTR>
12.1229

>  <SCORE.RESTR.CAVITY>
12.1229

>  <SCORE.RESTR.norm>
0.28864

>  <SCORE.SYSTEM>
0

>  <SCORE.SYSTEM.CONST>
0

>  <SCORE.SYSTEM.DIHEDRAL>
0

>  <SCORE.SYSTEM.SOLV>
0

>  <SCORE.SYSTEM.norm>
0

>  <SCORE.heavy>
42

>  <SCORE.norm>
0.782302

>  <RMSD>
31.692

$$$$
2et4_lig
 OpenBabel11021811423D
libRbt.so/2013.1/901 2013/11/27
 42 45  0  0  0  0  0  0  0  0999 V2000
   -3.3682   32.4424   12.9116 C   0  0  2  0  0  0  0  0  0  0  0  0
   -2.8797   33.7709   12.7151 O   0  0  0  0  0  0  0  0  0  0  0  0
   -2.2515   31.4718   12.4497 C   0  0  2  0  0  0  0  0  0  0  0  0
   -1.0243   31.7029   13.1683 N   0  0  0  0  0  0  0  0  0  0  0  0
   -2.0394   31.6260   10.9159 C   0  0  1  0  0  0  0  0  0  0  0  0
   -1.0464   30.7409   10.5007 O   0  0  0  0  0  0  0  0  0  0  0  0
   -3.4074   31.3595   10.2036 C   0  0  2  0  0  0  0  0  0  0  0  0
   -3.2626   31.4963    8.8058 O   0  0  0  0  0  0  0  0  0  0  0  0
   -4.4987   32.3516   10.7082 C   0  0  2  0  0  0  0  0  0  0  0  0
   -4.6143   32.2110   12.1272 O   0  0  0  0  0  0  0  0  0  0  0  0
   -5.8912   32.0876   10.0475 C   0  0  0  0  0  0  0  0  0  0  0  0
   -5.8029   31.9841    8.6324 N   0  0  0  0  0  0  0  0  0  0  0  0
   -4.1253   37.8463   13.4184 C   0  0  2  0  0  0  0  0  0  0  0  0
   -4.6972   39.0204   14.0892 N   0  0  0  0  0  0  0  0  0  0  0  0
   -5.2719   36.7126   13.2380 C   0  0  0  0  0  0  0  0  0  0  0  0
   -4.6462   35.4435   12.5274 C   0  0  2  0  0  0  0  0  0  0  0  0
   -5.6489   34.3758   12.3659 N   0  0  0  0  0  0  0  0  0  0  0  0
   -3.4449   34.9098   13.3787 C   0  0  2  0  0  0  0  0  0  0  0  0
   -2.3609   36.0217   13.5690 C   0  0  2  0  0  0  0  0  0  0  0  0
   -1.3092   35.4362   14.3754 O   0  0  0  0  0  0  0  0  0  0  0  0
   -2.9919   37.2629   14.2780 C   0  0  1  0  0  0  0  0  0  0  0  0
   -2.0128   38.2359   14.4204 O   0  0  0  0  0  0  0  0  0  0  0  0
   -1.4250   35.0765   15.6767 C   0  0  1  0  0  0  0  0  0  0  0  0
   -0.1850   34.2700   16.1430 C   0  0  2  0  0  0  0  0  0  0  0  0
   -0.2688   32.9084   15.8364 O   0  0  0  0  0  0  0  0  0  0  0  0
   -0.1519   34.6892   17.6010 C   0  0  1  0  0  0  0  0  0  0  0  0
   -0.5640   36.1673   17.6457 C   0  0  2  0  0  0  0  0  0  0  0  0
   -1.5443   36.1855   16.6082 O   0  0  0  0  0  0  0  0  0  0  0  0
    0.5861   37.1973   17.3791 C   0  0  0  0  0  0  0  0  0  0  0  0
    0.3889   37.7329   16.0437 O   0  0  0  0  0  0  0  0  0  0  0  0
   -0.7792   32.4764   18.5129 C   0  0  2  0  0  0  0  0  0  0  0  0
   -1.1128   33.8260   18.3362 O   0  0  0  0  0  0  0  0  0  0  0  0
   -1.9231   31.6947   19.2941 C   0  0  1  0  0  0  0  0  0  0  0  0
    3.5098   31.7925   19.5978 N   0  0  0  0  0  0  0  0  0  0  0  0
   -1.4246   30.1647   19.4592 C   0  0  1  0  0  0  0  0  0  0  0  0
   -1.1765   29.5981   18.0754 O   0  0  0  0  0  0  0  0  0  0  0  0
   -0.0638   30.1198   20.3382 C   0  0  2  0  0  0  0  0  0  0  0  0
   -0.3285   30.6567   21.6565 O   0  0  0  0  0  0  0  0  0  0  0  0
    1.0722   30.9613   19.5251 C   0  0  1  0  0  0  0  0  0  0  0  0
    0.5744   32.3580   19.2731 O   0  0  0  0  0  0  0  0  0  0  0  0
    2.4400   31.0118   20.2918 C   0  0  0  0  0  0  0  0  0  0  0  0
   -2.2025   32.3682   20.6052 N   0  0  0  0  0  0  0  0  0  0  0  0
  1  2  1  6  0  0  0
  1  3  1  0  0  0  0
  1 10  1  0  0  0  0
  3  4  1  1  0  0  0
  3  5  1  0  0  0  0
  5  6  1  6  0  0  0
  5  7  1  0  0  0  0
  7  8  1  6  0  0  0
  7  9  1  0  0  0  0
  9 10  1  0  0  0  0
  9 11  1  6  0  0  0
 11 12  1  0  0  0  0
 13 14  1  1  0  0  0
 13 15  1  0  0  0  0
 13 21  1  0  0  0  0
 16 15  1  0  0  0  0
 16 17  1  1  0  0  0
 18  2  1  6  0  0  0
 18 16  1  0  0  0  0
 19 18  1  0  0  0  0
 19 20  1  1  0  0  0
 21 19  1  0  0  0  0
 21 22  1  6  0  0  0
 23 20  1  6  0  0  0
 23 24  1  0  0  0  0
 23 28  1  0  0  0  0
 24 25  1  1  0  0  0
 24 26  1  0  0  0  0
 26 27  1  0  0  0  0
 26 32  1  1  0  0  0
 27 28  1  0  0  0  0
 27 29  1  6  0  0  0
 29 30  1  0  0  0  0
 31 32  1  1  0  0  0
 31 40  1  0  0  0  0
 33 31  1  0  0  0  0
 33 42  1  1  0  0  0
 35 33  1  0  0  0  0
 35 36  1  6  0  0  0
 37 35  1  0  0  0  0
 37 38  1  1  0  0  0
 37 39  1  0  0  0  0
 39 40  1  0  0  0  0
 39 41  1  1  0  0  0
 41 34  1  0  0  0  0
M  END
>  <CHROM.1>
-160.87145005,-49.61424121,-86.82156674,-67.78712918,170.40636763,70.57536591
105.89742772,-179.01269271,-179.01877199,-1.90779871,33.56424279,15.16542605
-3.09965389,-1.09351845,0.22594050

>  <Name>
2et4_lig

>  <RI>
0

>  <Rbt.Current_Directory>
/home/itssahil/PROJECTS/Mol_Feturizer/New_Systems/rnas/2et4

>  <Rbt.Executable>
rbdock ($Id: //depot/dev/client3/rdock/2013.1/src/exe/rbdock.cxx#4 $)

>  <Rbt.Library>
libRbt.so (2013.1, Build901 2013/11/27)

>  <Rbt.Parameter_File>
/export/apps/rDock/src/rDock_2013.1_src/data/scripts/dock_solv.prm

>  <Rbt.Receptor>
prm/blind_docking_60.prm

>  <SCORE>
-7.49124

>  <SCORE.INTER>
-13.7308

>  <SCORE.INTER.CONST>
1

>  <SCORE.INTER.POLAR>
-0.879618

>  <SCORE.INTER.ROT>
9

>  <SCORE.INTER.SOLV>
33.1733

>  <SCORE.INTER.VDW>
-26.8796

>  <SCORE.INTER.norm>
-0.326925

>  <SCORE.INTRA>
-0.295406

>  <SCORE.INTRA.DIHEDRAL>
-10.8027

>  <SCORE.INTRA.DIHEDRAL.0>
21.6909

>  <SCORE.INTRA.POLAR>
0

>  <SCORE.INTRA.POLAR.0>
0

>  <SCORE.INTRA.REPUL>
0.128539

>  <SCORE.INTRA.REPUL.0>
0

>  <SCORE.INTRA.SOLV>
2.58645

>  <SCORE.INTRA.SOLV.lig_0>
-116.606

>  <SCORE.INTRA.VDW>
3.17003

>  <SCORE.INTRA.VDW.0>
-6.01229

>  <SCORE.INTRA.norm>
-0.00703347

>  <SCORE.RESTR>
6.53501

>  <SCORE.RESTR.CAVITY>
6.53501

>  <SCORE.RESTR.norm>
0.155595

>  <SCORE.SYSTEM>
0

>  <SCORE.SYSTEM.CONST>
0

>  <SCORE.SYSTEM.DIHEDRAL>
0

>  <SCORE.SYSTEM.SOLV>
0

>  <SCORE.SYSTEM.norm>
0

>  <SCORE.heavy>
42

>  <SCORE.norm>
-0.178363

>  <RMSD>
31.696

$$$$
2et4_lig
 OpenBabel11021811423D
libRbt.so/2013.1/901 2013/11/27
 42 45  0  0  0  0  0  0  0  0999 V2000
   -1.7604   29.5652   19.0680 C   0  0  2  0  0  0  0  0  0  0  0  0
   -1.4808   30.4406   17.9736 O   0  0  0  0  0  0  0  0  0  0  0  0
   -3.1949   29.8896   19.5578 C   0  0  2  0  0  0  0  0  0  0  0  0
   -4.1579   29.7442   18.4961 N   0  0  0  0  0  0  0  0  0  0  0  0
   -3.2231   31.3300   20.1456 C   0  0  1  0  0  0  0  0  0  0  0  0
   -4.5097   31.6130   20.5998 O   0  0  0  0  0  0  0  0  0  0  0  0
   -2.1584   31.4124   21.2899 C   0  0  2  0  0  0  0  0  0  0  0  0
   -2.1446   32.7089   21.8489 O   0  0  0  0  0  0  0  0  0  0  0  0
   -0.7366   31.0683   20.7513 C   0  0  2  0  0  0  0  0  0  0  0  0
   -0.7783   29.7609   20.1719 O   0  0  0  0  0  0  0  0  0  0  0  0
    0.3478   31.1002   21.8775 C   0  0  0  0  0  0  0  0  0  0  0  0
    1.6564   30.8767   21.3689 N   0  0  0  0  0  0  0  0  0  0  0  0
   -0.3326   28.8871   14.1106 C   0  0  2  0  0  0  0  0  0  0  0  0
   -0.4261   28.4635   12.7079 N   0  0  0  0  0  0  0  0  0  0  0  0
   -1.3713   28.0227   15.0085 C   0  0  0  0  0  0  0  0  0  0  0  0
   -1.2766   28.4935   16.5174 C   0  0  2  0  0  0  0  0  0  0  0  0
   -2.2241   27.7506   17.3670 N   0  0  0  0  0  0  0  0  0  0  0  0
   -1.5855   30.0264   16.6045 C   0  0  2  0  0  0  0  0  0  0  0  0
   -0.5952   30.8448   15.7116 C   0  0  2  0  0  0  0  0  0  0  0  0
   -0.9723   32.2369   15.8497 O   0  0  0  0  0  0  0  0  0  0  0  0
   -0.7065   30.3739   14.2259 C   0  0  1  0  0  0  0  0  0  0  0  0
    0.1912   31.1058   13.4617 O   0  0  0  0  0  0  0  0  0  0  0  0
   -0.1827   33.2189   16.3481 C   0  0  1  0  0  0  0  0  0  0  0  0
   -0.6083   33.5957   17.7912 C   0  0  2  0  0  0  0  0  0  0  0  0
   -1.6561   34.5206   17.8306 O   0  0  0  0  0  0  0  0  0  0  0  0
    0.7436   34.0000   18.3495 C   0  0  1  0  0  0  0  0  0  0  0  0
    1.7782   33.0447   17.7383 C   0  0  2  0  0  0  0  0  0  0  0  0
    1.2290   32.8842   16.4305 O   0  0  0  0  0  0  0  0  0  0  0  0
    1.9457   31.6710   18.4729 C   0  0  0  0  0  0  0  0  0  0  0  0
    2.3352   30.6896   17.4757 O   0  0  0  0  0  0  0  0  0  0  0  0
   -0.1099   36.1757   17.5375 C   0  0  2  0  0  0  0  0  0  0  0  0
    0.9894   35.4097   17.9482 O   0  0  0  0  0  0  0  0  0  0  0  0
   -0.2154   36.2332   15.9515 C   0  0  1  0  0  0  0  0  0  0  0  0
   -1.9372   40.9692   18.1615 N   0  0  0  0  0  0  0  0  0  0  0  0
   -1.4963   37.1543   15.5943 C   0  0  1  0  0  0  0  0  0  0  0  0
   -2.7196   36.5287   16.2341 O   0  0  0  0  0  0  0  0  0  0  0  0
   -1.2708   38.6561   16.1602 C   0  0  2  0  0  0  0  0  0  0  0  0
   -0.1040   39.2348   15.5281 O   0  0  0  0  0  0  0  0  0  0  0  0
   -1.1299   38.5522   17.7817 C   0  0  1  0  0  0  0  0  0  0  0  0
   -0.0067   37.6132   18.1264 O   0  0  0  0  0  0  0  0  0  0  0  0
   -0.8821   39.9498   18.4498 C   0  0  0  0  0  0  0  0  0  0  0  0
    1.0656   36.7543   15.3699 N   0  0  0  0  0  0  0  0  0  0  0  0
  1  2  1  6  0  0  0
  1  3  1  0  0  0  0
  1 10  1  0  0  0  0
  3  4  1  6  0  0  0
  3  5  1  0  0  0  0
  5  6  1  1  0  0  0
  5  7  1  0  0  0  0
  7  8  1  6  0  0  0
  7  9  1  0  0  0  0
  9 10  1  0  0  0  0
  9 11  1  1  0  0  0
 11 12  1  0  0  0  0
 13 14  1  6  0  0  0
 13 15  1  0  0  0  0
 13 21  1  0  0  0  0
 16 15  1  0  0  0  0
 16 17  1  1  0  0  0
 18  2  1  1  0  0  0
 18 16  1  0  0  0  0
 19 18  1  0  0  0  0
 19 20  1  6  0  0  0
 21 19  1  0  0  0  0
 21 22  1  6  0  0  0
 23 20  1  1  0  0  0
 23 24  1  0  0  0  0
 23 28  1  0  0  0  0
 24 25  1  6  0  0  0
 24 26  1  0  0  0  0
 26 27  1  0  0  0  0
 26 32  1  6  0  0  0
 27 28  1  0  0  0  0
 27 29  1  1  0  0  0
 29 30  1  0  0  0  0
 31 32  1  6  0  0  0
 31 40  1  0  0  0  0
 33 31  1  0  0  0  0
 33 42  1  6  0  0  0
 35 33  1  0  0  0  0
 35 36  1  1  0  0  0
 37 35  1  0  0  0  0
 37 38  1  6  0  0  0
 37 39  1  0  0  0  0
 39 40  1  0  0  0  0
 39 41  1  6  0  0  0
 41 34  1  0  0  0  0
M  END
>  <CHROM.1>
-99.69014041,-175.96127360,-29.77297319,118.56852918,-104.13550550,17.98378429
150.00685155,-98.54563910,57.41375884,-0.79424852,32.94596818,17.57927675
1.81980868,-1.31498902,-2.95671019

>  <Name>
2et4_lig

>  <RI>
0

>  <Rbt.Current_Directory>
/home/itssahil/PROJECTS/Mol_Feturizer/New_Systems/rnas/2et4

>  <Rbt.Executable>
rbdock ($Id: //depot/dev/client3/rdock/2013.1/src/exe/rbdock.cxx#4 $)

>  <Rbt.Library>
libRbt.so (2013.1, Build901 2013/11/27)

>  <Rbt.Parameter_File>
/export/apps/rDock/src/rDock_2013.1_src/data/scripts/dock_solv.prm

>  <Rbt.Receptor>
prm/blind_docking_80.prm

>  <SCORE>
22.8432

>  <SCORE.INTER>
-13.2591

>  <SCORE.INTER.CONST>
1

>  <SCORE.INTER.POLAR>
-1.6832

>  <SCORE.INTER.ROT>
9

>  <SCORE.INTER.SOLV>
26.9332

>  <SCORE.INTER.VDW>
-21.8064

>  <SCORE.INTER.norm>
-0.315692

>  <SCORE.INTRA>
21.7989

>  <SCORE.INTRA.DIHEDRAL>
14.1382

>  <SCORE.INTRA.DIHEDRAL.0>
21.6909

>  <SCORE.INTRA.POLAR>
0

>  <SCORE.INTRA.POLAR.0>
0

>  <SCORE.INTRA.REPUL>
0

>  <SCORE.INTRA.REPUL.0>
0

>  <SCORE.INTRA.SOLV>
4.34641

>  <SCORE.INTRA.SOLV.lig_0>
-116.606

>  <SCORE.INTRA.VDW>
12.5566

>  <SCORE.INTRA.VDW.0>
-6.01229

>  <SCORE.INTRA.norm>
0.519022

>  <SCORE.RESTR>
14.3033

>  <SCORE.RESTR.CAVITY>
14.3033

>  <SCORE.RESTR.norm>
0.340556

>  <SCORE.SYSTEM>
0

>  <SCORE.SYSTEM.CONST>
0

>  <SCORE.SYSTEM.DIHEDRAL>
0

>  <SCORE.SYSTEM.SOLV>
0

>  <SCORE.SYSTEM.norm>
0

>  <SCORE.heavy>
42

>  <SCORE.norm>
0.543886

>  <RMSD>
31.726

$$$$
2et4_lig
 OpenBabel11021811423D
libRbt.so/2013.1/901 2013/11/27
 42 45  0  0  0  0  0  0  0  0999 V2000
    0.4470   29.9469   19.2368 C   0  0  2  0  0  0  0  0  0  0  0  0
   -0.3739   30.9976   18.7228 O   0  0  0  0  0  0  0  0  0  0  0  0
    0.3706   30.0222   20.7832 C   0  0  2  0  0  0  0  0  0  0  0  0
   -0.9890   29.9156   21.2477 N   0  0  0  0  0  0  0  0  0  0  0  0
    1.0245   31.3492   21.2654 C   0  0  1  0  0  0  0  0  0  0  0  0
    0.9689   31.4068   22.6566 O   0  0  0  0  0  0  0  0  0  0  0  0
    2.4938   31.3943   20.7279 C   0  0  2  0  0  0  0  0  0  0  0  0
    3.1249   32.5892   21.1371 O   0  0  0  0  0  0  0  0  0  0  0  0
    2.5188   31.3051   19.1719 C   0  0  2  0  0  0  0  0  0  0  0  0
    1.8572   30.0991   18.7788 O   0  0  0  0  0  0  0  0  0  0  0  0
    3.9747   31.3055   18.6012 C   0  0  0  0  0  0  0  0  0  0  0  0
    4.0530   30.6740   17.3299 N   0  0  0  0  0  0  0  0  0  0  0  0
   -1.4224   29.7189   14.7328 C   0  0  2  0  0  0  0  0  0  0  0  0
   -2.1671   29.5886   13.4741 N   0  0  0  0  0  0  0  0  0  0  0  0
   -2.3528   29.2257   15.9670 C   0  0  0  0  0  0  0  0  0  0  0  0
   -1.5499   29.3819   17.3229 C   0  0  2  0  0  0  0  0  0  0  0  0
   -2.3684   28.9684   18.4764 N   0  0  0  0  0  0  0  0  0  0  0  0
   -1.1123   30.8752   17.4994 C   0  0  2  0  0  0  0  0  0  0  0  0
   -0.2403   31.3459   16.2886 C   0  0  2  0  0  0  0  0  0  0  0  0
    0.0971   32.7323   16.5398 O   0  0  0  0  0  0  0  0  0  0  0  0
   -1.0490   31.1928   14.9604 C   0  0  1  0  0  0  0  0  0  0  0  0
   -0.2474   31.6037   13.9048 O   0  0  0  0  0  0  0  0  0  0  0  0
   -0.7656   33.7752   16.4734 C   0  0  1  0  0  0  0  0  0  0  0  0
   -1.4603   34.0098   17.8401 C   0  0  2  0  0  0  0  0  0  0  0  0
   -2.5787   33.1936   18.0348 O   0  0  0  0  0  0  0  0  0  0  0  0
   -1.6581   35.5123   17.7617 C   0  0  1  0  0  0  0  0  0  0  0  0
   -0.4173   36.0859   17.0629 C   0  0  2  0  0  0  0  0  0  0  0  0
   -0.1593   35.0472   16.1183 O   0  0  0  0  0  0  0  0  0  0  0  0
    0.8177   36.3508   17.9899 C   0  0  0  0  0  0  0  0  0  0  0  0
    1.2274   35.0725   18.5439 O   0  0  0  0  0  0  0  0  0  0  0  0
   -2.7679   36.3763   15.7261 C   0  0  2  0  0  0  0  0  0  0  0  0
   -2.8965   35.7598   16.9781 O   0  0  0  0  0  0  0  0  0  0  0  0
   -3.6506   37.6964   15.6374 C   0  0  1  0  0  0  0  0  0  0  0  0
   -2.8168   33.4646   12.3813 N   0  0  0  0  0  0  0  0  0  0  0  0
   -3.4435   38.3068   14.1537 C   0  0  1  0  0  0  0  0  0  0  0  0
   -1.9658   38.5835   13.9602 O   0  0  0  0  0  0  0  0  0  0  0  0
   -3.9681   37.2489   13.0438 C   0  0  2  0  0  0  0  0  0  0  0  0
   -5.3818   37.0086   13.2435 O   0  0  0  0  0  0  0  0  0  0  0  0
   -3.0664   35.8979   13.1905 C   0  0  1  0  0  0  0  0  0  0  0  0
   -3.1681   35.3799   14.5988 O   0  0  0  0  0  0  0  0  0  0  0  0
   -3.4974   34.7801   12.1775 C   0  0  0  0  0  0  0  0  0  0  0  0
   -5.0833   37.3785   15.9490 N   0  0  0  0  0  0  0  0  0  0  0  0
  1  2  1  6  0  0  0
  1  3  1  0  0  0  0
  1 10  1  0  0  0  0
  3  4  1  6  0  0  0
  3  5  1  0  0  0  0
  5  6  1  1  0  0  0
  5  7  1  0  0  0  0
  7  8  1  6  0  0  0
  7  9  1  0  0  0  0
  9 10  1  0  0  0  0
  9 11  1  1  0  0  0
 11 12  1  0  0  0  0
 13 14  1  6  0  0  0
 13 15  1  0  0  0  0
 13 21  1  0  0  0  0
 16 15  1  0  0  0  0
 16 17  1  1  0  0  0
 18  2  1  1  0  0  0
 18 16  1  0  0  0  0
 19 18  1  0  0  0  0
 19 20  1  1  0  0  0
 21 19  1  0  0  0  0
 21 22  1  6  0  0  0
 23 20  1  1  0  0  0
 23 24  1  0  0  0  0
 23 28  1  0  0  0  0
 24 25  1  6  0  0  0
 24 26  1  0  0  0  0
 26 27  1  0  0  0  0
 26 32  1  6  0  0  0
 27 28  1  0  0  0  0
 27 29  1  1  0  0  0
 29 30  1  0  0  0  0
 31 32  1  1  0  0  0
 31 40  1  0  0  0  0
 33 31  1  0  0  0  0
 33 42  1  6  0  0  0
 35 33  1  0  0  0  0
 35 36  1  6  0  0  0
 37 35  1  0  0  0  0
 37 38  1  1  0  0  0
 37 39  1  0  0  0  0
 39 40  1  0  0  0  0
 39 41  1  6  0  0  0
 41 34  1  0  0  0  0
M  END
>  <CHROM.1>
-146.47947486,154.87459724,32.33092405,-71.36651657,88.90940970,-112.97859180
62.06064639,-123.95215088,-172.87521361,-0.93153184,33.18214918,16.90614196
0.52873825,0.94928391,-2.95263103

>  <Name>
2et4_lig

>  <RI>
0

>  <Rbt.Current_Directory>
/home/itssahil/PROJECTS/Mol_Feturizer/New_Systems/rnas/2et4

>  <Rbt.Executable>
rbdock ($Id: //depot/dev/client3/rdock/2013.1/src/exe/rbdock.cxx#4 $)

>  <Rbt.Library>
libRbt.so (2013.1, Build901 2013/11/27)

>  <Rbt.Parameter_File>
/export/apps/rDock/src/rDock_2013.1_src/data/scripts/dock_solv.prm

>  <Rbt.Receptor>
prm/blind_docking_60.prm

>  <SCORE>
29.7099

>  <SCORE.INTER>
10.1524

>  <SCORE.INTER.CONST>
1

>  <SCORE.INTER.POLAR>
-1.10164

>  <SCORE.INTER.ROT>
9

>  <SCORE.INTER.SOLV>
34.4382

>  <SCORE.INTER.VDW>
-10.639

>  <SCORE.INTER.norm>
0.241724

>  <SCORE.INTRA>
6.76359

>  <SCORE.INTRA.DIHEDRAL>
6.04236

>  <SCORE.INTRA.DIHEDRAL.0>
21.6909

>  <SCORE.INTRA.POLAR>
0

>  <SCORE.INTRA.POLAR.0>
0

>  <SCORE.INTRA.REPUL>
0.00754289

>  <SCORE.INTRA.REPUL.0>
0

>  <SCORE.INTRA.SOLV>
0.881175

>  <SCORE.INTRA.SOLV.lig_0>
-116.606

>  <SCORE.INTRA.VDW>
3.26411

>  <SCORE.INTRA.VDW.0>
-6.01229

>  <SCORE.INTRA.norm>
0.161038

>  <SCORE.RESTR>
12.7938

>  <SCORE.RESTR.CAVITY>
12.7938

>  <SCORE.RESTR.norm>
0.304615

>  <SCORE.SYSTEM>
0

>  <SCORE.SYSTEM.CONST>
0

>  <SCORE.SYSTEM.DIHEDRAL>
0

>  <SCORE.SYSTEM.SOLV>
0

>  <SCORE.SYSTEM.norm>
0

>  <SCORE.heavy>
42

>  <SCORE.norm>
0.707378

>  <RMSD>
31.748

$$$$
2et4_lig
 OpenBabel11021811423D
libRbt.so/2013.1/901 2013/11/27
 42 45  0  0  0  0  0  0  0  0999 V2000
   -2.2442   30.0064   18.7921 C   0  0  2  0  0  0  0  0  0  0  0  0
   -2.2048   31.1901   17.9925 O   0  0  0  0  0  0  0  0  0  0  0  0
   -3.1794   30.2975   19.9935 C   0  0  2  0  0  0  0  0  0  0  0  0
   -4.4937   30.6903   19.5530 N   0  0  0  0  0  0  0  0  0  0  0  0
   -2.5376   31.3963   20.8891 C   0  0  1  0  0  0  0  0  0  0  0  0
   -3.3725   31.6444   21.9768 O   0  0  0  0  0  0  0  0  0  0  0  0
   -1.1197   30.9014   21.3303 C   0  0  2  0  0  0  0  0  0  0  0  0
   -0.4959   31.8741   22.1416 O   0  0  0  0  0  0  0  0  0  0  0  0
   -0.2216   30.6124   20.0894 C   0  0  2  0  0  0  0  0  0  0  0  0
   -0.8812   29.6411   19.2719 O   0  0  0  0  0  0  0  0  0  0  0  0
    1.1910   30.0758   20.4919 C   0  0  0  0  0  0  0  0  0  0  0  0
    1.7746   30.8358   21.5420 N   0  0  0  0  0  0  0  0  0  0  0  0
   -1.3535   29.6499   14.0481 C   0  0  2  0  0  0  0  0  0  0  0  0
   -1.0021   29.6183   12.6229 N   0  0  0  0  0  0  0  0  0  0  0  0
   -2.7009   30.5297   14.2551 C   0  0  0  0  0  0  0  0  0  0  0  0
   -3.0669   30.5723   15.7951 C   0  0  2  0  0  0  0  0  0  0  0  0
   -4.2733   31.3844   16.0329 N   0  0  0  0  0  0  0  0  0  0  0  0
   -1.8645   31.1723   16.5993 C   0  0  2  0  0  0  0  0  0  0  0  0
   -0.5657   30.3313   16.3676 C   0  0  2  0  0  0  0  0  0  0  0  0
    0.4815   30.9727   17.1364 O   0  0  0  0  0  0  0  0  0  0  0  0
   -0.2141   30.3056   14.8453 C   0  0  1  0  0  0  0  0  0  0  0  0
    0.9315   29.5428   14.6689 O   0  0  0  0  0  0  0  0  0  0  0  0
    0.8458   32.2739   17.0350 C   0  0  1  0  0  0  0  0  0  0  0  0
    0.0741   33.1485   18.0573 C   0  0  2  0  0  0  0  0  0  0  0  0
   -1.1870   33.5433   17.6004 O   0  0  0  0  0  0  0  0  0  0  0  0
    1.1242   34.2138   18.3130 C   0  0  1  0  0  0  0  0  0  0  0  0
    2.4856   33.5044   18.3019 C   0  0  2  0  0  0  0  0  0  0  0  0
    2.2543   32.5343   17.2806 O   0  0  0  0  0  0  0  0  0  0  0  0
    2.9104   32.8372   19.6543 C   0  0  0  0  0  0  0  0  0  0  0  0
    3.9855   31.9060   19.3606 O   0  0  0  0  0  0  0  0  0  0  0  0
   -0.0042   36.1747   17.3114 C   0  0  2  0  0  0  0  0  0  0  0  0
    1.0164   35.2183   17.2231 O   0  0  0  0  0  0  0  0  0  0  0  0
   -1.2312   35.8005   16.3712 C   0  0  1  0  0  0  0  0  0  0  0  0
    0.5489   40.2144   15.1518 N   0  0  0  0  0  0  0  0  0  0  0  0
   -2.3307   36.9755   16.5358 C   0  0  1  0  0  0  0  0  0  0  0  0
   -2.7232   37.0520   17.9978 O   0  0  0  0  0  0  0  0  0  0  0  0
   -1.7058   38.3882   16.0460 C   0  0  2  0  0  0  0  0  0  0  0  0
   -1.3481   38.2929   14.6463 O   0  0  0  0  0  0  0  0  0  0  0  0
   -0.4304   38.7189   17.0072 C   0  0  1  0  0  0  0  0  0  0  0  0
    0.5516   37.5816   16.9431 O   0  0  0  0  0  0  0  0  0  0  0  0
    0.2803   40.0613   16.6147 C   0  0  0  0  0  0  0  0  0  0  0  0
   -0.7609   35.6274   14.9571 N   0  0  0  0  0  0  0  0  0  0  0  0
  1  2  1  6  0  0  0
  1  3  1  0  0  0  0
  1 10  1  0  0  0  0
  3  4  1  6  0  0  0
  3  5  1  0  0  0  0
  5  6  1  1  0  0  0
  5  7  1  0  0  0  0
  7  8  1  1  0  0  0
  7  9  1  0  0  0  0
  9 10  1  0  0  0  0
  9 11  1  1  0  0  0
 11 12  1  0  0  0  0
 13 14  1  6  0  0  0
 13 15  1  0  0  0  0
 13 21  1  0  0  0  0
 16 15  1  0  0  0  0
 16 17  1  6  0  0  0
 18  2  1  1  0  0  0
 18 16  1  0  0  0  0
 19 18  1  0  0  0  0
 19 20  1  1  0  0  0
 21 19  1  0  0  0  0
 21 22  1  1  0  0  0
 23 20  1  1  0  0  0
 23 24  1  0  0  0  0
 23 28  1  0  0  0  0
 24 25  1  6  0  0  0
 24 26  1  0  0  0  0
 26 27  1  0  0  0  0
 26 32  1  6  0  0  0
 27 28  1  0  0  0  0
 27 29  1  1  0  0  0
 29 30  1  0  0  0  0
 31 32  1  6  0  0  0
 31 40  1  0  0  0  0
 33 31  1  0  0  0  0
 33 42  1  6  0  0  0
 35 33  1  0  0  0  0
 35 36  1  1  0  0  0
 37 35  1  0  0  0  0
 37 38  1  6  0  0  0
 37 39  1  0  0  0  0
 39 40  1  0  0  0  0
 39 41  1  6  0  0  0
 41 34  1  0  0  0  0
M  END
>  <CHROM.1>
-156.77939482,-46.13855158,73.62612966,-55.17839657,92.41180977,79.40697203
163.42581175,-101.21889719,-47.13866451,-0.61728143,33.04182306,17.61097834
1.78406785,1.19869801,2.62732293

>  <Name>
2et4_lig

>  <RI>
0

>  <Rbt.Current_Directory>
/home/itssahil/PROJECTS/Mol_Feturizer/New_Systems/rnas/2et4

>  <Rbt.Executable>
rbdock ($Id: //depot/dev/client3/rdock/2013.1/src/exe/rbdock.cxx#4 $)

>  <Rbt.Library>
libRbt.so (2013.1, Build901 2013/11/27)

>  <Rbt.Parameter_File>
/export/apps/rDock/src/rDock_2013.1_src/data/scripts/dock_solv.prm

>  <Rbt.Receptor>
prm/blind_docking_80.prm

>  <SCORE>
17.722

>  <SCORE.INTER>
0.141971

>  <SCORE.INTER.CONST>
1

>  <SCORE.INTER.POLAR>
-0.751194

>  <SCORE.INTER.ROT>
9

>  <SCORE.INTER.SOLV>
24.133

>  <SCORE.INTER.VDW>
-15.0457

>  <SCORE.INTER.norm>
0.00338026

>  <SCORE.INTRA>
2.74143

>  <SCORE.INTRA.DIHEDRAL>
-4.71448

>  <SCORE.INTRA.DIHEDRAL.0>
21.6909

>  <SCORE.INTRA.POLAR>
0

>  <SCORE.INTRA.POLAR.0>
0

>  <SCORE.INTRA.REPUL>
0

>  <SCORE.INTRA.REPUL.0>
0

>  <SCORE.INTRA.SOLV>
4.69245

>  <SCORE.INTRA.SOLV.lig_0>
-116.606

>  <SCORE.INTRA.VDW>
2.75244

>  <SCORE.INTRA.VDW.0>
-6.01229

>  <SCORE.INTRA.norm>
0.0652721

>  <SCORE.RESTR>
14.8386

>  <SCORE.RESTR.CAVITY>
14.8386

>  <SCORE.RESTR.norm>
0.353301

>  <SCORE.SYSTEM>
0

>  <SCORE.SYSTEM.CONST>
0

>  <SCORE.SYSTEM.DIHEDRAL>
0

>  <SCORE.SYSTEM.SOLV>
0

>  <SCORE.SYSTEM.norm>
0

>  <SCORE.heavy>
42

>  <SCORE.norm>
0.421953

>  <RMSD>
31.765

$$$$
2et4_lig
 OpenBabel11021811423D
libRbt.so/2013.1/901 2013/11/27
 42 45  0  0  0  0  0  0  0  0999 V2000
   -1.8551   30.2330   18.8744 C   0  0  2  0  0  0  0  0  0  0  0  0
   -2.7053   30.3107   17.7284 O   0  0  0  0  0  0  0  0  0  0  0  0
   -2.4606   29.1656   19.8212 C   0  0  2  0  0  0  0  0  0  0  0  0
   -2.5887   27.8909   19.1621 N   0  0  0  0  0  0  0  0  0  0  0  0
   -3.8379   29.6658   20.3448 C   0  0  1  0  0  0  0  0  0  0  0  0
   -4.3725   28.7116   21.2082 O   0  0  0  0  0  0  0  0  0  0  0  0
   -3.6215   31.0474   21.0480 C   0  0  2  0  0  0  0  0  0  0  0  0
   -4.8509   31.5436   21.5337 O   0  0  0  0  0  0  0  0  0  0  0  0
   -3.0022   32.0821   20.0602 C   0  0  2  0  0  0  0  0  0  0  0  0
   -1.7695   31.5510   19.5652 O   0  0  0  0  0  0  0  0  0  0  0  0
   -2.7333   33.4641   20.7409 C   0  0  0  0  0  0  0  0  0  0  0  0
   -3.8100   33.8696   21.5760 N   0  0  0  0  0  0  0  0  0  0  0  0
   -1.1878   29.4673   13.7736 C   0  0  2  0  0  0  0  0  0  0  0  0
   -0.6674   29.6834   12.4178 N   0  0  0  0  0  0  0  0  0  0  0  0
   -2.6569   30.1433   13.9049 C   0  0  0  0  0  0  0  0  0  0  0  0
   -3.2068   29.9197   15.3728 C   0  0  2  0  0  0  0  0  0  0  0  0
   -4.5318   30.5414   15.5449 N   0  0  0  0  0  0  0  0  0  0  0  0
   -2.2016   30.5344   16.4044 C   0  0  2  0  0  0  0  0  0  0  0  0
   -0.7826   29.8944   16.2471 C   0  0  2  0  0  0  0  0  0  0  0  0
    0.0686   30.5367   17.2280 O   0  0  0  0  0  0  0  0  0  0  0  0
   -0.2513   30.1304   14.7968 C   0  0  1  0  0  0  0  0  0  0  0  0
    0.9999   29.5411   14.6830 O   0  0  0  0  0  0  0  0  0  0  0  0
    0.5938   31.7810   17.1178 C   0  0  1  0  0  0  0  0  0  0  0  0
   -0.0300   32.7421   18.1632 C   0  0  2  0  0  0  0  0  0  0  0  0
   -1.2425   33.2975   17.7435 O   0  0  0  0  0  0  0  0  0  0  0  0
    1.1549   33.6627   18.3899 C   0  0  1  0  0  0  0  0  0  0  0  0
    2.4132   32.7848   18.3384 C   0  0  2  0  0  0  0  0  0  0  0  0
    2.0304   31.8575   17.3229 O   0  0  0  0  0  0  0  0  0  0  0  0
    2.7874   32.0618   19.6771 C   0  0  0  0  0  0  0  0  0  0  0  0
    3.3132   33.0683   20.5823 O   0  0  0  0  0  0  0  0  0  0  0  0
    0.3384   35.8111   17.4739 C   0  0  2  0  0  0  0  0  0  0  0  0
    1.1459   34.6783   17.3048 O   0  0  0  0  0  0  0  0  0  0  0  0
   -1.1313   35.5626   16.9190 C   0  0  1  0  0  0  0  0  0  0  0  0
    0.2819   40.7664   16.0183 N   0  0  0  0  0  0  0  0  0  0  0  0
   -1.9616   36.9325   17.1444 C   0  0  1  0  0  0  0  0  0  0  0  0
   -1.9479   37.2533   18.6257 O   0  0  0  0  0  0  0  0  0  0  0  0
   -1.2787   38.1364   16.3014 C   0  0  2  0  0  0  0  0  0  0  0  0
   -1.3123   37.8111   14.8910 O   0  0  0  0  0  0  0  0  0  0  0  0
    0.2360   38.3360   16.8721 C   0  0  1  0  0  0  0  0  0  0  0  0
    0.9856   37.0366   16.7645 O   0  0  0  0  0  0  0  0  0  0  0  0
    1.0151   39.4669   16.1137 C   0  0  0  0  0  0  0  0  0  0  0  0
   -1.0728   35.1389   15.4809 N   0  0  0  0  0  0  0  0  0  0  0  0
  1  2  1  6  0  0  0
  1  3  1  0  0  0  0
  1 10  1  0  0  0  0
  3  4  1  6  0  0  0
  3  5  1  0  0  0  0
  5  6  1  1  0  0  0
  5  7  1  0  0  0  0
  7  8  1  6  0  0  0
  7  9  1  0  0  0  0
  9 10  1  0  0  0  0
  9 11  1  1  0  0  0
 11 12  1  0  0  0  0
 13 14  1  6  0  0  0
 13 15  1  0  0  0  0
 13 21  1  0  0  0  0
 16 15  1  0  0  0  0
 16 17  1  6  0  0  0
 18  2  1  1  0  0  0
 18 16  1  0  0  0  0
 19 18  1  0  0  0  0
 19 20  1  1  0  0  0
 21 19  1  0  0  0  0
 21 22  1  1  0  0  0
 23 20  1  1  0  0  0
 23 24  1  0  0  0  0
 23 28  1  0  0  0  0
 24 25  1  6  0  0  0
 24 26  1  0  0  0  0
 26 27  1  0  0  0  0
 26 32  1  6  0  0  0
 27 28  1  0  0  0  0
 27 29  1  1  0  0  0
 29 30  1  0  0  0  0
 31 32  1  6  0  0  0
 31 40  1  0  0  0  0
 33 31  1  0  0  0  0
 33 42  1  6  0  0  0
 35 33  1  0  0  0  0
 35 36  1  1  0  0  0
 37 35  1  0  0  0  0
 37 38  1  6  0  0  0
 37 39  1  0  0  0  0
 39 40  1  0  0  0  0
 39 41  1  6  0  0  0
 41 34  1  0  0  0  0
M  END
>  <CHROM.1>
-143.83734073,-42.97959302,153.81178966,-76.65818436,112.16319802,84.40793440
-73.16384066,-88.83633171,51.09597500,-1.07081422,32.82368325,17.62481786
2.26813904,-1.06295157,-2.70424273

>  <Name>
2et4_lig

>  <RI>
0

>  <Rbt.Current_Directory>
/home/itssahil/PROJECTS/Mol_Feturizer/New_Systems/rnas/2et4

>  <Rbt.Executable>
rbdock ($Id: //depot/dev/client3/rdock/2013.1/src/exe/rbdock.cxx#4 $)

>  <Rbt.Library>
libRbt.so (2013.1, Build901 2013/11/27)

>  <Rbt.Parameter_File>
/export/apps/rDock/src/rDock_2013.1_src/data/scripts/dock_solv.prm

>  <Rbt.Receptor>
prm/blind_docking_80.prm

>  <SCORE>
30.3348

>  <SCORE.INTER>
3.85848

>  <SCORE.INTER.CONST>
1

>  <SCORE.INTER.POLAR>
-0.897652

>  <SCORE.INTER.ROT>
9

>  <SCORE.INTER.SOLV>
21.9482

>  <SCORE.INTER.VDW>
-11.3516

>  <SCORE.INTER.norm>
0.0918685

>  <SCORE.INTRA>
9.7515

>  <SCORE.INTRA.DIHEDRAL>
2.06038

>  <SCORE.INTRA.DIHEDRAL.0>
21.6909

>  <SCORE.INTRA.POLAR>
0

>  <SCORE.INTRA.POLAR.0>
0

>  <SCORE.INTRA.REPUL>
0

>  <SCORE.INTRA.REPUL.0>
0

>  <SCORE.INTRA.SOLV>
0.261123

>  <SCORE.INTRA.SOLV.lig_0>
-116.606

>  <SCORE.INTRA.VDW>
8.59075

>  <SCORE.INTRA.VDW.0>
-6.01229

>  <SCORE.INTRA.norm>
0.232179

>  <SCORE.RESTR>
16.7248

>  <SCORE.RESTR.CAVITY>
16.7248

>  <SCORE.RESTR.norm>
0.398211

>  <SCORE.SYSTEM>
0

>  <SCORE.SYSTEM.CONST>
0

>  <SCORE.SYSTEM.DIHEDRAL>
0

>  <SCORE.SYSTEM.SOLV>
0

>  <SCORE.SYSTEM.norm>
0

>  <SCORE.heavy>
42

>  <SCORE.norm>
0.722258

>  <RMSD>
31.783

$$$$
2et4_lig
 OpenBabel11021811423D
libRbt.so/2013.1/901 2013/11/27
 42 45  0  0  0  0  0  0  0  0999 V2000
   -2.3010   30.1054   19.3665 C   0  0  2  0  0  0  0  0  0  0  0  0
   -3.0684   29.7714   18.2081 O   0  0  0  0  0  0  0  0  0  0  0  0
   -2.8003   29.2008   20.5219 C   0  0  2  0  0  0  0  0  0  0  0  0
   -2.6818   27.8050   20.1850 N   0  0  0  0  0  0  0  0  0  0  0  0
   -4.2725   29.5708   20.8640 C   0  0  1  0  0  0  0  0  0  0  0  0
   -4.7135   28.7673   21.9136 O   0  0  0  0  0  0  0  0  0  0  0  0
   -4.3238   31.0940   21.2208 C   0  0  2  0  0  0  0  0  0  0  0  0
   -5.6469   31.4762   21.5320 O   0  0  0  0  0  0  0  0  0  0  0  0
   -3.8029   31.9600   20.0340 C   0  0  2  0  0  0  0  0  0  0  0  0
   -2.4704   31.5428   19.7223 O   0  0  0  0  0  0  0  0  0  0  0  0
   -3.8009   33.4872   20.3706 C   0  0  0  0  0  0  0  0  0  0  0  0
   -3.0729   33.7742   21.5575 N   0  0  0  0  0  0  0  0  0  0  0  0
   -1.1835   29.0620   14.3873 C   0  0  2  0  0  0  0  0  0  0  0  0
   -0.6953   29.2956   13.0225 N   0  0  0  0  0  0  0  0  0  0  0  0
   -2.7947   29.2484   14.4264 C   0  0  0  0  0  0  0  0  0  0  0  0
   -3.3137   29.0097   15.9032 C   0  0  2  0  0  0  0  0  0  0  0  0
   -4.7731   29.1945   15.9905 N   0  0  0  0  0  0  0  0  0  0  0  0
   -2.5998   30.0101   16.8738 C   0  0  2  0  0  0  0  0  0  0  0  0
   -1.0462   29.8392   16.8044 C   0  0  2  0  0  0  0  0  0  0  0  0
   -0.4847   30.8118   17.7197 O   0  0  0  0  0  0  0  0  0  0  0  0
   -0.5495   30.0855   15.3435 C   0  0  1  0  0  0  0  0  0  0  0  0
    0.8271   29.9137   15.3097 O   0  0  0  0  0  0  0  0  0  0  0  0
    0.1757   31.9391   17.3602 C   0  0  1  0  0  0  0  0  0  0  0  0
    0.0042   33.0489   18.4299 C   0  0  2  0  0  0  0  0  0  0  0  0
   -1.1770   33.7812   18.2767 O   0  0  0  0  0  0  0  0  0  0  0  0
    1.3326   33.7626   18.2603 C   0  0  1  0  0  0  0  0  0  0  0  0
    2.3838   32.6795   17.9798 C   0  0  2  0  0  0  0  0  0  0  0  0
    1.6097   31.7780   17.1888 O   0  0  0  0  0  0  0  0  0  0  0  0
    2.9838   31.9771   19.2452 C   0  0  0  0  0  0  0  0  0  0  0  0
    4.0597   31.1126   18.7932 O   0  0  0  0  0  0  0  0  0  0  0  0
    0.3304   35.7983   17.2738 C   0  0  2  0  0  0  0  0  0  0  0  0
    1.1918   34.7037   17.1187 O   0  0  0  0  0  0  0  0  0  0  0  0
   -1.0653   35.5430   16.5550 C   0  0  1  0  0  0  0  0  0  0  0  0
    2.4726   39.2979   16.0698 N   0  0  0  0  0  0  0  0  0  0  0  0
   -1.9636   36.8696   16.7786 C   0  0  1  0  0  0  0  0  0  0  0  0
   -2.1122   37.0920   18.2705 O   0  0  0  0  0  0  0  0  0  0  0  0
   -1.2432   38.1465   16.0880 C   0  0  2  0  0  0  0  0  0  0  0  0
   -1.1216   37.9142   14.6641 O   0  0  0  0  0  0  0  0  0  0  0  0
    0.1973   38.3532   16.8241 C   0  0  1  0  0  0  0  0  0  0  0  0
    1.0011   37.0867   16.7135 O   0  0  0  0  0  0  0  0  0  0  0  0
    1.0076   39.5545   16.2228 C   0  0  0  0  0  0  0  0  0  0  0  0
   -0.8456   35.2172   15.1071 N   0  0  0  0  0  0  0  0  0  0  0  0
  1  2  1  6  0  0  0
  1  3  1  0  0  0  0
  1 10  1  0  0  0  0
  3  4  1  6  0  0  0
  3  5  1  0  0  0  0
  5  6  1  1  0  0  0
  5  7  1  0  0  0  0
  7  8  1  6  0  0  0
  7  9  1  0  0  0  0
  9 10  1  0  0  0  0
  9 11  1  1  0  0  0
 11 12  1  0  0  0  0
 13 14  1  6  0  0  0
 13 15  1  0  0  0  0
 13 21  1  0  0  0  0
 16 15  1  0  0  0  0
 16 17  1  6  0  0  0
 18  2  1  1  0  0  0
 18 16  1  0  0  0  0
 19 18  1  0  0  0  0
 19 20  1  1  0  0  0
 21 19  1  0  0  0  0
 21 22  1  1  0  0  0
 23 20  1  1  0  0  0
 23 24  1  0  0  0  0
 23 28  1  0  0  0  0
 24 25  1  6  0  0  0
 24 26  1  0  0  0  0
 26 27  1  0  0  0  0
 26 32  1  6  0  0  0
 27 28  1  0  0  0  0
 27 29  1  1  0  0  0
 29 30  1  0  0  0  0
 31 32  1  6  0  0  0
 31 40  1  0  0  0  0
 33 31  1  0  0  0  0
 33 42  1  6  0  0  0
 35 33  1  0  0  0  0
 35 36  1  1  0  0  0
 37 35  1  0  0  0  0
 37 38  1  6  0  0  0
 37 39  1  0  0  0  0
 39 40  1  0  0  0  0
 39 41  1  6  0  0  0
 41 34  1  0  0  0  0
M  END
>  <CHROM.1>
-156.32874679,54.67578089,155.08731352,-107.92549549,151.03014621,67.40940901
-173.29990087,-101.09078435,-139.49310635,-1.18160283,32.64700829,17.74268487
2.22201835,-0.81267320,-2.94741466

>  <Name>
2et4_lig

>  <RI>
0

>  <Rbt.Current_Directory>
/home/itssahil/PROJECTS/Mol_Feturizer/New_Systems/rnas/2et4

>  <Rbt.Executable>
rbdock ($Id: //depot/dev/client3/rdock/2013.1/src/exe/rbdock.cxx#4 $)

>  <Rbt.Library>
libRbt.so (2013.1, Build901 2013/11/27)

>  <Rbt.Parameter_File>
/export/apps/rDock/src/rDock_2013.1_src/data/scripts/dock_solv.prm

>  <Rbt.Receptor>
prm/blind_docking_80.prm

>  <SCORE>
37.2471

>  <SCORE.INTER>
10.1461

>  <SCORE.INTER.CONST>
1

>  <SCORE.INTER.POLAR>
-0.916515

>  <SCORE.INTER.ROT>
9

>  <SCORE.INTER.SOLV>
35.7219

>  <SCORE.INTER.VDW>
-11.6882

>  <SCORE.INTER.norm>
0.241575

>  <SCORE.INTRA>
8.23056

>  <SCORE.INTRA.DIHEDRAL>
3.50863

>  <SCORE.INTRA.DIHEDRAL.0>
21.6909

>  <SCORE.INTRA.POLAR>
0

>  <SCORE.INTRA.POLAR.0>
0

>  <SCORE.INTRA.REPUL>
0

>  <SCORE.INTRA.REPUL.0>
0

>  <SCORE.INTRA.SOLV>
-0.549117

>  <SCORE.INTRA.SOLV.lig_0>
-116.606

>  <SCORE.INTRA.VDW>
6.75081

>  <SCORE.INTRA.VDW.0>
-6.01229

>  <SCORE.INTRA.norm>
0.195966

>  <SCORE.RESTR>
18.8704

>  <SCORE.RESTR.CAVITY>
18.8704

>  <SCORE.RESTR.norm>
0.449295

>  <SCORE.SYSTEM>
0

>  <SCORE.SYSTEM.CONST>
0

>  <SCORE.SYSTEM.DIHEDRAL>
0

>  <SCORE.SYSTEM.SOLV>
0

>  <SCORE.SYSTEM.norm>
0

>  <SCORE.heavy>
42

>  <SCORE.norm>
0.886836

>  <RMSD>
31.785

$$$$
2et4_lig
 OpenBabel11021811423D
libRbt.so/2013.1/901 2013/11/27
 42 45  0  0  0  0  0  0  0  0999 V2000
   -0.7593   31.1012   18.2606 C   0  0  2  0  0  0  0  0  0  0  0  0
   -1.0565   29.8077   17.7306 O   0  0  0  0  0  0  0  0  0  0  0  0
   -0.2040   30.8917   19.6925 C   0  0  2  0  0  0  0  0  0  0  0  0
    0.9552   30.0362   19.6865 N   0  0  0  0  0  0  0  0  0  0  0  0
   -1.3263   30.3071   20.5979 C   0  0  1  0  0  0  0  0  0  0  0  0
   -0.8292   30.1350   21.8883 O   0  0  0  0  0  0  0  0  0  0  0  0
   -2.5469   31.2862   20.5580 C   0  0  2  0  0  0  0  0  0  0  0  0
   -3.5952   30.7896   21.3630 O   0  0  0  0  0  0  0  0  0  0  0  0
   -3.0618   31.4724   19.0985 C   0  0  2  0  0  0  0  0  0  0  0  0
   -1.9798   31.9559   18.2970 O   0  0  0  0  0  0  0  0  0  0  0  0
   -4.2565   32.4779   19.0150 C   0  0  0  0  0  0  0  0  0  0  0  0
   -3.9048   33.7700   19.4924 N   0  0  0  0  0  0  0  0  0  0  0  0
   -0.6130   28.9434   13.5222 C   0  0  2  0  0  0  0  0  0  0  0  0
   -0.9587   28.7284   12.1115 N   0  0  0  0  0  0  0  0  0  0  0  0
   -1.4140   27.8764   14.4454 C   0  0  0  0  0  0  0  0  0  0  0  0
   -1.0486   28.1222   15.9664 C   0  0  2  0  0  0  0  0  0  0  0  0
   -1.7754   27.1892   16.8456 N   0  0  0  0  0  0  0  0  0  0  0  0
   -1.4069   29.5961   16.3561 C   0  0  2  0  0  0  0  0  0  0  0  0
   -0.6502   30.6133   15.4392 C   0  0  2  0  0  0  0  0  0  0  0  0
   -1.0587   31.9355   15.8681 O   0  0  0  0  0  0  0  0  0  0  0  0
   -1.0273   30.3627   13.9437 C   0  0  1  0  0  0  0  0  0  0  0  0
   -0.3321   31.2681   13.1547 O   0  0  0  0  0  0  0  0  0  0  0  0
   -0.2480   33.0176   15.9579 C   0  0  1  0  0  0  0  0  0  0  0  0
   -0.5895   33.8655   17.2108 C   0  0  2  0  0  0  0  0  0  0  0  0
   -1.6398   34.7633   16.9965 O   0  0  0  0  0  0  0  0  0  0  0  0
    0.7903   34.4168   17.5193 C   0  0  1  0  0  0  0  0  0  0  0  0
    1.7935   33.2974   17.2076 C   0  0  2  0  0  0  0  0  0  0  0  0
    1.1685   32.7116   16.0657 O   0  0  0  0  0  0  0  0  0  0  0  0
    2.0146   32.2507   18.3523 C   0  0  0  0  0  0  0  0  0  0  0  0
    2.4084   32.9845   19.5421 O   0  0  0  0  0  0  0  0  0  0  0  0
    0.1065   36.6756   16.7766 C   0  0  2  0  0  0  0  0  0  0  0  0
    1.0015   35.6045   16.6512 O   0  0  0  0  0  0  0  0  0  0  0  0
   -1.3281   36.3019   16.2003 C   0  0  1  0  0  0  0  0  0  0  0  0
   -0.1287   41.6723   15.4972 N   0  0  0  0  0  0  0  0  0  0  0  0
   -2.2650   37.6088   16.3756 C   0  0  1  0  0  0  0  0  0  0  0  0
   -2.3068   37.9644   17.8485 O   0  0  0  0  0  0  0  0  0  0  0  0
   -1.6588   38.8415   15.5159 C   0  0  2  0  0  0  0  0  0  0  0  0
   -1.6380   38.4816   14.1137 O   0  0  0  0  0  0  0  0  0  0  0  0
   -0.1760   39.1703   16.1101 C   0  0  1  0  0  0  0  0  0  0  0  0
    0.6728   37.9302   16.0492 O   0  0  0  0  0  0  0  0  0  0  0  0
    0.5302   40.3396   15.3385 C   0  0  0  0  0  0  0  0  0  0  0  0
   -1.2075   35.8503   14.7747 N   0  0  0  0  0  0  0  0  0  0  0  0
  1  2  1  1  0  0  0
  1  3  1  0  0  0  0
  1 10  1  0  0  0  0
  3  4  1  6  0  0  0
  3  5  1  0  0  0  0
  5  6  1  1  0  0  0
  5  7  1  0  0  0  0
  7  8  1  1  0  0  0
  7  9  1  0  0  0  0
  9 10  1  0  0  0  0
  9 11  1  1  0  0  0
 11 12  1  0  0  0  0
 13 14  1  6  0  0  0
 13 15  1  0  0  0  0
 13 21  1  0  0  0  0
 16 15  1  0  0  0  0
 16 17  1  1  0  0  0
 18  2  1  1  0  0  0
 18 16  1  0  0  0  0
 19 18  1  0  0  0  0
 19 20  1  1  0  0  0
 21 19  1  0  0  0  0
 21 22  1  6  0  0  0
 23 20  1  1  0  0  0
 23 24  1  0  0  0  0
 23 28  1  0  0  0  0
 24 25  1  6  0  0  0
 24 26  1  0  0  0  0
 26 27  1  0  0  0  0
 26 32  1  6  0  0  0
 27 28  1  0  0  0  0
 27 29  1  1  0  0  0
 29 30  1  0  0  0  0
 31 32  1  6  0  0  0
 31 40  1  0  0  0  0
 33 31  1  0  0  0  0
 33 42  1  6  0  0  0
 35 33  1  0  0  0  0
 35 36  1  1  0  0  0
 37 35  1  0  0  0  0
 37 38  1  6  0  0  0
 37 39  1  0  0  0  0
 39 40  1  0  0  0  0
 39 41  1  6  0  0  0
 41 34  1  0  0  0  0
M  END
>  <CHROM.1>
-170.70865355,59.82320968,155.10112405,140.77632237,-141.15085495,59.67817992
-55.59343909,-70.51491819,66.20883935,-0.84010423,33.17728322,17.00316354
1.95620406,-1.38599559,-2.93507042

>  <Name>
2et4_lig

>  <RI>
0

>  <Rbt.Current_Directory>
/home/itssahil/PROJECTS/Mol_Feturizer/New_Systems/rnas/2et4

>  <Rbt.Executable>
rbdock ($Id: //depot/dev/client3/rdock/2013.1/src/exe/rbdock.cxx#4 $)

>  <Rbt.Library>
libRbt.so (2013.1, Build901 2013/11/27)

>  <Rbt.Parameter_File>
/export/apps/rDock/src/rDock_2013.1_src/data/scripts/dock_solv.prm

>  <Rbt.Receptor>
prm/blind_docking_80.prm

>  <SCORE>
40.4231

>  <SCORE.INTER>
-0.884496

>  <SCORE.INTER.CONST>
1

>  <SCORE.INTER.POLAR>
-1.44151

>  <SCORE.INTER.ROT>
9

>  <SCORE.INTER.SOLV>
25.2736

>  <SCORE.INTER.VDW>
-13.8092

>  <SCORE.INTER.norm>
-0.0210594

>  <SCORE.INTRA>
23.2486

>  <SCORE.INTRA.DIHEDRAL>
-7.25216

>  <SCORE.INTRA.DIHEDRAL.0>
21.6909

>  <SCORE.INTRA.POLAR>
0

>  <SCORE.INTRA.POLAR.0>
0

>  <SCORE.INTRA.REPUL>
0

>  <SCORE.INTRA.REPUL.0>
0

>  <SCORE.INTRA.SOLV>
4.20237

>  <SCORE.INTRA.SOLV.lig_0>
-116.606

>  <SCORE.INTRA.VDW>
24.7735

>  <SCORE.INTRA.VDW.0>
-6.01229

>  <SCORE.INTRA.norm>
0.553537

>  <SCORE.RESTR>
18.059

>  <SCORE.RESTR.CAVITY>
18.059

>  <SCORE.RESTR.norm>
0.429977

>  <SCORE.SYSTEM>
0

>  <SCORE.SYSTEM.CONST>
0

>  <SCORE.SYSTEM.DIHEDRAL>
0

>  <SCORE.SYSTEM.SOLV>
0

>  <SCORE.SYSTEM.norm>
0

>  <SCORE.heavy>
42

>  <SCORE.norm>
0.962455

>  <RMSD>
31.788

$$$$
2et4_lig
 OpenBabel11021811423D
libRbt.so/2013.1/901 2013/11/27
 42 45  0  0  0  0  0  0  0  0999 V2000
   -3.2176   35.7792   12.8409 C   0  0  2  0  0  0  0  0  0  0  0  0
   -3.1763   35.3589   14.2061 O   0  0  0  0  0  0  0  0  0  0  0  0
   -4.7047   36.0351   12.4863 C   0  0  2  0  0  0  0  0  0  0  0  0
   -5.2937   37.0126   13.3657 N   0  0  0  0  0  0  0  0  0  0  0  0
   -5.4846   34.6898   12.5424 C   0  0  1  0  0  0  0  0  0  0  0  0
   -6.8175   34.9201   12.2075 O   0  0  0  0  0  0  0  0  0  0  0  0
   -4.7929   33.6821   11.5647 C   0  0  2  0  0  0  0  0  0  0  0  0
   -5.4658   32.4411   11.5892 O   0  0  0  0  0  0  0  0  0  0  0  0
   -3.2993   33.4662   11.9553 C   0  0  2  0  0  0  0  0  0  0  0  0
   -2.6421   34.7369   11.9443 O   0  0  0  0  0  0  0  0  0  0  0  0
   -2.5642   32.4956   10.9740 C   0  0  0  0  0  0  0  0  0  0  0  0
   -1.5103   31.7852   11.6110 N   0  0  0  0  0  0  0  0  0  0  0  0
   -0.8274   38.4692   16.0671 C   0  0  2  0  0  0  0  0  0  0  0  0
   -0.1292   39.2418   17.1021 N   0  0  0  0  0  0  0  0  0  0  0  0
   -2.4055   38.3757   16.4320 C   0  0  0  0  0  0  0  0  0  0  0  0
   -3.1507   37.5294   15.3204 C   0  0  2  0  0  0  0  0  0  0  0  0
   -4.5862   37.3968   15.6258 N   0  0  0  0  0  0  0  0  0  0  0  0
   -2.5014   36.1073   15.2266 C   0  0  2  0  0  0  0  0  0  0  0  0
   -0.9744   36.2134   14.9030 C   0  0  2  0  0  0  0  0  0  0  0  0
   -0.4698   34.8562   14.8531 O   0  0  0  0  0  0  0  0  0  0  0  0
   -0.2529   37.0441   16.0125 C   0  0  1  0  0  0  0  0  0  0  0  0
    1.0944   37.1332   15.6923 O   0  0  0  0  0  0  0  0  0  0  0  0
   -0.7735   33.8724   15.7340 C   0  0  1  0  0  0  0  0  0  0  0  0
   -0.0876   32.5393   15.3367 C   0  0  2  0  0  0  0  0  0  0  0  0
   -0.8116   31.8109   14.3878 O   0  0  0  0  0  0  0  0  0  0  0  0
    0.1117   31.9430   16.7178 C   0  0  1  0  0  0  0  0  0  0  0  0
    0.4636   33.1067   17.6553 C   0  0  2  0  0  0  0  0  0  0  0  0
   -0.3630   34.1315   17.1037 O   0  0  0  0  0  0  0  0  0  0  0  0
    1.9736   33.5239   17.6763 C   0  0  0  0  0  0  0  0  0  0  0  0
    2.7177   32.4325   18.2798 O   0  0  0  0  0  0  0  0  0  0  0  0
   -1.1878   30.5691   18.3131 C   0  0  2  0  0  0  0  0  0  0  0  0
   -1.1624   31.2854   17.1088 O   0  0  0  0  0  0  0  0  0  0  0  0
   -2.4352   30.9851   19.2080 C   0  0  1  0  0  0  0  0  0  0  0  0
    1.5897   30.6802   22.5339 N   0  0  0  0  0  0  0  0  0  0  0  0
   -2.3511   30.1185   20.5714 C   0  0  1  0  0  0  0  0  0  0  0  0
   -2.3698   28.6497   20.1979 O   0  0  0  0  0  0  0  0  0  0  0  0
   -0.9881   30.4788   21.3707 C   0  0  2  0  0  0  0  0  0  0  0  0
   -0.9982   31.8828   21.7240 O   0  0  0  0  0  0  0  0  0  0  0  0
    0.2652   30.0741   20.4087 C   0  0  1  0  0  0  0  0  0  0  0  0
    0.1395   30.7952   19.0948 O   0  0  0  0  0  0  0  0  0  0  0  0
    1.6517   30.3998   21.0665 C   0  0  0  0  0  0  0  0  0  0  0  0
   -2.4235   32.4658   19.4492 N   0  0  0  0  0  0  0  0  0  0  0  0
  1  2  1  1  0  0  0
  1  3  1  0  0  0  0
  1 10  1  0  0  0  0
  3  4  1  1  0  0  0
  3  5  1  0  0  0  0
  5  6  1  6  0  0  0
  5  7  1  0  0  0  0
  7  8  1  1  0  0  0
  7  9  1  0  0  0  0
  9 10  1  0  0  0  0
  9 11  1  6  0  0  0
 11 12  1  0  0  0  0
 13 14  1  1  0  0  0
 13 15  1  0  0  0  0
 13 21  1  0  0  0  0
 16 15  1  0  0  0  0
 16 17  1  1  0  0  0
 18  2  1  6  0  0  0
 18 16  1  0  0  0  0
 19 18  1  0  0  0  0
 19 20  1  1  0  0  0
 21 19  1  0  0  0  0
 21 22  1  6  0  0  0
 23 20  1  6  0  0  0
 23 24  1  0  0  0  0
 23 28  1  0  0  0  0
 24 25  1  6  0  0  0
 24 26  1  0  0  0  0
 26 27  1  0  0  0  0
 26 32  1  1  0  0  0
 27 28  1  0  0  0  0
 27 29  1  6  0  0  0
 29 30  1  0  0  0  0
 31 32  1  6  0  0  0
 31 40  1  0  0  0  0
 33 31  1  0  0  0  0
 33 42  1  1  0  0  0
 35 33  1  0  0  0  0
 35 36  1  6  0  0  0
 37 35  1  0  0  0  0
 37 38  1  6  0  0  0
 37 39  1  0  0  0  0
 39 40  1  0  0  0  0
 39 41  1  1  0  0  0
 41 34  1  0  0  0  0
M  END
>  <CHROM.1>
-117.29637674,-150.89412005,60.26373843,-43.50391753,178.03083390,175.12493010
-67.65144308,130.47485719,14.64208508,-1.65947230,33.69657608,16.15295136
-2.31749129,0.93087872,2.77003498

>  <Name>
2et4_lig

>  <RI>
0

>  <Rbt.Current_Directory>
/home/itssahil/PROJECTS/Mol_Feturizer/New_Systems/rnas/2et4

>  <Rbt.Executable>
rbdock ($Id: //depot/dev/client3/rdock/2013.1/src/exe/rbdock.cxx#4 $)

>  <Rbt.Library>
libRbt.so (2013.1, Build901 2013/11/27)

>  <Rbt.Parameter_File>
/export/apps/rDock/src/rDock_2013.1_src/data/scripts/dock_solv.prm

>  <Rbt.Receptor>
prm/blind_docking_60.prm

>  <SCORE>
0.685865

>  <SCORE.INTER>
-12.3335

>  <SCORE.INTER.CONST>
1

>  <SCORE.INTER.POLAR>
-0.796717

>  <SCORE.INTER.ROT>
9

>  <SCORE.INTER.SOLV>
29.6676

>  <SCORE.INTER.VDW>
-25.0558

>  <SCORE.INTER.norm>
-0.293654

>  <SCORE.INTRA>
7.10625

>  <SCORE.INTRA.DIHEDRAL>
0.940257

>  <SCORE.INTRA.DIHEDRAL.0>
21.6909

>  <SCORE.INTRA.POLAR>
0

>  <SCORE.INTRA.POLAR.0>
0

>  <SCORE.INTRA.REPUL>
0.187869

>  <SCORE.INTRA.REPUL.0>
0

>  <SCORE.INTRA.SOLV>
4.53315

>  <SCORE.INTRA.SOLV.lig_0>
-116.606

>  <SCORE.INTRA.VDW>
3.4302

>  <SCORE.INTRA.VDW.0>
-6.01229

>  <SCORE.INTRA.norm>
0.169196

>  <SCORE.RESTR>
5.9131

>  <SCORE.RESTR.CAVITY>
5.9131

>  <SCORE.RESTR.norm>
0.140788

>  <SCORE.SYSTEM>
0

>  <SCORE.SYSTEM.CONST>
0

>  <SCORE.SYSTEM.DIHEDRAL>
0

>  <SCORE.SYSTEM.SOLV>
0

>  <SCORE.SYSTEM.norm>
0

>  <SCORE.heavy>
42

>  <SCORE.norm>
0.0163301

>  <RMSD>
31.848

$$$$
2et4_lig
 OpenBabel11021811423D
libRbt.so/2013.1/901 2013/11/27
 42 45  0  0  0  0  0  0  0  0999 V2000
   -1.8199   29.3938   18.9017 C   0  0  2  0  0  0  0  0  0  0  0  0
   -1.4974   30.2610   17.8127 O   0  0  0  0  0  0  0  0  0  0  0  0
   -3.2433   29.7745   19.3831 C   0  0  2  0  0  0  0  0  0  0  0  0
   -4.2041   29.6721   18.3144 N   0  0  0  0  0  0  0  0  0  0  0  0
   -3.2171   31.2128   19.9762 C   0  0  1  0  0  0  0  0  0  0  0  0
   -4.4942   31.5463   20.4228 O   0  0  0  0  0  0  0  0  0  0  0  0
   -2.1578   31.2478   21.1280 C   0  0  2  0  0  0  0  0  0  0  0  0
   -2.0952   32.5407   21.6920 O   0  0  0  0  0  0  0  0  0  0  0  0
   -0.7475   30.8481   20.5977 C   0  0  2  0  0  0  0  0  0  0  0  0
   -0.8383   29.5455   20.0130 O   0  0  0  0  0  0  0  0  0  0  0  0
    0.3295   30.8319   21.7313 C   0  0  0  0  0  0  0  0  0  0  0  0
    1.6167   30.4762   21.2436 N   0  0  0  0  0  0  0  0  0  0  0  0
   -0.3491   28.7831   13.9201 C   0  0  2  0  0  0  0  0  0  0  0  0
   -0.4472   28.3687   12.5150 N   0  0  0  0  0  0  0  0  0  0  0  0
   -1.3438   27.8745   14.8242 C   0  0  0  0  0  0  0  0  0  0  0  0
   -1.2447   28.3352   16.3359 C   0  0  2  0  0  0  0  0  0  0  0  0
   -2.1532   27.5516   17.1916 N   0  0  0  0  0  0  0  0  0  0  0  0
   -1.6065   29.8553   16.4414 C   0  0  2  0  0  0  0  0  0  0  0  0
   -0.6585   30.7162   15.5425 C   0  0  2  0  0  0  0  0  0  0  0  0
   -1.0828   32.0927   15.6986 O   0  0  0  0  0  0  0  0  0  0  0  0
   -0.7738   30.2546   14.0542 C   0  0  1  0  0  0  0  0  0  0  0  0
    0.0865   31.0247   13.2845 O   0  0  0  0  0  0  0  0  0  0  0  0
   -0.2683   33.1388   15.9788 C   0  0  1  0  0  0  0  0  0  0  0  0
   -0.8679   34.0250   17.1016 C   0  0  2  0  0  0  0  0  0  0  0  0
   -1.7880   34.9647   16.6269 O   0  0  0  0  0  0  0  0  0  0  0  0
    0.4175   34.5194   17.7388 C   0  0  1  0  0  0  0  0  0  0  0  0
    1.4115   33.3504   17.6939 C   0  0  2  0  0  0  0  0  0  0  0  0
    1.0610   32.7716   16.4370 O   0  0  0  0  0  0  0  0  0  0  0  0
    1.2916   32.3168   18.8653 C   0  0  0  0  0  0  0  0  0  0  0  0
    2.2219   31.2365   18.5885 O   0  0  0  0  0  0  0  0  0  0  0  0
   -0.0361   36.6749   16.6119 C   0  0  2  0  0  0  0  0  0  0  0  0
    0.8940   35.6797   16.9416 O   0  0  0  0  0  0  0  0  0  0  0  0
    0.5945   37.7536   15.6278 C   0  0  1  0  0  0  0  0  0  0  0  0
   -0.9054   39.6990   19.8603 N   0  0  0  0  0  0  0  0  0  0  0  0
   -0.5520   38.8566   15.3353 C   0  0  1  0  0  0  0  0  0  0  0  0
   -1.7454   38.1460   14.7284 O   0  0  0  0  0  0  0  0  0  0  0  0
   -0.9764   39.5906   16.7164 C   0  0  2  0  0  0  0  0  0  0  0  0
    0.1762   40.2689   17.2709 O   0  0  0  0  0  0  0  0  0  0  0  0
   -1.5823   38.4492   17.7113 C   0  0  1  0  0  0  0  0  0  0  0  0
   -0.5604   37.3630   17.9063 O   0  0  0  0  0  0  0  0  0  0  0  0
   -2.0103   39.0361   19.1019 C   0  0  0  0  0  0  0  0  0  0  0  0
    1.8350   38.3398   16.2348 N   0  0  0  0  0  0  0  0  0  0  0  0
  1  2  1  6  0  0  0
  1  3  1  0  0  0  0
  1 10  1  0  0  0  0
  3  4  1  6  0  0  0
  3  5  1  0  0  0  0
  5  6  1  1  0  0  0
  5  7  1  0  0  0  0
  7  8  1  6  0  0  0
  7  9  1  0  0  0  0
  9 10  1  0  0  0  0
  9 11  1  1  0  0  0
 11 12  1  0  0  0  0
 13 14  1  6  0  0  0
 13 15  1  0  0  0  0
 13 21  1  0  0  0  0
 16 15  1  0  0  0  0
 16 17  1  1  0  0  0
 18  2  1  1  0  0  0
 18 16  1  0  0  0  0
 19 18  1  0  0  0  0
 19 20  1  6  0  0  0
 21 19  1  0  0  0  0
 21 22  1  6  0  0  0
 23 20  1  1  0  0  0
 23 24  1  0  0  0  0
 23 28  1  0  0  0  0
 24 25  1  6  0  0  0
 24 26  1  0  0  0  0
 26 27  1  0  0  0  0
 26 32  1  6  0  0  0
 27 28  1  0  0  0  0
 27 29  1  1  0  0  0
 29 30  1  0  0  0  0
 31 32  1  1  0  0  0
 31 40  1  0  0  0  0
 33 31  1  0  0  0  0
 33 42  1  1  0  0  0
 35 33  1  0  0  0  0
 35 36  1  1  0  0  0
 37 35  1  0  0  0  0
 37 38  1  1  0  0  0
 37 39  1  0  0  0  0
 39 40  1  0  0  0  0
 39 41  1  1  0  0  0
 41 34  1  0  0  0  0
M  END
>  <CHROM.1>
-99.83350250,-179.58749107,-34.22785381,130.34450781,-133.77397496,47.43005944
175.07864004,-173.67783741,-59.07018585,-0.78704030,33.08471448,17.48824089
2.03921837,-1.34484635,-2.72252774

>  <Name>
2et4_lig

>  <RI>
0

>  <Rbt.Current_Directory>
/home/itssahil/PROJECTS/Mol_Feturizer/New_Systems/rnas/2et4

>  <Rbt.Executable>
rbdock ($Id: //depot/dev/client3/rdock/2013.1/src/exe/rbdock.cxx#4 $)

>  <Rbt.Library>
libRbt.so (2013.1, Build901 2013/11/27)

>  <Rbt.Parameter_File>
/export/apps/rDock/src/rDock_2013.1_src/data/scripts/dock_solv.prm

>  <Rbt.Receptor>
prm/blind_docking_80.prm

>  <SCORE>
12.804

>  <SCORE.INTER>
-12.854

>  <SCORE.INTER.CONST>
1

>  <SCORE.INTER.POLAR>
-0.848909

>  <SCORE.INTER.ROT>
9

>  <SCORE.INTER.SOLV>
30.9034

>  <SCORE.INTER.VDW>
-25.6407

>  <SCORE.INTER.norm>
-0.306047

>  <SCORE.INTRA>
9.01534

>  <SCORE.INTRA.DIHEDRAL>
0.683318

>  <SCORE.INTRA.DIHEDRAL.0>
21.6909

>  <SCORE.INTRA.POLAR>
0

>  <SCORE.INTRA.POLAR.0>
0

>  <SCORE.INTRA.REPUL>
0

>  <SCORE.INTRA.REPUL.0>
0

>  <SCORE.INTRA.SOLV>
3.99878

>  <SCORE.INTRA.SOLV.lig_0>
-116.606

>  <SCORE.INTRA.VDW>
6.6743

>  <SCORE.INTRA.VDW.0>
-6.01229

>  <SCORE.INTRA.norm>
0.214651

>  <SCORE.RESTR>
16.6426

>  <SCORE.RESTR.CAVITY>
16.6426

>  <SCORE.RESTR.norm>
0.396253

>  <SCORE.SYSTEM>
0

>  <SCORE.SYSTEM.CONST>
0

>  <SCORE.SYSTEM.DIHEDRAL>
0

>  <SCORE.SYSTEM.SOLV>
0

>  <SCORE.SYSTEM.norm>
0

>  <SCORE.heavy>
42

>  <SCORE.norm>
0.304857

>  <RMSD>
31.852

$$$$
2et4_lig
 OpenBabel11021811423D
libRbt.so/2013.1/901 2013/11/27
 42 45  0  0  0  0  0  0  0  0999 V2000
   -0.2568   29.4775   16.5843 C   0  0  2  0  0  0  0  0  0  0  0  0
    0.1961   30.8139   16.8104 O   0  0  0  0  0  0  0  0  0  0  0  0
   -0.4334   29.3075   15.0538 C   0  0  2  0  0  0  0  0  0  0  0  0
    0.7928   29.5837   14.3497 N   0  0  0  0  0  0  0  0  0  0  0  0
   -1.5817   30.2360   14.5633 C   0  0  1  0  0  0  0  0  0  0  0  0
   -1.7492   30.0693   13.1901 O   0  0  0  0  0  0  0  0  0  0  0  0
   -2.8767   29.8787   15.3666 C   0  0  2  0  0  0  0  0  0  0  0  0
   -3.9462   30.7048   14.9576 O   0  0  0  0  0  0  0  0  0  0  0  0
   -2.6463   30.0546   16.8982 C   0  0  2  0  0  0  0  0  0  0  0  0
   -1.5470   29.2257   17.2869 O   0  0  0  0  0  0  0  0  0  0  0  0
   -3.9082   29.6662   17.7362 C   0  0  0  0  0  0  0  0  0  0  0  0
   -3.6096   29.5166   19.1180 N   0  0  0  0  0  0  0  0  0  0  0  0
    1.1915   30.7776   21.0130 C   0  0  2  0  0  0  0  0  0  0  0  0
    1.5764   31.2569   22.3464 N   0  0  0  0  0  0  0  0  0  0  0  0
    2.3630   31.1353   19.9491 C   0  0  0  0  0  0  0  0  0  0  0  0
    1.9363   30.6290   18.5107 C   0  0  2  0  0  0  0  0  0  0  0  0
    2.9626   30.9567   17.5053 N   0  0  0  0  0  0  0  0  0  0  0  0
    0.5767   31.2934   18.1074 C   0  0  2  0  0  0  0  0  0  0  0  0
   -0.5360   30.9643   19.1568 C   0  0  2  0  0  0  0  0  0  0  0  0
   -1.7391   31.6320   18.7030 O   0  0  0  0  0  0  0  0  0  0  0  0
   -0.1034   31.4768   20.5681 C   0  0  1  0  0  0  0  0  0  0  0  0
   -1.1010   31.1592   21.4788 O   0  0  0  0  0  0  0  0  0  0  0  0
   -1.7761   32.7618   17.9558 C   0  0  1  0  0  0  0  0  0  0  0  0
   -1.7522   34.0246   18.8559 C   0  0  2  0  0  0  0  0  0  0  0  0
   -3.0173   34.3853   19.3294 O   0  0  0  0  0  0  0  0  0  0  0  0
   -1.0221   34.9764   17.9265 C   0  0  1  0  0  0  0  0  0  0  0  0
    0.0410   34.1480   17.1912 C   0  0  2  0  0  0  0  0  0  0  0  0
   -0.6663   32.9185   17.0308 O   0  0  0  0  0  0  0  0  0  0  0  0
    1.3915   33.9477   17.9597 C   0  0  0  0  0  0  0  0  0  0  0  0
    1.5536   35.0790   18.8558 O   0  0  0  0  0  0  0  0  0  0  0  0
   -1.8218   36.8480   16.5196 C   0  0  2  0  0  0  0  0  0  0  0  0
   -2.0260   35.5432   16.9885 O   0  0  0  0  0  0  0  0  0  0  0  0
   -0.7678   36.8770   15.3288 C   0  0  1  0  0  0  0  0  0  0  0  0
   -0.3921   41.4506   18.3842 N   0  0  0  0  0  0  0  0  0  0  0  0
   -0.5953   38.4230   14.8854 C   0  0  1  0  0  0  0  0  0  0  0  0
   -1.9548   38.9482   14.4690 O   0  0  0  0  0  0  0  0  0  0  0  0
   -0.0120   39.2903   16.1240 C   0  0  2  0  0  0  0  0  0  0  0  0
    1.2891   38.7761   16.4966 O   0  0  0  0  0  0  0  0  0  0  0  0
   -1.1001   39.2060   17.3360 C   0  0  1  0  0  0  0  0  0  0  0  0
   -1.3476   37.7643   17.6856 O   0  0  0  0  0  0  0  0  0  0  0  0
   -0.6349   39.9928   18.6111 C   0  0  0  0  0  0  0  0  0  0  0  0
    0.5193   36.2423   15.7663 N   0  0  0  0  0  0  0  0  0  0  0  0
  1  2  1  6  0  0  0
  1  3  1  0  0  0  0
  1 10  1  0  0  0  0
  3  4  1  6  0  0  0
  3  5  1  0  0  0  0
  5  6  1  6  0  0  0
  5  7  1  0  0  0  0
  7  8  1  6  0  0  0
  7  9  1  0  0  0  0
  9 10  1  0  0  0  0
  9 11  1  1  0  0  0
 11 12  1  0  0  0  0
 13 14  1  1  0  0  0
 13 15  1  0  0  0  0
 13 21  1  0  0  0  0
 16 15  1  0  0  0  0
 16 17  1  6  0  0  0
 18  2  1  6  0  0  0
 18 16  1  0  0  0  0
 19 18  1  0  0  0  0
 19 20  1  6  0  0  0
 21 19  1  0  0  0  0
 21 22  1  1  0  0  0
 23 20  1  1  0  0  0
 23 24  1  0  0  0  0
 23 28  1  0  0  0  0
 24 25  1  6  0  0  0
 24 26  1  0  0  0  0
 26 27  1  0  0  0  0
 26 32  1  6  0  0  0
 27 28  1  0  0  0  0
 27 29  1  1  0  0  0
 29 30  1  0  0  0  0
 31 32  1  1  0  0  0
 31 40  1  0  0  0  0
 33 31  1  0  0  0  0
 33 42  1  1  0  0  0
 35 33  1  0  0  0  0
 35 36  1  1  0  0  0
 37 35  1  0  0  0  0
 37 38  1  1  0  0  0
 37 39  1  0  0  0  0
 39 40  1  0  0  0  0
 39 41  1  1  0  0  0
 41 34  1  0  0  0  0
M  END
>  <CHROM.1>
-174.51589535,165.91194173,71.39238766,-27.96348625,-87.95398088,148.44451517
-26.94506659,80.31651905,59.38069756,-0.70237955,33.38353573,17.44546108
1.65312926,1.09793480,2.99306531

>  <Name>
2et4_lig

>  <RI>
0

>  <Rbt.Current_Directory>
/home/itssahil/PROJECTS/Mol_Feturizer/New_Systems/rnas/2et4

>  <Rbt.Executable>
rbdock ($Id: //depot/dev/client3/rdock/2013.1/src/exe/rbdock.cxx#4 $)

>  <Rbt.Library>
libRbt.so (2013.1, Build901 2013/11/27)

>  <Rbt.Parameter_File>
/export/apps/rDock/src/rDock_2013.1_src/data/scripts/dock_solv.prm

>  <Rbt.Receptor>
prm/blind_docking_80.prm

>  <SCORE>
38.9923

>  <SCORE.INTER>
3.97119

>  <SCORE.INTER.CONST>
1

>  <SCORE.INTER.POLAR>
-1.26712

>  <SCORE.INTER.ROT>
9

>  <SCORE.INTER.SOLV>
33.3884

>  <SCORE.INTER.VDW>
-13.8583

>  <SCORE.INTER.norm>
0.0945523

>  <SCORE.INTRA>
15.0783

>  <SCORE.INTRA.DIHEDRAL>
-4.25728

>  <SCORE.INTRA.DIHEDRAL.0>
21.6909

>  <SCORE.INTRA.POLAR>
0

>  <SCORE.INTRA.POLAR.0>
0

>  <SCORE.INTRA.REPUL>
0

>  <SCORE.INTRA.REPUL.0>
0

>  <SCORE.INTRA.SOLV>
5.00692

>  <SCORE.INTRA.SOLV.lig_0>
-116.606

>  <SCORE.INTRA.VDW>
14.7034

>  <SCORE.INTRA.VDW.0>
-6.01229

>  <SCORE.INTRA.norm>
0.359006

>  <SCORE.RESTR>
19.9429

>  <SCORE.RESTR.CAVITY>
19.9429

>  <SCORE.RESTR.norm>
0.47483

>  <SCORE.SYSTEM>
0

>  <SCORE.SYSTEM.CONST>
0

>  <SCORE.SYSTEM.DIHEDRAL>
0

>  <SCORE.SYSTEM.SOLV>
0

>  <SCORE.SYSTEM.norm>
0

>  <SCORE.heavy>
42

>  <SCORE.norm>
0.928389

>  <RMSD>
31.870

$$$$
2et4_lig
 OpenBabel11021811423D
libRbt.so/2013.1/901 2013/11/27
 42 45  0  0  0  0  0  0  0  0999 V2000
   -3.2438   35.9276   12.8916 C   0  0  2  0  0  0  0  0  0  0  0  0
   -3.1750   35.4936   14.2514 O   0  0  0  0  0  0  0  0  0  0  0  0
   -4.7446   36.0857   12.5377 C   0  0  2  0  0  0  0  0  0  0  0  0
   -5.3999   37.0092   13.4284 N   0  0  0  0  0  0  0  0  0  0  0  0
   -5.4306   34.6895   12.5753 C   0  0  1  0  0  0  0  0  0  0  0  0
   -6.7759   34.8323   12.2410 O   0  0  0  0  0  0  0  0  0  0  0  0
   -4.6706   33.7441   11.5861 C   0  0  2  0  0  0  0  0  0  0  0  0
   -5.2571   32.4598   11.5935 O   0  0  0  0  0  0  0  0  0  0  0  0
   -3.1661   33.6259   11.9765 C   0  0  2  0  0  0  0  0  0  0  0  0
   -2.5975   34.9387   11.9828 O   0  0  0  0  0  0  0  0  0  0  0  0
   -2.3654   32.7206   10.9842 C   0  0  0  0  0  0  0  0  0  0  0  0
   -2.9320   31.4221   10.8660 N   0  0  0  0  0  0  0  0  0  0  0  0
   -0.7951   38.5877   16.1000 C   0  0  2  0  0  0  0  0  0  0  0  0
   -0.0936   39.3603   17.1328 N   0  0  0  0  0  0  0  0  0  0  0  0
   -2.3771   38.5208   16.4536 C   0  0  0  0  0  0  0  0  0  0  0  0
   -3.1262   37.6744   15.3446 C   0  0  2  0  0  0  0  0  0  0  0  0
   -4.5657   37.5657   15.6403 N   0  0  0  0  0  0  0  0  0  0  0  0
   -2.4970   36.2422   15.2697 C   0  0  2  0  0  0  0  0  0  0  0  0
   -0.9662   36.3230   14.9569 C   0  0  2  0  0  0  0  0  0  0  0  0
   -0.4811   34.9582   14.9241 O   0  0  0  0  0  0  0  0  0  0  0  0
   -0.2411   37.1540   16.0637 C   0  0  1  0  0  0  0  0  0  0  0  0
    1.1097   37.2204   15.7530 O   0  0  0  0  0  0  0  0  0  0  0  0
   -0.7844   33.9948   15.8276 C   0  0  1  0  0  0  0  0  0  0  0  0
   -0.2436   32.6147   15.3711 C   0  0  2  0  0  0  0  0  0  0  0  0
   -1.1028   31.9530   14.4885 O   0  0  0  0  0  0  0  0  0  0  0  0
    0.0268   31.9942   16.7293 C   0  0  1  0  0  0  0  0  0  0  0  0
    0.5501   33.1193   17.6332 C   0  0  2  0  0  0  0  0  0  0  0  0
   -0.2373   34.2103   17.1564 O   0  0  0  0  0  0  0  0  0  0  0  0
    2.0846   33.4157   17.5228 C   0  0  0  0  0  0  0  0  0  0  0  0
    2.7899   32.2158   17.9376 O   0  0  0  0  0  0  0  0  0  0  0  0
   -1.2219   30.6481   18.3876 C   0  0  2  0  0  0  0  0  0  0  0  0
   -1.2567   31.4364   17.2295 O   0  0  0  0  0  0  0  0  0  0  0  0
   -2.4857   30.9231   19.3134 C   0  0  1  0  0  0  0  0  0  0  0  0
    2.8071   30.5549   20.1647 N   0  0  0  0  0  0  0  0  0  0  0  0
   -2.3300   29.9829   20.6205 C   0  0  1  0  0  0  0  0  0  0  0  0
   -2.2532   28.5416   20.1577 O   0  0  0  0  0  0  0  0  0  0  0  0
   -0.9866   30.3856   21.4327 C   0  0  2  0  0  0  0  0  0  0  0  0
   -1.0880   31.7615   21.8716 O   0  0  0  0  0  0  0  0  0  0  0  0
    0.2816   30.1263   20.4406 C   0  0  1  0  0  0  0  0  0  0  0  0
    0.0947   30.9158   19.1742 O   0  0  0  0  0  0  0  0  0  0  0  0
    1.6493   30.5048   21.1094 C   0  0  0  0  0  0  0  0  0  0  0  0
   -2.5716   32.3837   19.6450 N   0  0  0  0  0  0  0  0  0  0  0  0
  1  2  1  1  0  0  0
  1  3  1  0  0  0  0
  1 10  1  0  0  0  0
  3  4  1  1  0  0  0
  3  5  1  0  0  0  0
  5  6  1  6  0  0  0
  5  7  1  0  0  0  0
  7  8  1  1  0  0  0
  7  9  1  0  0  0  0
  9 10  1  0  0  0  0
  9 11  1  6  0  0  0
 11 12  1  0  0  0  0
 13 14  1  1  0  0  0
 13 15  1  0  0  0  0
 13 21  1  0  0  0  0
 16 15  1  0  0  0  0
 16 17  1  1  0  0  0
 18  2  1  6  0  0  0
 18 16  1  0  0  0  0
 19 18  1  0  0  0  0
 19 20  1  1  0  0  0
 21 19  1  0  0  0  0
 21 22  1  6  0  0  0
 23 20  1  6  0  0  0
 23 24  1  0  0  0  0
 23 28  1  0  0  0  0
 24 25  1  1  0  0  0
 24 26  1  0  0  0  0
 26 27  1  0  0  0  0
 26 32  1  1  0  0  0
 27 28  1  0  0  0  0
 27 29  1  6  0  0  0
 29 30  1  0  0  0  0
 31 32  1  6  0  0  0
 31 40  1  0  0  0  0
 33 31  1  0  0  0  0
 33 42  1  1  0  0  0
 35 33  1  0  0  0  0
 35 36  1  6  0  0  0
 37 35  1  0  0  0  0
 37 38  1  6  0  0  0
 37 39  1  0  0  0  0
 39 40  1  0  0  0  0
 39 41  1  1  0  0  0
 41 34  1  0  0  0  0
M  END
>  <CHROM.1>
-120.43275827,-55.98304400,57.77453137,-44.92101397,172.32417647,171.37922680
-62.26093573,141.80028495,-168.08494349,-1.65599860,33.73692493,16.11297979
-2.31885289,0.90975984,2.79011421

>  <Name>
2et4_lig

>  <RI>
0

>  <Rbt.Current_Directory>
/home/itssahil/PROJECTS/Mol_Feturizer/New_Systems/rnas/2et4

>  <Rbt.Executable>
rbdock ($Id: //depot/dev/client3/rdock/2013.1/src/exe/rbdock.cxx#4 $)

>  <Rbt.Library>
libRbt.so (2013.1, Build901 2013/11/27)

>  <Rbt.Parameter_File>
/export/apps/rDock/src/rDock_2013.1_src/data/scripts/dock_solv.prm

>  <Rbt.Receptor>
prm/blind_docking_60.prm

>  <SCORE>
0.262437

>  <SCORE.INTER>
-7.75345

>  <SCORE.INTER.CONST>
1

>  <SCORE.INTER.POLAR>
0

>  <SCORE.INTER.ROT>
9

>  <SCORE.INTER.SOLV>
26.2294

>  <SCORE.INTER.VDW>
-23.5121

>  <SCORE.INTER.norm>
-0.184606

>  <SCORE.INTRA>
1.94526

>  <SCORE.INTRA.DIHEDRAL>
-6.94897

>  <SCORE.INTRA.DIHEDRAL.0>
21.6909

>  <SCORE.INTRA.POLAR>
0

>  <SCORE.INTRA.POLAR.0>
0

>  <SCORE.INTRA.REPUL>
0.026617

>  <SCORE.INTRA.REPUL.0>
0

>  <SCORE.INTRA.SOLV>
4.4154

>  <SCORE.INTRA.SOLV.lig_0>
-116.606

>  <SCORE.INTRA.VDW>
3.07896

>  <SCORE.INTRA.VDW.0>
-6.01229

>  <SCORE.INTRA.norm>
0.0463158

>  <SCORE.RESTR>
6.07062

>  <SCORE.RESTR.CAVITY>
6.07062

>  <SCORE.RESTR.norm>
0.144539

>  <SCORE.SYSTEM>
0

>  <SCORE.SYSTEM.CONST>
0

>  <SCORE.SYSTEM.DIHEDRAL>
0

>  <SCORE.SYSTEM.SOLV>
0

>  <SCORE.SYSTEM.norm>
0

>  <SCORE.heavy>
42

>  <SCORE.norm>
0.00624849

>  <RMSD>
31.876

$$$$
2et4_lig
 OpenBabel11021811423D
libRbt.so/2013.1/901 2013/11/27
 42 45  0  0  0  0  0  0  0  0999 V2000
   -3.7023   33.1414   12.9623 C   0  0  2  0  0  0  0  0  0  0  0  0
   -3.3277   34.4740   12.6071 O   0  0  0  0  0  0  0  0  0  0  0  0
   -2.4917   32.2266   12.6459 C   0  0  2  0  0  0  0  0  0  0  0  0
   -1.3104   32.6564   13.3497 N   0  0  0  0  0  0  0  0  0  0  0  0
   -2.2513   32.2068   11.1087 C   0  0  1  0  0  0  0  0  0  0  0  0
   -1.1728   31.3711   10.8256 O   0  0  0  0  0  0  0  0  0  0  0  0
   -3.5699   31.7299   10.4133 C   0  0  2  0  0  0  0  0  0  0  0  0
   -3.3987   31.7038    9.0120 O   0  0  0  0  0  0  0  0  0  0  0  0
   -4.7582   32.6737   10.7698 C   0  0  2  0  0  0  0  0  0  0  0  0
   -4.9007   32.7013   12.1930 O   0  0  0  0  0  0  0  0  0  0  0  0
   -6.1030   32.2034   10.1248 C   0  0  0  0  0  0  0  0  0  0  0  0
   -5.9253   31.7357    8.7941 N   0  0  0  0  0  0  0  0  0  0  0  0
   -3.4414   38.5656   13.9857 C   0  0  2  0  0  0  0  0  0  0  0  0
   -3.6677   39.7240   14.8589 N   0  0  0  0  0  0  0  0  0  0  0  0
   -4.8496   37.8062   13.7161 C   0  0  0  0  0  0  0  0  0  0  0  0
   -4.5973   36.5499   12.7859 C   0  0  2  0  0  0  0  0  0  0  0  0
   -5.8490   35.8136   12.5353 N   0  0  0  0  0  0  0  0  0  0  0  0
   -3.5571   35.5982   13.4676 C   0  0  2  0  0  0  0  0  0  0  0  0
   -2.2146   36.3512   13.7479 C   0  0  2  0  0  0  0  0  0  0  0  0
   -1.3334   35.3955   14.3875 O   0  0  0  0  0  0  0  0  0  0  0  0
   -2.4794   37.5825   14.6726 C   0  0  1  0  0  0  0  0  0  0  0  0
   -1.2759   38.2376   14.8921 O   0  0  0  0  0  0  0  0  0  0  0  0
   -1.4071   35.0033   15.6825 C   0  0  1  0  0  0  0  0  0  0  0  0
   -0.1066   34.2796   16.1189 C   0  0  2  0  0  0  0  0  0  0  0  0
   -0.0958   32.9216   15.7860 O   0  0  0  0  0  0  0  0  0  0  0  0
   -0.0859   34.6719   17.5847 C   0  0  1  0  0  0  0  0  0  0  0  0
   -0.6028   36.1153   17.6635 C   0  0  2  0  0  0  0  0  0  0  0  0
   -1.5945   36.0826   16.6373 O   0  0  0  0  0  0  0  0  0  0  0  0
    0.4668   37.2306   17.4053 C   0  0  0  0  0  0  0  0  0  0  0  0
    0.8868   37.1174   16.0197 O   0  0  0  0  0  0  0  0  0  0  0  0
   -0.5021   32.4270   18.5381 C   0  0  2  0  0  0  0  0  0  0  0  0
   -0.9731   33.7275   18.3127 O   0  0  0  0  0  0  0  0  0  0  0  0
   -1.6073   31.5246   19.2409 C   0  0  1  0  0  0  0  0  0  0  0  0
    3.3323   30.0971   21.0963 N   0  0  0  0  0  0  0  0  0  0  0  0
   -0.9514   30.0639   19.4707 C   0  0  1  0  0  0  0  0  0  0  0  0
   -0.5308   29.5187   18.1204 O   0  0  0  0  0  0  0  0  0  0  0  0
    0.3314   30.1838   20.4538 C   0  0  2  0  0  0  0  0  0  0  0  0
   -0.0971   30.6971   21.7380 O   0  0  0  0  0  0  0  0  0  0  0  0
    1.4244   31.1444   19.7175 C   0  0  1  0  0  0  0  0  0  0  0  0
    0.7914   32.4721   19.4034 O   0  0  0  0  0  0  0  0  0  0  0  0
    2.7122   31.3589   20.5875 C   0  0  0  0  0  0  0  0  0  0  0  0
   -2.0654   32.1719   20.5145 N   0  0  0  0  0  0  0  0  0  0  0  0
  1  2  1  6  0  0  0
  1  3  1  0  0  0  0
  1 10  1  0  0  0  0
  3  4  1  1  0  0  0
  3  5  1  0  0  0  0
  5  6  1  1  0  0  0
  5  7  1  0  0  0  0
  7  8  1  6  0  0  0
  7  9  1  0  0  0  0
  9 10  1  0  0  0  0
  9 11  1  6  0  0  0
 11 12  1  0  0  0  0
 13 14  1  1  0  0  0
 13 15  1  0  0  0  0
 13 21  1  0  0  0  0
 16 15  1  0  0  0  0
 16 17  1  1  0  0  0
 18  2  1  6  0  0  0
 18 16  1  0  0  0  0
 19 18  1  0  0  0  0
 19 20  1  1  0  0  0
 21 19  1  0  0  0  0
 21 22  1  6  0  0  0
 23 20  1  6  0  0  0
 23 24  1  0  0  0  0
 23 28  1  0  0  0  0
 24 25  1  1  0  0  0
 24 26  1  0  0  0  0
 26 27  1  0  0  0  0
 26 32  1  1  0  0  0
 27 28  1  0  0  0  0
 27 29  1  6  0  0  0
 29 30  1  0  0  0  0
 31 32  1  1  0  0  0
 31 40  1  0  0  0  0
 33 31  1  0  0  0  0
 33 42  1  1  0  0  0
 35 33  1  0  0  0  0
 35 36  1  6  0  0  0
 37 35  1  0  0  0  0
 37 38  1  1  0  0  0
 37 39  1  0  0  0  0
 39 40  1  0  0  0  0
 39 41  1  1  0  0  0
 41 34  1  0  0  0  0
M  END
>  <CHROM.1>
-133.22494727,-40.49318312,-114.23784775,-76.74939020,-164.85991503,74.82501863
66.12011231,-176.26775604,50.98197228,-1.80418555,33.78235008,15.33463807
3.03092738,-1.06799354,0.15526142

>  <Name>
2et4_lig

>  <RI>
0

>  <Rbt.Current_Directory>
/home/itssahil/PROJECTS/Mol_Feturizer/New_Systems/rnas/2et4

>  <Rbt.Executable>
rbdock ($Id: //depot/dev/client3/rdock/2013.1/src/exe/rbdock.cxx#4 $)

>  <Rbt.Library>
libRbt.so (2013.1, Build901 2013/11/27)

>  <Rbt.Parameter_File>
/export/apps/rDock/src/rDock_2013.1_src/data/scripts/dock_solv.prm

>  <Rbt.Receptor>
prm/blind_docking_60.prm

>  <SCORE>
2.62091

>  <SCORE.INTER>
-6.38755

>  <SCORE.INTER.CONST>
1

>  <SCORE.INTER.POLAR>
-0.56358

>  <SCORE.INTER.ROT>
9

>  <SCORE.INTER.SOLV>
37.371

>  <SCORE.INTER.VDW>
-24.4368

>  <SCORE.INTER.norm>
-0.152084

>  <SCORE.INTRA>
2.91972

>  <SCORE.INTRA.DIHEDRAL>
-2.99214

>  <SCORE.INTRA.DIHEDRAL.0>
21.6909

>  <SCORE.INTRA.POLAR>
0

>  <SCORE.INTRA.POLAR.0>
0

>  <SCORE.INTRA.REPUL>
0

>  <SCORE.INTRA.REPUL.0>
0

>  <SCORE.INTRA.SOLV>
3.72634

>  <SCORE.INTRA.SOLV.lig_0>
-116.606

>  <SCORE.INTRA.VDW>
2.55262

>  <SCORE.INTRA.VDW.0>
-6.01229

>  <SCORE.INTRA.norm>
0.0695171

>  <SCORE.RESTR>
6.08874

>  <SCORE.RESTR.CAVITY>
6.08874

>  <SCORE.RESTR.norm>
0.14497

>  <SCORE.SYSTEM>
0

>  <SCORE.SYSTEM.CONST>
0

>  <SCORE.SYSTEM.DIHEDRAL>
0

>  <SCORE.SYSTEM.SOLV>
0

>  <SCORE.SYSTEM.norm>
0

>  <SCORE.heavy>
42

>  <SCORE.norm>
0.0624026

>  <RMSD>
31.883

$$$$
2et4_lig
 OpenBabel11021811423D
libRbt.so/2013.1/901 2013/11/27
 42 45  0  0  0  0  0  0  0  0999 V2000
   -1.9935   29.2227   18.7633 C   0  0  2  0  0  0  0  0  0  0  0  0
   -1.8372   30.1329   17.6728 O   0  0  0  0  0  0  0  0  0  0  0  0
   -3.2094   29.7082   19.5931 C   0  0  2  0  0  0  0  0  0  0  0  0
   -4.3997   29.7853   18.7851 N   0  0  0  0  0  0  0  0  0  0  0  0
   -2.8767   31.0872   20.2326 C   0  0  1  0  0  0  0  0  0  0  0  0
   -3.9652   31.5136   20.9910 O   0  0  0  0  0  0  0  0  0  0  0  0
   -1.5797   30.9269   21.0940 C   0  0  2  0  0  0  0  0  0  0  0  0
   -1.2358   32.1602   21.6892 O   0  0  0  0  0  0  0  0  0  0  0  0
   -0.3902   30.4276   20.2189 C   0  0  2  0  0  0  0  0  0  0  0  0
   -0.7673   29.1892   19.6100 O   0  0  0  0  0  0  0  0  0  0  0  0
    0.9137   30.2162   21.0558 C   0  0  0  0  0  0  0  0  0  0  0  0
    1.6797   31.4087   21.1665 N   0  0  0  0  0  0  0  0  0  0  0  0
    0.0795   28.7237   14.0679 C   0  0  2  0  0  0  0  0  0  0  0  0
    0.2563   28.2786   12.6800 N   0  0  0  0  0  0  0  0  0  0  0  0
   -0.9509   27.7286   14.8296 C   0  0  0  0  0  0  0  0  0  0  0  0
   -1.1489   28.2217   16.3212 C   0  0  2  0  0  0  0  0  0  0  0  0
   -2.0997   27.3592   17.0449 N   0  0  0  0  0  0  0  0  0  0  0  0
   -1.6777   29.6957   16.3162 C   0  0  2  0  0  0  0  0  0  0  0  0
   -0.6890   30.6386   15.5537 C   0  0  2  0  0  0  0  0  0  0  0  0
   -1.2726   31.9641   15.5933 O   0  0  0  0  0  0  0  0  0  0  0  0
   -0.5107   30.1433   14.0825 C   0  0  1  0  0  0  0  0  0  0  0  0
    0.3802   30.9885   13.4364 O   0  0  0  0  0  0  0  0  0  0  0  0
   -0.5805   33.1243   15.6991 C   0  0  1  0  0  0  0  0  0  0  0  0
   -1.1484   34.0082   16.8400 C   0  0  2  0  0  0  0  0  0  0  0  0
   -2.2416   34.7834   16.4414 O   0  0  0  0  0  0  0  0  0  0  0  0
    0.1274   34.7104   17.2665 C   0  0  1  0  0  0  0  0  0  0  0  0
    1.2587   33.6786   17.1544 C   0  0  2  0  0  0  0  0  0  0  0  0
    0.8340   32.9665   15.9924 O   0  0  0  0  0  0  0  0  0  0  0  0
    1.4319   32.7296   18.3889 C   0  0  0  0  0  0  0  0  0  0  0  0
    1.9553   33.5296   19.4821 O   0  0  0  0  0  0  0  0  0  0  0  0
    0.1042   37.1482   16.8446 C   0  0  2  0  0  0  0  0  0  0  0  0
    0.3348   35.8588   16.3462 O   0  0  0  0  0  0  0  0  0  0  0  0
   -1.3870   37.3058   17.3749 C   0  0  1  0  0  0  0  0  0  0  0  0
   -0.4385   40.5341   13.8070 N   0  0  0  0  0  0  0  0  0  0  0  0
   -1.5449   38.8272   17.9016 C   0  0  1  0  0  0  0  0  0  0  0  0
   -0.5153   39.0583   18.9897 O   0  0  0  0  0  0  0  0  0  0  0  0
   -1.3112   39.8620   16.6765 C   0  0  2  0  0  0  0  0  0  0  0  0
   -2.3111   39.6279   15.6559 O   0  0  0  0  0  0  0  0  0  0  0  0
    0.2121   39.6449   16.1360 C   0  0  1  0  0  0  0  0  0  0  0  0
    0.4020   38.2060   15.7417 O   0  0  0  0  0  0  0  0  0  0  0  0
    0.5542   40.5807   14.9241 C   0  0  0  0  0  0  0  0  0  0  0  0
   -2.3590   36.9549   16.2873 N   0  0  0  0  0  0  0  0  0  0  0  0
  1  2  1  6  0  0  0
  1  3  1  0  0  0  0
  1 10  1  0  0  0  0
  3  4  1  6  0  0  0
  3  5  1  0  0  0  0
  5  6  1  1  0  0  0
  5  7  1  0  0  0  0
  7  8  1  6  0  0  0
  7  9  1  0  0  0  0
  9 10  1  0  0  0  0
  9 11  1  1  0  0  0
 11 12  1  0  0  0  0
 13 14  1  6  0  0  0
 13 15  1  0  0  0  0
 13 21  1  0  0  0  0
 16 15  1  0  0  0  0
 16 17  1  6  0  0  0
 18  2  1  1  0  0  0
 18 16  1  0  0  0  0
 19 18  1  0  0  0  0
 19 20  1  6  0  0  0
 21 19  1  0  0  0  0
 21 22  1  6  0  0  0
 23 20  1  1  0  0  0
 23 24  1  0  0  0  0
 23 28  1  0  0  0  0
 24 25  1  6  0  0  0
 24 26  1  0  0  0  0
 26 27  1  0  0  0  0
 26 32  1  6  0  0  0
 27 28  1  0  0  0  0
 27 29  1  1  0  0  0
 29 30  1  0  0  0  0
 31 32  1  6  0  0  0
 31 40  1  0  0  0  0
 33 31  1  0  0  0  0
 33 42  1  6  0  0  0
 35 33  1  0  0  0  0
 35 36  1  1  0  0  0
 37 35  1  0  0  0  0
 37 38  1  6  0  0  0
 37 39  1  0  0  0  0
 39 40  1  0  0  0  0
 39 41  1  6  0  0  0
 41 34  1  0  0  0  0
M  END
>  <CHROM.1>
-131.20947534,-87.03048991,-22.09699185,144.52178643,-129.24276793,107.01538557
-70.41865523,-58.43236365,-51.35820661,-0.80167872,33.19320109,17.26656009
1.99660916,-1.39860019,-2.87649519

>  <Name>
2et4_lig

>  <RI>
0

>  <Rbt.Current_Directory>
/home/itssahil/PROJECTS/Mol_Feturizer/New_Systems/rnas/2et4

>  <Rbt.Executable>
rbdock ($Id: //depot/dev/client3/rdock/2013.1/src/exe/rbdock.cxx#4 $)

>  <Rbt.Library>
libRbt.so (2013.1, Build901 2013/11/27)

>  <Rbt.Parameter_File>
/export/apps/rDock/src/rDock_2013.1_src/data/scripts/dock_solv.prm

>  <Rbt.Receptor>
prm/blind_docking_80.prm

>  <SCORE>
24.8636

>  <SCORE.INTER>
-9.01585

>  <SCORE.INTER.CONST>
1

>  <SCORE.INTER.POLAR>
-1.44744

>  <SCORE.INTER.ROT>
9

>  <SCORE.INTER.SOLV>
25.4864

>  <SCORE.INTER.VDW>
-19.2812

>  <SCORE.INTER.norm>
-0.214663

>  <SCORE.INTRA>
16.6177

>  <SCORE.INTRA.DIHEDRAL>
10.7506

>  <SCORE.INTRA.DIHEDRAL.0>
21.6909

>  <SCORE.INTRA.POLAR>
0

>  <SCORE.INTRA.POLAR.0>
0

>  <SCORE.INTRA.REPUL>
0

>  <SCORE.INTRA.REPUL.0>
0

>  <SCORE.INTRA.SOLV>
5.12146

>  <SCORE.INTRA.SOLV.lig_0>
-116.606

>  <SCORE.INTRA.VDW>
8.68162

>  <SCORE.INTRA.VDW.0>
-6.01229

>  <SCORE.INTRA.norm>
0.395658

>  <SCORE.RESTR>
17.2618

>  <SCORE.RESTR.CAVITY>
17.2618

>  <SCORE.RESTR.norm>
0.410995

>  <SCORE.SYSTEM>
0

>  <SCORE.SYSTEM.CONST>
0

>  <SCORE.SYSTEM.DIHEDRAL>
0

>  <SCORE.SYSTEM.SOLV>
0

>  <SCORE.SYSTEM.norm>
0

>  <SCORE.heavy>
42

>  <SCORE.norm>
0.591991

>  <RMSD>
31.886

$$$$
2et4_lig
 OpenBabel11021811423D
libRbt.so/2013.1/901 2013/11/27
 42 45  0  0  0  0  0  0  0  0999 V2000
    0.8023   32.7235   18.5982 C   0  0  2  0  0  0  0  0  0  0  0  0
    0.8968   31.7326   17.5728 O   0  0  0  0  0  0  0  0  0  0  0  0
    1.7762   32.3049   19.7292 C   0  0  2  0  0  0  0  0  0  0  0  0
    3.1239   32.1690   19.2384 N   0  0  0  0  0  0  0  0  0  0  0  0
    1.2777   30.9779   20.3709 C   0  0  1  0  0  0  0  0  0  0  0  0
    2.1458   30.6126   21.3978 O   0  0  0  0  0  0  0  0  0  0  0  0
   -0.1850   31.2007   20.8816 C   0  0  2  0  0  0  0  0  0  0  0  0
   -0.6815   30.0155   21.4669 O   0  0  0  0  0  0  0  0  0  0  0  0
   -1.1222   31.6295   19.7121 C   0  0  2  0  0  0  0  0  0  0  0  0
   -0.5902   32.8188   19.1210 O   0  0  0  0  0  0  0  0  0  0  0  0
   -2.5849   31.9014   20.1936 C   0  0  0  0  0  0  0  0  0  0  0  0
   -3.2239   30.7210   20.6620 N   0  0  0  0  0  0  0  0  0  0  0  0
   -1.3868   29.7315   14.5011 C   0  0  2  0  0  0  0  0  0  0  0  0
   -2.5291   29.3170   13.6771 N   0  0  0  0  0  0  0  0  0  0  0  0
   -1.6580   29.3246   16.0481 C   0  0  0  0  0  0  0  0  0  0  0  0
   -0.4297   29.7869   16.9341 C   0  0  2  0  0  0  0  0  0  0  0  0
   -0.6453   29.4594   18.3546 N   0  0  0  0  0  0  0  0  0  0  0  0
   -0.2274   31.3319   16.7774 C   0  0  2  0  0  0  0  0  0  0  0  0
    0.0041   31.7132   15.2778 C   0  0  2  0  0  0  0  0  0  0  0  0
    0.1638   33.1527   15.2399 O   0  0  0  0  0  0  0  0  0  0  0  0
   -1.2192   31.2576   14.4190 C   0  0  1  0  0  0  0  0  0  0  0  0
   -0.9801   31.5956   13.0946 O   0  0  0  0  0  0  0  0  0  0  0  0
   -0.8331   34.0580   15.3913 C   0  0  1  0  0  0  0  0  0  0  0  0
   -1.3005   34.1283   16.8685 C   0  0  2  0  0  0  0  0  0  0  0  0
   -2.2426   33.1475   17.1935 O   0  0  0  0  0  0  0  0  0  0  0  0
   -1.7154   35.5868   16.9269 C   0  0  1  0  0  0  0  0  0  0  0  0
   -0.7096   36.3674   16.0691 C   0  0  2  0  0  0  0  0  0  0  0  0
   -0.4815   35.4198   15.0261 O   0  0  0  0  0  0  0  0  0  0  0  0
    0.6211   36.7727   16.7898 C   0  0  0  0  0  0  0  0  0  0  0  0
    1.2203   37.8501   16.0221 O   0  0  0  0  0  0  0  0  0  0  0  0
   -3.2472   36.0757   15.0465 C   0  0  2  0  0  0  0  0  0  0  0  0
   -3.0951   35.6811   16.3826 O   0  0  0  0  0  0  0  0  0  0  0  0
   -4.5214   37.0093   14.8600 C   0  0  1  0  0  0  0  0  0  0  0  0
   -4.9187   33.0379   11.9909 N   0  0  0  0  0  0  0  0  0  0  0  0
   -4.6102   37.3824   13.2885 C   0  0  1  0  0  0  0  0  0  0  0  0
   -3.3210   38.0759   12.8954 O   0  0  0  0  0  0  0  0  0  0  0  0
   -4.8142   36.0345   12.4122 C   0  0  2  0  0  0  0  0  0  0  0  0
   -6.0549   35.3963   12.7989 O   0  0  0  0  0  0  0  0  0  0  0  0
   -3.5087   35.0885   12.6581 C   0  0  1  0  0  0  0  0  0  0  0  0
   -3.3553   34.8216   14.1303 O   0  0  0  0  0  0  0  0  0  0  0  0
   -3.5993   33.7317   11.8757 C   0  0  0  0  0  0  0  0  0  0  0  0
   -5.7480   36.3125   15.3704 N   0  0  0  0  0  0  0  0  0  0  0  0
  1  2  1  6  0  0  0
  1  3  1  0  0  0  0
  1 10  1  0  0  0  0
  3  4  1  6  0  0  0
  3  5  1  0  0  0  0
  5  6  1  1  0  0  0
  5  7  1  0  0  0  0
  7  8  1  6  0  0  0
  7  9  1  0  0  0  0
  9 10  1  0  0  0  0
  9 11  1  1  0  0  0
 11 12  1  0  0  0  0
 13 14  1  6  0  0  0
 13 15  1  0  0  0  0
 13 21  1  0  0  0  0
 16 15  1  0  0  0  0
 16 17  1  1  0  0  0
 18  2  1  1  0  0  0
 18 16  1  0  0  0  0
 19 18  1  0  0  0  0
 19 20  1  1  0  0  0
 21 19  1  0  0  0  0
 21 22  1  6  0  0  0
 23 20  1  1  0  0  0
 23 24  1  0  0  0  0
 23 28  1  0  0  0  0
 24 25  1  6  0  0  0
 24 26  1  0  0  0  0
 26 27  1  0  0  0  0
 26 32  1  6  0  0  0
 27 28  1  0  0  0  0
 27 29  1  1  0  0  0
 29 30  1  0  0  0  0
 31 32  1  1  0  0  0
 31 40  1  0  0  0  0
 33 31  1  0  0  0  0
 33 42  1  6  0  0  0
 35 33  1  0  0  0  0
 35 36  1  6  0  0  0
 37 35  1  0  0  0  0
 37 38  1  1  0  0  0
 37 39  1  0  0  0  0
 39 40  1  0  0  0  0
 39 41  1  6  0  0  0
 41 34  1  0  0  0  0
M  END
>  <CHROM.1>
145.45272181,-65.99467214,-122.66558174,-73.84190782,73.12527790,-98.38606182
-160.96126490,-142.55941169,-46.17795757,-1.50573194,33.29507674,16.36245481
-0.60735310,-0.96006703,-0.03488262

>  <Name>
2et4_lig

>  <RI>
0

>  <Rbt.Current_Directory>
/home/itssahil/PROJECTS/Mol_Feturizer/New_Systems/rnas/2et4

>  <Rbt.Executable>
rbdock ($Id: //depot/dev/client3/rdock/2013.1/src/exe/rbdock.cxx#4 $)

>  <Rbt.Library>
libRbt.so (2013.1, Build901 2013/11/27)

>  <Rbt.Parameter_File>
/export/apps/rDock/src/rDock_2013.1_src/data/scripts/dock_solv.prm

>  <Rbt.Receptor>
prm/blind_docking_60.prm

>  <SCORE>
8.69906

>  <SCORE.INTER>
-10.5697

>  <SCORE.INTER.CONST>
1

>  <SCORE.INTER.POLAR>
-1.15702

>  <SCORE.INTER.ROT>
9

>  <SCORE.INTER.SOLV>
21.2064

>  <SCORE.INTER.VDW>
-19.8586

>  <SCORE.INTER.norm>
-0.25166

>  <SCORE.INTRA>
7.8064

>  <SCORE.INTRA.DIHEDRAL>
3.72739

>  <SCORE.INTRA.DIHEDRAL.0>
21.6909

>  <SCORE.INTRA.POLAR>
0

>  <SCORE.INTRA.POLAR.0>
0

>  <SCORE.INTRA.REPUL>
0

>  <SCORE.INTRA.REPUL.0>
0

>  <SCORE.INTRA.SOLV>
5.28107

>  <SCORE.INTRA.SOLV.lig_0>
-116.606

>  <SCORE.INTRA.VDW>
3.30217

>  <SCORE.INTRA.VDW.0>
-6.01229

>  <SCORE.INTRA.norm>
0.185867

>  <SCORE.RESTR>
11.4624

>  <SCORE.RESTR.CAVITY>
11.4624

>  <SCORE.RESTR.norm>
0.272914

>  <SCORE.SYSTEM>
0

>  <SCORE.SYSTEM.CONST>
0

>  <SCORE.SYSTEM.DIHEDRAL>
0

>  <SCORE.SYSTEM.SOLV>
0

>  <SCORE.SYSTEM.norm>
0

>  <SCORE.heavy>
42

>  <SCORE.norm>
0.20712

>  <RMSD>
31.923

$$$$
2et4_lig
 OpenBabel11021811423D
libRbt.so/2013.1/901 2013/11/27
 42 45  0  0  0  0  0  0  0  0999 V2000
   -1.6566   30.8075   19.1408 C   0  0  2  0  0  0  0  0  0  0  0  0
   -2.4121   31.0628   17.9549 O   0  0  0  0  0  0  0  0  0  0  0  0
   -2.2737   29.5556   19.8151 C   0  0  2  0  0  0  0  0  0  0  0  0
   -2.2705   28.4236   18.9239 N   0  0  0  0  0  0  0  0  0  0  0  0
   -3.7169   29.8884   20.2920 C   0  0  1  0  0  0  0  0  0  0  0  0
   -4.2633   28.7665   20.9122 O   0  0  0  0  0  0  0  0  0  0  0  0
   -3.6423   31.1208   21.2541 C   0  0  2  0  0  0  0  0  0  0  0  0
   -4.9351   31.4632   21.7069 O   0  0  0  0  0  0  0  0  0  0  0  0
   -3.0062   32.3488   20.5350 C   0  0  2  0  0  0  0  0  0  0  0  0
   -1.7072   31.9741   20.0670 O   0  0  0  0  0  0  0  0  0  0  0  0
   -2.8774   33.5882   21.4799 C   0  0  0  0  0  0  0  0  0  0  0  0
   -3.9856   33.7076   22.3624 N   0  0  0  0  0  0  0  0  0  0  0  0
   -1.0013   29.0872   14.3826 C   0  0  2  0  0  0  0  0  0  0  0  0
   -0.4434   28.8951   13.0382 N   0  0  0  0  0  0  0  0  0  0  0  0
   -2.3564   29.9741   14.2859 C   0  0  0  0  0  0  0  0  0  0  0  0
   -2.9456   30.1902   15.7397 C   0  0  2  0  0  0  0  0  0  0  0  0
   -4.1664   31.0147   15.7018 N   0  0  0  0  0  0  0  0  0  0  0  0
   -1.8698   30.8880   16.6387 C   0  0  2  0  0  0  0  0  0  0  0  0
   -0.5587   30.0364   16.6995 C   0  0  2  0  0  0  0  0  0  0  0  0
    0.3691   30.7700   17.5362 O   0  0  0  0  0  0  0  0  0  0  0  0
    0.0137   29.8391   15.2591 C   0  0  1  0  0  0  0  0  0  0  0  0
    1.1658   29.0702   15.3427 O   0  0  0  0  0  0  0  0  0  0  0  0
    0.8075   32.0312   17.3045 C   0  0  1  0  0  0  0  0  0  0  0  0
    0.1700   33.0332   18.3020 C   0  0  2  0  0  0  0  0  0  0  0  0
   -1.0933   33.4784   17.9008 O   0  0  0  0  0  0  0  0  0  0  0  0
    1.3018   34.0394   18.3982 C   0  0  1  0  0  0  0  0  0  0  0  0
    2.6107   33.2384   18.3528 C   0  0  2  0  0  0  0  0  0  0  0  0
    2.2438   32.2111   17.4321 O   0  0  0  0  0  0  0  0  0  0  0  0
    3.0896   32.6492   19.7233 C   0  0  0  0  0  0  0  0  0  0  0  0
    3.4378   33.7690   20.5799 O   0  0  0  0  0  0  0  0  0  0  0  0
    0.2684   36.0227   17.3398 C   0  0  2  0  0  0  0  0  0  0  0  0
    1.1792   34.9623   17.2397 O   0  0  0  0  0  0  0  0  0  0  0  0
   -1.1142   35.6664   16.6390 C   0  0  1  0  0  0  0  0  0  0  0  0
   -0.0266   41.0079   16.0130 N   0  0  0  0  0  0  0  0  0  0  0  0
   -2.0727   36.9601   16.7954 C   0  0  1  0  0  0  0  0  0  0  0  0
   -2.2310   37.2531   18.2741 O   0  0  0  0  0  0  0  0  0  0  0  0
   -1.4120   38.2309   16.0372 C   0  0  2  0  0  0  0  0  0  0  0  0
   -1.2801   37.9305   14.6271 O   0  0  0  0  0  0  0  0  0  0  0  0
    0.0177   38.5418   16.7578 C   0  0  1  0  0  0  0  0  0  0  0  0
    0.8789   37.3096   16.7113 O   0  0  0  0  0  0  0  0  0  0  0  0
    0.7716   39.7461   16.0925 C   0  0  0  0  0  0  0  0  0  0  0  0
   -0.8801   35.2758   15.2095 N   0  0  0  0  0  0  0  0  0  0  0  0
  1  2  1  6  0  0  0
  1  3  1  0  0  0  0
  1 10  1  0  0  0  0
  3  4  1  6  0  0  0
  3  5  1  0  0  0  0
  5  6  1  1  0  0  0
  5  7  1  0  0  0  0
  7  8  1  6  0  0  0
  7  9  1  0  0  0  0
  9 10  1  0  0  0  0
  9 11  1  1  0  0  0
 11 12  1  0  0  0  0
 13 14  1  6  0  0  0
 13 15  1  0  0  0  0
 13 21  1  0  0  0  0
 16 15  1  0  0  0  0
 16 17  1  6  0  0  0
 18  2  1  1  0  0  0
 18 16  1  0  0  0  0
 19 18  1  0  0  0  0
 19 20  1  1  0  0  0
 21 19  1  0  0  0  0
 21 22  1  1  0  0  0
 23 20  1  1  0  0  0
 23 24  1  0  0  0  0
 23 28  1  0  0  0  0
 24 25  1  6  0  0  0
 24 26  1  0  0  0  0
 26 27  1  0  0  0  0
 26 32  1  6  0  0  0
 27 28  1  0  0  0  0
 27 29  1  1  0  0  0
 29 30  1  0  0  0  0
 31 32  1  6  0  0  0
 31 40  1  0  0  0  0
 33 31  1  0  0  0  0
 33 42  1  6  0  0  0
 35 33  1  0  0  0  0
 35 36  1  1  0  0  0
 37 35  1  0  0  0  0
 37 38  1  6  0  0  0
 37 39  1  0  0  0  0
 39 40  1  0  0  0  0
 39 41  1  6  0  0  0
 41 34  1  0  0  0  0
M  END
>  <CHROM.1>
-111.29977429,-37.32146334,137.36449109,-58.65524587,107.40416775,81.86916352
-66.42480723,-97.38341525,54.58056173,-0.98056056,33.00862100,17.75464587
2.10556566,-0.99754802,-2.90400026

>  <Name>
2et4_lig

>  <RI>
0

>  <Rbt.Current_Directory>
/home/itssahil/PROJECTS/Mol_Feturizer/New_Systems/rnas/2et4

>  <Rbt.Executable>
rbdock ($Id: //depot/dev/client3/rdock/2013.1/src/exe/rbdock.cxx#4 $)

>  <Rbt.Library>
libRbt.so (2013.1, Build901 2013/11/27)

>  <Rbt.Parameter_File>
/export/apps/rDock/src/rDock_2013.1_src/data/scripts/dock_solv.prm

>  <Rbt.Receptor>
prm/blind_docking_80.prm

>  <SCORE>
42.2417

>  <SCORE.INTER>
17.3993

>  <SCORE.INTER.CONST>
1

>  <SCORE.INTER.POLAR>
-1.0911

>  <SCORE.INTER.ROT>
9

>  <SCORE.INTER.SOLV>
21.6971

>  <SCORE.INTER.VDW>
-1.59584

>  <SCORE.INTER.norm>
0.414268

>  <SCORE.INTRA>
9.927

>  <SCORE.INTRA.DIHEDRAL>
6.50403

>  <SCORE.INTRA.DIHEDRAL.0>
21.6909

>  <SCORE.INTRA.POLAR>
0

>  <SCORE.INTRA.POLAR.0>
0

>  <SCORE.INTRA.REPUL>
0

>  <SCORE.INTRA.REPUL.0>
0

>  <SCORE.INTRA.SOLV>
1.11359

>  <SCORE.INTRA.SOLV.lig_0>
-116.606

>  <SCORE.INTRA.VDW>
6.11819

>  <SCORE.INTRA.VDW.0>
-6.01229

>  <SCORE.INTRA.norm>
0.236357

>  <SCORE.RESTR>
14.9154

>  <SCORE.RESTR.CAVITY>
14.9154

>  <SCORE.RESTR.norm>
0.355129

>  <SCORE.SYSTEM>
0

>  <SCORE.SYSTEM.CONST>
0

>  <SCORE.SYSTEM.DIHEDRAL>
0

>  <SCORE.SYSTEM.SOLV>
0

>  <SCORE.SYSTEM.norm>
0

>  <SCORE.heavy>
42

>  <SCORE.norm>
1.00575

>  <RMSD>
31.937

$$$$
2et4_lig
 OpenBabel11021811423D
libRbt.so/2013.1/901 2013/11/27
 42 45  0  0  0  0  0  0  0  0999 V2000
   -3.4987   32.8967   12.8289 C   0  0  2  0  0  0  0  0  0  0  0  0
   -2.9790   34.2069   12.5929 O   0  0  0  0  0  0  0  0  0  0  0  0
   -2.7477   31.9292   11.8789 C   0  0  2  0  0  0  0  0  0  0  0  0
   -1.3236   31.9864   12.0894 N   0  0  0  0  0  0  0  0  0  0  0  0
   -3.1098   32.2729   10.4052 C   0  0  1  0  0  0  0  0  0  0  0  0
   -2.4461   31.3914    9.5541 O   0  0  0  0  0  0  0  0  0  0  0  0
   -4.6652   32.1884   10.2511 C   0  0  2  0  0  0  0  0  0  0  0  0
   -5.0403   32.5010    8.9262 O   0  0  0  0  0  0  0  0  0  0  0  0
   -5.3744   33.1700   11.2326 C   0  0  2  0  0  0  0  0  0  0  0  0
   -4.9649   32.8491   12.5653 O   0  0  0  0  0  0  0  0  0  0  0  0
   -6.9327   33.0827   11.1356 C   0  0  0  0  0  0  0  0  0  0  0  0
   -7.5764   34.0551   11.9487 N   0  0  0  0  0  0  0  0  0  0  0  0
   -3.3932   38.3137   13.8645 C   0  0  2  0  0  0  0  0  0  0  0  0
   -3.7352   39.4759   14.6940 N   0  0  0  0  0  0  0  0  0  0  0  0
   -4.7398   37.4753   13.5239 C   0  0  0  0  0  0  0  0  0  0  0  0
   -4.3632   36.2156   12.6415 C   0  0  2  0  0  0  0  0  0  0  0  0
   -5.5562   35.4089   12.3292 N   0  0  0  0  0  0  0  0  0  0  0  0
   -3.3215   35.3345   13.4103 C   0  0  2  0  0  0  0  0  0  0  0  0
   -2.0408   36.1633   13.7576 C   0  0  2  0  0  0  0  0  0  0  0  0
   -1.1546   35.2688   14.4744 O   0  0  0  0  0  0  0  0  0  0  0  0
   -2.4282   37.3973   14.6343 C   0  0  1  0  0  0  0  0  0  0  0  0
   -1.2770   38.1196   14.9144 O   0  0  0  0  0  0  0  0  0  0  0  0
   -1.3066   34.8784   15.7631 C   0  0  1  0  0  0  0  0  0  0  0  0
   -0.0395   34.1450   16.2749 C   0  0  2  0  0  0  0  0  0  0  0  0
   -0.0199   32.7867   15.9437 O   0  0  0  0  0  0  0  0  0  0  0  0
   -0.1012   34.5384   17.7392 C   0  0  1  0  0  0  0  0  0  0  0  0
   -0.6104   35.9859   17.7871 C   0  0  2  0  0  0  0  0  0  0  0  0
   -1.5409   35.9600   16.7049 O   0  0  0  0  0  0  0  0  0  0  0  0
    0.4811   37.0926   17.5911 C   0  0  0  0  0  0  0  0  0  0  0  0
    0.9076   37.0415   16.2038 O   0  0  0  0  0  0  0  0  0  0  0  0
   -0.6277   32.2713   18.5783 C   0  0  2  0  0  0  0  0  0  0  0  0
   -1.0366   33.6017   18.4147 O   0  0  0  0  0  0  0  0  0  0  0  0
   -1.5704   31.4972   19.5990 C   0  0  1  0  0  0  0  0  0  0  0  0
    3.1135   31.8331   20.9657 N   0  0  0  0  0  0  0  0  0  0  0  0
   -0.9957   29.9905   19.7265 C   0  0  1  0  0  0  0  0  0  0  0  0
   -1.0005   29.3660   18.3454 O   0  0  0  0  0  0  0  0  0  0  0  0
    0.5103   30.0233   20.3242 C   0  0  2  0  0  0  0  0  0  0  0  0
    0.4872   30.6145   21.6456 O   0  0  0  0  0  0  0  0  0  0  0  0
    1.4369   30.8554   19.2712 C   0  0  1  0  0  0  0  0  0  0  0  0
    0.8508   32.2249   19.0640 O   0  0  0  0  0  0  0  0  0  0  0  0
    2.9247   30.9783   19.7536 C   0  0  0  0  0  0  0  0  0  0  0  0
   -1.6140   32.2241   20.9107 N   0  0  0  0  0  0  0  0  0  0  0  0
  1  2  1  6  0  0  0
  1  3  1  0  0  0  0
  1 10  1  0  0  0  0
  3  4  1  6  0  0  0
  3  5  1  0  0  0  0
  5  6  1  6  0  0  0
  5  7  1  0  0  0  0
  7  8  1  6  0  0  0
  7  9  1  0  0  0  0
  9 10  1  0  0  0  0
  9 11  1  1  0  0  0
 11 12  1  0  0  0  0
 13 14  1  1  0  0  0
 13 15  1  0  0  0  0
 13 21  1  0  0  0  0
 16 15  1  0  0  0  0
 16 17  1  1  0  0  0
 18  2  1  6  0  0  0
 18 16  1  0  0  0  0
 19 18  1  0  0  0  0
 19 20  1  1  0  0  0
 21 19  1  0  0  0  0
 21 22  1  6  0  0  0
 23 20  1  6  0  0  0
 23 24  1  0  0  0  0
 23 28  1  0  0  0  0
 24 25  1  1  0  0  0
 24 26  1  0  0  0  0
 26 27  1  0  0  0  0
 26 32  1  1  0  0  0
 27 28  1  0  0  0  0
 27 29  1  6  0  0  0
 29 30  1  0  0  0  0
 31 32  1  1  0  0  0
 31 40  1  0  0  0  0
 33 31  1  0  0  0  0
 33 42  1  1  0  0  0
 35 33  1  0  0  0  0
 35 36  1  6  0  0  0
 37 35  1  0  0  0  0
 37 38  1  1  0  0  0
 37 39  1  0  0  0  0
 39 40  1  0  0  0  0
 39 41  1  1  0  0  0
 41 34  1  0  0  0  0
M  END
>  <CHROM.1>
-172.03891338,-175.09445427,-103.16068567,-75.34245790,-169.17006437,70.16438999
70.35939929,166.72335576,-67.85823721,-1.93972701,33.79232281,15.34178090
2.91388632,-1.00836164,0.01581724

>  <Name>
2et4_lig

>  <RI>
0

>  <Rbt.Current_Directory>
/home/itssahil/PROJECTS/Mol_Feturizer/New_Systems/rnas/2et4

>  <Rbt.Executable>
rbdock ($Id: //depot/dev/client3/rdock/2013.1/src/exe/rbdock.cxx#4 $)

>  <Rbt.Library>
libRbt.so (2013.1, Build901 2013/11/27)

>  <Rbt.Parameter_File>
/export/apps/rDock/src/rDock_2013.1_src/data/scripts/dock_solv.prm

>  <Rbt.Receptor>
prm/blind_docking_60.prm

>  <SCORE>
-0.259709

>  <SCORE.INTER>
-8.61339

>  <SCORE.INTER.CONST>
1

>  <SCORE.INTER.POLAR>
-0.824621

>  <SCORE.INTER.ROT>
9

>  <SCORE.INTER.SOLV>
31.6098

>  <SCORE.INTER.VDW>
-23.1301

>  <SCORE.INTER.norm>
-0.205081

>  <SCORE.INTRA>
1.76481

>  <SCORE.INTRA.DIHEDRAL>
-11.6891

>  <SCORE.INTRA.DIHEDRAL.0>
21.6909

>  <SCORE.INTRA.POLAR>
0

>  <SCORE.INTRA.POLAR.0>
0

>  <SCORE.INTRA.REPUL>
0

>  <SCORE.INTRA.REPUL.0>
0

>  <SCORE.INTRA.SOLV>
5.01286

>  <SCORE.INTRA.SOLV.lig_0>
-116.606

>  <SCORE.INTRA.VDW>
5.10293

>  <SCORE.INTRA.VDW.0>
-6.01229

>  <SCORE.INTRA.norm>
0.0420192

>  <SCORE.RESTR>
6.58887

>  <SCORE.RESTR.CAVITY>
6.58887

>  <SCORE.RESTR.norm>
0.156878

>  <SCORE.SYSTEM>
0

>  <SCORE.SYSTEM.CONST>
0

>  <SCORE.SYSTEM.DIHEDRAL>
0

>  <SCORE.SYSTEM.SOLV>
0

>  <SCORE.SYSTEM.norm>
0

>  <SCORE.heavy>
42

>  <SCORE.norm>
-0.00618355

>  <RMSD>
31.939

$$$$
2et4_lig
 OpenBabel11021811423D
libRbt.so/2013.1/901 2013/11/27
 42 45  0  0  0  0  0  0  0  0999 V2000
   -3.3030   33.0586   12.7720 C   0  0  2  0  0  0  0  0  0  0  0  0
   -3.1115   34.4392   12.4568 O   0  0  0  0  0  0  0  0  0  0  0  0
   -2.7924   32.2380   11.5601 C   0  0  2  0  0  0  0  0  0  0  0  0
   -1.4129   32.5344   11.2688 N   0  0  0  0  0  0  0  0  0  0  0  0
   -3.6986   32.5241   10.3280 C   0  0  1  0  0  0  0  0  0  0  0  0
   -3.2473   31.7730    9.2446 O   0  0  0  0  0  0  0  0  0  0  0  0
   -5.1751   32.1783   10.7158 C   0  0  2  0  0  0  0  0  0  0  0  0
   -6.0360   32.4306    9.6255 O   0  0  0  0  0  0  0  0  0  0  0  0
   -5.6383   33.0196   11.9436 C   0  0  2  0  0  0  0  0  0  0  0  0
   -4.7415   32.7648   13.0288 O   0  0  0  0  0  0  0  0  0  0  0  0
   -7.0970   32.6701   12.3856 C   0  0  0  0  0  0  0  0  0  0  0  0
   -7.1826   31.3835   12.9843 N   0  0  0  0  0  0  0  0  0  0  0  0
   -3.2920   38.4123   14.1409 C   0  0  2  0  0  0  0  0  0  0  0  0
   -3.5238   39.4959   15.1041 N   0  0  0  0  0  0  0  0  0  0  0  0
   -4.6871   37.6365   13.8512 C   0  0  0  0  0  0  0  0  0  0  0  0
   -4.4284   36.4603   12.8232 C   0  0  2  0  0  0  0  0  0  0  0  0
   -5.6673   35.7104   12.5500 N   0  0  0  0  0  0  0  0  0  0  0  0
   -3.3458   35.4896   13.4048 C   0  0  2  0  0  0  0  0  0  0  0  0
   -2.0159   36.2564   13.7065 C   0  0  2  0  0  0  0  0  0  0  0  0
   -1.0932   35.2805   14.2498 O   0  0  0  0  0  0  0  0  0  0  0  0
   -2.2866   37.4078   14.7274 C   0  0  1  0  0  0  0  0  0  0  0  0
   -1.0947   38.0777   14.9647 O   0  0  0  0  0  0  0  0  0  0  0  0
   -1.3051   34.5315   15.3591 C   0  0  1  0  0  0  0  0  0  0  0  0
   -0.0969   33.6006   15.6404 C   0  0  2  0  0  0  0  0  0  0  0  0
   -0.1440   32.4059   14.9154 O   0  0  0  0  0  0  0  0  0  0  0  0
   -0.1798   33.5394   17.1543 C   0  0  1  0  0  0  0  0  0  0  0  0
   -0.6081   34.9346   17.6306 C   0  0  2  0  0  0  0  0  0  0  0  0
   -1.5060   35.2930   16.5804 O   0  0  0  0  0  0  0  0  0  0  0  0
    0.5493   35.9785   17.7897 C   0  0  0  0  0  0  0  0  0  0  0  0
   -0.0554   37.2433   18.1689 O   0  0  0  0  0  0  0  0  0  0  0  0
   -1.1016   31.9102   18.7722 C   0  0  2  0  0  0  0  0  0  0  0  0
   -1.1860   32.5035   17.5054 O   0  0  0  0  0  0  0  0  0  0  0  0
   -0.2248   30.5837   18.7330 C   0  0  1  0  0  0  0  0  0  0  0  0
   -4.9284   31.9686   21.1458 N   0  0  0  0  0  0  0  0  0  0  0  0
   -0.2148   29.9771   20.2325 C   0  0  1  0  0  0  0  0  0  0  0  0
    0.3630   31.0264   21.1613 O   0  0  0  0  0  0  0  0  0  0  0  0
   -1.7240   29.5957   20.6834 C   0  0  2  0  0  0  0  0  0  0  0  0
   -2.2496   28.5866   19.7881 O   0  0  0  0  0  0  0  0  0  0  0  0
   -2.5997   30.9715   20.6754 C   0  0  1  0  0  0  0  0  0  0  0  0
   -2.5290   31.6007   19.3111 O   0  0  0  0  0  0  0  0  0  0  0  0
   -4.0972   30.7278   21.0745 C   0  0  0  0  0  0  0  0  0  0  0  0
   -0.7798   29.6309   17.7156 N   0  0  0  0  0  0  0  0  0  0  0  0
  1  2  1  6  0  0  0
  1  3  1  0  0  0  0
  1 10  1  0  0  0  0
  3  4  1  6  0  0  0
  3  5  1  0  0  0  0
  5  6  1  6  0  0  0
  5  7  1  0  0  0  0
  7  8  1  6  0  0  0
  7  9  1  0  0  0  0
  9 10  1  0  0  0  0
  9 11  1  1  0  0  0
 11 12  1  0  0  0  0
 13 14  1  1  0  0  0
 13 15  1  0  0  0  0
 13 21  1  0  0  0  0
 16 15  1  0  0  0  0
 16 17  1  1  0  0  0
 18  2  1  6  0  0  0
 18 16  1  0  0  0  0
 19 18  1  0  0  0  0
 19 20  1  1  0  0  0
 21 19  1  0  0  0  0
 21 22  1  6  0  0  0
 23 20  1  6  0  0  0
 23 24  1  0  0  0  0
 23 28  1  0  0  0  0
 24 25  1  6  0  0  0
 24 26  1  0  0  0  0
 26 27  1  0  0  0  0
 26 32  1  6  0  0  0
 27 28  1  0  0  0  0
 27 29  1  6  0  0  0
 29 30  1  0  0  0  0
 31 32  1  6  0  0  0
 31 40  1  0  0  0  0
 33 31  1  0  0  0  0
 33 42  1  6  0  0  0
 35 33  1  0  0  0  0
 35 36  1  1  0  0  0
 37 35  1  0  0  0  0
 37 38  1  6  0  0  0
 37 39  1  0  0  0  0
 39 40  1  0  0  0  0
 39 41  1  6  0  0  0
 41 34  1  0  0  0  0
M  END
>  <CHROM.1>
-173.48726133,70.79083690,-121.33851684,-58.32212229,-179.78186585,156.83542365
176.80144813,-92.22627893,177.22487448,-2.59188042,33.51285646,15.43070222
2.29349062,-1.05422786,-0.55304308

>  <Name>
2et4_lig

>  <RI>
0

>  <Rbt.Current_Directory>
/home/itssahil/PROJECTS/Mol_Feturizer/New_Systems/rnas/2et4

>  <Rbt.Executable>
rbdock ($Id: //depot/dev/client3/rdock/2013.1/src/exe/rbdock.cxx#4 $)

>  <Rbt.Library>
libRbt.so (2013.1, Build901 2013/11/27)

>  <Rbt.Parameter_File>
/export/apps/rDock/src/rDock_2013.1_src/data/scripts/dock_solv.prm

>  <Rbt.Receptor>
prm/blind_docking_60.prm

>  <SCORE>
1.63299

>  <SCORE.INTER>
-5.66404

>  <SCORE.INTER.CONST>
1

>  <SCORE.INTER.POLAR>
-0.449721

>  <SCORE.INTER.ROT>
9

>  <SCORE.INTER.SOLV>
26.491

>  <SCORE.INTER.VDW>
-20.7073

>  <SCORE.INTER.norm>
-0.134858

>  <SCORE.INTRA>
-2.68468

>  <SCORE.INTRA.DIHEDRAL>
-7.32776

>  <SCORE.INTRA.DIHEDRAL.0>
21.6909

>  <SCORE.INTRA.POLAR>
0

>  <SCORE.INTRA.POLAR.0>
0

>  <SCORE.INTRA.REPUL>
0

>  <SCORE.INTRA.REPUL.0>
0

>  <SCORE.INTRA.SOLV>
0.0291881

>  <SCORE.INTRA.SOLV.lig_0>
-116.606

>  <SCORE.INTRA.VDW>
0.964603

>  <SCORE.INTRA.VDW.0>
-6.01229

>  <SCORE.INTRA.norm>
-0.063921

>  <SCORE.RESTR>
9.98171

>  <SCORE.RESTR.CAVITY>
9.98171

>  <SCORE.RESTR.norm>
0.23766

>  <SCORE.SYSTEM>
0

>  <SCORE.SYSTEM.CONST>
0

>  <SCORE.SYSTEM.DIHEDRAL>
0

>  <SCORE.SYSTEM.SOLV>
0

>  <SCORE.SYSTEM.norm>
0

>  <SCORE.heavy>
42

>  <SCORE.norm>
0.0388807

>  <RMSD>
31.944

$$$$
2et4_lig
 OpenBabel11021811423D
libRbt.so/2013.1/901 2013/11/27
 42 45  0  0  0  0  0  0  0  0999 V2000
   -3.3503   35.8088   12.8477 C   0  0  2  0  0  0  0  0  0  0  0  0
   -3.2667   35.3771   14.2075 O   0  0  0  0  0  0  0  0  0  0  0  0
   -4.8548   35.9690   12.5108 C   0  0  2  0  0  0  0  0  0  0  0  0
   -5.4981   36.8953   13.4073 N   0  0  0  0  0  0  0  0  0  0  0  0
   -5.5429   34.5742   12.5588 C   0  0  1  0  0  0  0  0  0  0  0  0
   -6.8916   34.7188   12.2397 O   0  0  0  0  0  0  0  0  0  0  0  0
   -4.7960   33.6256   11.5627 C   0  0  2  0  0  0  0  0  0  0  0  0
   -5.3847   32.3424   11.5792 O   0  0  0  0  0  0  0  0  0  0  0  0
   -3.2873   33.5053   11.9360 C   0  0  2  0  0  0  0  0  0  0  0  0
   -2.7163   34.8171   11.9334 O   0  0  0  0  0  0  0  0  0  0  0  0
   -2.4997   32.5968   10.9363 C   0  0  0  0  0  0  0  0  0  0  0  0
   -1.5865   31.7333   11.6009 N   0  0  0  0  0  0  0  0  0  0  0  0
   -0.8948   38.4933   16.0290 C   0  0  2  0  0  0  0  0  0  0  0  0
   -0.1730   39.2625   17.0503 N   0  0  0  0  0  0  0  0  0  0  0  0
   -2.4595   38.3780   16.4421 C   0  0  0  0  0  0  0  0  0  0  0  0
   -3.2299   37.5355   15.3448 C   0  0  2  0  0  0  0  0  0  0  0  0
   -4.6536   37.3833   15.6936 N   0  0  0  0  0  0  0  0  0  0  0  0
   -2.5684   36.1220   15.2147 C   0  0  2  0  0  0  0  0  0  0  0  0
   -1.0535   36.2490   14.8447 C   0  0  2  0  0  0  0  0  0  0  0  0
   -0.5359   34.8982   14.7637 O   0  0  0  0  0  0  0  0  0  0  0  0
   -0.3067   37.0756   15.9403 C   0  0  1  0  0  0  0  0  0  0  0  0
    1.0288   37.1834   15.5792 O   0  0  0  0  0  0  0  0  0  0  0  0
   -0.8229   33.8939   15.6270 C   0  0  1  0  0  0  0  0  0  0  0  0
    0.2270   32.7567   15.5256 C   0  0  2  0  0  0  0  0  0  0  0  0
   -0.0441   31.8496   14.4967 O   0  0  0  0  0  0  0  0  0  0  0  0
    0.1960   32.2636   16.9604 C   0  0  1  0  0  0  0  0  0  0  0  0
    0.0213   33.5024   17.8501 C   0  0  2  0  0  0  0  0  0  0  0  0
   -0.8473   34.2812   17.0274 O   0  0  0  0  0  0  0  0  0  0  0  0
    1.3394   34.2737   18.2001 C   0  0  0  0  0  0  0  0  0  0  0  0
    0.9866   35.6680   18.4013 O   0  0  0  0  0  0  0  0  0  0  0  0
   -1.0587   30.5773   18.2655 C   0  0  2  0  0  0  0  0  0  0  0  0
   -0.9513   31.3274   17.0866 O   0  0  0  0  0  0  0  0  0  0  0  0
   -2.3064   31.0419   19.1357 C   0  0  1  0  0  0  0  0  0  0  0  0
    1.5953   30.8875   22.3927 N   0  0  0  0  0  0  0  0  0  0  0  0
   -2.3188   30.1303   20.4719 C   0  0  1  0  0  0  0  0  0  0  0  0
   -2.4151   28.6776   20.0502 O   0  0  0  0  0  0  0  0  0  0  0  0
   -0.9626   30.3807   21.3231 C   0  0  2  0  0  0  0  0  0  0  0  0
   -0.8985   31.7711   21.7217 O   0  0  0  0  0  0  0  0  0  0  0  0
    0.2937   29.9290   20.3864 C   0  0  1  0  0  0  0  0  0  0  0  0
    0.2543   30.6966   19.0936 O   0  0  0  0  0  0  0  0  0  0  0  0
    1.6758   30.1478   21.0958 C   0  0  0  0  0  0  0  0  0  0  0  0
   -2.2122   32.5110   19.4254 N   0  0  0  0  0  0  0  0  0  0  0  0
  1  2  1  1  0  0  0
  1  3  1  0  0  0  0
  1 10  1  0  0  0  0
  3  4  1  1  0  0  0
  3  5  1  0  0  0  0
  5  6  1  6  0  0  0
  5  7  1  0  0  0  0
  7  8  1  1  0  0  0
  7  9  1  0  0  0  0
  9 10  1  0  0  0  0
  9 11  1  6  0  0  0
 11 12  1  0  0  0  0
 13 14  1  1  0  0  0
 13 15  1  0  0  0  0
 13 21  1  0  0  0  0
 16 15  1  0  0  0  0
 16 17  1  1  0  0  0
 18  2  1  6  0  0  0
 18 16  1  0  0  0  0
 19 18  1  0  0  0  0
 19 20  1  1  0  0  0
 21 19  1  0  0  0  0
 21 22  1  6  0  0  0
 23 20  1  6  0  0  0
 23 24  1  0  0  0  0
 23 28  1  0  0  0  0
 24 25  1  6  0  0  0
 24 26  1  0  0  0  0
 26 27  1  0  0  0  0
 26 32  1  6  0  0  0
 27 28  1  0  0  0  0
 27 29  1  6  0  0  0
 29 30  1  0  0  0  0
 31 32  1  6  0  0  0
 31 40  1  0  0  0  0
 33 31  1  0  0  0  0
 33 42  1  1  0  0  0
 35 33  1  0  0  0  0
 35 36  1  6  0  0  0
 37 35  1  0  0  0  0
 37 38  1  6  0  0  0
 37 39  1  0  0  0  0
 39 40  1  0  0  0  0
 39 41  1  1  0  0  0
 41 34  1  0  0  0  0
M  END
>  <CHROM.1>
-120.84820903,-138.05863053,60.55995184,-42.05714554,-161.47712087,170.02846061
151.09044067,111.20082329,-7.87545714,-1.72350261,33.81413616,16.15913270
2.34258792,-0.96575160,-0.34814892

>  <Name>
2et4_lig

>  <RI>
0

>  <Rbt.Current_Directory>
/home/itssahil/PROJECTS/Mol_Feturizer/New_Systems/rnas/2et4

>  <Rbt.Executable>
rbdock ($Id: //depot/dev/client3/rdock/2013.1/src/exe/rbdock.cxx#4 $)

>  <Rbt.Library>
libRbt.so (2013.1, Build901 2013/11/27)

>  <Rbt.Parameter_File>
/export/apps/rDock/src/rDock_2013.1_src/data/scripts/dock_solv.prm

>  <Rbt.Receptor>
prm/blind_docking_60.prm

>  <SCORE>
5.2007

>  <SCORE.INTER>
-11.2962

>  <SCORE.INTER.CONST>
1

>  <SCORE.INTER.POLAR>
-0.759559

>  <SCORE.INTER.ROT>
9

>  <SCORE.INTER.SOLV>
29.5757

>  <SCORE.INTER.VDW>
-24.4575

>  <SCORE.INTER.norm>
-0.268958

>  <SCORE.INTRA>
10.5312

>  <SCORE.INTRA.DIHEDRAL>
7.63239

>  <SCORE.INTRA.DIHEDRAL.0>
21.6909

>  <SCORE.INTRA.POLAR>
0

>  <SCORE.INTRA.POLAR.0>
0

>  <SCORE.INTRA.REPUL>
0.303555

>  <SCORE.INTRA.REPUL.0>
0

>  <SCORE.INTRA.SOLV>
5.36304

>  <SCORE.INTRA.SOLV.lig_0>
-116.606

>  <SCORE.INTRA.VDW>
2.51569

>  <SCORE.INTRA.VDW.0>
-6.01229

>  <SCORE.INTRA.norm>
0.250742

>  <SCORE.RESTR>
5.96577

>  <SCORE.RESTR.CAVITY>
5.96577

>  <SCORE.RESTR.norm>
0.142042

>  <SCORE.SYSTEM>
0

>  <SCORE.SYSTEM.CONST>
0

>  <SCORE.SYSTEM.DIHEDRAL>
0

>  <SCORE.SYSTEM.SOLV>
0

>  <SCORE.SYSTEM.norm>
0

>  <SCORE.heavy>
42

>  <SCORE.norm>
0.123826

>  <RMSD>
31.957

$$$$
2et4_lig
 OpenBabel11021811423D
libRbt.so/2013.1/901 2013/11/27
 42 45  0  0  0  0  0  0  0  0999 V2000
   -3.2051   35.7377   12.8364 C   0  0  2  0  0  0  0  0  0  0  0  0
   -3.2012   35.3999   14.2250 O   0  0  0  0  0  0  0  0  0  0  0  0
   -4.6770   36.0166   12.4382 C   0  0  2  0  0  0  0  0  0  0  0  0
   -5.2503   37.0630   13.2455 N   0  0  0  0  0  0  0  0  0  0  0  0
   -5.4997   34.7015   12.5598 C   0  0  1  0  0  0  0  0  0  0  0  0
   -6.8185   34.9513   12.1857 O   0  0  0  0  0  0  0  0  0  0  0  0
   -4.8227   33.6158   11.6581 C   0  0  2  0  0  0  0  0  0  0  0  0
   -5.5347   32.3995   11.7439 O   0  0  0  0  0  0  0  0  0  0  0  0
   -3.3438   33.3787   12.0901 C   0  0  2  0  0  0  0  0  0  0  0  0
   -2.6470   34.6259   12.0155 O   0  0  0  0  0  0  0  0  0  0  0  0
   -2.6224   32.3285   11.1834 C   0  0  0  0  0  0  0  0  0  0  0  0
   -2.8002   32.6019    9.7997 N   0  0  0  0  0  0  0  0  0  0  0  0
   -0.9778   38.6656   15.9704 C   0  0  2  0  0  0  0  0  0  0  0  0
   -0.3138   39.5036   16.9767 N   0  0  0  0  0  0  0  0  0  0  0  0
   -2.5532   38.5281   16.3332 C   0  0  0  0  0  0  0  0  0  0  0  0
   -3.2611   37.6118   15.2532 C   0  0  2  0  0  0  0  0  0  0  0  0
   -4.6923   37.4382   15.5586 N   0  0  0  0  0  0  0  0  0  0  0  0
   -2.5594   36.2122   15.2176 C   0  0  2  0  0  0  0  0  0  0  0  0
   -1.0358   36.3622   14.8954 C   0  0  2  0  0  0  0  0  0  0  0  0
   -0.4812   35.0237   14.9007 O   0  0  0  0  0  0  0  0  0  0  0  0
   -0.3509   37.2618   15.9739 C   0  0  1  0  0  0  0  0  0  0  0  0
    0.9937   37.3882   15.6551 O   0  0  0  0  0  0  0  0  0  0  0  0
   -0.8031   34.0435   15.7792 C   0  0  1  0  0  0  0  0  0  0  0  0
    0.1074   32.8028   15.5859 C   0  0  2  0  0  0  0  0  0  0  0  0
   -0.3416   31.9441   14.5779 O   0  0  0  0  0  0  0  0  0  0  0  0
    0.1402   32.2956   17.0158 C   0  0  1  0  0  0  0  0  0  0  0  0
    0.1717   33.5333   17.9234 C   0  0  2  0  0  0  0  0  0  0  0  0
   -0.6724   34.4114   17.1790 O   0  0  0  0  0  0  0  0  0  0  0  0
    1.5887   34.1553   18.1682 C   0  0  0  0  0  0  0  0  0  0  0  0
    2.3950   33.1495   18.8371 O   0  0  0  0  0  0  0  0  0  0  0  0
   -1.1431   30.6705   18.3699 C   0  0  2  0  0  0  0  0  0  0  0  0
   -1.0867   31.4848   17.2307 O   0  0  0  0  0  0  0  0  0  0  0  0
   -2.4301   30.9914   19.2477 C   0  0  1  0  0  0  0  0  0  0  0  0
    2.7763   30.4479   20.2984 N   0  0  0  0  0  0  0  0  0  0  0  0
   -2.3802   30.0158   20.5371 C   0  0  1  0  0  0  0  0  0  0  0  0
   -2.3580   28.5830   20.0432 O   0  0  0  0  0  0  0  0  0  0  0  0
   -1.0545   30.3293   21.4149 C   0  0  2  0  0  0  0  0  0  0  0  0
   -1.1036   31.6987   21.8823 O   0  0  0  0  0  0  0  0  0  0  0  0
    0.2406   30.0253   20.4714 C   0  0  1  0  0  0  0  0  0  0  0  0
    0.1501   30.8512   19.2177 O   0  0  0  0  0  0  0  0  0  0  0  0
    1.5957   30.3165   21.2064 C   0  0  0  0  0  0  0  0  0  0  0  0
   -2.4547   32.4469   19.6106 N   0  0  0  0  0  0  0  0  0  0  0  0
  1  2  1  1  0  0  0
  1  3  1  0  0  0  0
  1 10  1  0  0  0  0
  3  4  1  1  0  0  0
  3  5  1  0  0  0  0
  5  6  1  6  0  0  0
  5  7  1  0  0  0  0
  7  8  1  1  0  0  0
  7  9  1  0  0  0  0
  9 10  1  0  0  0  0
  9 11  1  6  0  0  0
 11 12  1  0  0  0  0
 13 14  1  1  0  0  0
 13 15  1  0  0  0  0
 13 21  1  0  0  0  0
 16 15  1  0  0  0  0
 16 17  1  1  0  0  0
 18  2  1  6  0  0  0
 18 16  1  0  0  0  0
 19 18  1  0  0  0  0
 19 20  1  1  0  0  0
 21 19  1  0  0  0  0
 21 22  1  6  0  0  0
 23 20  1  6  0  0  0
 23 24  1  0  0  0  0
 23 28  1  0  0  0  0
 24 25  1  6  0  0  0
 24 26  1  0  0  0  0
 26 27  1  0  0  0  0
 26 32  1  1  0  0  0
 27 28  1  0  0  0  0
 27 29  1  6  0  0  0
 29 30  1  0  0  0  0
 31 32  1  6  0  0  0
 31 40  1  0  0  0  0
 33 31  1  0  0  0  0
 33 42  1  1  0  0  0
 35 33  1  0  0  0  0
 35 36  1  6  0  0  0
 37 35  1  0  0  0  0
 37 38  1  6  0  0  0
 37 39  1  0  0  0  0
 39 40  1  0  0  0  0
 39 41  1  1  0  0  0
 41 34  1  0  0  0  0
M  END
>  <CHROM.1>
-115.13332001,49.12467795,62.83397091,-40.01473764,-173.27957576,166.19555670
-62.04723958,124.59754692,-162.86561172,-1.70912671,33.80472948,16.12867972
2.32408684,-0.92279705,-0.36698745

>  <Name>
2et4_lig

>  <RI>
0

>  <Rbt.Current_Directory>
/home/itssahil/PROJECTS/Mol_Feturizer/New_Systems/rnas/2et4

>  <Rbt.Executable>
rbdock ($Id: //depot/dev/client3/rdock/2013.1/src/exe/rbdock.cxx#4 $)

>  <Rbt.Library>
libRbt.so (2013.1, Build901 2013/11/27)

>  <Rbt.Parameter_File>
/export/apps/rDock/src/rDock_2013.1_src/data/scripts/dock_solv.prm

>  <Rbt.Receptor>
prm/blind_docking_60.prm

>  <SCORE>
5.45055

>  <SCORE.INTER>
-4.00381

>  <SCORE.INTER.CONST>
1

>  <SCORE.INTER.POLAR>
0

>  <SCORE.INTER.ROT>
9

>  <SCORE.INTER.SOLV>
29.2493

>  <SCORE.INTER.VDW>
-22.019

>  <SCORE.INTER.norm>
-0.0953288

>  <SCORE.INTRA>
3.73077

>  <SCORE.INTRA.DIHEDRAL>
-3.01902

>  <SCORE.INTRA.DIHEDRAL.0>
21.6909

>  <SCORE.INTRA.POLAR>
0

>  <SCORE.INTRA.POLAR.0>
0

>  <SCORE.INTRA.REPUL>
0

>  <SCORE.INTRA.REPUL.0>
0

>  <SCORE.INTRA.SOLV>
4.43815

>  <SCORE.INTRA.SOLV.lig_0>
-116.606

>  <SCORE.INTRA.VDW>
3.0212

>  <SCORE.INTRA.VDW.0>
-6.01229

>  <SCORE.INTRA.norm>
0.0888278

>  <SCORE.RESTR>
5.72359

>  <SCORE.RESTR.CAVITY>
5.72359

>  <SCORE.RESTR.norm>
0.136276

>  <SCORE.SYSTEM>
0

>  <SCORE.SYSTEM.CONST>
0

>  <SCORE.SYSTEM.DIHEDRAL>
0

>  <SCORE.SYSTEM.SOLV>
0

>  <SCORE.SYSTEM.norm>
0

>  <SCORE.heavy>
42

>  <SCORE.norm>
0.129775

>  <RMSD>
31.957

$$$$
2et4_lig
 OpenBabel11021811423D
libRbt.so/2013.1/901 2013/11/27
 42 45  0  0  0  0  0  0  0  0999 V2000
   -1.7701   29.1391   18.6333 C   0  0  2  0  0  0  0  0  0  0  0  0
   -1.8529   30.0393   17.5266 O   0  0  0  0  0  0  0  0  0  0  0  0
   -3.0324   29.3672   19.5035 C   0  0  2  0  0  0  0  0  0  0  0  0
   -4.2387   29.1692   18.7410 N   0  0  0  0  0  0  0  0  0  0  0  0
   -2.9841   30.7981   20.1128 C   0  0  1  0  0  0  0  0  0  0  0  0
   -4.1118   30.9947   20.9074 O   0  0  0  0  0  0  0  0  0  0  0  0
   -1.6538   30.9391   20.9255 C   0  0  2  0  0  0  0  0  0  0  0  0
   -1.5644   32.2293   21.4920 O   0  0  0  0  0  0  0  0  0  0  0  0
   -0.4158   30.6909   20.0113 C   0  0  2  0  0  0  0  0  0  0  0  0
   -0.5368   29.3882   19.4324 O   0  0  0  0  0  0  0  0  0  0  0  0
    0.9315   30.7829   20.7998 C   0  0  0  0  0  0  0  0  0  0  0  0
    2.0605   30.7772   19.9358 N   0  0  0  0  0  0  0  0  0  0  0  0
    0.0965   28.7029   13.9116 C   0  0  2  0  0  0  0  0  0  0  0  0
    0.2833   28.2695   12.5213 N   0  0  0  0  0  0  0  0  0  0  0  0
   -0.9033   27.6749   14.6704 C   0  0  0  0  0  0  0  0  0  0  0  0
   -1.1124   28.1551   16.1647 C   0  0  2  0  0  0  0  0  0  0  0  0
   -2.0367   27.2622   16.8860 N   0  0  0  0  0  0  0  0  0  0  0  0
   -1.6835   29.6133   16.1676 C   0  0  2  0  0  0  0  0  0  0  0  0
   -0.7239   30.5878   15.4079 C   0  0  2  0  0  0  0  0  0  0  0  0
   -1.3453   31.8957   15.4548 O   0  0  0  0  0  0  0  0  0  0  0  0
   -0.5343   30.1048   13.9341 C   0  0  1  0  0  0  0  0  0  0  0  0
    0.3306   30.9783   13.2903 O   0  0  0  0  0  0  0  0  0  0  0  0
   -0.6909   33.0709   15.6191 C   0  0  1  0  0  0  0  0  0  0  0  0
   -1.6214   34.2730   15.3113 C   0  0  2  0  0  0  0  0  0  0  0  0
   -1.6841   34.5840   13.9496 O   0  0  0  0  0  0  0  0  0  0  0  0
   -1.0305   35.2934   16.2665 C   0  0  1  0  0  0  0  0  0  0  0  0
   -0.6290   34.5298   17.5364 C   0  0  2  0  0  0  0  0  0  0  0  0
   -0.1809   33.3032   16.9599 O   0  0  0  0  0  0  0  0  0  0  0  0
   -1.7770   34.2997   18.5774 C   0  0  0  0  0  0  0  0  0  0  0  0
   -1.5079   33.0410   19.2500 O   0  0  0  0  0  0  0  0  0  0  0  0
    0.1880   37.3021   15.4906 C   0  0  2  0  0  0  0  0  0  0  0  0
    0.1460   35.9052   15.5953 O   0  0  0  0  0  0  0  0  0  0  0  0
    0.7090   37.9682   16.8377 C   0  0  1  0  0  0  0  0  0  0  0  0
   -3.0265   41.2006   14.4069 N   0  0  0  0  0  0  0  0  0  0  0  0
    0.6952   39.5698   16.6112 C   0  0  1  0  0  0  0  0  0  0  0  0
    1.5859   39.8858   15.4262 O   0  0  0  0  0  0  0  0  0  0  0  0
   -0.8188   40.0738   16.3277 C   0  0  2  0  0  0  0  0  0  0  0  0
   -1.6465   39.7696   17.4759 O   0  0  0  0  0  0  0  0  0  0  0  0
   -1.3307   39.3422   14.9629 C   0  0  1  0  0  0  0  0  0  0  0  0
   -1.2222   37.8509   15.1246 O   0  0  0  0  0  0  0  0  0  0  0  0
   -2.8042   39.7338   14.5929 C   0  0  0  0  0  0  0  0  0  0  0  0
   -0.1435   37.5288   17.9914 N   0  0  0  0  0  0  0  0  0  0  0  0
  1  2  1  6  0  0  0
  1  3  1  0  0  0  0
  1 10  1  0  0  0  0
  3  4  1  6  0  0  0
  3  5  1  0  0  0  0
  5  6  1  1  0  0  0
  5  7  1  0  0  0  0
  7  8  1  6  0  0  0
  7  9  1  0  0  0  0
  9 10  1  0  0  0  0
  9 11  1  1  0  0  0
 11 12  1  0  0  0  0
 13 14  1  6  0  0  0
 13 15  1  0  0  0  0
 13 21  1  0  0  0  0
 16 15  1  0  0  0  0
 16 17  1  6  0  0  0
 18  2  1  1  0  0  0
 18 16  1  0  0  0  0
 19 18  1  0  0  0  0
 19 20  1  6  0  0  0
 21 19  1  0  0  0  0
 21 22  1  6  0  0  0
 23 20  1  1  0  0  0
 23 24  1  0  0  0  0
 23 28  1  0  0  0  0
 24 25  1  6  0  0  0
 24 26  1  0  0  0  0
 26 27  1  0  0  0  0
 26 32  1  6  0  0  0
 27 28  1  0  0  0  0
 27 29  1  1  0  0  0
 29 30  1  0  0  0  0
 31 32  1  1  0  0  0
 31 40  1  0  0  0  0
 33 31  1  0  0  0  0
 33 42  1  1  0  0  0
 35 33  1  0  0  0  0
 35 36  1  6  0  0  0
 37 35  1  0  0  0  0
 37 38  1  1  0  0  0
 37 39  1  0  0  0  0
 39 40  1  0  0  0  0
 39 41  1  1  0  0  0
 41 34  1  0  0  0  0
M  END
>  <CHROM.1>
-129.59171983,-170.29079046,-11.96153714,141.68950465,167.55401411,125.89391145
148.44566635,81.54221104,57.96477244,-1.04043304,33.26942163,16.93180937
1.89154032,-1.39397812,-3.01937855

>  <Name>
2et4_lig

>  <RI>
0

>  <Rbt.Current_Directory>
/home/itssahil/PROJECTS/Mol_Feturizer/New_Systems/rnas/2et4

>  <Rbt.Executable>
rbdock ($Id: //depot/dev/client3/rdock/2013.1/src/exe/rbdock.cxx#4 $)

>  <Rbt.Library>
libRbt.so (2013.1, Build901 2013/11/27)

>  <Rbt.Parameter_File>
/export/apps/rDock/src/rDock_2013.1_src/data/scripts/dock_solv.prm

>  <Rbt.Receptor>
prm/blind_docking_80.prm

>  <SCORE>
35.9327

>  <SCORE.INTER>
4.2734

>  <SCORE.INTER.CONST>
1

>  <SCORE.INTER.POLAR>
-0.481791

>  <SCORE.INTER.ROT>
9

>  <SCORE.INTER.SOLV>
24.8352

>  <SCORE.INTER.VDW>
-13.4235

>  <SCORE.INTER.norm>
0.101748

>  <SCORE.INTRA>
11.6434

>  <SCORE.INTRA.DIHEDRAL>
9.74096

>  <SCORE.INTRA.DIHEDRAL.0>
21.6909

>  <SCORE.INTRA.POLAR>
0

>  <SCORE.INTRA.POLAR.0>
0

>  <SCORE.INTRA.REPUL>
5.1382e-05

>  <SCORE.INTRA.REPUL.0>
0

>  <SCORE.INTRA.SOLV>
2.42481

>  <SCORE.INTRA.SOLV.lig_0>
-116.606

>  <SCORE.INTRA.VDW>
5.56024

>  <SCORE.INTRA.VDW.0>
-6.01229

>  <SCORE.INTRA.norm>
0.277223

>  <SCORE.RESTR>
20.0159

>  <SCORE.RESTR.CAVITY>
20.0159

>  <SCORE.RESTR.norm>
0.476569

>  <SCORE.SYSTEM>
0

>  <SCORE.SYSTEM.CONST>
0

>  <SCORE.SYSTEM.DIHEDRAL>
0

>  <SCORE.SYSTEM.SOLV>
0

>  <SCORE.SYSTEM.norm>
0

>  <SCORE.heavy>
42

>  <SCORE.norm>
0.85554

>  <RMSD>
31.964

$$$$
2et4_lig
 OpenBabel11021811423D
libRbt.so/2013.1/901 2013/11/27
 42 45  0  0  0  0  0  0  0  0999 V2000
   -3.2121   36.5141   13.0824 C   0  0  2  0  0  0  0  0  0  0  0  0
   -2.8271   36.2813   14.4388 O   0  0  0  0  0  0  0  0  0  0  0  0
   -4.7448   36.7454   13.0758 C   0  0  2  0  0  0  0  0  0  0  0  0
   -5.1142   37.8427   13.9332 N   0  0  0  0  0  0  0  0  0  0  0  0
   -5.4638   35.4337   13.5043 C   0  0  1  0  0  0  0  0  0  0  0  0
   -6.8418   35.6396   13.4818 O   0  0  0  0  0  0  0  0  0  0  0  0
   -5.0186   34.2914   12.5311 C   0  0  2  0  0  0  0  0  0  0  0  0
   -5.6436   33.0769   12.8887 O   0  0  0  0  0  0  0  0  0  0  0  0
   -3.4714   34.1045   12.5654 C   0  0  2  0  0  0  0  0  0  0  0  0
   -2.8590   35.3506   12.2205 O   0  0  0  0  0  0  0  0  0  0  0  0
   -2.9858   32.9978   11.5730 C   0  0  0  0  0  0  0  0  0  0  0  0
   -1.6960   32.5037   11.9095 N   0  0  0  0  0  0  0  0  0  0  0  0
    0.4084   38.7973   15.8012 C   0  0  2  0  0  0  0  0  0  0  0  0
    1.1519   39.7843   16.5941 N   0  0  0  0  0  0  0  0  0  0  0  0
   -0.8850   39.5071   15.1262 C   0  0  0  0  0  0  0  0  0  0  0  0
   -1.6908   38.4350   14.2844 C   0  0  2  0  0  0  0  0  0  0  0  0
   -2.8913   39.0319   13.6727 N   0  0  0  0  0  0  0  0  0  0  0  0
   -2.1123   37.2503   15.2179 C   0  0  2  0  0  0  0  0  0  0  0  0
   -0.8581   36.5941   15.8844 C   0  0  2  0  0  0  0  0  0  0  0  0
   -1.3536   35.5286   16.7319 O   0  0  0  0  0  0  0  0  0  0  0  0
   -0.0790   37.6624   16.7168 C   0  0  1  0  0  0  0  0  0  0  0  0
    1.0334   37.0563   17.2834 O   0  0  0  0  0  0  0  0  0  0  0  0
   -0.9189   34.2452   16.7155 C   0  0  1  0  0  0  0  0  0  0  0  0
    0.2591   34.0447   17.7042 C   0  0  2  0  0  0  0  0  0  0  0  0
    1.4987   34.3931   17.1591 O   0  0  0  0  0  0  0  0  0  0  0  0
    0.0127   32.5983   18.0915 C   0  0  1  0  0  0  0  0  0  0  0  0
   -1.5095   32.4136   18.1661 C   0  0  2  0  0  0  0  0  0  0  0  0
   -1.9173   33.2579   17.0897 O   0  0  0  0  0  0  0  0  0  0  0  0
   -2.1750   32.8336   19.5208 C   0  0  0  0  0  0  0  0  0  0  0  0
   -1.6063   31.9965   20.5624 O   0  0  0  0  0  0  0  0  0  0  0  0
   -0.0173   30.5366   16.7239 C   0  0  2  0  0  0  0  0  0  0  0  0
    0.6213   31.7438   17.0387 O   0  0  0  0  0  0  0  0  0  0  0  0
   -0.7376   30.6148   15.3080 C   0  0  1  0  0  0  0  0  0  0  0  0
   -2.2286   29.0269   20.1790 N   0  0  0  0  0  0  0  0  0  0  0  0
   -1.4540   29.1857   15.0607 C   0  0  1  0  0  0  0  0  0  0  0  0
   -0.3878   28.1094   15.1099 O   0  0  0  0  0  0  0  0  0  0  0  0
   -2.5717   28.9236   16.2046 C   0  0  2  0  0  0  0  0  0  0  0  0
   -3.5823   29.9577   16.1311 O   0  0  0  0  0  0  0  0  0  0  0  0
   -1.8019   28.8875   17.6419 C   0  0  1  0  0  0  0  0  0  0  0  0
   -1.0448   30.1725   17.8355 O   0  0  0  0  0  0  0  0  0  0  0  0
   -2.7880   28.6625   18.8412 C   0  0  0  0  0  0  0  0  0  0  0  0
   -1.6977   31.7674   15.2829 N   0  0  0  0  0  0  0  0  0  0  0  0
  1  2  1  1  0  0  0
  1  3  1  0  0  0  0
  1 10  1  0  0  0  0
  3  4  1  1  0  0  0
  3  5  1  0  0  0  0
  5  6  1  6  0  0  0
  5  7  1  0  0  0  0
  7  8  1  1  0  0  0
  7  9  1  0  0  0  0
  9 10  1  0  0  0  0
  9 11  1  6  0  0  0
 11 12  1  0  0  0  0
 13 14  1  1  0  0  0
 13 15  1  0  0  0  0
 13 21  1  0  0  0  0
 16 15  1  0  0  0  0
 16 17  1  1  0  0  0
 18  2  1  6  0  0  0
 18 16  1  0  0  0  0
 19 18  1  0  0  0  0
 19 20  1  1  0  0  0
 21 19  1  0  0  0  0
 21 22  1  6  0  0  0
 23 20  1  1  0  0  0
 23 24  1  0  0  0  0
 23 28  1  0  0  0  0
 24 25  1  6  0  0  0
 24 26  1  0  0  0  0
 26 27  1  0  0  0  0
 26 32  1  6  0  0  0
 27 28  1  0  0  0  0
 27 29  1  1  0  0  0
 29 30  1  0  0  0  0
 31 32  1  1  0  0  0
 31 40  1  0  0  0  0
 33 31  1  0  0  0  0
 33 42  1  1  0  0  0
 35 33  1  0  0  0  0
 35 36  1  1  0  0  0
 37 35  1  0  0  0  0
 37 38  1  1  0  0  0
 37 39  1  0  0  0  0
 39 40  1  0  0  0  0
 39 41  1  1  0  0  0
 41 34  1  0  0  0  0
M  END
>  <CHROM.1>
-106.99791189,-159.82160295,-7.66148944,128.35567979,90.03969969,-145.77687558
-61.33090824,107.43024705,-162.37130782,-1.93555970,33.86744487,15.70756841
1.76309640,-0.82884012,-0.26526520

>  <Name>
2et4_lig

>  <RI>
0

>  <Rbt.Current_Directory>
/home/itssahil/PROJECTS/Mol_Feturizer/New_Systems/rnas/2et4

>  <Rbt.Executable>
rbdock ($Id: //depot/dev/client3/rdock/2013.1/src/exe/rbdock.cxx#4 $)

>  <Rbt.Library>
libRbt.so (2013.1, Build901 2013/11/27)

>  <Rbt.Parameter_File>
/export/apps/rDock/src/rDock_2013.1_src/data/scripts/dock_solv.prm

>  <Rbt.Receptor>
prm/blind_docking_60.prm

>  <SCORE>
35.0969

>  <SCORE.INTER>
-2.07588

>  <SCORE.INTER.CONST>
1

>  <SCORE.INTER.POLAR>
-1.67186

>  <SCORE.INTER.ROT>
9

>  <SCORE.INTER.SOLV>
28.6335

>  <SCORE.INTER.VDW>
-14.9555

>  <SCORE.INTER.norm>
-0.0494256

>  <SCORE.INTRA>
24.7277

>  <SCORE.INTRA.DIHEDRAL>
15.3846

>  <SCORE.INTRA.DIHEDRAL.0>
21.6909

>  <SCORE.INTRA.POLAR>
0

>  <SCORE.INTRA.POLAR.0>
0

>  <SCORE.INTRA.REPUL>
0

>  <SCORE.INTRA.REPUL.0>
0

>  <SCORE.INTRA.SOLV>
8.76588

>  <SCORE.INTRA.SOLV.lig_0>
-116.606

>  <SCORE.INTRA.VDW>
12.6525

>  <SCORE.INTRA.VDW.0>
-6.01229

>  <SCORE.INTRA.norm>
0.588755

>  <SCORE.RESTR>
12.4451

>  <SCORE.RESTR.CAVITY>
12.4451

>  <SCORE.RESTR.norm>
0.296311

>  <SCORE.SYSTEM>
0

>  <SCORE.SYSTEM.CONST>
0

>  <SCORE.SYSTEM.DIHEDRAL>
0

>  <SCORE.SYSTEM.SOLV>
0

>  <SCORE.SYSTEM.norm>
0

>  <SCORE.heavy>
42

>  <SCORE.norm>
0.83564

>  <RMSD>
31.968

$$$$
2et4_lig
 OpenBabel11021811423D
libRbt.so/2013.1/901 2013/11/27
 42 45  0  0  0  0  0  0  0  0999 V2000
   -0.6266   32.1961   17.1671 C   0  0  2  0  0  0  0  0  0  0  0  0
   -0.9475   33.4345   17.8040 O   0  0  0  0  0  0  0  0  0  0  0  0
   -1.3824   31.0796   17.9318 C   0  0  2  0  0  0  0  0  0  0  0  0
   -2.8026   31.3220   17.9468 N   0  0  0  0  0  0  0  0  0  0  0  0
   -0.8173   30.9748   19.3778 C   0  0  1  0  0  0  0  0  0  0  0  0
   -1.4874   29.9597   20.0578 O   0  0  0  0  0  0  0  0  0  0  0  0
    0.7224   30.7097   19.2834 C   0  0  2  0  0  0  0  0  0  0  0  0
    1.2797   30.6144   20.5772 O   0  0  0  0  0  0  0  0  0  0  0  0
    1.4353   31.8521   18.4981 C   0  0  2  0  0  0  0  0  0  0  0  0
    0.8421   31.9446   17.1995 O   0  0  0  0  0  0  0  0  0  0  0  0
    2.9712   31.5994   18.3479 C   0  0  0  0  0  0  0  0  0  0  0  0
    3.6487   31.6548   19.5965 N   0  0  0  0  0  0  0  0  0  0  0  0
   -0.5585   37.7172   17.4021 C   0  0  2  0  0  0  0  0  0  0  0  0
   -0.1795   39.0251   16.8529 N   0  0  0  0  0  0  0  0  0  0  0  0
    0.7779   36.8498   17.7084 C   0  0  0  0  0  0  0  0  0  0  0  0
    0.3628   35.4354   18.2868 C   0  0  2  0  0  0  0  0  0  0  0  0
    1.5481   34.6021   18.5561 N   0  0  0  0  0  0  0  0  0  0  0  0
   -0.5680   34.7061   17.2600 C   0  0  2  0  0  0  0  0  0  0  0  0
   -1.8378   35.5666   16.9519 C   0  0  2  0  0  0  0  0  0  0  0  0
   -2.6186   34.8165   15.9891 O   0  0  0  0  0  0  0  0  0  0  0  0
   -1.4116   36.9548   16.3752 C   0  0  1  0  0  0  0  0  0  0  0  0
   -2.5554   37.6997   16.1253 O   0  0  0  0  0  0  0  0  0  0  0  0
   -2.4804   34.8835   14.6428 C   0  0  1  0  0  0  0  0  0  0  0  0
   -3.5495   34.0147   13.9304 C   0  0  2  0  0  0  0  0  0  0  0  0
   -3.1831   32.6693   13.8262 O   0  0  0  0  0  0  0  0  0  0  0  0
   -3.7191   34.8254   12.6589 C   0  0  1  0  0  0  0  0  0  0  0  0
   -3.6139   36.3036   13.0596 C   0  0  2  0  0  0  0  0  0  0  0  0
   -2.6200   36.2163   14.0805 O   0  0  0  0  0  0  0  0  0  0  0  0
   -4.9368   36.9558   13.5881 C   0  0  0  0  0  0  0  0  0  0  0  0
   -4.6400   38.3404   13.9106 O   0  0  0  0  0  0  0  0  0  0  0  0
   -2.9795   33.6729   10.5982 C   0  0  2  0  0  0  0  0  0  0  0  0
   -2.6320   34.4277   11.7268 O   0  0  0  0  0  0  0  0  0  0  0  0
   -4.5045   33.2240   10.6491 C   0  0  1  0  0  0  0  0  0  0  0  0
   -1.2503   29.5725   10.6219 N   0  0  0  0  0  0  0  0  0  0  0  0
   -4.7858   32.3478    9.3187 C   0  0  1  0  0  0  0  0  0  0  0  0
   -4.4756   33.2108    8.1119 O   0  0  0  0  0  0  0  0  0  0  0  0
   -3.8489   31.0254    9.3209 C   0  0  2  0  0  0  0  0  0  0  0  0
   -4.1701   30.2141   10.4762 O   0  0  0  0  0  0  0  0  0  0  0  0
   -2.2965   31.5253    9.3065 C   0  0  1  0  0  0  0  0  0  0  0  0
   -2.0515   32.4281   10.4842 O   0  0  0  0  0  0  0  0  0  0  0  0
   -1.2838   30.3273    9.3317 C   0  0  0  0  0  0  0  0  0  0  0  0
   -4.7767   32.4720   11.9184 N   0  0  0  0  0  0  0  0  0  0  0  0
  1  2  1  1  0  0  0
  1  3  1  0  0  0  0
  1 10  1  0  0  0  0
  3  4  1  1  0  0  0
  3  5  1  0  0  0  0
  5  6  1  6  0  0  0
  5  7  1  0  0  0  0
  7  8  1  1  0  0  0
  7  9  1  0  0  0  0
  9 10  1  0  0  0  0
  9 11  1  6  0  0  0
 11 12  1  0  0  0  0
 13 14  1  6  0  0  0
 13 15  1  0  0  0  0
 13 21  1  0  0  0  0
 16 15  1  0  0  0  0
 16 17  1  6  0  0  0
 18  2  1  1  0  0  0
 18 16  1  0  0  0  0
 19 18  1  0  0  0  0
 19 20  1  6  0  0  0
 21 19  1  0  0  0  0
 21 22  1  1  0  0  0
 23 20  1  1  0  0  0
 23 24  1  0  0  0  0
 23 28  1  0  0  0  0
 24 25  1  6  0  0  0
 24 26  1  0  0  0  0
 26 27  1  0  0  0  0
 26 32  1  6  0  0  0
 27 28  1  0  0  0  0
 27 29  1  1  0  0  0
 29 30  1  0  0  0  0
 31 32  1  1  0  0  0
 31 40  1  0  0  0  0
 33 31  1  0  0  0  0
 33 42  1  1  0  0  0
 35 33  1  0  0  0  0
 35 36  1  6  0  0  0
 37 35  1  0  0  0  0
 37 38  1  1  0  0  0
 37 39  1  0  0  0  0
 39 40  1  0  0  0  0
 39 41  1  1  0  0  0
 41 34  1  0  0  0  0
M  END
>  <CHROM.1>
-171.56042049,-66.68907941,-119.19134731,-88.22016265,-176.12961285,108.97198559
-179.92577281,-7.51673807,-69.24542539,-1.73110535,33.55326166,14.91549466
-0.42308104,1.05409033,-2.67359082

>  <Name>
2et4_lig

>  <RI>
0

>  <Rbt.Current_Directory>
/home/itssahil/PROJECTS/Mol_Feturizer/New_Systems/rnas/2et4

>  <Rbt.Executable>
rbdock ($Id: //depot/dev/client3/rdock/2013.1/src/exe/rbdock.cxx#4 $)

>  <Rbt.Library>
libRbt.so (2013.1, Build901 2013/11/27)

>  <Rbt.Parameter_File>
/export/apps/rDock/src/rDock_2013.1_src/data/scripts/dock_solv.prm

>  <Rbt.Receptor>
prm/blind_docking_60.prm

>  <SCORE>
6.66018

>  <SCORE.INTER>
-15.4533

>  <SCORE.INTER.CONST>
1

>  <SCORE.INTER.POLAR>
-0.846805

>  <SCORE.INTER.ROT>
9

>  <SCORE.INTER.SOLV>
19.8388

>  <SCORE.INTER.VDW>
-23.6925

>  <SCORE.INTER.norm>
-0.367936

>  <SCORE.INTRA>
10.0427

>  <SCORE.INTRA.DIHEDRAL>
3.25071

>  <SCORE.INTRA.DIHEDRAL.0>
21.6909

>  <SCORE.INTRA.POLAR>
0

>  <SCORE.INTRA.POLAR.0>
0

>  <SCORE.INTRA.REPUL>
0

>  <SCORE.INTRA.REPUL.0>
0

>  <SCORE.INTRA.SOLV>
5.53478

>  <SCORE.INTRA.SOLV.lig_0>
-116.606

>  <SCORE.INTRA.VDW>
5.64992

>  <SCORE.INTRA.VDW.0>
-6.01229

>  <SCORE.INTRA.norm>
0.239111

>  <SCORE.RESTR>
12.0708

>  <SCORE.RESTR.CAVITY>
12.0708

>  <SCORE.RESTR.norm>
0.287401

>  <SCORE.SYSTEM>
0

>  <SCORE.SYSTEM.CONST>
0

>  <SCORE.SYSTEM.DIHEDRAL>
0

>  <SCORE.SYSTEM.SOLV>
0

>  <SCORE.SYSTEM.norm>
0

>  <SCORE.heavy>
42

>  <SCORE.norm>
0.158576

>  <RMSD>
31.993

$$$$
2et4_lig
 OpenBabel11021811423D
libRbt.so/2013.1/901 2013/11/27
 42 45  0  0  0  0  0  0  0  0999 V2000
    0.8497   32.6785   18.6514 C   0  0  2  0  0  0  0  0  0  0  0  0
    0.9667   31.7968   17.5329 O   0  0  0  0  0  0  0  0  0  0  0  0
    2.2837   32.9421   19.1776 C   0  0  2  0  0  0  0  0  0  0  0  0
    3.1281   33.4922   18.1480 N   0  0  0  0  0  0  0  0  0  0  0  0
    2.8762   31.6172   19.7387 C   0  0  1  0  0  0  0  0  0  0  0  0
    4.1589   31.8605   20.2257 O   0  0  0  0  0  0  0  0  0  0  0  0
    1.9117   31.0815   20.8491 C   0  0  2  0  0  0  0  0  0  0  0  0
    2.4085   29.8725   21.3828 O   0  0  0  0  0  0  0  0  0  0  0  0
    0.4824   30.8425   20.2748 C   0  0  2  0  0  0  0  0  0  0  0  0
    0.0071   32.0733   19.7217 O   0  0  0  0  0  0  0  0  0  0  0  0
   -0.5201   30.3457   21.3674 C   0  0  0  0  0  0  0  0  0  0  0  0
   -1.8478   30.2415   20.8699 N   0  0  0  0  0  0  0  0  0  0  0  0
   -1.3311   29.7751   14.4854 C   0  0  2  0  0  0  0  0  0  0  0  0
   -2.4783   29.3497   13.6739 N   0  0  0  0  0  0  0  0  0  0  0  0
   -1.5809   29.3645   16.0350 C   0  0  0  0  0  0  0  0  0  0  0  0
   -0.3475   29.8384   16.9076 C   0  0  2  0  0  0  0  0  0  0  0  0
   -0.5439   29.5079   18.3302 N   0  0  0  0  0  0  0  0  0  0  0  0
   -0.1622   31.3855   16.7498 C   0  0  2  0  0  0  0  0  0  0  0  0
    0.0486   31.7700   15.2480 C   0  0  2  0  0  0  0  0  0  0  0  0
    0.1936   33.2110   15.2095 O   0  0  0  0  0  0  0  0  0  0  0  0
   -1.1796   31.3028   14.4026 C   0  0  1  0  0  0  0  0  0  0  0  0
   -0.9586   31.6440   13.0758 O   0  0  0  0  0  0  0  0  0  0  0  0
   -0.7887   34.1067   15.4722 C   0  0  1  0  0  0  0  0  0  0  0  0
   -1.2541   34.0042   16.9482 C   0  0  2  0  0  0  0  0  0  0  0  0
   -2.2115   33.0061   17.1538 O   0  0  0  0  0  0  0  0  0  0  0  0
   -1.6458   35.4511   17.1844 C   0  0  1  0  0  0  0  0  0  0  0  0
   -0.6282   36.3143   16.4254 C   0  0  2  0  0  0  0  0  0  0  0  0
   -0.4157   35.4972   15.2744 O   0  0  0  0  0  0  0  0  0  0  0  0
    0.7092   36.6081   17.1868 C   0  0  0  0  0  0  0  0  0  0  0  0
    0.4686   36.3636   18.5980 O   0  0  0  0  0  0  0  0  0  0  0  0
   -3.1751   35.8914   15.2900 C   0  0  2  0  0  0  0  0  0  0  0  0
   -3.0242   35.6325   16.6590 O   0  0  0  0  0  0  0  0  0  0  0  0
   -2.6824   37.3578   14.9203 C   0  0  1  0  0  0  0  0  0  0  0  0
   -6.8078   34.5881   12.1982 N   0  0  0  0  0  0  0  0  0  0  0  0
   -2.9221   37.5527   13.3325 C   0  0  1  0  0  0  0  0  0  0  0  0
   -2.1413   36.4778   12.6028 O   0  0  0  0  0  0  0  0  0  0  0  0
   -4.5021   37.4288   12.9939 C   0  0  2  0  0  0  0  0  0  0  0  0
   -5.2239   38.4704   13.6940 O   0  0  0  0  0  0  0  0  0  0  0  0
   -4.9780   35.9283   13.4203 C   0  0  1  0  0  0  0  0  0  0  0  0
   -4.6625   35.6981   14.8727 O   0  0  0  0  0  0  0  0  0  0  0  0
   -6.5070   35.6913   13.1615 C   0  0  0  0  0  0  0  0  0  0  0  0
   -3.4102   38.3701   15.7547 N   0  0  0  0  0  0  0  0  0  0  0  0
  1  2  1  6  0  0  0
  1  3  1  0  0  0  0
  1 10  1  0  0  0  0
  3  4  1  6  0  0  0
  3  5  1  0  0  0  0
  5  6  1  1  0  0  0
  5  7  1  0  0  0  0
  7  8  1  6  0  0  0
  7  9  1  0  0  0  0
  9 10  1  0  0  0  0
  9 11  1  1  0  0  0
 11 12  1  0  0  0  0
 13 14  1  6  0  0  0
 13 15  1  0  0  0  0
 13 21  1  0  0  0  0
 16 15  1  0  0  0  0
 16 17  1  1  0  0  0
 18  2  1  1  0  0  0
 18 16  1  0  0  0  0
 19 18  1  0  0  0  0
 19 20  1  1  0  0  0
 21 19  1  0  0  0  0
 21 22  1  6  0  0  0
 23 20  1  1  0  0  0
 23 24  1  0  0  0  0
 23 28  1  0  0  0  0
 24 25  1  6  0  0  0
 24 26  1  0  0  0  0
 26 27  1  0  0  0  0
 26 32  1  6  0  0  0
 27 28  1  0  0  0  0
 27 29  1  1  0  0  0
 29 30  1  0  0  0  0
 31 32  1  1  0  0  0
 31 40  1  0  0  0  0
 33 31  1  0  0  0  0
 33 42  1  1  0  0  0
 35 33  1  0  0  0  0
 35 36  1  6  0  0  0
 37 35  1  0  0  0  0
 37 38  1  1  0  0  0
 37 39  1  0  0  0  0
 39 40  1  0  0  0  0
 39 41  1  1  0  0  0
 41 34  1  0  0  0  0
M  END
>  <CHROM.1>
-176.89752493,174.80980157,-115.84370717,-68.55181121,64.38788599,-83.94953391
-19.05041075,-71.37907175,119.28056776,-1.12252475,33.50572177,16.55856232
-0.56323093,-0.83274056,0.04982287

>  <Name>
2et4_lig

>  <RI>
0

>  <Rbt.Current_Directory>
/home/itssahil/PROJECTS/Mol_Feturizer/New_Systems/rnas/2et4

>  <Rbt.Executable>
rbdock ($Id: //depot/dev/client3/rdock/2013.1/src/exe/rbdock.cxx#4 $)

>  <Rbt.Library>
libRbt.so (2013.1, Build901 2013/11/27)

>  <Rbt.Parameter_File>
/export/apps/rDock/src/rDock_2013.1_src/data/scripts/dock_solv.prm

>  <Rbt.Receptor>
prm/blind_docking_60.prm

>  <SCORE>
17.1878

>  <SCORE.INTER>
-3.86043

>  <SCORE.INTER.CONST>
1

>  <SCORE.INTER.POLAR>
-1.33225

>  <SCORE.INTER.ROT>
9

>  <SCORE.INTER.SOLV>
31.0141

>  <SCORE.INTER.VDW>
-18.0708

>  <SCORE.INTER.norm>
-0.091915

>  <SCORE.INTRA>
7.47853

>  <SCORE.INTRA.DIHEDRAL>
-1.60942

>  <SCORE.INTRA.DIHEDRAL.0>
21.6909

>  <SCORE.INTRA.POLAR>
0

>  <SCORE.INTRA.POLAR.0>
0

>  <SCORE.INTRA.REPUL>
0

>  <SCORE.INTRA.REPUL.0>
0

>  <SCORE.INTRA.SOLV>
3.88088

>  <SCORE.INTRA.SOLV.lig_0>
-116.606

>  <SCORE.INTRA.VDW>
6.3428

>  <SCORE.INTRA.VDW.0>
-6.01229

>  <SCORE.INTRA.norm>
0.17806

>  <SCORE.RESTR>
13.5697

>  <SCORE.RESTR.CAVITY>
13.5697

>  <SCORE.RESTR.norm>
0.323089

>  <SCORE.SYSTEM>
0

>  <SCORE.SYSTEM.CONST>
0

>  <SCORE.SYSTEM.DIHEDRAL>
0

>  <SCORE.SYSTEM.SOLV>
0

>  <SCORE.SYSTEM.norm>
0

>  <SCORE.heavy>
42

>  <SCORE.norm>
0.409234

>  <RMSD>
32.006

$$$$
2et4_lig
 OpenBabel11021811423D
libRbt.so/2013.1/901 2013/11/27
 42 45  0  0  0  0  0  0  0  0999 V2000
   -2.1449   37.5072   15.3293 C   0  0  2  0  0  0  0  0  0  0  0  0
   -1.7900   36.9279   14.0721 O   0  0  0  0  0  0  0  0  0  0  0  0
   -1.6045   38.9600   15.3319 C   0  0  2  0  0  0  0  0  0  0  0  0
   -2.1304   39.7181   14.2254 N   0  0  0  0  0  0  0  0  0  0  0  0
   -0.0491   38.9291   15.3001 C   0  0  1  0  0  0  0  0  0  0  0  0
    0.4344   40.2359   15.3189 O   0  0  0  0  0  0  0  0  0  0  0  0
    0.4489   38.0946   16.5272 C   0  0  2  0  0  0  0  0  0  0  0  0
    1.8595   38.0342   16.5339 O   0  0  0  0  0  0  0  0  0  0  0  0
   -0.1288   36.6474   16.4856 C   0  0  2  0  0  0  0  0  0  0  0  0
   -1.5566   36.7325   16.4586 O   0  0  0  0  0  0  0  0  0  0  0  0
    0.3150   35.7962   17.7200 C   0  0  0  0  0  0  0  0  0  0  0  0
   -0.5180   34.6610   17.9165 N   0  0  0  0  0  0  0  0  0  0  0  0
   -5.2165   34.4827   13.1052 C   0  0  2  0  0  0  0  0  0  0  0  0
   -6.1546   33.6635   12.3277 N   0  0  0  0  0  0  0  0  0  0  0  0
   -5.1223   35.9655   12.4536 C   0  0  0  0  0  0  0  0  0  0  0  0
   -4.0986   36.8397   13.2873 C   0  0  2  0  0  0  0  0  0  0  0  0
   -3.9621   38.1903   12.7138 N   0  0  0  0  0  0  0  0  0  0  0  0
   -2.7013   36.1327   13.3012 C   0  0  2  0  0  0  0  0  0  0  0  0
   -2.8122   34.6937   13.9052 C   0  0  2  0  0  0  0  0  0  0  0  0
   -1.4804   34.1252   13.8592 O   0  0  0  0  0  0  0  0  0  0  0  0
   -3.8193   33.8422   13.0672 C   0  0  1  0  0  0  0  0  0  0  0  0
   -3.9076   32.5783   13.6333 O   0  0  0  0  0  0  0  0  0  0  0  0
   -0.9083   33.3842   14.8390 C   0  0  1  0  0  0  0  0  0  0  0  0
   -1.9725   32.5487   15.5972 C   0  0  2  0  0  0  0  0  0  0  0  0
   -2.6105   33.2652   16.6143 O   0  0  0  0  0  0  0  0  0  0  0  0
   -1.1228   31.3487   15.9723 C   0  0  1  0  0  0  0  0  0  0  0  0
   -0.1797   31.0876   14.7895 C   0  0  2  0  0  0  0  0  0  0  0  0
    0.0861   32.4291   14.3801 O   0  0  0  0  0  0  0  0  0  0  0  0
   -0.7801   30.2304   13.6235 C   0  0  0  0  0  0  0  0  0  0  0  0
   -1.0279   28.8984   14.1464 O   0  0  0  0  0  0  0  0  0  0  0  0
   -0.5632   30.8942   18.3391 C   0  0  2  0  0  0  0  0  0  0  0  0
   -0.3746   31.6993   17.2076 O   0  0  0  0  0  0  0  0  0  0  0  0
   -1.9669   31.1841   19.0286 C   0  0  1  0  0  0  0  0  0  0  0  0
    3.0741   30.7251   20.7993 N   0  0  0  0  0  0  0  0  0  0  0  0
   -2.0661   30.2224   20.3255 C   0  0  1  0  0  0  0  0  0  0  0  0
   -1.9355   28.7864   19.8582 O   0  0  0  0  0  0  0  0  0  0  0  0
   -0.8825   30.5837   21.3719 C   0  0  2  0  0  0  0  0  0  0  0  0
   -1.0343   31.9553   21.8101 O   0  0  0  0  0  0  0  0  0  0  0  0
    0.5377   30.3103   20.6182 C   0  0  1  0  0  0  0  0  0  0  0  0
    0.5961   31.1215   19.3531 O   0  0  0  0  0  0  0  0  0  0  0  0
    1.7705   30.6490   21.5275 C   0  0  0  0  0  0  0  0  0  0  0  0
   -2.0826   32.6415   19.3655 N   0  0  0  0  0  0  0  0  0  0  0  0
  1  2  1  6  0  0  0
  1  3  1  0  0  0  0
  1 10  1  0  0  0  0
  3  4  1  6  0  0  0
  3  5  1  0  0  0  0
  5  6  1  1  0  0  0
  5  7  1  0  0  0  0
  7  8  1  6  0  0  0
  7  9  1  0  0  0  0
  9 10  1  0  0  0  0
  9 11  1  1  0  0  0
 11 12  1  0  0  0  0
 13 14  1  6  0  0  0
 13 15  1  0  0  0  0
 13 21  1  0  0  0  0
 16 15  1  0  0  0  0
 16 17  1  6  0  0  0
 18  2  1  1  0  0  0
 18 16  1  0  0  0  0
 19 18  1  0  0  0  0
 19 20  1  6  0  0  0
 21 19  1  0  0  0  0
 21 22  1  1  0  0  0
 23 20  1  6  0  0  0
 23 24  1  0  0  0  0
 23 28  1  0  0  0  0
 24 25  1  1  0  0  0
 24 26  1  0  0  0  0
 26 27  1  0  0  0  0
 26 32  1  1  0  0  0
 27 28  1  0  0  0  0
 27 29  1  6  0  0  0
 29 30  1  0  0  0  0
 31 32  1  6  0  0  0
 31 40  1  0  0  0  0
 33 31  1  0  0  0  0
 33 42  1  1  0  0  0
 35 33  1  0  0  0  0
 35 36  1  6  0  0  0
 37 35  1  0  0  0  0
 37 38  1  6  0  0  0
 37 39  1  0  0  0  0
 39 40  1  0  0  0  0
 39 41  1  1  0  0  0
 41 34  1  0  0  0  0
M  END
>  <CHROM.1>
-136.44540612,161.29863594,44.32403802,138.78455918,32.35099597,121.29467809
-65.63098259,-75.13373357,-166.42144361,-1.39235879,33.94961126,16.25898135
-2.00419116,0.93686193,2.79804468

>  <Name>
2et4_lig

>  <RI>
0

>  <Rbt.Current_Directory>
/home/itssahil/PROJECTS/Mol_Feturizer/New_Systems/rnas/2et4

>  <Rbt.Executable>
rbdock ($Id: //depot/dev/client3/rdock/2013.1/src/exe/rbdock.cxx#4 $)

>  <Rbt.Library>
libRbt.so (2013.1, Build901 2013/11/27)

>  <Rbt.Parameter_File>
/export/apps/rDock/src/rDock_2013.1_src/data/scripts/dock_solv.prm

>  <Rbt.Receptor>
prm/blind_docking_60.prm

>  <SCORE>
7.40687

>  <SCORE.INTER>
-12.8318

>  <SCORE.INTER.CONST>
1

>  <SCORE.INTER.POLAR>
-1.13691

>  <SCORE.INTER.ROT>
9

>  <SCORE.INTER.SOLV>
28.7056

>  <SCORE.INTER.VDW>
-23.9334

>  <SCORE.INTER.norm>
-0.305519

>  <SCORE.INTRA>
8.38602

>  <SCORE.INTRA.DIHEDRAL>
4.43267

>  <SCORE.INTRA.DIHEDRAL.0>
21.6909

>  <SCORE.INTRA.POLAR>
0

>  <SCORE.INTRA.POLAR.0>
0

>  <SCORE.INTRA.REPUL>
0.344736

>  <SCORE.INTRA.REPUL.0>
0

>  <SCORE.INTRA.SOLV>
7.39426

>  <SCORE.INTRA.SOLV.lig_0>
-116.606

>  <SCORE.INTRA.VDW>
0.748875

>  <SCORE.INTRA.VDW.0>
-6.01229

>  <SCORE.INTRA.norm>
0.199667

>  <SCORE.RESTR>
11.8526

>  <SCORE.RESTR.CAVITY>
11.8526

>  <SCORE.RESTR.norm>
0.282206

>  <SCORE.SYSTEM>
0

>  <SCORE.SYSTEM.CONST>
0

>  <SCORE.SYSTEM.DIHEDRAL>
0

>  <SCORE.SYSTEM.SOLV>
0

>  <SCORE.SYSTEM.norm>
0

>  <SCORE.heavy>
42

>  <SCORE.norm>
0.176354

>  <RMSD>
32.061

$$$$
2et4_lig
 OpenBabel11021811423D
libRbt.so/2013.1/901 2013/11/27
 42 45  0  0  0  0  0  0  0  0999 V2000
    0.3539   32.2709   18.5798 C   0  0  2  0  0  0  0  0  0  0  0  0
    0.0963   31.1565   17.7231 O   0  0  0  0  0  0  0  0  0  0  0  0
    1.8381   32.6694   18.3774 C   0  0  2  0  0  0  0  0  0  0  0  0
    2.1154   32.9791   16.9980 N   0  0  0  0  0  0  0  0  0  0  0  0
    2.7528   31.5186   18.8875 C   0  0  1  0  0  0  0  0  0  0  0  0
    4.0863   31.8862   18.7193 O   0  0  0  0  0  0  0  0  0  0  0  0
    2.3987   31.2400   20.3864 C   0  0  2  0  0  0  0  0  0  0  0  0
    3.2027   30.1942   20.8897 O   0  0  0  0  0  0  0  0  0  0  0  0
    0.8961   30.8543   20.5396 C   0  0  2  0  0  0  0  0  0  0  0  0
    0.1012   31.9172   20.0055 O   0  0  0  0  0  0  0  0  0  0  0  0
    0.4960   30.6089   22.0312 C   0  0  0  0  0  0  0  0  0  0  0  0
    1.5159   31.0157   22.9343 N   0  0  0  0  0  0  0  0  0  0  0  0
   -1.3221   31.1425   13.6436 C   0  0  2  0  0  0  0  0  0  0  0  0
   -2.2382   31.2164   12.4986 N   0  0  0  0  0  0  0  0  0  0  0  0
   -1.7661   29.9217   14.6156 C   0  0  0  0  0  0  0  0  0  0  0  0
   -0.7837   29.8559   15.8556 C   0  0  2  0  0  0  0  0  0  0  0  0
   -1.1662   28.7744   16.7807 N   0  0  0  0  0  0  0  0  0  0  0  0
   -0.8090   31.2265   16.6129 C   0  0  2  0  0  0  0  0  0  0  0  0
   -0.4070   32.3977   15.6566 C   0  0  2  0  0  0  0  0  0  0  0  0
   -0.4758   33.6123   16.4433 O   0  0  0  0  0  0  0  0  0  0  0  0
   -1.3900   32.4538   14.4433 C   0  0  1  0  0  0  0  0  0  0  0  0
   -1.0014   33.4907   13.6070 O   0  0  0  0  0  0  0  0  0  0  0  0
   -0.9453   34.8059   16.0061 C   0  0  1  0  0  0  0  0  0  0  0  0
   -2.1660   35.2644   16.8458 C   0  0  2  0  0  0  0  0  0  0  0  0
   -3.3732   34.7128   16.4061 O   0  0  0  0  0  0  0  0  0  0  0  0
   -1.9754   36.7674   16.7580 C   0  0  1  0  0  0  0  0  0  0  0  0
   -0.4630   37.0253   16.8122 C   0  0  2  0  0  0  0  0  0  0  0  0
    0.0098   35.8991   16.0733 O   0  0  0  0  0  0  0  0  0  0  0  0
    0.1610   37.0840   18.2481 C   0  0  0  0  0  0  0  0  0  0  0  0
    0.4072   35.7168   18.6713 O   0  0  0  0  0  0  0  0  0  0  0  0
   -3.1762   36.2549   14.6563 C   0  0  2  0  0  0  0  0  0  0  0  0
   -2.5663   37.2184   15.4711 O   0  0  0  0  0  0  0  0  0  0  0  0
   -2.8013   36.4699   13.1256 C   0  0  1  0  0  0  0  0  0  0  0  0
   -7.9438   34.6823   13.4517 N   0  0  0  0  0  0  0  0  0  0  0  0
   -3.5723   35.3244   12.2829 C   0  0  1  0  0  0  0  0  0  0  0  0
   -3.1245   33.9737   12.8051 O   0  0  0  0  0  0  0  0  0  0  0  0
   -5.1743   35.4934   12.4599 C   0  0  2  0  0  0  0  0  0  0  0  0
   -5.5781   36.7853   11.9461 O   0  0  0  0  0  0  0  0  0  0  0  0
   -5.5145   35.3041   14.0436 C   0  0  1  0  0  0  0  0  0  0  0  0
   -4.7207   36.2971   14.8473 O   0  0  0  0  0  0  0  0  0  0  0  0
   -7.0443   35.4704   14.3492 C   0  0  0  0  0  0  0  0  0  0  0  0
   -3.1650   37.8612   12.6981 N   0  0  0  0  0  0  0  0  0  0  0  0
  1  2  1  6  0  0  0
  1  3  1  0  0  0  0
  1 10  1  0  0  0  0
  3  4  1  6  0  0  0
  3  5  1  0  0  0  0
  5  6  1  1  0  0  0
  5  7  1  0  0  0  0
  7  8  1  6  0  0  0
  7  9  1  0  0  0  0
  9 10  1  0  0  0  0
  9 11  1  1  0  0  0
 11 12  1  0  0  0  0
 13 14  1  6  0  0  0
 13 15  1  0  0  0  0
 13 21  1  0  0  0  0
 16 15  1  0  0  0  0
 16 17  1  1  0  0  0
 18  2  1  1  0  0  0
 18 16  1  0  0  0  0
 19 18  1  0  0  0  0
 19 20  1  1  0  0  0
 21 19  1  0  0  0  0
 21 22  1  6  0  0  0
 23 20  1  1  0  0  0
 23 24  1  0  0  0  0
 23 28  1  0  0  0  0
 24 25  1  6  0  0  0
 24 26  1  0  0  0  0
 26 27  1  0  0  0  0
 26 32  1  6  0  0  0
 27 28  1  0  0  0  0
 27 29  1  1  0  0  0
 29 30  1  0  0  0  0
 31 32  1  1  0  0  0
 31 40  1  0  0  0  0
 33 31  1  0  0  0  0
 33 42  1  6  0  0  0
 35 33  1  0  0  0  0
 35 36  1  1  0  0  0
 37 35  1  0  0  0  0
 37 38  1  1  0  0  0
 37 39  1  0  0  0  0
 39 40  1  0  0  0  0
 39 41  1  6  0  0  0
 41 34  1  0  0  0  0
M  END
>  <CHROM.1>
-114.34536596,10.32373827,176.87586440,-140.53368641,119.22921130,1.62288323
82.67026703,-137.85864960,48.89600101,-1.28223574,33.61125460,16.30232140
-0.29961726,-0.85901927,0.22713957

>  <Name>
2et4_lig

>  <RI>
0

>  <Rbt.Current_Directory>
/home/itssahil/PROJECTS/Mol_Feturizer/New_Systems/rnas/2et4

>  <Rbt.Executable>
rbdock ($Id: //depot/dev/client3/rdock/2013.1/src/exe/rbdock.cxx#4 $)

>  <Rbt.Library>
libRbt.so (2013.1, Build901 2013/11/27)

>  <Rbt.Parameter_File>
/export/apps/rDock/src/rDock_2013.1_src/data/scripts/dock_solv.prm

>  <Rbt.Receptor>
prm/blind_docking_60.prm

>  <SCORE>
45.2194

>  <SCORE.INTER>
5.20003

>  <SCORE.INTER.CONST>
1

>  <SCORE.INTER.POLAR>
-0.453243

>  <SCORE.INTER.ROT>
9

>  <SCORE.INTER.SOLV>
39.2897

>  <SCORE.INTER.VDW>
-17.7191

>  <SCORE.INTER.norm>
0.12381

>  <SCORE.INTRA>
24.6604

>  <SCORE.INTRA.DIHEDRAL>
17.8003

>  <SCORE.INTRA.DIHEDRAL.0>
21.6909

>  <SCORE.INTRA.POLAR>
0

>  <SCORE.INTRA.POLAR.0>
0

>  <SCORE.INTRA.REPUL>
0

>  <SCORE.INTRA.REPUL.0>
0

>  <SCORE.INTRA.SOLV>
4.84178

>  <SCORE.INTRA.SOLV.lig_0>
-116.606

>  <SCORE.INTRA.VDW>
13.3394

>  <SCORE.INTRA.VDW.0>
-6.01229

>  <SCORE.INTRA.norm>
0.587153

>  <SCORE.RESTR>
15.359

>  <SCORE.RESTR.CAVITY>
15.359

>  <SCORE.RESTR.norm>
0.36569

>  <SCORE.SYSTEM>
0

>  <SCORE.SYSTEM.CONST>
0

>  <SCORE.SYSTEM.DIHEDRAL>
0

>  <SCORE.SYSTEM.SOLV>
0

>  <SCORE.SYSTEM.norm>
0

>  <SCORE.heavy>
42

>  <SCORE.norm>
1.07665

>  <RMSD>
32.079

$$$$
2et4_lig
 OpenBabel11021811423D
libRbt.so/2013.1/901 2013/11/27
 42 45  0  0  0  0  0  0  0  0999 V2000
   -1.1110   32.5481   17.7684 C   0  0  2  0  0  0  0  0  0  0  0  0
   -1.0661   33.9040   18.2177 O   0  0  0  0  0  0  0  0  0  0  0  0
   -2.0594   31.7809   18.7247 C   0  0  2  0  0  0  0  0  0  0  0  0
   -3.3700   32.3785   18.7557 N   0  0  0  0  0  0  0  0  0  0  0  0
   -1.4298   31.7386   20.1471 C   0  0  1  0  0  0  0  0  0  0  0  0
   -2.2767   31.0345   21.0008 O   0  0  0  0  0  0  0  0  0  0  0  0
   -0.0154   31.0775   20.0366 C   0  0  2  0  0  0  0  0  0  0  0  0
    0.5974   31.0250   21.3075 O   0  0  0  0  0  0  0  0  0  0  0  0
    0.8964   31.8776   19.0576 C   0  0  2  0  0  0  0  0  0  0  0  0
    0.2479   31.9360   17.7837 O   0  0  0  0  0  0  0  0  0  0  0  0
    2.3061   31.2216   18.8904 C   0  0  0  0  0  0  0  0  0  0  0  0
    3.0011   31.7248   17.7568 N   0  0  0  0  0  0  0  0  0  0  0  0
   -0.3156   37.9197   16.8157 C   0  0  2  0  0  0  0  0  0  0  0  0
    0.1853   39.0232   15.9868 N   0  0  0  0  0  0  0  0  0  0  0  0
    0.9355   37.0587   17.3863 C   0  0  0  0  0  0  0  0  0  0  0  0
    0.3890   35.8619   18.2674 C   0  0  2  0  0  0  0  0  0  0  0  0
    1.4935   35.0359   18.7865 N   0  0  0  0  0  0  0  0  0  0  0  0
   -0.5678   34.9736   17.4025 C   0  0  2  0  0  0  0  0  0  0  0  0
   -1.7532   35.8226   16.8352 C   0  0  2  0  0  0  0  0  0  0  0  0
   -2.5641   34.9189   16.0446 O   0  0  0  0  0  0  0  0  0  0  0  0
   -1.1979   36.9937   15.9625 C   0  0  1  0  0  0  0  0  0  0  0  0
   -2.2689   37.7360   15.4855 O   0  0  0  0  0  0  0  0  0  0  0  0
   -2.4151   34.6864   14.7180 C   0  0  1  0  0  0  0  0  0  0  0  0
   -3.5966   33.8478   14.1645 C   0  0  2  0  0  0  0  0  0  0  0  0
   -3.4272   32.4722   14.3489 O   0  0  0  0  0  0  0  0  0  0  0  0
   -3.6454   34.3940   12.7496 C   0  0  1  0  0  0  0  0  0  0  0  0
   -3.3296   35.8934   12.8432 C   0  0  2  0  0  0  0  0  0  0  0  0
   -2.3606   35.8803   13.8914 O   0  0  0  0  0  0  0  0  0  0  0  0
   -4.5460   36.8196   13.1854 C   0  0  0  0  0  0  0  0  0  0  0  0
   -4.0961   38.1942   13.0538 O   0  0  0  0  0  0  0  0  0  0  0  0
   -3.0191   33.1204   10.7230 C   0  0  2  0  0  0  0  0  0  0  0  0
   -2.6249   33.6639   11.9531 O   0  0  0  0  0  0  0  0  0  0  0  0
   -4.6035   33.0643   10.5958 C   0  0  1  0  0  0  0  0  0  0  0  0
   -2.3905   28.7446    8.0486 N   0  0  0  0  0  0  0  0  0  0  0  0
   -4.9411   32.4045    9.1580 C   0  0  1  0  0  0  0  0  0  0  0  0
   -4.3036   33.2635    8.0841 O   0  0  0  0  0  0  0  0  0  0  0  0
   -4.3554   30.8948    9.0927 C   0  0  2  0  0  0  0  0  0  0  0  0
   -4.9857   30.0929   10.1203 O   0  0  0  0  0  0  0  0  0  0  0  0
   -2.7363   30.9900    9.2639 C   0  0  1  0  0  0  0  0  0  0  0  0
   -2.4108   31.6977   10.5504 O   0  0  0  0  0  0  0  0  0  0  0  0
   -2.0501   29.5793    9.2415 C   0  0  0  0  0  0  0  0  0  0  0  0
   -5.1846   32.2975   11.7470 N   0  0  0  0  0  0  0  0  0  0  0  0
  1  2  1  1  0  0  0
  1  3  1  0  0  0  0
  1 10  1  0  0  0  0
  3  4  1  1  0  0  0
  3  5  1  0  0  0  0
  5  6  1  1  0  0  0
  5  7  1  0  0  0  0
  7  8  1  1  0  0  0
  7  9  1  0  0  0  0
  9 10  1  0  0  0  0
  9 11  1  6  0  0  0
 11 12  1  0  0  0  0
 13 14  1  6  0  0  0
 13 15  1  0  0  0  0
 13 21  1  0  0  0  0
 16 15  1  0  0  0  0
 16 17  1  6  0  0  0
 18  2  1  1  0  0  0
 18 16  1  0  0  0  0
 19 18  1  0  0  0  0
 19 20  1  6  0  0  0
 21 19  1  0  0  0  0
 21 22  1  1  0  0  0
 23 20  1  1  0  0  0
 23 24  1  0  0  0  0
 23 28  1  0  0  0  0
 24 25  1  6  0  0  0
 24 26  1  0  0  0  0
 26 27  1  0  0  0  0
 26 32  1  6  0  0  0
 27 28  1  0  0  0  0
 27 29  1  1  0  0  0
 29 30  1  0  0  0  0
 31 32  1  1  0  0  0
 31 40  1  0  0  0  0
 33 31  1  0  0  0  0
 33 42  1  1  0  0  0
 35 33  1  0  0  0  0
 35 36  1  6  0  0  0
 37 35  1  0  0  0  0
 37 38  1  1  0  0  0
 37 39  1  0  0  0  0
 39 40  1  0  0  0  0
 39 41  1  1  0  0  0
 41 34  1  0  0  0  0
M  END
>  <CHROM.1>
-164.01069902,164.38740026,-134.37020465,-91.04179137,-170.62817949,130.48110291
-172.51303818,-15.27013932,53.59795700,-1.94402149,33.55644311,14.89532011
-0.27664741,1.15949766,-2.97760782

>  <Name>
2et4_lig

>  <RI>
0

>  <Rbt.Current_Directory>
/home/itssahil/PROJECTS/Mol_Feturizer/New_Systems/rnas/2et4

>  <Rbt.Executable>
rbdock ($Id: //depot/dev/client3/rdock/2013.1/src/exe/rbdock.cxx#4 $)

>  <Rbt.Library>
libRbt.so (2013.1, Build901 2013/11/27)

>  <Rbt.Parameter_File>
/export/apps/rDock/src/rDock_2013.1_src/data/scripts/dock_solv.prm

>  <Rbt.Receptor>
prm/blind_docking_60.prm

>  <SCORE>
12.8084

>  <SCORE.INTER>
-7.94645

>  <SCORE.INTER.CONST>
1

>  <SCORE.INTER.POLAR>
-0.527416

>  <SCORE.INTER.ROT>
9

>  <SCORE.INTER.SOLV>
29.7413

>  <SCORE.INTER.VDW>
-23.0533

>  <SCORE.INTER.norm>
-0.189201

>  <SCORE.INTRA>
7.58115

>  <SCORE.INTRA.DIHEDRAL>
3.94849

>  <SCORE.INTRA.DIHEDRAL.0>
21.6909

>  <SCORE.INTRA.POLAR>
0

>  <SCORE.INTRA.POLAR.0>
0

>  <SCORE.INTRA.REPUL>
0

>  <SCORE.INTRA.REPUL.0>
0

>  <SCORE.INTRA.SOLV>
1.64092

>  <SCORE.INTRA.SOLV.lig_0>
-116.606

>  <SCORE.INTRA.VDW>
4.78644

>  <SCORE.INTRA.VDW.0>
-6.01229

>  <SCORE.INTRA.norm>
0.180503

>  <SCORE.RESTR>
13.1737

>  <SCORE.RESTR.CAVITY>
13.1737

>  <SCORE.RESTR.norm>
0.313659

>  <SCORE.SYSTEM>
0

>  <SCORE.SYSTEM.CONST>
0

>  <SCORE.SYSTEM.DIHEDRAL>
0

>  <SCORE.SYSTEM.SOLV>
0

>  <SCORE.SYSTEM.norm>
0

>  <SCORE.heavy>
42

>  <SCORE.norm>
0.304961

>  <RMSD>
32.110

$$$$
2et4_lig
 OpenBabel11021811423D
libRbt.so/2013.1/901 2013/11/27
 42 45  0  0  0  0  0  0  0  0999 V2000
   -2.0876   36.5904   12.7437 C   0  0  2  0  0  0  0  0  0  0  0  0
   -1.4800   36.1951   13.9752 O   0  0  0  0  0  0  0  0  0  0  0  0
   -3.5461   37.0047   13.0659 C   0  0  2  0  0  0  0  0  0  0  0  0
   -3.5881   38.0593   14.0466 N   0  0  0  0  0  0  0  0  0  0  0  0
   -4.3388   35.7569   13.5517 C   0  0  1  0  0  0  0  0  0  0  0  0
   -5.6535   36.1288   13.8252 O   0  0  0  0  0  0  0  0  0  0  0  0
   -4.2519   34.6588   12.4397 C   0  0  2  0  0  0  0  0  0  0  0  0
   -4.9539   33.5020   12.8428 O   0  0  0  0  0  0  0  0  0  0  0  0
   -2.7679   34.2842   12.1441 C   0  0  2  0  0  0  0  0  0  0  0  0
   -2.0713   35.4726   11.7579 O   0  0  0  0  0  0  0  0  0  0  0  0
   -2.6407   33.2180   11.0072 C   0  0  0  0  0  0  0  0  0  0  0  0
   -3.0415   31.9238   11.4379 N   0  0  0  0  0  0  0  0  0  0  0  0
   -0.3887   38.1645   17.6610 C   0  0  2  0  0  0  0  0  0  0  0  0
   -0.5091   38.9410   18.9013 N   0  0  0  0  0  0  0  0  0  0  0  0
   -0.8312   39.0846   16.4001 C   0  0  0  0  0  0  0  0  0  0  0  0
   -0.7133   38.2379   15.0672 C   0  0  2  0  0  0  0  0  0  0  0  0
   -1.1311   39.0286   13.8959 N   0  0  0  0  0  0  0  0  0  0  0  0
   -1.6092   36.9586   15.1824 C   0  0  2  0  0  0  0  0  0  0  0  0
   -1.1905   36.0960   16.4187 C   0  0  2  0  0  0  0  0  0  0  0  0
   -2.0821   34.9543   16.4438 O   0  0  0  0  0  0  0  0  0  0  0  0
   -1.3199   36.9428   17.7255 C   0  0  1  0  0  0  0  0  0  0  0  0
   -0.9294   36.1581   18.8013 O   0  0  0  0  0  0  0  0  0  0  0  0
   -1.7623   33.7177   16.8964 C   0  0  1  0  0  0  0  0  0  0  0  0
   -0.7054   33.0468   15.9809 C   0  0  2  0  0  0  0  0  0  0  0  0
   -1.2662   32.4131   14.8678 O   0  0  0  0  0  0  0  0  0  0  0  0
    0.0164   32.2025   17.0148 C   0  0  1  0  0  0  0  0  0  0  0  0
    0.0693   33.0328   18.3049 C   0  0  2  0  0  0  0  0  0  0  0  0
   -1.1987   33.6848   18.2354 O   0  0  0  0  0  0  0  0  0  0  0  0
    1.2486   34.0601   18.3990 C   0  0  0  0  0  0  0  0  0  0  0  0
    2.4859   33.3002   18.4228 O   0  0  0  0  0  0  0  0  0  0  0  0
   -0.7844   30.3683   18.4694 C   0  0  2  0  0  0  0  0  0  0  0  0
   -0.7656   30.9516   17.1953 O   0  0  0  0  0  0  0  0  0  0  0  0
   -2.1396   30.6944   19.2355 C   0  0  1  0  0  0  0  0  0  0  0  0
    1.9678   30.5406   22.8361 N   0  0  0  0  0  0  0  0  0  0  0  0
   -2.0418   29.9953   20.6910 C   0  0  1  0  0  0  0  0  0  0  0  0
   -1.8353   28.5077   20.4861 O   0  0  0  0  0  0  0  0  0  0  0  0
   -0.8031   30.6262   21.5239 C   0  0  2  0  0  0  0  0  0  0  0  0
   -1.0279   32.0437   21.7144 O   0  0  0  0  0  0  0  0  0  0  0  0
    0.5614   30.3050   20.6903 C   0  0  1  0  0  0  0  0  0  0  0  0
    0.4385   30.8603   19.2979 O   0  0  0  0  0  0  0  0  0  0  0  0
    1.8387   30.8905   21.3882 C   0  0  0  0  0  0  0  0  0  0  0  0
   -2.3448   32.1788   19.3074 N   0  0  0  0  0  0  0  0  0  0  0  0
  1  2  1  1  0  0  0
  1  3  1  0  0  0  0
  1 10  1  0  0  0  0
  3  4  1  1  0  0  0
  3  5  1  0  0  0  0
  5  6  1  6  0  0  0
  5  7  1  0  0  0  0
  7  8  1  1  0  0  0
  7  9  1  0  0  0  0
  9 10  1  0  0  0  0
  9 11  1  6  0  0  0
 11 12  1  0  0  0  0
 13 14  1  1  0  0  0
 13 15  1  0  0  0  0
 13 21  1  0  0  0  0
 16 15  1  0  0  0  0
 16 17  1  6  0  0  0
 18  2  1  6  0  0  0
 18 16  1  0  0  0  0
 19 18  1  0  0  0  0
 19 20  1  1  0  0  0
 21 19  1  0  0  0  0
 21 22  1  1  0  0  0
 23 20  1  6  0  0  0
 23 24  1  0  0  0  0
 23 28  1  0  0  0  0
 24 25  1  6  0  0  0
 24 26  1  0  0  0  0
 26 27  1  0  0  0  0
 26 32  1  1  0  0  0
 27 28  1  0  0  0  0
 27 29  1  6  0  0  0
 29 30  1  0  0  0  0
 31 32  1  6  0  0  0
 31 40  1  0  0  0  0
 33 31  1  0  0  0  0
 33 42  1  1  0  0  0
 35 33  1  0  0  0  0
 35 36  1  6  0  0  0
 37 35  1  0  0  0  0
 37 38  1  6  0  0  0
 37 39  1  0  0  0  0
 39 40  1  0  0  0  0
 39 41  1  1  0  0  0
 41 34  1  0  0  0  0
M  END
>  <CHROM.1>
-45.75610500,-73.02531438,-74.00741327,148.44495009,-67.06102299,-146.62877115
-64.63848895,101.49022717,50.64207620,-1.41047287,34.03481958,16.68066967
2.25535474,-1.07853664,-0.30356674

>  <Name>
2et4_lig

>  <RI>
0

>  <Rbt.Current_Directory>
/home/itssahil/PROJECTS/Mol_Feturizer/New_Systems/rnas/2et4

>  <Rbt.Executable>
rbdock ($Id: //depot/dev/client3/rdock/2013.1/src/exe/rbdock.cxx#4 $)

>  <Rbt.Library>
libRbt.so (2013.1, Build901 2013/11/27)

>  <Rbt.Parameter_File>
/export/apps/rDock/src/rDock_2013.1_src/data/scripts/dock_solv.prm

>  <Rbt.Receptor>
prm/blind_docking_60.prm

>  <SCORE>
20.0593

>  <SCORE.INTER>
-2.41511

>  <SCORE.INTER.CONST>
1

>  <SCORE.INTER.POLAR>
-0.881655

>  <SCORE.INTER.ROT>
9

>  <SCORE.INTER.SOLV>
29.873

>  <SCORE.INTER.VDW>
-18.2289

>  <SCORE.INTER.norm>
-0.0575027

>  <SCORE.INTRA>
14.3769

>  <SCORE.INTRA.DIHEDRAL>
-4.71612

>  <SCORE.INTRA.DIHEDRAL.0>
21.6909

>  <SCORE.INTRA.POLAR>
0

>  <SCORE.INTRA.POLAR.0>
0

>  <SCORE.INTRA.REPUL>
0.0142118

>  <SCORE.INTRA.REPUL.0>
0

>  <SCORE.INTRA.SOLV>
8.49779

>  <SCORE.INTRA.SOLV.lig_0>
-116.606

>  <SCORE.INTRA.VDW>
12.415

>  <SCORE.INTRA.VDW.0>
-6.01229

>  <SCORE.INTRA.norm>
0.342307

>  <SCORE.RESTR>
8.09747

>  <SCORE.RESTR.CAVITY>
8.09747

>  <SCORE.RESTR.norm>
0.192797

>  <SCORE.SYSTEM>
0

>  <SCORE.SYSTEM.CONST>
0

>  <SCORE.SYSTEM.DIHEDRAL>
0

>  <SCORE.SYSTEM.SOLV>
0

>  <SCORE.SYSTEM.norm>
0

>  <SCORE.heavy>
42

>  <SCORE.norm>
0.477601

>  <RMSD>
32.117

$$$$
2et4_lig
 OpenBabel11021811423D
libRbt.so/2013.1/901 2013/11/27
 42 45  0  0  0  0  0  0  0  0999 V2000
    1.2367   29.9127   20.9708 C   0  0  2  0  0  0  0  0  0  0  0  0
    0.1885   30.8818   20.9063 O   0  0  0  0  0  0  0  0  0  0  0  0
    2.1135   30.2689   22.1985 C   0  0  2  0  0  0  0  0  0  0  0  0
    1.3343   30.2966   23.4101 N   0  0  0  0  0  0  0  0  0  0  0  0
    2.8119   31.6371   21.9508 C   0  0  1  0  0  0  0  0  0  0  0  0
    3.6119   31.9471   23.0488 O   0  0  0  0  0  0  0  0  0  0  0  0
    3.6381   31.5319   20.6256 C   0  0  2  0  0  0  0  0  0  0  0  0
    4.2851   32.7579   20.3573 O   0  0  0  0  0  0  0  0  0  0  0  0
    2.7161   31.1621   19.4244 C   0  0  2  0  0  0  0  0  0  0  0  0
    2.0558   29.9292   19.7257 O   0  0  0  0  0  0  0  0  0  0  0  0
    3.5152   31.0075   18.0891 C   0  0  0  0  0  0  0  0  0  0  0  0
    4.7697   31.6749   18.1341 N   0  0  0  0  0  0  0  0  0  0  0  0
   -2.4108   29.2705   17.8563 C   0  0  2  0  0  0  0  0  0  0  0  0
   -3.5012   29.1776   16.8775 N   0  0  0  0  0  0  0  0  0  0  0  0
   -3.0288   29.5304   19.3337 C   0  0  0  0  0  0  0  0  0  0  0  0
   -1.8481   29.6442   20.3826 C   0  0  2  0  0  0  0  0  0  0  0  0
   -2.3638   29.9066   21.7379 N   0  0  0  0  0  0  0  0  0  0  0  0
   -0.8828   30.8013   19.9561 C   0  0  2  0  0  0  0  0  0  0  0  0
   -0.3173   30.5524   18.5188 C   0  0  2  0  0  0  0  0  0  0  0  0
    0.5446   31.6769   18.2161 O   0  0  0  0  0  0  0  0  0  0  0  0
   -1.4936   30.4505   17.4954 C   0  0  1  0  0  0  0  0  0  0  0  0
   -0.9637   30.2161   16.2345 O   0  0  0  0  0  0  0  0  0  0  0  0
    0.1368   32.9599   18.0614 C   0  0  1  0  0  0  0  0  0  0  0  0
    1.2520   33.8237   17.4164 C   0  0  2  0  0  0  0  0  0  0  0  0
    2.1775   34.3083   18.3456 O   0  0  0  0  0  0  0  0  0  0  0  0
    0.3887   34.8165   16.6602 C   0  0  1  0  0  0  0  0  0  0  0  0
   -0.8220   34.0357   16.1297 C   0  0  2  0  0  0  0  0  0  0  0  0
   -1.0312   33.1311   17.2140 O   0  0  0  0  0  0  0  0  0  0  0  0
   -0.5979   33.2806   14.7754 C   0  0  0  0  0  0  0  0  0  0  0  0
    0.4923   32.3425   14.9761 O   0  0  0  0  0  0  0  0  0  0  0  0
   -0.6380   37.0234   17.1039 C   0  0  2  0  0  0  0  0  0  0  0  0
   -0.0159   35.8779   17.6186 O   0  0  0  0  0  0  0  0  0  0  0  0
    0.1428   37.5871   15.8381 C   0  0  1  0  0  0  0  0  0  0  0  0
   -0.1055   41.0042   19.3557 N   0  0  0  0  0  0  0  0  0  0  0  0
   -0.6454   38.9109   15.3453 C   0  0  1  0  0  0  0  0  0  0  0  0
   -2.0715   38.5155   15.0177 O   0  0  0  0  0  0  0  0  0  0  0  0
   -0.6267   40.0318   16.5157 C   0  0  2  0  0  0  0  0  0  0  0  0
    0.7438   40.3992   16.8035 O   0  0  0  0  0  0  0  0  0  0  0  0
   -1.4016   39.4047   17.8065 C   0  0  1  0  0  0  0  0  0  0  0  0
   -0.7396   38.1156   18.2088 O   0  0  0  0  0  0  0  0  0  0  0  0
   -1.4294   40.3938   19.0239 C   0  0  0  0  0  0  0  0  0  0  0  0
    1.5756   37.8529   16.1947 N   0  0  0  0  0  0  0  0  0  0  0  0
  1  2  1  6  0  0  0
  1  3  1  0  0  0  0
  1 10  1  0  0  0  0
  3  4  1  1  0  0  0
  3  5  1  0  0  0  0
  5  6  1  1  0  0  0
  5  7  1  0  0  0  0
  7  8  1  6  0  0  0
  7  9  1  0  0  0  0
  9 10  1  0  0  0  0
  9 11  1  6  0  0  0
 11 12  1  0  0  0  0
 13 14  1  6  0  0  0
 13 15  1  0  0  0  0
 13 21  1  0  0  0  0
 16 15  1  0  0  0  0
 16 17  1  1  0  0  0
 18  2  1  1  0  0  0
 18 16  1  0  0  0  0
 19 18  1  0  0  0  0
 19 20  1  6  0  0  0
 21 19  1  0  0  0  0
 21 22  1  6  0  0  0
 23 20  1  6  0  0  0
 23 24  1  0  0  0  0
 23 28  1  0  0  0  0
 24 25  1  1  0  0  0
 24 26  1  0  0  0  0
 26 27  1  0  0  0  0
 26 32  1  1  0  0  0
 27 28  1  0  0  0  0
 27 29  1  6  0  0  0
 29 30  1  0  0  0  0
 31 32  1  1  0  0  0
 31 40  1  0  0  0  0
 33 31  1  0  0  0  0
 33 42  1  1  0  0  0
 35 33  1  0  0  0  0
 35 36  1  1  0  0  0
 37 35  1  0  0  0  0
 37 38  1  1  0  0  0
 37 39  1  0  0  0  0
 39 40  1  0  0  0  0
 39 41  1  1  0  0  0
 41 34  1  0  0  0  0
M  END
>  <CHROM.1>
-174.69920062,-20.83537199,72.86968889,-65.91557900,-166.31086824,169.80269135
59.24976550,-46.74913284,-48.35889960,0.32641401,33.54452782,18.41534484
-1.40266538,-0.72921403,-0.25370577

>  <Name>
2et4_lig

>  <RI>
0

>  <Rbt.Current_Directory>
/home/itssahil/PROJECTS/Mol_Feturizer/New_Systems/rnas/2et4

>  <Rbt.Executable>
rbdock ($Id: //depot/dev/client3/rdock/2013.1/src/exe/rbdock.cxx#4 $)

>  <Rbt.Library>
libRbt.so (2013.1, Build901 2013/11/27)

>  <Rbt.Parameter_File>
/export/apps/rDock/src/rDock_2013.1_src/data/scripts/dock_solv.prm

>  <Rbt.Receptor>
prm/blind_docking_80.prm

>  <SCORE>
59.2097

>  <SCORE.INTER>
41.3062

>  <SCORE.INTER.CONST>
1

>  <SCORE.INTER.POLAR>
-0.108891

>  <SCORE.INTER.ROT>
9

>  <SCORE.INTER.SOLV>
40.09

>  <SCORE.INTER.VDW>
4.93713

>  <SCORE.INTER.norm>
0.983482

>  <SCORE.INTRA>
-1.5761

>  <SCORE.INTRA.DIHEDRAL>
-13.8807

>  <SCORE.INTRA.DIHEDRAL.0>
21.6909

>  <SCORE.INTRA.POLAR>
0

>  <SCORE.INTRA.POLAR.0>
0

>  <SCORE.INTRA.REPUL>
0

>  <SCORE.INTRA.REPUL.0>
0

>  <SCORE.INTRA.SOLV>
2.76345

>  <SCORE.INTRA.SOLV.lig_0>
-116.606

>  <SCORE.INTRA.VDW>
3.98254

>  <SCORE.INTRA.VDW.0>
-6.01229

>  <SCORE.INTRA.norm>
-0.0375261

>  <SCORE.RESTR>
19.4795

>  <SCORE.RESTR.CAVITY>
19.4795

>  <SCORE.RESTR.norm>
0.463798

>  <SCORE.SYSTEM>
0

>  <SCORE.SYSTEM.CONST>
0

>  <SCORE.SYSTEM.DIHEDRAL>
0

>  <SCORE.SYSTEM.SOLV>
0

>  <SCORE.SYSTEM.norm>
0

>  <SCORE.heavy>
42

>  <SCORE.norm>
1.40975

>  <RMSD>
32.144

$$$$
2et4_lig
 OpenBabel11021811423D
libRbt.so/2013.1/901 2013/11/27
 42 45  0  0  0  0  0  0  0  0999 V2000
   -2.1743   36.4320   12.7806 C   0  0  2  0  0  0  0  0  0  0  0  0
   -1.6129   36.0575   14.0403 O   0  0  0  0  0  0  0  0  0  0  0  0
   -3.6883   36.6738   13.0087 C   0  0  2  0  0  0  0  0  0  0  0  0
   -3.9138   37.6792   14.0157 N   0  0  0  0  0  0  0  0  0  0  0  0
   -4.3699   35.3300   13.3970 C   0  0  1  0  0  0  0  0  0  0  0  0
   -5.7334   35.5470   13.5857 O   0  0  0  0  0  0  0  0  0  0  0  0
   -4.0861   34.2912   12.2611 C   0  0  2  0  0  0  0  0  0  0  0  0
   -4.6822   33.0508   12.5765 O   0  0  0  0  0  0  0  0  0  0  0  0
   -2.5530   34.0906   12.0626 C   0  0  2  0  0  0  0  0  0  0  0  0
   -1.9669   35.3612   11.7648 O   0  0  0  0  0  0  0  0  0  0  0  0
   -2.2310   33.0889   10.9058 C   0  0  0  0  0  0  0  0  0  0  0  0
   -2.7353   31.7859   11.1682 N   0  0  0  0  0  0  0  0  0  0  0  0
   -0.4571   38.3789   17.4942 C   0  0  2  0  0  0  0  0  0  0  0  0
   -0.5644   39.2113   18.6989 N   0  0  0  0  0  0  0  0  0  0  0  0
   -1.1301   39.1540   16.2377 C   0  0  0  0  0  0  0  0  0  0  0  0
   -1.0244   38.2458   14.9449 C   0  0  2  0  0  0  0  0  0  0  0  0
   -1.6479   38.9015   13.7817 N   0  0  0  0  0  0  0  0  0  0  0  0
   -1.7303   36.8739   15.2136 C   0  0  2  0  0  0  0  0  0  0  0  0
   -1.0906   36.1512   16.4450 C   0  0  2  0  0  0  0  0  0  0  0  0
   -1.8185   34.9103   16.6167 O   0  0  0  0  0  0  0  0  0  0  0  0
   -1.2099   37.0564   17.7130 C   0  0  1  0  0  0  0  0  0  0  0  0
   -0.6230   36.3970   18.7837 O   0  0  0  0  0  0  0  0  0  0  0  0
   -1.3189   33.7759   17.1643 C   0  0  1  0  0  0  0  0  0  0  0  0
   -0.1634   33.2045   16.3019 C   0  0  2  0  0  0  0  0  0  0  0  0
   -0.6105   32.4079   15.2433 O   0  0  0  0  0  0  0  0  0  0  0  0
    0.6682   32.5631   17.3973 C   0  0  1  0  0  0  0  0  0  0  0  0
    0.5817   33.4898   18.6182 C   0  0  2  0  0  0  0  0  0  0  0  0
   -0.7700   33.9336   18.5005 O   0  0  0  0  0  0  0  0  0  0  0  0
    1.5901   34.6888   18.6287 C   0  0  0  0  0  0  0  0  0  0  0  0
    2.8878   34.1618   19.0127 O   0  0  0  0  0  0  0  0  0  0  0  0
   -0.5084   31.0182   18.9304 C   0  0  2  0  0  0  0  0  0  0  0  0
    0.0836   31.2257   17.6772 O   0  0  0  0  0  0  0  0  0  0  0  0
   -0.8741   29.4861   19.1515 C   0  0  1  0  0  0  0  0  0  0  0  0
   -4.8323   32.3611   19.3911 N   0  0  0  0  0  0  0  0  0  0  0  0
   -1.5659   29.3690   20.6090 C   0  0  1  0  0  0  0  0  0  0  0  0
   -0.5820   29.8846   21.6403 O   0  0  0  0  0  0  0  0  0  0  0  0
   -2.9292   30.2445   20.6445 C   0  0  2  0  0  0  0  0  0  0  0  0
   -3.8550   29.7275   19.6587 O   0  0  0  0  0  0  0  0  0  0  0  0
   -2.5190   31.8002   20.3773 C   0  0  1  0  0  0  0  0  0  0  0  0
   -1.7804   31.9049   19.0713 O   0  0  0  0  0  0  0  0  0  0  0  0
   -3.7660   32.7521   20.3637 C   0  0  0  0  0  0  0  0  0  0  0  0
   -1.7577   29.0031   18.0393 N   0  0  0  0  0  0  0  0  0  0  0  0
  1  2  1  1  0  0  0
  1  3  1  0  0  0  0
  1 10  1  0  0  0  0
  3  4  1  1  0  0  0
  3  5  1  0  0  0  0
  5  6  1  6  0  0  0
  5  7  1  0  0  0  0
  7  8  1  1  0  0  0
  7  9  1  0  0  0  0
  9 10  1  0  0  0  0
  9 11  1  6  0  0  0
 11 12  1  0  0  0  0
 13 14  1  1  0  0  0
 13 15  1  0  0  0  0
 13 21  1  0  0  0  0
 16 15  1  0  0  0  0
 16 17  1  6  0  0  0
 18  2  1  6  0  0  0
 18 16  1  0  0  0  0
 19 18  1  0  0  0  0
 19 20  1  1  0  0  0
 21 19  1  0  0  0  0
 21 22  1  1  0  0  0
 23 20  1  6  0  0  0
 23 24  1  0  0  0  0
 23 28  1  0  0  0  0
 24 25  1  6  0  0  0
 24 26  1  0  0  0  0
 26 27  1  0  0  0  0
 26 32  1  1  0  0  0
 27 28  1  0  0  0  0
 27 29  1  6  0  0  0
 29 30  1  0  0  0  0
 31 32  1  6  0  0  0
 31 40  1  0  0  0  0
 33 31  1  0  0  0  0
 33 42  1  6  0  0  0
 35 33  1  0  0  0  0
 35 36  1  1  0  0  0
 37 35  1  0  0  0  0
 37 38  1  6  0  0  0
 37 39  1  0  0  0  0
 39 40  1  0  0  0  0
 39 41  1  6  0  0  0
 41 34  1  0  0  0  0
M  END
>  <CHROM.1>
-56.13169104,-62.35765640,-61.75044630,152.18637926,-64.09173728,-113.48233399
-77.38136623,-171.03516023,-55.27672447,-1.73778503,34.05749341,16.53219603
1.90651248,-1.06241806,-0.58222316

>  <Name>
2et4_lig

>  <RI>
0

>  <Rbt.Current_Directory>
/home/itssahil/PROJECTS/Mol_Feturizer/New_Systems/rnas/2et4

>  <Rbt.Executable>
rbdock ($Id: //depot/dev/client3/rdock/2013.1/src/exe/rbdock.cxx#4 $)

>  <Rbt.Library>
libRbt.so (2013.1, Build901 2013/11/27)

>  <Rbt.Parameter_File>
/export/apps/rDock/src/rDock_2013.1_src/data/scripts/dock_solv.prm

>  <Rbt.Receptor>
prm/blind_docking_60.prm

>  <SCORE>
18.522

>  <SCORE.INTER>
5.6738

>  <SCORE.INTER.CONST>
1

>  <SCORE.INTER.POLAR>
-0.70012

>  <SCORE.INTER.ROT>
9

>  <SCORE.INTER.SOLV>
24.1307

>  <SCORE.INTER.VDW>
-11.5273

>  <SCORE.INTER.norm>
0.13509

>  <SCORE.INTRA>
5.06518

>  <SCORE.INTRA.DIHEDRAL>
-9.72917

>  <SCORE.INTRA.DIHEDRAL.0>
21.6909

>  <SCORE.INTRA.POLAR>
0

>  <SCORE.INTRA.POLAR.0>
0

>  <SCORE.INTRA.REPUL>
0

>  <SCORE.INTRA.REPUL.0>
0

>  <SCORE.INTRA.SOLV>
4.96364

>  <SCORE.INTRA.SOLV.lig_0>
-116.606

>  <SCORE.INTRA.VDW>
7.44794

>  <SCORE.INTRA.VDW.0>
-6.01229

>  <SCORE.INTRA.norm>
0.120599

>  <SCORE.RESTR>
7.78305

>  <SCORE.RESTR.CAVITY>
7.78305

>  <SCORE.RESTR.norm>
0.185311

>  <SCORE.SYSTEM>
0

>  <SCORE.SYSTEM.CONST>
0

>  <SCORE.SYSTEM.DIHEDRAL>
0

>  <SCORE.SYSTEM.SOLV>
0

>  <SCORE.SYSTEM.norm>
0

>  <SCORE.heavy>
42

>  <SCORE.norm>
0.441001

>  <RMSD>
32.164

$$$$
2et4_lig
 OpenBabel11021811423D
libRbt.so/2013.1/901 2013/11/27
 42 45  0  0  0  0  0  0  0  0999 V2000
   -1.3569   36.7647   14.5544 C   0  0  2  0  0  0  0  0  0  0  0  0
   -2.4981   35.9150   14.6889 O   0  0  0  0  0  0  0  0  0  0  0  0
   -0.6669   36.8260   15.9411 C   0  0  2  0  0  0  0  0  0  0  0  0
   -0.3041   35.5115   16.4058 N   0  0  0  0  0  0  0  0  0  0  0  0
   -1.6112   37.5367   16.9533 C   0  0  1  0  0  0  0  0  0  0  0  0
   -0.9820   37.6049   18.1947 O   0  0  0  0  0  0  0  0  0  0  0  0
   -1.9594   38.9533   16.3860 C   0  0  2  0  0  0  0  0  0  0  0  0
   -2.8231   39.6332   17.2721 O   0  0  0  0  0  0  0  0  0  0  0  0
   -2.6403   38.8397   14.9884 C   0  0  2  0  0  0  0  0  0  0  0  0
   -1.7581   38.1307   14.1133 O   0  0  0  0  0  0  0  0  0  0  0  0
   -2.9653   40.2395   14.3716 C   0  0  0  0  0  0  0  0  0  0  0  0
   -1.9393   40.6922   13.4978 N   0  0  0  0  0  0  0  0  0  0  0  0
   -5.3133   33.5501   12.4225 C   0  0  2  0  0  0  0  0  0  0  0  0
   -6.0183   32.9646   11.2754 N   0  0  0  0  0  0  0  0  0  0  0  0
   -5.4584   35.1655   12.3813 C   0  0  0  0  0  0  0  0  0  0  0  0
   -4.6842   35.7923   13.6121 C   0  0  2  0  0  0  0  0  0  0  0  0
   -4.7681   37.2635   13.6001 N   0  0  0  0  0  0  0  0  0  0  0  0
   -3.1820   35.3528   13.5605 C   0  0  2  0  0  0  0  0  0  0  0  0
   -3.0582   33.7931   13.5716 C   0  0  2  0  0  0  0  0  0  0  0  0
   -1.6423   33.4930   13.5066 O   0  0  0  0  0  0  0  0  0  0  0  0
   -3.8202   33.1912   12.3475 C   0  0  1  0  0  0  0  0  0  0  0  0
   -3.7052   31.8090   12.3912 O   0  0  0  0  0  0  0  0  0  0  0  0
   -0.8864   33.0440   14.5378 C   0  0  1  0  0  0  0  0  0  0  0  0
   -1.7777   32.5674   15.7142 C   0  0  2  0  0  0  0  0  0  0  0  0
   -2.1765   33.6089   16.5576 O   0  0  0  0  0  0  0  0  0  0  0  0
   -0.8845   31.4760   16.2742 C   0  0  1  0  0  0  0  0  0  0  0  0
   -0.2163   30.7918   15.0733 C   0  0  2  0  0  0  0  0  0  0  0  0
   -0.0246   31.9184   14.2179 O   0  0  0  0  0  0  0  0  0  0  0  0
   -1.0612   29.6698   14.3791 C   0  0  0  0  0  0  0  0  0  0  0  0
   -1.1802   28.5703   15.3203 O   0  0  0  0  0  0  0  0  0  0  0  0
    0.0154   31.8899   18.5414 C   0  0  2  0  0  0  0  0  0  0  0  0
    0.1126   32.1269   17.1636 O   0  0  0  0  0  0  0  0  0  0  0  0
    0.3221   30.3687   18.8903 C   0  0  1  0  0  0  0  0  0  0  0  0
   -3.5307   32.2435   22.2791 N   0  0  0  0  0  0  0  0  0  0  0  0
    0.1602   30.2073   20.4917 C   0  0  1  0  0  0  0  0  0  0  0  0
    1.1281   31.1621   21.1617 O   0  0  0  0  0  0  0  0  0  0  0  0
   -1.3621   30.5497   20.9295 C   0  0  2  0  0  0  0  0  0  0  0  0
   -2.2654   29.6197   20.2850 O   0  0  0  0  0  0  0  0  0  0  0  0
   -1.6511   32.1024   20.5226 C   0  0  1  0  0  0  0  0  0  0  0  0
   -1.4007   32.2881   19.0513 O   0  0  0  0  0  0  0  0  0  0  0  0
   -3.1125   32.5498   20.8767 C   0  0  0  0  0  0  0  0  0  0  0  0
   -0.5917   29.4687   18.1120 N   0  0  0  0  0  0  0  0  0  0  0  0
  1  2  1  1  0  0  0
  1  3  1  0  0  0  0
  1 10  1  0  0  0  0
  3  4  1  1  0  0  0
  3  5  1  0  0  0  0
  5  6  1  1  0  0  0
  5  7  1  0  0  0  0
  7  8  1  1  0  0  0
  7  9  1  0  0  0  0
  9 10  1  0  0  0  0
  9 11  1  6  0  0  0
 11 12  1  0  0  0  0
 13 14  1  6  0  0  0
 13 15  1  0  0  0  0
 13 21  1  0  0  0  0
 16 15  1  0  0  0  0
 16 17  1  6  0  0  0
 18  2  1  1  0  0  0
 18 16  1  0  0  0  0
 19 18  1  0  0  0  0
 19 20  1  6  0  0  0
 21 19  1  0  0  0  0
 21 22  1  1  0  0  0
 23 20  1  6  0  0  0
 23 24  1  0  0  0  0
 23 28  1  0  0  0  0
 24 25  1  1  0  0  0
 24 26  1  0  0  0  0
 26 27  1  0  0  0  0
 26 32  1  1  0  0  0
 27 28  1  0  0  0  0
 27 29  1  6  0  0  0
 29 30  1  0  0  0  0
 31 32  1  6  0  0  0
 31 40  1  0  0  0  0
 33 31  1  0  0  0  0
 33 42  1  6  0  0  0
 35 33  1  0  0  0  0
 35 36  1  1  0  0  0
 37 35  1  0  0  0  0
 37 38  1  6  0  0  0
 37 39  1  0  0  0  0
 39 40  1  0  0  0  0
 39 41  1  6  0  0  0
 41 34  1  0  0  0  0
M  END
>  <CHROM.1>
-163.79626641,94.64657138,-122.53793231,106.01014056,13.47727983,111.06416781
-67.16259004,66.47953451,50.38586909,-1.97226928,33.91878222,16.12143980
-2.43715914,1.23181029,-2.95365126

>  <Name>
2et4_lig

>  <RI>
0

>  <Rbt.Current_Directory>
/home/itssahil/PROJECTS/Mol_Feturizer/New_Systems/rnas/2et4

>  <Rbt.Executable>
rbdock ($Id: //depot/dev/client3/rdock/2013.1/src/exe/rbdock.cxx#4 $)

>  <Rbt.Library>
libRbt.so (2013.1, Build901 2013/11/27)

>  <Rbt.Parameter_File>
/export/apps/rDock/src/rDock_2013.1_src/data/scripts/dock_solv.prm

>  <Rbt.Receptor>
prm/blind_docking_60.prm

>  <SCORE>
19.9608

>  <SCORE.INTER>
-5.23018

>  <SCORE.INTER.CONST>
1

>  <SCORE.INTER.POLAR>
-1.26868

>  <SCORE.INTER.ROT>
9

>  <SCORE.INTER.SOLV>
26.8938

>  <SCORE.INTER.VDW>
-17.8225

>  <SCORE.INTER.norm>
-0.124528

>  <SCORE.INTRA>
10.0439

>  <SCORE.INTRA.DIHEDRAL>
10.226

>  <SCORE.INTRA.DIHEDRAL.0>
21.6909

>  <SCORE.INTRA.POLAR>
0

>  <SCORE.INTRA.POLAR.0>
0

>  <SCORE.INTRA.REPUL>
0.135948

>  <SCORE.INTRA.REPUL.0>
0

>  <SCORE.INTRA.SOLV>
6.51262

>  <SCORE.INTRA.SOLV.lig_0>
-116.606

>  <SCORE.INTRA.VDW>
0.994792

>  <SCORE.INTRA.VDW.0>
-6.01229

>  <SCORE.INTRA.norm>
0.239139

>  <SCORE.RESTR>
15.1471

>  <SCORE.RESTR.CAVITY>
15.1471

>  <SCORE.RESTR.norm>
0.360645

>  <SCORE.SYSTEM>
0

>  <SCORE.SYSTEM.CONST>
0

>  <SCORE.SYSTEM.DIHEDRAL>
0

>  <SCORE.SYSTEM.SOLV>
0

>  <SCORE.SYSTEM.norm>
0

>  <SCORE.heavy>
42

>  <SCORE.norm>
0.475256

>  <RMSD>
32.180

$$$$
2et4_lig
 OpenBabel11021811423D
libRbt.so/2013.1/901 2013/11/27
 42 45  0  0  0  0  0  0  0  0999 V2000
   -0.5591   36.7830   15.5078 C   0  0  2  0  0  0  0  0  0  0  0  0
   -1.9777   36.6966   15.3585 O   0  0  0  0  0  0  0  0  0  0  0  0
   -0.2517   36.6760   17.0233 C   0  0  2  0  0  0  0  0  0  0  0  0
   -0.7755   35.4550   17.5805 N   0  0  0  0  0  0  0  0  0  0  0  0
   -0.8343   37.9199   17.7543 C   0  0  1  0  0  0  0  0  0  0  0  0
   -0.5425   37.8291   19.1139 O   0  0  0  0  0  0  0  0  0  0  0  0
   -0.2216   39.2032   17.1004 C   0  0  2  0  0  0  0  0  0  0  0  0
   -0.7299   40.3600   17.7303 O   0  0  0  0  0  0  0  0  0  0  0  0
   -0.5481   39.2601   15.5773 C   0  0  2  0  0  0  0  0  0  0  0  0
   -0.0430   38.0708   14.9631 O   0  0  0  0  0  0  0  0  0  0  0  0
    0.0844   40.5097   14.8816 C   0  0  0  0  0  0  0  0  0  0  0  0
   -0.1822   41.7118   15.5922 N   0  0  0  0  0  0  0  0  0  0  0  0
   -4.7388   34.5397   12.8328 C   0  0  2  0  0  0  0  0  0  0  0  0
   -5.3839   34.0148   11.6228 N   0  0  0  0  0  0  0  0  0  0  0  0
   -4.7846   36.1614   12.8119 C   0  0  0  0  0  0  0  0  0  0  0  0
   -4.0749   36.7220   14.1116 C   0  0  2  0  0  0  0  0  0  0  0  0
   -4.0707   38.1956   14.1218 N   0  0  0  0  0  0  0  0  0  0  0  0
   -2.6018   36.1934   14.1693 C   0  0  2  0  0  0  0  0  0  0  0  0
   -2.5716   34.6292   14.1596 C   0  0  2  0  0  0  0  0  0  0  0  0
   -1.1752   34.2451   14.1999 O   0  0  0  0  0  0  0  0  0  0  0  0
   -3.2682   34.0925   12.8680 C   0  0  1  0  0  0  0  0  0  0  0  0
   -3.2388   32.7054   12.8936 O   0  0  0  0  0  0  0  0  0  0  0  0
   -0.6244   33.3769   15.0826 C   0  0  1  0  0  0  0  0  0  0  0  0
   -1.7212   32.6290   15.8846 C   0  0  2  0  0  0  0  0  0  0  0  0
   -2.1786   33.3492   16.9923 O   0  0  0  0  0  0  0  0  0  0  0  0
   -1.0031   31.3123   16.1159 C   0  0  1  0  0  0  0  0  0  0  0  0
   -0.1997   31.0169   14.8415 C   0  0  2  0  0  0  0  0  0  0  0  0
    0.2002   32.3401   14.4852 O   0  0  0  0  0  0  0  0  0  0  0  0
   -0.9965   30.3181   13.6877 C   0  0  0  0  0  0  0  0  0  0  0  0
   -0.0423   29.9698   12.6497 O   0  0  0  0  0  0  0  0  0  0  0  0
   -0.3966   30.7272   18.4421 C   0  0  2  0  0  0  0  0  0  0  0  0
   -0.1190   31.4869   17.2976 O   0  0  0  0  0  0  0  0  0  0  0  0
   -1.8192   31.0956   19.0505 C   0  0  1  0  0  0  0  0  0  0  0  0
    3.1007   30.5273   21.0806 N   0  0  0  0  0  0  0  0  0  0  0  0
   -2.0224   30.1813   20.3694 C   0  0  1  0  0  0  0  0  0  0  0  0
   -1.9290   28.7268   19.9533 O   0  0  0  0  0  0  0  0  0  0  0  0
   -0.8779   30.5286   21.4630 C   0  0  2  0  0  0  0  0  0  0  0  0
   -0.9937   31.9187   21.8509 O   0  0  0  0  0  0  0  0  0  0  0  0
    0.5651   30.1740   20.7908 C   0  0  1  0  0  0  0  0  0  0  0  0
    0.7197   30.9407   19.5062 O   0  0  0  0  0  0  0  0  0  0  0  0
    1.7646   30.4922   21.7507 C   0  0  0  0  0  0  0  0  0  0  0  0
   -1.8905   32.5666   19.3365 N   0  0  0  0  0  0  0  0  0  0  0  0
  1  2  1  1  0  0  0
  1  3  1  0  0  0  0
  1 10  1  0  0  0  0
  3  4  1  1  0  0  0
  3  5  1  0  0  0  0
  5  6  1  1  0  0  0
  5  7  1  0  0  0  0
  7  8  1  1  0  0  0
  7  9  1  0  0  0  0
  9 10  1  0  0  0  0
  9 11  1  6  0  0  0
 11 12  1  0  0  0  0
 13 14  1  6  0  0  0
 13 15  1  0  0  0  0
 13 21  1  0  0  0  0
 16 15  1  0  0  0  0
 16 17  1  6  0  0  0
 18  2  1  1  0  0  0
 18 16  1  0  0  0  0
 19 18  1  0  0  0  0
 19 20  1  6  0  0  0
 21 19  1  0  0  0  0
 21 22  1  1  0  0  0
 23 20  1  6  0  0  0
 23 24  1  0  0  0  0
 23 28  1  0  0  0  0
 24 25  1  1  0  0  0
 24 26  1  0  0  0  0
 26 27  1  0  0  0  0
 26 32  1  1  0  0  0
 27 28  1  0  0  0  0
 27 29  1  6  0  0  0
 29 30  1  0  0  0  0
 31 32  1  6  0  0  0
 31 40  1  0  0  0  0
 33 31  1  0  0  0  0
 33 42  1  1  0  0  0
 35 33  1  0  0  0  0
 35 36  1  6  0  0  0
 37 35  1  0  0  0  0
 37 38  1  6  0  0  0
 37 39  1  0  0  0  0
 39 40  1  0  0  0  0
 39 41  1  1  0  0  0
 41 34  1  0  0  0  0
M  END
>  <CHROM.1>
-152.51851362,-49.06938404,-158.89653832,127.90437150,10.84900487,115.31164601
-172.85600295,-63.20779285,-164.90764177,-1.23990376,34.16704342,16.49956898
-2.04279565,1.13746039,3.00903280

>  <Name>
2et4_lig

>  <RI>
0

>  <Rbt.Current_Directory>
/home/itssahil/PROJECTS/Mol_Feturizer/New_Systems/rnas/2et4

>  <Rbt.Executable>
rbdock ($Id: //depot/dev/client3/rdock/2013.1/src/exe/rbdock.cxx#4 $)

>  <Rbt.Library>
libRbt.so (2013.1, Build901 2013/11/27)

>  <Rbt.Parameter_File>
/export/apps/rDock/src/rDock_2013.1_src/data/scripts/dock_solv.prm

>  <Rbt.Receptor>
prm/blind_docking_60.prm

>  <SCORE>
16.0531

>  <SCORE.INTER>
-4.71975

>  <SCORE.INTER.CONST>
1

>  <SCORE.INTER.POLAR>
-0.0235891

>  <SCORE.INTER.ROT>
9

>  <SCORE.INTER.SOLV>
26.2367

>  <SCORE.INTER.VDW>
-21.4134

>  <SCORE.INTER.norm>
-0.112375

>  <SCORE.INTRA>
9.22137

>  <SCORE.INTRA.DIHEDRAL>
5.55016

>  <SCORE.INTRA.DIHEDRAL.0>
21.6909

>  <SCORE.INTRA.POLAR>
0

>  <SCORE.INTRA.POLAR.0>
0

>  <SCORE.INTRA.REPUL>
0.445722

>  <SCORE.INTRA.REPUL.0>
0

>  <SCORE.INTRA.SOLV>
3.39849

>  <SCORE.INTRA.SOLV.lig_0>
-116.606

>  <SCORE.INTRA.VDW>
2.51843

>  <SCORE.INTRA.VDW.0>
-6.01229

>  <SCORE.INTRA.norm>
0.219556

>  <SCORE.RESTR>
11.5515

>  <SCORE.RESTR.CAVITY>
11.5515

>  <SCORE.RESTR.norm>
0.275035

>  <SCORE.SYSTEM>
0

>  <SCORE.SYSTEM.CONST>
0

>  <SCORE.SYSTEM.DIHEDRAL>
0

>  <SCORE.SYSTEM.SOLV>
0

>  <SCORE.SYSTEM.norm>
0

>  <SCORE.heavy>
42

>  <SCORE.norm>
0.382216

>  <RMSD>
32.210

$$$$
2et4_lig
 OpenBabel11021811423D
libRbt.so/2013.1/901 2013/11/27
 42 45  0  0  0  0  0  0  0  0999 V2000
   -1.2936   29.6905   19.9345 C   0  0  2  0  0  0  0  0  0  0  0  0
   -0.6704   30.3820   18.8502 O   0  0  0  0  0  0  0  0  0  0  0  0
   -2.6070   29.0741   19.3888 C   0  0  2  0  0  0  0  0  0  0  0  0
   -2.3527   28.2003   18.2718 N   0  0  0  0  0  0  0  0  0  0  0  0
   -3.5853   30.2177   18.9934 C   0  0  1  0  0  0  0  0  0  0  0  0
   -4.7710   29.6608   18.5184 O   0  0  0  0  0  0  0  0  0  0  0  0
   -3.8159   31.1208   20.2508 C   0  0  2  0  0  0  0  0  0  0  0  0
   -4.6949   32.1795   19.9345 O   0  0  0  0  0  0  0  0  0  0  0  0
   -2.4674   31.7077   20.7677 C   0  0  2  0  0  0  0  0  0  0  0  0
   -1.5859   30.6201   21.0623 O   0  0  0  0  0  0  0  0  0  0  0  0
   -2.6545   32.5832   22.0499 C   0  0  0  0  0  0  0  0  0  0  0  0
   -3.7823   32.1795   22.8155 N   0  0  0  0  0  0  0  0  0  0  0  0
    2.9345   32.6568   19.5465 C   0  0  2  0  0  0  0  0  0  0  0  0
    4.3548   33.0286   19.5513 N   0  0  0  0  0  0  0  0  0  0  0  0
    2.7352   31.2657   20.3573 C   0  0  0  0  0  0  0  0  0  0  0  0
    1.2041   30.8623   20.3364 C   0  0  2  0  0  0  0  0  0  0  0  0
    0.9802   29.5877   21.0414 N   0  0  0  0  0  0  0  0  0  0  0  0
    0.7204   30.7324   18.8527 C   0  0  2  0  0  0  0  0  0  0  0  0
    0.9451   32.0714   18.0753 C   0  0  2  0  0  0  0  0  0  0  0  0
    0.4829   31.8428   16.7213 O   0  0  0  0  0  0  0  0  0  0  0  0
    2.4606   32.4511   18.0985 C   0  0  1  0  0  0  0  0  0  0  0  0
    2.6272   33.6472   17.4151 O   0  0  0  0  0  0  0  0  0  0  0  0
   -0.3733   32.6408   16.0383 C   0  0  1  0  0  0  0  0  0  0  0  0
   -1.7077   32.8133   16.8098 C   0  0  2  0  0  0  0  0  0  0  0  0
   -2.6127   31.7724   16.5808 O   0  0  0  0  0  0  0  0  0  0  0  0
   -2.0759   34.2137   16.3558 C   0  0  1  0  0  0  0  0  0  0  0  0
   -0.7653   35.0079   16.2644 C   0  0  2  0  0  0  0  0  0  0  0  0
    0.1134   33.9875   15.7908 O   0  0  0  0  0  0  0  0  0  0  0  0
   -0.2603   35.6344   17.6087 C   0  0  0  0  0  0  0  0  0  0  0  0
    0.2493   34.5498   18.4292 O   0  0  0  0  0  0  0  0  0  0  0  0
   -3.6726   35.0792   14.6756 C   0  0  2  0  0  0  0  0  0  0  0  0
   -2.7420   34.0940   15.0326 O   0  0  0  0  0  0  0  0  0  0  0  0
   -4.2156   34.8542   13.1976 C   0  0  1  0  0  0  0  0  0  0  0  0
   -2.0426   38.9433   15.6812 N   0  0  0  0  0  0  0  0  0  0  0  0
   -5.2570   36.0525   12.8873 C   0  0  1  0  0  0  0  0  0  0  0  0
   -6.3607   35.9979   13.9248 O   0  0  0  0  0  0  0  0  0  0  0  0
   -4.4917   37.4795   12.9539 C   0  0  2  0  0  0  0  0  0  0  0  0
   -3.4501   37.5105   11.9489 O   0  0  0  0  0  0  0  0  0  0  0  0
   -3.9180   37.6570   14.4702 C   0  0  1  0  0  0  0  0  0  0  0  0
   -3.0300   36.4911   14.8079 O   0  0  0  0  0  0  0  0  0  0  0  0
   -3.1298   39.0006   14.6564 C   0  0  0  0  0  0  0  0  0  0  0  0
   -3.0692   34.8047   12.2310 N   0  0  0  0  0  0  0  0  0  0  0  0
  1  2  1  6  0  0  0
  1  3  1  0  0  0  0
  1 10  1  0  0  0  0
  3  4  1  6  0  0  0
  3  5  1  0  0  0  0
  5  6  1  1  0  0  0
  5  7  1  0  0  0  0
  7  8  1  6  0  0  0
  7  9  1  0  0  0  0
  9 10  1  0  0  0  0
  9 11  1  1  0  0  0
 11 12  1  0  0  0  0
 13 14  1  6  0  0  0
 13 15  1  0  0  0  0
 13 21  1  0  0  0  0
 16 15  1  0  0  0  0
 16 17  1  1  0  0  0
 18  2  1  1  0  0  0
 18 16  1  0  0  0  0
 19 18  1  0  0  0  0
 19 20  1  6  0  0  0
 21 19  1  0  0  0  0
 21 22  1  6  0  0  0
 23 20  1  1  0  0  0
 23 24  1  0  0  0  0
 23 28  1  0  0  0  0
 24 25  1  6  0  0  0
 24 26  1  0  0  0  0
 26 27  1  0  0  0  0
 26 32  1  6  0  0  0
 27 28  1  0  0  0  0
 27 29  1  1  0  0  0
 29 30  1  0  0  0  0
 31 32  1  6  0  0  0
 31 40  1  0  0  0  0
 33 31  1  0  0  0  0
 33 42  1  6  0  0  0
 35 33  1  0  0  0  0
 35 36  1  1  0  0  0
 37 35  1  0  0  0  0
 37 38  1  6  0  0  0
 37 39  1  0  0  0  0
 39 40  1  0  0  0  0
 39 41  1  6  0  0  0
 41 34  1  0  0  0  0
M  END
>  <CHROM.1>
-160.92754860,27.83855709,-25.82387138,129.71879992,-56.88152144,152.16505017
73.16273119,176.21460409,-150.32654485,-1.62669507,33.21005620,17.38952226
1.18502252,0.15263208,2.38115930

>  <Name>
2et4_lig

>  <RI>
0

>  <Rbt.Current_Directory>
/home/itssahil/PROJECTS/Mol_Feturizer/New_Systems/rnas/2et4

>  <Rbt.Executable>
rbdock ($Id: //depot/dev/client3/rdock/2013.1/src/exe/rbdock.cxx#4 $)

>  <Rbt.Library>
libRbt.so (2013.1, Build901 2013/11/27)

>  <Rbt.Parameter_File>
/export/apps/rDock/src/rDock_2013.1_src/data/scripts/dock_solv.prm

>  <Rbt.Receptor>
prm/blind_docking_60.prm

>  <SCORE>
28.5949

>  <SCORE.INTER>
9.123

>  <SCORE.INTER.CONST>
1

>  <SCORE.INTER.POLAR>
-1.44489

>  <SCORE.INTER.ROT>
9

>  <SCORE.INTER.SOLV>
28.5338

>  <SCORE.INTER.VDW>
-8.21296

>  <SCORE.INTER.norm>
0.217214

>  <SCORE.INTRA>
5.22744

>  <SCORE.INTRA.DIHEDRAL>
0.593245

>  <SCORE.INTRA.DIHEDRAL.0>
21.6909

>  <SCORE.INTRA.POLAR>
0

>  <SCORE.INTRA.POLAR.0>
0

>  <SCORE.INTRA.REPUL>
0

>  <SCORE.INTRA.REPUL.0>
0

>  <SCORE.INTRA.SOLV>
2.696

>  <SCORE.INTRA.SOLV.lig_0>
-116.606

>  <SCORE.INTRA.VDW>
3.58282

>  <SCORE.INTRA.VDW.0>
-6.01229

>  <SCORE.INTRA.norm>
0.124463

>  <SCORE.RESTR>
14.2445

>  <SCORE.RESTR.CAVITY>
14.2445

>  <SCORE.RESTR.norm>
0.339154

>  <SCORE.SYSTEM>
0

>  <SCORE.SYSTEM.CONST>
0

>  <SCORE.SYSTEM.DIHEDRAL>
0

>  <SCORE.SYSTEM.SOLV>
0

>  <SCORE.SYSTEM.norm>
0

>  <SCORE.heavy>
42

>  <SCORE.norm>
0.680831

>  <RMSD>
32.240

$$$$
2et4_lig
 OpenBabel11021811423D
libRbt.so/2013.1/901 2013/11/27
 42 45  0  0  0  0  0  0  0  0999 V2000
   -3.0336   36.6482   13.1399 C   0  0  2  0  0  0  0  0  0  0  0  0
   -2.8579   36.3301   14.5220 O   0  0  0  0  0  0  0  0  0  0  0  0
   -4.5596   36.7298   12.8802 C   0  0  2  0  0  0  0  0  0  0  0  0
   -5.1871   37.7027   13.7377 N   0  0  0  0  0  0  0  0  0  0  0  0
   -5.1898   35.3208   13.0773 C   0  0  1  0  0  0  0  0  0  0  0  0
   -6.5588   35.3936   12.8275 O   0  0  0  0  0  0  0  0  0  0  0  0
   -4.4637   34.3212   12.1163 C   0  0  2  0  0  0  0  0  0  0  0  0
   -5.0008   33.0242   12.2675 O   0  0  0  0  0  0  0  0  0  0  0  0
   -2.9331   34.2825   12.4089 C   0  0  2  0  0  0  0  0  0  0  0  0
   -2.4139   35.6084   12.2703 O   0  0  0  0  0  0  0  0  0  0  0  0
   -2.1681   33.3239   11.4388 C   0  0  0  0  0  0  0  0  0  0  0  0
   -2.6603   31.9916   11.5020 N   0  0  0  0  0  0  0  0  0  0  0  0
   -0.0598   39.3099   15.9171 C   0  0  2  0  0  0  0  0  0  0  0  0
    0.6956   40.1761   16.8309 N   0  0  0  0  0  0  0  0  0  0  0  0
   -1.6461   39.6154   16.0674 C   0  0  0  0  0  0  0  0  0  0  0  0
   -2.4565   38.6687   15.0906 C   0  0  2  0  0  0  0  0  0  0  0  0
   -3.9076   38.8948   15.2129 N   0  0  0  0  0  0  0  0  0  0  0  0
   -2.1291   37.1740   15.4241 C   0  0  2  0  0  0  0  0  0  0  0  0
   -0.5933   36.9008   15.3034 C   0  0  2  0  0  0  0  0  0  0  0  0
   -0.3962   35.5064   15.6436 O   0  0  0  0  0  0  0  0  0  0  0  0
    0.1908   37.8367   16.2785 C   0  0  1  0  0  0  0  0  0  0  0  0
    1.5479   37.5824   16.1397 O   0  0  0  0  0  0  0  0  0  0  0  0
   -0.5746   34.9649   16.8729 C   0  0  1  0  0  0  0  0  0  0  0  0
   -0.8368   33.4394   16.7756 C   0  0  2  0  0  0  0  0  0  0  0  0
   -2.1767   33.1275   16.5256 O   0  0  0  0  0  0  0  0  0  0  0  0
   -0.2175   32.9982   18.0888 C   0  0  1  0  0  0  0  0  0  0  0  0
    1.0245   33.8736   18.3081 C   0  0  2  0  0  0  0  0  0  0  0  0
    0.5557   35.1117   17.7743 O   0  0  0  0  0  0  0  0  0  0  0  0
    2.3293   33.3862   17.5908 C   0  0  0  0  0  0  0  0  0  0  0  0
    2.1970   31.9566   17.3724 O   0  0  0  0  0  0  0  0  0  0  0  0
   -2.2315   32.2330   19.3052 C   0  0  2  0  0  0  0  0  0  0  0  0
   -1.2333   33.2049   19.1538 O   0  0  0  0  0  0  0  0  0  0  0  0
   -2.4508   31.8620   20.8362 C   0  0  1  0  0  0  0  0  0  0  0  0
   -1.0639   28.8953   16.9403 N   0  0  0  0  0  0  0  0  0  0  0  0
   -3.5999   30.7247   20.8889 C   0  0  1  0  0  0  0  0  0  0  0  0
   -4.8506   31.2883   20.2442 O   0  0  0  0  0  0  0  0  0  0  0  0
   -3.1040   29.4023   20.0942 C   0  0  2  0  0  0  0  0  0  0  0  0
   -1.9156   28.8780   20.7337 O   0  0  0  0  0  0  0  0  0  0  0  0
   -2.8540   29.8299   18.5403 C   0  0  1  0  0  0  0  0  0  0  0  0
   -1.8639   30.9607   18.4865 O   0  0  0  0  0  0  0  0  0  0  0  0
   -2.3440   28.6311   17.6663 C   0  0  0  0  0  0  0  0  0  0  0  0
   -1.1548   31.4190   21.4484 N   0  0  0  0  0  0  0  0  0  0  0  0
  1  2  1  1  0  0  0
  1  3  1  0  0  0  0
  1 10  1  0  0  0  0
  3  4  1  1  0  0  0
  3  5  1  0  0  0  0
  5  6  1  6  0  0  0
  5  7  1  0  0  0  0
  7  8  1  1  0  0  0
  7  9  1  0  0  0  0
  9 10  1  0  0  0  0
  9 11  1  6  0  0  0
 11 12  1  0  0  0  0
 13 14  1  1  0  0  0
 13 15  1  0  0  0  0
 13 21  1  0  0  0  0
 16 15  1  0  0  0  0
 16 17  1  1  0  0  0
 18  2  1  6  0  0  0
 18 16  1  0  0  0  0
 19 18  1  0  0  0  0
 19 20  1  1  0  0  0
 21 19  1  0  0  0  0
 21 22  1  6  0  0  0
 23 20  1  6  0  0  0
 23 24  1  0  0  0  0
 23 28  1  0  0  0  0
 24 25  1  1  0  0  0
 24 26  1  0  0  0  0
 26 27  1  0  0  0  0
 26 32  1  1  0  0  0
 27 28  1  0  0  0  0
 27 29  1  6  0  0  0
 29 30  1  0  0  0  0
 31 32  1  1  0  0  0
 31 40  1  0  0  0  0
 33 31  1  0  0  0  0
 33 42  1  6  0  0  0
 35 33  1  0  0  0  0
 35 36  1  6  0  0  0
 37 35  1  0  0  0  0
 37 38  1  1  0  0  0
 37 39  1  0  0  0  0
 39 40  1  0  0  0  0
 39 41  1  6  0  0  0
 41 34  1  0  0  0  0
M  END
>  <CHROM.1>
-121.10036389,-58.20557764,39.20882830,-67.91834232,157.18896505,80.69638269
-24.18315417,134.92417262,-124.99120993,-1.94936410,34.21669951,16.28392189
1.73195551,-0.80862586,-0.59385326

>  <Name>
2et4_lig

>  <RI>
0

>  <Rbt.Current_Directory>
/home/itssahil/PROJECTS/Mol_Feturizer/New_Systems/rnas/2et4

>  <Rbt.Executable>
rbdock ($Id: //depot/dev/client3/rdock/2013.1/src/exe/rbdock.cxx#4 $)

>  <Rbt.Library>
libRbt.so (2013.1, Build901 2013/11/27)

>  <Rbt.Parameter_File>
/export/apps/rDock/src/rDock_2013.1_src/data/scripts/dock_solv.prm

>  <Rbt.Receptor>
prm/blind_docking_60.prm

>  <SCORE>
16.7393

>  <SCORE.INTER>
-2.80345

>  <SCORE.INTER.CONST>
1

>  <SCORE.INTER.POLAR>
-0.458089

>  <SCORE.INTER.ROT>
9

>  <SCORE.INTER.SOLV>
29.0305

>  <SCORE.INTER.VDW>
-19.6188

>  <SCORE.INTER.norm>
-0.0667489

>  <SCORE.INTRA>
10.5485

>  <SCORE.INTRA.DIHEDRAL>
6.64216

>  <SCORE.INTRA.DIHEDRAL.0>
21.6909

>  <SCORE.INTRA.POLAR>
0

>  <SCORE.INTRA.POLAR.0>
0

>  <SCORE.INTRA.REPUL>
0

>  <SCORE.INTRA.REPUL.0>
0

>  <SCORE.INTRA.SOLV>
2.70073

>  <SCORE.INTRA.SOLV.lig_0>
-116.606

>  <SCORE.INTRA.VDW>
5.87704

>  <SCORE.INTRA.VDW.0>
-6.01229

>  <SCORE.INTRA.norm>
0.251154

>  <SCORE.RESTR>
8.99427

>  <SCORE.RESTR.CAVITY>
8.99427

>  <SCORE.RESTR.norm>
0.214149

>  <SCORE.SYSTEM>
0

>  <SCORE.SYSTEM.CONST>
0

>  <SCORE.SYSTEM.DIHEDRAL>
0

>  <SCORE.SYSTEM.SOLV>
0

>  <SCORE.SYSTEM.norm>
0

>  <SCORE.heavy>
42

>  <SCORE.norm>
0.398555

>  <RMSD>
32.349

$$$$
2et4_lig
 OpenBabel11021811423D
libRbt.so/2013.1/901 2013/11/27
 42 45  0  0  0  0  0  0  0  0999 V2000
    0.0092   32.0842   18.1972 C   0  0  2  0  0  0  0  0  0  0  0  0
   -0.7945   32.8428   17.2913 O   0  0  0  0  0  0  0  0  0  0  0  0
   -0.1230   30.5949   17.7883 C   0  0  2  0  0  0  0  0  0  0  0  0
    0.2740   30.3890   16.4188 N   0  0  0  0  0  0  0  0  0  0  0  0
   -1.5882   30.1264   18.0228 C   0  0  1  0  0  0  0  0  0  0  0  0
   -1.7004   28.7831   17.6698 O   0  0  0  0  0  0  0  0  0  0  0  0
   -1.9475   30.3769   19.5255 C   0  0  2  0  0  0  0  0  0  0  0  0
   -3.2753   29.9715   19.7822 O   0  0  0  0  0  0  0  0  0  0  0  0
   -1.7892   31.8842   19.8903 C   0  0  2  0  0  0  0  0  0  0  0  0
   -0.4442   32.2786   19.6037 O   0  0  0  0  0  0  0  0  0  0  0  0
   -2.1004   32.1654   21.3968 C   0  0  0  0  0  0  0  0  0  0  0  0
   -3.4521   31.8758   21.7288 N   0  0  0  0  0  0  0  0  0  0  0  0
   -0.7595   37.0751   18.1520 C   0  0  2  0  0  0  0  0  0  0  0  0
   -0.5918   38.5219   17.9664 N   0  0  0  0  0  0  0  0  0  0  0  0
    0.6604   36.3289   17.9084 C   0  0  0  0  0  0  0  0  0  0  0  0
    0.4704   34.7681   18.0957 C   0  0  2  0  0  0  0  0  0  0  0  0
    1.7329   34.0461   17.8579 N   0  0  0  0  0  0  0  0  0  0  0  0
   -0.6229   34.2537   17.0993 C   0  0  2  0  0  0  0  0  0  0  0  0
   -1.9781   35.0021   17.3260 C   0  0  2  0  0  0  0  0  0  0  0  0
   -2.9098   34.4683   16.3533 O   0  0  0  0  0  0  0  0  0  0  0  0
   -1.7753   36.5389   17.1301 C   0  0  1  0  0  0  0  0  0  0  0  0
   -2.9880   37.1765   17.3507 O   0  0  0  0  0  0  0  0  0  0  0  0
   -2.9274   34.7728   15.0330 C   0  0  1  0  0  0  0  0  0  0  0  0
   -4.1106   35.7174   14.6962 C   0  0  2  0  0  0  0  0  0  0  0  0
   -5.3122   35.0361   14.4790 O   0  0  0  0  0  0  0  0  0  0  0  0
   -3.4908   36.4890   13.5459 C   0  0  1  0  0  0  0  0  0  0  0  0
   -2.0091   36.6883   13.8947 C   0  0  2  0  0  0  0  0  0  0  0  0
   -1.7361   35.4479   14.5464 O   0  0  0  0  0  0  0  0  0  0  0  0
   -1.6915   37.9139   14.8175 C   0  0  0  0  0  0  0  0  0  0  0  0
   -0.2835   37.8422   15.1660 O   0  0  0  0  0  0  0  0  0  0  0  0
   -3.5703   34.2796   12.4352 C   0  0  2  0  0  0  0  0  0  0  0  0
   -3.6632   35.6728   12.3159 O   0  0  0  0  0  0  0  0  0  0  0  0
   -2.0554   33.8075   12.5441 C   0  0  1  0  0  0  0  0  0  0  0  0
   -6.3423   32.1653    9.7042 N   0  0  0  0  0  0  0  0  0  0  0  0
   -2.0680   32.1937   12.6542 C   0  0  1  0  0  0  0  0  0  0  0  0
   -2.8834   31.8110   13.8733 O   0  0  0  0  0  0  0  0  0  0  0  0
   -2.7222   31.5547   11.3162 C   0  0  2  0  0  0  0  0  0  0  0  0
   -1.9214   31.9260   10.1686 O   0  0  0  0  0  0  0  0  0  0  0  0
   -4.2596   32.0901   11.2191 C   0  0  1  0  0  0  0  0  0  0  0  0
   -4.2659   33.5941   11.2226 O   0  0  0  0  0  0  0  0  0  0  0  0
   -4.9980   31.5557    9.9422 C   0  0  0  0  0  0  0  0  0  0  0  0
   -1.2742   34.3117   11.3667 N   0  0  0  0  0  0  0  0  0  0  0  0
  1  2  1  6  0  0  0
  1  3  1  0  0  0  0
  1 10  1  0  0  0  0
  3  4  1  6  0  0  0
  3  5  1  0  0  0  0
  5  6  1  1  0  0  0
  5  7  1  0  0  0  0
  7  8  1  6  0  0  0
  7  9  1  0  0  0  0
  9 10  1  0  0  0  0
  9 11  1  1  0  0  0
 11 12  1  0  0  0  0
 13 14  1  6  0  0  0
 13 15  1  0  0  0  0
 13 21  1  0  0  0  0
 16 15  1  0  0  0  0
 16 17  1  6  0  0  0
 18  2  1  1  0  0  0
 18 16  1  0  0  0  0
 19 18  1  0  0  0  0
 19 20  1  6  0  0  0
 21 19  1  0  0  0  0
 21 22  1  1  0  0  0
 23 20  1  1  0  0  0
 23 24  1  0  0  0  0
 23 28  1  0  0  0  0
 24 25  1  6  0  0  0
 24 26  1  0  0  0  0
 26 27  1  0  0  0  0
 26 32  1  6  0  0  0
 27 28  1  0  0  0  0
 27 29  1  1  0  0  0
 29 30  1  0  0  0  0
 31 32  1  6  0  0  0
 31 40  1  0  0  0  0
 33 31  1  0  0  0  0
 33 42  1  6  0  0  0
 35 33  1  0  0  0  0
 35 36  1  1  0  0  0
 37 35  1  0  0  0  0
 37 38  1  6  0  0  0
 37 39  1  0  0  0  0
 39 40  1  0  0  0  0
 39 41  1  6  0  0  0
 41 34  1  0  0  0  0
M  END
>  <CHROM.1>
-161.08422319,-63.53111074,-4.05066598,-76.17715256,-105.57195773,-35.80131938
173.16015877,-77.76409527,-171.90071791,-2.09892016,33.71996955,15.64050577
0.50627597,1.21122007,2.73317782

>  <Name>
2et4_lig

>  <RI>
0

>  <Rbt.Current_Directory>
/home/itssahil/PROJECTS/Mol_Feturizer/New_Systems/rnas/2et4

>  <Rbt.Executable>
rbdock ($Id: //depot/dev/client3/rdock/2013.1/src/exe/rbdock.cxx#4 $)

>  <Rbt.Library>
libRbt.so (2013.1, Build901 2013/11/27)

>  <Rbt.Parameter_File>
/export/apps/rDock/src/rDock_2013.1_src/data/scripts/dock_solv.prm

>  <Rbt.Receptor>
prm/blind_docking_60.prm

>  <SCORE>
27.4358

>  <SCORE.INTER>
1.16945

>  <SCORE.INTER.CONST>
1

>  <SCORE.INTER.POLAR>
-0.52734

>  <SCORE.INTER.ROT>
9

>  <SCORE.INTER.SOLV>
33.5396

>  <SCORE.INTER.VDW>
-18.2424

>  <SCORE.INTER.norm>
0.0278439

>  <SCORE.INTRA>
14.0135

>  <SCORE.INTRA.DIHEDRAL>
-0.965768

>  <SCORE.INTRA.DIHEDRAL.0>
21.6909

>  <SCORE.INTRA.POLAR>
0

>  <SCORE.INTRA.POLAR.0>
0

>  <SCORE.INTRA.REPUL>
0

>  <SCORE.INTRA.REPUL.0>
0

>  <SCORE.INTRA.SOLV>
4.25782

>  <SCORE.INTRA.SOLV.lig_0>
-116.606

>  <SCORE.INTRA.VDW>
12.3675

>  <SCORE.INTRA.VDW.0>
-6.01229

>  <SCORE.INTRA.norm>
0.333655

>  <SCORE.RESTR>
12.2528

>  <SCORE.RESTR.CAVITY>
12.2528

>  <SCORE.RESTR.norm>
0.291734

>  <SCORE.SYSTEM>
0

>  <SCORE.SYSTEM.CONST>
0

>  <SCORE.SYSTEM.DIHEDRAL>
0

>  <SCORE.SYSTEM.SOLV>
0

>  <SCORE.SYSTEM.norm>
0

>  <SCORE.heavy>
42

>  <SCORE.norm>
0.653233

>  <RMSD>
32.390

$$$$
2et4_lig
 OpenBabel11021811423D
libRbt.so/2013.1/901 2013/11/27
 42 45  0  0  0  0  0  0  0  0999 V2000
   -0.5576   31.6849   19.7352 C   0  0  2  0  0  0  0  0  0  0  0  0
   -1.2149   30.5223   19.2269 O   0  0  0  0  0  0  0  0  0  0  0  0
   -0.7916   31.7092   21.2673 C   0  0  2  0  0  0  0  0  0  0  0  0
   -0.3077   30.5043   21.8917 N   0  0  0  0  0  0  0  0  0  0  0  0
   -2.3071   31.9172   21.5518 C   0  0  1  0  0  0  0  0  0  0  0  0
   -2.5124   31.9548   22.9296 O   0  0  0  0  0  0  0  0  0  0  0  0
   -2.7600   33.2400   20.8482 C   0  0  2  0  0  0  0  0  0  0  0  0
   -4.1353   33.4651   21.0749 O   0  0  0  0  0  0  0  0  0  0  0  0
   -2.4951   33.1713   19.3136 C   0  0  2  0  0  0  0  0  0  0  0  0
   -1.1015   32.9225   19.1074 O   0  0  0  0  0  0  0  0  0  0  0  0
   -2.8978   34.4938   18.5826 C   0  0  0  0  0  0  0  0  0  0  0  0
   -4.2702   34.8139   18.7697 N   0  0  0  0  0  0  0  0  0  0  0  0
   -1.6796   28.6844   15.3461 C   0  0  2  0  0  0  0  0  0  0  0  0
   -2.0221   28.5170   13.9282 N   0  0  0  0  0  0  0  0  0  0  0  0
   -3.0174   29.0516   16.1875 C   0  0  0  0  0  0  0  0  0  0  0  0
   -2.6397   29.2451   17.7130 C   0  0  2  0  0  0  0  0  0  0  0  0
   -3.8239   29.6060   18.5125 N   0  0  0  0  0  0  0  0  0  0  0  0
   -1.5575   30.3695   17.8426 C   0  0  2  0  0  0  0  0  0  0  0  0
   -0.2852   30.0161   17.0035 C   0  0  2  0  0  0  0  0  0  0  0  0
    0.6405   31.1170   17.1775 O   0  0  0  0  0  0  0  0  0  0  0  0
   -0.6732   29.8363   15.5006 C   0  0  1  0  0  0  0  0  0  0  0  0
    0.4700   29.5104   14.7848 O   0  0  0  0  0  0  0  0  0  0  0  0
    0.5105   32.3475   16.6249 C   0  0  1  0  0  0  0  0  0  0  0  0
   -0.7274   33.0860   17.1974 C   0  0  2  0  0  0  0  0  0  0  0  0
   -1.9175   32.7492   16.5454 O   0  0  0  0  0  0  0  0  0  0  0  0
   -0.2253   34.5152   17.1079 C   0  0  1  0  0  0  0  0  0  0  0  0
    1.2710   34.4805   17.4495 C   0  0  2  0  0  0  0  0  0  0  0  0
    1.6365   33.2386   16.8479 O   0  0  0  0  0  0  0  0  0  0  0  0
    1.6157   34.5118   18.9776 C   0  0  0  0  0  0  0  0  0  0  0  0
    1.9280   33.1520   19.3805 O   0  0  0  0  0  0  0  0  0  0  0  0
   -0.8061   36.3325   15.5327 C   0  0  2  0  0  0  0  0  0  0  0  0
   -0.4633   34.9864   15.7187 O   0  0  0  0  0  0  0  0  0  0  0  0
    0.4539   37.2832   15.7285 C   0  0  1  0  0  0  0  0  0  0  0  0
   -3.1042   38.5151   18.8840 N   0  0  0  0  0  0  0  0  0  0  0  0
   -0.0599   38.8020   15.5140 C   0  0  1  0  0  0  0  0  0  0  0  0
   -0.6541   38.9064   14.1235 O   0  0  0  0  0  0  0  0  0  0  0  0
   -1.1742   39.1704   16.6316 C   0  0  2  0  0  0  0  0  0  0  0  0
   -0.5807   39.0727   17.9485 O   0  0  0  0  0  0  0  0  0  0  0  0
   -2.4314   38.1525   16.4235 C   0  0  1  0  0  0  0  0  0  0  0  0
   -1.9449   36.7324   16.5161 O   0  0  0  0  0  0  0  0  0  0  0  0
   -3.5748   38.3950   17.4699 C   0  0  0  0  0  0  0  0  0  0  0  0
    1.0661   37.0534   17.0787 N   0  0  0  0  0  0  0  0  0  0  0  0
  1  2  1  6  0  0  0
  1  3  1  0  0  0  0
  1 10  1  0  0  0  0
  3  4  1  6  0  0  0
  3  5  1  0  0  0  0
  5  6  1  1  0  0  0
  5  7  1  0  0  0  0
  7  8  1  6  0  0  0
  7  9  1  0  0  0  0
  9 10  1  0  0  0  0
  9 11  1  6  0  0  0
 11 12  1  0  0  0  0
 13 14  1  6  0  0  0
 13 15  1  0  0  0  0
 13 21  1  0  0  0  0
 16 15  1  0  0  0  0
 16 17  1  1  0  0  0
 18  2  1  1  0  0  0
 18 16  1  0  0  0  0
 19 18  1  0  0  0  0
 19 20  1  6  0  0  0
 21 19  1  0  0  0  0
 21 22  1  6  0  0  0
 23 20  1  1  0  0  0
 23 24  1  0  0  0  0
 23 28  1  0  0  0  0
 24 25  1  6  0  0  0
 24 26  1  0  0  0  0
 26 27  1  0  0  0  0
 26 32  1  6  0  0  0
 27 28  1  0  0  0  0
 27 29  1  1  0  0  0
 29 30  1  0  0  0  0
 31 32  1  1  0  0  0
 31 40  1  0  0  0  0
 33 31  1  0  0  0  0
 33 42  1  1  0  0  0
 35 33  1  0  0  0  0
 35 36  1  6  0  0  0
 37 35  1  0  0  0  0
 37 38  1  1  0  0  0
 37 39  1  0  0  0  0
 39 40  1  0  0  0  0
 39 41  1  1  0  0  0
 41 34  1  0  0  0  0
M  END
>  <CHROM.1>
160.98625023,-58.58443045,-161.97555500,-72.98123320,65.82374828,145.04279386
100.95201359,74.30228010,-47.31910626,-1.15719091,33.53328805,17.76862879
1.71302064,-1.19248601,3.09649336

>  <Name>
2et4_lig

>  <RI>
0

>  <Rbt.Current_Directory>
/home/itssahil/PROJECTS/Mol_Feturizer/New_Systems/rnas/2et4

>  <Rbt.Executable>
rbdock ($Id: //depot/dev/client3/rdock/2013.1/src/exe/rbdock.cxx#4 $)

>  <Rbt.Library>
libRbt.so (2013.1, Build901 2013/11/27)

>  <Rbt.Parameter_File>
/export/apps/rDock/src/rDock_2013.1_src/data/scripts/dock_solv.prm

>  <Rbt.Receptor>
prm/blind_docking_80.prm

>  <SCORE>
44.1814

>  <SCORE.INTER>
3.20388

>  <SCORE.INTER.CONST>
1

>  <SCORE.INTER.POLAR>
-1.61397

>  <SCORE.INTER.ROT>
9

>  <SCORE.INTER.SOLV>
24.0012

>  <SCORE.INTER.VDW>
-10.0846

>  <SCORE.INTER.norm>
0.0762828

>  <SCORE.INTRA>
20.115

>  <SCORE.INTRA.DIHEDRAL>
-7.5384

>  <SCORE.INTRA.DIHEDRAL.0>
21.6909

>  <SCORE.INTRA.POLAR>
0

>  <SCORE.INTRA.POLAR.0>
0

>  <SCORE.INTRA.REPUL>
0

>  <SCORE.INTRA.REPUL.0>
0

>  <SCORE.INTRA.SOLV>
7.70259

>  <SCORE.INTRA.SOLV.lig_0>
-116.606

>  <SCORE.INTRA.VDW>
20.0329

>  <SCORE.INTRA.VDW.0>
-6.01229

>  <SCORE.INTRA.norm>
0.478929

>  <SCORE.RESTR>
20.8625

>  <SCORE.RESTR.CAVITY>
20.8625

>  <SCORE.RESTR.norm>
0.496725

>  <SCORE.SYSTEM>
0

>  <SCORE.SYSTEM.CONST>
0

>  <SCORE.SYSTEM.DIHEDRAL>
0

>  <SCORE.SYSTEM.SOLV>
0

>  <SCORE.SYSTEM.norm>
0

>  <SCORE.heavy>
42

>  <SCORE.norm>
1.05194

>  <RMSD>
32.393

$$$$
2et4_lig
 OpenBabel11021811423D
libRbt.so/2013.1/901 2013/11/27
 42 45  0  0  0  0  0  0  0  0999 V2000
   -0.3872   37.0232   15.7876 C   0  0  2  0  0  0  0  0  0  0  0  0
   -1.7919   36.7796   15.6887 O   0  0  0  0  0  0  0  0  0  0  0  0
   -0.0601   37.2072   17.2915 C   0  0  2  0  0  0  0  0  0  0  0  0
   -0.4594   36.0562   18.0606 N   0  0  0  0  0  0  0  0  0  0  0  0
   -0.7548   38.4978   17.8138 C   0  0  1  0  0  0  0  0  0  0  0  0
   -0.4459   38.6695   19.1617 O   0  0  0  0  0  0  0  0  0  0  0  0
   -0.2736   39.7017   16.9368 C   0  0  2  0  0  0  0  0  0  0  0  0
   -0.8868   40.8965   17.3726 O   0  0  0  0  0  0  0  0  0  0  0  0
   -0.6151   39.4654   15.4343 C   0  0  2  0  0  0  0  0  0  0  0  0
   -0.0019   38.2412   15.0198 O   0  0  0  0  0  0  0  0  0  0  0  0
   -0.1113   40.6309   14.5215 C   0  0  0  0  0  0  0  0  0  0  0  0
   -0.8779   40.7492   13.3301 N   0  0  0  0  0  0  0  0  0  0  0  0
   -4.5476   34.7981   13.0177 C   0  0  2  0  0  0  0  0  0  0  0  0
   -5.1991   34.3676   11.7743 N   0  0  0  0  0  0  0  0  0  0  0  0
   -4.6215   36.4144   13.1372 C   0  0  0  0  0  0  0  0  0  0  0  0
   -3.9050   36.8740   14.4724 C   0  0  2  0  0  0  0  0  0  0  0  0
   -3.9259   38.3411   14.6096 N   0  0  0  0  0  0  0  0  0  0  0  0
   -2.4225   36.3693   14.4677 C   0  0  2  0  0  0  0  0  0  0  0  0
   -2.3655   34.8125   14.3228 C   0  0  2  0  0  0  0  0  0  0  0  0
   -0.9623   34.4518   14.3141 O   0  0  0  0  0  0  0  0  0  0  0  0
   -3.0693   34.3763   12.9977 C   0  0  1  0  0  0  0  0  0  0  0  0
   -3.0157   32.9929   12.9033 O   0  0  0  0  0  0  0  0  0  0  0  0
   -0.3312   33.7286   15.2706 C   0  0  1  0  0  0  0  0  0  0  0  0
   -1.3388   33.2055   16.3273 C   0  0  2  0  0  0  0  0  0  0  0  0
   -1.6214   34.1415   17.3268 O   0  0  0  0  0  0  0  0  0  0  0  0
   -0.6430   31.9133   16.7132 C   0  0  1  0  0  0  0  0  0  0  0  0
   -0.0245   31.3435   15.4289 C   0  0  2  0  0  0  0  0  0  0  0  0
    0.3712   32.5535   14.7832 O   0  0  0  0  0  0  0  0  0  0  0  0
   -0.9896   30.4937   14.5339 C   0  0  0  0  0  0  0  0  0  0  0  0
   -1.0299   29.1527   15.0898 O   0  0  0  0  0  0  0  0  0  0  0  0
    0.2158   31.7715   19.0292 C   0  0  2  0  0  0  0  0  0  0  0  0
    0.3941   32.2485   17.7236 O   0  0  0  0  0  0  0  0  0  0  0  0
    0.3466   30.1875   19.0899 C   0  0  1  0  0  0  0  0  0  0  0  0
   -4.0540   31.4606   20.9382 N   0  0  0  0  0  0  0  0  0  0  0  0
    0.1026   29.7498   20.6279 C   0  0  1  0  0  0  0  0  0  0  0  0
    1.1368   30.4500   21.4867 O   0  0  0  0  0  0  0  0  0  0  0  0
   -1.3922   30.1713   21.0908 C   0  0  2  0  0  0  0  0  0  0  0  0
   -2.3606   29.4834   20.2631 O   0  0  0  0  0  0  0  0  0  0  0  0
   -1.4997   31.7949   20.9796 C   0  0  1  0  0  0  0  0  0  0  0  0
   -1.1706   32.2222   19.5757 O   0  0  0  0  0  0  0  0  0  0  0  0
   -2.9195   32.3277   21.3815 C   0  0  0  0  0  0  0  0  0  0  0  0
   -0.6236   29.5550   18.1362 N   0  0  0  0  0  0  0  0  0  0  0  0
  1  2  1  1  0  0  0
  1  3  1  0  0  0  0
  1 10  1  0  0  0  0
  3  4  1  1  0  0  0
  3  5  1  0  0  0  0
  5  6  1  1  0  0  0
  5  7  1  0  0  0  0
  7  8  1  1  0  0  0
  7  9  1  0  0  0  0
  9 10  1  0  0  0  0
  9 11  1  6  0  0  0
 11 12  1  0  0  0  0
 13 14  1  6  0  0  0
 13 15  1  0  0  0  0
 13 21  1  0  0  0  0
 16 15  1  0  0  0  0
 16 17  1  6  0  0  0
 18  2  1  1  0  0  0
 18 16  1  0  0  0  0
 19 18  1  0  0  0  0
 19 20  1  6  0  0  0
 21 19  1  0  0  0  0
 21 22  1  1  0  0  0
 23 20  1  6  0  0  0
 23 24  1  0  0  0  0
 23 28  1  0  0  0  0
 24 25  1  1  0  0  0
 24 26  1  0  0  0  0
 26 27  1  0  0  0  0
 26 32  1  1  0  0  0
 27 28  1  0  0  0  0
 27 29  1  6  0  0  0
 29 30  1  0  0  0  0
 31 32  1  6  0  0  0
 31 40  1  0  0  0  0
 33 31  1  0  0  0  0
 33 42  1  6  0  0  0
 35 33  1  0  0  0  0
 35 36  1  1  0  0  0
 37 35  1  0  0  0  0
 37 38  1  6  0  0  0
 37 39  1  0  0  0  0
 39 40  1  0  0  0  0
 39 41  1  6  0  0  0
 41 34  1  0  0  0  0
M  END
>  <CHROM.1>
-170.63632851,-153.99578898,-151.69773690,114.04079042,5.61959589,112.87902788
-82.14957098,67.75624165,-37.89474248,-1.36760255,34.40511995,16.63779323
-1.82116588,1.21542851,2.86284266

>  <Name>
2et4_lig

>  <RI>
0

>  <Rbt.Current_Directory>
/home/itssahil/PROJECTS/Mol_Feturizer/New_Systems/rnas/2et4

>  <Rbt.Executable>
rbdock ($Id: //depot/dev/client3/rdock/2013.1/src/exe/rbdock.cxx#4 $)

>  <Rbt.Library>
libRbt.so (2013.1, Build901 2013/11/27)

>  <Rbt.Parameter_File>
/export/apps/rDock/src/rDock_2013.1_src/data/scripts/dock_solv.prm

>  <Rbt.Receptor>
prm/blind_docking_60.prm

>  <SCORE>
16.0588

>  <SCORE.INTER>
-4.98806

>  <SCORE.INTER.CONST>
1

>  <SCORE.INTER.POLAR>
-0.88461

>  <SCORE.INTER.ROT>
9

>  <SCORE.INTER.SOLV>
27.6863

>  <SCORE.INTER.VDW>
-19.2054

>  <SCORE.INTER.norm>
-0.118763

>  <SCORE.INTRA>
10.0705

>  <SCORE.INTRA.DIHEDRAL>
8.6487

>  <SCORE.INTRA.DIHEDRAL.0>
21.6909

>  <SCORE.INTRA.POLAR>
0

>  <SCORE.INTRA.POLAR.0>
0

>  <SCORE.INTRA.REPUL>
0.163857

>  <SCORE.INTRA.REPUL.0>
0

>  <SCORE.INTRA.SOLV>
4.69488

>  <SCORE.INTRA.SOLV.lig_0>
-116.606

>  <SCORE.INTRA.VDW>
2.57947

>  <SCORE.INTRA.VDW.0>
-6.01229

>  <SCORE.INTRA.norm>
0.239775

>  <SCORE.RESTR>
10.9763

>  <SCORE.RESTR.CAVITY>
10.9763

>  <SCORE.RESTR.norm>
0.261342

>  <SCORE.SYSTEM>
0

>  <SCORE.SYSTEM.CONST>
0

>  <SCORE.SYSTEM.DIHEDRAL>
0

>  <SCORE.SYSTEM.SOLV>
0

>  <SCORE.SYSTEM.norm>
0

>  <SCORE.heavy>
42

>  <SCORE.norm>
0.382353

>  <RMSD>
32.423

$$$$
2et4_lig
 OpenBabel11021811423D
libRbt.so/2013.1/901 2013/11/27
 42 45  0  0  0  0  0  0  0  0999 V2000
   -4.2009   35.5409   12.3991 C   0  0  2  0  0  0  0  0  0  0  0  0
   -3.8494   35.4480   13.7811 O   0  0  0  0  0  0  0  0  0  0  0  0
   -5.6308   34.9609   12.2512 C   0  0  2  0  0  0  0  0  0  0  0  0
   -6.5703   35.6594   13.0909 N   0  0  0  0  0  0  0  0  0  0  0  0
   -5.6052   33.4411   12.5838 C   0  0  1  0  0  0  0  0  0  0  0  0
   -6.8885   32.9190   12.4344 O   0  0  0  0  0  0  0  0  0  0  0  0
   -4.5694   32.7500   11.6354 C   0  0  2  0  0  0  0  0  0  0  0  0
   -4.5080   31.3661   11.9083 O   0  0  0  0  0  0  0  0  0  0  0  0
   -3.1518   33.3736   11.8129 C   0  0  2  0  0  0  0  0  0  0  0  0
   -3.2410   34.7775   11.5522 O   0  0  0  0  0  0  0  0  0  0  0  0
   -2.0983   32.7349   10.8499 C   0  0  0  0  0  0  0  0  0  0  0  0
   -2.6780   32.3184    9.6205 N   0  0  0  0  0  0  0  0  0  0  0  0
   -1.9092   39.2081   14.6483 C   0  0  2  0  0  0  0  0  0  0  0  0
   -1.3968   40.3565   15.4062 N   0  0  0  0  0  0  0  0  0  0  0  0
   -3.5191   39.1151   14.8270 C   0  0  0  0  0  0  0  0  0  0  0  0
   -4.0642   37.8668   14.0195 C   0  0  2  0  0  0  0  0  0  0  0  0
   -5.5231   37.7285   14.1750 N   0  0  0  0  0  0  0  0  0  0  0  0
   -3.3571   36.5667   14.5316 C   0  0  2  0  0  0  0  0  0  0  0  0
   -1.8041   36.6818   14.3802 C   0  0  2  0  0  0  0  0  0  0  0  0
   -1.2488   35.4452   14.8915 O   0  0  0  0  0  0  0  0  0  0  0  0
   -1.2816   37.9127   15.1884 C   0  0  1  0  0  0  0  0  0  0  0  0
    0.0937   37.9977   15.0245 O   0  0  0  0  0  0  0  0  0  0  0  0
   -1.5006   34.9171   16.1138 C   0  0  1  0  0  0  0  0  0  0  0  0
   -0.3196   34.0322   16.5909 C   0  0  2  0  0  0  0  0  0  0  0  0
   -0.3781   32.7255   16.0967 O   0  0  0  0  0  0  0  0  0  0  0  0
   -0.4356   34.2522   18.0879 C   0  0  1  0  0  0  0  0  0  0  0  0
   -0.8425   35.7187   18.2892 C   0  0  2  0  0  0  0  0  0  0  0  0
   -1.7100   35.8939   17.1692 O   0  0  0  0  0  0  0  0  0  0  0  0
    0.3342   36.7530   18.2825 C   0  0  0  0  0  0  0  0  0  0  0  0
   -0.2466   38.0708   18.0952 O   0  0  0  0  0  0  0  0  0  0  0  0
   -1.0939   31.9897   18.8426 C   0  0  2  0  0  0  0  0  0  0  0  0
   -1.4718   33.3169   18.5982 O   0  0  0  0  0  0  0  0  0  0  0  0
   -2.0027   31.3266   19.9669 C   0  0  1  0  0  0  0  0  0  0  0  0
    2.7348   31.4335   21.1903 N   0  0  0  0  0  0  0  0  0  0  0  0
   -1.4664   29.8155   20.1804 C   0  0  1  0  0  0  0  0  0  0  0  0
   -1.5637   29.0892   18.8535 O   0  0  0  0  0  0  0  0  0  0  0  0
    0.0699   29.8430   20.6957 C   0  0  2  0  0  0  0  0  0  0  0  0
    0.1351   30.5326   21.9671 O   0  0  0  0  0  0  0  0  0  0  0  0
    0.9626   30.5621   19.5356 C   0  0  1  0  0  0  0  0  0  0  0  0
    0.4066   31.9308   19.2539 O   0  0  0  0  0  0  0  0  0  0  0  0
    2.4771   30.6714   19.9301 C   0  0  0  0  0  0  0  0  0  0  0  0
   -1.9545   32.1514   21.2192 N   0  0  0  0  0  0  0  0  0  0  0  0
  1  2  1  1  0  0  0
  1  3  1  0  0  0  0
  1 10  1  0  0  0  0
  3  4  1  1  0  0  0
  3  5  1  0  0  0  0
  5  6  1  6  0  0  0
  5  7  1  0  0  0  0
  7  8  1  1  0  0  0
  7  9  1  0  0  0  0
  9 10  1  0  0  0  0
  9 11  1  6  0  0  0
 11 12  1  0  0  0  0
 13 14  1  1  0  0  0
 13 15  1  0  0  0  0
 13 21  1  0  0  0  0
 16 15  1  0  0  0  0
 16 17  1  1  0  0  0
 18  2  1  6  0  0  0
 18 16  1  0  0  0  0
 19 18  1  0  0  0  0
 19 20  1  1  0  0  0
 21 19  1  0  0  0  0
 21 22  1  6  0  0  0
 23 20  1  6  0  0  0
 23 24  1  0  0  0  0
 23 28  1  0  0  0  0
 24 25  1  1  0  0  0
 24 26  1  0  0  0  0
 26 27  1  0  0  0  0
 26 32  1  6  0  0  0
 27 28  1  0  0  0  0
 27 29  1  6  0  0  0
 29 30  1  0  0  0  0
 31 32  1  1  0  0  0
 31 40  1  0  0  0  0
 33 31  1  0  0  0  0
 33 42  1  1  0  0  0
 35 33  1  0  0  0  0
 35 36  1  6  0  0  0
 37 35  1  0  0  0  0
 37 38  1  1  0  0  0
 37 39  1  0  0  0  0
 39 40  1  0  0  0  0
 39 41  1  1  0  0  0
 41 34  1  0  0  0  0
M  END
>  <CHROM.1>
-128.36493156,31.61666175,34.77753783,-53.50687006,-153.31752056,81.36536548
163.83665998,152.95180535,-58.66639674,-2.00813975,34.24721510,15.96143279
2.51988299,-0.99468351,-0.19044476

>  <Name>
2et4_lig

>  <RI>
0

>  <Rbt.Current_Directory>
/home/itssahil/PROJECTS/Mol_Feturizer/New_Systems/rnas/2et4

>  <Rbt.Executable>
rbdock ($Id: //depot/dev/client3/rdock/2013.1/src/exe/rbdock.cxx#4 $)

>  <Rbt.Library>
libRbt.so (2013.1, Build901 2013/11/27)

>  <Rbt.Parameter_File>
/export/apps/rDock/src/rDock_2013.1_src/data/scripts/dock_solv.prm

>  <Rbt.Receptor>
prm/blind_docking_60.prm

>  <SCORE>
9.45057

>  <SCORE.INTER>
-3.12763

>  <SCORE.INTER.CONST>
1

>  <SCORE.INTER.POLAR>
-0.361193

>  <SCORE.INTER.ROT>
9

>  <SCORE.INTER.SOLV>
27.7088

>  <SCORE.INTER.VDW>
-19.7174

>  <SCORE.INTER.norm>
-0.0744673

>  <SCORE.INTRA>
4.54904

>  <SCORE.INTRA.DIHEDRAL>
-0.428709

>  <SCORE.INTRA.DIHEDRAL.0>
21.6909

>  <SCORE.INTRA.POLAR>
0

>  <SCORE.INTRA.POLAR.0>
0

>  <SCORE.INTRA.REPUL>
0

>  <SCORE.INTRA.REPUL.0>
0

>  <SCORE.INTRA.SOLV>
3.78037

>  <SCORE.INTRA.SOLV.lig_0>
-116.606

>  <SCORE.INTRA.VDW>
2.87321

>  <SCORE.INTRA.VDW.0>
-6.01229

>  <SCORE.INTRA.norm>
0.10831

>  <SCORE.RESTR>
8.02916

>  <SCORE.RESTR.CAVITY>
8.02916

>  <SCORE.RESTR.norm>
0.19117

>  <SCORE.SYSTEM>
0

>  <SCORE.SYSTEM.CONST>
0

>  <SCORE.SYSTEM.DIHEDRAL>
0

>  <SCORE.SYSTEM.SOLV>
0

>  <SCORE.SYSTEM.norm>
0

>  <SCORE.heavy>
42

>  <SCORE.norm>
0.225014

>  <RMSD>
32.445

$$$$
2et4_lig
 OpenBabel11021811423D
libRbt.so/2013.1/901 2013/11/27
 42 45  0  0  0  0  0  0  0  0999 V2000
   -4.2028   35.6310   12.4678 C   0  0  2  0  0  0  0  0  0  0  0  0
   -3.8739   35.4944   13.8517 O   0  0  0  0  0  0  0  0  0  0  0  0
   -5.6442   35.0911   12.2851 C   0  0  2  0  0  0  0  0  0  0  0  0
   -6.5783   35.7915   13.1293 N   0  0  0  0  0  0  0  0  0  0  0  0
   -5.6611   33.5631   12.5790 C   0  0  1  0  0  0  0  0  0  0  0  0
   -6.9547   33.0774   12.3984 O   0  0  0  0  0  0  0  0  0  0  0  0
   -4.6291   32.8705   11.6276 C   0  0  2  0  0  0  0  0  0  0  0  0
   -4.6060   31.4790   11.8657 O   0  0  0  0  0  0  0  0  0  0  0  0
   -3.1992   33.4536   11.8409 C   0  0  2  0  0  0  0  0  0  0  0  0
   -3.2498   34.8654   11.6150 O   0  0  0  0  0  0  0  0  0  0  0  0
   -2.1479   32.8132   10.8765 C   0  0  0  0  0  0  0  0  0  0  0  0
   -2.0407   31.4071   11.0568 N   0  0  0  0  0  0  0  0  0  0  0  0
   -2.2900   39.3816   14.8690 C   0  0  2  0  0  0  0  0  0  0  0  0
   -1.8141   40.5122   15.6760 N   0  0  0  0  0  0  0  0  0  0  0  0
   -3.8349   39.0590   15.2452 C   0  0  0  0  0  0  0  0  0  0  0  0
   -4.3381   37.8302   14.3826 C   0  0  2  0  0  0  0  0  0  0  0  0
   -5.7326   37.4851   14.7111 N   0  0  0  0  0  0  0  0  0  0  0  0
   -3.4153   36.5936   14.6507 C   0  0  2  0  0  0  0  0  0  0  0  0
   -1.9250   36.9279   14.3114 C   0  0  2  0  0  0  0  0  0  0  0  0
   -1.1590   35.7339   14.6055 O   0  0  0  0  0  0  0  0  0  0  0  0
   -1.4418   38.1365   15.1757 C   0  0  1  0  0  0  0  0  0  0  0  0
   -0.1242   38.4186   14.8439 O   0  0  0  0  0  0  0  0  0  0  0  0
   -1.3484   34.9224   15.6741 C   0  0  1  0  0  0  0  0  0  0  0  0
   -0.1349   33.9782   15.8772 C   0  0  2  0  0  0  0  0  0  0  0  0
   -0.1967   32.8269   15.0861 O   0  0  0  0  0  0  0  0  0  0  0  0
   -0.1871   33.8303   17.3865 C   0  0  1  0  0  0  0  0  0  0  0  0
   -0.6056   35.1955   17.9504 C   0  0  2  0  0  0  0  0  0  0  0  0
   -1.5246   35.6125   16.9408 O   0  0  0  0  0  0  0  0  0  0  0  0
    0.5548   36.2299   18.1457 C   0  0  0  0  0  0  0  0  0  0  0  0
   -0.0494   37.4933   18.5301 O   0  0  0  0  0  0  0  0  0  0  0  0
   -1.1102   32.1492   18.9497 C   0  0  2  0  0  0  0  0  0  0  0  0
   -1.1861   32.7749   17.6980 O   0  0  0  0  0  0  0  0  0  0  0  0
   -0.1043   30.9175   18.9212 C   0  0  1  0  0  0  0  0  0  0  0  0
   -4.4947   29.2661   20.5001 N   0  0  0  0  0  0  0  0  0  0  0  0
   -0.1134   30.2632   20.4006 C   0  0  1  0  0  0  0  0  0  0  0  0
    0.3062   31.3314   21.3907 O   0  0  0  0  0  0  0  0  0  0  0  0
   -1.5987   29.7200   20.7543 C   0  0  2  0  0  0  0  0  0  0  0  0
   -1.9723   28.6957   19.8017 O   0  0  0  0  0  0  0  0  0  0  0  0
   -2.6060   31.0025   20.7371 C   0  0  1  0  0  0  0  0  0  0  0  0
   -2.5262   31.6824   19.3980 O   0  0  0  0  0  0  0  0  0  0  0  0
   -4.0907   30.5990   21.0439 C   0  0  0  0  0  0  0  0  0  0  0  0
   -0.5062   29.9506   17.8468 N   0  0  0  0  0  0  0  0  0  0  0  0
  1  2  1  1  0  0  0
  1  3  1  0  0  0  0
  1 10  1  0  0  0  0
  3  4  1  1  0  0  0
  3  5  1  0  0  0  0
  5  6  1  6  0  0  0
  5  7  1  0  0  0  0
  7  8  1  1  0  0  0
  7  9  1  0  0  0  0
  9 10  1  0  0  0  0
  9 11  1  6  0  0  0
 11 12  1  0  0  0  0
 13 14  1  1  0  0  0
 13 15  1  0  0  0  0
 13 21  1  0  0  0  0
 16 15  1  0  0  0  0
 16 17  1  1  0  0  0
 18  2  1  6  0  0  0
 18 16  1  0  0  0  0
 19 18  1  0  0  0  0
 19 20  1  1  0  0  0
 21 19  1  0  0  0  0
 21 22  1  6  0  0  0
 23 20  1  6  0  0  0
 23 24  1  0  0  0  0
 23 28  1  0  0  0  0
 24 25  1  6  0  0  0
 24 26  1  0  0  0  0
 26 27  1  0  0  0  0
 26 32  1  6  0  0  0
 27 28  1  0  0  0  0
 27 29  1  6  0  0  0
 29 30  1  0  0  0  0
 31 32  1  6  0  0  0
 31 40  1  0  0  0  0
 33 31  1  0  0  0  0
 33 42  1  6  0  0  0
 35 33  1  0  0  0  0
 35 36  1  1  0  0  0
 37 35  1  0  0  0  0
 37 38  1  6  0  0  0
 37 39  1  0  0  0  0
 39 40  1  0  0  0  0
 39 41  1  6  0  0  0
 41 34  1  0  0  0  0
M  END
>  <CHROM.1>
-125.82284743,-60.14298994,46.33047888,-40.23741894,-164.84861254,159.46013654
173.39554440,-86.57255141,-35.23980056,-2.42468469,34.12509729,15.89006826
2.09324409,-1.01202683,-0.44891251

>  <Name>
2et4_lig

>  <RI>
0

>  <Rbt.Current_Directory>
/home/itssahil/PROJECTS/Mol_Feturizer/New_Systems/rnas/2et4

>  <Rbt.Executable>
rbdock ($Id: //depot/dev/client3/rdock/2013.1/src/exe/rbdock.cxx#4 $)

>  <Rbt.Library>
libRbt.so (2013.1, Build901 2013/11/27)

>  <Rbt.Parameter_File>
/export/apps/rDock/src/rDock_2013.1_src/data/scripts/dock_solv.prm

>  <Rbt.Receptor>
prm/blind_docking_60.prm

>  <SCORE>
14.1855

>  <SCORE.INTER>
1.99386

>  <SCORE.INTER.CONST>
1

>  <SCORE.INTER.POLAR>
-0.0951516

>  <SCORE.INTER.ROT>
9

>  <SCORE.INTER.SOLV>
25.1061

>  <SCORE.INTER.VDW>
-16.3223

>  <SCORE.INTER.norm>
0.0474728

>  <SCORE.INTRA>
2.31855

>  <SCORE.INTRA.DIHEDRAL>
-3.8865

>  <SCORE.INTRA.DIHEDRAL.0>
21.6909

>  <SCORE.INTRA.POLAR>
0

>  <SCORE.INTRA.POLAR.0>
0

>  <SCORE.INTRA.REPUL>
0

>  <SCORE.INTRA.REPUL.0>
0

>  <SCORE.INTRA.SOLV>
2.51052

>  <SCORE.INTRA.SOLV.lig_0>
-116.606

>  <SCORE.INTRA.VDW>
3.00654

>  <SCORE.INTRA.VDW.0>
-6.01229

>  <SCORE.INTRA.norm>
0.0552036

>  <SCORE.RESTR>
9.8731

>  <SCORE.RESTR.CAVITY>
9.8731

>  <SCORE.RESTR.norm>
0.235074

>  <SCORE.SYSTEM>
0

>  <SCORE.SYSTEM.CONST>
0

>  <SCORE.SYSTEM.DIHEDRAL>
0

>  <SCORE.SYSTEM.SOLV>
0

>  <SCORE.SYSTEM.norm>
0

>  <SCORE.heavy>
42

>  <SCORE.norm>
0.33775

>  <RMSD>
32.453

$$$$
2et4_lig
 OpenBabel11021811423D
libRbt.so/2013.1/901 2013/11/27
 42 45  0  0  0  0  0  0  0  0999 V2000
    0.4983   31.6451   20.5918 C   0  0  2  0  0  0  0  0  0  0  0  0
   -0.0013   30.4255   20.0394 O   0  0  0  0  0  0  0  0  0  0  0  0
    1.9518   31.8164   20.0814 C   0  0  2  0  0  0  0  0  0  0  0  0
    2.0061   31.8188   18.6417 N   0  0  0  0  0  0  0  0  0  0  0  0
    2.8404   30.6844   20.6731 C   0  0  1  0  0  0  0  0  0  0  0  0
    4.1496   30.8502   20.2257 O   0  0  0  0  0  0  0  0  0  0  0  0
    2.7346   30.7445   22.2336 C   0  0  2  0  0  0  0  0  0  0  0  0
    3.5224   29.7266   22.8140 O   0  0  0  0  0  0  0  0  0  0  0  0
    1.2554   30.5784   22.6966 C   0  0  2  0  0  0  0  0  0  0  0  0
    0.4725   31.6058   22.0815 O   0  0  0  0  0  0  0  0  0  0  0  0
    1.1060   30.6749   24.2502 C   0  0  0  0  0  0  0  0  0  0  0  0
    1.4668   31.9577   24.7454 N   0  0  0  0  0  0  0  0  0  0  0  0
   -2.6918   29.0916   16.9351 C   0  0  2  0  0  0  0  0  0  0  0  0
   -3.8645   29.0335   16.0535 N   0  0  0  0  0  0  0  0  0  0  0  0
   -3.1664   28.9427   18.4794 C   0  0  0  0  0  0  0  0  0  0  0  0
   -1.8996   29.0206   19.4263 C   0  0  2  0  0  0  0  0  0  0  0  0
   -2.2878   28.9152   20.8440 N   0  0  0  0  0  0  0  0  0  0  0  0
   -1.1535   30.3765   19.1867 C   0  0  2  0  0  0  0  0  0  0  0  0
   -0.7275   30.5196   17.6881 C   0  0  2  0  0  0  0  0  0  0  0  0
   -0.0645   31.8024   17.5703 O   0  0  0  0  0  0  0  0  0  0  0  0
   -1.9886   30.4486   16.7683 C   0  0  1  0  0  0  0  0  0  0  0  0
   -1.5794   30.5639   15.4474 O   0  0  0  0  0  0  0  0  0  0  0  0
   -0.6033   32.9175   17.0202 C   0  0  1  0  0  0  0  0  0  0  0  0
   -1.6219   33.5772   17.9861 C   0  0  2  0  0  0  0  0  0  0  0  0
   -2.8984   33.0119   17.9075 O   0  0  0  0  0  0  0  0  0  0  0  0
   -1.4404   35.0287   17.5823 C   0  0  1  0  0  0  0  0  0  0  0  0
    0.0531   35.2213   17.2841 C   0  0  2  0  0  0  0  0  0  0  0  0
    0.3547   33.9590   16.6896 O   0  0  0  0  0  0  0  0  0  0  0  0
    0.9586   35.5103   18.5295 C   0  0  0  0  0  0  0  0  0  0  0  0
    0.1944   36.3471   19.4377 O   0  0  0  0  0  0  0  0  0  0  0  0
   -2.5944   36.5913   16.0500 C   0  0  2  0  0  0  0  0  0  0  0  0
   -2.2787   35.2659   16.3782 O   0  0  0  0  0  0  0  0  0  0  0  0
   -3.0206   36.7239   14.5234 C   0  0  1  0  0  0  0  0  0  0  0  0
   -0.4044   41.2621   16.3134 N   0  0  0  0  0  0  0  0  0  0  0  0
   -3.3384   38.2868   14.2535 C   0  0  1  0  0  0  0  0  0  0  0  0
   -4.4407   38.7140   15.2021 O   0  0  0  0  0  0  0  0  0  0  0  0
   -2.0047   39.1724   14.5051 C   0  0  2  0  0  0  0  0  0  0  0  0
   -0.9712   38.7525   13.5822 O   0  0  0  0  0  0  0  0  0  0  0  0
   -1.5779   38.9816   16.0676 C   0  0  1  0  0  0  0  0  0  0  0  0
   -1.3822   37.5188   16.3569 O   0  0  0  0  0  0  0  0  0  0  0  0
   -0.2757   39.7772   16.4317 C   0  0  0  0  0  0  0  0  0  0  0  0
   -1.9372   36.1816   13.6385 N   0  0  0  0  0  0  0  0  0  0  0  0
  1  2  1  6  0  0  0
  1  3  1  0  0  0  0
  1 10  1  0  0  0  0
  3  4  1  6  0  0  0
  3  5  1  0  0  0  0
  5  6  1  1  0  0  0
  5  7  1  0  0  0  0
  7  8  1  1  0  0  0
  7  9  1  0  0  0  0
  9 10  1  0  0  0  0
  9 11  1  1  0  0  0
 11 12  1  0  0  0  0
 13 14  1  6  0  0  0
 13 15  1  0  0  0  0
 13 21  1  0  0  0  0
 16 15  1  0  0  0  0
 16 17  1  1  0  0  0
 18  2  1  1  0  0  0
 18 16  1  0  0  0  0
 19 18  1  0  0  0  0
 19 20  1  1  0  0  0
 21 19  1  0  0  0  0
 21 22  1  6  0  0  0
 23 20  1  1  0  0  0
 23 24  1  0  0  0  0
 23 28  1  0  0  0  0
 24 25  1  6  0  0  0
 24 26  1  0  0  0  0
 26 27  1  0  0  0  0
 26 32  1  6  0  0  0
 27 28  1  0  0  0  0
 27 29  1  1  0  0  0
 29 30  1  0  0  0  0
 31 32  1  6  0  0  0
 31 40  1  0  0  0  0
 33 31  1  0  0  0  0
 33 42  1  6  0  0  0
 35 33  1  0  0  0  0
 35 36  1  1  0  0  0
 37 35  1  0  0  0  0
 37 38  1  6  0  0  0
 37 39  1  0  0  0  0
 39 40  1  0  0  0  0
 39 41  1  6  0  0  0
 41 34  1  0  0  0  0
M  END
>  <CHROM.1>
-120.00402710,63.92331111,-147.57225141,-104.17966210,76.13331649,161.47878738
-36.71681634,159.64111155,63.79443051,-0.61792885,33.44910752,18.16969858
-1.15317230,-0.82417250,-0.32752330

>  <Name>
2et4_lig

>  <RI>
0

>  <Rbt.Current_Directory>
/home/itssahil/PROJECTS/Mol_Feturizer/New_Systems/rnas/2et4

>  <Rbt.Executable>
rbdock ($Id: //depot/dev/client3/rdock/2013.1/src/exe/rbdock.cxx#4 $)

>  <Rbt.Library>
libRbt.so (2013.1, Build901 2013/11/27)

>  <Rbt.Parameter_File>
/export/apps/rDock/src/rDock_2013.1_src/data/scripts/dock_solv.prm

>  <Rbt.Receptor>
prm/blind_docking_100.prm

>  <SCORE>
39.8525

>  <SCORE.INTER>
11.477

>  <SCORE.INTER.CONST>
1

>  <SCORE.INTER.POLAR>
0

>  <SCORE.INTER.ROT>
9

>  <SCORE.INTER.SOLV>
23.9526

>  <SCORE.INTER.VDW>
-9.93286

>  <SCORE.INTER.norm>
0.273262

>  <SCORE.INTRA>
4.89243

>  <SCORE.INTRA.DIHEDRAL>
2.10352

>  <SCORE.INTRA.DIHEDRAL.0>
21.6909

>  <SCORE.INTRA.POLAR>
0

>  <SCORE.INTRA.POLAR.0>
0

>  <SCORE.INTRA.REPUL>
0

>  <SCORE.INTRA.REPUL.0>
0

>  <SCORE.INTRA.SOLV>
1.88485

>  <SCORE.INTRA.SOLV.lig_0>
-116.606

>  <SCORE.INTRA.VDW>
2.89825

>  <SCORE.INTRA.VDW.0>
-6.01229

>  <SCORE.INTRA.norm>
0.116487

>  <SCORE.RESTR>
23.483

>  <SCORE.RESTR.CAVITY>
23.483

>  <SCORE.RESTR.norm>
0.55912

>  <SCORE.SYSTEM>
0

>  <SCORE.SYSTEM.CONST>
0

>  <SCORE.SYSTEM.DIHEDRAL>
0

>  <SCORE.SYSTEM.SOLV>
0

>  <SCORE.SYSTEM.norm>
0

>  <SCORE.heavy>
42

>  <SCORE.norm>
0.948869

>  <RMSD>
32.477

$$$$
2et4_lig
 OpenBabel11021811423D
libRbt.so/2013.1/901 2013/11/27
 42 45  0  0  0  0  0  0  0  0999 V2000
   -2.5970   34.9335   14.3583 C   0  0  2  0  0  0  0  0  0  0  0  0
   -1.8498   36.1281   14.1198 O   0  0  0  0  0  0  0  0  0  0  0  0
   -2.7707   34.2227   12.9918 C   0  0  2  0  0  0  0  0  0  0  0  0
   -1.4969   33.9443   12.3789 N   0  0  0  0  0  0  0  0  0  0  0  0
   -3.6576   35.1028   12.0645 C   0  0  1  0  0  0  0  0  0  0  0  0
   -3.8255   34.4541   10.8427 O   0  0  0  0  0  0  0  0  0  0  0  0
   -5.0196   35.3610   12.7912 C   0  0  2  0  0  0  0  0  0  0  0  0
   -5.8558   36.1646   11.9858 O   0  0  0  0  0  0  0  0  0  0  0  0
   -4.7922   36.0665   14.1625 C   0  0  2  0  0  0  0  0  0  0  0  0
   -3.9272   35.2463   14.9535 O   0  0  0  0  0  0  0  0  0  0  0  0
   -6.1302   36.3034   14.9365 C   0  0  0  0  0  0  0  0  0  0  0  0
   -6.7716   37.5096   14.5430 N   0  0  0  0  0  0  0  0  0  0  0  0
   -0.0884   39.5374   16.1020 C   0  0  2  0  0  0  0  0  0  0  0  0
    0.2647   40.4891   17.1628 N   0  0  0  0  0  0  0  0  0  0  0  0
   -1.7000   39.5036   15.9181 C   0  0  0  0  0  0  0  0  0  0  0  0
   -2.0758   38.4653   14.7833 C   0  0  2  0  0  0  0  0  0  0  0  0
   -3.5357   38.3829   14.5997 N   0  0  0  0  0  0  0  0  0  0  0  0
   -1.5151   37.0533   15.1634 C   0  0  2  0  0  0  0  0  0  0  0  0
    0.0353   37.1068   15.3660 C   0  0  2  0  0  0  0  0  0  0  0  0
    0.4490   35.7658   15.7262 O   0  0  0  0  0  0  0  0  0  0  0  0
    0.3887   38.1292   16.4934 C   0  0  1  0  0  0  0  0  0  0  0  0
    1.7680   38.1656   16.6409 O   0  0  0  0  0  0  0  0  0  0  0  0
   -0.0874   35.0190   16.7216 C   0  0  1  0  0  0  0  0  0  0  0  0
   -0.0274   33.5080   16.3771 C   0  0  2  0  0  0  0  0  0  0  0  0
   -1.0969   33.0831   15.5830 O   0  0  0  0  0  0  0  0  0  0  0  0
    0.1123   32.9409   17.7777 C   0  0  1  0  0  0  0  0  0  0  0  0
    1.0079   33.9114   18.5605 C   0  0  2  0  0  0  0  0  0  0  0  0
    0.5724   35.1541   18.0093 O   0  0  0  0  0  0  0  0  0  0  0  0
    2.5500   33.7020   18.3799 C   0  0  0  0  0  0  0  0  0  0  0  0
    2.8477   32.3280   18.7442 O   0  0  0  0  0  0  0  0  0  0  0  0
   -1.4569   31.9516   19.4149 C   0  0  2  0  0  0  0  0  0  0  0  0
   -1.2512   32.8543   18.3628 O   0  0  0  0  0  0  0  0  0  0  0  0
   -0.9055   30.5045   19.0524 C   0  0  1  0  0  0  0  0  0  0  0  0
   -5.4563   32.3798   21.3104 N   0  0  0  0  0  0  0  0  0  0  0  0
   -1.2143   29.5478   20.3198 C   0  0  1  0  0  0  0  0  0  0  0  0
   -0.5302   30.1409   21.5354 O   0  0  0  0  0  0  0  0  0  0  0  0
   -2.8137   29.4543   20.5635 C   0  0  2  0  0  0  0  0  0  0  0  0
   -3.4424   28.8770   19.3941 O   0  0  0  0  0  0  0  0  0  0  0  0
   -3.3473   30.9595   20.8946 C   0  0  1  0  0  0  0  0  0  0  0  0
   -2.9717   31.8818   19.7676 O   0  0  0  0  0  0  0  0  0  0  0  0
   -4.8980   31.0048   21.1281 C   0  0  0  0  0  0  0  0  0  0  0  0
   -1.5350   30.0186   17.7802 N   0  0  0  0  0  0  0  0  0  0  0  0
  1  2  1  6  0  0  0
  1  3  1  0  0  0  0
  1 10  1  0  0  0  0
  3  4  1  6  0  0  0
  3  5  1  0  0  0  0
  5  6  1  6  0  0  0
  5  7  1  0  0  0  0
  7  8  1  6  0  0  0
  7  9  1  0  0  0  0
  9 10  1  0  0  0  0
  9 11  1  1  0  0  0
 11 12  1  0  0  0  0
 13 14  1  1  0  0  0
 13 15  1  0  0  0  0
 13 21  1  0  0  0  0
 16 15  1  0  0  0  0
 16 17  1  1  0  0  0
 18  2  1  6  0  0  0
 18 16  1  0  0  0  0
 19 18  1  0  0  0  0
 19 20  1  1  0  0  0
 21 19  1  0  0  0  0
 21 22  1  6  0  0  0
 23 20  1  6  0  0  0
 23 24  1  0  0  0  0
 23 28  1  0  0  0  0
 24 25  1  1  0  0  0
 24 26  1  0  0  0  0
 26 27  1  0  0  0  0
 26 32  1  1  0  0  0
 27 28  1  0  0  0  0
 27 29  1  6  0  0  0
 29 30  1  0  0  0  0
 31 32  1  6  0  0  0
 31 40  1  0  0  0  0
 33 31  1  0  0  0  0
 33 42  1  6  0  0  0
 35 33  1  0  0  0  0
 35 36  1  1  0  0  0
 37 35  1  0  0  0  0
 37 38  1  6  0  0  0
 37 39  1  0  0  0  0
 39 40  1  0  0  0  0
 39 41  1  6  0  0  0
 41 34  1  0  0  0  0
M  END
>  <CHROM.1>
179.05661050,-85.42090661,-122.94385317,-52.06884307,148.67040307,157.61621377
-56.15470748,-50.37097613,-174.63286666,-1.86302606,34.43432246,16.61527401
1.71987216,-0.48262245,-0.68722609

>  <Name>
2et4_lig

>  <RI>
0

>  <Rbt.Current_Directory>
/home/itssahil/PROJECTS/Mol_Feturizer/New_Systems/rnas/2et4

>  <Rbt.Executable>
rbdock ($Id: //depot/dev/client3/rdock/2013.1/src/exe/rbdock.cxx#4 $)

>  <Rbt.Library>
libRbt.so (2013.1, Build901 2013/11/27)

>  <Rbt.Parameter_File>
/export/apps/rDock/src/rDock_2013.1_src/data/scripts/dock_solv.prm

>  <Rbt.Receptor>
prm/blind_docking_60.prm

>  <SCORE>
10.3943

>  <SCORE.INTER>
0.328187

>  <SCORE.INTER.CONST>
1

>  <SCORE.INTER.POLAR>
-0.635794

>  <SCORE.INTER.ROT>
9

>  <SCORE.INTER.SOLV>
26.2338

>  <SCORE.INTER.VDW>
-16.0065

>  <SCORE.INTER.norm>
0.00781399

>  <SCORE.INTRA>
0.660459

>  <SCORE.INTRA.DIHEDRAL>
-5.43395

>  <SCORE.INTRA.DIHEDRAL.0>
21.6909

>  <SCORE.INTRA.POLAR>
0

>  <SCORE.INTRA.POLAR.0>
0

>  <SCORE.INTRA.REPUL>
0

>  <SCORE.INTRA.REPUL.0>
0

>  <SCORE.INTRA.SOLV>
2.48206

>  <SCORE.INTRA.SOLV.lig_0>
-116.606

>  <SCORE.INTRA.VDW>
2.1364

>  <SCORE.INTRA.VDW.0>
-6.01229

>  <SCORE.INTRA.norm>
0.0157252

>  <SCORE.RESTR>
9.40563

>  <SCORE.RESTR.CAVITY>
9.40563

>  <SCORE.RESTR.norm>
0.223943

>  <SCORE.SYSTEM>
0

>  <SCORE.SYSTEM.CONST>
0

>  <SCORE.SYSTEM.DIHEDRAL>
0

>  <SCORE.SYSTEM.SOLV>
0

>  <SCORE.SYSTEM.norm>
0

>  <SCORE.heavy>
42

>  <SCORE.norm>
0.247483

>  <RMSD>
32.578

$$$$
2et4_lig
 OpenBabel11021811423D
libRbt.so/2013.1/901 2013/11/27
 42 45  0  0  0  0  0  0  0  0999 V2000
    0.1931   31.7945   18.0176 C   0  0  2  0  0  0  0  0  0  0  0  0
   -0.1294   30.5688   17.3574 O   0  0  0  0  0  0  0  0  0  0  0  0
    1.5079   31.5579   18.8037 C   0  0  2  0  0  0  0  0  0  0  0  0
    2.5699   31.1234   17.9324 N   0  0  0  0  0  0  0  0  0  0  0  0
    1.2507   30.5194   19.9336 C   0  0  1  0  0  0  0  0  0  0  0  0
    2.4300   30.3207   20.6487 O   0  0  0  0  0  0  0  0  0  0  0  0
    0.0918   31.0572   20.8379 C   0  0  2  0  0  0  0  0  0  0  0  0
   -0.1808   30.1397   21.8758 O   0  0  0  0  0  0  0  0  0  0  0  0
   -1.2031   31.2889   20.0016 C   0  0  2  0  0  0  0  0  0  0  0  0
   -0.8995   32.2043   18.9449 O   0  0  0  0  0  0  0  0  0  0  0  0
   -2.3716   31.8663   20.8658 C   0  0  0  0  0  0  0  0  0  0  0  0
   -3.5767   31.9935   20.1224 N   0  0  0  0  0  0  0  0  0  0  0  0
   -1.3127   30.3518   13.2092 C   0  0  2  0  0  0  0  0  0  0  0  0
   -2.1679   30.2972   12.0169 N   0  0  0  0  0  0  0  0  0  0  0  0
   -1.6374   29.0840   14.1681 C   0  0  0  0  0  0  0  0  0  0  0  0
   -0.7228   29.1559   15.4587 C   0  0  2  0  0  0  0  0  0  0  0  0
   -1.0032   28.0344   16.3726 N   0  0  0  0  0  0  0  0  0  0  0  0
   -0.9752   30.5119   16.2004 C   0  0  2  0  0  0  0  0  0  0  0  0
   -0.6861   31.7248   15.2554 C   0  0  2  0  0  0  0  0  0  0  0  0
   -0.9618   32.9205   16.0258 O   0  0  0  0  0  0  0  0  0  0  0  0
   -1.6014   31.6434   13.9916 C   0  0  1  0  0  0  0  0  0  0  0  0
   -1.3136   32.7217   13.1671 O   0  0  0  0  0  0  0  0  0  0  0  0
   -0.5800   34.1766   15.6902 C   0  0  1  0  0  0  0  0  0  0  0  0
   -1.7092   35.1982   15.9848 C   0  0  2  0  0  0  0  0  0  0  0  0
   -2.6500   35.2889   14.9544 O   0  0  0  0  0  0  0  0  0  0  0  0
   -0.8626   36.4151   16.3093 C   0  0  1  0  0  0  0  0  0  0  0  0
    0.3672   35.9068   17.0749 C   0  0  2  0  0  0  0  0  0  0  0  0
    0.5891   34.6691   16.3991 O   0  0  0  0  0  0  0  0  0  0  0  0
    0.1667   35.7021   18.6152 C   0  0  0  0  0  0  0  0  0  0  0  0
    1.3042   34.9432   19.1045 O   0  0  0  0  0  0  0  0  0  0  0  0
   -0.7542   38.4202   14.8639 C   0  0  2  0  0  0  0  0  0  0  0  0
   -0.4857   37.0538   15.0214 O   0  0  0  0  0  0  0  0  0  0  0  0
   -0.0923   39.2783   16.0281 C   0  0  1  0  0  0  0  0  0  0  0  0
   -4.9705   38.9306   14.0796 N   0  0  0  0  0  0  0  0  0  0  0  0
   -0.4832   40.8247   15.7587 C   0  0  1  0  0  0  0  0  0  0  0  0
    0.0359   41.2099   14.3878 O   0  0  0  0  0  0  0  0  0  0  0  0
   -2.0924   41.0060   15.8227 C   0  0  2  0  0  0  0  0  0  0  0  0
   -2.5622   40.6415   17.1428 O   0  0  0  0  0  0  0  0  0  0  0  0
   -2.7363   40.0843   14.6414 C   0  0  1  0  0  0  0  0  0  0  0  0
   -2.2922   38.6588   14.8219 O   0  0  0  0  0  0  0  0  0  0  0  0
   -4.3033   40.1566   14.6155 C   0  0  0  0  0  0  0  0  0  0  0  0
   -0.5569   38.7771   17.3637 N   0  0  0  0  0  0  0  0  0  0  0  0
  1  2  1  1  0  0  0
  1  3  1  0  0  0  0
  1 10  1  0  0  0  0
  3  4  1  6  0  0  0
  3  5  1  0  0  0  0
  5  6  1  1  0  0  0
  5  7  1  0  0  0  0
  7  8  1  1  0  0  0
  7  9  1  0  0  0  0
  9 10  1  0  0  0  0
  9 11  1  1  0  0  0
 11 12  1  0  0  0  0
 13 14  1  6  0  0  0
 13 15  1  0  0  0  0
 13 21  1  0  0  0  0
 16 15  1  0  0  0  0
 16 17  1  1  0  0  0
 18  2  1  1  0  0  0
 18 16  1  0  0  0  0
 19 18  1  0  0  0  0
 19 20  1  1  0  0  0
 21 19  1  0  0  0  0
 21 22  1  6  0  0  0
 23 20  1  1  0  0  0
 23 24  1  0  0  0  0
 23 28  1  0  0  0  0
 24 25  1  6  0  0  0
 24 26  1  0  0  0  0
 26 27  1  0  0  0  0
 26 32  1  6  0  0  0
 27 28  1  0  0  0  0
 27 29  1  1  0  0  0
 29 30  1  0  0  0  0
 31 32  1  1  0  0  0
 31 40  1  0  0  0  0
 33 31  1  0  0  0  0
 33 42  1  1  0  0  0
 35 33  1  0  0  0  0
 35 36  1  6  0  0  0
 37 35  1  0  0  0  0
 37 38  1  1  0  0  0
 37 39  1  0  0  0  0
 39 40  1  0  0  0  0
 39 41  1  1  0  0  0
 41 34  1  0  0  0  0
M  END
>  <CHROM.1>
-157.67500652,-176.09789972,160.54076792,165.33966281,139.14229054,127.24781869
167.15589623,55.42301627,-151.78139110,-0.88243222,34.26356429,16.67935036
-1.06528053,-1.22020474,0.18976287

>  <Name>
2et4_lig

>  <RI>
0

>  <Rbt.Current_Directory>
/home/itssahil/PROJECTS/Mol_Feturizer/New_Systems/rnas/2et4

>  <Rbt.Executable>
rbdock ($Id: //depot/dev/client3/rdock/2013.1/src/exe/rbdock.cxx#4 $)

>  <Rbt.Library>
libRbt.so (2013.1, Build901 2013/11/27)

>  <Rbt.Parameter_File>
/export/apps/rDock/src/rDock_2013.1_src/data/scripts/dock_solv.prm

>  <Rbt.Receptor>
prm/blind_docking_60.prm

>  <SCORE>
13.2046

>  <SCORE.INTER>
-5.77483

>  <SCORE.INTER.CONST>
1

>  <SCORE.INTER.POLAR>
-1.44589

>  <SCORE.INTER.ROT>
9

>  <SCORE.INTER.SOLV>
28.835

>  <SCORE.INTER.VDW>
-18.2419

>  <SCORE.INTER.norm>
-0.137496

>  <SCORE.INTRA>
1.98555

>  <SCORE.INTRA.DIHEDRAL>
-1.07966

>  <SCORE.INTRA.DIHEDRAL.0>
21.6909

>  <SCORE.INTRA.POLAR>
0

>  <SCORE.INTRA.POLAR.0>
0

>  <SCORE.INTRA.REPUL>
0

>  <SCORE.INTRA.REPUL.0>
0

>  <SCORE.INTRA.SOLV>
-1.24268

>  <SCORE.INTRA.SOLV.lig_0>
-116.606

>  <SCORE.INTRA.VDW>
3.14672

>  <SCORE.INTRA.VDW.0>
-6.01229

>  <SCORE.INTRA.norm>
0.047275

>  <SCORE.RESTR>
16.9939

>  <SCORE.RESTR.CAVITY>
16.9939

>  <SCORE.RESTR.norm>
0.404616

>  <SCORE.SYSTEM>
0

>  <SCORE.SYSTEM.CONST>
0

>  <SCORE.SYSTEM.DIHEDRAL>
0

>  <SCORE.SYSTEM.SOLV>
0

>  <SCORE.SYSTEM.norm>
0

>  <SCORE.heavy>
42

>  <SCORE.norm>
0.314395

>  <RMSD>
32.670

$$$$
2et4_lig
 OpenBabel11021811423D
libRbt.so/2013.1/901 2013/11/27
 42 45  0  0  0  0  0  0  0  0999 V2000
   -0.9898   29.4144   17.4943 C   0  0  2  0  0  0  0  0  0  0  0  0
   -2.1462   30.1879   17.8209 O   0  0  0  0  0  0  0  0  0  0  0  0
    0.2184   30.3851   17.4735 C   0  0  2  0  0  0  0  0  0  0  0  0
    0.3678   31.0651   18.7348 N   0  0  0  0  0  0  0  0  0  0  0  0
    0.0411   31.4005   16.3078 C   0  0  1  0  0  0  0  0  0  0  0  0
    1.1364   32.2615   16.2813 O   0  0  0  0  0  0  0  0  0  0  0  0
   -0.1117   30.5938   14.9752 C   0  0  2  0  0  0  0  0  0  0  0  0
   -0.2829   31.4784   13.8882 O   0  0  0  0  0  0  0  0  0  0  0  0
   -1.3314   29.6259   15.0490 C   0  0  2  0  0  0  0  0  0  0  0  0
   -1.1476   28.7534   16.1678 O   0  0  0  0  0  0  0  0  0  0  0  0
   -1.4904   28.7722   13.7484 C   0  0  0  0  0  0  0  0  0  0  0  0
   -0.2570   28.2074   13.3231 N   0  0  0  0  0  0  0  0  0  0  0  0
   -4.1969   32.0992   21.1067 C   0  0  2  0  0  0  0  0  0  0  0  0
   -4.4906   32.5710   22.4656 N   0  0  0  0  0  0  0  0  0  0  0  0
   -4.0882   30.4804   21.1062 C   0  0  0  0  0  0  0  0  0  0  0  0
   -3.7572   29.9783   19.6414 C   0  0  2  0  0  0  0  0  0  0  0  0
   -3.6237   28.5114   19.5993 N   0  0  0  0  0  0  0  0  0  0  0  0
   -2.4243   30.6399   19.1533 C   0  0  2  0  0  0  0  0  0  0  0  0
   -2.5333   32.2003   19.1865 C   0  0  2  0  0  0  0  0  0  0  0  0
   -1.2549   32.7111   18.7350 O   0  0  0  0  0  0  0  0  0  0  0  0
   -2.8523   32.6797   20.6390 C   0  0  1  0  0  0  0  0  0  0  0  0
   -2.9569   34.0634   20.6350 O   0  0  0  0  0  0  0  0  0  0  0  0
   -1.0122   33.9852   18.3426 C   0  0  1  0  0  0  0  0  0  0  0  0
    0.4726   34.1675   17.9331 C   0  0  2  0  0  0  0  0  0  0  0  0
    1.3146   34.4209   19.0202 O   0  0  0  0  0  0  0  0  0  0  0  0
    0.3063   35.2405   16.8730 C   0  0  1  0  0  0  0  0  0  0  0  0
   -0.9947   34.9228   16.1225 C   0  0  2  0  0  0  0  0  0  0  0  0
   -1.7916   34.4307   17.1998 O   0  0  0  0  0  0  0  0  0  0  0  0
   -0.8678   33.8745   14.9651 C   0  0  0  0  0  0  0  0  0  0  0  0
   -2.1445   33.8335   14.2740 O   0  0  0  0  0  0  0  0  0  0  0  0
   -0.4909   37.5812   16.9578 C   0  0  2  0  0  0  0  0  0  0  0  0
    0.2350   36.5508   17.5706 O   0  0  0  0  0  0  0  0  0  0  0  0
    0.3262   38.2303   15.7574 C   0  0  1  0  0  0  0  0  0  0  0  0
   -0.7554   41.5460   19.1993 N   0  0  0  0  0  0  0  0  0  0  0  0
   -0.5914   39.4127   15.1436 C   0  0  1  0  0  0  0  0  0  0  0  0
   -1.9030   38.8037   14.6895 O   0  0  0  0  0  0  0  0  0  0  0  0
   -0.8574   40.5461   16.2710 C   0  0  2  0  0  0  0  0  0  0  0  0
    0.4076   41.1184   16.6811 O   0  0  0  0  0  0  0  0  0  0  0  0
   -1.6620   39.8357   17.4990 C   0  0  1  0  0  0  0  0  0  0  0  0
   -0.8644   38.6671   18.0090 O   0  0  0  0  0  0  0  0  0  0  0  0
   -1.9596   40.8328   18.6731 C   0  0  0  0  0  0  0  0  0  0  0  0
    1.6602   38.7127   16.2455 N   0  0  0  0  0  0  0  0  0  0  0  0
  1  2  1  6  0  0  0
  1  3  1  0  0  0  0
  1 10  1  0  0  0  0
  3  4  1  1  0  0  0
  3  5  1  0  0  0  0
  5  6  1  6  0  0  0
  5  7  1  0  0  0  0
  7  8  1  6  0  0  0
  7  9  1  0  0  0  0
  9 10  1  0  0  0  0
  9 11  1  6  0  0  0
 11 12  1  0  0  0  0
 13 14  1  1  0  0  0
 13 15  1  0  0  0  0
 13 21  1  0  0  0  0
 16 15  1  0  0  0  0
 16 17  1  1  0  0  0
 18  2  1  6  0  0  0
 18 16  1  0  0  0  0
 19 18  1  0  0  0  0
 19 20  1  1  0  0  0
 21 19  1  0  0  0  0
 21 22  1  6  0  0  0
 23 20  1  6  0  0  0
 23 24  1  0  0  0  0
 23 28  1  0  0  0  0
 24 25  1  1  0  0  0
 24 26  1  0  0  0  0
 26 27  1  0  0  0  0
 26 32  1  1  0  0  0
 27 28  1  0  0  0  0
 27 29  1  6  0  0  0
 29 30  1  0  0  0  0
 31 32  1  1  0  0  0
 31 40  1  0  0  0  0
 33 31  1  0  0  0  0
 33 42  1  1  0  0  0
 35 33  1  0  0  0  0
 35 36  1  1  0  0  0
 37 35  1  0  0  0  0
 37 38  1  1  0  0  0
 37 39  1  0  0  0  0
 39 40  1  0  0  0  0
 39 41  1  1  0  0  0
 41 34  1  0  0  0  0
M  END
>  <CHROM.1>
-76.12555269,46.53729532,-116.66603033,165.00481576,179.70826801,-151.59001447
-172.93815985,-76.70185772,-53.78638015,-1.16182109,33.94725579,17.38402915
-1.85600064,1.10082354,0.20993312

>  <Name>
2et4_lig

>  <RI>
0

>  <Rbt.Current_Directory>
/home/itssahil/PROJECTS/Mol_Feturizer/New_Systems/rnas/2et4

>  <Rbt.Executable>
rbdock ($Id: //depot/dev/client3/rdock/2013.1/src/exe/rbdock.cxx#4 $)

>  <Rbt.Library>
libRbt.so (2013.1, Build901 2013/11/27)

>  <Rbt.Parameter_File>
/export/apps/rDock/src/rDock_2013.1_src/data/scripts/dock_solv.prm

>  <Rbt.Receptor>
prm/blind_docking_80.prm

>  <SCORE>
29.8267

>  <SCORE.INTER>
6.25063

>  <SCORE.INTER.CONST>
1

>  <SCORE.INTER.POLAR>
-0.484545

>  <SCORE.INTER.ROT>
9

>  <SCORE.INTER.SOLV>
22.4701

>  <SCORE.INTER.VDW>
-11.3078

>  <SCORE.INTER.norm>
0.148825

>  <SCORE.INTRA>
4.29205

>  <SCORE.INTRA.DIHEDRAL>
-6.65279

>  <SCORE.INTRA.DIHEDRAL.0>
21.6909

>  <SCORE.INTRA.POLAR>
0

>  <SCORE.INTRA.POLAR.0>
0

>  <SCORE.INTRA.REPUL>
0

>  <SCORE.INTRA.REPUL.0>
0

>  <SCORE.INTRA.SOLV>
5.15264

>  <SCORE.INTRA.SOLV.lig_0>
-116.606

>  <SCORE.INTRA.VDW>
5.04212

>  <SCORE.INTRA.VDW.0>
-6.01229

>  <SCORE.INTRA.norm>
0.102192

>  <SCORE.RESTR>
19.284

>  <SCORE.RESTR.CAVITY>
19.284

>  <SCORE.RESTR.norm>
0.459144

>  <SCORE.SYSTEM>
0

>  <SCORE.SYSTEM.CONST>
0

>  <SCORE.SYSTEM.DIHEDRAL>
0

>  <SCORE.SYSTEM.SOLV>
0

>  <SCORE.SYSTEM.norm>
0

>  <SCORE.heavy>
42

>  <SCORE.norm>
0.71016

>  <RMSD>
32.700

$$$$
2et4_lig
 OpenBabel11021811423D
libRbt.so/2013.1/901 2013/11/27
 42 45  0  0  0  0  0  0  0  0999 V2000
   -0.5669   37.2518   15.6796 C   0  0  2  0  0  0  0  0  0  0  0  0
   -1.9929   37.1809   15.6199 O   0  0  0  0  0  0  0  0  0  0  0  0
   -0.1719   37.2570   17.1785 C   0  0  2  0  0  0  0  0  0  0  0  0
   -0.6792   36.0930   17.8593 N   0  0  0  0  0  0  0  0  0  0  0  0
   -0.6924   38.5647   17.8420 C   0  0  1  0  0  0  0  0  0  0  0  0
   -0.3220   38.5742   19.1853 O   0  0  0  0  0  0  0  0  0  0  0  0
   -0.1011   39.7815   17.0549 C   0  0  2  0  0  0  0  0  0  0  0  0
   -0.5547   40.9931   17.6203 O   0  0  0  0  0  0  0  0  0  0  0  0
   -0.5164   39.7262   15.5534 C   0  0  2  0  0  0  0  0  0  0  0  0
   -0.0655   38.4835   15.0065 O   0  0  0  0  0  0  0  0  0  0  0  0
    0.0916   40.9059   14.7262 C   0  0  0  0  0  0  0  0  0  0  0  0
   -0.4170   40.9490   13.3993 N   0  0  0  0  0  0  0  0  0  0  0  0
   -4.9567   35.2165   13.1680 C   0  0  2  0  0  0  0  0  0  0  0  0
   -5.6848   34.7641   11.9760 N   0  0  0  0  0  0  0  0  0  0  0  0
   -4.9541   36.8381   13.2190 C   0  0  0  0  0  0  0  0  0  0  0  0
   -4.1554   37.3203   14.4984 C   0  0  2  0  0  0  0  0  0  0  0  0
   -4.1056   38.7913   14.5713 N   0  0  0  0  0  0  0  0  0  0  0  0
   -2.6982   36.7486   14.4483 C   0  0  2  0  0  0  0  0  0  0  0  0
   -2.7163   35.1861   14.3701 C   0  0  2  0  0  0  0  0  0  0  0  0
   -1.3323   34.7617   14.3133 O   0  0  0  0  0  0  0  0  0  0  0  0
   -3.5008   34.7271   13.0991 C   0  0  1  0  0  0  0  0  0  0  0  0
   -3.5123   33.3399   13.0637 O   0  0  0  0  0  0  0  0  0  0  0  0
   -0.6718   34.1024   15.2958 C   0  0  1  0  0  0  0  0  0  0  0  0
   -1.6653   33.4389   16.2849 C   0  0  2  0  0  0  0  0  0  0  0  0
   -2.1176   34.3131   17.2779 O   0  0  0  0  0  0  0  0  0  0  0  0
   -0.8382   32.2343   16.6945 C   0  0  1  0  0  0  0  0  0  0  0  0
   -0.0823   31.7702   15.4415 C   0  0  2  0  0  0  0  0  0  0  0  0
    0.1968   33.0322   14.8356 O   0  0  0  0  0  0  0  0  0  0  0  0
   -0.8828   30.8265   14.4807 C   0  0  0  0  0  0  0  0  0  0  0  0
   -1.0743   29.5637   15.1719 O   0  0  0  0  0  0  0  0  0  0  0  0
   -0.0399   32.0812   19.0313 C   0  0  2  0  0  0  0  0  0  0  0  0
    0.0906   32.6740   17.7681 O   0  0  0  0  0  0  0  0  0  0  0  0
    0.4787   30.5776   19.0217 C   0  0  1  0  0  0  0  0  0  0  0  0
   -3.8376   33.1007   21.2519 N   0  0  0  0  0  0  0  0  0  0  0  0
    0.2611   29.9912   20.5135 C   0  0  1  0  0  0  0  0  0  0  0  0
    1.0348   30.8649   21.4807 O   0  0  0  0  0  0  0  0  0  0  0  0
   -1.3164   30.0001   20.8850 C   0  0  2  0  0  0  0  0  0  0  0  0
   -2.0313   29.1523   19.9543 O   0  0  0  0  0  0  0  0  0  0  0  0
   -1.8193   31.5511   20.8480 C   0  0  1  0  0  0  0  0  0  0  0  0
   -1.5248   32.1395   19.4956 O   0  0  0  0  0  0  0  0  0  0  0  0
   -3.3484   31.6902   21.1699 C   0  0  0  0  0  0  0  0  0  0  0  0
   -0.2444   29.7915   17.9682 N   0  0  0  0  0  0  0  0  0  0  0  0
  1  2  1  1  0  0  0
  1  3  1  0  0  0  0
  1 10  1  0  0  0  0
  3  4  1  1  0  0  0
  3  5  1  0  0  0  0
  5  6  1  1  0  0  0
  5  7  1  0  0  0  0
  7  8  1  1  0  0  0
  7  9  1  0  0  0  0
  9 10  1  0  0  0  0
  9 11  1  6  0  0  0
 11 12  1  0  0  0  0
 13 14  1  6  0  0  0
 13 15  1  0  0  0  0
 13 21  1  0  0  0  0
 16 15  1  0  0  0  0
 16 17  1  6  0  0  0
 18  2  1  1  0  0  0
 18 16  1  0  0  0  0
 19 18  1  0  0  0  0
 19 20  1  6  0  0  0
 21 19  1  0  0  0  0
 21 22  1  1  0  0  0
 23 20  1  6  0  0  0
 23 24  1  0  0  0  0
 23 28  1  0  0  0  0
 24 25  1  1  0  0  0
 24 26  1  0  0  0  0
 26 27  1  0  0  0  0
 26 32  1  1  0  0  0
 27 28  1  0  0  0  0
 27 29  1  6  0  0  0
 29 30  1  0  0  0  0
 31 32  1  6  0  0  0
 31 40  1  0  0  0  0
 33 31  1  0  0  0  0
 33 42  1  6  0  0  0
 35 33  1  0  0  0  0
 35 36  1  1  0  0  0
 37 35  1  0  0  0  0
 37 38  1  6  0  0  0
 37 39  1  0  0  0  0
 39 40  1  0  0  0  0
 39 41  1  6  0  0  0
 41 34  1  0  0  0  0
M  END
>  <CHROM.1>
-160.25851392,-172.78859240,-157.32600876,110.96960100,18.98373833,117.37305399
-68.21780301,72.27856994,175.54502614,-1.48444673,34.65811968,16.64053179
-1.78601986,1.11842704,2.82882819

>  <Name>
2et4_lig

>  <RI>
0

>  <Rbt.Current_Directory>
/home/itssahil/PROJECTS/Mol_Feturizer/New_Systems/rnas/2et4

>  <Rbt.Executable>
rbdock ($Id: //depot/dev/client3/rdock/2013.1/src/exe/rbdock.cxx#4 $)

>  <Rbt.Library>
libRbt.so (2013.1, Build901 2013/11/27)

>  <Rbt.Parameter_File>
/export/apps/rDock/src/rDock_2013.1_src/data/scripts/dock_solv.prm

>  <Rbt.Receptor>
prm/blind_docking_60.prm

>  <SCORE>
9.84645

>  <SCORE.INTER>
-7.84029

>  <SCORE.INTER.CONST>
1

>  <SCORE.INTER.POLAR>
-0.886703

>  <SCORE.INTER.ROT>
9

>  <SCORE.INTER.SOLV>
26.6738

>  <SCORE.INTER.VDW>
-20.7624

>  <SCORE.INTER.norm>
-0.186674

>  <SCORE.INTRA>
5.28474

>  <SCORE.INTRA.DIHEDRAL>
3.18126

>  <SCORE.INTRA.DIHEDRAL.0>
21.6909

>  <SCORE.INTRA.POLAR>
0

>  <SCORE.INTRA.POLAR.0>
0

>  <SCORE.INTRA.REPUL>
0.016767

>  <SCORE.INTRA.REPUL.0>
0

>  <SCORE.INTRA.SOLV>
2.77627

>  <SCORE.INTRA.SOLV.lig_0>
-116.606

>  <SCORE.INTRA.VDW>
2.22214

>  <SCORE.INTRA.VDW.0>
-6.01229

>  <SCORE.INTRA.norm>
0.125827

>  <SCORE.RESTR>
12.402

>  <SCORE.RESTR.CAVITY>
12.402

>  <SCORE.RESTR.norm>
0.295286

>  <SCORE.SYSTEM>
0

>  <SCORE.SYSTEM.CONST>
0

>  <SCORE.SYSTEM.DIHEDRAL>
0

>  <SCORE.SYSTEM.SOLV>
0

>  <SCORE.SYSTEM.norm>
0

>  <SCORE.heavy>
42

>  <SCORE.norm>
0.234439

>  <RMSD>
32.702

$$$$
2et4_lig
 OpenBabel11021811423D
libRbt.so/2013.1/901 2013/11/27
 42 45  0  0  0  0  0  0  0  0999 V2000
   -2.4233   30.5610   20.1795 C   0  0  2  0  0  0  0  0  0  0  0  0
   -2.9030   31.1048   18.9482 O   0  0  0  0  0  0  0  0  0  0  0  0
   -3.3751   29.4010   20.5684 C   0  0  2  0  0  0  0  0  0  0  0  0
   -3.4384   28.4033   19.5309 N   0  0  0  0  0  0  0  0  0  0  0  0
   -4.7870   29.9772   20.8776 C   0  0  1  0  0  0  0  0  0  0  0  0
   -5.6363   28.9344   21.2425 O   0  0  0  0  0  0  0  0  0  0  0  0
   -4.6413   31.0476   22.0103 C   0  0  2  0  0  0  0  0  0  0  0  0
   -5.9019   31.6038   22.3188 O   0  0  0  0  0  0  0  0  0  0  0  0
   -3.6681   32.1856   21.5768 C   0  0  2  0  0  0  0  0  0  0  0  0
   -2.4052   31.5984   21.2496 O   0  0  0  0  0  0  0  0  0  0  0  0
   -3.4658   33.2531   22.7015 C   0  0  0  0  0  0  0  0  0  0  0  0
   -4.6839   33.8929   23.0595 N   0  0  0  0  0  0  0  0  0  0  0  0
   -0.3408   29.5669   15.8298 C   0  0  2  0  0  0  0  0  0  0  0  0
    0.4432   29.5057   14.5899 N   0  0  0  0  0  0  0  0  0  0  0  0
   -1.8975   29.8532   15.4736 C   0  0  0  0  0  0  0  0  0  0  0  0
   -2.7354   29.9326   16.8148 C   0  0  2  0  0  0  0  0  0  0  0  0
   -4.1548   30.2176   16.5393 N   0  0  0  0  0  0  0  0  0  0  0  0
   -2.1440   31.0556   17.7322 C   0  0  2  0  0  0  0  0  0  0  0  0
   -0.6354   30.7821   18.0437 C   0  0  2  0  0  0  0  0  0  0  0  0
   -0.1835   31.8764   18.8788 O   0  0  0  0  0  0  0  0  0  0  0  0
    0.1782   30.7145   16.7115 C   0  0  1  0  0  0  0  0  0  0  0  0
    1.5071   30.4575   17.0175 O   0  0  0  0  0  0  0  0  0  0  0  0
   -0.2846   33.1924   18.5718 C   0  0  1  0  0  0  0  0  0  0  0  0
    1.0848   33.7652   18.1223 C   0  0  2  0  0  0  0  0  0  0  0  0
    1.8956   34.1537   19.1931 O   0  0  0  0  0  0  0  0  0  0  0  0
    0.6016   34.8257   17.1503 C   0  0  1  0  0  0  0  0  0  0  0  0
   -0.6191   34.2395   16.4272 C   0  0  2  0  0  0  0  0  0  0  0  0
   -1.2104   33.4983   17.4943 O   0  0  0  0  0  0  0  0  0  0  0  0
   -0.2999   33.3297   15.1923 C   0  0  0  0  0  0  0  0  0  0  0  0
   -1.5680   32.9202   14.6148 O   0  0  0  0  0  0  0  0  0  0  0  0
   -0.5012   37.0344   17.3133 C   0  0  2  0  0  0  0  0  0  0  0  0
    0.2466   36.0310   17.9441 O   0  0  0  0  0  0  0  0  0  0  0  0
   -0.1179   37.1618   15.7750 C   0  0  1  0  0  0  0  0  0  0  0  0
    0.6301   41.4414   18.0680 N   0  0  0  0  0  0  0  0  0  0  0  0
   -1.0193   38.3552   15.1586 C   0  0  1  0  0  0  0  0  0  0  0  0
   -2.4779   37.9985   15.3647 O   0  0  0  0  0  0  0  0  0  0  0  0
   -0.6704   39.7513   15.9039 C   0  0  2  0  0  0  0  0  0  0  0  0
    0.7237   40.0747   15.6847 O   0  0  0  0  0  0  0  0  0  0  0  0
   -1.0407   39.5698   17.4818 C   0  0  1  0  0  0  0  0  0  0  0  0
   -0.2863   38.3945   18.0399 O   0  0  0  0  0  0  0  0  0  0  0  0
   -0.7224   40.8565   18.3211 C   0  0  0  0  0  0  0  0  0  0  0  0
    1.3560   37.4020   15.6309 N   0  0  0  0  0  0  0  0  0  0  0  0
  1  2  1  6  0  0  0
  1  3  1  0  0  0  0
  1 10  1  0  0  0  0
  3  4  1  6  0  0  0
  3  5  1  0  0  0  0
  5  6  1  1  0  0  0
  5  7  1  0  0  0  0
  7  8  1  6  0  0  0
  7  9  1  0  0  0  0
  9 10  1  0  0  0  0
  9 11  1  1  0  0  0
 11 12  1  0  0  0  0
 13 14  1  6  0  0  0
 13 15  1  0  0  0  0
 13 21  1  0  0  0  0
 16 15  1  0  0  0  0
 16 17  1  6  0  0  0
 18  2  1  1  0  0  0
 18 16  1  0  0  0  0
 19 18  1  0  0  0  0
 19 20  1  1  0  0  0
 21 19  1  0  0  0  0
 21 22  1  1  0  0  0
 23 20  1  6  0  0  0
 23 24  1  0  0  0  0
 23 28  1  0  0  0  0
 24 25  1  1  0  0  0
 24 26  1  0  0  0  0
 26 27  1  0  0  0  0
 26 32  1  1  0  0  0
 27 28  1  0  0  0  0
 27 29  1  6  0  0  0
 29 30  1  0  0  0  0
 31 32  1  1  0  0  0
 31 40  1  0  0  0  0
 33 31  1  0  0  0  0
 33 42  1  1  0  0  0
 35 33  1  0  0  0  0
 35 36  1  1  0  0  0
 37 35  1  0  0  0  0
 37 38  1  1  0  0  0
 37 39  1  0  0  0  0
 39 40  1  0  0  0  0
 39 41  1  1  0  0  0
 41 34  1  0  0  0  0
M  END
>  <CHROM.1>
-116.01197318,-60.68093181,103.43055641,-54.73207872,-103.65072635,-165.99720872
-177.68918209,-34.37062267,-47.38674250,-1.46432675,33.58495026,18.09164930
2.20851023,-0.95861280,-2.95394062

>  <Name>
2et4_lig

>  <RI>
0

>  <Rbt.Current_Directory>
/home/itssahil/PROJECTS/Mol_Feturizer/New_Systems/rnas/2et4

>  <Rbt.Executable>
rbdock ($Id: //depot/dev/client3/rdock/2013.1/src/exe/rbdock.cxx#4 $)

>  <Rbt.Library>
libRbt.so (2013.1, Build901 2013/11/27)

>  <Rbt.Parameter_File>
/export/apps/rDock/src/rDock_2013.1_src/data/scripts/dock_solv.prm

>  <Rbt.Receptor>
prm/blind_docking_80.prm

>  <SCORE>
35.1969

>  <SCORE.INTER>
7.57941

>  <SCORE.INTER.CONST>
1

>  <SCORE.INTER.POLAR>
-0.302144

>  <SCORE.INTER.ROT>
9

>  <SCORE.INTER.SOLV>
29.0346

>  <SCORE.INTER.VDW>
-13.2181

>  <SCORE.INTER.norm>
0.180462

>  <SCORE.INTRA>
6.98279

>  <SCORE.INTRA.DIHEDRAL>
1.85551

>  <SCORE.INTRA.DIHEDRAL.0>
21.6909

>  <SCORE.INTRA.POLAR>
0

>  <SCORE.INTRA.POLAR.0>
0

>  <SCORE.INTRA.REPUL>
0

>  <SCORE.INTRA.REPUL.0>
0

>  <SCORE.INTRA.SOLV>
3.83385

>  <SCORE.INTRA.SOLV.lig_0>
-116.606

>  <SCORE.INTRA.VDW>
4.13811

>  <SCORE.INTRA.VDW.0>
-6.01229

>  <SCORE.INTRA.norm>
0.166257

>  <SCORE.RESTR>
20.6347

>  <SCORE.RESTR.CAVITY>
20.6347

>  <SCORE.RESTR.norm>
0.491302

>  <SCORE.SYSTEM>
0

>  <SCORE.SYSTEM.CONST>
0

>  <SCORE.SYSTEM.DIHEDRAL>
0

>  <SCORE.SYSTEM.SOLV>
0

>  <SCORE.SYSTEM.norm>
0

>  <SCORE.heavy>
42

>  <SCORE.norm>
0.838021

>  <RMSD>
32.808

$$$$
2et4_lig
 OpenBabel11021811423D
libRbt.so/2013.1/901 2013/11/27
 42 45  0  0  0  0  0  0  0  0999 V2000
   -3.2214   37.5273   13.6536 C   0  0  2  0  0  0  0  0  0  0  0  0
   -3.1104   37.0980   15.0121 O   0  0  0  0  0  0  0  0  0  0  0  0
   -4.6990   37.3267   13.2302 C   0  0  2  0  0  0  0  0  0  0  0  0
   -5.5961   38.0495   14.0953 N   0  0  0  0  0  0  0  0  0  0  0  0
   -5.0297   35.8062   13.2256 C   0  0  1  0  0  0  0  0  0  0  0  0
   -6.3536   35.6278   12.8291 O   0  0  0  0  0  0  0  0  0  0  0  0
   -4.0214   35.0891   12.2669 C   0  0  2  0  0  0  0  0  0  0  0  0
   -4.2812   33.7016   12.2377 O   0  0  0  0  0  0  0  0  0  0  0  0
   -2.5515   35.3286   12.7273 C   0  0  2  0  0  0  0  0  0  0  0  0
   -2.3165   36.7392   12.7695 O   0  0  0  0  0  0  0  0  0  0  0  0
   -1.5133   34.6602   11.7677 C   0  0  0  0  0  0  0  0  0  0  0  0
   -1.6792   33.2501   11.6958 N   0  0  0  0  0  0  0  0  0  0  0  0
   -0.6277   40.1524   16.7900 C   0  0  2  0  0  0  0  0  0  0  0  0
    0.2271   40.8467   17.7611 N   0  0  0  0  0  0  0  0  0  0  0  0
   -2.0760   39.8545   17.4578 C   0  0  0  0  0  0  0  0  0  0  0  0
   -2.9884   39.0931   16.4113 C   0  0  2  0  0  0  0  0  0  0  0  0
   -4.3084   38.7788   16.9861 N   0  0  0  0  0  0  0  0  0  0  0  0
   -2.2798   37.7680   15.9703 C   0  0  2  0  0  0  0  0  0  0  0  0
   -0.8729   38.0678   15.3551 C   0  0  2  0  0  0  0  0  0  0  0  0
   -0.2999   36.7863   14.9965 O   0  0  0  0  0  0  0  0  0  0  0  0
    0.0170   38.8117   16.4020 C   0  0  1  0  0  0  0  0  0  0  0  0
    1.2509   39.0764   15.8249 O   0  0  0  0  0  0  0  0  0  0  0  0
    0.2307   35.8923   15.8656 C   0  0  1  0  0  0  0  0  0  0  0  0
   -0.7433   35.6131   17.0398 C   0  0  2  0  0  0  0  0  0  0  0  0
   -0.6485   36.5561   18.0677 O   0  0  0  0  0  0  0  0  0  0  0  0
   -0.3685   34.1724   17.3341 C   0  0  1  0  0  0  0  0  0  0  0  0
   -0.0803   33.5053   15.9818 C   0  0  2  0  0  0  0  0  0  0  0  0
    0.5372   34.5924   15.2928 O   0  0  0  0  0  0  0  0  0  0  0  0
   -1.3349   32.9657   15.2140 C   0  0  0  0  0  0  0  0  0  0  0  0
   -2.0168   32.0348   16.0958 O   0  0  0  0  0  0  0  0  0  0  0  0
    1.0355   33.1084   19.0714 C   0  0  2  0  0  0  0  0  0  0  0  0
    0.8343   34.1928   18.2068 O   0  0  0  0  0  0  0  0  0  0  0  0
    1.9041   31.9697   18.3794 C   0  0  1  0  0  0  0  0  0  0  0  0
   -2.5043   30.3124   19.7296 N   0  0  0  0  0  0  0  0  0  0  0  0
    2.0528   30.7683   19.4524 C   0  0  1  0  0  0  0  0  0  0  0  0
    2.7147   31.3269   20.6963 O   0  0  0  0  0  0  0  0  0  0  0  0
    0.5916   30.1675   19.8137 C   0  0  2  0  0  0  0  0  0  0  0  0
   -0.0153   29.6325   18.6131 O   0  0  0  0  0  0  0  0  0  0  0  0
   -0.2803   31.3712   20.4850 C   0  0  1  0  0  0  0  0  0  0  0  0
   -0.3360   32.5368   19.5362 O   0  0  0  0  0  0  0  0  0  0  0  0
   -1.7345   30.9171   20.8597 C   0  0  0  0  0  0  0  0  0  0  0  0
    1.2567   31.5375   17.0969 N   0  0  0  0  0  0  0  0  0  0  0  0
  1  2  1  1  0  0  0
  1  3  1  0  0  0  0
  1 10  1  0  0  0  0
  3  4  1  1  0  0  0
  3  5  1  0  0  0  0
  5  6  1  6  0  0  0
  5  7  1  0  0  0  0
  7  8  1  1  0  0  0
  7  9  1  0  0  0  0
  9 10  1  0  0  0  0
  9 11  1  6  0  0  0
 11 12  1  0  0  0  0
 13 14  1  1  0  0  0
 13 15  1  0  0  0  0
 13 21  1  0  0  0  0
 16 15  1  0  0  0  0
 16 17  1  1  0  0  0
 18  2  1  6  0  0  0
 18 16  1  0  0  0  0
 19 18  1  0  0  0  0
 19 20  1  1  0  0  0
 21 19  1  0  0  0  0
 21 22  1  6  0  0  0
 23 20  1  6  0  0  0
 23 24  1  0  0  0  0
 23 28  1  0  0  0  0
 24 25  1  1  0  0  0
 24 26  1  0  0  0  0
 26 27  1  0  0  0  0
 26 32  1  1  0  0  0
 27 28  1  0  0  0  0
 27 29  1  6  0  0  0
 29 30  1  0  0  0  0
 31 32  1  6  0  0  0
 31 40  1  0  0  0  0
 33 31  1  0  0  0  0
 33 42  1  6  0  0  0
 35 33  1  0  0  0  0
 35 36  1  1  0  0  0
 37 35  1  0  0  0  0
 37 38  1  6  0  0  0
 37 39  1  0  0  0  0
 39 40  1  0  0  0  0
 39 41  1  6  0  0  0
 41 34  1  0  0  0  0
M  END
>  <CHROM.1>
-142.23127458,-60.60709418,75.82742259,-75.86337769,50.45668408,152.71193613
-56.64678090,90.44325933,-54.26611739,-1.31004235,35.03349943,16.24050731
2.32329442,-0.91144044,-0.05643194

>  <Name>
2et4_lig

>  <RI>
0

>  <Rbt.Current_Directory>
/home/itssahil/PROJECTS/Mol_Feturizer/New_Systems/rnas/2et4

>  <Rbt.Executable>
rbdock ($Id: //depot/dev/client3/rdock/2013.1/src/exe/rbdock.cxx#4 $)

>  <Rbt.Library>
libRbt.so (2013.1, Build901 2013/11/27)

>  <Rbt.Parameter_File>
/export/apps/rDock/src/rDock_2013.1_src/data/scripts/dock_solv.prm

>  <Rbt.Receptor>
prm/blind_docking_60.prm

>  <SCORE>
23.7185

>  <SCORE.INTER>
10.9127

>  <SCORE.INTER.CONST>
1

>  <SCORE.INTER.POLAR>
-1.50275

>  <SCORE.INTER.ROT>
9

>  <SCORE.INTER.SOLV>
27.0228

>  <SCORE.INTER.VDW>
-6.32333

>  <SCORE.INTER.norm>
0.259825

>  <SCORE.INTRA>
1.58274

>  <SCORE.INTRA.DIHEDRAL>
-6.84545

>  <SCORE.INTRA.DIHEDRAL.0>
21.6909

>  <SCORE.INTRA.POLAR>
0

>  <SCORE.INTRA.POLAR.0>
0

>  <SCORE.INTRA.REPUL>
0.000533607

>  <SCORE.INTRA.REPUL.0>
0

>  <SCORE.INTRA.SOLV>
5.55567

>  <SCORE.INTRA.SOLV.lig_0>
-116.606

>  <SCORE.INTRA.VDW>
2.22496

>  <SCORE.INTRA.VDW.0>
-6.01229

>  <SCORE.INTRA.norm>
0.0376843

>  <SCORE.RESTR>
11.2231

>  <SCORE.RESTR.CAVITY>
11.2231

>  <SCORE.RESTR.norm>
0.267216

>  <SCORE.SYSTEM>
0

>  <SCORE.SYSTEM.CONST>
0

>  <SCORE.SYSTEM.DIHEDRAL>
0

>  <SCORE.SYSTEM.SOLV>
0

>  <SCORE.SYSTEM.norm>
0

>  <SCORE.heavy>
42

>  <SCORE.norm>
0.564725

>  <RMSD>
32.812

$$$$
2et4_lig
 OpenBabel11021811423D
libRbt.so/2013.1/901 2013/11/27
 42 45  0  0  0  0  0  0  0  0999 V2000
   -1.1518   30.9898   21.7809 C   0  0  2  0  0  0  0  0  0  0  0  0
    0.0209   31.7650   21.5240 O   0  0  0  0  0  0  0  0  0  0  0  0
   -1.6301   30.4201   20.4210 C   0  0  2  0  0  0  0  0  0  0  0  0
   -0.5993   29.6380   19.7874 N   0  0  0  0  0  0  0  0  0  0  0  0
   -2.0857   31.5925   19.5050 C   0  0  1  0  0  0  0  0  0  0  0  0
   -2.5303   31.0764   18.2894 O   0  0  0  0  0  0  0  0  0  0  0  0
   -3.2031   32.3928   20.2540 C   0  0  2  0  0  0  0  0  0  0  0  0
   -3.6424   33.4741   19.4594 O   0  0  0  0  0  0  0  0  0  0  0  0
   -2.6782   32.9353   21.6178 C   0  0  2  0  0  0  0  0  0  0  0  0
   -2.2198   31.8268   22.3975 O   0  0  0  0  0  0  0  0  0  0  0  0
   -3.7818   33.7060   22.4137 C   0  0  0  0  0  0  0  0  0  0  0  0
   -4.8636   32.8618   22.7855 N   0  0  0  0  0  0  0  0  0  0  0  0
    3.9816   31.5455   19.8154 C   0  0  2  0  0  0  0  0  0  0  0  0
    5.1479   31.0234   19.0923 N   0  0  0  0  0  0  0  0  0  0  0  0
    3.6217   30.5566   21.0502 C   0  0  0  0  0  0  0  0  0  0  0  0
    2.3548   31.1167   21.8174 C   0  0  2  0  0  0  0  0  0  0  0  0
    1.9758   30.2334   22.9344 N   0  0  0  0  0  0  0  0  0  0  0  0
    1.1551   31.2425   20.8186 C   0  0  2  0  0  0  0  0  0  0  0  0
    1.5261   32.1754   19.6186 C   0  0  2  0  0  0  0  0  0  0  0  0
    0.3648   32.2128   18.7531 O   0  0  0  0  0  0  0  0  0  0  0  0
    2.7722   31.6051   18.8680 C   0  0  1  0  0  0  0  0  0  0  0  0
    3.0859   32.4586   17.8198 O   0  0  0  0  0  0  0  0  0  0  0  0
   -0.2545   33.3366   18.3177 C   0  0  1  0  0  0  0  0  0  0  0  0
    0.7520   34.2945   17.6285 C   0  0  2  0  0  0  0  0  0  0  0  0
    1.4382   35.1121   18.5317 O   0  0  0  0  0  0  0  0  0  0  0  0
   -0.1762   34.9420   16.6176 C   0  0  1  0  0  0  0  0  0  0  0  0
   -1.1364   33.8464   16.1336 C   0  0  2  0  0  0  0  0  0  0  0  0
   -1.3116   33.1134   17.3459 O   0  0  0  0  0  0  0  0  0  0  0  0
   -0.5967   32.9385   14.9763 C   0  0  0  0  0  0  0  0  0  0  0  0
    0.3703   32.0236   15.5567 O   0  0  0  0  0  0  0  0  0  0  0  0
   -1.2718   37.1596   16.5566 C   0  0  2  0  0  0  0  0  0  0  0  0
   -0.8973   36.0403   17.3123 O   0  0  0  0  0  0  0  0  0  0  0  0
   -0.1993   37.4805   15.4267 C   0  0  1  0  0  0  0  0  0  0  0  0
   -0.7430   41.2785   18.4796 N   0  0  0  0  0  0  0  0  0  0  0  0
   -0.7194   38.7935   14.6380 C   0  0  1  0  0  0  0  0  0  0  0  0
   -2.0896   38.4879   14.0665 O   0  0  0  0  0  0  0  0  0  0  0  0
   -0.8021   40.0518   15.6560 C   0  0  2  0  0  0  0  0  0  0  0  0
    0.5185   40.3296   16.1805 O   0  0  0  0  0  0  0  0  0  0  0  0
   -1.8809   39.6711   16.8184 C   0  0  1  0  0  0  0  0  0  0  0  0
   -1.4620   38.3917   17.4890 O   0  0  0  0  0  0  0  0  0  0  0  0
   -2.0332   40.8096   17.8870 C   0  0  0  0  0  0  0  0  0  0  0  0
    1.1569   37.6614   16.0422 N   0  0  0  0  0  0  0  0  0  0  0  0
  1  2  1  6  0  0  0
  1  3  1  0  0  0  0
  1 10  1  0  0  0  0
  3  4  1  6  0  0  0
  3  5  1  0  0  0  0
  5  6  1  6  0  0  0
  5  7  1  0  0  0  0
  7  8  1  6  0  0  0
  7  9  1  0  0  0  0
  9 10  1  0  0  0  0
  9 11  1  1  0  0  0
 11 12  1  0  0  0  0
 13 14  1  6  0  0  0
 13 15  1  0  0  0  0
 13 21  1  0  0  0  0
 16 15  1  0  0  0  0
 16 17  1  1  0  0  0
 18  2  1  1  0  0  0
 18 16  1  0  0  0  0
 19 18  1  0  0  0  0
 19 20  1  6  0  0  0
 21 19  1  0  0  0  0
 21 22  1  6  0  0  0
 23 20  1  6  0  0  0
 23 24  1  0  0  0  0
 23 28  1  0  0  0  0
 24 25  1  1  0  0  0
 24 26  1  0  0  0  0
 26 27  1  0  0  0  0
 26 32  1  1  0  0  0
 27 28  1  0  0  0  0
 27 29  1  6  0  0  0
 29 30  1  0  0  0  0
 31 32  1  1  0  0  0
 31 40  1  0  0  0  0
 33 31  1  0  0  0  0
 33 42  1  1  0  0  0
 35 33  1  0  0  0  0
 35 36  1  1  0  0  0
 37 35  1  0  0  0  0
 37 38  1  1  0  0  0
 37 39  1  0  0  0  0
 39 40  1  0  0  0  0
 39 41  1  1  0  0  0
 41 34  1  0  0  0  0
M  END
>  <CHROM.1>
-53.31773128,63.87822675,-111.86573305,126.81618725,54.05394568,149.03172011
75.07186768,-34.25534046,-51.95924215,-0.34298689,34.12363585,18.60840656
1.41402468,-0.42949220,2.54729575

>  <Name>
2et4_lig

>  <RI>
0

>  <Rbt.Current_Directory>
/home/itssahil/PROJECTS/Mol_Feturizer/New_Systems/rnas/2et4

>  <Rbt.Executable>
rbdock ($Id: //depot/dev/client3/rdock/2013.1/src/exe/rbdock.cxx#4 $)

>  <Rbt.Library>
libRbt.so (2013.1, Build901 2013/11/27)

>  <Rbt.Parameter_File>
/export/apps/rDock/src/rDock_2013.1_src/data/scripts/dock_solv.prm

>  <Rbt.Receptor>
prm/blind_docking_100.prm

>  <SCORE>
25.8539

>  <SCORE.INTER>
5.82317

>  <SCORE.INTER.CONST>
1

>  <SCORE.INTER.POLAR>
-0.0905872

>  <SCORE.INTER.ROT>
9

>  <SCORE.INTER.SOLV>
35.5115

>  <SCORE.INTER.VDW>
-17.2531

>  <SCORE.INTER.norm>
0.138647

>  <SCORE.INTRA>
7.45234

>  <SCORE.INTRA.DIHEDRAL>
0.24583

>  <SCORE.INTRA.DIHEDRAL.0>
21.6909

>  <SCORE.INTRA.POLAR>
0

>  <SCORE.INTRA.POLAR.0>
0

>  <SCORE.INTRA.REPUL>
0.00219089

>  <SCORE.INTRA.REPUL.0>
0

>  <SCORE.INTRA.SOLV>
6.08143

>  <SCORE.INTRA.SOLV.lig_0>
-116.606

>  <SCORE.INTRA.VDW>
4.27775

>  <SCORE.INTRA.VDW.0>
-6.01229

>  <SCORE.INTRA.norm>
0.177437

>  <SCORE.RESTR>
12.5784

>  <SCORE.RESTR.CAVITY>
12.5784

>  <SCORE.RESTR.norm>
0.299486

>  <SCORE.SYSTEM>
0

>  <SCORE.SYSTEM.CONST>
0

>  <SCORE.SYSTEM.DIHEDRAL>
0

>  <SCORE.SYSTEM.SOLV>
0

>  <SCORE.SYSTEM.norm>
0

>  <SCORE.heavy>
42

>  <SCORE.norm>
0.615569

>  <RMSD>
32.831

$$$$
2et4_lig
 OpenBabel11021811423D
libRbt.so/2013.1/901 2013/11/27
 42 45  0  0  0  0  0  0  0  0999 V2000
    1.1308   30.4453   19.2356 C   0  0  2  0  0  0  0  0  0  0  0  0
    0.3926   31.6623   19.1090 O   0  0  0  0  0  0  0  0  0  0  0  0
    1.0010   29.9832   20.7095 C   0  0  2  0  0  0  0  0  0  0  0  0
   -0.3790   29.8142   21.0873 N   0  0  0  0  0  0  0  0  0  0  0  0
    1.7126   31.0122   21.6346 C   0  0  1  0  0  0  0  0  0  0  0  0
    1.6083   30.5861   22.9573 O   0  0  0  0  0  0  0  0  0  0  0  0
    3.2012   31.1416   21.1686 C   0  0  2  0  0  0  0  0  0  0  0  0
    3.8851   32.0739   21.9789 O   0  0  0  0  0  0  0  0  0  0  0  0
    3.2793   31.5975   19.6800 C   0  0  2  0  0  0  0  0  0  0  0  0
    2.5637   30.6513   18.8805 O   0  0  0  0  0  0  0  0  0  0  0  0
    4.7532   31.6977   19.1671 C   0  0  0  0  0  0  0  0  0  0  0  0
    4.9863   32.8932   18.4340 N   0  0  0  0  0  0  0  0  0  0  0  0
   -1.8618   31.0596   15.4746 C   0  0  2  0  0  0  0  0  0  0  0  0
   -2.8616   31.2625   14.4186 N   0  0  0  0  0  0  0  0  0  0  0  0
   -2.6121   30.8191   16.8928 C   0  0  0  0  0  0  0  0  0  0  0  0
   -1.5292   30.6154   18.0300 C   0  0  2  0  0  0  0  0  0  0  0  0
   -2.1677   30.4186   19.3435 N   0  0  0  0  0  0  0  0  0  0  0  0
   -0.5912   31.8682   18.0859 C   0  0  2  0  0  0  0  0  0  0  0  0
    0.1030   32.1051   16.7039 C   0  0  2  0  0  0  0  0  0  0  0  0
    0.9296   33.2852   16.8565 O   0  0  0  0  0  0  0  0  0  0  0  0
   -0.9781   32.3120   15.5950 C   0  0  1  0  0  0  0  0  0  0  0  0
   -0.3347   32.5054   14.3808 O   0  0  0  0  0  0  0  0  0  0  0  0
    0.4855   34.5144   17.2142 C   0  0  1  0  0  0  0  0  0  0  0  0
   -0.6575   34.9866   16.2782 C   0  0  2  0  0  0  0  0  0  0  0  0
   -0.1928   35.5792   15.1001 O   0  0  0  0  0  0  0  0  0  0  0  0
   -1.4459   35.8340   17.2597 C   0  0  1  0  0  0  0  0  0  0  0  0
   -1.3806   35.1165   18.6153 C   0  0  2  0  0  0  0  0  0  0  0  0
   -0.0504   34.6013   18.5622 O   0  0  0  0  0  0  0  0  0  0  0  0
   -2.4377   33.9803   18.8296 C   0  0  0  0  0  0  0  0  0  0  0  0
   -2.5952   33.7977   20.2618 O   0  0  0  0  0  0  0  0  0  0  0  0
   -1.1303   38.0973   16.3114 C   0  0  2  0  0  0  0  0  0  0  0  0
   -0.8024   37.1726   17.3121 O   0  0  0  0  0  0  0  0  0  0  0  0
    0.1638   38.5796   15.5223 C   0  0  1  0  0  0  0  0  0  0  0  0
   -3.5364   42.6509   15.8886 N   0  0  0  0  0  0  0  0  0  0  0  0
   -0.3277   39.6525   14.4159 C   0  0  1  0  0  0  0  0  0  0  0  0
   -1.3361   38.9701   13.5133 O   0  0  0  0  0  0  0  0  0  0  0  0
   -1.0025   40.9307   15.1488 C   0  0  2  0  0  0  0  0  0  0  0  0
   -0.0183   41.5701   15.9966 O   0  0  0  0  0  0  0  0  0  0  0  0
   -2.3006   40.3919   15.9760 C   0  0  1  0  0  0  0  0  0  0  0  0
   -1.8704   39.3166   16.9355 O   0  0  0  0  0  0  0  0  0  0  0  0
   -3.0313   41.5415   16.7543 C   0  0  0  0  0  0  0  0  0  0  0  0
    1.1709   39.1418   16.4817 N   0  0  0  0  0  0  0  0  0  0  0  0
  1  2  1  1  0  0  0
  1  3  1  0  0  0  0
  1 10  1  0  0  0  0
  3  4  1  1  0  0  0
  3  5  1  0  0  0  0
  5  6  1  1  0  0  0
  5  7  1  0  0  0  0
  7  8  1  1  0  0  0
  7  9  1  0  0  0  0
  9 10  1  0  0  0  0
  9 11  1  6  0  0  0
 11 12  1  0  0  0  0
 13 14  1  6  0  0  0
 13 15  1  0  0  0  0
 13 21  1  0  0  0  0
 16 15  1  0  0  0  0
 16 17  1  1  0  0  0
 18  2  1  1  0  0  0
 18 16  1  0  0  0  0
 19 18  1  0  0  0  0
 19 20  1  1  0  0  0
 21 19  1  0  0  0  0
 21 22  1  6  0  0  0
 23 20  1  6  0  0  0
 23 24  1  0  0  0  0
 23 28  1  0  0  0  0
 24 25  1  6  0  0  0
 24 26  1  0  0  0  0
 26 27  1  0  0  0  0
 26 32  1  1  0  0  0
 27 28  1  0  0  0  0
 27 29  1  6  0  0  0
 29 30  1  0  0  0  0
 31 32  1  1  0  0  0
 31 40  1  0  0  0  0
 33 31  1  0  0  0  0
 33 42  1  1  0  0  0
 35 33  1  0  0  0  0
 35 36  1  6  0  0  0
 37 35  1  0  0  0  0
 37 38  1  1  0  0  0
 37 39  1  0  0  0  0
 39 40  1  0  0  0  0
 39 41  1  1  0  0  0
 41 34  1  0  0  0  0
M  END
>  <CHROM.1>
-128.84347820,-134.77439756,47.14084867,-58.73395639,-54.31279044,82.32918414
-157.59021465,-122.11309487,59.50235872,-0.13193054,34.45462947,17.68305438
1.21811684,0.68992054,2.94032280

>  <Name>
2et4_lig

>  <RI>
0

>  <Rbt.Current_Directory>
/home/itssahil/PROJECTS/Mol_Feturizer/New_Systems/rnas/2et4

>  <Rbt.Executable>
rbdock ($Id: //depot/dev/client3/rdock/2013.1/src/exe/rbdock.cxx#4 $)

>  <Rbt.Library>
libRbt.so (2013.1, Build901 2013/11/27)

>  <Rbt.Parameter_File>
/export/apps/rDock/src/rDock_2013.1_src/data/scripts/dock_solv.prm

>  <Rbt.Receptor>
prm/blind_docking_100.prm

>  <SCORE>
26.7655

>  <SCORE.INTER>
3.6742

>  <SCORE.INTER.CONST>
1

>  <SCORE.INTER.POLAR>
-0.380118

>  <SCORE.INTER.ROT>
9

>  <SCORE.INTER.SOLV>
26.9651

>  <SCORE.INTER.VDW>
-14.8718

>  <SCORE.INTER.norm>
0.0874809

>  <SCORE.INTRA>
4.86383

>  <SCORE.INTRA.DIHEDRAL>
1.61141

>  <SCORE.INTRA.DIHEDRAL.0>
21.6909

>  <SCORE.INTRA.POLAR>
0

>  <SCORE.INTRA.POLAR.0>
0

>  <SCORE.INTRA.REPUL>
0

>  <SCORE.INTRA.REPUL.0>
0

>  <SCORE.INTRA.SOLV>
1.72616

>  <SCORE.INTRA.SOLV.lig_0>
-116.606

>  <SCORE.INTRA.VDW>
3.19505

>  <SCORE.INTRA.VDW.0>
-6.01229

>  <SCORE.INTRA.norm>
0.115805

>  <SCORE.RESTR>
18.2275

>  <SCORE.RESTR.CAVITY>
18.2275

>  <SCORE.RESTR.norm>
0.433988

>  <SCORE.SYSTEM>
0

>  <SCORE.SYSTEM.CONST>
0

>  <SCORE.SYSTEM.DIHEDRAL>
0

>  <SCORE.SYSTEM.SOLV>
0

>  <SCORE.SYSTEM.norm>
0

>  <SCORE.heavy>
42

>  <SCORE.norm>
0.637275

>  <RMSD>
32.837

$$$$
2et4_lig
 OpenBabel11021811423D
libRbt.so/2013.1/901 2013/11/27
 42 45  0  0  0  0  0  0  0  0999 V2000
   -2.1079   32.7370   18.5075 C   0  0  2  0  0  0  0  0  0  0  0  0
   -0.9318   33.0015   19.2750 O   0  0  0  0  0  0  0  0  0  0  0  0
   -2.7708   31.4713   19.1087 C   0  0  2  0  0  0  0  0  0  0  0  0
   -3.0722   31.6497   20.5062 N   0  0  0  0  0  0  0  0  0  0  0  0
   -1.8342   30.2482   18.8898 C   0  0  1  0  0  0  0  0  0  0  0  0
   -2.4397   29.1090   19.4167 O   0  0  0  0  0  0  0  0  0  0  0  0
   -1.5535   30.1152   17.3557 C   0  0  2  0  0  0  0  0  0  0  0  0
   -0.6988   29.0183   17.1110 O   0  0  0  0  0  0  0  0  0  0  0  0
   -0.8978   31.4142   16.7966 C   0  0  2  0  0  0  0  0  0  0  0  0
   -1.7697   32.5142   17.0731 O   0  0  0  0  0  0  0  0  0  0  0  0
   -0.6407   31.3329   15.2563 C   0  0  0  0  0  0  0  0  0  0  0  0
    0.1095   30.1799   14.8975 N   0  0  0  0  0  0  0  0  0  0  0  0
    3.2693   32.0418   19.5660 C   0  0  2  0  0  0  0  0  0  0  0  0
    4.5566   31.3813   19.3164 N   0  0  0  0  0  0  0  0  0  0  0  0
    2.1931   30.9495   20.0961 C   0  0  0  0  0  0  0  0  0  0  0  0
    0.8032   31.6643   20.3498 C   0  0  2  0  0  0  0  0  0  0  0  0
   -0.2140   30.7020   20.8092 N   0  0  0  0  0  0  0  0  0  0  0  0
    0.3192   32.3460   19.0256 C   0  0  2  0  0  0  0  0  0  0  0  0
    1.3791   33.3752   18.5105 C   0  0  2  0  0  0  0  0  0  0  0  0
    0.8469   33.9340   17.2843 O   0  0  0  0  0  0  0  0  0  0  0  0
    2.7415   32.6531   18.2578 C   0  0  1  0  0  0  0  0  0  0  0  0
    3.6638   33.5911   17.8161 O   0  0  0  0  0  0  0  0  0  0  0  0
    0.7306   35.2557   17.0089 C   0  0  1  0  0  0  0  0  0  0  0  0
   -0.6362   35.5671   16.3453 C   0  0  2  0  0  0  0  0  0  0  0  0
   -0.6364   35.3552   14.9632 O   0  0  0  0  0  0  0  0  0  0  0  0
   -0.8489   36.9758   16.8677 C   0  0  1  0  0  0  0  0  0  0  0  0
   -0.3103   37.0005   18.3051 C   0  0  2  0  0  0  0  0  0  0  0  0
    0.8125   36.1299   18.1668 O   0  0  0  0  0  0  0  0  0  0  0  0
   -1.3044   36.4991   19.4074 C   0  0  0  0  0  0  0  0  0  0  0  0
   -2.4191   37.4293   19.4428 O   0  0  0  0  0  0  0  0  0  0  0  0
   -0.5754   39.2094   15.8392 C   0  0  2  0  0  0  0  0  0  0  0  0
   -0.0959   37.9001   15.9804 O   0  0  0  0  0  0  0  0  0  0  0  0
   -2.0135   39.2293   15.1602 C   0  0  1  0  0  0  0  0  0  0  0  0
    1.3959   41.6095   12.5840 N   0  0  0  0  0  0  0  0  0  0  0  0
   -2.4545   40.7800   15.0282 C   0  0  1  0  0  0  0  0  0  0  0  0
   -2.4607   41.3878   16.4167 O   0  0  0  0  0  0  0  0  0  0  0  0
   -1.4116   41.5706   14.0723 C   0  0  2  0  0  0  0  0  0  0  0  0
   -1.4309   40.9783   12.7513 O   0  0  0  0  0  0  0  0  0  0  0  0
    0.0552   41.4964   14.7813 C   0  0  1  0  0  0  0  0  0  0  0  0
    0.4295   40.0571   15.0053 O   0  0  0  0  0  0  0  0  0  0  0  0
    1.1646   42.2113   13.9330 C   0  0  0  0  0  0  0  0  0  0  0  0
   -1.9691   38.5150   13.8416 N   0  0  0  0  0  0  0  0  0  0  0  0
  1  2  1  1  0  0  0
  1  3  1  0  0  0  0
  1 10  1  0  0  0  0
  3  4  1  1  0  0  0
  3  5  1  0  0  0  0
  5  6  1  6  0  0  0
  5  7  1  0  0  0  0
  7  8  1  1  0  0  0
  7  9  1  0  0  0  0
  9 10  1  0  0  0  0
  9 11  1  6  0  0  0
 11 12  1  0  0  0  0
 13 14  1  6  0  0  0
 13 15  1  0  0  0  0
 13 21  1  0  0  0  0
 16 15  1  0  0  0  0
 16 17  1  6  0  0  0
 18  2  1  1  0  0  0
 18 16  1  0  0  0  0
 19 18  1  0  0  0  0
 19 20  1  6  0  0  0
 21 19  1  0  0  0  0
 21 22  1  1  0  0  0
 23 20  1  1  0  0  0
 23 24  1  0  0  0  0
 23 28  1  0  0  0  0
 24 25  1  6  0  0  0
 24 26  1  0  0  0  0
 26 27  1  0  0  0  0
 26 32  1  6  0  0  0
 27 28  1  0  0  0  0
 27 29  1  1  0  0  0
 29 30  1  0  0  0  0
 31 32  1  6  0  0  0
 31 40  1  0  0  0  0
 33 31  1  0  0  0  0
 33 42  1  6  0  0  0
 35 33  1  0  0  0  0
 35 36  1  1  0  0  0
 37 35  1  0  0  0  0
 37 38  1  6  0  0  0
 37 39  1  0  0  0  0
 39 40  1  0  0  0  0
 39 41  1  6  0  0  0
 41 34  1  0  0  0  0
M  END
>  <CHROM.1>
83.44526123,-53.76308651,-124.75043216,128.46445625,-136.90890856,151.37578260
-64.90293527,-63.62294211,-62.24050907,-0.31676942,35.03168019,17.15540948
1.51180770,0.02636212,2.74005181

>  <Name>
2et4_lig

>  <RI>
0

>  <Rbt.Current_Directory>
/home/itssahil/PROJECTS/Mol_Feturizer/New_Systems/rnas/2et4

>  <Rbt.Executable>
rbdock ($Id: //depot/dev/client3/rdock/2013.1/src/exe/rbdock.cxx#4 $)

>  <Rbt.Library>
libRbt.so (2013.1, Build901 2013/11/27)

>  <Rbt.Parameter_File>
/export/apps/rDock/src/rDock_2013.1_src/data/scripts/dock_solv.prm

>  <Rbt.Receptor>
prm/blind_docking_100.prm

>  <SCORE>
14.9695

>  <SCORE.INTER>
-0.405275

>  <SCORE.INTER.CONST>
1

>  <SCORE.INTER.POLAR>
-0.855245

>  <SCORE.INTER.ROT>
9

>  <SCORE.INTER.SOLV>
35.8855

>  <SCORE.INTER.VDW>
-18.9812

>  <SCORE.INTER.norm>
-0.0096494

>  <SCORE.INTRA>
7.61455

>  <SCORE.INTRA.DIHEDRAL>
4.30166

>  <SCORE.INTRA.DIHEDRAL.0>
21.6909

>  <SCORE.INTRA.POLAR>
0

>  <SCORE.INTRA.POLAR.0>
0

>  <SCORE.INTRA.REPUL>
0

>  <SCORE.INTRA.REPUL.0>
0

>  <SCORE.INTRA.SOLV>
5.41019

>  <SCORE.INTRA.SOLV.lig_0>
-116.606

>  <SCORE.INTRA.VDW>
2.75863

>  <SCORE.INTRA.VDW.0>
-6.01229

>  <SCORE.INTRA.norm>
0.181299

>  <SCORE.RESTR>
7.76025

>  <SCORE.RESTR.CAVITY>
7.76025

>  <SCORE.RESTR.norm>
0.184768

>  <SCORE.SYSTEM>
0

>  <SCORE.SYSTEM.CONST>
0

>  <SCORE.SYSTEM.DIHEDRAL>
0

>  <SCORE.SYSTEM.SOLV>
0

>  <SCORE.SYSTEM.norm>
0

>  <SCORE.heavy>
42

>  <SCORE.norm>
0.356417

>  <RMSD>
33.150

$$$$
2et4_lig
 OpenBabel11021811423D
libRbt.so/2013.1/901 2013/11/27
 42 45  0  0  0  0  0  0  0  0999 V2000
   -1.7222   32.4542   19.2337 C   0  0  2  0  0  0  0  0  0  0  0  0
   -0.5709   32.2813   20.0624 O   0  0  0  0  0  0  0  0  0  0  0  0
   -2.9668   32.3361   20.1502 C   0  0  2  0  0  0  0  0  0  0  0  0
   -2.9260   33.3019   21.2185 N   0  0  0  0  0  0  0  0  0  0  0  0
   -3.0570   30.8867   20.7091 C   0  0  1  0  0  0  0  0  0  0  0  0
   -4.1854   30.7789   21.5195 O   0  0  0  0  0  0  0  0  0  0  0  0
   -3.1000   29.8969   19.4973 C   0  0  2  0  0  0  0  0  0  0  0  0
   -3.1750   28.5650   19.9599 O   0  0  0  0  0  0  0  0  0  0  0  0
   -1.8349   30.0608   18.6014 C   0  0  2  0  0  0  0  0  0  0  0  0
   -1.7674   31.4203   18.1611 O   0  0  0  0  0  0  0  0  0  0  0  0
   -1.8636   29.1151   17.3563 C   0  0  0  0  0  0  0  0  0  0  0  0
   -2.5831   27.9154   17.6100 N   0  0  0  0  0  0  0  0  0  0  0  0
    3.7059   32.0464   19.5068 C   0  0  2  0  0  0  0  0  0  0  0  0
    5.0103   31.6220   18.9833 N   0  0  0  0  0  0  0  0  0  0  0  0
    2.9456   30.7735   20.1656 C   0  0  0  0  0  0  0  0  0  0  0  0
    1.5339   31.2339   20.7154 C   0  0  2  0  0  0  0  0  0  0  0  0
    0.7958   30.1009   21.3012 N   0  0  0  0  0  0  0  0  0  0  0  0
    0.6977   31.8556   19.5462 C   0  0  2  0  0  0  0  0  0  0  0  0
    1.4554   33.0631   18.9015 C   0  0  2  0  0  0  0  0  0  0  0  0
    0.6115   33.5530   17.8306 O   0  0  0  0  0  0  0  0  0  0  0  0
    2.8419   32.5909   18.3575 C   0  0  1  0  0  0  0  0  0  0  0  0
    3.4956   33.6833   17.8054 O   0  0  0  0  0  0  0  0  0  0  0  0
    0.6714   34.7933   17.2880 C   0  0  1  0  0  0  0  0  0  0  0  0
   -0.6179   35.1125   16.4871 C   0  0  2  0  0  0  0  0  0  0  0  0
   -0.5875   34.6198   15.1789 O   0  0  0  0  0  0  0  0  0  0  0  0
   -0.6756   36.6138   16.7005 C   0  0  1  0  0  0  0  0  0  0  0  0
   -0.1976   36.8752   18.1357 C   0  0  2  0  0  0  0  0  0  0  0  0
    0.8134   35.8738   18.2493 O   0  0  0  0  0  0  0  0  0  0  0  0
   -1.2906   36.7290   19.2487 C   0  0  0  0  0  0  0  0  0  0  0  0
   -1.9210   35.4328   19.0710 O   0  0  0  0  0  0  0  0  0  0  0  0
   -0.1909   38.4474   15.1116 C   0  0  2  0  0  0  0  0  0  0  0  0
    0.2220   37.2428   15.6968 O   0  0  0  0  0  0  0  0  0  0  0  0
    0.2491   39.6984   15.9897 C   0  0  1  0  0  0  0  0  0  0  0  0
   -4.5396   40.5365   13.2843 N   0  0  0  0  0  0  0  0  0  0  0  0
   -0.2954   41.0221   15.2361 C   0  0  1  0  0  0  0  0  0  0  0  0
    0.3036   41.0517   13.8440 O   0  0  0  0  0  0  0  0  0  0  0  0
   -1.9133   40.9828   15.1521 C   0  0  2  0  0  0  0  0  0  0  0  0
   -2.4611   40.9646   16.4921 O   0  0  0  0  0  0  0  0  0  0  0  0
   -2.3264   39.6692   14.2782 C   0  0  1  0  0  0  0  0  0  0  0  0
   -1.7351   38.4407   14.9132 O   0  0  0  0  0  0  0  0  0  0  0  0
   -3.8810   39.5061   14.1447 C   0  0  0  0  0  0  0  0  0  0  0  0
   -0.2787   39.5566   17.3869 N   0  0  0  0  0  0  0  0  0  0  0  0
  1  2  1  1  0  0  0
  1  3  1  0  0  0  0
  1 10  1  0  0  0  0
  3  4  1  1  0  0  0
  3  5  1  0  0  0  0
  5  6  1  6  0  0  0
  5  7  1  0  0  0  0
  7  8  1  1  0  0  0
  7  9  1  0  0  0  0
  9 10  1  0  0  0  0
  9 11  1  6  0  0  0
 11 12  1  0  0  0  0
 13 14  1  6  0  0  0
 13 15  1  0  0  0  0
 13 21  1  0  0  0  0
 16 15  1  0  0  0  0
 16 17  1  6  0  0  0
 18  2  1  1  0  0  0
 18 16  1  0  0  0  0
 19 18  1  0  0  0  0
 19 20  1  6  0  0  0
 21 19  1  0  0  0  0
 21 22  1  1  0  0  0
 23 20  1  1  0  0  0
 23 24  1  0  0  0  0
 23 28  1  0  0  0  0
 24 25  1  6  0  0  0
 24 26  1  0  0  0  0
 26 27  1  0  0  0  0
 26 32  1  6  0  0  0
 27 28  1  0  0  0  0
 27 29  1  1  0  0  0
 29 30  1  0  0  0  0
 31 32  1  1  0  0  0
 31 40  1  0  0  0  0
 33 31  1  0  0  0  0
 33 42  1  1  0  0  0
 35 33  1  0  0  0  0
 35 36  1  6  0  0  0
 37 35  1  0  0  0  0
 37 38  1  1  0  0  0
 37 39  1  0  0  0  0
 39 40  1  0  0  0  0
 39 41  1  1  0  0  0
 41 34  1  0  0  0  0
M  END
>  <CHROM.1>
157.13934209,-29.59225773,-157.72001479,158.79041739,-163.06421704,141.77451149
51.96608141,86.99449366,69.67142477,-0.66634203,34.59828889,17.82376788,1.49861414
0.05096156,2.68744703

>  <Name>
2et4_lig

>  <RI>
0

>  <Rbt.Current_Directory>
/home/itssahil/PROJECTS/Mol_Feturizer/New_Systems/rnas/2et4

>  <Rbt.Executable>
rbdock ($Id: //depot/dev/client3/rdock/2013.1/src/exe/rbdock.cxx#4 $)

>  <Rbt.Library>
libRbt.so (2013.1, Build901 2013/11/27)

>  <Rbt.Parameter_File>
/export/apps/rDock/src/rDock_2013.1_src/data/scripts/dock_solv.prm

>  <Rbt.Receptor>
prm/blind_docking_100.prm

>  <SCORE>
9.8401

>  <SCORE.INTER>
-1.54462

>  <SCORE.INTER.CONST>
1

>  <SCORE.INTER.POLAR>
0

>  <SCORE.INTER.ROT>
9

>  <SCORE.INTER.SOLV>
33.1511

>  <SCORE.INTER.VDW>
-21.6801

>  <SCORE.INTER.norm>
-0.0367767

>  <SCORE.INTRA>
1.37461

>  <SCORE.INTRA.DIHEDRAL>
-2.39321

>  <SCORE.INTRA.DIHEDRAL.0>
21.6909

>  <SCORE.INTRA.POLAR>
0

>  <SCORE.INTRA.POLAR.0>
0

>  <SCORE.INTRA.REPUL>
0

>  <SCORE.INTRA.REPUL.0>
0

>  <SCORE.INTRA.SOLV>
2.07696

>  <SCORE.INTRA.SOLV.lig_0>
-116.606

>  <SCORE.INTRA.VDW>
1.53273

>  <SCORE.INTRA.VDW.0>
-6.01229

>  <SCORE.INTRA.norm>
0.0327288

>  <SCORE.RESTR>
10.0101

>  <SCORE.RESTR.CAVITY>
10.0101

>  <SCORE.RESTR.norm>
0.238336

>  <SCORE.SYSTEM>
0

>  <SCORE.SYSTEM.CONST>
0

>  <SCORE.SYSTEM.DIHEDRAL>
0

>  <SCORE.SYSTEM.SOLV>
0

>  <SCORE.SYSTEM.norm>
0

>  <SCORE.heavy>
42

>  <SCORE.norm>
0.234288

>  <RMSD>
33.167

$$$$
2et4_lig
 OpenBabel11021811423D
libRbt.so/2013.1/901 2013/11/27
 42 45  0  0  0  0  0  0  0  0999 V2000
   -0.6676   31.8872   20.6461 C   0  0  2  0  0  0  0  0  0  0  0  0
   -0.4554   32.1499   19.2576 O   0  0  0  0  0  0  0  0  0  0  0  0
   -0.9665   30.3725   20.7843 C   0  0  2  0  0  0  0  0  0  0  0  0
    0.1053   29.5744   20.2459 N   0  0  0  0  0  0  0  0  0  0  0  0
   -2.3147   30.0489   20.0779 C   0  0  1  0  0  0  0  0  0  0  0  0
   -2.5889   28.6898   20.2175 O   0  0  0  0  0  0  0  0  0  0  0  0
   -3.4280   30.9471   20.7132 C   0  0  2  0  0  0  0  0  0  0  0  0
   -4.6712   30.6908   20.0951 O   0  0  0  0  0  0  0  0  0  0  0  0
   -3.0775   32.4582   20.5588 C   0  0  2  0  0  0  0  0  0  0  0  0
   -1.8066   32.6913   21.1730 O   0  0  0  0  0  0  0  0  0  0  0  0
   -4.1489   33.3859   21.2196 C   0  0  0  0  0  0  0  0  0  0  0  0
   -4.0092   33.4450   22.6331 N   0  0  0  0  0  0  0  0  0  0  0  0
    3.8503   32.1075   18.9198 C   0  0  2  0  0  0  0  0  0  0  0  0
    5.1940   32.2813   18.3542 N   0  0  0  0  0  0  0  0  0  0  0  0
    2.9963   31.0914   17.9867 C   0  0  0  0  0  0  0  0  0  0  0  0
    1.5439   30.9190   18.5933 C   0  0  2  0  0  0  0  0  0  0  0  0
    0.7229   30.0217   17.7611 N   0  0  0  0  0  0  0  0  0  0  0  0
    0.8519   32.3204   18.6928 C   0  0  2  0  0  0  0  0  0  0  0  0
    1.7003   33.2984   19.5712 C   0  0  2  0  0  0  0  0  0  0  0  0
    0.9872   34.5595   19.5873 O   0  0  0  0  0  0  0  0  0  0  0  0
    3.1268   33.4636   18.9553 C   0  0  1  0  0  0  0  0  0  0  0  0
    3.8594   34.3233   19.7613 O   0  0  0  0  0  0  0  0  0  0  0  0
    0.8020   35.3709   18.5179 C   0  0  1  0  0  0  0  0  0  0  0  0
   -0.0283   34.6597   17.4178 C   0  0  2  0  0  0  0  0  0  0  0  0
    0.7479   33.8547   16.5785 O   0  0  0  0  0  0  0  0  0  0  0  0
   -0.7352   35.8644   16.8246 C   0  0  1  0  0  0  0  0  0  0  0  0
   -1.0627   36.8047   17.9931 C   0  0  2  0  0  0  0  0  0  0  0  0
    0.0945   36.6073   18.8053 O   0  0  0  0  0  0  0  0  0  0  0  0
   -2.3833   36.4802   18.7712 C   0  0  0  0  0  0  0  0  0  0  0  0
   -2.4352   37.3605   19.9251 O   0  0  0  0  0  0  0  0  0  0  0  0
   -0.2407   37.6426   15.1769 C   0  0  2  0  0  0  0  0  0  0  0  0
    0.1957   36.4952   15.8529 O   0  0  0  0  0  0  0  0  0  0  0  0
    0.3418   38.9640   15.8433 C   0  0  1  0  0  0  0  0  0  0  0  0
   -4.7001   39.8867   13.8413 N   0  0  0  0  0  0  0  0  0  0  0  0
   -0.2408   40.2165   15.0015 C   0  0  1  0  0  0  0  0  0  0  0  0
    0.1923   40.0561   13.5579 O   0  0  0  0  0  0  0  0  0  0  0  0
   -1.8579   40.2457   15.1043 C   0  0  2  0  0  0  0  0  0  0  0  0
   -2.2458   40.4089   16.4895 O   0  0  0  0  0  0  0  0  0  0  0  0
   -2.4153   38.8613   14.4465 C   0  0  1  0  0  0  0  0  0  0  0  0
   -1.7968   37.6874   15.1546 O   0  0  0  0  0  0  0  0  0  0  0  0
   -3.9796   38.7591   14.5083 C   0  0  0  0  0  0  0  0  0  0  0  0
   -0.0239   39.0103   17.2976 N   0  0  0  0  0  0  0  0  0  0  0  0
  1  2  1  6  0  0  0
  1  3  1  0  0  0  0
  1 10  1  0  0  0  0
  3  4  1  6  0  0  0
  3  5  1  0  0  0  0
  5  6  1  1  0  0  0
  5  7  1  0  0  0  0
  7  8  1  6  0  0  0
  7  9  1  0  0  0  0
  9 10  1  0  0  0  0
  9 11  1  1  0  0  0
 11 12  1  0  0  0  0
 13 14  1  6  0  0  0
 13 15  1  0  0  0  0
 13 21  1  0  0  0  0
 16 15  1  0  0  0  0
 16 17  1  6  0  0  0
 18  2  1  1  0  0  0
 18 16  1  0  0  0  0
 19 18  1  0  0  0  0
 19 20  1  6  0  0  0
 21 19  1  0  0  0  0
 21 22  1  1  0  0  0
 23 20  1  1  0  0  0
 23 24  1  0  0  0  0
 23 28  1  0  0  0  0
 24 25  1  6  0  0  0
 24 26  1  0  0  0  0
 26 27  1  0  0  0  0
 26 32  1  6  0  0  0
 27 28  1  0  0  0  0
 27 29  1  1  0  0  0
 29 30  1  0  0  0  0
 31 32  1  1  0  0  0
 31 40  1  0  0  0  0
 33 31  1  0  0  0  0
 33 42  1  1  0  0  0
 35 33  1  0  0  0  0
 35 36  1  6  0  0  0
 37 35  1  0  0  0  0
 37 38  1  1  0  0  0
 37 39  1  0  0  0  0
 39 40  1  0  0  0  0
 39 41  1  1  0  0  0
 41 34  1  0  0  0  0
M  END
>  <CHROM.1>
-102.04717492,77.92666988,74.67983903,-66.84842510,62.49267898,-179.68721512
173.05397082,99.63962016,57.45988125,-0.61273185,34.68593994,18.16778524
1.45996678,-0.21028866,2.59368170

>  <Name>
2et4_lig

>  <RI>
0

>  <Rbt.Current_Directory>
/home/itssahil/PROJECTS/Mol_Feturizer/New_Systems/rnas/2et4

>  <Rbt.Executable>
rbdock ($Id: //depot/dev/client3/rdock/2013.1/src/exe/rbdock.cxx#4 $)

>  <Rbt.Library>
libRbt.so (2013.1, Build901 2013/11/27)

>  <Rbt.Parameter_File>
/export/apps/rDock/src/rDock_2013.1_src/data/scripts/dock_solv.prm

>  <Rbt.Receptor>
prm/blind_docking_100.prm

>  <SCORE>
45.9085

>  <SCORE.INTER>
28.7027

>  <SCORE.INTER.CONST>
1

>  <SCORE.INTER.POLAR>
-0.0235275

>  <SCORE.INTER.ROT>
9

>  <SCORE.INTER.SOLV>
35.6093

>  <SCORE.INTER.VDW>
-2.25624

>  <SCORE.INTER.norm>
0.683397

>  <SCORE.INTRA>
5.98342

>  <SCORE.INTRA.DIHEDRAL>
-7.92984

>  <SCORE.INTRA.DIHEDRAL.0>
21.6909

>  <SCORE.INTRA.POLAR>
0

>  <SCORE.INTRA.POLAR.0>
0

>  <SCORE.INTRA.REPUL>
0

>  <SCORE.INTRA.REPUL.0>
0

>  <SCORE.INTRA.SOLV>
6.33676

>  <SCORE.INTRA.SOLV.lig_0>
-116.606

>  <SCORE.INTRA.VDW>
6.77996

>  <SCORE.INTRA.VDW.0>
-6.01229

>  <SCORE.INTRA.norm>
0.142462

>  <SCORE.RESTR>
11.2224

>  <SCORE.RESTR.CAVITY>
11.2224

>  <SCORE.RESTR.norm>
0.267201

>  <SCORE.SYSTEM>
0

>  <SCORE.SYSTEM.CONST>
0

>  <SCORE.SYSTEM.DIHEDRAL>
0

>  <SCORE.SYSTEM.SOLV>
0

>  <SCORE.SYSTEM.norm>
0

>  <SCORE.heavy>
42

>  <SCORE.norm>
1.09306

>  <RMSD>
33.230

$$$$
2et4_lig
 OpenBabel11021811423D
libRbt.so/2013.1/901 2013/11/27
 42 45  0  0  0  0  0  0  0  0999 V2000
   -1.8930   32.5820   18.6508 C   0  0  2  0  0  0  0  0  0  0  0  0
   -0.7487   32.6875   19.5003 O   0  0  0  0  0  0  0  0  0  0  0  0
   -3.0788   32.1218   19.5366 C   0  0  2  0  0  0  0  0  0  0  0  0
   -3.3044   33.0349   20.6280 N   0  0  0  0  0  0  0  0  0  0  0  0
   -2.8011   30.6827   20.0592 C   0  0  1  0  0  0  0  0  0  0  0  0
   -3.8758   30.2654   20.8418 O   0  0  0  0  0  0  0  0  0  0  0  0
   -2.5692   29.7499   18.8239 C   0  0  2  0  0  0  0  0  0  0  0  0
   -2.3055   28.4309   19.2532 O   0  0  0  0  0  0  0  0  0  0  0  0
   -1.3756   30.2590   17.9601 C   0  0  2  0  0  0  0  0  0  0  0  0
   -1.6540   31.6021   17.5535 O   0  0  0  0  0  0  0  0  0  0  0  0
   -1.1408   29.3734   16.6927 C   0  0  0  0  0  0  0  0  0  0  0  0
   -2.0039   29.7306   15.6210 N   0  0  0  0  0  0  0  0  0  0  0  0
    3.5302   32.1002   19.4686 C   0  0  2  0  0  0  0  0  0  0  0  0
    4.8494   31.5672   19.1063 N   0  0  0  0  0  0  0  0  0  0  0  0
    2.5937   30.8979   20.0253 C   0  0  0  0  0  0  0  0  0  0  0  0
    1.1681   31.4757   20.4008 C   0  0  2  0  0  0  0  0  0  0  0  0
    0.2739   30.4106   20.8883 N   0  0  0  0  0  0  0  0  0  0  0  0
    0.5341   32.1562   19.1408 C   0  0  2  0  0  0  0  0  0  0  0  0
    1.4609   33.2936   18.5976 C   0  0  2  0  0  0  0  0  0  0  0  0
    0.7966   33.8441   17.4337 O   0  0  0  0  0  0  0  0  0  0  0  0
    2.8599   32.7061   18.2247 C   0  0  1  0  0  0  0  0  0  0  0  0
    3.6632   33.7379   17.7603 O   0  0  0  0  0  0  0  0  0  0  0  0
    0.7186   35.1607   17.1230 C   0  0  1  0  0  0  0  0  0  0  0  0
   -0.5915   35.4738   16.3542 C   0  0  2  0  0  0  0  0  0  0  0  0
   -0.4932   35.2320   14.9806 O   0  0  0  0  0  0  0  0  0  0  0  0
   -0.8231   36.8961   16.8302 C   0  0  1  0  0  0  0  0  0  0  0  0
   -0.3910   36.9455   18.3025 C   0  0  2  0  0  0  0  0  0  0  0  0
    0.7271   36.0589   18.2654 O   0  0  0  0  0  0  0  0  0  0  0  0
   -1.4700   36.4801   19.3388 C   0  0  0  0  0  0  0  0  0  0  0  0
   -1.9391   35.1712   18.9196 O   0  0  0  0  0  0  0  0  0  0  0  0
   -0.3832   39.1337   15.8705 C   0  0  2  0  0  0  0  0  0  0  0  0
    0.0054   37.7918   15.9816 O   0  0  0  0  0  0  0  0  0  0  0  0
   -1.8902   39.2612   15.3781 C   0  0  1  0  0  0  0  0  0  0  0  0
    0.7370   42.5088   12.4316 N   0  0  0  0  0  0  0  0  0  0  0  0
   -2.2205   40.8407   15.2653 C   0  0  1  0  0  0  0  0  0  0  0  0
   -2.0013   41.4663   16.6284 O   0  0  0  0  0  0  0  0  0  0  0  0
   -1.2491   41.5303   14.1666 C   0  0  2  0  0  0  0  0  0  0  0  0
   -1.4836   40.9232   12.8734 O   0  0  0  0  0  0  0  0  0  0  0  0
    0.2858   41.3468   14.6865 C   0  0  1  0  0  0  0  0  0  0  0  0
    0.5708   39.8850   14.8962 O   0  0  0  0  0  0  0  0  0  0  0  0
    1.3308   41.9571   13.6880 C   0  0  0  0  0  0  0  0  0  0  0  0
   -2.0711   38.5274   14.0821 N   0  0  0  0  0  0  0  0  0  0  0  0
  1  2  1  1  0  0  0
  1  3  1  0  0  0  0
  1 10  1  0  0  0  0
  3  4  1  1  0  0  0
  3  5  1  0  0  0  0
  5  6  1  6  0  0  0
  5  7  1  0  0  0  0
  7  8  1  1  0  0  0
  7  9  1  0  0  0  0
  9 10  1  0  0  0  0
  9 11  1  6  0  0  0
 11 12  1  0  0  0  0
 13 14  1  6  0  0  0
 13 15  1  0  0  0  0
 13 21  1  0  0  0  0
 16 15  1  0  0  0  0
 16 17  1  6  0  0  0
 18  2  1  1  0  0  0
 18 16  1  0  0  0  0
 19 18  1  0  0  0  0
 19 20  1  6  0  0  0
 21 19  1  0  0  0  0
 21 22  1  1  0  0  0
 23 20  1  1  0  0  0
 23 24  1  0  0  0  0
 23 28  1  0  0  0  0
 24 25  1  6  0  0  0
 24 26  1  0  0  0  0
 26 27  1  0  0  0  0
 26 32  1  6  0  0  0
 27 28  1  0  0  0  0
 27 29  1  1  0  0  0
 29 30  1  0  0  0  0
 31 32  1  6  0  0  0
 31 40  1  0  0  0  0
 33 31  1  0  0  0  0
 33 42  1  6  0  0  0
 35 33  1  0  0  0  0
 35 36  1  1  0  0  0
 37 35  1  0  0  0  0
 37 38  1  6  0  0  0
 37 39  1  0  0  0  0
 39 40  1  0  0  0  0
 39 41  1  6  0  0  0
 41 34  1  0  0  0  0
M  END
>  <CHROM.1>
133.96149281,82.74891667,-138.47999887,138.76066697,-149.35764763,156.69369549
52.36330394,-54.89846782,-3.43405194,-0.42994598,34.89856717,17.42221646
1.58116645,0.02284677,2.69944116

>  <Name>
2et4_lig

>  <RI>
0

>  <Rbt.Current_Directory>
/home/itssahil/PROJECTS/Mol_Feturizer/New_Systems/rnas/2et4

>  <Rbt.Executable>
rbdock ($Id: //depot/dev/client3/rdock/2013.1/src/exe/rbdock.cxx#4 $)

>  <Rbt.Library>
libRbt.so (2013.1, Build901 2013/11/27)

>  <Rbt.Parameter_File>
/export/apps/rDock/src/rDock_2013.1_src/data/scripts/dock_solv.prm

>  <Rbt.Receptor>
prm/blind_docking_100.prm

>  <SCORE>
13.4213

>  <SCORE.INTER>
-4.60244

>  <SCORE.INTER.CONST>
1

>  <SCORE.INTER.POLAR>
-0.847555

>  <SCORE.INTER.ROT>
9

>  <SCORE.INTER.SOLV>
28.9058

>  <SCORE.INTER.VDW>
-19.4784

>  <SCORE.INTER.norm>
-0.109582

>  <SCORE.INTRA>
8.59947

>  <SCORE.INTRA.DIHEDRAL>
9.27256

>  <SCORE.INTRA.DIHEDRAL.0>
21.6909

>  <SCORE.INTRA.POLAR>
0

>  <SCORE.INTRA.POLAR.0>
0

>  <SCORE.INTRA.REPUL>
0

>  <SCORE.INTRA.REPUL.0>
0

>  <SCORE.INTRA.SOLV>
4.29415

>  <SCORE.INTRA.SOLV.lig_0>
-116.606

>  <SCORE.INTRA.VDW>
1.81611

>  <SCORE.INTRA.VDW.0>
-6.01229

>  <SCORE.INTRA.norm>
0.204749

>  <SCORE.RESTR>
9.42425

>  <SCORE.RESTR.CAVITY>
9.42425

>  <SCORE.RESTR.norm>
0.224387

>  <SCORE.SYSTEM>
0

>  <SCORE.SYSTEM.CONST>
0

>  <SCORE.SYSTEM.DIHEDRAL>
0

>  <SCORE.SYSTEM.SOLV>
0

>  <SCORE.SYSTEM.norm>
0

>  <SCORE.heavy>
42

>  <SCORE.norm>
0.319554

>  <RMSD>
33.242

$$$$
2et4_lig
 OpenBabel11021811423D
libRbt.so/2013.1/901 2013/11/27
 42 45  0  0  0  0  0  0  0  0999 V2000
   -3.3389   30.4037   19.4752 C   0  0  2  0  0  0  0  0  0  0  0  0
   -3.0686   31.2749   18.3751 O   0  0  0  0  0  0  0  0  0  0  0  0
   -4.5937   30.9563   20.1982 C   0  0  2  0  0  0  0  0  0  0  0  0
   -5.7174   31.0512   19.3016 N   0  0  0  0  0  0  0  0  0  0  0  0
   -4.2579   32.3412   20.8231 C   0  0  1  0  0  0  0  0  0  0  0  0
   -5.3826   32.8282   21.4861 O   0  0  0  0  0  0  0  0  0  0  0  0
   -3.0349   32.1611   21.7832 C   0  0  2  0  0  0  0  0  0  0  0  0
   -2.6900   33.3988   22.3688 O   0  0  0  0  0  0  0  0  0  0  0  0
   -1.8036   31.5943   21.0135 C   0  0  2  0  0  0  0  0  0  0  0  0
   -2.1806   30.3523   20.4119 O   0  0  0  0  0  0  0  0  0  0  0  0
   -0.5737   31.3621   21.9511 C   0  0  0  0  0  0  0  0  0  0  0  0
    0.5729   30.9244   21.2337 N   0  0  0  0  0  0  0  0  0  0  0  0
    1.2363   31.1539   18.0470 C   0  0  2  0  0  0  0  0  0  0  0  0
    2.5851   31.3175   17.4905 N   0  0  0  0  0  0  0  0  0  0  0  0
    0.3645   30.1854   17.0803 C   0  0  0  0  0  0  0  0  0  0  0  0
   -1.0931   30.0243   17.6775 C   0  0  2  0  0  0  0  0  0  0  0  0
   -1.9298   29.1707   16.8156 N   0  0  0  0  0  0  0  0  0  0  0  0
   -1.7564   31.4359   17.8193 C   0  0  2  0  0  0  0  0  0  0  0  0
   -0.8907   32.3681   18.7300 C   0  0  2  0  0  0  0  0  0  0  0  0
   -1.5776   33.6426   18.7840 O   0  0  0  0  0  0  0  0  0  0  0  0
    0.5408   32.5229   18.1232 C   0  0  1  0  0  0  0  0  0  0  0  0
    1.2885   33.3416   18.9577 O   0  0  0  0  0  0  0  0  0  0  0  0
   -1.7205   34.5025   17.7464 C   0  0  1  0  0  0  0  0  0  0  0  0
   -0.3876   35.2359   17.4448 C   0  0  2  0  0  0  0  0  0  0  0  0
   -0.1848   36.3599   18.2514 O   0  0  0  0  0  0  0  0  0  0  0  0
   -0.5464   35.4306   15.9482 C   0  0  1  0  0  0  0  0  0  0  0  0
   -1.2369   34.1700   15.4090 C   0  0  2  0  0  0  0  0  0  0  0  0
   -2.1209   33.8855   16.4931 O   0  0  0  0  0  0  0  0  0  0  0  0
   -0.2892   32.9620   15.0972 C   0  0  0  0  0  0  0  0  0  0  0  0
   -1.1217   31.7792   14.9660 O   0  0  0  0  0  0  0  0  0  0  0  0
   -0.7153   37.8672   15.5530 C   0  0  2  0  0  0  0  0  0  0  0  0
   -1.3765   36.6459   15.7411 O   0  0  0  0  0  0  0  0  0  0  0  0
   -0.2552   38.4960   16.9395 C   0  0  1  0  0  0  0  0  0  0  0  0
   -3.3180   41.4513   14.5164 N   0  0  0  0  0  0  0  0  0  0  0  0
    0.4709   39.9023   16.6050 C   0  0  1  0  0  0  0  0  0  0  0  0
    1.6384   39.6214   15.6801 O   0  0  0  0  0  0  0  0  0  0  0  0
   -0.5803   40.9105   15.8945 C   0  0  2  0  0  0  0  0  0  0  0  0
   -1.6798   41.1703   16.7999 O   0  0  0  0  0  0  0  0  0  0  0  0
   -1.0570   40.2161   14.4979 C   0  0  1  0  0  0  0  0  0  0  0  0
   -1.6388   38.8598   14.7875 O   0  0  0  0  0  0  0  0  0  0  0  0
   -2.1029   41.0917   13.7228 C   0  0  0  0  0  0  0  0  0  0  0  0
   -1.4358   38.6451   17.8532 N   0  0  0  0  0  0  0  0  0  0  0  0
  1  2  1  6  0  0  0
  1  3  1  0  0  0  0
  1 10  1  0  0  0  0
  3  4  1  6  0  0  0
  3  5  1  0  0  0  0
  5  6  1  1  0  0  0
  5  7  1  0  0  0  0
  7  8  1  6  0  0  0
  7  9  1  0  0  0  0
  9 10  1  0  0  0  0
  9 11  1  1  0  0  0
 11 12  1  0  0  0  0
 13 14  1  6  0  0  0
 13 15  1  0  0  0  0
 13 21  1  0  0  0  0
 16 15  1  0  0  0  0
 16 17  1  6  0  0  0
 18  2  1  1  0  0  0
 18 16  1  0  0  0  0
 19 18  1  0  0  0  0
 19 20  1  6  0  0  0
 21 19  1  0  0  0  0
 21 22  1  1  0  0  0
 23 20  1  1  0  0  0
 23 24  1  0  0  0  0
 23 28  1  0  0  0  0
 24 25  1  1  0  0  0
 24 26  1  0  0  0  0
 26 27  1  0  0  0  0
 26 32  1  1  0  0  0
 27 28  1  0  0  0  0
 27 29  1  1  0  0  0
 29 30  1  0  0  0  0
 31 32  1  1  0  0  0
 31 40  1  0  0  0  0
 33 31  1  0  0  0  0
 33 42  1  1  0  0  0
 35 33  1  0  0  0  0
 35 36  1  6  0  0  0
 37 35  1  0  0  0  0
 37 38  1  1  0  0  0
 37 39  1  0  0  0  0
 39 40  1  0  0  0  0
 39 41  1  1  0  0  0
 41 34  1  0  0  0  0
M  END
>  <CHROM.1>
153.89543987,-176.33863762,44.01822662,-68.19293840,-74.25275720,93.68403986
164.41567832,-80.90920823,-55.51710506,-1.36558081,34.38105375,17.80994874
1.71596862,-0.73289178,2.79423425

>  <Name>
2et4_lig

>  <RI>
0

>  <Rbt.Current_Directory>
/home/itssahil/PROJECTS/Mol_Feturizer/New_Systems/rnas/2et4

>  <Rbt.Executable>
rbdock ($Id: //depot/dev/client3/rdock/2013.1/src/exe/rbdock.cxx#4 $)

>  <Rbt.Library>
libRbt.so (2013.1, Build901 2013/11/27)

>  <Rbt.Parameter_File>
/export/apps/rDock/src/rDock_2013.1_src/data/scripts/dock_solv.prm

>  <Rbt.Receptor>
prm/blind_docking_100.prm

>  <SCORE>
32.4217

>  <SCORE.INTER>
10.7962

>  <SCORE.INTER.CONST>
1

>  <SCORE.INTER.POLAR>
-0.408171

>  <SCORE.INTER.ROT>
9

>  <SCORE.INTER.SOLV>
23.5739

>  <SCORE.INTER.VDW>
-8.8999

>  <SCORE.INTER.norm>
0.257053

>  <SCORE.INTRA>
5.3528

>  <SCORE.INTRA.DIHEDRAL>
-9.04005

>  <SCORE.INTRA.DIHEDRAL.0>
21.6909

>  <SCORE.INTRA.POLAR>
0

>  <SCORE.INTRA.POLAR.0>
0

>  <SCORE.INTRA.REPUL>
0

>  <SCORE.INTRA.REPUL.0>
0

>  <SCORE.INTRA.SOLV>
7.45626

>  <SCORE.INTRA.SOLV.lig_0>
-116.606

>  <SCORE.INTRA.VDW>
6.1447

>  <SCORE.INTRA.VDW.0>
-6.01229

>  <SCORE.INTRA.norm>
0.127448

>  <SCORE.RESTR>
16.2727

>  <SCORE.RESTR.CAVITY>
16.2727

>  <SCORE.RESTR.norm>
0.387444

>  <SCORE.SYSTEM>
0

>  <SCORE.SYSTEM.CONST>
0

>  <SCORE.SYSTEM.DIHEDRAL>
0

>  <SCORE.SYSTEM.SOLV>
0

>  <SCORE.SYSTEM.norm>
0

>  <SCORE.heavy>
42

>  <SCORE.norm>
0.771945

>  <RMSD>
33.271

$$$$
2et4_lig
 OpenBabel11021811423D
libRbt.so/2013.1/901 2013/11/27
 42 45  0  0  0  0  0  0  0  0999 V2000
    0.7141   30.2338   17.8291 C   0  0  2  0  0  0  0  0  0  0  0  0
    0.9252   31.5309   17.2678 O   0  0  0  0  0  0  0  0  0  0  0  0
   -0.7561   29.8416   17.5333 C   0  0  2  0  0  0  0  0  0  0  0  0
   -1.0316   29.8646   16.1194 N   0  0  0  0  0  0  0  0  0  0  0  0
   -1.7082   30.8005   18.3047 C   0  0  1  0  0  0  0  0  0  0  0  0
   -3.0288   30.4356   18.0500 O   0  0  0  0  0  0  0  0  0  0  0  0
   -1.3540   30.7213   19.8273 C   0  0  2  0  0  0  0  0  0  0  0  0
   -2.1918   31.5842   20.5670 O   0  0  0  0  0  0  0  0  0  0  0  0
    0.1346   31.1137   20.0721 C   0  0  2  0  0  0  0  0  0  0  0  0
    0.9638   30.2414   19.2985 O   0  0  0  0  0  0  0  0  0  0  0  0
    0.5360   31.0058   21.5796 C   0  0  0  0  0  0  0  0  0  0  0  0
    1.9461   30.9904   21.7598 N   0  0  0  0  0  0  0  0  0  0  0  0
    3.5488   33.6404   19.9736 C   0  0  2  0  0  0  0  0  0  0  0  0
    4.6014   34.5438   20.4547 N   0  0  0  0  0  0  0  0  0  0  0  0
    4.1973   32.5306   18.9836 C   0  0  0  0  0  0  0  0  0  0  0  0
    3.0557   31.5683   18.4565 C   0  0  2  0  0  0  0  0  0  0  0  0
    3.5972   30.5573   17.5311 N   0  0  0  0  0  0  0  0  0  0  0  0
    1.9587   32.4137   17.7254 C   0  0  2  0  0  0  0  0  0  0  0  0
    1.3629   33.4984   18.6827 C   0  0  2  0  0  0  0  0  0  0  0  0
    0.3771   34.2291   17.9123 O   0  0  0  0  0  0  0  0  0  0  0  0
    2.5000   34.4438   19.1873 C   0  0  1  0  0  0  0  0  0  0  0  0
    1.9454   35.3847   20.0433 O   0  0  0  0  0  0  0  0  0  0  0  0
    0.3558   35.5726   17.7367 C   0  0  1  0  0  0  0  0  0  0  0  0
   -0.7423   35.9831   16.7212 C   0  0  2  0  0  0  0  0  0  0  0  0
   -0.3218   35.8908   15.3909 O   0  0  0  0  0  0  0  0  0  0  0  0
   -1.0985   37.3478   17.2810 C   0  0  1  0  0  0  0  0  0  0  0  0
   -1.0239   37.2318   18.8100 C   0  0  2  0  0  0  0  0  0  0  0  0
    0.0841   36.3411   18.9398 O   0  0  0  0  0  0  0  0  0  0  0  0
   -2.3088   36.6694   19.5081 C   0  0  0  0  0  0  0  0  0  0  0  0
   -3.4476   37.3920   18.9694 O   0  0  0  0  0  0  0  0  0  0  0  0
   -0.4327   39.0174   15.5809 C   0  0  2  0  0  0  0  0  0  0  0  0
   -0.1070   38.3205   16.7523 O   0  0  0  0  0  0  0  0  0  0  0  0
    0.1358   40.5025   15.6138 C   0  0  1  0  0  0  0  0  0  0  0  0
   -4.7382   40.9577   14.3621 N   0  0  0  0  0  0  0  0  0  0  0  0
   -0.3155   41.2140   14.2329 C   0  0  1  0  0  0  0  0  0  0  0  0
    0.2450   40.4043   13.0807 O   0  0  0  0  0  0  0  0  0  0  0  0
   -1.9327   41.2727   14.1455 C   0  0  2  0  0  0  0  0  0  0  0  0
   -2.4427   42.0582   15.2496 O   0  0  0  0  0  0  0  0  0  0  0  0
   -2.4794   39.7362   14.1520 C   0  0  1  0  0  0  0  0  0  0  0  0
   -1.9768   39.0324   15.3825 O   0  0  0  0  0  0  0  0  0  0  0  0
   -4.0454   39.6599   14.0949 C   0  0  0  0  0  0  0  0  0  0  0  0
   -0.3632   41.2168   16.8351 N   0  0  0  0  0  0  0  0  0  0  0  0
  1  2  1  1  0  0  0
  1  3  1  0  0  0  0
  1 10  1  0  0  0  0
  3  4  1  6  0  0  0
  3  5  1  0  0  0  0
  5  6  1  1  0  0  0
  5  7  1  0  0  0  0
  7  8  1  1  0  0  0
  7  9  1  0  0  0  0
  9 10  1  0  0  0  0
  9 11  1  1  0  0  0
 11 12  1  0  0  0  0
 13 14  1  6  0  0  0
 13 15  1  0  0  0  0
 13 21  1  0  0  0  0
 16 15  1  0  0  0  0
 16 17  1  6  0  0  0
 18  2  1  1  0  0  0
 18 16  1  0  0  0  0
 19 18  1  0  0  0  0
 19 20  1  6  0  0  0
 21 19  1  0  0  0  0
 21 22  1  1  0  0  0
 23 20  1  1  0  0  0
 23 24  1  0  0  0  0
 23 28  1  0  0  0  0
 24 25  1  6  0  0  0
 24 26  1  0  0  0  0
 26 27  1  0  0  0  0
 26 32  1  6  0  0  0
 27 28  1  0  0  0  0
 27 29  1  6  0  0  0
 29 30  1  0  0  0  0
 31 32  1  1  0  0  0
 31 40  1  0  0  0  0
 33 31  1  0  0  0  0
 33 42  1  1  0  0  0
 35 33  1  0  0  0  0
 35 36  1  6  0  0  0
 37 35  1  0  0  0  0
 37 38  1  1  0  0  0
 37 39  1  0  0  0  0
 39 40  1  0  0  0  0
 39 41  1  1  0  0  0
 41 34  1  0  0  0  0
M  END
>  <CHROM.1>
157.09699356,163.42583516,21.14737422,-125.13825369,173.32433962,93.58651707
-48.17761945,144.70963939,-13.40597276,-0.14294568,35.18886934,17.61676273
1.28617293,0.30451373,2.80670771

>  <Name>
2et4_lig

>  <RI>
0

>  <Rbt.Current_Directory>
/home/itssahil/PROJECTS/Mol_Feturizer/New_Systems/rnas/2et4

>  <Rbt.Executable>
rbdock ($Id: //depot/dev/client3/rdock/2013.1/src/exe/rbdock.cxx#4 $)

>  <Rbt.Library>
libRbt.so (2013.1, Build901 2013/11/27)

>  <Rbt.Parameter_File>
/export/apps/rDock/src/rDock_2013.1_src/data/scripts/dock_solv.prm

>  <Rbt.Receptor>
prm/blind_docking_100.prm

>  <SCORE>
36.9941

>  <SCORE.INTER>
12.5997

>  <SCORE.INTER.CONST>
1

>  <SCORE.INTER.POLAR>
-0.437016

>  <SCORE.INTER.ROT>
9

>  <SCORE.INTER.SOLV>
31.9638

>  <SCORE.INTER.VDW>
-10.3981

>  <SCORE.INTER.norm>
0.299992

>  <SCORE.INTRA>
11.4415

>  <SCORE.INTRA.DIHEDRAL>
8.05863

>  <SCORE.INTRA.DIHEDRAL.0>
21.6909

>  <SCORE.INTRA.POLAR>
0

>  <SCORE.INTRA.POLAR.0>
0

>  <SCORE.INTRA.REPUL>
0

>  <SCORE.INTRA.REPUL.0>
0

>  <SCORE.INTRA.SOLV>
1.81069

>  <SCORE.INTRA.SOLV.lig_0>
-116.606

>  <SCORE.INTRA.VDW>
6.50684

>  <SCORE.INTRA.VDW.0>
-6.01229

>  <SCORE.INTRA.norm>
0.272417

>  <SCORE.RESTR>
12.9529

>  <SCORE.RESTR.CAVITY>
12.9529

>  <SCORE.RESTR.norm>
0.308403

>  <SCORE.SYSTEM>
0

>  <SCORE.SYSTEM.CONST>
0

>  <SCORE.SYSTEM.DIHEDRAL>
0

>  <SCORE.SYSTEM.SOLV>
0

>  <SCORE.SYSTEM.norm>
0

>  <SCORE.heavy>
42

>  <SCORE.norm>
0.880812

>  <RMSD>
33.298

$$$$
2et4_lig
 OpenBabel11021811423D
libRbt.so/2013.1/901 2013/11/27
 42 45  0  0  0  0  0  0  0  0999 V2000
    0.6155   30.2485   17.9349 C   0  0  2  0  0  0  0  0  0  0  0  0
    0.8016   31.5076   17.2851 O   0  0  0  0  0  0  0  0  0  0  0  0
   -0.6698   29.6148   17.3440 C   0  0  2  0  0  0  0  0  0  0  0  0
   -0.5745   29.4704   15.9137 N   0  0  0  0  0  0  0  0  0  0  0  0
   -1.8987   30.4842   17.7381 C   0  0  1  0  0  0  0  0  0  0  0  0
   -3.0544   29.9036   17.2193 O   0  0  0  0  0  0  0  0  0  0  0  0
   -1.9394   30.5948   19.2989 C   0  0  2  0  0  0  0  0  0  0  0  0
   -3.0386   31.3840   19.7019 O   0  0  0  0  0  0  0  0  0  0  0  0
   -0.6234   31.2268   19.8452 C   0  0  2  0  0  0  0  0  0  0  0  0
    0.4774   30.4241   19.4086 O   0  0  0  0  0  0  0  0  0  0  0  0
   -0.6116   31.3150   21.4065 C   0  0  0  0  0  0  0  0  0  0  0  0
   -1.7710   31.9606   21.9163 N   0  0  0  0  0  0  0  0  0  0  0  0
    3.3388   33.8332   19.8946 C   0  0  2  0  0  0  0  0  0  0  0  0
    4.3485   34.8036   20.3355 N   0  0  0  0  0  0  0  0  0  0  0  0
    4.0339   32.7258   18.9339 C   0  0  0  0  0  0  0  0  0  0  0  0
    2.9378   31.6906   18.4499 C   0  0  2  0  0  0  0  0  0  0  0  0
    3.5216   30.6787   17.5517 N   0  0  0  0  0  0  0  0  0  0  0  0
    1.7931   32.4556   17.7035 C   0  0  2  0  0  0  0  0  0  0  0  0
    1.1516   33.5395   18.6317 C   0  0  2  0  0  0  0  0  0  0  0  0
    0.1234   34.1943   17.8486 O   0  0  0  0  0  0  0  0  0  0  0  0
    2.2438   34.5568   19.0939 C   0  0  1  0  0  0  0  0  0  0  0  0
    1.6498   35.4960   19.9251 O   0  0  0  0  0  0  0  0  0  0  0  0
    0.2740   35.3578   17.1705 C   0  0  1  0  0  0  0  0  0  0  0  0
   -1.0553   35.7828   16.4938 C   0  0  2  0  0  0  0  0  0  0  0  0
   -1.2592   35.1722   15.2526 O   0  0  0  0  0  0  0  0  0  0  0  0
   -0.8884   37.2902   16.5471 C   0  0  1  0  0  0  0  0  0  0  0  0
   -0.1987   37.6119   17.8803 C   0  0  2  0  0  0  0  0  0  0  0  0
    0.6790   36.4910   17.9851 O   0  0  0  0  0  0  0  0  0  0  0  0
   -1.1481   37.7270   19.1213 C   0  0  0  0  0  0  0  0  0  0  0  0
   -2.4237   38.2339   18.6470 O   0  0  0  0  0  0  0  0  0  0  0  0
   -0.3210   38.9242   14.7780 C   0  0  2  0  0  0  0  0  0  0  0  0
   -0.0540   37.6889   15.3837 O   0  0  0  0  0  0  0  0  0  0  0  0
    0.4183   40.1118   15.5348 C   0  0  1  0  0  0  0  0  0  0  0  0
   -4.5759   39.4447   13.4586 N   0  0  0  0  0  0  0  0  0  0  0  0
    0.0237   41.4809   14.7688 C   0  0  1  0  0  0  0  0  0  0  0  0
    0.4603   41.3543   13.3228 O   0  0  0  0  0  0  0  0  0  0  0  0
   -1.5769   41.7194   14.8547 C   0  0  2  0  0  0  0  0  0  0  0  0
   -1.9673   41.8463   16.2431 O   0  0  0  0  0  0  0  0  0  0  0  0
   -2.2998   40.4656   14.1029 C   0  0  1  0  0  0  0  0  0  0  0  0
   -1.8566   39.1778   14.7409 O   0  0  0  0  0  0  0  0  0  0  0  0
   -3.8647   40.5695   14.1401 C   0  0  0  0  0  0  0  0  0  0  0  0
    0.0331   40.1159   16.9847 N   0  0  0  0  0  0  0  0  0  0  0  0
  1  2  1  6  0  0  0
  1  3  1  0  0  0  0
  1 10  1  0  0  0  0
  3  4  1  6  0  0  0
  3  5  1  0  0  0  0
  5  6  1  1  0  0  0
  5  7  1  0  0  0  0
  7  8  1  6  0  0  0
  7  9  1  0  0  0  0
  9 10  1  0  0  0  0
  9 11  1  1  0  0  0
 11 12  1  0  0  0  0
 13 14  1  6  0  0  0
 13 15  1  0  0  0  0
 13 21  1  0  0  0  0
 16 15  1  0  0  0  0
 16 17  1  6  0  0  0
 18  2  1  1  0  0  0
 18 16  1  0  0  0  0
 19 18  1  0  0  0  0
 19 20  1  6  0  0  0
 21 19  1  0  0  0  0
 21 22  1  1  0  0  0
 23 20  1  1  0  0  0
 23 24  1  0  0  0  0
 23 28  1  0  0  0  0
 24 25  1  6  0  0  0
 24 26  1  0  0  0  0
 26 27  1  0  0  0  0
 26 32  1  6  0  0  0
 27 28  1  0  0  0  0
 27 29  1  1  0  0  0
 29 30  1  0  0  0  0
 31 32  1  1  0  0  0
 31 40  1  0  0  0  0
 33 31  1  0  0  0  0
 33 42  1  1  0  0  0
 35 33  1  0  0  0  0
 35 36  1  6  0  0  0
 37 35  1  0  0  0  0
 37 38  1  1  0  0  0
 37 39  1  0  0  0  0
 39 40  1  0  0  0  0
 39 41  1  1  0  0  0
 41 34  1  0  0  0  0
M  END
>  <CHROM.1>
171.49719799,-52.48378227,24.49006358,-96.47033851,-177.74831942,145.99056440
-31.50524269,84.32354326,179.78317795,-0.23963003,35.22716819,17.39331337
1.38311141,0.40861170,2.82744567

>  <Name>
2et4_lig

>  <RI>
0

>  <Rbt.Current_Directory>
/home/itssahil/PROJECTS/Mol_Feturizer/New_Systems/rnas/2et4

>  <Rbt.Executable>
rbdock ($Id: //depot/dev/client3/rdock/2013.1/src/exe/rbdock.cxx#4 $)

>  <Rbt.Library>
libRbt.so (2013.1, Build901 2013/11/27)

>  <Rbt.Parameter_File>
/export/apps/rDock/src/rDock_2013.1_src/data/scripts/dock_solv.prm

>  <Rbt.Receptor>
prm/blind_docking_100.prm

>  <SCORE>
35.4786

>  <SCORE.INTER>
17.7142

>  <SCORE.INTER.CONST>
1

>  <SCORE.INTER.POLAR>
-0.532069

>  <SCORE.INTER.ROT>
9

>  <SCORE.INTER.SOLV>
40.289

>  <SCORE.INTER.VDW>
-9.44667

>  <SCORE.INTER.norm>
0.421766

>  <SCORE.INTRA>
4.87645

>  <SCORE.INTRA.DIHEDRAL>
-2.38579

>  <SCORE.INTRA.DIHEDRAL.0>
21.6909

>  <SCORE.INTRA.POLAR>
0

>  <SCORE.INTRA.POLAR.0>
0

>  <SCORE.INTRA.REPUL>
0

>  <SCORE.INTRA.REPUL.0>
0

>  <SCORE.INTRA.SOLV>
0.995188

>  <SCORE.INTRA.SOLV.lig_0>
-116.606

>  <SCORE.INTRA.VDW>
5.57175

>  <SCORE.INTRA.VDW.0>
-6.01229

>  <SCORE.INTRA.norm>
0.116106

>  <SCORE.RESTR>
12.888

>  <SCORE.RESTR.CAVITY>
12.888

>  <SCORE.RESTR.norm>
0.306856

>  <SCORE.SYSTEM>
0

>  <SCORE.SYSTEM.CONST>
0

>  <SCORE.SYSTEM.DIHEDRAL>
0

>  <SCORE.SYSTEM.SOLV>
0

>  <SCORE.SYSTEM.norm>
0

>  <SCORE.heavy>
42

>  <SCORE.norm>
0.844728

>  <RMSD>
33.309

$$$$
2et4_lig
 OpenBabel11021811423D
libRbt.so/2013.1/901 2013/11/27
 42 45  0  0  0  0  0  0  0  0999 V2000
   -1.9813   32.9186   18.3914 C   0  0  2  0  0  0  0  0  0  0  0  0
   -0.7670   33.1922   19.0933 O   0  0  0  0  0  0  0  0  0  0  0  0
   -3.0726   32.6419   19.4569 C   0  0  2  0  0  0  0  0  0  0  0  0
   -3.2162   33.7531   20.3625 N   0  0  0  0  0  0  0  0  0  0  0  0
   -2.7202   31.3355   20.2253 C   0  0  1  0  0  0  0  0  0  0  0  0
   -3.7111   31.0805   21.1713 O   0  0  0  0  0  0  0  0  0  0  0  0
   -2.5831   30.1764   19.1825 C   0  0  2  0  0  0  0  0  0  0  0  0
   -2.2556   28.9692   19.8376 O   0  0  0  0  0  0  0  0  0  0  0  0
   -1.4831   30.5054   18.1281 C   0  0  2  0  0  0  0  0  0  0  0  0
   -1.8236   31.7407   17.4919 O   0  0  0  0  0  0  0  0  0  0  0  0
   -1.3468   29.3862   17.0445 C   0  0  0  0  0  0  0  0  0  0  0  0
   -0.4623   29.7593   15.9959 N   0  0  0  0  0  0  0  0  0  0  0  0
    3.3841   32.0322   19.3722 C   0  0  2  0  0  0  0  0  0  0  0  0
    4.6561   31.3650   19.0679 N   0  0  0  0  0  0  0  0  0  0  0  0
    2.2513   30.9174   19.6979 C   0  0  0  0  0  0  0  0  0  0  0  0
    0.8785   31.6418   20.0110 C   0  0  2  0  0  0  0  0  0  0  0  0
   -0.1882   30.6636   20.2882 N   0  0  0  0  0  0  0  0  0  0  0  0
    0.4690   32.5314   18.7889 C   0  0  2  0  0  0  0  0  0  0  0  0
    1.5828   33.5822   18.4680 C   0  0  2  0  0  0  0  0  0  0  0  0
    1.1170   34.3377   17.3228 O   0  0  0  0  0  0  0  0  0  0  0  0
    2.9277   32.8516   18.1539 C   0  0  1  0  0  0  0  0  0  0  0  0
    3.8982   33.8070   17.8875 O   0  0  0  0  0  0  0  0  0  0  0  0
    0.2328   35.3636   17.3654 C   0  0  1  0  0  0  0  0  0  0  0  0
    0.5812   36.4420   16.3065 C   0  0  2  0  0  0  0  0  0  0  0  0
    1.5457   37.3531   16.7476 O   0  0  0  0  0  0  0  0  0  0  0  0
   -0.8162   36.9490   16.0016 C   0  0  1  0  0  0  0  0  0  0  0  0
   -1.7477   35.7294   16.0419 C   0  0  2  0  0  0  0  0  0  0  0  0
   -1.1476   34.9908   17.1059 O   0  0  0  0  0  0  0  0  0  0  0  0
   -1.8212   34.8919   14.7198 C   0  0  0  0  0  0  0  0  0  0  0  0
   -1.9605   35.8288   13.6190 O   0  0  0  0  0  0  0  0  0  0  0  0
   -1.4581   39.2536   16.6326 C   0  0  2  0  0  0  0  0  0  0  0  0
   -1.1676   37.9464   17.0459 O   0  0  0  0  0  0  0  0  0  0  0  0
   -2.8860   39.3371   15.9369 C   0  0  1  0  0  0  0  0  0  0  0  0
    0.6224   42.9191   13.6426 N   0  0  0  0  0  0  0  0  0  0  0  0
   -3.1040   40.8747   15.4842 C   0  0  1  0  0  0  0  0  0  0  0  0
   -3.0094   41.7476   16.7198 O   0  0  0  0  0  0  0  0  0  0  0  0
   -1.9697   41.2988   14.4072 C   0  0  2  0  0  0  0  0  0  0  0  0
   -2.0866   40.4583   13.2341 O   0  0  0  0  0  0  0  0  0  0  0  0
   -0.5208   41.1648   15.1438 C   0  0  1  0  0  0  0  0  0  0  0  0
   -0.3520   39.7633   15.6627 O   0  0  0  0  0  0  0  0  0  0  0  0
    0.6697   41.5281   14.1889 C   0  0  0  0  0  0  0  0  0  0  0  0
   -2.9571   38.3701   14.7921 N   0  0  0  0  0  0  0  0  0  0  0  0
  1  2  1  1  0  0  0
  1  3  1  0  0  0  0
  1 10  1  0  0  0  0
  3  4  1  1  0  0  0
  3  5  1  0  0  0  0
  5  6  1  1  0  0  0
  5  7  1  0  0  0  0
  7  8  1  1  0  0  0
  7  9  1  0  0  0  0
  9 10  1  0  0  0  0
  9 11  1  6  0  0  0
 11 12  1  0  0  0  0
 13 14  1  6  0  0  0
 13 15  1  0  0  0  0
 13 21  1  0  0  0  0
 16 15  1  0  0  0  0
 16 17  1  6  0  0  0
 18  2  1  1  0  0  0
 18 16  1  0  0  0  0
 19 18  1  0  0  0  0
 19 20  1  6  0  0  0
 21 19  1  0  0  0  0
 21 22  1  1  0  0  0
 23 20  1  6  0  0  0
 23 24  1  0  0  0  0
 23 28  1  0  0  0  0
 24 25  1  1  0  0  0
 24 26  1  0  0  0  0
 26 27  1  0  0  0  0
 26 32  1  1  0  0  0
 27 28  1  0  0  0  0
 27 29  1  6  0  0  0
 29 30  1  0  0  0  0
 31 32  1  6  0  0  0
 31 40  1  0  0  0  0
 33 31  1  0  0  0  0
 33 42  1  6  0  0  0
 35 33  1  0  0  0  0
 35 36  1  1  0  0  0
 37 35  1  0  0  0  0
 37 38  1  6  0  0  0
 37 39  1  0  0  0  0
 39 40  1  0  0  0  0
 39 41  1  6  0  0  0
 41 34  1  0  0  0  0
M  END
>  <CHROM.1>
129.46090712,172.84444154,-113.92365233,80.66406591,144.88011926,119.96910178
-45.52625410,73.76506025,59.53282869,-0.66938428,35.05090484,17.27685020
1.48356398,-0.01764640,2.72197243

>  <Name>
2et4_lig

>  <RI>
0

>  <Rbt.Current_Directory>
/home/itssahil/PROJECTS/Mol_Feturizer/New_Systems/rnas/2et4

>  <Rbt.Executable>
rbdock ($Id: //depot/dev/client3/rdock/2013.1/src/exe/rbdock.cxx#4 $)

>  <Rbt.Library>
libRbt.so (2013.1, Build901 2013/11/27)

>  <Rbt.Parameter_File>
/export/apps/rDock/src/rDock_2013.1_src/data/scripts/dock_solv.prm

>  <Rbt.Receptor>
prm/blind_docking_100.prm

>  <SCORE>
26.109

>  <SCORE.INTER>
0.100185

>  <SCORE.INTER.CONST>
1

>  <SCORE.INTER.POLAR>
-0.52615

>  <SCORE.INTER.ROT>
9

>  <SCORE.INTER.SOLV>
25.2306

>  <SCORE.INTER.VDW>
-16.1896

>  <SCORE.INTER.norm>
0.00238536

>  <SCORE.INTRA>
12.2305

>  <SCORE.INTRA.DIHEDRAL>
7.59013

>  <SCORE.INTRA.DIHEDRAL.0>
21.6909

>  <SCORE.INTRA.POLAR>
0

>  <SCORE.INTRA.POLAR.0>
0

>  <SCORE.INTRA.REPUL>
0

>  <SCORE.INTRA.REPUL.0>
0

>  <SCORE.INTRA.SOLV>
5.70008

>  <SCORE.INTRA.SOLV.lig_0>
-116.606

>  <SCORE.INTRA.VDW>
5.58541

>  <SCORE.INTRA.VDW.0>
-6.01229

>  <SCORE.INTRA.norm>
0.291203

>  <SCORE.RESTR>
13.7783

>  <SCORE.RESTR.CAVITY>
13.7783

>  <SCORE.RESTR.norm>
0.328055

>  <SCORE.SYSTEM>
0

>  <SCORE.SYSTEM.CONST>
0

>  <SCORE.SYSTEM.DIHEDRAL>
0

>  <SCORE.SYSTEM.SOLV>
0

>  <SCORE.SYSTEM.norm>
0

>  <SCORE.heavy>
42

>  <SCORE.norm>
0.621643

>  <RMSD>
33.348

$$$$
2et4_lig
 OpenBabel11021811423D
libRbt.so/2013.1/901 2013/11/27
 42 45  0  0  0  0  0  0  0  0999 V2000
   -2.6216   32.6340   19.7005 C   0  0  2  0  0  0  0  0  0  0  0  0
   -1.3635   32.4492   20.3527 O   0  0  0  0  0  0  0  0  0  0  0  0
   -3.7016   32.7258   20.8086 C   0  0  2  0  0  0  0  0  0  0  0  0
   -3.4159   33.7929   21.7335 N   0  0  0  0  0  0  0  0  0  0  0  0
   -3.7993   31.3583   21.5446 C   0  0  1  0  0  0  0  0  0  0  0  0
   -4.7821   31.4387   22.5293 O   0  0  0  0  0  0  0  0  0  0  0  0
   -4.1127   30.2523   20.4824 C   0  0  2  0  0  0  0  0  0  0  0  0
   -4.2033   28.9895   21.1075 O   0  0  0  0  0  0  0  0  0  0  0  0
   -3.0059   30.2062   19.3857 C   0  0  2  0  0  0  0  0  0  0  0  0
   -2.9171   31.4994   18.7803 O   0  0  0  0  0  0  0  0  0  0  0  0
   -3.3077   29.1390   18.2832 C   0  0  0  0  0  0  0  0  0  0  0  0
   -2.9684   27.8236   18.7024 N   0  0  0  0  0  0  0  0  0  0  0  0
    2.7346   32.2575   19.0022 C   0  0  2  0  0  0  0  0  0  0  0  0
    3.9375   31.7965   18.2978 N   0  0  0  0  0  0  0  0  0  0  0  0
    2.1900   31.0783   19.9744 C   0  0  0  0  0  0  0  0  0  0  0  0
    0.8849   31.5757   20.7204 C   0  0  2  0  0  0  0  0  0  0  0  0
    0.3399   30.5242   21.5973 N   0  0  0  0  0  0  0  0  0  0  0  0
   -0.1943   31.9870   19.6626 C   0  0  2  0  0  0  0  0  0  0  0  0
    0.3543   33.1037   18.7140 C   0  0  2  0  0  0  0  0  0  0  0  0
   -0.7059   33.3996   17.7719 O   0  0  0  0  0  0  0  0  0  0  0  0
    1.6365   32.5947   17.9803 C   0  0  1  0  0  0  0  0  0  0  0  0
    2.1076   33.6088   17.1585 O   0  0  0  0  0  0  0  0  0  0  0  0
   -0.9921   34.6257   17.2710 C   0  0  1  0  0  0  0  0  0  0  0  0
    0.2720   35.2861   16.6615 C   0  0  2  0  0  0  0  0  0  0  0  0
    1.0617   35.9407   17.6117 O   0  0  0  0  0  0  0  0  0  0  0  0
   -0.3825   36.1072   15.5659 C   0  0  1  0  0  0  0  0  0  0  0  0
   -1.5396   35.2636   15.0124 C   0  0  2  0  0  0  0  0  0  0  0  0
   -1.9884   34.6355   16.2131 O   0  0  0  0  0  0  0  0  0  0  0  0
   -1.1467   34.2143   13.9173 C   0  0  0  0  0  0  0  0  0  0  0  0
   -0.4736   33.1166   14.5889 O   0  0  0  0  0  0  0  0  0  0  0  0
   -0.8592   38.5289   15.3937 C   0  0  2  0  0  0  0  0  0  0  0  0
   -0.8659   37.3702   16.1821 O   0  0  0  0  0  0  0  0  0  0  0  0
   -0.0002   39.6842   16.0698 C   0  0  1  0  0  0  0  0  0  0  0  0
   -4.8607   39.4403   13.7644 N   0  0  0  0  0  0  0  0  0  0  0  0
   -0.0807   40.9698   15.0913 C   0  0  1  0  0  0  0  0  0  0  0  0
    0.4600   40.5639   13.7347 O   0  0  0  0  0  0  0  0  0  0  0  0
   -1.6174   41.4670   14.9590 C   0  0  2  0  0  0  0  0  0  0  0  0
   -2.1073   41.8576   16.2643 O   0  0  0  0  0  0  0  0  0  0  0  0
   -2.4721   40.2452   14.2983 C   0  0  1  0  0  0  0  0  0  0  0  0
   -2.3182   39.0124   15.1459 O   0  0  0  0  0  0  0  0  0  0  0  0
   -3.9925   40.5983   14.1397 C   0  0  0  0  0  0  0  0  0  0  0  0
   -0.5119   39.9630   17.4523 N   0  0  0  0  0  0  0  0  0  0  0  0
  1  2  1  1  0  0  0
  1  3  1  0  0  0  0
  1 10  1  0  0  0  0
  3  4  1  1  0  0  0
  3  5  1  0  0  0  0
  5  6  1  1  0  0  0
  5  7  1  0  0  0  0
  7  8  1  1  0  0  0
  7  9  1  0  0  0  0
  9 10  1  0  0  0  0
  9 11  1  6  0  0  0
 11 12  1  0  0  0  0
 13 14  1  6  0  0  0
 13 15  1  0  0  0  0
 13 21  1  0  0  0  0
 16 15  1  0  0  0  0
 16 17  1  1  0  0  0
 18  2  1  1  0  0  0
 18 16  1  0  0  0  0
 19 18  1  0  0  0  0
 19 20  1  6  0  0  0
 21 19  1  0  0  0  0
 21 22  1  6  0  0  0
 23 20  1  6  0  0  0
 23 24  1  0  0  0  0
 23 28  1  0  0  0  0
 24 25  1  1  0  0  0
 24 26  1  0  0  0  0
 26 27  1  0  0  0  0
 26 32  1  1  0  0  0
 27 28  1  0  0  0  0
 27 29  1  6  0  0  0
 29 30  1  0  0  0  0
 31 32  1  1  0  0  0
 31 40  1  0  0  0  0
 33 31  1  0  0  0  0
 33 42  1  1  0  0  0
 35 33  1  0  0  0  0
 35 36  1  6  0  0  0
 37 35  1  0  0  0  0
 37 38  1  1  0  0  0
 37 39  1  0  0  0  0
 39 40  1  0  0  0  0
 39 41  1  1  0  0  0
 41 34  1  0  0  0  0
M  END
>  <CHROM.1>
163.67009631,-79.65913594,-166.56972694,143.92551796,52.63761548,147.47353411
74.52838370,-122.94019682,-169.87010013,-1.23574394,34.60602860,17.69293651
1.61334994,-0.18949465,2.63049631

>  <Name>
2et4_lig

>  <RI>
0

>  <Rbt.Current_Directory>
/home/itssahil/PROJECTS/Mol_Feturizer/New_Systems/rnas/2et4

>  <Rbt.Executable>
rbdock ($Id: //depot/dev/client3/rdock/2013.1/src/exe/rbdock.cxx#4 $)

>  <Rbt.Library>
libRbt.so (2013.1, Build901 2013/11/27)

>  <Rbt.Parameter_File>
/export/apps/rDock/src/rDock_2013.1_src/data/scripts/dock_solv.prm

>  <Rbt.Receptor>
prm/blind_docking_100.prm

>  <SCORE>
23.9429

>  <SCORE.INTER>
5.94272

>  <SCORE.INTER.CONST>
1

>  <SCORE.INTER.POLAR>
-0.208675

>  <SCORE.INTER.ROT>
9

>  <SCORE.INTER.SOLV>
35.3237

>  <SCORE.INTER.VDW>
-16.7172

>  <SCORE.INTER.norm>
0.141493

>  <SCORE.INTRA>
1.16134

>  <SCORE.INTRA.DIHEDRAL>
-0.980586

>  <SCORE.INTRA.DIHEDRAL.0>
21.6909

>  <SCORE.INTRA.POLAR>
0

>  <SCORE.INTRA.POLAR.0>
0

>  <SCORE.INTRA.REPUL>
0.0131279

>  <SCORE.INTRA.REPUL.0>
0

>  <SCORE.INTRA.SOLV>
-2.78187

>  <SCORE.INTRA.SOLV.lig_0>
-116.606

>  <SCORE.INTRA.VDW>
2.97693

>  <SCORE.INTRA.VDW.0>
-6.01229

>  <SCORE.INTRA.norm>
0.0276508

>  <SCORE.RESTR>
16.8389

>  <SCORE.RESTR.CAVITY>
16.8389

>  <SCORE.RESTR.norm>
0.400926

>  <SCORE.SYSTEM>
0

>  <SCORE.SYSTEM.CONST>
0

>  <SCORE.SYSTEM.DIHEDRAL>
0

>  <SCORE.SYSTEM.SOLV>
0

>  <SCORE.SYSTEM.norm>
0

>  <SCORE.heavy>
42

>  <SCORE.norm>
0.57007

>  <RMSD>
33.452

$$$$
2et4_lig
 OpenBabel11021811423D
libRbt.so/2013.1/901 2013/11/27
 42 45  0  0  0  0  0  0  0  0999 V2000
    0.6943   30.2418   17.9858 C   0  0  2  0  0  0  0  0  0  0  0  0
    0.7924   31.5632   17.4507 O   0  0  0  0  0  0  0  0  0  0  0  0
   -0.7799   29.7912   17.8232 C   0  0  2  0  0  0  0  0  0  0  0  0
   -1.1960   29.8430   16.4449 N   0  0  0  0  0  0  0  0  0  0  0  0
   -1.6905   30.6821   18.7166 C   0  0  1  0  0  0  0  0  0  0  0  0
   -3.0130   30.2645   18.5810 O   0  0  0  0  0  0  0  0  0  0  0  0
   -1.1829   30.5746   20.1934 C   0  0  2  0  0  0  0  0  0  0  0  0
   -1.9789   31.3759   21.0407 O   0  0  0  0  0  0  0  0  0  0  0  0
    0.3046   31.0277   20.3035 C   0  0  2  0  0  0  0  0  0  0  0  0
    1.0889   30.2178   19.4229 O   0  0  0  0  0  0  0  0  0  0  0  0
    0.8588   30.8942   21.7597 C   0  0  0  0  0  0  0  0  0  0  0  0
    2.2701   31.0564   21.8137 N   0  0  0  0  0  0  0  0  0  0  0  0
    3.6219   33.7382   19.8834 C   0  0  2  0  0  0  0  0  0  0  0  0
    4.7014   34.6606   20.2569 N   0  0  0  0  0  0  0  0  0  0  0  0
    4.1929   32.6249   18.8505 C   0  0  0  0  0  0  0  0  0  0  0  0
    3.0214   31.6419   18.4401 C   0  0  2  0  0  0  0  0  0  0  0  0
    3.4904   30.6268   17.4802 N   0  0  0  0  0  0  0  0  0  0  0  0
    1.8511   32.4645   17.8028 C   0  0  2  0  0  0  0  0  0  0  0  0
    1.3298   33.5530   18.7984 C   0  0  2  0  0  0  0  0  0  0  0  0
    0.2683   34.2618   18.1132 O   0  0  0  0  0  0  0  0  0  0  0  0
    2.4950   34.5187   19.1872 C   0  0  1  0  0  0  0  0  0  0  0  0
    2.0076   35.4627   20.0799 O   0  0  0  0  0  0  0  0  0  0  0  0
    0.1674   35.6086   18.0016 C   0  0  1  0  0  0  0  0  0  0  0  0
   -1.0047   36.0026   17.0655 C   0  0  2  0  0  0  0  0  0  0  0  0
   -0.6538   35.9915   15.7121 O   0  0  0  0  0  0  0  0  0  0  0  0
   -1.4000   37.3202   17.7062 C   0  0  1  0  0  0  0  0  0  0  0  0
   -1.2354   37.1418   19.2221 C   0  0  2  0  0  0  0  0  0  0  0  0
   -0.0772   36.3079   19.2518 O   0  0  0  0  0  0  0  0  0  0  0  0
   -2.4490   36.4804   19.9599 C   0  0  0  0  0  0  0  0  0  0  0  0
   -2.4098   35.0575   19.6718 O   0  0  0  0  0  0  0  0  0  0  0  0
   -1.0205   39.2939   16.2633 C   0  0  2  0  0  0  0  0  0  0  0  0
   -0.4910   38.3675   17.1719 O   0  0  0  0  0  0  0  0  0  0  0  0
   -0.0692   39.4763   15.0018 C   0  0  1  0  0  0  0  0  0  0  0  0
   -0.9256   44.0765   16.7815 N   0  0  0  0  0  0  0  0  0  0  0  0
   -0.7633   40.5753   14.0390 C   0  0  1  0  0  0  0  0  0  0  0  0
   -2.1393   40.0662   13.6584 O   0  0  0  0  0  0  0  0  0  0  0  0
   -0.8825   41.9926   14.8160 C   0  0  2  0  0  0  0  0  0  0  0  0
    0.4432   42.4619   15.1601 O   0  0  0  0  0  0  0  0  0  0  0  0
   -1.8324   41.7572   16.1207 C   0  0  1  0  0  0  0  0  0  0  0  0
   -1.2507   40.6614   16.9709 O   0  0  0  0  0  0  0  0  0  0  0  0
   -2.0061   43.0614   16.9752 C   0  0  0  0  0  0  0  0  0  0  0  0
    1.3075   39.8704   15.4492 N   0  0  0  0  0  0  0  0  0  0  0  0
  1  2  1  1  0  0  0
  1  3  1  0  0  0  0
  1 10  1  0  0  0  0
  3  4  1  6  0  0  0
  3  5  1  0  0  0  0
  5  6  1  1  0  0  0
  5  7  1  0  0  0  0
  7  8  1  1  0  0  0
  7  9  1  0  0  0  0
  9 10  1  0  0  0  0
  9 11  1  1  0  0  0
 11 12  1  0  0  0  0
 13 14  1  6  0  0  0
 13 15  1  0  0  0  0
 13 21  1  0  0  0  0
 16 15  1  0  0  0  0
 16 17  1  6  0  0  0
 18  2  1  1  0  0  0
 18 16  1  0  0  0  0
 19 18  1  0  0  0  0
 19 20  1  6  0  0  0
 21 19  1  0  0  0  0
 21 22  1  1  0  0  0
 23 20  1  1  0  0  0
 23 24  1  0  0  0  0
 23 28  1  0  0  0  0
 24 25  1  6  0  0  0
 24 26  1  0  0  0  0
 26 27  1  0  0  0  0
 26 32  1  6  0  0  0
 27 28  1  0  0  0  0
 27 29  1  6  0  0  0
 29 30  1  0  0  0  0
 31 32  1  1  0  0  0
 31 40  1  0  0  0  0
 33 31  1  0  0  0  0
 33 42  1  1  0  0  0
 35 33  1  0  0  0  0
 35 36  1  1  0  0  0
 37 35  1  0  0  0  0
 37 38  1  1  0  0  0
 37 39  1  0  0  0  0
 39 40  1  0  0  0  0
 39 41  1  1  0  0  0
 41 34  1  0  0  0  0
M  END
>  <CHROM.1>
159.06789469,168.61168812,17.47466093,-129.73397145,173.48081205,107.81653751
76.01187012,-133.01114654,-22.14784223,0.07731431,35.31743706,17.98866319
1.41149862,0.20442348,2.84400560

>  <Name>
2et4_lig

>  <RI>
0

>  <Rbt.Current_Directory>
/home/itssahil/PROJECTS/Mol_Feturizer/New_Systems/rnas/2et4

>  <Rbt.Executable>
rbdock ($Id: //depot/dev/client3/rdock/2013.1/src/exe/rbdock.cxx#4 $)

>  <Rbt.Library>
libRbt.so (2013.1, Build901 2013/11/27)

>  <Rbt.Parameter_File>
/export/apps/rDock/src/rDock_2013.1_src/data/scripts/dock_solv.prm

>  <Rbt.Receptor>
prm/blind_docking_100.prm

>  <SCORE>
50.5645

>  <SCORE.INTER>
21.5374

>  <SCORE.INTER.CONST>
1

>  <SCORE.INTER.POLAR>
-0.290073

>  <SCORE.INTER.ROT>
9

>  <SCORE.INTER.SOLV>
33.341

>  <SCORE.INTER.VDW>
-5.3885

>  <SCORE.INTER.norm>
0.512795

>  <SCORE.INTRA>
12.02

>  <SCORE.INTRA.DIHEDRAL>
10.8923

>  <SCORE.INTRA.DIHEDRAL.0>
21.6909

>  <SCORE.INTRA.POLAR>
0

>  <SCORE.INTRA.POLAR.0>
0

>  <SCORE.INTRA.REPUL>
0

>  <SCORE.INTRA.REPUL.0>
0

>  <SCORE.INTRA.SOLV>
2.13784

>  <SCORE.INTRA.SOLV.lig_0>
-116.606

>  <SCORE.INTRA.VDW>
5.5049

>  <SCORE.INTRA.VDW.0>
-6.01229

>  <SCORE.INTRA.norm>
0.286189

>  <SCORE.RESTR>
17.0072

>  <SCORE.RESTR.CAVITY>
17.0072

>  <SCORE.RESTR.norm>
0.404933

>  <SCORE.SYSTEM>
0

>  <SCORE.SYSTEM.CONST>
0

>  <SCORE.SYSTEM.DIHEDRAL>
0

>  <SCORE.SYSTEM.SOLV>
0

>  <SCORE.SYSTEM.norm>
0

>  <SCORE.heavy>
42

>  <SCORE.norm>
1.20392

>  <RMSD>
33.488

$$$$
2et4_lig
 OpenBabel11021811423D
libRbt.so/2013.1/901 2013/11/27
 42 45  0  0  0  0  0  0  0  0999 V2000
   -1.0415   31.3412   21.3887 C   0  0  2  0  0  0  0  0  0  0  0  0
   -0.3837   32.1750   20.4326 O   0  0  0  0  0  0  0  0  0  0  0  0
   -1.7286   30.1967   20.6010 C   0  0  2  0  0  0  0  0  0  0  0  0
   -0.7770   29.4578   19.8109 N   0  0  0  0  0  0  0  0  0  0  0  0
   -2.8549   30.7924   19.7078 C   0  0  1  0  0  0  0  0  0  0  0  0
   -3.4816   29.7597   19.0131 O   0  0  0  0  0  0  0  0  0  0  0  0
   -3.8482   31.5752   20.6302 C   0  0  2  0  0  0  0  0  0  0  0  0
   -4.8861   32.1406   19.8578 O   0  0  0  0  0  0  0  0  0  0  0  0
   -3.1095   32.7065   21.4077 C   0  0  2  0  0  0  0  0  0  0  0  0
   -2.0506   32.1149   22.1663 O   0  0  0  0  0  0  0  0  0  0  0  0
   -4.0641   33.4841   22.3718 C   0  0  0  0  0  0  0  0  0  0  0  0
   -3.5104   34.7251   22.7895 N   0  0  0  0  0  0  0  0  0  0  0  0
    3.7719   31.9706   19.2733 C   0  0  2  0  0  0  0  0  0  0  0  0
    4.9897   31.5634   18.5614 N   0  0  0  0  0  0  0  0  0  0  0  0
    3.1138   30.6803   20.0043 C   0  0  0  0  0  0  0  0  0  0  0  0
    1.7934   31.1225   20.7581 C   0  0  2  0  0  0  0  0  0  0  0  0
    1.1468   29.9737   21.4168 N   0  0  0  0  0  0  0  0  0  0  0  0
    0.7997   31.7661   19.7330 C   0  0  2  0  0  0  0  0  0  0  0  0
    1.4573   32.9908   19.0149 C   0  0  2  0  0  0  0  0  0  0  0  0
    0.4700   33.5005   18.0851 O   0  0  0  0  0  0  0  0  0  0  0  0
    2.7535   32.5365   18.2701 C   0  0  1  0  0  0  0  0  0  0  0  0
    3.3214   33.6436   17.6557 O   0  0  0  0  0  0  0  0  0  0  0  0
    0.5451   34.6846   17.4304 C   0  0  1  0  0  0  0  0  0  0  0  0
   -0.7855   35.0006   16.6989 C   0  0  2  0  0  0  0  0  0  0  0  0
   -0.8777   34.3962   15.4415 O   0  0  0  0  0  0  0  0  0  0  0  0
   -0.7579   36.5157   16.7802 C   0  0  1  0  0  0  0  0  0  0  0  0
   -0.1604   36.8744   18.1480 C   0  0  2  0  0  0  0  0  0  0  0  0
    0.8093   35.8349   18.2781 O   0  0  0  0  0  0  0  0  0  0  0  0
   -1.1709   36.8821   19.3453 C   0  0  0  0  0  0  0  0  0  0  0  0
   -2.2011   37.8585   19.0382 O   0  0  0  0  0  0  0  0  0  0  0  0
   -0.2536   38.2316   15.0706 C   0  0  2  0  0  0  0  0  0  0  0  0
    0.0884   37.0079   15.6620 O   0  0  0  0  0  0  0  0  0  0  0  0
    0.2630   39.4592   15.9399 C   0  0  1  0  0  0  0  0  0  0  0  0
   -4.6059   39.5148   15.4117 N   0  0  0  0  0  0  0  0  0  0  0  0
   -0.2036   40.8087   15.1796 C   0  0  1  0  0  0  0  0  0  0  0  0
    0.3920   40.7941   13.7858 O   0  0  0  0  0  0  0  0  0  0  0  0
   -1.8212   40.8656   15.0999 C   0  0  2  0  0  0  0  0  0  0  0  0
   -2.3653   40.8882   16.4414 O   0  0  0  0  0  0  0  0  0  0  0  0
   -2.3146   39.5739   14.2351 C   0  0  1  0  0  0  0  0  0  0  0  0
   -1.7960   38.3160   14.8761 O   0  0  0  0  0  0  0  0  0  0  0  0
   -3.8766   39.5033   14.1066 C   0  0  0  0  0  0  0  0  0  0  0  0
   -0.2683   39.3576   17.3392 N   0  0  0  0  0  0  0  0  0  0  0  0
  1  2  1  6  0  0  0
  1  3  1  0  0  0  0
  1 10  1  0  0  0  0
  3  4  1  6  0  0  0
  3  5  1  0  0  0  0
  5  6  1  1  0  0  0
  5  7  1  0  0  0  0
  7  8  1  6  0  0  0
  7  9  1  0  0  0  0
  9 10  1  0  0  0  0
  9 11  1  1  0  0  0
 11 12  1  0  0  0  0
 13 14  1  6  0  0  0
 13 15  1  0  0  0  0
 13 21  1  0  0  0  0
 16 15  1  0  0  0  0
 16 17  1  6  0  0  0
 18  2  1  1  0  0  0
 18 16  1  0  0  0  0
 19 18  1  0  0  0  0
 19 20  1  6  0  0  0
 21 19  1  0  0  0  0
 21 22  1  1  0  0  0
 23 20  1  1  0  0  0
 23 24  1  0  0  0  0
 23 28  1  0  0  0  0
 24 25  1  6  0  0  0
 24 26  1  0  0  0  0
 26 27  1  0  0  0  0
 26 32  1  6  0  0  0
 27 28  1  0  0  0  0
 27 29  1  1  0  0  0
 29 30  1  0  0  0  0
 31 32  1  1  0  0  0
 31 40  1  0  0  0  0
 33 31  1  0  0  0  0
 33 42  1  1  0  0  0
 35 33  1  0  0  0  0
 35 36  1  6  0  0  0
 37 35  1  0  0  0  0
 37 38  1  1  0  0  0
 37 39  1  0  0  0  0
 39 40  1  0  0  0  0
 39 41  1  1  0  0  0
 41 34  1  0  0  0  0
M  END
>  <CHROM.1>
-71.75631050,-163.47333516,-45.44999591,168.11454803,-170.95603266,146.63656680
-59.54163815,80.14656417,-55.34800173,-0.72452165,34.84702528,18.24842616
1.46409265,-0.27722798,2.56480201

>  <Name>
2et4_lig

>  <RI>
0

>  <Rbt.Current_Directory>
/home/itssahil/PROJECTS/Mol_Feturizer/New_Systems/rnas/2et4

>  <Rbt.Executable>
rbdock ($Id: //depot/dev/client3/rdock/2013.1/src/exe/rbdock.cxx#4 $)

>  <Rbt.Library>
libRbt.so (2013.1, Build901 2013/11/27)

>  <Rbt.Parameter_File>
/export/apps/rDock/src/rDock_2013.1_src/data/scripts/dock_solv.prm

>  <Rbt.Receptor>
prm/blind_docking_100.prm

>  <SCORE>
11.6582

>  <SCORE.INTER>
-1.01469

>  <SCORE.INTER.CONST>
1

>  <SCORE.INTER.POLAR>
-0.016629

>  <SCORE.INTER.ROT>
9

>  <SCORE.INTER.SOLV>
35.489

>  <SCORE.INTER.VDW>
-22.0507

>  <SCORE.INTER.norm>
-0.0241592

>  <SCORE.INTRA>
2.28398

>  <SCORE.INTRA.DIHEDRAL>
-11.7813

>  <SCORE.INTRA.DIHEDRAL.0>
21.6909

>  <SCORE.INTRA.POLAR>
0

>  <SCORE.INTRA.POLAR.0>
0

>  <SCORE.INTRA.REPUL>
0.0342003

>  <SCORE.INTRA.REPUL.0>
0

>  <SCORE.INTRA.SOLV>
5.75543

>  <SCORE.INTRA.SOLV.lig_0>
-116.606

>  <SCORE.INTRA.VDW>
5.12593

>  <SCORE.INTRA.VDW.0>
-6.01229

>  <SCORE.INTRA.norm>
0.0543805

>  <SCORE.RESTR>
10.3889

>  <SCORE.RESTR.CAVITY>
10.3889

>  <SCORE.RESTR.norm>
0.247354

>  <SCORE.SYSTEM>
0

>  <SCORE.SYSTEM.CONST>
0

>  <SCORE.SYSTEM.DIHEDRAL>
0

>  <SCORE.SYSTEM.SOLV>
0

>  <SCORE.SYSTEM.norm>
0

>  <SCORE.heavy>
42

>  <SCORE.norm>
0.277575

>  <RMSD>
33.495

$$$$
2et4_lig
 OpenBabel11021811423D
libRbt.so/2013.1/901 2013/11/27
 42 45  0  0  0  0  0  0  0  0999 V2000
   -0.9919   31.2830   21.3654 C   0  0  2  0  0  0  0  0  0  0  0  0
   -0.3067   32.1580   20.4671 O   0  0  0  0  0  0  0  0  0  0  0  0
   -1.7490   30.2424   20.5013 C   0  0  2  0  0  0  0  0  0  0  0  0
   -0.8488   29.5238   19.6359 N   0  0  0  0  0  0  0  0  0  0  0  0
   -2.8566   30.9647   19.6811 C   0  0  1  0  0  0  0  0  0  0  0  0
   -3.5461   30.0248   18.9175 O   0  0  0  0  0  0  0  0  0  0  0  0
   -3.7941   31.7184   20.6826 C   0  0  2  0  0  0  0  0  0  0  0  0
   -4.8131   32.3962   19.9786 O   0  0  0  0  0  0  0  0  0  0  0  0
   -2.9864   32.7441   21.5344 C   0  0  2  0  0  0  0  0  0  0  0  0
   -1.9480   32.0402   22.2222 O   0  0  0  0  0  0  0  0  0  0  0  0
   -3.8849   33.4873   22.5764 C   0  0  0  0  0  0  0  0  0  0  0  0
   -4.5507   34.6077   22.0086 N   0  0  0  0  0  0  0  0  0  0  0  0
    3.8280   31.9986   19.2287 C   0  0  2  0  0  0  0  0  0  0  0  0
    5.0364   31.6043   18.4938 N   0  0  0  0  0  0  0  0  0  0  0  0
    3.1982   30.7015   19.9725 C   0  0  0  0  0  0  0  0  0  0  0  0
    1.8876   31.1296   20.7513 C   0  0  2  0  0  0  0  0  0  0  0  0
    1.2664   29.9742   21.4226 N   0  0  0  0  0  0  0  0  0  0  0  0
    0.8675   31.7618   19.7452 C   0  0  2  0  0  0  0  0  0  0  0  0
    1.4978   32.9932   19.0143 C   0  0  2  0  0  0  0  0  0  0  0  0
    0.4874   33.4915   18.1033 O   0  0  0  0  0  0  0  0  0  0  0  0
    2.7845   32.5527   18.2449 C   0  0  1  0  0  0  0  0  0  0  0  0
    3.3284   33.6657   17.6195 O   0  0  0  0  0  0  0  0  0  0  0  0
    0.5459   34.6673   17.4323 C   0  0  1  0  0  0  0  0  0  0  0  0
   -0.7953   34.9637   16.7121 C   0  0  2  0  0  0  0  0  0  0  0  0
   -0.8973   34.3420   15.4639 O   0  0  0  0  0  0  0  0  0  0  0  0
   -0.7784   36.4799   16.7731 C   0  0  1  0  0  0  0  0  0  0  0  0
   -0.1680   36.8611   18.1291 C   0  0  2  0  0  0  0  0  0  0  0  0
    0.8111   35.8308   18.2616 O   0  0  0  0  0  0  0  0  0  0  0  0
   -1.1647   36.8771   19.3378 C   0  0  0  0  0  0  0  0  0  0  0  0
   -2.2449   37.7866   18.9983 O   0  0  0  0  0  0  0  0  0  0  0  0
   -0.2903   38.1901   15.0531 C   0  0  2  0  0  0  0  0  0  0  0  0
    0.0512   36.9636   15.6389 O   0  0  0  0  0  0  0  0  0  0  0  0
    0.2808   39.4127   15.8950 C   0  0  1  0  0  0  0  0  0  0  0  0
   -4.5548   40.7843   13.7216 N   0  0  0  0  0  0  0  0  0  0  0  0
   -0.1894   40.7664   15.1444 C   0  0  1  0  0  0  0  0  0  0  0  0
    0.3532   40.7333   13.7295 O   0  0  0  0  0  0  0  0  0  0  0  0
   -1.8075   40.8527   15.1249 C   0  0  2  0  0  0  0  0  0  0  0  0
   -2.3004   40.8926   16.4857 O   0  0  0  0  0  0  0  0  0  0  0  0
   -2.3564   39.5656   14.2871 C   0  0  1  0  0  0  0  0  0  0  0  0
   -1.8371   38.3019   14.9160 O   0  0  0  0  0  0  0  0  0  0  0  0
   -3.9231   39.5231   14.2175 C   0  0  0  0  0  0  0  0  0  0  0  0
   -0.1994   39.3285   17.3138 N   0  0  0  0  0  0  0  0  0  0  0  0
  1  2  1  6  0  0  0
  1  3  1  0  0  0  0
  1 10  1  0  0  0  0
  3  4  1  6  0  0  0
  3  5  1  0  0  0  0
  5  6  1  1  0  0  0
  5  7  1  0  0  0  0
  7  8  1  6  0  0  0
  7  9  1  0  0  0  0
  9 10  1  0  0  0  0
  9 11  1  1  0  0  0
 11 12  1  0  0  0  0
 13 14  1  6  0  0  0
 13 15  1  0  0  0  0
 13 21  1  0  0  0  0
 16 15  1  0  0  0  0
 16 17  1  6  0  0  0
 18  2  1  1  0  0  0
 18 16  1  0  0  0  0
 19 18  1  0  0  0  0
 19 20  1  6  0  0  0
 21 19  1  0  0  0  0
 21 22  1  1  0  0  0
 23 20  1  1  0  0  0
 23 24  1  0  0  0  0
 23 28  1  0  0  0  0
 24 25  1  6  0  0  0
 24 26  1  0  0  0  0
 26 27  1  0  0  0  0
 26 32  1  6  0  0  0
 27 28  1  0  0  0  0
 27 29  1  1  0  0  0
 29 30  1  0  0  0  0
 31 32  1  1  0  0  0
 31 40  1  0  0  0  0
 33 31  1  0  0  0  0
 33 42  1  1  0  0  0
 35 33  1  0  0  0  0
 35 36  1  6  0  0  0
 37 35  1  0  0  0  0
 37 38  1  1  0  0  0
 37 39  1  0  0  0  0
 39 40  1  0  0  0  0
 39 41  1  1  0  0  0
 41 34  1  0  0  0  0
M  END
>  <CHROM.1>
-73.72582222,-84.26933455,-50.01958490,169.11218749,-171.85436869,147.91968930
-56.46588225,81.36439375,52.68042491,-0.72676490,34.88514626,18.19101608
1.44533678,-0.26853255,2.55181861

>  <Name>
2et4_lig

>  <RI>
0

>  <Rbt.Current_Directory>
/home/itssahil/PROJECTS/Mol_Feturizer/New_Systems/rnas/2et4

>  <Rbt.Executable>
rbdock ($Id: //depot/dev/client3/rdock/2013.1/src/exe/rbdock.cxx#4 $)

>  <Rbt.Library>
libRbt.so (2013.1, Build901 2013/11/27)

>  <Rbt.Parameter_File>
/export/apps/rDock/src/rDock_2013.1_src/data/scripts/dock_solv.prm

>  <Rbt.Receptor>
prm/blind_docking_100.prm

>  <SCORE>
8.54751

>  <SCORE.INTER>
-1.98758

>  <SCORE.INTER.CONST>
1

>  <SCORE.INTER.POLAR>
0

>  <SCORE.INTER.ROT>
9

>  <SCORE.INTER.SOLV>
33.6255

>  <SCORE.INTER.VDW>
-22.1335

>  <SCORE.INTER.norm>
-0.0473233

>  <SCORE.INTRA>
1.25553

>  <SCORE.INTRA.DIHEDRAL>
-11.1939

>  <SCORE.INTRA.DIHEDRAL.0>
21.6909

>  <SCORE.INTRA.POLAR>
0

>  <SCORE.INTRA.POLAR.0>
0

>  <SCORE.INTRA.REPUL>
0.0234994

>  <SCORE.INTRA.REPUL.0>
0

>  <SCORE.INTRA.SOLV>
4.71449

>  <SCORE.INTRA.SOLV.lig_0>
-116.606

>  <SCORE.INTRA.VDW>
4.37773

>  <SCORE.INTRA.VDW.0>
-6.01229

>  <SCORE.INTRA.norm>
0.0298936

>  <SCORE.RESTR>
9.27956

>  <SCORE.RESTR.CAVITY>
9.27956

>  <SCORE.RESTR.norm>
0.220942

>  <SCORE.SYSTEM>
0

>  <SCORE.SYSTEM.CONST>
0

>  <SCORE.SYSTEM.DIHEDRAL>
0

>  <SCORE.SYSTEM.SOLV>
0

>  <SCORE.SYSTEM.norm>
0

>  <SCORE.heavy>
42

>  <SCORE.norm>
0.203512

>  <RMSD>
33.516

$$$$
2et4_lig
 OpenBabel11021811423D
libRbt.so/2013.1/901 2013/11/27
 42 45  0  0  0  0  0  0  0  0999 V2000
   -0.9945   31.2840   21.3269 C   0  0  2  0  0  0  0  0  0  0  0  0
   -0.3174   32.1549   20.4185 O   0  0  0  0  0  0  0  0  0  0  0  0
   -1.7813   30.2563   20.4740 C   0  0  2  0  0  0  0  0  0  0  0  0
   -0.9075   29.5310   19.5873 N   0  0  0  0  0  0  0  0  0  0  0  0
   -2.8968   30.9952   19.6797 C   0  0  1  0  0  0  0  0  0  0  0  0
   -3.6127   30.0669   18.9265 O   0  0  0  0  0  0  0  0  0  0  0  0
   -3.8046   31.7553   20.7034 C   0  0  2  0  0  0  0  0  0  0  0  0
   -4.8297   32.4482   20.0233 O   0  0  0  0  0  0  0  0  0  0  0  0
   -2.9677   32.7676   21.5429 C   0  0  2  0  0  0  0  0  0  0  0  0
   -1.9238   32.0485   22.2063 O   0  0  0  0  0  0  0  0  0  0  0  0
   -3.8358   33.5166   22.6062 C   0  0  0  0  0  0  0  0  0  0  0  0
   -4.5265   34.6273   22.0492 N   0  0  0  0  0  0  0  0  0  0  0  0
    3.8194   31.9997   19.1867 C   0  0  2  0  0  0  0  0  0  0  0  0
    5.0293   31.6069   18.4536 N   0  0  0  0  0  0  0  0  0  0  0  0
    3.1895   30.7017   19.9289 C   0  0  0  0  0  0  0  0  0  0  0  0
    1.8773   31.1283   20.7057 C   0  0  2  0  0  0  0  0  0  0  0  0
    1.2560   29.9720   21.3754 N   0  0  0  0  0  0  0  0  0  0  0  0
    0.8583   31.7601   19.6983 C   0  0  2  0  0  0  0  0  0  0  0  0
    1.4887   32.9924   18.9690 C   0  0  2  0  0  0  0  0  0  0  0  0
    0.4794   33.4904   18.0567 O   0  0  0  0  0  0  0  0  0  0  0  0
    2.7770   32.5535   18.2016 C   0  0  1  0  0  0  0  0  0  0  0  0
    3.3210   33.6672   17.5776 O   0  0  0  0  0  0  0  0  0  0  0  0
    0.5388   34.6657   17.3850 C   0  0  1  0  0  0  0  0  0  0  0  0
   -0.8151   34.9822   16.6977 C   0  0  2  0  0  0  0  0  0  0  0  0
   -0.9563   34.3631   15.4521 O   0  0  0  0  0  0  0  0  0  0  0  0
   -0.7745   36.4980   16.7589 C   0  0  1  0  0  0  0  0  0  0  0  0
   -0.1258   36.8692   18.0999 C   0  0  2  0  0  0  0  0  0  0  0  0
    0.8410   35.8245   18.2082 O   0  0  0  0  0  0  0  0  0  0  0  0
   -1.0926   36.8988   19.3324 C   0  0  0  0  0  0  0  0  0  0  0  0
   -2.1897   37.7914   19.0028 O   0  0  0  0  0  0  0  0  0  0  0  0
   -0.3077   38.1989   15.0238 C   0  0  2  0  0  0  0  0  0  0  0  0
    0.0344   36.9704   15.6051 O   0  0  0  0  0  0  0  0  0  0  0  0
    0.2626   39.4187   15.8703 C   0  0  1  0  0  0  0  0  0  0  0  0
   -4.5677   40.7529   13.5970 N   0  0  0  0  0  0  0  0  0  0  0  0
   -0.2082   40.7749   15.1247 C   0  0  1  0  0  0  0  0  0  0  0  0
    0.3346   40.7473   13.7097 O   0  0  0  0  0  0  0  0  0  0  0  0
   -1.8265   40.8603   15.1052 C   0  0  2  0  0  0  0  0  0  0  0  0
   -2.3195   40.8949   16.4661 O   0  0  0  0  0  0  0  0  0  0  0  0
   -2.3745   39.5760   14.2626 C   0  0  1  0  0  0  0  0  0  0  0  0
   -1.8546   38.3103   14.8869 O   0  0  0  0  0  0  0  0  0  0  0  0
   -3.9412   39.5329   14.1926 C   0  0  0  0  0  0  0  0  0  0  0  0
   -0.2178   39.3290   17.2888 N   0  0  0  0  0  0  0  0  0  0  0  0
  1  2  1  6  0  0  0
  1  3  1  0  0  0  0
  1 10  1  0  0  0  0
  3  4  1  6  0  0  0
  3  5  1  0  0  0  0
  5  6  1  1  0  0  0
  5  7  1  0  0  0  0
  7  8  1  6  0  0  0
  7  9  1  0  0  0  0
  9 10  1  0  0  0  0
  9 11  1  1  0  0  0
 11 12  1  0  0  0  0
 13 14  1  6  0  0  0
 13 15  1  0  0  0  0
 13 21  1  0  0  0  0
 16 15  1  0  0  0  0
 16 17  1  6  0  0  0
 18  2  1  1  0  0  0
 18 16  1  0  0  0  0
 19 18  1  0  0  0  0
 19 20  1  6  0  0  0
 21 19  1  0  0  0  0
 21 22  1  1  0  0  0
 23 20  1  1  0  0  0
 23 24  1  0  0  0  0
 23 28  1  0  0  0  0
 24 25  1  6  0  0  0
 24 26  1  0  0  0  0
 26 27  1  0  0  0  0
 26 32  1  6  0  0  0
 27 28  1  0  0  0  0
 27 29  1  1  0  0  0
 29 30  1  0  0  0  0
 31 32  1  1  0  0  0
 31 40  1  0  0  0  0
 33 31  1  0  0  0  0
 33 42  1  1  0  0  0
 35 33  1  0  0  0  0
 35 36  1  6  0  0  0
 37 35  1  0  0  0  0
 37 38  1  1  0  0  0
 37 39  1  0  0  0  0
 39 40  1  0  0  0  0
 39 41  1  1  0  0  0
 41 34  1  0  0  0  0
M  END
>  <CHROM.1>
-75.46063783,-82.78128200,-49.27983053,169.20842872,-170.18249455,147.58568060
-54.67638744,79.88970109,57.42578906,-0.73403282,34.89465434,18.16658612
1.44562348,-0.27299061,2.54933174

>  <Name>
2et4_lig

>  <RI>
0

>  <Rbt.Current_Directory>
/home/itssahil/PROJECTS/Mol_Feturizer/New_Systems/rnas/2et4

>  <Rbt.Executable>
rbdock ($Id: //depot/dev/client3/rdock/2013.1/src/exe/rbdock.cxx#4 $)

>  <Rbt.Library>
libRbt.so (2013.1, Build901 2013/11/27)

>  <Rbt.Parameter_File>
/export/apps/rDock/src/rDock_2013.1_src/data/scripts/dock_solv.prm

>  <Rbt.Receptor>
prm/blind_docking_100.prm

>  <SCORE>
9.07967

>  <SCORE.INTER>
-1.2837

>  <SCORE.INTER.CONST>
1

>  <SCORE.INTER.POLAR>
0

>  <SCORE.INTER.ROT>
9

>  <SCORE.INTER.SOLV>
34.1406

>  <SCORE.INTER.VDW>
-21.836

>  <SCORE.INTER.norm>
-0.0305643

>  <SCORE.INTRA>
1.21737

>  <SCORE.INTRA.DIHEDRAL>
-11.2574

>  <SCORE.INTRA.DIHEDRAL.0>
21.6909

>  <SCORE.INTRA.POLAR>
0

>  <SCORE.INTRA.POLAR.0>
0

>  <SCORE.INTRA.REPUL>
0.0225708

>  <SCORE.INTRA.REPUL.0>
0

>  <SCORE.INTRA.SOLV>
4.58429

>  <SCORE.INTRA.SOLV.lig_0>
-116.606

>  <SCORE.INTRA.VDW>
4.44106

>  <SCORE.INTRA.VDW.0>
-6.01229

>  <SCORE.INTRA.norm>
0.028985

>  <SCORE.RESTR>
9.146

>  <SCORE.RESTR.CAVITY>
9.146

>  <SCORE.RESTR.norm>
0.217762

>  <SCORE.SYSTEM>
0

>  <SCORE.SYSTEM.CONST>
0

>  <SCORE.SYSTEM.DIHEDRAL>
0

>  <SCORE.SYSTEM.SOLV>
0

>  <SCORE.SYSTEM.norm>
0

>  <SCORE.heavy>
42

>  <SCORE.norm>
0.216183

>  <RMSD>
33.520

$$$$
2et4_lig
 OpenBabel11021811423D
libRbt.so/2013.1/901 2013/11/27
 42 45  0  0  0  0  0  0  0  0999 V2000
   -0.8560   31.2449   21.5069 C   0  0  2  0  0  0  0  0  0  0  0  0
   -0.1573   32.1378   20.6370 O   0  0  0  0  0  0  0  0  0  0  0  0
   -1.5266   30.1691   20.6149 C   0  0  2  0  0  0  0  0  0  0  0  0
   -0.5554   29.4779   19.8057 N   0  0  0  0  0  0  0  0  0  0  0  0
   -2.6153   30.8419   19.7299 C   0  0  1  0  0  0  0  0  0  0  0  0
   -3.2276   29.8701   18.9409 O   0  0  0  0  0  0  0  0  0  0  0  0
   -3.6323   31.5679   20.6727 C   0  0  2  0  0  0  0  0  0  0  0  0
   -4.6372   32.2005   19.9089 O   0  0  0  0  0  0  0  0  0  0  0  0
   -2.9100   32.6306   21.5552 C   0  0  2  0  0  0  0  0  0  0  0  0
   -1.8839   31.9725   22.3041 O   0  0  0  0  0  0  0  0  0  0  0  0
   -3.8898   33.3479   22.5406 C   0  0  0  0  0  0  0  0  0  0  0  0
   -4.5408   32.4321   23.4116 N   0  0  0  0  0  0  0  0  0  0  0  0
    3.9321   32.0637   19.2492 C   0  0  2  0  0  0  0  0  0  0  0  0
    5.1279   31.6725   18.4924 N   0  0  0  0  0  0  0  0  0  0  0  0
    3.3840   30.7912   20.0933 C   0  0  0  0  0  0  0  0  0  0  0  0
    2.0865   31.2148   20.8958 C   0  0  2  0  0  0  0  0  0  0  0  0
    1.5385   30.0794   21.6588 N   0  0  0  0  0  0  0  0  0  0  0  0
    1.0049   31.7440   19.8945 C   0  0  2  0  0  0  0  0  0  0  0  0
    1.5566   32.9520   19.0673 C   0  0  2  0  0  0  0  0  0  0  0  0
    0.4937   33.3539   18.1685 O   0  0  0  0  0  0  0  0  0  0  0  0
    2.8312   32.5156   18.2758 C   0  0  1  0  0  0  0  0  0  0  0  0
    3.3054   33.6085   17.5641 O   0  0  0  0  0  0  0  0  0  0  0  0
    0.3629   34.5792   17.6049 C   0  0  1  0  0  0  0  0  0  0  0  0
   -0.9419   34.6714   16.7716 C   0  0  2  0  0  0  0  0  0  0  0  0
   -0.8007   34.1715   15.4735 O   0  0  0  0  0  0  0  0  0  0  0  0
   -1.2492   36.1459   16.9565 C   0  0  1  0  0  0  0  0  0  0  0  0
   -0.8542   36.5028   18.3964 C   0  0  2  0  0  0  0  0  0  0  0  0
    0.3038   35.6822   18.5492 O   0  0  0  0  0  0  0  0  0  0  0  0
   -1.9345   36.1957   19.4888 C   0  0  0  0  0  0  0  0  0  0  0  0
   -3.2054   36.6969   18.9960 O   0  0  0  0  0  0  0  0  0  0  0  0
   -0.9165   38.1508   15.5454 C   0  0  2  0  0  0  0  0  0  0  0  0
   -0.4430   36.8988   15.9604 O   0  0  0  0  0  0  0  0  0  0  0  0
    0.2822   39.1427   15.2152 C   0  0  1  0  0  0  0  0  0  0  0  0
   -2.6063   40.7715   18.8131 N   0  0  0  0  0  0  0  0  0  0  0  0
   -0.3765   40.5520   14.7718 C   0  0  1  0  0  0  0  0  0  0  0  0
   -1.2667   40.2990   13.5715 O   0  0  0  0  0  0  0  0  0  0  0  0
   -1.2432   41.1652   15.9962 C   0  0  2  0  0  0  0  0  0  0  0  0
   -0.3703   41.4066   17.1258 O   0  0  0  0  0  0  0  0  0  0  0  0
   -2.4369   40.1053   16.3300 C   0  0  1  0  0  0  0  0  0  0  0  0
   -1.8387   38.7610   16.6413 O   0  0  0  0  0  0  0  0  0  0  0  0
   -3.3383   40.5785   17.5237 C   0  0  0  0  0  0  0  0  0  0  0  0
    1.1904   39.2646   16.4032 N   0  0  0  0  0  0  0  0  0  0  0  0
  1  2  1  6  0  0  0
  1  3  1  0  0  0  0
  1 10  1  0  0  0  0
  3  4  1  6  0  0  0
  3  5  1  0  0  0  0
  5  6  1  1  0  0  0
  5  7  1  0  0  0  0
  7  8  1  6  0  0  0
  7  9  1  0  0  0  0
  9 10  1  0  0  0  0
  9 11  1  1  0  0  0
 11 12  1  0  0  0  0
 13 14  1  6  0  0  0
 13 15  1  0  0  0  0
 13 21  1  0  0  0  0
 16 15  1  0  0  0  0
 16 17  1  6  0  0  0
 18  2  1  1  0  0  0
 18 16  1  0  0  0  0
 19 18  1  0  0  0  0
 19 20  1  6  0  0  0
 21 19  1  0  0  0  0
 21 22  1  1  0  0  0
 23 20  1  1  0  0  0
 23 24  1  0  0  0  0
 23 28  1  0  0  0  0
 24 25  1  6  0  0  0
 24 26  1  0  0  0  0
 26 27  1  0  0  0  0
 26 32  1  6  0  0  0
 27 28  1  0  0  0  0
 27 29  1  1  0  0  0
 29 30  1  0  0  0  0
 31 32  1  1  0  0  0
 31 40  1  0  0  0  0
 33 31  1  0  0  0  0
 33 42  1  1  0  0  0
 35 33  1  0  0  0  0
 35 36  1  6  0  0  0
 37 35  1  0  0  0  0
 37 38  1  1  0  0  0
 37 39  1  0  0  0  0
 39 40  1  0  0  0  0
 39 41  1  1  0  0  0
 41 34  1  0  0  0  0
M  END
>  <CHROM.1>
-68.32726039,58.51202007,-56.82549131,157.07528699,-176.42677757,154.33180738
-46.55077464,147.40668603,-59.83685371,-0.66533200,34.77469737,18.57893607
1.48587439,-0.37354996,2.63312014

>  <Name>
2et4_lig

>  <RI>
0

>  <Rbt.Current_Directory>
/home/itssahil/PROJECTS/Mol_Feturizer/New_Systems/rnas/2et4

>  <Rbt.Executable>
rbdock ($Id: //depot/dev/client3/rdock/2013.1/src/exe/rbdock.cxx#4 $)

>  <Rbt.Library>
libRbt.so (2013.1, Build901 2013/11/27)

>  <Rbt.Parameter_File>
/export/apps/rDock/src/rDock_2013.1_src/data/scripts/dock_solv.prm

>  <Rbt.Receptor>
prm/blind_docking_100.prm

>  <SCORE>
16.3226

>  <SCORE.INTER>
-1.22189

>  <SCORE.INTER.CONST>
1

>  <SCORE.INTER.POLAR>
-0.862561

>  <SCORE.INTER.ROT>
9

>  <SCORE.INTER.SOLV>
33.9099

>  <SCORE.INTER.VDW>
-18.8427

>  <SCORE.INTER.norm>
-0.0290926

>  <SCORE.INTRA>
-1.05225

>  <SCORE.INTRA.DIHEDRAL>
-11.3553

>  <SCORE.INTRA.DIHEDRAL.0>
21.6909

>  <SCORE.INTRA.POLAR>
0

>  <SCORE.INTRA.POLAR.0>
0

>  <SCORE.INTRA.REPUL>
0

>  <SCORE.INTRA.REPUL.0>
0

>  <SCORE.INTRA.SOLV>
3.7036

>  <SCORE.INTRA.SOLV.lig_0>
-116.606

>  <SCORE.INTRA.VDW>
2.77362

>  <SCORE.INTRA.VDW.0>
-6.01229

>  <SCORE.INTRA.norm>
-0.0250537

>  <SCORE.RESTR>
18.5967

>  <SCORE.RESTR.CAVITY>
18.5967

>  <SCORE.RESTR.norm>
0.442779

>  <SCORE.SYSTEM>
0

>  <SCORE.SYSTEM.CONST>
0

>  <SCORE.SYSTEM.DIHEDRAL>
0

>  <SCORE.SYSTEM.SOLV>
0

>  <SCORE.SYSTEM.norm>
0

>  <SCORE.heavy>
42

>  <SCORE.norm>
0.388633

>  <RMSD>
33.521

$$$$
2et4_lig
 OpenBabel11021811423D
libRbt.so/2013.1/901 2013/11/27
 42 45  0  0  0  0  0  0  0  0999 V2000
   -0.8216   31.2606   21.3545 C   0  0  2  0  0  0  0  0  0  0  0  0
   -0.1395   32.1538   20.4719 O   0  0  0  0  0  0  0  0  0  0  0  0
   -1.5761   30.2336   20.4721 C   0  0  2  0  0  0  0  0  0  0  0  0
   -0.6743   29.5334   19.5934 N   0  0  0  0  0  0  0  0  0  0  0  0
   -2.6863   30.9673   19.6657 C   0  0  1  0  0  0  0  0  0  0  0  0
   -3.3734   30.0393   18.8857 O   0  0  0  0  0  0  0  0  0  0  0  0
   -3.6254   31.7000   20.6812 C   0  0  2  0  0  0  0  0  0  0  0  0
   -4.6469   32.3874   19.9901 O   0  0  0  0  0  0  0  0  0  0  0  0
   -2.8203   32.7124   21.5511 C   0  0  2  0  0  0  0  0  0  0  0  0
   -1.7794   31.9994   22.2254 O   0  0  0  0  0  0  0  0  0  0  0  0
   -3.7204   33.4340   22.6068 C   0  0  0  0  0  0  0  0  0  0  0  0
   -4.5309   34.4441   22.0204 N   0  0  0  0  0  0  0  0  0  0  0  0
    3.9982   32.0506   19.2375 C   0  0  2  0  0  0  0  0  0  0  0  0
    5.2117   31.6759   18.5009 N   0  0  0  0  0  0  0  0  0  0  0  0
    3.3819   30.7405   19.9696 C   0  0  0  0  0  0  0  0  0  0  0  0
    2.0657   31.1475   20.7503 C   0  0  2  0  0  0  0  0  0  0  0  0
    1.4565   29.9796   21.4111 N   0  0  0  0  0  0  0  0  0  0  0  0
    1.0399   31.7767   19.7481 C   0  0  2  0  0  0  0  0  0  0  0  0
    1.6574   33.0211   19.0284 C   0  0  2  0  0  0  0  0  0  0  0  0
    0.6426   33.5158   18.1204 O   0  0  0  0  0  0  0  0  0  0  0  0
    2.9498   32.6014   18.2571 C   0  0  1  0  0  0  0  0  0  0  0  0
    3.4820   33.7255   17.6416 O   0  0  0  0  0  0  0  0  0  0  0  0
    0.5243   34.7978   17.6976 C   0  0  1  0  0  0  0  0  0  0  0  0
   -0.7027   34.9642   16.7636 C   0  0  2  0  0  0  0  0  0  0  0  0
   -0.4297   34.6294   15.4338 O   0  0  0  0  0  0  0  0  0  0  0  0
   -1.0717   36.3986   17.0942 C   0  0  1  0  0  0  0  0  0  0  0  0
   -0.8192   36.5851   18.5969 C   0  0  2  0  0  0  0  0  0  0  0  0
    0.3457   35.7759   18.7575 O   0  0  0  0  0  0  0  0  0  0  0  0
   -1.9831   36.1250   19.5394 C   0  0  0  0  0  0  0  0  0  0  0  0
   -2.2841   34.7418   19.2148 O   0  0  0  0  0  0  0  0  0  0  0  0
   -0.5299   38.6451   16.2104 C   0  0  2  0  0  0  0  0  0  0  0  0
   -0.2035   37.2837   16.2747 O   0  0  0  0  0  0  0  0  0  0  0  0
   -2.0653   38.8561   15.8533 C   0  0  1  0  0  0  0  0  0  0  0  0
    1.1521   42.8989   13.8184 N   0  0  0  0  0  0  0  0  0  0  0  0
   -2.3214   40.4519   15.7844 C   0  0  1  0  0  0  0  0  0  0  0  0
   -1.9520   41.0467   17.1287 O   0  0  0  0  0  0  0  0  0  0  0  0
   -1.4148   41.1059   14.6111 C   0  0  2  0  0  0  0  0  0  0  0  0
   -1.7924   40.5294   13.3379 O   0  0  0  0  0  0  0  0  0  0  0  0
    0.1479   40.8371   14.9926 C   0  0  1  0  0  0  0  0  0  0  0  0
    0.3735   39.3600   15.1631 O   0  0  0  0  0  0  0  0  0  0  0  0
    1.1323   41.4068   13.9120 C   0  0  0  0  0  0  0  0  0  0  0  0
   -2.3964   38.1504   14.5714 N   0  0  0  0  0  0  0  0  0  0  0  0
  1  2  1  6  0  0  0
  1  3  1  0  0  0  0
  1 10  1  0  0  0  0
  3  4  1  6  0  0  0
  3  5  1  0  0  0  0
  5  6  1  1  0  0  0
  5  7  1  0  0  0  0
  7  8  1  6  0  0  0
  7  9  1  0  0  0  0
  9 10  1  0  0  0  0
  9 11  1  1  0  0  0
 11 12  1  0  0  0  0
 13 14  1  6  0  0  0
 13 15  1  0  0  0  0
 13 21  1  0  0  0  0
 16 15  1  0  0  0  0
 16 17  1  6  0  0  0
 18  2  1  1  0  0  0
 18 16  1  0  0  0  0
 19 18  1  0  0  0  0
 19 20  1  6  0  0  0
 21 19  1  0  0  0  0
 21 22  1  1  0  0  0
 23 20  1  1  0  0  0
 23 24  1  0  0  0  0
 23 28  1  0  0  0  0
 24 25  1  6  0  0  0
 24 26  1  0  0  0  0
 26 27  1  0  0  0  0
 26 32  1  6  0  0  0
 27 28  1  0  0  0  0
 27 29  1  1  0  0  0
 29 30  1  0  0  0  0
 31 32  1  6  0  0  0
 31 40  1  0  0  0  0
 33 31  1  0  0  0  0
 33 42  1  6  0  0  0
 35 33  1  0  0  0  0
 35 36  1  1  0  0  0
 37 35  1  0  0  0  0
 37 38  1  6  0  0  0
 37 39  1  0  0  0  0
 39 40  1  0  0  0  0
 39 41  1  6  0  0  0
 41 34  1  0  0  0  0
M  END
>  <CHROM.1>
-74.09554521,-76.07125836,-50.48365066,153.15698692,-178.39800408,167.88742230
54.69628493,-49.79542809,67.38010848,-0.51521397,34.91410664,18.24236884
1.54918444,-0.28798270,2.58635515

>  <Name>
2et4_lig

>  <RI>
0

>  <Rbt.Current_Directory>
/home/itssahil/PROJECTS/Mol_Feturizer/New_Systems/rnas/2et4

>  <Rbt.Executable>
rbdock ($Id: //depot/dev/client3/rdock/2013.1/src/exe/rbdock.cxx#4 $)

>  <Rbt.Library>
libRbt.so (2013.1, Build901 2013/11/27)

>  <Rbt.Parameter_File>
/export/apps/rDock/src/rDock_2013.1_src/data/scripts/dock_solv.prm

>  <Rbt.Receptor>
prm/blind_docking_100.prm

>  <SCORE>
5.8836

>  <SCORE.INTER>
-2.0842

>  <SCORE.INTER.CONST>
1

>  <SCORE.INTER.POLAR>
-0.51486

>  <SCORE.INTER.ROT>
9

>  <SCORE.INTER.SOLV>
35.174

>  <SCORE.INTER.VDW>
-20.9979

>  <SCORE.INTER.norm>
-0.0496239

>  <SCORE.INTRA>
-2.80948

>  <SCORE.INTRA.DIHEDRAL>
-14.7516

>  <SCORE.INTRA.DIHEDRAL.0>
21.6909

>  <SCORE.INTRA.POLAR>
0

>  <SCORE.INTRA.POLAR.0>
0

>  <SCORE.INTRA.REPUL>
0

>  <SCORE.INTRA.REPUL.0>
0

>  <SCORE.INTRA.SOLV>
3.82338

>  <SCORE.INTRA.SOLV.lig_0>
-116.606

>  <SCORE.INTRA.VDW>
2.6546

>  <SCORE.INTRA.VDW.0>
-6.01229

>  <SCORE.INTRA.norm>
-0.0668925

>  <SCORE.RESTR>
10.7773

>  <SCORE.RESTR.CAVITY>
10.7773

>  <SCORE.RESTR.norm>
0.256602

>  <SCORE.SYSTEM>
0

>  <SCORE.SYSTEM.CONST>
0

>  <SCORE.SYSTEM.DIHEDRAL>
0

>  <SCORE.SYSTEM.SOLV>
0

>  <SCORE.SYSTEM.norm>
0

>  <SCORE.heavy>
42

>  <SCORE.norm>
0.140086

>  <RMSD>
33.526

$$$$
2et4_lig
 OpenBabel11021811423D
libRbt.so/2013.1/901 2013/11/27
 42 45  0  0  0  0  0  0  0  0999 V2000
   -2.2951   32.6641   18.5293 C   0  0  2  0  0  0  0  0  0  0  0  0
   -1.0941   32.9976   19.2284 O   0  0  0  0  0  0  0  0  0  0  0  0
   -3.3856   32.3942   19.5973 C   0  0  2  0  0  0  0  0  0  0  0  0
   -3.5674   33.5324   20.4616 N   0  0  0  0  0  0  0  0  0  0  0  0
   -3.0014   31.1268   20.4143 C   0  0  1  0  0  0  0  0  0  0  0  0
   -3.9913   30.8772   21.3627 O   0  0  0  0  0  0  0  0  0  0  0  0
   -2.8236   29.9356   19.4146 C   0  0  2  0  0  0  0  0  0  0  0  0
   -2.4663   28.7626   20.1145 O   0  0  0  0  0  0  0  0  0  0  0  0
   -1.7260   30.2585   18.3558 C   0  0  2  0  0  0  0  0  0  0  0  0
   -2.0972   31.4599   17.6736 O   0  0  0  0  0  0  0  0  0  0  0  0
   -1.5500   29.1057   17.3139 C   0  0  0  0  0  0  0  0  0  0  0  0
   -0.6344   29.4500   16.2822 N   0  0  0  0  0  0  0  0  0  0  0  0
    3.1239   32.0955   19.4499 C   0  0  2  0  0  0  0  0  0  0  0  0
    4.4156   31.4515   19.1803 N   0  0  0  0  0  0  0  0  0  0  0  0
    2.0719   30.9908   20.0023 C   0  0  0  0  0  0  0  0  0  0  0  0
    0.6771   31.6878   20.2776 C   0  0  2  0  0  0  0  0  0  0  0  0
   -0.3189   30.7136   20.7578 N   0  0  0  0  0  0  0  0  0  0  0  0
    0.1612   32.3581   18.9596 C   0  0  2  0  0  0  0  0  0  0  0  0
    1.1980   33.3995   18.4227 C   0  0  2  0  0  0  0  0  0  0  0  0
    0.6372   33.9465   17.2039 O   0  0  0  0  0  0  0  0  0  0  0  0
    2.5655   32.6949   18.1489 C   0  0  1  0  0  0  0  0  0  0  0  0
    3.4673   33.6436   17.6881 O   0  0  0  0  0  0  0  0  0  0  0  0
    0.5093   35.2656   16.9210 C   0  0  1  0  0  0  0  0  0  0  0  0
   -0.8994   35.5780   16.3522 C   0  0  2  0  0  0  0  0  0  0  0  0
   -0.9989   35.3495   14.9763 O   0  0  0  0  0  0  0  0  0  0  0  0
   -1.0664   36.9943   16.8708 C   0  0  1  0  0  0  0  0  0  0  0  0
   -0.4270   37.0327   18.2659 C   0  0  2  0  0  0  0  0  0  0  0  0
    0.6781   36.1531   18.0593 O   0  0  0  0  0  0  0  0  0  0  0  0
   -1.3432   36.5512   19.4421 C   0  0  0  0  0  0  0  0  0  0  0  0
   -2.0656   35.3796   18.9787 O   0  0  0  0  0  0  0  0  0  0  0  0
   -1.0954   38.9874   15.4051 C   0  0  2  0  0  0  0  0  0  0  0  0
   -0.3730   37.9029   15.9208 O   0  0  0  0  0  0  0  0  0  0  0  0
   -0.2251   39.8220   14.3679 C   0  0  1  0  0  0  0  0  0  0  0  0
   -3.1845   41.0789   18.6158 N   0  0  0  0  0  0  0  0  0  0  0  0
   -1.1445   41.0515   13.8583 C   0  0  1  0  0  0  0  0  0  0  0  0
   -2.3977   40.4743   13.2310 O   0  0  0  0  0  0  0  0  0  0  0  0
   -1.5300   42.0073   15.1090 C   0  0  2  0  0  0  0  0  0  0  0  0
   -0.3187   42.5531   15.6844 O   0  0  0  0  0  0  0  0  0  0  0  0
   -2.3873   41.1086   16.1660 C   0  0  1  0  0  0  0  0  0  0  0  0
   -1.5810   39.9038   16.5663 O   0  0  0  0  0  0  0  0  0  0  0  0
   -2.8020   41.9220   17.4418 C   0  0  0  0  0  0  0  0  0  0  0  0
    1.0532   40.2699   15.0129 N   0  0  0  0  0  0  0  0  0  0  0  0
  1  2  1  1  0  0  0
  1  3  1  0  0  0  0
  1 10  1  0  0  0  0
  3  4  1  1  0  0  0
  3  5  1  0  0  0  0
  5  6  1  1  0  0  0
  5  7  1  0  0  0  0
  7  8  1  1  0  0  0
  7  9  1  0  0  0  0
  9 10  1  0  0  0  0
  9 11  1  6  0  0  0
 11 12  1  0  0  0  0
 13 14  1  6  0  0  0
 13 15  1  0  0  0  0
 13 21  1  0  0  0  0
 16 15  1  0  0  0  0
 16 17  1  6  0  0  0
 18  2  1  1  0  0  0
 18 16  1  0  0  0  0
 19 18  1  0  0  0  0
 19 20  1  6  0  0  0
 21 19  1  0  0  0  0
 21 22  1  1  0  0  0
 23 20  1  1  0  0  0
 23 24  1  0  0  0  0
 23 28  1  0  0  0  0
 24 25  1  6  0  0  0
 24 26  1  0  0  0  0
 26 27  1  0  0  0  0
 26 32  1  6  0  0  0
 27 28  1  0  0  0  0
 27 29  1  1  0  0  0
 29 30  1  0  0  0  0
 31 32  1  1  0  0  0
 31 40  1  0  0  0  0
 33 31  1  0  0  0  0
 33 42  1  1  0  0  0
 35 33  1  0  0  0  0
 35 36  1  1  0  0  0
 37 35  1  0  0  0  0
 37 38  1  1  0  0  0
 37 39  1  0  0  0  0
 39 40  1  0  0  0  0
 39 41  1  1  0  0  0
 41 34  1  0  0  0  0
M  END
>  <CHROM.1>
129.17291812,174.81946544,-121.38622362,129.08754940,-133.99534362,127.44762737
41.35543200,-177.88343319,-161.13267968,-0.77759227,35.03418227,17.75419096
1.52049087,-0.25871377,2.76741280

>  <Name>
2et4_lig

>  <RI>
0

>  <Rbt.Current_Directory>
/home/itssahil/PROJECTS/Mol_Feturizer/New_Systems/rnas/2et4

>  <Rbt.Executable>
rbdock ($Id: //depot/dev/client3/rdock/2013.1/src/exe/rbdock.cxx#4 $)

>  <Rbt.Library>
libRbt.so (2013.1, Build901 2013/11/27)

>  <Rbt.Parameter_File>
/export/apps/rDock/src/rDock_2013.1_src/data/scripts/dock_solv.prm

>  <Rbt.Receptor>
prm/blind_docking_100.prm

>  <SCORE>
31.9511

>  <SCORE.INTER>
6.15754

>  <SCORE.INTER.CONST>
1

>  <SCORE.INTER.POLAR>
0

>  <SCORE.INTER.ROT>
9

>  <SCORE.INTER.SOLV>
26.1483

>  <SCORE.INTER.VDW>
-14.2111

>  <SCORE.INTER.norm>
0.146608

>  <SCORE.INTRA>
10.8986

>  <SCORE.INTRA.DIHEDRAL>
14.8288

>  <SCORE.INTRA.DIHEDRAL.0>
21.6909

>  <SCORE.INTRA.POLAR>
0

>  <SCORE.INTRA.POLAR.0>
0

>  <SCORE.INTRA.REPUL>
0.0130425

>  <SCORE.INTRA.REPUL.0>
0

>  <SCORE.INTRA.SOLV>
3.6762

>  <SCORE.INTRA.SOLV.lig_0>
-116.606

>  <SCORE.INTRA.VDW>
1.58088

>  <SCORE.INTRA.VDW.0>
-6.01229

>  <SCORE.INTRA.norm>
0.259491

>  <SCORE.RESTR>
14.895

>  <SCORE.RESTR.CAVITY>
14.895

>  <SCORE.RESTR.norm>
0.354642

>  <SCORE.SYSTEM>
0

>  <SCORE.SYSTEM.CONST>
0

>  <SCORE.SYSTEM.DIHEDRAL>
0

>  <SCORE.SYSTEM.SOLV>
0

>  <SCORE.SYSTEM.norm>
0

>  <SCORE.heavy>
42

>  <SCORE.norm>
0.760741

>  <RMSD>
33.560

$$$$
2et4_lig
 OpenBabel11021811423D
libRbt.so/2013.1/901 2013/11/27
 42 45  0  0  0  0  0  0  0  0999 V2000
   -0.9098   31.3380   21.2903 C   0  0  2  0  0  0  0  0  0  0  0  0
   -0.2465   32.1921   20.3561 O   0  0  0  0  0  0  0  0  0  0  0  0
   -1.7043   30.2913   20.4682 C   0  0  2  0  0  0  0  0  0  0  0  0
   -0.8397   29.5504   19.5855 N   0  0  0  0  0  0  0  0  0  0  0  0
   -2.8316   31.0112   19.6732 C   0  0  1  0  0  0  0  0  0  0  0  0
   -3.5543   30.0661   18.9478 O   0  0  0  0  0  0  0  0  0  0  0  0
   -3.7288   31.7896   20.6926 C   0  0  2  0  0  0  0  0  0  0  0  0
   -4.7642   32.4660   20.0115 O   0  0  0  0  0  0  0  0  0  0  0  0
   -2.8842   32.8207   21.5010 C   0  0  2  0  0  0  0  0  0  0  0  0
   -1.8302   32.1179   22.1656 O   0  0  0  0  0  0  0  0  0  0  0  0
   -3.7412   33.5890   22.5597 C   0  0  0  0  0  0  0  0  0  0  0  0
   -4.5651   34.5828   21.9643 N   0  0  0  0  0  0  0  0  0  0  0  0
    3.9290   32.0207   19.2648 C   0  0  2  0  0  0  0  0  0  0  0  0
    5.1592   31.6344   18.5628 N   0  0  0  0  0  0  0  0  0  0  0  0
    3.2582   30.7095   19.9453 C   0  0  0  0  0  0  0  0  0  0  0  0
    1.9246   31.1295   20.6885 C   0  0  2  0  0  0  0  0  0  0  0  0
    1.2666   29.9619   21.3012 N   0  0  0  0  0  0  0  0  0  0  0  0
    0.9491   31.8038   19.6657 C   0  0  2  0  0  0  0  0  0  0  0  0
    1.6191   33.0491   18.9962 C   0  0  2  0  0  0  0  0  0  0  0  0
    0.6484   33.5866   18.0647 O   0  0  0  0  0  0  0  0  0  0  0  0
    2.9284   32.6167   18.2611 C   0  0  1  0  0  0  0  0  0  0  0  0
    3.5069   33.7414   17.6901 O   0  0  0  0  0  0  0  0  0  0  0  0
    0.5675   34.8818   17.6746 C   0  0  1  0  0  0  0  0  0  0  0  0
   -0.6737   35.1147   16.7742 C   0  0  2  0  0  0  0  0  0  0  0  0
   -0.4438   34.8022   15.4309 O   0  0  0  0  0  0  0  0  0  0  0  0
   -0.9821   36.5532   17.1464 C   0  0  1  0  0  0  0  0  0  0  0  0
   -0.6884   36.6945   18.6466 C   0  0  2  0  0  0  0  0  0  0  0  0
    0.4494   35.8401   18.7606 O   0  0  0  0  0  0  0  0  0  0  0  0
   -1.8464   36.2544   19.6058 C   0  0  0  0  0  0  0  0  0  0  0  0
   -3.0971   36.6724   18.9975 O   0  0  0  0  0  0  0  0  0  0  0  0
   -0.4338   38.7833   16.2258 C   0  0  2  0  0  0  0  0  0  0  0  0
   -0.1011   37.4257   16.3271 O   0  0  0  0  0  0  0  0  0  0  0  0
   -1.9771   38.9779   15.8936 C   0  0  1  0  0  0  0  0  0  0  0  0
    1.1692   42.9619   13.6520 N   0  0  0  0  0  0  0  0  0  0  0  0
   -2.2405   40.5698   15.7788 C   0  0  1  0  0  0  0  0  0  0  0  0
   -1.8460   41.2088   17.0954 O   0  0  0  0  0  0  0  0  0  0  0  0
   -1.3605   41.1886   14.5667 C   0  0  2  0  0  0  0  0  0  0  0  0
   -1.7619   40.5701   13.3207 O   0  0  0  0  0  0  0  0  0  0  0  0
    0.2106   40.9371   14.9245 C   0  0  1  0  0  0  0  0  0  0  0  0
    0.4452   39.4669   15.1377 O   0  0  0  0  0  0  0  0  0  0  0  0
    1.1706   41.4747   13.8062 C   0  0  0  0  0  0  0  0  0  0  0  0
   -2.3316   38.2302   14.6422 N   0  0  0  0  0  0  0  0  0  0  0  0
  1  2  1  6  0  0  0
  1  3  1  0  0  0  0
  1 10  1  0  0  0  0
  3  4  1  6  0  0  0
  3  5  1  0  0  0  0
  5  6  1  1  0  0  0
  5  7  1  0  0  0  0
  7  8  1  6  0  0  0
  7  9  1  0  0  0  0
  9 10  1  0  0  0  0
  9 11  1  1  0  0  0
 11 12  1  0  0  0  0
 13 14  1  6  0  0  0
 13 15  1  0  0  0  0
 13 21  1  0  0  0  0
 16 15  1  0  0  0  0
 16 17  1  6  0  0  0
 18  2  1  1  0  0  0
 18 16  1  0  0  0  0
 19 18  1  0  0  0  0
 19 20  1  6  0  0  0
 21 19  1  0  0  0  0
 21 22  1  1  0  0  0
 23 20  1  1  0  0  0
 23 24  1  0  0  0  0
 23 28  1  0  0  0  0
 24 25  1  6  0  0  0
 24 26  1  0  0  0  0
 26 27  1  0  0  0  0
 26 32  1  6  0  0  0
 27 28  1  0  0  0  0
 27 29  1  1  0  0  0
 29 30  1  0  0  0  0
 31 32  1  6  0  0  0
 31 40  1  0  0  0  0
 33 31  1  0  0  0  0
 33 42  1  6  0  0  0
 35 33  1  0  0  0  0
 35 36  1  1  0  0  0
 37 35  1  0  0  0  0
 37 38  1  6  0  0  0
 37 39  1  0  0  0  0
 39 40  1  0  0  0  0
 39 41  1  6  0  0  0
 41 34  1  0  0  0  0
M  END
>  <CHROM.1>
-77.79575759,-75.68446816,-44.48699049,152.64794324,-174.67630433,163.47208802
-38.20832639,-47.28023830,66.60977602,-0.55018266,35.03894078,18.22099514
1.55988597,-0.30228281,2.59644970

>  <Name>
2et4_lig

>  <RI>
0

>  <Rbt.Current_Directory>
/home/itssahil/PROJECTS/Mol_Feturizer/New_Systems/rnas/2et4

>  <Rbt.Executable>
rbdock ($Id: //depot/dev/client3/rdock/2013.1/src/exe/rbdock.cxx#4 $)

>  <Rbt.Library>
libRbt.so (2013.1, Build901 2013/11/27)

>  <Rbt.Parameter_File>
/export/apps/rDock/src/rDock_2013.1_src/data/scripts/dock_solv.prm

>  <Rbt.Receptor>
prm/blind_docking_100.prm

>  <SCORE>
8.04253

>  <SCORE.INTER>
-3.06772

>  <SCORE.INTER.CONST>
1

>  <SCORE.INTER.POLAR>
-0.525182

>  <SCORE.INTER.ROT>
9

>  <SCORE.INTER.SOLV>
34.6003

>  <SCORE.INTER.VDW>
-21.428

>  <SCORE.INTER.norm>
-0.0730409

>  <SCORE.INTRA>
-0.220541

>  <SCORE.INTRA.DIHEDRAL>
-11.2422

>  <SCORE.INTRA.DIHEDRAL.0>
21.6909

>  <SCORE.INTRA.POLAR>
0

>  <SCORE.INTRA.POLAR.0>
0

>  <SCORE.INTRA.REPUL>
0

>  <SCORE.INTRA.REPUL.0>
0

>  <SCORE.INTRA.SOLV>
2.69518

>  <SCORE.INTRA.SOLV.lig_0>
-116.606

>  <SCORE.INTRA.VDW>
4.05298

>  <SCORE.INTRA.VDW.0>
-6.01229

>  <SCORE.INTRA.norm>
-0.00525098

>  <SCORE.RESTR>
11.3308

>  <SCORE.RESTR.CAVITY>
11.3308

>  <SCORE.RESTR.norm>
0.269781

>  <SCORE.SYSTEM>
0

>  <SCORE.SYSTEM.CONST>
0

>  <SCORE.SYSTEM.DIHEDRAL>
0

>  <SCORE.SYSTEM.SOLV>
0

>  <SCORE.SYSTEM.norm>
0

>  <SCORE.heavy>
42

>  <SCORE.norm>
0.191489

>  <RMSD>
33.634

$$$$
2et4_lig
 OpenBabel11021811423D
libRbt.so/2013.1/901 2013/11/27
 42 45  0  0  0  0  0  0  0  0999 V2000
    0.8200   32.4172   18.7208 C   0  0  2  0  0  0  0  0  0  0  0  0
    0.7063   31.6093   17.5476 O   0  0  0  0  0  0  0  0  0  0  0  0
    1.1622   31.4684   19.8978 C   0  0  2  0  0  0  0  0  0  0  0  0
    2.3696   30.7259   19.6398 N   0  0  0  0  0  0  0  0  0  0  0  0
   -0.0389   30.5126   20.1526 C   0  0  1  0  0  0  0  0  0  0  0  0
    0.2650   29.6717   21.2213 O   0  0  0  0  0  0  0  0  0  0  0  0
   -1.3090   31.3853   20.4268 C   0  0  2  0  0  0  0  0  0  0  0  0
   -2.4284   30.5561   20.6569 O   0  0  0  0  0  0  0  0  0  0  0  0
   -1.6054   32.3284   19.2216 C   0  0  2  0  0  0  0  0  0  0  0  0
   -0.4525   33.1440   18.9932 O   0  0  0  0  0  0  0  0  0  0  0  0
   -2.8453   33.2462   19.4778 C   0  0  0  0  0  0  0  0  0  0  0  0
   -3.6404   32.7838   20.5619 N   0  0  0  0  0  0  0  0  0  0  0  0
   -1.5248   31.8785   13.8592 C   0  0  2  0  0  0  0  0  0  0  0  0
   -2.6626   31.9689   12.9356 N   0  0  0  0  0  0  0  0  0  0  0  0
   -1.6388   30.5131   14.7282 C   0  0  0  0  0  0  0  0  0  0  0  0
   -0.4173   30.4281   15.7322 C   0  0  2  0  0  0  0  0  0  0  0  0
   -0.4944   29.2127   16.5621 N   0  0  0  0  0  0  0  0  0  0  0  0
   -0.4133   31.6933   16.6552 C   0  0  2  0  0  0  0  0  0  0  0  0
   -0.3323   33.0029   15.8030 C   0  0  2  0  0  0  0  0  0  0  0  0
   -0.3496   34.1058   16.7424 O   0  0  0  0  0  0  0  0  0  0  0  0
   -1.5477   33.0754   14.8238 C   0  0  1  0  0  0  0  0  0  0  0  0
   -1.4419   34.2377   14.0731 O   0  0  0  0  0  0  0  0  0  0  0  0
   -0.1872   35.4126   16.4226 C   0  0  1  0  0  0  0  0  0  0  0  0
   -1.5487   36.1554   16.4109 C   0  0  2  0  0  0  0  0  0  0  0  0
   -2.2364   36.0218   15.2008 O   0  0  0  0  0  0  0  0  0  0  0  0
   -1.0808   37.5349   16.8360 C   0  0  1  0  0  0  0  0  0  0  0  0
    0.0311   37.3246   17.8734 C   0  0  2  0  0  0  0  0  0  0  0  0
    0.6609   36.1629   17.3334 O   0  0  0  0  0  0  0  0  0  0  0  0
   -0.4534   37.0940   19.3454 C   0  0  0  0  0  0  0  0  0  0  0  0
   -1.4080   35.9998   19.3223 O   0  0  0  0  0  0  0  0  0  0  0  0
   -0.8301   39.6039   15.5027 C   0  0  2  0  0  0  0  0  0  0  0  0
   -0.5788   38.2304   15.6223 O   0  0  0  0  0  0  0  0  0  0  0  0
   -2.2696   39.8774   14.8841 C   0  0  1  0  0  0  0  0  0  0  0  0
    1.9201   43.5694   13.9835 N   0  0  0  0  0  0  0  0  0  0  0  0
   -2.4409   41.4821   14.7723 C   0  0  1  0  0  0  0  0  0  0  0  0
   -2.2854   42.0704   16.1605 O   0  0  0  0  0  0  0  0  0  0  0  0
   -1.3170   42.0886   13.7746 C   0  0  2  0  0  0  0  0  0  0  0  0
   -1.4922   41.5194   12.4550 O   0  0  0  0  0  0  0  0  0  0  0  0
    0.1427   41.7564   14.4219 C   0  0  1  0  0  0  0  0  0  0  0  0
    0.2714   40.2722   14.6286 O   0  0  0  0  0  0  0  0  0  0  0  0
    1.3234   42.2760   13.5290 C   0  0  0  0  0  0  0  0  0  0  0  0
   -2.4032   39.1772   13.5641 N   0  0  0  0  0  0  0  0  0  0  0  0
  1  2  1  6  0  0  0
  1  3  1  0  0  0  0
  1 10  1  0  0  0  0
  3  4  1  6  0  0  0
  3  5  1  0  0  0  0
  5  6  1  1  0  0  0
  5  7  1  0  0  0  0
  7  8  1  6  0  0  0
  7  9  1  0  0  0  0
  9 10  1  0  0  0  0
  9 11  1  1  0  0  0
 11 12  1  0  0  0  0
 13 14  1  6  0  0  0
 13 15  1  0  0  0  0
 13 21  1  0  0  0  0
 16 15  1  0  0  0  0
 16 17  1  1  0  0  0
 18  2  1  1  0  0  0
 18 16  1  0  0  0  0
 19 18  1  0  0  0  0
 19 20  1  1  0  0  0
 21 19  1  0  0  0  0
 21 22  1  6  0  0  0
 23 20  1  1  0  0  0
 23 24  1  0  0  0  0
 23 28  1  0  0  0  0
 24 25  1  6  0  0  0
 24 26  1  0  0  0  0
 26 27  1  0  0  0  0
 26 32  1  6  0  0  0
 27 28  1  0  0  0  0
 27 29  1  1  0  0  0
 29 30  1  0  0  0  0
 31 32  1  6  0  0  0
 31 40  1  0  0  0  0
 33 31  1  0  0  0  0
 33 42  1  6  0  0  0
 35 33  1  0  0  0  0
 35 36  1  1  0  0  0
 37 35  1  0  0  0  0
 37 38  1  6  0  0  0
 37 39  1  0  0  0  0
 39 40  1  0  0  0  0
 39 41  1  6  0  0  0
 41 34  1  0  0  0  0
M  END
>  <CHROM.1>
130.41894196,-16.13395933,-164.27906558,174.34245233,102.32757648,142.76546042
53.46764168,-84.56837905,99.86583153,-0.81151688,35.34130050,16.68968901
-1.51355924,-1.40684432,-0.34243713

>  <Name>
2et4_lig

>  <RI>
0

>  <Rbt.Current_Directory>
/home/itssahil/PROJECTS/Mol_Feturizer/New_Systems/rnas/2et4

>  <Rbt.Executable>
rbdock ($Id: //depot/dev/client3/rdock/2013.1/src/exe/rbdock.cxx#4 $)

>  <Rbt.Library>
libRbt.so (2013.1, Build901 2013/11/27)

>  <Rbt.Parameter_File>
/export/apps/rDock/src/rDock_2013.1_src/data/scripts/dock_solv.prm

>  <Rbt.Receptor>
prm/blind_docking_100.prm

>  <SCORE>
26.5369

>  <SCORE.INTER>
1.72294

>  <SCORE.INTER.CONST>
1

>  <SCORE.INTER.POLAR>
-0.829676

>  <SCORE.INTER.ROT>
9

>  <SCORE.INTER.SOLV>
31.9395

>  <SCORE.INTER.VDW>
-16.3323

>  <SCORE.INTER.norm>
0.0410224

>  <SCORE.INTRA>
9.49804

>  <SCORE.INTRA.DIHEDRAL>
8.16369

>  <SCORE.INTRA.DIHEDRAL.0>
21.6909

>  <SCORE.INTRA.POLAR>
0

>  <SCORE.INTRA.POLAR.0>
0

>  <SCORE.INTRA.REPUL>
0.0116959

>  <SCORE.INTRA.REPUL.0>
0

>  <SCORE.INTRA.SOLV>
-0.025511

>  <SCORE.INTRA.SOLV.lig_0>
-116.606

>  <SCORE.INTRA.VDW>
5.37047

>  <SCORE.INTRA.VDW.0>
-6.01229

>  <SCORE.INTRA.norm>
0.226144

>  <SCORE.RESTR>
15.3159

>  <SCORE.RESTR.CAVITY>
15.3159

>  <SCORE.RESTR.norm>
0.364665

>  <SCORE.SYSTEM>
0

>  <SCORE.SYSTEM.CONST>
0

>  <SCORE.SYSTEM.DIHEDRAL>
0

>  <SCORE.SYSTEM.SOLV>
0

>  <SCORE.SYSTEM.norm>
0

>  <SCORE.heavy>
42

>  <SCORE.norm>
0.631831

>  <RMSD>
33.645

$$$$
2et4_lig
 OpenBabel11021811423D
libRbt.so/2013.1/901 2013/11/27
 42 45  0  0  0  0  0  0  0  0999 V2000
   -1.4606   31.6042   21.0106 C   0  0  2  0  0  0  0  0  0  0  0  0
   -0.8630   32.1300   19.8237 O   0  0  0  0  0  0  0  0  0  0  0  0
   -2.4985   30.5416   20.5675 C   0  0  2  0  0  0  0  0  0  0  0  0
   -1.8854   29.5077   19.7733 N   0  0  0  0  0  0  0  0  0  0  0  0
   -3.6473   31.2412   19.7852 C   0  0  1  0  0  0  0  0  0  0  0  0
   -4.5869   30.2861   19.4021 O   0  0  0  0  0  0  0  0  0  0  0  0
   -4.2653   32.3452   20.7067 C   0  0  2  0  0  0  0  0  0  0  0  0
   -5.3106   33.0127   20.0319 O   0  0  0  0  0  0  0  0  0  0  0  0
   -3.1826   33.3821   21.1335 C   0  0  2  0  0  0  0  0  0  0  0  0
   -2.1249   32.6828   21.7961 O   0  0  0  0  0  0  0  0  0  0  0  0
   -3.7559   34.4785   22.0899 C   0  0  0  0  0  0  0  0  0  0  0  0
   -2.9171   35.6243   22.1568 N   0  0  0  0  0  0  0  0  0  0  0  0
    3.4440   31.9456   19.5585 C   0  0  2  0  0  0  0  0  0  0  0  0
    4.7854   31.5567   19.1057 N   0  0  0  0  0  0  0  0  0  0  0  0
    2.6502   30.6348   20.0914 C   0  0  0  0  0  0  0  0  0  0  0  0
    1.1996   31.0577   20.5648 C   0  0  2  0  0  0  0  0  0  0  0  0
    0.4318   29.8906   21.0342 N   0  0  0  0  0  0  0  0  0  0  0  0
    0.4421   31.7392   19.3756 C   0  0  2  0  0  0  0  0  0  0  0  0
    1.2329   32.9840   18.8530 C   0  0  2  0  0  0  0  0  0  0  0  0
    0.4620   33.5285   17.7538 O   0  0  0  0  0  0  0  0  0  0  0  0
    2.6580   32.5488   18.3829 C   0  0  1  0  0  0  0  0  0  0  0  0
    3.3396   33.6731   17.9388 O   0  0  0  0  0  0  0  0  0  0  0  0
    0.5765   34.7855   17.2608 C   0  0  1  0  0  0  0  0  0  0  0  0
   -0.6982   35.1934   16.4770 C   0  0  2  0  0  0  0  0  0  0  0  0
   -0.6914   34.7525   15.1502 O   0  0  0  0  0  0  0  0  0  0  0  0
   -0.6888   36.6861   16.7501 C   0  0  1  0  0  0  0  0  0  0  0  0
   -0.1979   36.8685   18.1932 C   0  0  2  0  0  0  0  0  0  0  0  0
    0.7675   35.8194   18.2639 O   0  0  0  0  0  0  0  0  0  0  0  0
   -1.2951   36.7268   19.3027 C   0  0  0  0  0  0  0  0  0  0  0  0
   -2.0899   35.5548   18.9806 O   0  0  0  0  0  0  0  0  0  0  0  0
   -0.1806   38.4961   15.1417 C   0  0  2  0  0  0  0  0  0  0  0  0
    0.2348   37.3141   15.7696 O   0  0  0  0  0  0  0  0  0  0  0  0
    0.2515   39.7784   15.9776 C   0  0  1  0  0  0  0  0  0  0  0  0
   -4.5699   40.6617   13.4836 N   0  0  0  0  0  0  0  0  0  0  0  0
   -0.2952   41.0732   15.1768 C   0  0  1  0  0  0  0  0  0  0  0  0
    0.3087   41.0570   13.7867 O   0  0  0  0  0  0  0  0  0  0  0  0
   -1.9127   41.0246   15.0884 C   0  0  2  0  0  0  0  0  0  0  0  0
   -2.4653   41.0506   16.4264 O   0  0  0  0  0  0  0  0  0  0  0  0
   -2.3176   39.6800   14.2591 C   0  0  1  0  0  0  0  0  0  0  0  0
   -1.7240   38.4765   14.9382 O   0  0  0  0  0  0  0  0  0  0  0  0
   -3.8711   39.5064   14.1258 C   0  0  0  0  0  0  0  0  0  0  0  0
   -0.2809   39.6829   17.3770 N   0  0  0  0  0  0  0  0  0  0  0  0
  1  2  1  6  0  0  0
  1  3  1  0  0  0  0
  1 10  1  0  0  0  0
  3  4  1  6  0  0  0
  3  5  1  0  0  0  0
  5  6  1  1  0  0  0
  5  7  1  0  0  0  0
  7  8  1  6  0  0  0
  7  9  1  0  0  0  0
  9 10  1  0  0  0  0
  9 11  1  1  0  0  0
 11 12  1  0  0  0  0
 13 14  1  6  0  0  0
 13 15  1  0  0  0  0
 13 21  1  0  0  0  0
 16 15  1  0  0  0  0
 16 17  1  6  0  0  0
 18  2  1  1  0  0  0
 18 16  1  0  0  0  0
 19 18  1  0  0  0  0
 19 20  1  6  0  0  0
 21 19  1  0  0  0  0
 21 22  1  1  0  0  0
 23 20  1  1  0  0  0
 23 24  1  0  0  0  0
 23 28  1  0  0  0  0
 24 25  1  6  0  0  0
 24 26  1  0  0  0  0
 26 27  1  0  0  0  0
 26 32  1  6  0  0  0
 27 28  1  0  0  0  0
 27 29  1  1  0  0  0
 29 30  1  0  0  0  0
 31 32  1  1  0  0  0
 31 40  1  0  0  0  0
 33 31  1  0  0  0  0
 33 42  1  1  0  0  0
 35 33  1  0  0  0  0
 35 36  1  6  0  0  0
 37 35  1  0  0  0  0
 37 38  1  1  0  0  0
 37 39  1  0  0  0  0
 39 40  1  0  0  0  0
 39 41  1  1  0  0  0
 41 34  1  0  0  0  0
M  END
>  <CHROM.1>
-102.49726005,-162.18662258,-17.05660734,160.79127794,-159.34247659,136.01344924
45.04834114,89.47562476,56.88618848,-0.90050342,35.03164968,18.14466698,1.49249780
-0.22702744,2.57057544

>  <Name>
2et4_lig

>  <RI>
0

>  <Rbt.Current_Directory>
/home/itssahil/PROJECTS/Mol_Feturizer/New_Systems/rnas/2et4

>  <Rbt.Executable>
rbdock ($Id: //depot/dev/client3/rdock/2013.1/src/exe/rbdock.cxx#4 $)

>  <Rbt.Library>
libRbt.so (2013.1, Build901 2013/11/27)

>  <Rbt.Parameter_File>
/export/apps/rDock/src/rDock_2013.1_src/data/scripts/dock_solv.prm

>  <Rbt.Receptor>
prm/blind_docking_100.prm

>  <SCORE>
8.81942

>  <SCORE.INTER>
-10.4826

>  <SCORE.INTER.CONST>
1

>  <SCORE.INTER.POLAR>
-0.600889

>  <SCORE.INTER.ROT>
9

>  <SCORE.INTER.SOLV>
35.7052

>  <SCORE.INTER.VDW>
-26.4872

>  <SCORE.INTER.norm>
-0.249586

>  <SCORE.INTRA>
9.19366

>  <SCORE.INTRA.DIHEDRAL>
5.00131

>  <SCORE.INTRA.DIHEDRAL.0>
21.6909

>  <SCORE.INTRA.POLAR>
0

>  <SCORE.INTRA.POLAR.0>
0

>  <SCORE.INTRA.REPUL>
0.0177674

>  <SCORE.INTRA.REPUL.0>
0

>  <SCORE.INTRA.SOLV>
4.82555

>  <SCORE.INTRA.SOLV.lig_0>
-116.606

>  <SCORE.INTRA.VDW>
4.19139

>  <SCORE.INTRA.VDW.0>
-6.01229

>  <SCORE.INTRA.norm>
0.218897

>  <SCORE.RESTR>
10.1084

>  <SCORE.RESTR.CAVITY>
10.1084

>  <SCORE.RESTR.norm>
0.240676

>  <SCORE.SYSTEM>
0

>  <SCORE.SYSTEM.CONST>
0

>  <SCORE.SYSTEM.DIHEDRAL>
0

>  <SCORE.SYSTEM.SOLV>
0

>  <SCORE.SYSTEM.norm>
0

>  <SCORE.heavy>
42

>  <SCORE.norm>
0.209986

>  <RMSD>
33.684

$$$$
2et4_lig
 OpenBabel11021811423D
libRbt.so/2013.1/901 2013/11/27
 42 45  0  0  0  0  0  0  0  0999 V2000
   -1.1973   30.1787   19.1206 C   0  0  2  0  0  0  0  0  0  0  0  0
   -2.0482   31.3229   19.0272 O   0  0  0  0  0  0  0  0  0  0  0  0
    0.2580   30.6740   18.9220 C   0  0  2  0  0  0  0  0  0  0  0  0
    0.6069   31.6814   19.8911 N   0  0  0  0  0  0  0  0  0  0  0  0
    0.4237   31.2118   17.4713 C   0  0  1  0  0  0  0  0  0  0  0  0
    1.7369   31.6413   17.2904 O   0  0  0  0  0  0  0  0  0  0  0  0
    0.0315   30.0678   16.4776 C   0  0  2  0  0  0  0  0  0  0  0  0
    0.1607   30.5158   15.1449 O   0  0  0  0  0  0  0  0  0  0  0  0
   -1.4341   29.5972   16.7234 C   0  0  2  0  0  0  0  0  0  0  0  0
   -1.5476   29.1675   18.0832 O   0  0  0  0  0  0  0  0  0  0  0  0
   -1.8473   28.4247   15.7746 C   0  0  0  0  0  0  0  0  0  0  0  0
   -3.1433   27.9230   16.0745 N   0  0  0  0  0  0  0  0  0  0  0  0
   -4.1009   34.0148   21.7096 C   0  0  2  0  0  0  0  0  0  0  0  0
   -4.3417   34.9308   22.8316 N   0  0  0  0  0  0  0  0  0  0  0  0
   -3.6343   32.5694   22.2801 C   0  0  0  0  0  0  0  0  0  0  0  0
   -3.3622   31.5903   21.0657 C   0  0  2  0  0  0  0  0  0  0  0  0
   -2.9100   30.2697   21.5382 N   0  0  0  0  0  0  0  0  0  0  0  0
   -2.2724   32.2131   20.1292 C   0  0  2  0  0  0  0  0  0  0  0  0
   -2.7228   33.6186   19.6100 C   0  0  2  0  0  0  0  0  0  0  0  0
   -1.6481   34.1106   18.7721 O   0  0  0  0  0  0  0  0  0  0  0  0
   -2.9794   34.5743   20.8192 C   0  0  1  0  0  0  0  0  0  0  0  0
   -3.3901   35.8061   20.3297 O   0  0  0  0  0  0  0  0  0  0  0  0
   -1.6903   35.2383   18.0218 C   0  0  1  0  0  0  0  0  0  0  0  0
   -0.2638   35.7938   17.7727 C   0  0  2  0  0  0  0  0  0  0  0  0
    0.2032   36.5961   18.8182 O   0  0  0  0  0  0  0  0  0  0  0  0
   -0.4792   36.4241   16.4091 C   0  0  1  0  0  0  0  0  0  0  0  0
   -1.4326   35.4989   15.6399 C   0  0  2  0  0  0  0  0  0  0  0  0
   -2.2824   35.0734   16.7050 O   0  0  0  0  0  0  0  0  0  0  0  0
   -0.7570   34.2864   14.9132 C   0  0  0  0  0  0  0  0  0  0  0  0
   -0.1589   33.4456   15.9353 O   0  0  0  0  0  0  0  0  0  0  0  0
   -1.1281   38.6459   15.5351 C   0  0  2  0  0  0  0  0  0  0  0  0
   -1.0720   37.7694   16.6272 O   0  0  0  0  0  0  0  0  0  0  0  0
   -0.1038   39.8506   15.7064 C   0  0  1  0  0  0  0  0  0  0  0  0
   -5.2816   39.4822   14.4154 N   0  0  0  0  0  0  0  0  0  0  0  0
   -0.2698   40.8026   14.4092 C   0  0  1  0  0  0  0  0  0  0  0  0
    0.0154   39.9706   13.1747 O   0  0  0  0  0  0  0  0  0  0  0  0
   -1.7759   41.3982   14.3511 C   0  0  2  0  0  0  0  0  0  0  0  0
   -2.0204   42.1955   15.5346 O   0  0  0  0  0  0  0  0  0  0  0  0
   -2.7972   40.1342   14.2136 C   0  0  1  0  0  0  0  0  0  0  0  0
   -2.5774   39.1872   15.3612 O   0  0  0  0  0  0  0  0  0  0  0  0
   -4.2998   40.5832   14.1715 C   0  0  0  0  0  0  0  0  0  0  0  0
   -0.3636   40.5659   16.9994 N   0  0  0  0  0  0  0  0  0  0  0  0
  1  2  1  6  0  0  0
  1  3  1  0  0  0  0
  1 10  1  0  0  0  0
  3  4  1  1  0  0  0
  3  5  1  0  0  0  0
  5  6  1  6  0  0  0
  5  7  1  0  0  0  0
  7  8  1  6  0  0  0
  7  9  1  0  0  0  0
  9 10  1  0  0  0  0
  9 11  1  6  0  0  0
 11 12  1  0  0  0  0
 13 14  1  1  0  0  0
 13 15  1  0  0  0  0
 13 21  1  0  0  0  0
 16 15  1  0  0  0  0
 16 17  1  1  0  0  0
 18  2  1  6  0  0  0
 18 16  1  0  0  0  0
 19 18  1  0  0  0  0
 19 20  1  6  0  0  0
 21 19  1  0  0  0  0
 21 22  1  6  0  0  0
 23 20  1  6  0  0  0
 23 24  1  0  0  0  0
 23 28  1  0  0  0  0
 24 25  1  1  0  0  0
 24 26  1  0  0  0  0
 26 27  1  0  0  0  0
 26 32  1  1  0  0  0
 27 28  1  0  0  0  0
 27 29  1  1  0  0  0
 29 30  1  0  0  0  0
 31 32  1  1  0  0  0
 31 40  1  0  0  0  0
 33 31  1  0  0  0  0
 33 42  1  1  0  0  0
 35 33  1  0  0  0  0
 35 36  1  6  0  0  0
 37 35  1  0  0  0  0
 37 38  1  1  0  0  0
 37 39  1  0  0  0  0
 39 40  1  0  0  0  0
 39 41  1  1  0  0  0
 41 34  1  0  0  0  0
M  END
>  <CHROM.1>
-81.97543466,175.10041973,-81.58502210,173.21477912,154.92761746,168.14345931
63.17897518,-109.46277945,-164.36653533,-1.60103299,34.75398922,17.44661823
-1.53739145,1.09294370,-0.40010120

>  <Name>
2et4_lig

>  <RI>
0

>  <Rbt.Current_Directory>
/home/itssahil/PROJECTS/Mol_Feturizer/New_Systems/rnas/2et4

>  <Rbt.Executable>
rbdock ($Id: //depot/dev/client3/rdock/2013.1/src/exe/rbdock.cxx#4 $)

>  <Rbt.Library>
libRbt.so (2013.1, Build901 2013/11/27)

>  <Rbt.Parameter_File>
/export/apps/rDock/src/rDock_2013.1_src/data/scripts/dock_solv.prm

>  <Rbt.Receptor>
prm/blind_docking_100.prm

>  <SCORE>
28.0823

>  <SCORE.INTER>
15.772

>  <SCORE.INTER.CONST>
1

>  <SCORE.INTER.POLAR>
-0.858735

>  <SCORE.INTER.ROT>
9

>  <SCORE.INTER.SOLV>
23.9969

>  <SCORE.INTER.VDW>
-4.22184

>  <SCORE.INTER.norm>
0.375524

>  <SCORE.INTRA>
-2.36143

>  <SCORE.INTRA.DIHEDRAL>
-6.19153

>  <SCORE.INTRA.DIHEDRAL.0>
21.6909

>  <SCORE.INTRA.POLAR>
0

>  <SCORE.INTRA.POLAR.0>
0

>  <SCORE.INTRA.REPUL>
0.00443039

>  <SCORE.INTRA.REPUL.0>
0

>  <SCORE.INTRA.SOLV>
-0.582899

>  <SCORE.INTRA.SOLV.lig_0>
-116.606

>  <SCORE.INTRA.VDW>
1.00363

>  <SCORE.INTRA.VDW.0>
-6.01229

>  <SCORE.INTRA.norm>
-0.0562245

>  <SCORE.RESTR>
14.6717

>  <SCORE.RESTR.CAVITY>
14.6717

>  <SCORE.RESTR.norm>
0.349327

>  <SCORE.SYSTEM>
0

>  <SCORE.SYSTEM.CONST>
0

>  <SCORE.SYSTEM.DIHEDRAL>
0

>  <SCORE.SYSTEM.SOLV>
0

>  <SCORE.SYSTEM.norm>
0

>  <SCORE.heavy>
42

>  <SCORE.norm>
0.668626

>  <RMSD>
33.724

$$$$
2et4_lig
 OpenBabel11021811423D
libRbt.so/2013.1/901 2013/11/27
 42 45  0  0  0  0  0  0  0  0999 V2000
   -2.1065   32.4591   19.1387 C   0  0  2  0  0  0  0  0  0  0  0  0
   -0.8774   32.5185   19.8654 O   0  0  0  0  0  0  0  0  0  0  0  0
   -3.0451   33.5364   19.7397 C   0  0  2  0  0  0  0  0  0  0  0  0
   -2.4489   34.8464   19.6774 N   0  0  0  0  0  0  0  0  0  0  0  0
   -3.3969   33.1506   21.2055 C   0  0  1  0  0  0  0  0  0  0  0  0
   -4.2536   34.1121   21.7379 O   0  0  0  0  0  0  0  0  0  0  0  0
   -4.0399   31.7236   21.1951 C   0  0  2  0  0  0  0  0  0  0  0  0
   -4.3694   31.3291   22.5101 O   0  0  0  0  0  0  0  0  0  0  0  0
   -3.0638   30.6794   20.5731 C   0  0  2  0  0  0  0  0  0  0  0  0
   -2.7274   31.1088   19.2505 O   0  0  0  0  0  0  0  0  0  0  0  0
   -3.6897   29.2478   20.5082 C   0  0  0  0  0  0  0  0  0  0  0  0
   -2.7700   28.2818   20.0165 N   0  0  0  0  0  0  0  0  0  0  0  0
    3.3649   31.9231   19.3147 C   0  0  2  0  0  0  0  0  0  0  0  0
    4.6294   31.3873   18.7954 N   0  0  0  0  0  0  0  0  0  0  0  0
    2.5010   30.7232   19.9826 C   0  0  0  0  0  0  0  0  0  0  0  0
    1.1325   31.3040   20.5278 C   0  0  2  0  0  0  0  0  0  0  0  0
    0.3024   30.2411   21.1217 N   0  0  0  0  0  0  0  0  0  0  0  0
    0.3513   31.9844   19.3534 C   0  0  2  0  0  0  0  0  0  0  0  0
    1.2072   33.1195   18.7001 C   0  0  2  0  0  0  0  0  0  0  0  0
    0.4072   33.6699   17.6248 O   0  0  0  0  0  0  0  0  0  0  0  0
    2.5495   32.5290   18.1607 C   0  0  1  0  0  0  0  0  0  0  0  0
    3.2922   33.5589   17.6008 O   0  0  0  0  0  0  0  0  0  0  0  0
    0.5484   34.9095   17.0959 C   0  0  1  0  0  0  0  0  0  0  0  0
   -0.7821   35.4009   16.4684 C   0  0  2  0  0  0  0  0  0  0  0  0
   -0.9732   34.9457   15.1602 O   0  0  0  0  0  0  0  0  0  0  0  0
   -0.6321   36.8919   16.7077 C   0  0  1  0  0  0  0  0  0  0  0  0
    0.0476   37.0541   18.0747 C   0  0  2  0  0  0  0  0  0  0  0  0
    0.9370   35.9379   18.0462 O   0  0  0  0  0  0  0  0  0  0  0  0
   -0.9091   37.0058   19.3144 C   0  0  0  0  0  0  0  0  0  0  0  0
   -1.9412   38.0061   19.1062 O   0  0  0  0  0  0  0  0  0  0  0  0
   -0.2221   38.6213   14.9865 C   0  0  2  0  0  0  0  0  0  0  0  0
    0.2037   37.4393   15.6075 O   0  0  0  0  0  0  0  0  0  0  0  0
    0.2752   39.9052   15.7827 C   0  0  1  0  0  0  0  0  0  0  0  0
   -4.6384   40.7625   13.3769 N   0  0  0  0  0  0  0  0  0  0  0  0
   -0.2887   41.2003   14.9943 C   0  0  1  0  0  0  0  0  0  0  0  0
    0.2426   41.1563   13.5754 O   0  0  0  0  0  0  0  0  0  0  0  0
   -1.9092   41.1807   14.9895 C   0  0  2  0  0  0  0  0  0  0  0  0
   -2.3918   41.2328   16.3535 O   0  0  0  0  0  0  0  0  0  0  0  0
   -2.3801   39.8340   14.1992 C   0  0  1  0  0  0  0  0  0  0  0  0
   -1.7741   38.6279   14.8625 O   0  0  0  0  0  0  0  0  0  0  0  0
   -3.9413   39.6876   14.1478 C   0  0  0  0  0  0  0  0  0  0  0  0
   -0.1862   39.8363   17.2086 N   0  0  0  0  0  0  0  0  0  0  0  0
  1  2  1  1  0  0  0
  1  3  1  0  0  0  0
  1 10  1  0  0  0  0
  3  4  1  1  0  0  0
  3  5  1  0  0  0  0
  5  6  1  6  0  0  0
  5  7  1  0  0  0  0
  7  8  1  1  0  0  0
  7  9  1  0  0  0  0
  9 10  1  0  0  0  0
  9 11  1  6  0  0  0
 11 12  1  0  0  0  0
 13 14  1  6  0  0  0
 13 15  1  0  0  0  0
 13 21  1  0  0  0  0
 16 15  1  0  0  0  0
 16 17  1  6  0  0  0
 18  2  1  1  0  0  0
 18 16  1  0  0  0  0
 19 18  1  0  0  0  0
 19 20  1  6  0  0  0
 21 19  1  0  0  0  0
 21 22  1  1  0  0  0
 23 20  1  1  0  0  0
 23 24  1  0  0  0  0
 23 28  1  0  0  0  0
 24 25  1  6  0  0  0
 24 26  1  0  0  0  0
 26 27  1  0  0  0  0
 26 32  1  6  0  0  0
 27 28  1  0  0  0  0
 27 29  1  1  0  0  0
 29 30  1  0  0  0  0
 31 32  1  1  0  0  0
 31 40  1  0  0  0  0
 33 31  1  0  0  0  0
 33 42  1  1  0  0  0
 35 33  1  0  0  0  0
 35 36  1  6  0  0  0
 37 35  1  0  0  0  0
 37 38  1  1  0  0  0
 37 39  1  0  0  0  0
 39 40  1  0  0  0  0
 39 41  1  1  0  0  0
 41 34  1  0  0  0  0
M  END
>  <CHROM.1>
-160.20036321,-176.41953459,-140.92827286,157.00410047,-154.48849367,134.23606071
-54.62566459,85.28496174,64.19934457,-0.91554429,35.09703432,18.00782804
1.53602655,-0.24109099,2.59816144

>  <Name>
2et4_lig

>  <RI>
0

>  <Rbt.Current_Directory>
/home/itssahil/PROJECTS/Mol_Feturizer/New_Systems/rnas/2et4

>  <Rbt.Executable>
rbdock ($Id: //depot/dev/client3/rdock/2013.1/src/exe/rbdock.cxx#4 $)

>  <Rbt.Library>
libRbt.so (2013.1, Build901 2013/11/27)

>  <Rbt.Parameter_File>
/export/apps/rDock/src/rDock_2013.1_src/data/scripts/dock_solv.prm

>  <Rbt.Receptor>
prm/blind_docking_100.prm

>  <SCORE>
16.0036

>  <SCORE.INTER>
3.30844

>  <SCORE.INTER.CONST>
1

>  <SCORE.INTER.POLAR>
0

>  <SCORE.INTER.ROT>
9

>  <SCORE.INTER.SOLV>
35.9345

>  <SCORE.INTER.VDW>
-19.3725

>  <SCORE.INTER.norm>
0.0787723

>  <SCORE.INTRA>
3.13767

>  <SCORE.INTRA.DIHEDRAL>
-0.357167

>  <SCORE.INTRA.DIHEDRAL.0>
21.6909

>  <SCORE.INTRA.POLAR>
0

>  <SCORE.INTRA.POLAR.0>
0

>  <SCORE.INTRA.REPUL>
0.00730367

>  <SCORE.INTRA.REPUL.0>
0

>  <SCORE.INTRA.SOLV>
4.17624

>  <SCORE.INTRA.SOLV.lig_0>
-116.606

>  <SCORE.INTRA.VDW>
1.19162

>  <SCORE.INTRA.VDW.0>
-6.01229

>  <SCORE.INTRA.norm>
0.0747065

>  <SCORE.RESTR>
9.5575

>  <SCORE.RESTR.CAVITY>
9.5575

>  <SCORE.RESTR.norm>
0.22756

>  <SCORE.SYSTEM>
0

>  <SCORE.SYSTEM.CONST>
0

>  <SCORE.SYSTEM.DIHEDRAL>
0

>  <SCORE.SYSTEM.SOLV>
0

>  <SCORE.SYSTEM.norm>
0

>  <SCORE.heavy>
42

>  <SCORE.norm>
0.381038

>  <RMSD>
33.764

$$$$
2et4_lig
 OpenBabel11021811423D
libRbt.so/2013.1/901 2013/11/27
 42 45  0  0  0  0  0  0  0  0999 V2000
   -0.3640   30.4757   18.7094 C   0  0  2  0  0  0  0  0  0  0  0  0
   -1.0415   31.7284   18.5911 O   0  0  0  0  0  0  0  0  0  0  0  0
    0.5460   30.3288   17.4632 C   0  0  2  0  0  0  0  0  0  0  0  0
    1.4697   31.4291   17.3546 N   0  0  0  0  0  0  0  0  0  0  0  0
   -0.3415   30.2154   16.1901 C   0  0  1  0  0  0  0  0  0  0  0  0
    0.4785   30.0672   15.0732 O   0  0  0  0  0  0  0  0  0  0  0  0
   -1.3134   29.0029   16.3776 C   0  0  2  0  0  0  0  0  0  0  0  0
   -2.1453   28.8669   15.2449 O   0  0  0  0  0  0  0  0  0  0  0  0
   -2.1981   29.1917   17.6471 C   0  0  2  0  0  0  0  0  0  0  0  0
   -1.3361   29.3480   18.7781 O   0  0  0  0  0  0  0  0  0  0  0  0
   -3.1540   27.9781   17.8895 C   0  0  0  0  0  0  0  0  0  0  0  0
   -4.2978   28.3398   18.6524 N   0  0  0  0  0  0  0  0  0  0  0  0
   -3.9485   33.6319   21.1563 C   0  0  2  0  0  0  0  0  0  0  0  0
   -4.5218   34.3443   22.3050 N   0  0  0  0  0  0  0  0  0  0  0  0
   -3.2676   32.2484   21.6610 C   0  0  0  0  0  0  0  0  0  0  0  0
   -2.6385   31.4916   20.4205 C   0  0  2  0  0  0  0  0  0  0  0  0
   -1.9849   30.2384   20.8375 N   0  0  0  0  0  0  0  0  0  0  0  0
   -1.5906   32.4212   19.7204 C   0  0  2  0  0  0  0  0  0  0  0  0
   -2.2541   33.7630   19.2651 C   0  0  2  0  0  0  0  0  0  0  0  0
   -1.2063   34.5507   18.6482 O   0  0  0  0  0  0  0  0  0  0  0  0
   -2.8627   34.5007   20.5008 C   0  0  1  0  0  0  0  0  0  0  0  0
   -3.4551   35.6776   20.0654 O   0  0  0  0  0  0  0  0  0  0  0  0
   -1.3999   35.6383   17.8633 C   0  0  1  0  0  0  0  0  0  0  0  0
   -0.0464   36.2662   17.4399 C   0  0  2  0  0  0  0  0  0  0  0  0
    0.4757   37.1420   18.3967 O   0  0  0  0  0  0  0  0  0  0  0  0
   -0.4444   36.8194   16.0841 C   0  0  1  0  0  0  0  0  0  0  0  0
   -1.4121   35.8046   15.4591 C   0  0  2  0  0  0  0  0  0  0  0  0
   -2.1157   35.3782   16.6257 O   0  0  0  0  0  0  0  0  0  0  0  0
   -0.7402   34.6026   14.7117 C   0  0  0  0  0  0  0  0  0  0  0  0
   -1.4651   33.4002   15.0829 O   0  0  0  0  0  0  0  0  0  0  0  0
   -1.0244   39.0888   15.2875 C   0  0  2  0  0  0  0  0  0  0  0  0
   -1.0963   38.1354   16.3121 O   0  0  0  0  0  0  0  0  0  0  0  0
    0.0741   40.1952   15.6022 C   0  0  1  0  0  0  0  0  0  0  0  0
   -4.3336   41.9059   12.5689 N   0  0  0  0  0  0  0  0  0  0  0  0
    0.0540   41.2468   14.3732 C   0  0  1  0  0  0  0  0  0  0  0  0
    0.3480   40.4849   13.0963 O   0  0  0  0  0  0  0  0  0  0  0  0
   -1.3983   41.9602   14.2813 C   0  0  2  0  0  0  0  0  0  0  0  0
   -1.6515   42.6881   15.5070 O   0  0  0  0  0  0  0  0  0  0  0  0
   -2.5002   40.7922   13.9960 C   0  0  1  0  0  0  0  0  0  0  0  0
   -2.4175   39.7521   15.0792 O   0  0  0  0  0  0  0  0  0  0  0  0
   -3.9608   41.3584   13.9093 C   0  0  0  0  0  0  0  0  0  0  0  0
   -0.2066   40.8350   16.9298 N   0  0  0  0  0  0  0  0  0  0  0  0
  1  2  1  6  0  0  0
  1  3  1  0  0  0  0
  1 10  1  0  0  0  0
  3  4  1  6  0  0  0
  3  5  1  0  0  0  0
  5  6  1  6  0  0  0
  5  7  1  0  0  0  0
  7  8  1  6  0  0  0
  7  9  1  0  0  0  0
  9 10  1  0  0  0  0
  9 11  1  1  0  0  0
 11 12  1  0  0  0  0
 13 14  1  1  0  0  0
 13 15  1  0  0  0  0
 13 21  1  0  0  0  0
 16 15  1  0  0  0  0
 16 17  1  1  0  0  0
 18  2  1  6  0  0  0
 18 16  1  0  0  0  0
 19 18  1  0  0  0  0
 19 20  1  1  0  0  0
 21 19  1  0  0  0  0
 21 22  1  6  0  0  0
 23 20  1  6  0  0  0
 23 24  1  0  0  0  0
 23 28  1  0  0  0  0
 24 25  1  1  0  0  0
 24 26  1  0  0  0  0
 26 27  1  0  0  0  0
 26 32  1  1  0  0  0
 27 28  1  0  0  0  0
 27 29  1  1  0  0  0
 29 30  1  0  0  0  0
 31 32  1  1  0  0  0
 31 40  1  0  0  0  0
 33 31  1  0  0  0  0
 33 42  1  1  0  0  0
 35 33  1  0  0  0  0
 35 36  1  6  0  0  0
 37 35  1  0  0  0  0
 37 38  1  1  0  0  0
 37 39  1  0  0  0  0
 39 40  1  0  0  0  0
 39 41  1  1  0  0  0
 41 34  1  0  0  0  0
M  END
>  <CHROM.1>
-157.74785936,-155.76207291,-58.73958399,164.52662405,177.14223234,152.41413082
136.92591616,-102.13502063,83.57122502,-1.58301848,34.85411265,17.14527781
-1.64505088,1.14926510,-0.27219508

>  <Name>
2et4_lig

>  <RI>
0

>  <Rbt.Current_Directory>
/home/itssahil/PROJECTS/Mol_Feturizer/New_Systems/rnas/2et4

>  <Rbt.Executable>
rbdock ($Id: //depot/dev/client3/rdock/2013.1/src/exe/rbdock.cxx#4 $)

>  <Rbt.Library>
libRbt.so (2013.1, Build901 2013/11/27)

>  <Rbt.Parameter_File>
/export/apps/rDock/src/rDock_2013.1_src/data/scripts/dock_solv.prm

>  <Rbt.Receptor>
prm/blind_docking_100.prm

>  <SCORE>
21.2552

>  <SCORE.INTER>
1.72309

>  <SCORE.INTER.CONST>
1

>  <SCORE.INTER.POLAR>
-0.507969

>  <SCORE.INTER.ROT>
9

>  <SCORE.INTER.SOLV>
26.3264

>  <SCORE.INTER.VDW>
-15.5335

>  <SCORE.INTER.norm>
0.041026

>  <SCORE.INTRA>
2.80815

>  <SCORE.INTRA.DIHEDRAL>
-1.56772

>  <SCORE.INTRA.DIHEDRAL.0>
21.6909

>  <SCORE.INTRA.POLAR>
0

>  <SCORE.INTRA.POLAR.0>
0

>  <SCORE.INTRA.REPUL>
0.0377771

>  <SCORE.INTRA.REPUL.0>
0

>  <SCORE.INTRA.SOLV>
-0.523601

>  <SCORE.INTRA.SOLV.lig_0>
-116.606

>  <SCORE.INTRA.VDW>
3.66492

>  <SCORE.INTRA.VDW.0>
-6.01229

>  <SCORE.INTRA.norm>
0.0668607

>  <SCORE.RESTR>
16.7239

>  <SCORE.RESTR.CAVITY>
16.7239

>  <SCORE.RESTR.norm>
0.398189

>  <SCORE.SYSTEM>
0

>  <SCORE.SYSTEM.CONST>
0

>  <SCORE.SYSTEM.DIHEDRAL>
0

>  <SCORE.SYSTEM.SOLV>
0

>  <SCORE.SYSTEM.norm>
0

>  <SCORE.heavy>
42

>  <SCORE.norm>
0.506075

>  <RMSD>
33.770

$$$$
2et4_lig
 OpenBabel11021811423D
libRbt.so/2013.1/901 2013/11/27
 42 45  0  0  0  0  0  0  0  0999 V2000
   -3.5658   31.1073   19.1525 C   0  0  2  0  0  0  0  0  0  0  0  0
   -3.2664   32.2902   18.4086 O   0  0  0  0  0  0  0  0  0  0  0  0
   -4.1040   31.5601   20.5338 C   0  0  2  0  0  0  0  0  0  0  0  0
   -5.2577   32.4117   20.3946 N   0  0  0  0  0  0  0  0  0  0  0  0
   -2.9680   32.2801   21.3163 C   0  0  1  0  0  0  0  0  0  0  0  0
   -3.4497   32.6718   22.5639 O   0  0  0  0  0  0  0  0  0  0  0  0
   -1.7542   31.2985   21.4305 C   0  0  2  0  0  0  0  0  0  0  0  0
   -0.6940   31.9154   22.1296 O   0  0  0  0  0  0  0  0  0  0  0  0
   -1.2567   30.8643   20.0184 C   0  0  2  0  0  0  0  0  0  0  0  0
   -2.3504   30.2611   19.3209 O   0  0  0  0  0  0  0  0  0  0  0  0
   -0.0694   29.8494   20.0943 C   0  0  0  0  0  0  0  0  0  0  0  0
    1.0519   30.3859   20.7842 N   0  0  0  0  0  0  0  0  0  0  0  0
    0.9921   32.1124   17.7093 C   0  0  2  0  0  0  0  0  0  0  0  0
    2.2995   32.3331   17.0788 N   0  0  0  0  0  0  0  0  0  0  0  0
    0.0099   31.3482   16.6683 C   0  0  0  0  0  0  0  0  0  0  0  0
   -1.4027   31.1258   17.3483 C   0  0  2  0  0  0  0  0  0  0  0  0
   -2.3372   30.4558   16.4266 N   0  0  0  0  0  0  0  0  0  0  0  0
   -1.9954   32.5092   17.7813 C   0  0  2  0  0  0  0  0  0  0  0  0
   -1.0251   33.2475   18.7618 C   0  0  2  0  0  0  0  0  0  0  0  0
   -1.6536   34.5116   19.0874 O   0  0  0  0  0  0  0  0  0  0  0  0
    0.3605   33.4660   18.0735 C   0  0  1  0  0  0  0  0  0  0  0  0
    1.2028   34.1088   18.9697 O   0  0  0  0  0  0  0  0  0  0  0  0
   -1.7357   35.5835   18.2625 C   0  0  1  0  0  0  0  0  0  0  0  0
   -0.3253   36.1292   17.9182 C   0  0  2  0  0  0  0  0  0  0  0  0
    0.1754   37.0058   18.8856 O   0  0  0  0  0  0  0  0  0  0  0  0
   -0.6000   36.6609   16.5237 C   0  0  1  0  0  0  0  0  0  0  0  0
   -1.5747   35.6781   15.8597 C   0  0  2  0  0  0  0  0  0  0  0  0
   -2.3778   35.3230   16.9852 O   0  0  0  0  0  0  0  0  0  0  0  0
   -0.9173   34.4219   15.1931 C   0  0  0  0  0  0  0  0  0  0  0  0
   -0.2540   34.8700   13.9813 O   0  0  0  0  0  0  0  0  0  0  0  0
   -1.1817   38.8619   15.5547 C   0  0  2  0  0  0  0  0  0  0  0  0
   -1.1959   38.0144   16.6708 O   0  0  0  0  0  0  0  0  0  0  0  0
   -0.0811   40.0001   15.7060 C   0  0  1  0  0  0  0  0  0  0  0  0
   -5.2599   39.9190   14.2363 N   0  0  0  0  0  0  0  0  0  0  0  0
   -0.1693   40.9244   14.3813 C   0  0  1  0  0  0  0  0  0  0  0  0
    0.0727   40.0410   13.1736 O   0  0  0  0  0  0  0  0  0  0  0  0
   -1.6315   41.6169   14.2883 C   0  0  2  0  0  0  0  0  0  0  0  0
   -1.8348   42.4616   15.4465 O   0  0  0  0  0  0  0  0  0  0  0  0
   -2.7335   40.4203   14.1725 C   0  0  1  0  0  0  0  0  0  0  0  0
   -2.5897   39.4933   15.3480 O   0  0  0  0  0  0  0  0  0  0  0  0
   -4.2023   40.9669   14.0995 C   0  0  0  0  0  0  0  0  0  0  0  0
   -0.3062   40.7670   16.9756 N   0  0  0  0  0  0  0  0  0  0  0  0
  1  2  1  6  0  0  0
  1  3  1  0  0  0  0
  1 10  1  0  0  0  0
  3  4  1  6  0  0  0
  3  5  1  0  0  0  0
  5  6  1  1  0  0  0
  5  7  1  0  0  0  0
  7  8  1  6  0  0  0
  7  9  1  0  0  0  0
  9 10  1  0  0  0  0
  9 11  1  1  0  0  0
 11 12  1  0  0  0  0
 13 14  1  6  0  0  0
 13 15  1  0  0  0  0
 13 21  1  0  0  0  0
 16 15  1  0  0  0  0
 16 17  1  6  0  0  0
 18  2  1  1  0  0  0
 18 16  1  0  0  0  0
 19 18  1  0  0  0  0
 19 20  1  6  0  0  0
 21 19  1  0  0  0  0
 21 22  1  1  0  0  0
 23 20  1  1  0  0  0
 23 24  1  0  0  0  0
 23 28  1  0  0  0  0
 24 25  1  1  0  0  0
 24 26  1  0  0  0  0
 26 27  1  0  0  0  0
 26 32  1  1  0  0  0
 27 28  1  0  0  0  0
 27 29  1  1  0  0  0
 29 30  1  0  0  0  0
 31 32  1  1  0  0  0
 31 40  1  0  0  0  0
 33 31  1  0  0  0  0
 33 42  1  1  0  0  0
 35 33  1  0  0  0  0
 35 36  1  6  0  0  0
 37 35  1  0  0  0  0
 37 38  1  1  0  0  0
 37 39  1  0  0  0  0
 39 40  1  0  0  0  0
 39 41  1  1  0  0  0
 41 34  1  0  0  0  0
M  END
>  <CHROM.1>
127.86128434,-59.40855333,31.25334682,-74.40374990,-63.01365343,161.89746791
-72.73017809,-105.02610911,-169.69748324,-1.42697914,35.05576516,17.57153297
1.55897388,-0.46919072,2.62771243

>  <Name>
2et4_lig

>  <RI>
0

>  <Rbt.Current_Directory>
/home/itssahil/PROJECTS/Mol_Feturizer/New_Systems/rnas/2et4

>  <Rbt.Executable>
rbdock ($Id: //depot/dev/client3/rdock/2013.1/src/exe/rbdock.cxx#4 $)

>  <Rbt.Library>
libRbt.so (2013.1, Build901 2013/11/27)

>  <Rbt.Parameter_File>
/export/apps/rDock/src/rDock_2013.1_src/data/scripts/dock_solv.prm

>  <Rbt.Receptor>
prm/blind_docking_100.prm

>  <SCORE>
37.4177

>  <SCORE.INTER>
10.1904

>  <SCORE.INTER.CONST>
1

>  <SCORE.INTER.POLAR>
-0.93804

>  <SCORE.INTER.ROT>
9

>  <SCORE.INTER.SOLV>
29.0546

>  <SCORE.INTER.VDW>
-9.36449

>  <SCORE.INTER.norm>
0.242627

>  <SCORE.INTRA>
12.3214

>  <SCORE.INTRA.DIHEDRAL>
-1.70947

>  <SCORE.INTRA.DIHEDRAL.0>
21.6909

>  <SCORE.INTRA.POLAR>
0

>  <SCORE.INTRA.POLAR.0>
0

>  <SCORE.INTRA.REPUL>
0

>  <SCORE.INTRA.REPUL.0>
0

>  <SCORE.INTRA.SOLV>
2.20093

>  <SCORE.INTRA.SOLV.lig_0>
-116.606

>  <SCORE.INTRA.VDW>
12.0757

>  <SCORE.INTRA.VDW.0>
-6.01229

>  <SCORE.INTRA.norm>
0.293367

>  <SCORE.RESTR>
14.906

>  <SCORE.RESTR.CAVITY>
14.906

>  <SCORE.RESTR.norm>
0.354905

>  <SCORE.SYSTEM>
0

>  <SCORE.SYSTEM.CONST>
0

>  <SCORE.SYSTEM.DIHEDRAL>
0

>  <SCORE.SYSTEM.SOLV>
0

>  <SCORE.SYSTEM.norm>
0

>  <SCORE.heavy>
42

>  <SCORE.norm>
0.890899

>  <RMSD>
33.815

$$$$
2et4_lig
 OpenBabel11021811423D
libRbt.so/2013.1/901 2013/11/27
 42 45  0  0  0  0  0  0  0  0999 V2000
   -0.7829   30.9885   17.5939 C   0  0  2  0  0  0  0  0  0  0  0  0
   -1.9685   31.7325   17.8820 O   0  0  0  0  0  0  0  0  0  0  0  0
   -0.7971   29.7350   18.5057 C   0  0  2  0  0  0  0  0  0  0  0  0
   -1.9864   28.9486   18.2989 N   0  0  0  0  0  0  0  0  0  0  0  0
   -0.6715   30.1796   19.9915 C   0  0  1  0  0  0  0  0  0  0  0  0
   -0.6682   29.0502   20.8077 O   0  0  0  0  0  0  0  0  0  0  0  0
    0.6385   31.0232   20.1407 C   0  0  2  0  0  0  0  0  0  0  0  0
    0.7893   31.4550   21.4765 O   0  0  0  0  0  0  0  0  0  0  0  0
    0.6100   32.2644   19.1981 C   0  0  2  0  0  0  0  0  0  0  0  0
    0.4361   31.8058   17.8541 O   0  0  0  0  0  0  0  0  0  0  0  0
    1.9227   33.1091   19.2902 C   0  0  0  0  0  0  0  0  0  0  0  0
    2.0500   34.0227   18.2083 N   0  0  0  0  0  0  0  0  0  0  0  0
   -4.0078   33.8773   21.0277 C   0  0  2  0  0  0  0  0  0  0  0  0
   -4.2680   34.5021   22.3306 N   0  0  0  0  0  0  0  0  0  0  0  0
   -3.7341   32.2912   21.2317 C   0  0  0  0  0  0  0  0  0  0  0  0
   -3.4399   31.6256   19.8254 C   0  0  2  0  0  0  0  0  0  0  0  0
   -3.1596   30.1857   19.9665 N   0  0  0  0  0  0  0  0  0  0  0  0
   -2.2127   32.3355   19.1601 C   0  0  2  0  0  0  0  0  0  0  0  0
   -2.4789   33.8685   18.9961 C   0  0  2  0  0  0  0  0  0  0  0  0
   -1.2882   34.4297   18.3907 O   0  0  0  0  0  0  0  0  0  0  0  0
   -2.7595   34.5112   20.3924 C   0  0  1  0  0  0  0  0  0  0  0  0
   -3.0053   35.8653   20.2145 O   0  0  0  0  0  0  0  0  0  0  0  0
   -1.2285   35.6034   17.7162 C   0  0  1  0  0  0  0  0  0  0  0  0
    0.2141   35.8882   17.2229 C   0  0  2  0  0  0  0  0  0  0  0  0
    1.0176   36.4918   18.1951 O   0  0  0  0  0  0  0  0  0  0  0  0
   -0.1061   36.6621   15.9575 C   0  0  1  0  0  0  0  0  0  0  0  0
   -1.3534   36.0103   15.3441 C   0  0  2  0  0  0  0  0  0  0  0  0
   -2.0682   35.6703   16.5321 O   0  0  0  0  0  0  0  0  0  0  0  0
   -1.0865   34.7553   14.4450 C   0  0  0  0  0  0  0  0  0  0  0  0
   -0.5678   33.7066   15.3054 O   0  0  0  0  0  0  0  0  0  0  0  0
   -0.6197   38.9995   15.3293 C   0  0  2  0  0  0  0  0  0  0  0  0
   -0.3570   38.0739   16.3483 O   0  0  0  0  0  0  0  0  0  0  0  0
    0.1080   40.3866   15.6054 C   0  0  1  0  0  0  0  0  0  0  0  0
   -4.8613   38.9648   13.9255 N   0  0  0  0  0  0  0  0  0  0  0  0
   -0.2806   41.3770   14.3869 C   0  0  1  0  0  0  0  0  0  0  0  0
    0.1731   40.7321   13.0925 O   0  0  0  0  0  0  0  0  0  0  0  0
   -1.8827   41.6202   14.3633 C   0  0  2  0  0  0  0  0  0  0  0  0
   -2.2896   42.2447   15.6045 O   0  0  0  0  0  0  0  0  0  0  0  0
   -2.5939   40.1735   14.1163 C   0  0  1  0  0  0  0  0  0  0  0  0
   -2.1553   39.2120   15.1864 O   0  0  0  0  0  0  0  0  0  0  0  0
   -4.1594   40.2738   14.0970 C   0  0  0  0  0  0  0  0  0  0  0  0
   -0.2941   40.9193   16.9490 N   0  0  0  0  0  0  0  0  0  0  0  0
  1  2  1  1  0  0  0
  1  3  1  0  0  0  0
  1 10  1  0  0  0  0
  3  4  1  1  0  0  0
  3  5  1  0  0  0  0
  5  6  1  1  0  0  0
  5  7  1  0  0  0  0
  7  8  1  1  0  0  0
  7  9  1  0  0  0  0
  9 10  1  0  0  0  0
  9 11  1  6  0  0  0
 11 12  1  0  0  0  0
 13 14  1  1  0  0  0
 13 15  1  0  0  0  0
 13 21  1  0  0  0  0
 16 15  1  0  0  0  0
 16 17  1  1  0  0  0
 18  2  1  6  0  0  0
 18 16  1  0  0  0  0
 19 18  1  0  0  0  0
 19 20  1  1  0  0  0
 21 19  1  0  0  0  0
 21 22  1  6  0  0  0
 23 20  1  6  0  0  0
 23 24  1  0  0  0  0
 23 28  1  0  0  0  0
 24 25  1  1  0  0  0
 24 26  1  0  0  0  0
 26 27  1  0  0  0  0
 26 32  1  1  0  0  0
 27 28  1  0  0  0  0
 27 29  1  1  0  0  0
 29 30  1  0  0  0  0
 31 32  1  1  0  0  0
 31 40  1  0  0  0  0
 33 31  1  0  0  0  0
 33 42  1  1  0  0  0
 35 33  1  0  0  0  0
 35 36  1  6  0  0  0
 37 35  1  0  0  0  0
 37 38  1  1  0  0  0
 37 39  1  0  0  0  0
 39 40  1  0  0  0  0
 39 41  1  1  0  0  0
 41 34  1  0  0  0  0
M  END
>  <CHROM.1>
64.60815613,164.83888806,-114.15713407,158.91028168,179.39186221,177.33760141
66.06919706,-139.56449258,-177.78225852,-1.29873349,35.14585279,17.62349704
-1.54307625,0.48118789,-0.51477151

>  <Name>
2et4_lig

>  <RI>
0

>  <Rbt.Current_Directory>
/home/itssahil/PROJECTS/Mol_Feturizer/New_Systems/rnas/2et4

>  <Rbt.Executable>
rbdock ($Id: //depot/dev/client3/rdock/2013.1/src/exe/rbdock.cxx#4 $)

>  <Rbt.Library>
libRbt.so (2013.1, Build901 2013/11/27)

>  <Rbt.Parameter_File>
/export/apps/rDock/src/rDock_2013.1_src/data/scripts/dock_solv.prm

>  <Rbt.Receptor>
prm/blind_docking_100.prm

>  <SCORE>
15.1933

>  <SCORE.INTER>
-3.13778

>  <SCORE.INTER.CONST>
1

>  <SCORE.INTER.POLAR>
-0.274604

>  <SCORE.INTER.ROT>
9

>  <SCORE.INTER.SOLV>
23.837

>  <SCORE.INTER.VDW>
-18.7222

>  <SCORE.INTER.norm>
-0.074709

>  <SCORE.INTRA>
6.43737

>  <SCORE.INTRA.DIHEDRAL>
-6.02488

>  <SCORE.INTRA.DIHEDRAL.0>
21.6909

>  <SCORE.INTRA.POLAR>
0

>  <SCORE.INTRA.POLAR.0>
0

>  <SCORE.INTRA.REPUL>
0

>  <SCORE.INTRA.REPUL.0>
0

>  <SCORE.INTRA.SOLV>
7.61406

>  <SCORE.INTRA.SOLV.lig_0>
-116.606

>  <SCORE.INTRA.VDW>
5.64278

>  <SCORE.INTRA.VDW.0>
-6.01229

>  <SCORE.INTRA.norm>
0.153271

>  <SCORE.RESTR>
11.8937

>  <SCORE.RESTR.CAVITY>
11.8937

>  <SCORE.RESTR.norm>
0.283182

>  <SCORE.SYSTEM>
0

>  <SCORE.SYSTEM.CONST>
0

>  <SCORE.SYSTEM.DIHEDRAL>
0

>  <SCORE.SYSTEM.SOLV>
0

>  <SCORE.SYSTEM.norm>
0

>  <SCORE.heavy>
42

>  <SCORE.norm>
0.361744

>  <RMSD>
33.935

$$$$
2et4_lig
 OpenBabel11021811423D
libRbt.so/2013.1/901 2013/11/27
 42 45  0  0  0  0  0  0  0  0999 V2000
   -2.0152   31.6152   19.1089 C   0  0  2  0  0  0  0  0  0  0  0  0
   -0.9185   32.4977   18.8623 O   0  0  0  0  0  0  0  0  0  0  0  0
   -3.2265   32.1565   18.3074 C   0  0  2  0  0  0  0  0  0  0  0  0
   -2.9245   32.2558   16.9022 N   0  0  0  0  0  0  0  0  0  0  0  0
   -3.6505   33.5367   18.8875 C   0  0  1  0  0  0  0  0  0  0  0  0
   -4.7495   34.0134   18.1757 O   0  0  0  0  0  0  0  0  0  0  0  0
   -3.9643   33.3520   20.4098 C   0  0  2  0  0  0  0  0  0  0  0  0
   -4.3476   34.5853   20.9804 O   0  0  0  0  0  0  0  0  0  0  0  0
   -2.7215   32.7969   21.1695 C   0  0  2  0  0  0  0  0  0  0  0  0
   -2.3381   31.5592   20.5629 O   0  0  0  0  0  0  0  0  0  0  0  0
   -3.0116   32.5603   22.6878 C   0  0  0  0  0  0  0  0  0  0  0  0
   -4.2005   31.8091   22.8963 N   0  0  0  0  0  0  0  0  0  0  0  0
    3.3026   32.0907   19.6813 C   0  0  2  0  0  0  0  0  0  0  0  0
    4.6930   31.6309   19.5754 N   0  0  0  0  0  0  0  0  0  0  0  0
    2.3348   30.8254   19.9888 C   0  0  0  0  0  0  0  0  0  0  0  0
    0.8355   31.3248   20.0876 C   0  0  2  0  0  0  0  0  0  0  0  0
   -0.0839   30.2014   20.3412 N   0  0  0  0  0  0  0  0  0  0  0  0
    0.4355   32.0379   18.7518 C   0  0  2  0  0  0  0  0  0  0  0  0
    1.3944   33.2375   18.4531 C   0  0  2  0  0  0  0  0  0  0  0  0
    0.9519   33.8148   17.2001 O   0  0  0  0  0  0  0  0  0  0  0  0
    2.8677   32.7270   18.3510 C   0  0  1  0  0  0  0  0  0  0  0  0
    3.6952   33.8123   18.1000 O   0  0  0  0  0  0  0  0  0  0  0  0
    0.6298   35.1166   17.0053 C   0  0  1  0  0  0  0  0  0  0  0  0
   -0.6863   35.2483   16.1954 C   0  0  2  0  0  0  0  0  0  0  0  0
   -0.4908   35.1672   14.8133 O   0  0  0  0  0  0  0  0  0  0  0  0
   -1.2093   36.5457   16.7837 C   0  0  1  0  0  0  0  0  0  0  0  0
   -0.8511   36.5305   18.2764 C   0  0  2  0  0  0  0  0  0  0  0  0
    0.4194   35.8819   18.2226 O   0  0  0  0  0  0  0  0  0  0  0  0
   -1.8566   35.7671   19.2043 C   0  0  0  0  0  0  0  0  0  0  0  0
   -2.1963   36.6560   20.3013 O   0  0  0  0  0  0  0  0  0  0  0  0
   -1.1952   38.9014   16.0274 C   0  0  2  0  0  0  0  0  0  0  0  0
   -0.5405   37.6630   16.0672 O   0  0  0  0  0  0  0  0  0  0  0  0
   -1.6646   39.2611   14.5509 C   0  0  1  0  0  0  0  0  0  0  0  0
    0.9531   41.8956   18.4083 N   0  0  0  0  0  0  0  0  0  0  0  0
   -2.3822   40.7092   14.6207 C   0  0  1  0  0  0  0  0  0  0  0  0
   -3.5429   40.6135   15.5907 O   0  0  0  0  0  0  0  0  0  0  0  0
   -1.3210   41.8271   15.1211 C   0  0  2  0  0  0  0  0  0  0  0  0
   -0.2282   41.9062   14.1747 O   0  0  0  0  0  0  0  0  0  0  0  0
   -0.8352   41.4049   16.6197 C   0  0  1  0  0  0  0  0  0  0  0  0
   -0.2614   40.0151   16.5857 O   0  0  0  0  0  0  0  0  0  0  0  0
    0.2206   42.4048   17.2084 C   0  0  0  0  0  0  0  0  0  0  0  0
   -0.4912   39.2293   13.6166 N   0  0  0  0  0  0  0  0  0  0  0  0
  1  2  1  1  0  0  0
  1  3  1  0  0  0  0
  1 10  1  0  0  0  0
  3  4  1  6  0  0  0
  3  5  1  0  0  0  0
  5  6  1  6  0  0  0
  5  7  1  0  0  0  0
  7  8  1  1  0  0  0
  7  9  1  0  0  0  0
  9 10  1  0  0  0  0
  9 11  1  1  0  0  0
 11 12  1  0  0  0  0
 13 14  1  6  0  0  0
 13 15  1  0  0  0  0
 13 21  1  0  0  0  0
 16 15  1  0  0  0  0
 16 17  1  6  0  0  0
 18  2  1  1  0  0  0
 18 16  1  0  0  0  0
 19 18  1  0  0  0  0
 19 20  1  6  0  0  0
 21 19  1  0  0  0  0
 21 22  1  1  0  0  0
 23 20  1  1  0  0  0
 23 24  1  0  0  0  0
 23 28  1  0  0  0  0
 24 25  1  6  0  0  0
 24 26  1  0  0  0  0
 26 27  1  0  0  0  0
 26 32  1  6  0  0  0
 27 28  1  0  0  0  0
 27 29  1  1  0  0  0
 29 30  1  0  0  0  0
 31 32  1  6  0  0  0
 31 40  1  0  0  0  0
 33 31  1  0  0  0  0
 33 42  1  6  0  0  0
 35 33  1  0  0  0  0
 35 36  1  1  0  0  0
 37 35  1  0  0  0  0
 37 38  1  6  0  0  0
 37 39  1  0  0  0  0
 39 40  1  0  0  0  0
 39 41  1  6  0  0  0
 41 34  1  0  0  0  0
M  END
>  <CHROM.1>
-143.99762105,50.05111309,-59.39582602,125.51876989,-134.89368324,155.14709542
-129.26230480,-112.45597120,-165.21569448,-0.84906225,35.43940083,18.05920732
1.54897492,-0.25717942,2.66507318

>  <Name>
2et4_lig

>  <RI>
0

>  <Rbt.Current_Directory>
/home/itssahil/PROJECTS/Mol_Feturizer/New_Systems/rnas/2et4

>  <Rbt.Executable>
rbdock ($Id: //depot/dev/client3/rdock/2013.1/src/exe/rbdock.cxx#4 $)

>  <Rbt.Library>
libRbt.so (2013.1, Build901 2013/11/27)

>  <Rbt.Parameter_File>
/export/apps/rDock/src/rDock_2013.1_src/data/scripts/dock_solv.prm

>  <Rbt.Receptor>
prm/blind_docking_100.prm

>  <SCORE>
27.3629

>  <SCORE.INTER>
0.601582

>  <SCORE.INTER.CONST>
1

>  <SCORE.INTER.POLAR>
-0.344022

>  <SCORE.INTER.ROT>
9

>  <SCORE.INTER.SOLV>
29.0112

>  <SCORE.INTER.VDW>
-17.7226

>  <SCORE.INTER.norm>
0.0143234

>  <SCORE.INTRA>
7.66243

>  <SCORE.INTRA.DIHEDRAL>
11.7647

>  <SCORE.INTRA.DIHEDRAL.0>
21.6909

>  <SCORE.INTRA.POLAR>
0

>  <SCORE.INTRA.POLAR.0>
0

>  <SCORE.INTRA.REPUL>
0

>  <SCORE.INTRA.REPUL.0>
0

>  <SCORE.INTRA.SOLV>
0.272916

>  <SCORE.INTRA.SOLV.lig_0>
-116.606

>  <SCORE.INTRA.VDW>
1.64365

>  <SCORE.INTRA.VDW.0>
-6.01229

>  <SCORE.INTRA.norm>
0.182439

>  <SCORE.RESTR>
19.0989

>  <SCORE.RESTR.CAVITY>
19.0989

>  <SCORE.RESTR.norm>
0.454736

>  <SCORE.SYSTEM>
0

>  <SCORE.SYSTEM.CONST>
0

>  <SCORE.SYSTEM.DIHEDRAL>
0

>  <SCORE.SYSTEM.SOLV>
0

>  <SCORE.SYSTEM.norm>
0

>  <SCORE.heavy>
42

>  <SCORE.norm>
0.651498

>  <RMSD>
33.976

$$$$
2et4_lig
 OpenBabel11021811423D
libRbt.so/2013.1/901 2013/11/27
 42 45  0  0  0  0  0  0  0  0999 V2000
   -2.0857   31.6638   19.4423 C   0  0  2  0  0  0  0  0  0  0  0  0
   -0.9407   32.5114   19.3301 O   0  0  0  0  0  0  0  0  0  0  0  0
   -3.1826   32.2528   18.5190 C   0  0  2  0  0  0  0  0  0  0  0  0
   -2.7236   32.3554   17.1572 N   0  0  0  0  0  0  0  0  0  0  0  0
   -3.6238   33.6408   19.0669 C   0  0  1  0  0  0  0  0  0  0  0  0
   -4.6212   34.1607   18.2443 O   0  0  0  0  0  0  0  0  0  0  0  0
   -4.1103   33.4521   20.5426 C   0  0  2  0  0  0  0  0  0  0  0  0
   -4.5148   34.6920   21.0836 O   0  0  0  0  0  0  0  0  0  0  0  0
   -2.9779   32.8486   21.4276 C   0  0  2  0  0  0  0  0  0  0  0  0
   -2.5696   31.6047   20.8508 O   0  0  0  0  0  0  0  0  0  0  0  0
   -3.4421   32.6073   22.9013 C   0  0  0  0  0  0  0  0  0  0  0  0
   -3.8407   33.8119   23.5424 N   0  0  0  0  0  0  0  0  0  0  0  0
    3.3459   31.9938   19.4396 C   0  0  2  0  0  0  0  0  0  0  0  0
    4.6864   31.4933   19.1106 N   0  0  0  0  0  0  0  0  0  0  0  0
    2.4104   30.7602   19.9249 C   0  0  0  0  0  0  0  0  0  0  0  0
    0.9623   31.3034   20.2644 C   0  0  2  0  0  0  0  0  0  0  0  0
    0.0692   30.2097   20.6862 N   0  0  0  0  0  0  0  0  0  0  0  0
    0.3632   32.0119   19.0027 C   0  0  2  0  0  0  0  0  0  0  0  0
    1.2897   33.1801   18.5286 C   0  0  2  0  0  0  0  0  0  0  0  0
    0.6591   33.7551   17.3578 O   0  0  0  0  0  0  0  0  0  0  0  0
    2.7113   32.6267   18.1904 C   0  0  1  0  0  0  0  0  0  0  0  0
    3.5133   33.6849   17.7872 O   0  0  0  0  0  0  0  0  0  0  0  0
    0.5591   35.0798   17.0902 C   0  0  1  0  0  0  0  0  0  0  0  0
   -0.6117   35.3626   16.1132 C   0  0  2  0  0  0  0  0  0  0  0  0
   -0.2594   35.1939   14.7706 O   0  0  0  0  0  0  0  0  0  0  0  0
   -1.0071   36.7459   16.5957 C   0  0  1  0  0  0  0  0  0  0  0  0
   -0.8443   36.7451   18.1222 C   0  0  2  0  0  0  0  0  0  0  0  0
    0.3135   35.9199   18.2502 O   0  0  0  0  0  0  0  0  0  0  0  0
   -2.0591   36.1746   18.9306 C   0  0  0  0  0  0  0  0  0  0  0  0
   -1.8907   36.5829   20.3141 O   0  0  0  0  0  0  0  0  0  0  0  0
   -0.5189   39.0575   15.8610 C   0  0  2  0  0  0  0  0  0  0  0  0
   -0.0970   37.7237   15.9442 O   0  0  0  0  0  0  0  0  0  0  0  0
   -2.0054   39.1610   15.3050 C   0  0  1  0  0  0  0  0  0  0  0  0
    1.1692   43.4963   13.8490 N   0  0  0  0  0  0  0  0  0  0  0  0
   -2.3759   40.7338   15.2309 C   0  0  1  0  0  0  0  0  0  0  0  0
   -2.2359   41.3169   16.6230 O   0  0  0  0  0  0  0  0  0  0  0  0
   -1.3768   41.4879   14.2016 C   0  0  2  0  0  0  0  0  0  0  0  0
   -1.5357   40.9205   12.8792 O   0  0  0  0  0  0  0  0  0  0  0  0
    0.1381   41.3283   14.7844 C   0  0  1  0  0  0  0  0  0  0  0  0
    0.4556   39.8684   14.9573 O   0  0  0  0  0  0  0  0  0  0  0  0
    1.2085   42.0017   13.8558 C   0  0  0  0  0  0  0  0  0  0  0  0
   -2.1070   38.4685   13.9780 N   0  0  0  0  0  0  0  0  0  0  0  0
  1  2  1  1  0  0  0
  1  3  1  0  0  0  0
  1 10  1  0  0  0  0
  3  4  1  6  0  0  0
  3  5  1  0  0  0  0
  5  6  1  6  0  0  0
  5  7  1  0  0  0  0
  7  8  1  1  0  0  0
  7  9  1  0  0  0  0
  9 10  1  0  0  0  0
  9 11  1  1  0  0  0
 11 12  1  0  0  0  0
 13 14  1  6  0  0  0
 13 15  1  0  0  0  0
 13 21  1  0  0  0  0
 16 15  1  0  0  0  0
 16 17  1  6  0  0  0
 18  2  1  1  0  0  0
 18 16  1  0  0  0  0
 19 18  1  0  0  0  0
 19 20  1  6  0  0  0
 21 19  1  0  0  0  0
 21 22  1  1  0  0  0
 23 20  1  1  0  0  0
 23 24  1  0  0  0  0
 23 28  1  0  0  0  0
 24 25  1  6  0  0  0
 24 26  1  0  0  0  0
 26 27  1  0  0  0  0
 26 32  1  6  0  0  0
 27 28  1  0  0  0  0
 27 29  1  1  0  0  0
 29 30  1  0  0  0  0
 31 32  1  6  0  0  0
 31 40  1  0  0  0  0
 33 31  1  0  0  0  0
 33 42  1  6  0  0  0
 35 33  1  0  0  0  0
 35 36  1  1  0  0  0
 37 35  1  0  0  0  0
 37 38  1  6  0  0  0
 37 39  1  0  0  0  0
 39 40  1  0  0  0  0
 39 41  1  6  0  0  0
 41 34  1  0  0  0  0
M  END
>  <CHROM.1>
-126.68991386,-60.73486072,-75.57236045,138.10879716,-157.39764077,158.91595986
-164.68432075,-48.39017578,70.48962378,-0.81325847,35.50411031,17.84865772
1.59961220,-0.36464836,2.57010696

>  <Name>
2et4_lig

>  <RI>
0

>  <Rbt.Current_Directory>
/home/itssahil/PROJECTS/Mol_Feturizer/New_Systems/rnas/2et4

>  <Rbt.Executable>
rbdock ($Id: //depot/dev/client3/rdock/2013.1/src/exe/rbdock.cxx#4 $)

>  <Rbt.Library>
libRbt.so (2013.1, Build901 2013/11/27)

>  <Rbt.Parameter_File>
/export/apps/rDock/src/rDock_2013.1_src/data/scripts/dock_solv.prm

>  <Rbt.Receptor>
prm/blind_docking_100.prm

>  <SCORE>
6.56664

>  <SCORE.INTER>
-7.25293

>  <SCORE.INTER.CONST>
1

>  <SCORE.INTER.POLAR>
-0.796114

>  <SCORE.INTER.ROT>
9

>  <SCORE.INTER.SOLV>
32.9185

>  <SCORE.INTER.VDW>
-22.7544

>  <SCORE.INTER.norm>
-0.172689

>  <SCORE.INTRA>
0.76525

>  <SCORE.INTRA.DIHEDRAL>
-1.73608

>  <SCORE.INTRA.DIHEDRAL.0>
21.6909

>  <SCORE.INTRA.POLAR>
0

>  <SCORE.INTRA.POLAR.0>
0

>  <SCORE.INTRA.REPUL>
0

>  <SCORE.INTRA.REPUL.0>
0

>  <SCORE.INTRA.SOLV>
0.931666

>  <SCORE.INTRA.SOLV.lig_0>
-116.606

>  <SCORE.INTRA.VDW>
1.16746

>  <SCORE.INTRA.VDW.0>
-6.01229

>  <SCORE.INTRA.norm>
0.0182202

>  <SCORE.RESTR>
13.0543

>  <SCORE.RESTR.CAVITY>
13.0543

>  <SCORE.RESTR.norm>
0.310817

>  <SCORE.SYSTEM>
0

>  <SCORE.SYSTEM.CONST>
0

>  <SCORE.SYSTEM.DIHEDRAL>
0

>  <SCORE.SYSTEM.SOLV>
0

>  <SCORE.SYSTEM.norm>
0

>  <SCORE.heavy>
42

>  <SCORE.norm>
0.156349

>  <RMSD>
33.997

$$$$
2et4_lig
 OpenBabel11021811423D
libRbt.so/2013.1/901 2013/11/27
 42 45  0  0  0  0  0  0  0  0999 V2000
   -1.9504   32.5990   20.3062 C   0  0  2  0  0  0  0  0  0  0  0  0
   -2.5884   32.9643   19.0808 O   0  0  0  0  0  0  0  0  0  0  0  0
   -2.1562   31.0739   20.4917 C   0  0  2  0  0  0  0  0  0  0  0  0
   -1.6312   30.3332   19.3730 N   0  0  0  0  0  0  0  0  0  0  0  0
   -3.6708   30.7813   20.6954 C   0  0  1  0  0  0  0  0  0  0  0  0
   -3.8511   29.4117   20.8780 O   0  0  0  0  0  0  0  0  0  0  0  0
   -4.1691   31.6143   21.9233 C   0  0  2  0  0  0  0  0  0  0  0  0
   -5.5451   31.3841   22.1409 O   0  0  0  0  0  0  0  0  0  0  0  0
   -3.9315   33.1377   21.6941 C   0  0  2  0  0  0  0  0  0  0  0  0
   -2.5362   33.3454   21.4556 O   0  0  0  0  0  0  0  0  0  0  0  0
   -4.3801   33.9988   22.9199 C   0  0  0  0  0  0  0  0  0  0  0  0
   -4.2005   35.3906   22.6925 N   0  0  0  0  0  0  0  0  0  0  0  0
   -0.3539   30.9153   16.0046 C   0  0  2  0  0  0  0  0  0  0  0  0
    0.2377   30.6128   14.6953 N   0  0  0  0  0  0  0  0  0  0  0  0
   -1.9694   30.9771   15.8686 C   0  0  0  0  0  0  0  0  0  0  0  0
   -2.6009   31.3178   17.2801 C   0  0  2  0  0  0  0  0  0  0  0  0
   -4.0694   31.4094   17.1978 N   0  0  0  0  0  0  0  0  0  0  0  0
   -2.0192   32.6772   17.7960 C   0  0  2  0  0  0  0  0  0  0  0  0
   -0.4591   32.6129   17.8946 C   0  0  2  0  0  0  0  0  0  0  0  0
   -0.0232   33.9129   18.3625 O   0  0  0  0  0  0  0  0  0  0  0  0
    0.1484   32.2838   16.4931 C   0  0  1  0  0  0  0  0  0  0  0  0
    1.5293   32.2194   16.6140 O   0  0  0  0  0  0  0  0  0  0  0  0
    0.1212   35.0176   17.5911 C   0  0  1  0  0  0  0  0  0  0  0  0
   -1.2228   35.4084   16.9229 C   0  0  2  0  0  0  0  0  0  0  0  0
   -1.4724   34.7061   15.7400 O   0  0  0  0  0  0  0  0  0  0  0  0
   -1.0353   36.9127   16.8529 C   0  0  1  0  0  0  0  0  0  0  0  0
   -0.3008   37.3270   18.1358 C   0  0  2  0  0  0  0  0  0  0  0  0
    0.5654   36.2046   18.3021 O   0  0  0  0  0  0  0  0  0  0  0  0
   -1.2101   37.5526   19.3916 C   0  0  0  0  0  0  0  0  0  0  0  0
   -2.3066   38.4137   18.9850 O   0  0  0  0  0  0  0  0  0  0  0  0
   -0.4462   38.4316   14.9908 C   0  0  2  0  0  0  0  0  0  0  0  0
   -0.2320   37.2069   15.6377 O   0  0  0  0  0  0  0  0  0  0  0  0
    0.3606   39.6074   15.6952 C   0  0  1  0  0  0  0  0  0  0  0  0
   -4.6846   39.1705   13.6108 N   0  0  0  0  0  0  0  0  0  0  0  0
    0.0234   40.9661   14.8848 C   0  0  1  0  0  0  0  0  0  0  0  0
    0.4335   40.7667   13.4393 O   0  0  0  0  0  0  0  0  0  0  0  0
   -1.5623   41.2865   14.9809 C   0  0  2  0  0  0  0  0  0  0  0  0
   -1.9271   41.4820   16.3683 O   0  0  0  0  0  0  0  0  0  0  0  0
   -2.3560   40.0441   14.2837 C   0  0  1  0  0  0  0  0  0  0  0  0
   -1.9679   38.7594   14.9627 O   0  0  0  0  0  0  0  0  0  0  0  0
   -3.9133   40.2267   14.3355 C   0  0  0  0  0  0  0  0  0  0  0  0
   -0.0042   39.6821   17.1485 N   0  0  0  0  0  0  0  0  0  0  0  0
  1  2  1  6  0  0  0
  1  3  1  0  0  0  0
  1 10  1  0  0  0  0
  3  4  1  6  0  0  0
  3  5  1  0  0  0  0
  5  6  1  1  0  0  0
  5  7  1  0  0  0  0
  7  8  1  6  0  0  0
  7  9  1  0  0  0  0
  9 10  1  0  0  0  0
  9 11  1  1  0  0  0
 11 12  1  0  0  0  0
 13 14  1  6  0  0  0
 13 15  1  0  0  0  0
 13 21  1  0  0  0  0
 16 15  1  0  0  0  0
 16 17  1  6  0  0  0
 18  2  1  1  0  0  0
 18 16  1  0  0  0  0
 19 18  1  0  0  0  0
 19 20  1  6  0  0  0
 21 19  1  0  0  0  0
 21 22  1  1  0  0  0
 23 20  1  1  0  0  0
 23 24  1  0  0  0  0
 23 28  1  0  0  0  0
 24 25  1  6  0  0  0
 24 26  1  0  0  0  0
 26 27  1  0  0  0  0
 26 32  1  6  0  0  0
 27 28  1  0  0  0  0
 27 29  1  1  0  0  0
 29 30  1  0  0  0  0
 31 32  1  1  0  0  0
 31 40  1  0  0  0  0
 33 31  1  0  0  0  0
 33 42  1  1  0  0  0
 35 33  1  0  0  0  0
 35 36  1  6  0  0  0
 37 35  1  0  0  0  0
 37 38  1  1  0  0  0
 37 39  1  0  0  0  0
 39 40  1  0  0  0  0
 39 41  1  1  0  0  0
 41 34  1  0  0  0  0
M  END
>  <CHROM.1>
-75.88128901,-178.19474248,93.80524102,-80.60837580,59.89830921,149.71840131
-49.06680759,82.19049086,175.21927560,-1.74603788,35.11857301,17.72547978
1.90482881,-1.00695285,2.90095982

>  <Name>
2et4_lig

>  <RI>
0

>  <Rbt.Current_Directory>
/home/itssahil/PROJECTS/Mol_Feturizer/New_Systems/rnas/2et4

>  <Rbt.Executable>
rbdock ($Id: //depot/dev/client3/rdock/2013.1/src/exe/rbdock.cxx#4 $)

>  <Rbt.Library>
libRbt.so (2013.1, Build901 2013/11/27)

>  <Rbt.Parameter_File>
/export/apps/rDock/src/rDock_2013.1_src/data/scripts/dock_solv.prm

>  <Rbt.Receptor>
prm/blind_docking_100.prm

>  <SCORE>
25.0077

>  <SCORE.INTER>
1.86037

>  <SCORE.INTER.CONST>
1

>  <SCORE.INTER.POLAR>
-0.509283

>  <SCORE.INTER.ROT>
9

>  <SCORE.INTER.SOLV>
24.1481

>  <SCORE.INTER.VDW>
-14.7115

>  <SCORE.INTER.norm>
0.0442945

>  <SCORE.INTRA>
4.66552

>  <SCORE.INTRA.DIHEDRAL>
-7.88323

>  <SCORE.INTRA.DIHEDRAL.0>
21.6909

>  <SCORE.INTRA.POLAR>
0

>  <SCORE.INTRA.POLAR.0>
0

>  <SCORE.INTRA.REPUL>
0.00495843

>  <SCORE.INTRA.REPUL.0>
0

>  <SCORE.INTRA.SOLV>
5.35383

>  <SCORE.INTRA.SOLV.lig_0>
-116.606

>  <SCORE.INTRA.VDW>
5.90542

>  <SCORE.INTRA.VDW.0>
-6.01229

>  <SCORE.INTRA.norm>
0.111084

>  <SCORE.RESTR>
18.4818

>  <SCORE.RESTR.CAVITY>
18.4818

>  <SCORE.RESTR.norm>
0.440043

>  <SCORE.SYSTEM>
0

>  <SCORE.SYSTEM.CONST>
0

>  <SCORE.SYSTEM.DIHEDRAL>
0

>  <SCORE.SYSTEM.SOLV>
0

>  <SCORE.SYSTEM.norm>
0

>  <SCORE.heavy>
42

>  <SCORE.norm>
0.595421

>  <RMSD>
34.064

$$$$
2et4_lig
 OpenBabel11021811423D
libRbt.so/2013.1/901 2013/11/27
 42 45  0  0  0  0  0  0  0  0999 V2000
   -1.7109   30.6204   19.3290 C   0  0  2  0  0  0  0  0  0  0  0  0
   -2.0350   32.0079   19.4383 O   0  0  0  0  0  0  0  0  0  0  0  0
   -0.4295   30.3829   20.1682 C   0  0  2  0  0  0  0  0  0  0  0  0
   -0.6182   30.7823   21.5395 N   0  0  0  0  0  0  0  0  0  0  0  0
    0.7584   31.1510   19.5199 C   0  0  1  0  0  0  0  0  0  0  0  0
    1.9122   30.9227   20.2671 O   0  0  0  0  0  0  0  0  0  0  0  0
    0.9047   30.6658   18.0390 C   0  0  2  0  0  0  0  0  0  0  0  0
    1.9701   31.3444   17.4081 O   0  0  0  0  0  0  0  0  0  0  0  0
   -0.4104   30.9158   17.2403 C   0  0  2  0  0  0  0  0  0  0  0  0
   -1.4788   30.2374   17.9074 O   0  0  0  0  0  0  0  0  0  0  0  0
   -0.3146   30.4048   15.7655 C   0  0  0  0  0  0  0  0  0  0  0  0
   -0.7915   29.0727   15.6271 N   0  0  0  0  0  0  0  0  0  0  0  0
   -5.1098   33.6250   22.0045 C   0  0  2  0  0  0  0  0  0  0  0  0
   -5.7604   34.2021   23.1875 N   0  0  0  0  0  0  0  0  0  0  0  0
   -4.4698   32.1839   22.3864 C   0  0  0  0  0  0  0  0  0  0  0  0
   -3.7573   31.5730   21.1111 C   0  0  2  0  0  0  0  0  0  0  0  0
   -3.1380   30.2719   21.4198 N   0  0  0  0  0  0  0  0  0  0  0  0
   -2.6602   32.5676   20.6015 C   0  0  2  0  0  0  0  0  0  0  0  0
   -3.2864   33.9613   20.2647 C   0  0  2  0  0  0  0  0  0  0  0  0
   -2.1957   34.8051   19.8205 O   0  0  0  0  0  0  0  0  0  0  0  0
   -3.9782   34.5535   21.5344 C   0  0  1  0  0  0  0  0  0  0  0  0
   -4.5354   35.7803   21.2027 O   0  0  0  0  0  0  0  0  0  0  0  0
   -2.1391   35.4558   18.6332 C   0  0  1  0  0  0  0  0  0  0  0  0
   -1.0396   36.5495   18.6505 C   0  0  2  0  0  0  0  0  0  0  0  0
   -1.4746   37.7564   19.2065 O   0  0  0  0  0  0  0  0  0  0  0  0
   -0.6410   36.5219   17.1866 C   0  0  1  0  0  0  0  0  0  0  0  0
   -0.7048   35.0550   16.7384 C   0  0  2  0  0  0  0  0  0  0  0  0
   -1.8356   34.6127   17.4891 O   0  0  0  0  0  0  0  0  0  0  0  0
    0.5705   34.1987   17.0464 C   0  0  0  0  0  0  0  0  0  0  0  0
    0.7083   34.1282   18.4904 O   0  0  0  0  0  0  0  0  0  0  0  0
   -1.1174   38.4987   15.7770 C   0  0  2  0  0  0  0  0  0  0  0  0
   -1.6103   37.3686   16.4434 O   0  0  0  0  0  0  0  0  0  0  0  0
   -0.4843   39.5420   16.7970 C   0  0  1  0  0  0  0  0  0  0  0  0
   -4.2119   41.4656   14.2706 N   0  0  0  0  0  0  0  0  0  0  0  0
    0.0279   40.8056   15.9265 C   0  0  1  0  0  0  0  0  0  0  0  0
    1.0357   40.3016   14.9126 O   0  0  0  0  0  0  0  0  0  0  0  0
   -1.2271   41.5022   15.1742 C   0  0  2  0  0  0  0  0  0  0  0  0
   -2.1696   41.9830   16.1625 O   0  0  0  0  0  0  0  0  0  0  0  0
   -1.8717   40.3928   14.1674 C   0  0  1  0  0  0  0  0  0  0  0  0
   -2.2555   39.1689   14.9527 O   0  0  0  0  0  0  0  0  0  0  0  0
   -3.1197   40.9439   13.3928 C   0  0  0  0  0  0  0  0  0  0  0  0
   -1.4938   39.9167   17.8417 N   0  0  0  0  0  0  0  0  0  0  0  0
  1  2  1  6  0  0  0
  1  3  1  0  0  0  0
  1 10  1  0  0  0  0
  3  4  1  1  0  0  0
  3  5  1  0  0  0  0
  5  6  1  1  0  0  0
  5  7  1  0  0  0  0
  7  8  1  6  0  0  0
  7  9  1  0  0  0  0
  9 10  1  0  0  0  0
  9 11  1  6  0  0  0
 11 12  1  0  0  0  0
 13 14  1  1  0  0  0
 13 15  1  0  0  0  0
 13 21  1  0  0  0  0
 16 15  1  0  0  0  0
 16 17  1  1  0  0  0
 18  2  1  6  0  0  0
 18 16  1  0  0  0  0
 19 18  1  0  0  0  0
 19 20  1  1  0  0  0
 21 19  1  0  0  0  0
 21 22  1  6  0  0  0
 23 20  1  1  0  0  0
 23 24  1  0  0  0  0
 23 28  1  0  0  0  0
 24 25  1  6  0  0  0
 24 26  1  0  0  0  0
 26 27  1  0  0  0  0
 26 32  1  6  0  0  0
 27 28  1  0  0  0  0
 27 29  1  1  0  0  0
 29 30  1  0  0  0  0
 31 32  1  1  0  0  0
 31 40  1  0  0  0  0
 33 31  1  0  0  0  0
 33 42  1  1  0  0  0
 35 33  1  0  0  0  0
 35 36  1  6  0  0  0
 37 35  1  0  0  0  0
 37 38  1  1  0  0  0
 37 39  1  0  0  0  0
 39 40  1  0  0  0  0
 39 41  1  1  0  0  0
 41 34  1  0  0  0  0
M  END
>  <CHROM.1>
-77.20939389,92.64336114,-40.47079160,123.85069365,164.56437058,118.00338660
64.04877458,-62.75629480,-56.19470013,-1.55587913,34.97679971,18.20017896
-1.55241994,0.79507159,-0.45717817

>  <Name>
2et4_lig

>  <RI>
0

>  <Rbt.Current_Directory>
/home/itssahil/PROJECTS/Mol_Feturizer/New_Systems/rnas/2et4

>  <Rbt.Executable>
rbdock ($Id: //depot/dev/client3/rdock/2013.1/src/exe/rbdock.cxx#4 $)

>  <Rbt.Library>
libRbt.so (2013.1, Build901 2013/11/27)

>  <Rbt.Parameter_File>
/export/apps/rDock/src/rDock_2013.1_src/data/scripts/dock_solv.prm

>  <Rbt.Receptor>
prm/blind_docking_100.prm

>  <SCORE>
36.3543

>  <SCORE.INTER>
16.1834

>  <SCORE.INTER.CONST>
1

>  <SCORE.INTER.POLAR>
-0.910077

>  <SCORE.INTER.ROT>
9

>  <SCORE.INTER.SOLV>
19.8672

>  <SCORE.INTER.VDW>
-2.39986

>  <SCORE.INTER.norm>
0.385319

>  <SCORE.INTRA>
6.60211

>  <SCORE.INTRA.DIHEDRAL>
0.0657208

>  <SCORE.INTRA.DIHEDRAL.0>
21.6909

>  <SCORE.INTRA.POLAR>
0

>  <SCORE.INTRA.POLAR.0>
0

>  <SCORE.INTRA.REPUL>
0.0755493

>  <SCORE.INTRA.REPUL.0>
0

>  <SCORE.INTRA.SOLV>
6.82184

>  <SCORE.INTRA.SOLV.lig_0>
-116.606

>  <SCORE.INTRA.VDW>
2.78058

>  <SCORE.INTRA.VDW.0>
-6.01229

>  <SCORE.INTRA.norm>
0.157193

>  <SCORE.RESTR>
13.5688

>  <SCORE.RESTR.CAVITY>
13.5688

>  <SCORE.RESTR.norm>
0.323066

>  <SCORE.SYSTEM>
0

>  <SCORE.SYSTEM.CONST>
0

>  <SCORE.SYSTEM.DIHEDRAL>
0

>  <SCORE.SYSTEM.SOLV>
0

>  <SCORE.SYSTEM.norm>
0

>  <SCORE.heavy>
42

>  <SCORE.norm>
0.865579

>  <RMSD>
34.134

$$$$
2et4_lig
 OpenBabel11021811423D
libRbt.so/2013.1/901 2013/11/27
 42 45  0  0  0  0  0  0  0  0999 V2000
   -3.3397   31.4420   18.5439 C   0  0  2  0  0  0  0  0  0  0  0  0
   -3.0895   32.7649   18.0645 O   0  0  0  0  0  0  0  0  0  0  0  0
   -4.1658   31.5773   19.8484 C   0  0  2  0  0  0  0  0  0  0  0  0
   -5.3883   32.3054   19.6229 N   0  0  0  0  0  0  0  0  0  0  0  0
   -3.2956   32.2684   20.9377 C   0  0  1  0  0  0  0  0  0  0  0  0
   -4.0351   32.3741   22.1140 O   0  0  0  0  0  0  0  0  0  0  0  0
   -1.9916   31.4244   21.1304 C   0  0  2  0  0  0  0  0  0  0  0  0
   -1.1662   32.0212   22.1082 O   0  0  0  0  0  0  0  0  0  0  0  0
   -1.2025   31.3083   19.7911 C   0  0  2  0  0  0  0  0  0  0  0  0
   -2.0627   30.7210   18.8104 O   0  0  0  0  0  0  0  0  0  0  0  0
    0.0871   30.4357   19.9365 C   0  0  0  0  0  0  0  0  0  0  0  0
    1.0597   31.0504   20.7715 N   0  0  0  0  0  0  0  0  0  0  0  0
    1.1674   32.9961   17.3715 C   0  0  2  0  0  0  0  0  0  0  0  0
    2.4516   33.3868   16.7766 N   0  0  0  0  0  0  0  0  0  0  0  0
    0.2434   32.2808   16.2459 C   0  0  0  0  0  0  0  0  0  0  0  0
   -1.1453   31.8748   16.8892 C   0  0  2  0  0  0  0  0  0  0  0  0
   -2.0286   31.2430   15.8931 N   0  0  0  0  0  0  0  0  0  0  0  0
   -1.8415   33.1507   17.4724 C   0  0  2  0  0  0  0  0  0  0  0  0
   -0.9276   33.8462   18.5349 C   0  0  2  0  0  0  0  0  0  0  0  0
   -1.6507   35.0133   18.9976 O   0  0  0  0  0  0  0  0  0  0  0  0
    0.4346   34.2473   17.8827 C   0  0  1  0  0  0  0  0  0  0  0  0
    1.2279   34.8479   18.8499 O   0  0  0  0  0  0  0  0  0  0  0  0
   -1.8970   36.1264   18.2651 C   0  0  1  0  0  0  0  0  0  0  0  0
   -0.5807   36.7257   17.7050 C   0  0  2  0  0  0  0  0  0  0  0  0
    0.0736   37.5605   18.6161 O   0  0  0  0  0  0  0  0  0  0  0  0
   -1.1115   37.3258   16.4163 C   0  0  1  0  0  0  0  0  0  0  0  0
   -2.1753   36.3564   15.8823 C   0  0  2  0  0  0  0  0  0  0  0  0
   -2.7559   35.9199   17.1112 O   0  0  0  0  0  0  0  0  0  0  0  0
   -1.6307   35.1556   15.0360 C   0  0  0  0  0  0  0  0  0  0  0  0
   -0.2213   35.0051   15.3520 O   0  0  0  0  0  0  0  0  0  0  0  0
   -2.5927   39.2208   15.8361 C   0  0  2  0  0  0  0  0  0  0  0  0
   -1.6913   38.6537   16.7471 O   0  0  0  0  0  0  0  0  0  0  0  0
   -2.4017   38.6138   14.3784 C   0  0  1  0  0  0  0  0  0  0  0  0
   -1.6701   43.4521   14.5007 N   0  0  0  0  0  0  0  0  0  0  0  0
   -3.4702   39.3512   13.4136 C   0  0  1  0  0  0  0  0  0  0  0  0
   -4.8581   39.0999   13.9687 O   0  0  0  0  0  0  0  0  0  0  0  0
   -3.1631   40.9417   13.3643 C   0  0  2  0  0  0  0  0  0  0  0  0
   -1.8376   41.1559   12.8226 O   0  0  0  0  0  0  0  0  0  0  0  0
   -3.3319   41.5201   14.8799 C   0  0  1  0  0  0  0  0  0  0  0  0
   -2.4171   40.7674   15.8065 O   0  0  0  0  0  0  0  0  0  0  0  0
   -3.0346   43.0580   14.9681 C   0  0  0  0  0  0  0  0  0  0  0  0
   -0.9812   38.7922   13.9297 N   0  0  0  0  0  0  0  0  0  0  0  0
  1  2  1  1  0  0  0
  1  3  1  0  0  0  0
  1 10  1  0  0  0  0
  3  4  1  6  0  0  0
  3  5  1  0  0  0  0
  5  6  1  1  0  0  0
  5  7  1  0  0  0  0
  7  8  1  1  0  0  0
  7  9  1  0  0  0  0
  9 10  1  0  0  0  0
  9 11  1  1  0  0  0
 11 12  1  0  0  0  0
 13 14  1  6  0  0  0
 13 15  1  0  0  0  0
 13 21  1  0  0  0  0
 16 15  1  0  0  0  0
 16 17  1  6  0  0  0
 18  2  1  1  0  0  0
 18 16  1  0  0  0  0
 19 18  1  0  0  0  0
 19 20  1  6  0  0  0
 21 19  1  0  0  0  0
 21 22  1  1  0  0  0
 23 20  1  6  0  0  0
 23 24  1  0  0  0  0
 23 28  1  0  0  0  0
 24 25  1  1  0  0  0
 24 26  1  0  0  0  0
 26 27  1  0  0  0  0
 26 32  1  1  0  0  0
 27 28  1  0  0  0  0
 27 29  1  1  0  0  0
 29 30  1  0  0  0  0
 31 32  1  1  0  0  0
 31 40  1  0  0  0  0
 33 31  1  0  0  0  0
 33 42  1  6  0  0  0
 35 33  1  0  0  0  0
 35 36  1  1  0  0  0
 37 35  1  0  0  0  0
 37 38  1  1  0  0  0
 37 39  1  0  0  0  0
 39 40  1  0  0  0  0
 39 41  1  6  0  0  0
 41 34  1  0  0  0  0
M  END
>  <CHROM.1>
141.39737508,-67.08381676,24.57686565,-69.59598051,-55.08540712,-160.87016426
19.47393782,-22.20938303,-57.78978054,-1.72373641,35.43654799,17.29142598
1.47663991,-0.35223154,2.58393615

>  <Name>
2et4_lig

>  <RI>
0

>  <Rbt.Current_Directory>
/home/itssahil/PROJECTS/Mol_Feturizer/New_Systems/rnas/2et4

>  <Rbt.Executable>
rbdock ($Id: //depot/dev/client3/rdock/2013.1/src/exe/rbdock.cxx#4 $)

>  <Rbt.Library>
libRbt.so (2013.1, Build901 2013/11/27)

>  <Rbt.Parameter_File>
/export/apps/rDock/src/rDock_2013.1_src/data/scripts/dock_solv.prm

>  <Rbt.Receptor>
prm/blind_docking_100.prm

>  <SCORE>
47.5306

>  <SCORE.INTER>
13.4514

>  <SCORE.INTER.CONST>
1

>  <SCORE.INTER.POLAR>
-0.56652

>  <SCORE.INTER.ROT>
9

>  <SCORE.INTER.SOLV>
26.039

>  <SCORE.INTER.VDW>
-7.42365

>  <SCORE.INTER.norm>
0.320272

>  <SCORE.INTRA>
15.7923

>  <SCORE.INTRA.DIHEDRAL>
-0.448165

>  <SCORE.INTRA.DIHEDRAL.0>
21.6909

>  <SCORE.INTRA.POLAR>
0

>  <SCORE.INTRA.POLAR.0>
0

>  <SCORE.INTRA.REPUL>
0

>  <SCORE.INTRA.REPUL.0>
0

>  <SCORE.INTRA.SOLV>
6.73907

>  <SCORE.INTRA.SOLV.lig_0>
-116.606

>  <SCORE.INTRA.VDW>
12.6469

>  <SCORE.INTRA.VDW.0>
-6.01229

>  <SCORE.INTRA.norm>
0.376008

>  <SCORE.RESTR>
18.2869

>  <SCORE.RESTR.CAVITY>
18.2869

>  <SCORE.RESTR.norm>
0.435402

>  <SCORE.SYSTEM>
0

>  <SCORE.SYSTEM.CONST>
0

>  <SCORE.SYSTEM.DIHEDRAL>
0

>  <SCORE.SYSTEM.SOLV>
0

>  <SCORE.SYSTEM.norm>
0

>  <SCORE.heavy>
42

>  <SCORE.norm>
1.13168

>  <RMSD>
34.142

$$$$
2et4_lig
 OpenBabel11021811423D
libRbt.so/2013.1/901 2013/11/27
 42 45  0  0  0  0  0  0  0  0999 V2000
   -2.0632   30.5592   19.3906 C   0  0  2  0  0  0  0  0  0  0  0  0
   -2.4877   31.8947   19.1106 O   0  0  0  0  0  0  0  0  0  0  0  0
   -0.7739   30.6592   20.2452 C   0  0  2  0  0  0  0  0  0  0  0  0
   -1.0005   31.4132   21.4517 N   0  0  0  0  0  0  0  0  0  0  0  0
    0.3598   31.2970   19.3912 C   0  0  1  0  0  0  0  0  0  0  0  0
    1.5219   31.3708   20.1566 O   0  0  0  0  0  0  0  0  0  0  0  0
    0.5512   30.4271   18.1042 C   0  0  2  0  0  0  0  0  0  0  0  0
    1.5691   30.9754   17.2936 O   0  0  0  0  0  0  0  0  0  0  0  0
   -0.7730   30.3480   17.2855 C   0  0  2  0  0  0  0  0  0  0  0  0
   -1.7941   29.8098   18.1307 O   0  0  0  0  0  0  0  0  0  0  0  0
   -0.6302   29.4515   16.0122 C   0  0  0  0  0  0  0  0  0  0  0  0
    0.0342   30.1268   14.9521 N   0  0  0  0  0  0  0  0  0  0  0  0
   -4.5089   34.9130   21.4471 C   0  0  2  0  0  0  0  0  0  0  0  0
   -4.7622   35.9104   22.4943 N   0  0  0  0  0  0  0  0  0  0  0  0
   -4.2379   33.4664   22.1299 C   0  0  0  0  0  0  0  0  0  0  0  0
   -3.9511   32.3981   20.9969 C   0  0  2  0  0  0  0  0  0  0  0  0
   -3.6735   31.0712   21.5748 N   0  0  0  0  0  0  0  0  0  0  0  0
   -2.7252   32.8637   20.1409 C   0  0  2  0  0  0  0  0  0  0  0  0
   -2.9886   34.2721   19.5124 C   0  0  2  0  0  0  0  0  0  0  0  0
   -1.7992   34.6148   18.7594 O   0  0  0  0  0  0  0  0  0  0  0  0
   -3.2618   35.3155   20.6430 C   0  0  1  0  0  0  0  0  0  0  0  0
   -3.5053   36.5493   20.0565 O   0  0  0  0  0  0  0  0  0  0  0  0
   -1.6381   35.7332   18.0115 C   0  0  1  0  0  0  0  0  0  0  0  0
   -0.1349   36.0714   17.8340 C   0  0  2  0  0  0  0  0  0  0  0  0
    0.3938   36.8005   18.9035 O   0  0  0  0  0  0  0  0  0  0  0  0
   -0.1882   36.7209   16.4635 C   0  0  1  0  0  0  0  0  0  0  0  0
   -1.2290   35.9431   15.6458 C   0  0  2  0  0  0  0  0  0  0  0  0
   -2.1831   35.6519   16.6668 O   0  0  0  0  0  0  0  0  0  0  0  0
   -0.7049   34.6412   14.9493 C   0  0  0  0  0  0  0  0  0  0  0  0
   -0.2369   33.7477   15.9941 O   0  0  0  0  0  0  0  0  0  0  0  0
   -0.8158   38.9174   15.5134 C   0  0  2  0  0  0  0  0  0  0  0  0
   -0.5862   38.1397   16.6564 O   0  0  0  0  0  0  0  0  0  0  0  0
   -0.0785   40.3233   15.6119 C   0  0  1  0  0  0  0  0  0  0  0  0
   -4.8640   41.3396   14.5227 N   0  0  0  0  0  0  0  0  0  0  0  0
   -0.4289   41.1387   14.2595 C   0  0  1  0  0  0  0  0  0  0  0  0
    0.0457   40.3169   13.0776 O   0  0  0  0  0  0  0  0  0  0  0  0
   -2.0272   41.3896   14.1652 C   0  0  2  0  0  0  0  0  0  0  0  0
   -2.4540   42.1833   15.2983 O   0  0  0  0  0  0  0  0  0  0  0  0
   -2.7494   39.9286   14.1040 C   0  0  1  0  0  0  0  0  0  0  0  0
   -2.3454   39.1209   15.3067 O   0  0  0  0  0  0  0  0  0  0  0  0
   -4.3128   40.0383   14.0345 C   0  0  0  0  0  0  0  0  0  0  0  0
   -0.5039   41.0403   16.8592 N   0  0  0  0  0  0  0  0  0  0  0  0
  1  2  1  6  0  0  0
  1  3  1  0  0  0  0
  1 10  1  0  0  0  0
  3  4  1  1  0  0  0
  3  5  1  0  0  0  0
  5  6  1  1  0  0  0
  5  7  1  0  0  0  0
  7  8  1  6  0  0  0
  7  9  1  0  0  0  0
  9 10  1  0  0  0  0
  9 11  1  6  0  0  0
 11 12  1  0  0  0  0
 13 14  1  1  0  0  0
 13 15  1  0  0  0  0
 13 21  1  0  0  0  0
 16 15  1  0  0  0  0
 16 17  1  1  0  0  0
 18  2  1  6  0  0  0
 18 16  1  0  0  0  0
 19 18  1  0  0  0  0
 19 20  1  1  0  0  0
 21 19  1  0  0  0  0
 21 22  1  6  0  0  0
 23 20  1  6  0  0  0
 23 24  1  0  0  0  0
 23 28  1  0  0  0  0
 24 25  1  1  0  0  0
 24 26  1  0  0  0  0
 26 27  1  0  0  0  0
 26 32  1  1  0  0  0
 27 28  1  0  0  0  0
 27 29  1  1  0  0  0
 29 30  1  0  0  0  0
 31 32  1  1  0  0  0
 31 40  1  0  0  0  0
 33 31  1  0  0  0  0
 33 42  1  1  0  0  0
 35 33  1  0  0  0  0
 35 36  1  6  0  0  0
 37 35  1  0  0  0  0
 37 38  1  1  0  0  0
 37 39  1  0  0  0  0
 39 40  1  0  0  0  0
 39 41  1  1  0  0  0
 41 34  1  0  0  0  0
M  END
>  <CHROM.1>
-55.02820775,-78.38146333,-65.86093016,176.97973329,156.75512541,-174.57317834
60.88507601,-132.62540885,-20.99840537,-1.59595974,35.22277605,17.67437921
1.50449904,-0.90627045,2.63158087

>  <Name>
2et4_lig

>  <RI>
0

>  <Rbt.Current_Directory>
/home/itssahil/PROJECTS/Mol_Feturizer/New_Systems/rnas/2et4

>  <Rbt.Executable>
rbdock ($Id: //depot/dev/client3/rdock/2013.1/src/exe/rbdock.cxx#4 $)

>  <Rbt.Library>
libRbt.so (2013.1, Build901 2013/11/27)

>  <Rbt.Parameter_File>
/export/apps/rDock/src/rDock_2013.1_src/data/scripts/dock_solv.prm

>  <Rbt.Receptor>
prm/blind_docking_100.prm

>  <SCORE>
13.2773

>  <SCORE.INTER>
-3.03923

>  <SCORE.INTER.CONST>
1

>  <SCORE.INTER.POLAR>
-0.936188

>  <SCORE.INTER.ROT>
9

>  <SCORE.INTER.SOLV>
23.7544

>  <SCORE.INTER.VDW>
-16.4237

>  <SCORE.INTER.norm>
-0.0723626

>  <SCORE.INTRA>
2.27636

>  <SCORE.INTRA.DIHEDRAL>
-7.34136

>  <SCORE.INTRA.DIHEDRAL.0>
21.6909

>  <SCORE.INTRA.POLAR>
0

>  <SCORE.INTRA.POLAR.0>
0

>  <SCORE.INTRA.REPUL>
0.0262048

>  <SCORE.INTRA.REPUL.0>
0

>  <SCORE.INTRA.SOLV>
4.31995

>  <SCORE.INTRA.SOLV.lig_0>
-116.606

>  <SCORE.INTRA.VDW>
3.65604

>  <SCORE.INTRA.VDW.0>
-6.01229

>  <SCORE.INTRA.norm>
0.054199

>  <SCORE.RESTR>
14.0402

>  <SCORE.RESTR.CAVITY>
14.0402

>  <SCORE.RESTR.norm>
0.33429

>  <SCORE.SYSTEM>
0

>  <SCORE.SYSTEM.CONST>
0

>  <SCORE.SYSTEM.DIHEDRAL>
0

>  <SCORE.SYSTEM.SOLV>
0

>  <SCORE.SYSTEM.norm>
0

>  <SCORE.heavy>
42

>  <SCORE.norm>
0.316127

>  <RMSD>
34.202

$$$$
2et4_lig
 OpenBabel11021811423D
libRbt.so/2013.1/901 2013/11/27
 42 45  0  0  0  0  0  0  0  0999 V2000
   -3.6341   31.8663   18.7739 C   0  0  2  0  0  0  0  0  0  0  0  0
   -2.9948   32.8954   18.0159 O   0  0  0  0  0  0  0  0  0  0  0  0
   -4.8364   32.5168   19.5046 C   0  0  2  0  0  0  0  0  0  0  0  0
   -5.7434   33.1380   18.5734 N   0  0  0  0  0  0  0  0  0  0  0  0
   -4.3088   33.5474   20.5441 C   0  0  1  0  0  0  0  0  0  0  0  0
   -5.3909   34.1188   21.2108 O   0  0  0  0  0  0  0  0  0  0  0  0
   -3.3362   32.8042   21.5196 C   0  0  2  0  0  0  0  0  0  0  0  0
   -2.8264   33.7063   22.4787 O   0  0  0  0  0  0  0  0  0  0  0  0
   -2.1518   32.1592   20.7381 C   0  0  2  0  0  0  0  0  0  0  0  0
   -2.6909   31.2657   19.7594 O   0  0  0  0  0  0  0  0  0  0  0  0
   -1.1805   31.3718   21.6773 C   0  0  0  0  0  0  0  0  0  0  0  0
   -0.0741   30.8270   20.9701 N   0  0  0  0  0  0  0  0  0  0  0  0
    1.1772   31.7866   17.8757 C   0  0  2  0  0  0  0  0  0  0  0  0
    2.5597   31.6654   17.3964 N   0  0  0  0  0  0  0  0  0  0  0  0
    0.1680   31.1187   16.7952 C   0  0  0  0  0  0  0  0  0  0  0  0
   -1.3222   31.2651   17.3103 C   0  0  2  0  0  0  0  0  0  0  0  0
   -2.2774   30.6931   16.3449 N   0  0  0  0  0  0  0  0  0  0  0  0
   -1.6484   32.7802   17.5353 C   0  0  2  0  0  0  0  0  0  0  0  0
   -0.6500   33.4183   18.5570 C   0  0  2  0  0  0  0  0  0  0  0  0
   -1.0254   34.8120   18.6824 O   0  0  0  0  0  0  0  0  0  0  0  0
    0.8139   33.2725   18.0306 C   0  0  1  0  0  0  0  0  0  0  0  0
    1.6765   33.8335   18.9618 O   0  0  0  0  0  0  0  0  0  0  0  0
   -0.7406   35.7861   17.7844 C   0  0  1  0  0  0  0  0  0  0  0  0
   -1.9034   35.9682   16.7744 C   0  0  2  0  0  0  0  0  0  0  0  0
   -1.8474   35.0693   15.7049 O   0  0  0  0  0  0  0  0  0  0  0  0
   -1.7531   37.4513   16.4899 C   0  0  1  0  0  0  0  0  0  0  0  0
   -1.3520   38.1170   17.8138 C   0  0  2  0  0  0  0  0  0  0  0  0
   -0.5129   37.1003   18.3614 O   0  0  0  0  0  0  0  0  0  0  0  0
   -2.5360   38.4760   18.7751 C   0  0  0  0  0  0  0  0  0  0  0  0
   -2.8707   37.2749   19.5197 O   0  0  0  0  0  0  0  0  0  0  0  0
   -0.6351   38.8165   14.7557 C   0  0  2  0  0  0  0  0  0  0  0  0
   -0.6983   37.6031   15.4541 O   0  0  0  0  0  0  0  0  0  0  0  0
    0.4561   39.7892   15.3827 C   0  0  1  0  0  0  0  0  0  0  0  0
   -4.6478   40.3870   13.7172 N   0  0  0  0  0  0  0  0  0  0  0  0
    0.4263   41.1559   14.5179 C   0  0  1  0  0  0  0  0  0  0  0  0
    0.7235   40.8059   13.0733 O   0  0  0  0  0  0  0  0  0  0  0  0
   -1.0312   41.8540   14.6395 C   0  0  2  0  0  0  0  0  0  0  0  0
   -1.2874   42.1868   16.0251 O   0  0  0  0  0  0  0  0  0  0  0  0
   -2.1253   40.8138   14.0225 C   0  0  1  0  0  0  0  0  0  0  0  0
   -2.0332   39.5014   14.7514 O   0  0  0  0  0  0  0  0  0  0  0  0
   -3.5900   41.3696   14.1058 C   0  0  0  0  0  0  0  0  0  0  0  0
    0.1731   40.0076   16.8398 N   0  0  0  0  0  0  0  0  0  0  0  0
  1  2  1  1  0  0  0
  1  3  1  0  0  0  0
  1 10  1  0  0  0  0
  3  4  1  6  0  0  0
  3  5  1  0  0  0  0
  5  6  1  1  0  0  0
  5  7  1  0  0  0  0
  7  8  1  1  0  0  0
  7  9  1  0  0  0  0
  9 10  1  0  0  0  0
  9 11  1  1  0  0  0
 11 12  1  0  0  0  0
 13 14  1  6  0  0  0
 13 15  1  0  0  0  0
 13 21  1  0  0  0  0
 16 15  1  0  0  0  0
 16 17  1  6  0  0  0
 18  2  1  1  0  0  0
 18 16  1  0  0  0  0
 19 18  1  0  0  0  0
 19 20  1  6  0  0  0
 21 19  1  0  0  0  0
 21 22  1  1  0  0  0
 23 20  1  1  0  0  0
 23 24  1  0  0  0  0
 23 28  1  0  0  0  0
 24 25  1  6  0  0  0
 24 26  1  0  0  0  0
 26 27  1  0  0  0  0
 26 32  1  6  0  0  0
 27 28  1  0  0  0  0
 27 29  1  1  0  0  0
 29 30  1  0  0  0  0
 31 32  1  1  0  0  0
 31 40  1  0  0  0  0
 33 31  1  0  0  0  0
 33 42  1  1  0  0  0
 35 33  1  0  0  0  0
 35 36  1  6  0  0  0
 37 35  1  0  0  0  0
 37 38  1  1  0  0  0
 37 39  1  0  0  0  0
 39 40  1  0  0  0  0
 39 41  1  1  0  0  0
 41 34  1  0  0  0  0
M  END
>  <CHROM.1>
161.03032574,-177.77879831,28.46184894,-77.45475015,93.24941230,162.36916014
82.94848741,97.28379806,-172.49976512,-1.61298875,35.60780999,17.62703443
1.65445072,-0.48483389,2.66923853

>  <Name>
2et4_lig

>  <RI>
0

>  <Rbt.Current_Directory>
/home/itssahil/PROJECTS/Mol_Feturizer/New_Systems/rnas/2et4

>  <Rbt.Executable>
rbdock ($Id: //depot/dev/client3/rdock/2013.1/src/exe/rbdock.cxx#4 $)

>  <Rbt.Library>
libRbt.so (2013.1, Build901 2013/11/27)

>  <Rbt.Parameter_File>
/export/apps/rDock/src/rDock_2013.1_src/data/scripts/dock_solv.prm

>  <Rbt.Receptor>
prm/blind_docking_100.prm

>  <SCORE>
33.0355

>  <SCORE.INTER>
11.8401

>  <SCORE.INTER.CONST>
1

>  <SCORE.INTER.POLAR>
-0.353311

>  <SCORE.INTER.ROT>
9

>  <SCORE.INTER.SOLV>
25.1219

>  <SCORE.INTER.VDW>
-8.90284

>  <SCORE.INTER.norm>
0.281908

>  <SCORE.INTRA>
3.22924

>  <SCORE.INTRA.DIHEDRAL>
-2.26611

>  <SCORE.INTRA.DIHEDRAL.0>
21.6909

>  <SCORE.INTRA.POLAR>
0

>  <SCORE.INTRA.POLAR.0>
0

>  <SCORE.INTRA.REPUL>
0

>  <SCORE.INTRA.REPUL.0>
0

>  <SCORE.INTRA.SOLV>
3.13896

>  <SCORE.INTRA.SOLV.lig_0>
-116.606

>  <SCORE.INTRA.VDW>
2.79282

>  <SCORE.INTRA.VDW.0>
-6.01229

>  <SCORE.INTRA.norm>
0.0768867

>  <SCORE.RESTR>
17.9661

>  <SCORE.RESTR.CAVITY>
17.9661

>  <SCORE.RESTR.norm>
0.427764

>  <SCORE.SYSTEM>
0

>  <SCORE.SYSTEM.CONST>
0

>  <SCORE.SYSTEM.DIHEDRAL>
0

>  <SCORE.SYSTEM.SOLV>
0

>  <SCORE.SYSTEM.norm>
0

>  <SCORE.heavy>
42

>  <SCORE.norm>
0.786559

>  <RMSD>
34.326

$$$$
2et4_lig
 OpenBabel11021811423D
libRbt.so/2013.1/901 2013/11/27
 42 45  0  0  0  0  0  0  0  0999 V2000
   -1.4589   31.0378   20.9814 C   0  0  2  0  0  0  0  0  0  0  0  0
   -1.4880   32.4229   21.3318 O   0  0  0  0  0  0  0  0  0  0  0  0
    0.0107   30.5634   21.1146 C   0  0  2  0  0  0  0  0  0  0  0  0
    0.5175   30.7903   22.4440 N   0  0  0  0  0  0  0  0  0  0  0  0
    0.8833   31.2909   20.0513 C   0  0  1  0  0  0  0  0  0  0  0  0
    2.2007   30.8507   20.1625 O   0  0  0  0  0  0  0  0  0  0  0  0
    0.2774   30.9986   18.6380 C   0  0  2  0  0  0  0  0  0  0  0  0
    1.0363   31.6476   17.6398 O   0  0  0  0  0  0  0  0  0  0  0  0
   -1.2020   31.4831   18.5572 C   0  0  2  0  0  0  0  0  0  0  0  0
   -1.9474   30.8296   19.5887 O   0  0  0  0  0  0  0  0  0  0  0  0
   -1.8538   31.1694   17.1707 C   0  0  0  0  0  0  0  0  0  0  0  0
   -1.2769   31.9353   16.1210 N   0  0  0  0  0  0  0  0  0  0  0  0
   -5.5515   33.6149   20.4821 C   0  0  2  0  0  0  0  0  0  0  0  0
   -6.7970   34.3920   20.5035 N   0  0  0  0  0  0  0  0  0  0  0  0
   -5.1938   33.1220   21.9860 C   0  0  0  0  0  0  0  0  0  0  0  0
   -3.8426   32.2970   21.9591 C   0  0  2  0  0  0  0  0  0  0  0  0
   -3.4651   31.8502   23.3117 N   0  0  0  0  0  0  0  0  0  0  0  0
   -2.7005   33.1882   21.3639 C   0  0  2  0  0  0  0  0  0  0  0  0
   -3.0713   33.6799   19.9256 C   0  0  2  0  0  0  0  0  0  0  0  0
   -1.9661   34.5011   19.4747 O   0  0  0  0  0  0  0  0  0  0  0  0
   -4.4017   34.4982   19.9707 C   0  0  1  0  0  0  0  0  0  0  0  0
   -4.7122   34.9085   18.6819 O   0  0  0  0  0  0  0  0  0  0  0  0
   -1.9100   35.1628   18.2935 C   0  0  1  0  0  0  0  0  0  0  0  0
   -1.0053   36.4179   18.4020 C   0  0  2  0  0  0  0  0  0  0  0  0
   -1.6750   37.5349   18.9108 O   0  0  0  0  0  0  0  0  0  0  0  0
   -0.4801   36.4673   16.9792 C   0  0  1  0  0  0  0  0  0  0  0  0
   -0.2688   35.0130   16.5351 C   0  0  2  0  0  0  0  0  0  0  0  0
   -1.3759   34.3892   17.1853 O   0  0  0  0  0  0  0  0  0  0  0  0
    1.0950   34.3688   16.9592 C   0  0  0  0  0  0  0  0  0  0  0  0
    1.1341   34.3505   18.4108 O   0  0  0  0  0  0  0  0  0  0  0  0
   -1.1490   38.3687   15.5444 C   0  0  2  0  0  0  0  0  0  0  0  0
   -1.5030   37.1548   16.1487 O   0  0  0  0  0  0  0  0  0  0  0  0
   -0.4992   39.3706   16.5950 C   0  0  1  0  0  0  0  0  0  0  0  0
   -3.4141   42.1651   12.8684 N   0  0  0  0  0  0  0  0  0  0  0  0
   -0.1533   40.7351   15.7981 C   0  0  1  0  0  0  0  0  0  0  0  0
    0.7916   40.3916   14.6638 O   0  0  0  0  0  0  0  0  0  0  0  0
   -1.5147   41.3945   15.2165 C   0  0  2  0  0  0  0  0  0  0  0  0
   -2.3955   41.7219   16.3179 O   0  0  0  0  0  0  0  0  0  0  0  0
   -2.1702   40.3250   14.1742 C   0  0  1  0  0  0  0  0  0  0  0  0
   -2.3988   39.0164   14.8792 O   0  0  0  0  0  0  0  0  0  0  0  0
   -3.5168   40.8420   13.5572 C   0  0  0  0  0  0  0  0  0  0  0  0
   -1.4344   39.5830   17.7488 N   0  0  0  0  0  0  0  0  0  0  0  0
  1  2  1  6  0  0  0
  1  3  1  0  0  0  0
  1 10  1  0  0  0  0
  3  4  1  1  0  0  0
  3  5  1  0  0  0  0
  5  6  1  6  0  0  0
  5  7  1  0  0  0  0
  7  8  1  6  0  0  0
  7  9  1  0  0  0  0
  9 10  1  0  0  0  0
  9 11  1  6  0  0  0
 11 12  1  0  0  0  0
 13 14  1  1  0  0  0
 13 15  1  0  0  0  0
 13 21  1  0  0  0  0
 16 15  1  0  0  0  0
 16 17  1  1  0  0  0
 18  2  1  6  0  0  0
 18 16  1  0  0  0  0
 19 18  1  0  0  0  0
 19 20  1  1  0  0  0
 21 19  1  0  0  0  0
 21 22  1  6  0  0  0
 23 20  1  1  0  0  0
 23 24  1  0  0  0  0
 23 28  1  0  0  0  0
 24 25  1  6  0  0  0
 24 26  1  0  0  0  0
 26 27  1  0  0  0  0
 26 32  1  6  0  0  0
 27 28  1  0  0  0  0
 27 29  1  1  0  0  0
 29 30  1  0  0  0  0
 31 32  1  1  0  0  0
 31 40  1  0  0  0  0
 33 31  1  0  0  0  0
 33 42  1  1  0  0  0
 35 33  1  0  0  0  0
 35 36  1  6  0  0  0
 37 35  1  0  0  0  0
 37 38  1  1  0  0  0
 37 39  1  0  0  0  0
 39 40  1  0  0  0  0
 39 41  1  1  0  0  0
 41 34  1  0  0  0  0
M  END
>  <CHROM.1>
-177.91371657,-67.89345965,39.27618864,-177.44482919,152.38714524,116.73446740
62.13238493,-49.99512875,55.99727812,-1.64091578,35.15175041,18.23412371
-1.54828527,0.45220926,-0.57290992

>  <Name>
2et4_lig

>  <RI>
0

>  <Rbt.Current_Directory>
/home/itssahil/PROJECTS/Mol_Feturizer/New_Systems/rnas/2et4

>  <Rbt.Executable>
rbdock ($Id: //depot/dev/client3/rdock/2013.1/src/exe/rbdock.cxx#4 $)

>  <Rbt.Library>
libRbt.so (2013.1, Build901 2013/11/27)

>  <Rbt.Parameter_File>
/export/apps/rDock/src/rDock_2013.1_src/data/scripts/dock_solv.prm

>  <Rbt.Receptor>
prm/blind_docking_100.prm

>  <SCORE>
28.3721

>  <SCORE.INTER>
12.3645

>  <SCORE.INTER.CONST>
1

>  <SCORE.INTER.POLAR>
-0.363362

>  <SCORE.INTER.ROT>
9

>  <SCORE.INTER.SOLV>
24.8467

>  <SCORE.INTER.VDW>
-8.42804

>  <SCORE.INTER.norm>
0.294393

>  <SCORE.INTRA>
0.0251196

>  <SCORE.INTRA.DIHEDRAL>
-8.53945

>  <SCORE.INTRA.DIHEDRAL.0>
21.6909

>  <SCORE.INTRA.POLAR>
0

>  <SCORE.INTRA.POLAR.0>
0

>  <SCORE.INTRA.REPUL>
0.00160747

>  <SCORE.INTRA.REPUL.0>
0

>  <SCORE.INTRA.SOLV>
5.00268

>  <SCORE.INTRA.SOLV.lig_0>
-116.606

>  <SCORE.INTRA.VDW>
1.78547

>  <SCORE.INTRA.VDW.0>
-6.01229

>  <SCORE.INTRA.norm>
0.000598086

>  <SCORE.RESTR>
15.9825

>  <SCORE.RESTR.CAVITY>
15.9825

>  <SCORE.RESTR.norm>
0.380535

>  <SCORE.SYSTEM>
0

>  <SCORE.SYSTEM.CONST>
0

>  <SCORE.SYSTEM.DIHEDRAL>
0

>  <SCORE.SYSTEM.SOLV>
0

>  <SCORE.SYSTEM.norm>
0

>  <SCORE.heavy>
42

>  <SCORE.norm>
0.675525

>  <RMSD>
34.348

$$$$
2et4_lig
 OpenBabel11021811423D
libRbt.so/2013.1/901 2013/11/27
 42 45  0  0  0  0  0  0  0  0999 V2000
   -1.2374   32.9608   17.7068 C   0  0  2  0  0  0  0  0  0  0  0  0
   -2.1261   32.4202   18.6867 O   0  0  0  0  0  0  0  0  0  0  0  0
   -0.9738   31.8450   16.6637 C   0  0  2  0  0  0  0  0  0  0  0  0
   -2.2019   31.3775   16.0730 N   0  0  0  0  0  0  0  0  0  0  0  0
   -0.2004   30.6787   17.3439 C   0  0  1  0  0  0  0  0  0  0  0  0
    0.0493   29.6843   16.4002 O   0  0  0  0  0  0  0  0  0  0  0  0
    1.1174   31.2581   17.9582 C   0  0  2  0  0  0  0  0  0  0  0  0
    1.8497   30.2320   18.5941 O   0  0  0  0  0  0  0  0  0  0  0  0
    0.8012   32.3818   18.9913 C   0  0  2  0  0  0  0  0  0  0  0  0
    0.0425   33.3998   18.3320 O   0  0  0  0  0  0  0  0  0  0  0  0
    2.0978   33.0134   19.5958 C   0  0  0  0  0  0  0  0  0  0  0  0
    2.9693   33.5149   18.5908 N   0  0  0  0  0  0  0  0  0  0  0  0
   -4.1231   34.4713   21.9207 C   0  0  2  0  0  0  0  0  0  0  0  0
   -4.3471   35.1063   23.2255 N   0  0  0  0  0  0  0  0  0  0  0  0
   -3.7044   32.9189   22.1378 C   0  0  0  0  0  0  0  0  0  0  0  0
   -3.4502   32.2433   20.7284 C   0  0  2  0  0  0  0  0  0  0  0  0
   -3.0414   30.8356   20.8794 N   0  0  0  0  0  0  0  0  0  0  0  0
   -2.3340   33.0342   19.9660 C   0  0  2  0  0  0  0  0  0  0  0  0
   -2.7381   34.5353   19.7894 C   0  0  2  0  0  0  0  0  0  0  0  0
   -1.6417   35.1765   19.0923 O   0  0  0  0  0  0  0  0  0  0  0  0
   -2.9775   35.1889   21.1883 C   0  0  1  0  0  0  0  0  0  0  0  0
   -3.3473   36.5131   21.0001 O   0  0  0  0  0  0  0  0  0  0  0  0
   -1.7666   36.1558   18.1641 C   0  0  1  0  0  0  0  0  0  0  0  0
   -0.3951   36.8144   17.8630 C   0  0  2  0  0  0  0  0  0  0  0  0
   -0.0584   37.8218   18.7722 O   0  0  0  0  0  0  0  0  0  0  0  0
   -0.6145   37.1875   16.4085 C   0  0  1  0  0  0  0  0  0  0  0  0
   -1.4339   36.0519   15.7794 C   0  0  2  0  0  0  0  0  0  0  0  0
   -2.2811   35.7159   16.8782 O   0  0  0  0  0  0  0  0  0  0  0  0
   -0.6069   34.8176   15.2823 C   0  0  0  0  0  0  0  0  0  0  0  0
   -1.5541   33.8076   14.8446 O   0  0  0  0  0  0  0  0  0  0  0  0
   -1.1475   39.3286   15.2891 C   0  0  2  0  0  0  0  0  0  0  0  0
   -1.3509   38.4782   16.3843 O   0  0  0  0  0  0  0  0  0  0  0  0
   -0.0509   40.4348   15.6108 C   0  0  1  0  0  0  0  0  0  0  0  0
   -4.5485   42.0864   14.6178 N   0  0  0  0  0  0  0  0  0  0  0  0
    0.0844   41.3656   14.2947 C   0  0  1  0  0  0  0  0  0  0  0  0
    0.4791   40.4798   13.1298 O   0  0  0  0  0  0  0  0  0  0  0  0
   -1.3281   42.0995   13.9905 C   0  0  2  0  0  0  0  0  0  0  0  0
   -1.6783   42.9456   15.1119 O   0  0  0  0  0  0  0  0  0  0  0  0
   -2.4330   40.9348   13.7032 C   0  0  1  0  0  0  0  0  0  0  0  0
   -2.4912   40.0002   14.8801 O   0  0  0  0  0  0  0  0  0  0  0  0
   -3.8590   41.5228   13.4168 C   0  0  0  0  0  0  0  0  0  0  0  0
   -0.4413   41.2036   16.8386 N   0  0  0  0  0  0  0  0  0  0  0  0
  1  2  1  1  0  0  0
  1  3  1  0  0  0  0
  1 10  1  0  0  0  0
  3  4  1  1  0  0  0
  3  5  1  0  0  0  0
  5  6  1  6  0  0  0
  5  7  1  0  0  0  0
  7  8  1  1  0  0  0
  7  9  1  0  0  0  0
  9 10  1  0  0  0  0
  9 11  1  6  0  0  0
 11 12  1  0  0  0  0
 13 14  1  1  0  0  0
 13 15  1  0  0  0  0
 13 21  1  0  0  0  0
 16 15  1  0  0  0  0
 16 17  1  1  0  0  0
 18  2  1  6  0  0  0
 18 16  1  0  0  0  0
 19 18  1  0  0  0  0
 19 20  1  1  0  0  0
 21 19  1  0  0  0  0
 21 22  1  6  0  0  0
 23 20  1  1  0  0  0
 23 24  1  0  0  0  0
 23 28  1  0  0  0  0
 24 25  1  1  0  0  0
 24 26  1  0  0  0  0
 26 27  1  0  0  0  0
 26 32  1  1  0  0  0
 27 28  1  0  0  0  0
 27 29  1  1  0  0  0
 29 30  1  0  0  0  0
 31 32  1  1  0  0  0
 31 40  1  0  0  0  0
 33 31  1  0  0  0  0
 33 42  1  1  0  0  0
 35 33  1  0  0  0  0
 35 36  1  6  0  0  0
 37 35  1  0  0  0  0
 37 38  1  1  0  0  0
 37 39  1  0  0  0  0
 39 40  1  0  0  0  0
 39 41  1  1  0  0  0
 41 34  1  0  0  0  0
M  END
>  <CHROM.1>
164.20302258,55.79728127,175.43102412,143.75404545,167.52563893,150.90469507
174.58415284,-96.19789490,-72.32550477,-1.34614338,35.76964136,17.50698107
-1.49077024,0.88340579,-0.53168922

>  <Name>
2et4_lig

>  <RI>
0

>  <Rbt.Current_Directory>
/home/itssahil/PROJECTS/Mol_Feturizer/New_Systems/rnas/2et4

>  <Rbt.Executable>
rbdock ($Id: //depot/dev/client3/rdock/2013.1/src/exe/rbdock.cxx#4 $)

>  <Rbt.Library>
libRbt.so (2013.1, Build901 2013/11/27)

>  <Rbt.Parameter_File>
/export/apps/rDock/src/rDock_2013.1_src/data/scripts/dock_solv.prm

>  <Rbt.Receptor>
prm/blind_docking_100.prm

>  <SCORE>
17.4543

>  <SCORE.INTER>
4.06496

>  <SCORE.INTER.CONST>
1

>  <SCORE.INTER.POLAR>
0

>  <SCORE.INTER.ROT>
9

>  <SCORE.INTER.SOLV>
21.6423

>  <SCORE.INTER.VDW>
-14.1041

>  <SCORE.INTER.norm>
0.0967848

>  <SCORE.INTRA>
-1.39094

>  <SCORE.INTRA.DIHEDRAL>
-5.92419

>  <SCORE.INTRA.DIHEDRAL.0>
21.6909

>  <SCORE.INTRA.POLAR>
0

>  <SCORE.INTRA.POLAR.0>
0

>  <SCORE.INTRA.REPUL>
0

>  <SCORE.INTRA.REPUL.0>
0

>  <SCORE.INTRA.SOLV>
0.207285

>  <SCORE.INTRA.SOLV.lig_0>
-116.606

>  <SCORE.INTRA.VDW>
1.46751

>  <SCORE.INTRA.VDW.0>
-6.01229

>  <SCORE.INTRA.norm>
-0.0331176

>  <SCORE.RESTR>
14.7802

>  <SCORE.RESTR.CAVITY>
14.7802

>  <SCORE.RESTR.norm>
0.35191

>  <SCORE.SYSTEM>
0

>  <SCORE.SYSTEM.CONST>
0

>  <SCORE.SYSTEM.DIHEDRAL>
0

>  <SCORE.SYSTEM.SOLV>
0

>  <SCORE.SYSTEM.norm>
0

>  <SCORE.heavy>
42

>  <SCORE.norm>
0.415578

>  <RMSD>
34.429

$$$$
2et4_lig
 OpenBabel11021811423D
libRbt.so/2013.1/901 2013/11/27
 42 45  0  0  0  0  0  0  0  0999 V2000
   -1.9387   30.9071   19.2002 C   0  0  2  0  0  0  0  0  0  0  0  0
   -2.3286   32.2818   19.1811 O   0  0  0  0  0  0  0  0  0  0  0  0
   -0.6655   30.8054   20.0784 C   0  0  2  0  0  0  0  0  0  0  0  0
   -0.9010   31.3137   21.4057 N   0  0  0  0  0  0  0  0  0  0  0  0
    0.4990   31.5696   19.3848 C   0  0  1  0  0  0  0  0  0  0  0  0
    1.6463   31.4629   20.1684 O   0  0  0  0  0  0  0  0  0  0  0  0
    0.6985   30.9644   17.9552 C   0  0  2  0  0  0  0  0  0  0  0  0
    1.7444   31.6352   17.2847 O   0  0  0  0  0  0  0  0  0  0  0  0
   -0.6098   31.0805   17.1156 C   0  0  2  0  0  0  0  0  0  0  0  0
   -1.6595   30.4127   17.8220 O   0  0  0  0  0  0  0  0  0  0  0  0
   -0.4599   30.4476   15.6935 C   0  0  0  0  0  0  0  0  0  0  0  0
   -0.6410   29.0377   15.7117 N   0  0  0  0  0  0  0  0  0  0  0  0
   -4.5891   34.6498   21.9984 C   0  0  2  0  0  0  0  0  0  0  0  0
   -4.9276   35.4037   23.2120 N   0  0  0  0  0  0  0  0  0  0  0  0
   -4.2347   33.1166   22.3935 C   0  0  0  0  0  0  0  0  0  0  0  0
   -3.8567   32.3122   21.0830 C   0  0  2  0  0  0  0  0  0  0  0  0
   -3.5017   30.9173   21.3989 N   0  0  0  0  0  0  0  0  0  0  0  0
   -2.6490   33.0123   20.3730 C   0  0  2  0  0  0  0  0  0  0  0  0
   -2.9943   34.4978   20.0240 C   0  0  2  0  0  0  0  0  0  0  0  0
   -1.8169   35.0550   19.3898 O   0  0  0  0  0  0  0  0  0  0  0  0
   -3.3572   35.2791   21.3276 C   0  0  1  0  0  0  0  0  0  0  0  0
   -3.6717   36.5868   20.9862 O   0  0  0  0  0  0  0  0  0  0  0  0
   -1.8135   36.0748   18.4974 C   0  0  1  0  0  0  0  0  0  0  0  0
   -0.3998   36.7006   18.3737 C   0  0  2  0  0  0  0  0  0  0  0  0
   -0.1357   37.6589   19.3571 O   0  0  0  0  0  0  0  0  0  0  0  0
   -0.4503   37.1394   16.9219 C   0  0  1  0  0  0  0  0  0  0  0  0
   -1.2280   36.0572   16.1597 C   0  0  2  0  0  0  0  0  0  0  0  0
   -2.1979   35.7043   17.1458 O   0  0  0  0  0  0  0  0  0  0  0  0
   -0.3864   34.8182   15.7001 C   0  0  0  0  0  0  0  0  0  0  0  0
    0.1850   34.2150   16.8912 O   0  0  0  0  0  0  0  0  0  0  0  0
   -1.1881   39.1282   15.6486 C   0  0  2  0  0  0  0  0  0  0  0  0
   -1.1437   38.4530   16.8758 O   0  0  0  0  0  0  0  0  0  0  0  0
   -0.1025   40.2890   15.5868 C   0  0  1  0  0  0  0  0  0  0  0  0
   -4.6313   41.6723   12.7548 N   0  0  0  0  0  0  0  0  0  0  0  0
   -0.2586   41.0086   14.1465 C   0  0  1  0  0  0  0  0  0  0  0  0
   -0.0488   39.9610   13.0713 O   0  0  0  0  0  0  0  0  0  0  0  0
   -1.7352   41.6632   14.0141 C   0  0  2  0  0  0  0  0  0  0  0  0
   -1.9076   42.6657   15.0444 O   0  0  0  0  0  0  0  0  0  0  0  0
   -2.8199   40.4498   14.1195 C   0  0  1  0  0  0  0  0  0  0  0  0
   -2.6139   39.7064   15.4106 O   0  0  0  0  0  0  0  0  0  0  0  0
   -4.2997   40.9629   14.0285 C   0  0  0  0  0  0  0  0  0  0  0  0
   -0.2909   41.2307   16.7395 N   0  0  0  0  0  0  0  0  0  0  0  0
  1  2  1  6  0  0  0
  1  3  1  0  0  0  0
  1 10  1  0  0  0  0
  3  4  1  1  0  0  0
  3  5  1  0  0  0  0
  5  6  1  1  0  0  0
  5  7  1  0  0  0  0
  7  8  1  6  0  0  0
  7  9  1  0  0  0  0
  9 10  1  0  0  0  0
  9 11  1  6  0  0  0
 11 12  1  0  0  0  0
 13 14  1  1  0  0  0
 13 15  1  0  0  0  0
 13 21  1  0  0  0  0
 16 15  1  0  0  0  0
 16 17  1  1  0  0  0
 18  2  1  6  0  0  0
 18 16  1  0  0  0  0
 19 18  1  0  0  0  0
 19 20  1  1  0  0  0
 21 19  1  0  0  0  0
 21 22  1  6  0  0  0
 23 20  1  1  0  0  0
 23 24  1  0  0  0  0
 23 28  1  0  0  0  0
 24 25  1  1  0  0  0
 24 26  1  0  0  0  0
 26 27  1  0  0  0  0
 26 32  1  1  0  0  0
 27 28  1  0  0  0  0
 27 29  1  1  0  0  0
 29 30  1  0  0  0  0
 31 32  1  1  0  0  0
 31 40  1  0  0  0  0
 33 31  1  0  0  0  0
 33 42  1  1  0  0  0
 35 33  1  0  0  0  0
 35 36  1  6  0  0  0
 37 35  1  0  0  0  0
 37 38  1  1  0  0  0
 37 39  1  0  0  0  0
 39 40  1  0  0  0  0
 39 41  1  1  0  0  0
 41 34  1  0  0  0  0
M  END
>  <CHROM.1>
-59.10042839,82.15583514,-59.94910008,153.05350484,161.90778362,173.48008397
59.05135715,-101.03108600,60.24683791,-1.59005501,35.45250268,17.83309868
-1.51956750,0.93794212,-0.53690976

>  <Name>
2et4_lig

>  <RI>
0

>  <Rbt.Current_Directory>
/home/itssahil/PROJECTS/Mol_Feturizer/New_Systems/rnas/2et4

>  <Rbt.Executable>
rbdock ($Id: //depot/dev/client3/rdock/2013.1/src/exe/rbdock.cxx#4 $)

>  <Rbt.Library>
libRbt.so (2013.1, Build901 2013/11/27)

>  <Rbt.Parameter_File>
/export/apps/rDock/src/rDock_2013.1_src/data/scripts/dock_solv.prm

>  <Rbt.Receptor>
prm/blind_docking_100.prm

>  <SCORE>
12.6315

>  <SCORE.INTER>
0.593468

>  <SCORE.INTER.CONST>
1

>  <SCORE.INTER.POLAR>
-0.969088

>  <SCORE.INTER.ROT>
9

>  <SCORE.INTER.SOLV>
27.758

>  <SCORE.INTER.VDW>
-15.2267

>  <SCORE.INTER.norm>
0.0141302

>  <SCORE.INTRA>
-0.675148

>  <SCORE.INTRA.DIHEDRAL>
-9.657

>  <SCORE.INTRA.DIHEDRAL.0>
21.6909

>  <SCORE.INTRA.POLAR>
0

>  <SCORE.INTRA.POLAR.0>
0

>  <SCORE.INTRA.REPUL>
0

>  <SCORE.INTRA.REPUL.0>
0

>  <SCORE.INTRA.SOLV>
3.09063

>  <SCORE.INTRA.SOLV.lig_0>
-116.606

>  <SCORE.INTRA.VDW>
2.60804

>  <SCORE.INTRA.VDW.0>
-6.01229

>  <SCORE.INTRA.norm>
-0.016075

>  <SCORE.RESTR>
12.7131

>  <SCORE.RESTR.CAVITY>
12.7131

>  <SCORE.RESTR.norm>
0.302694

>  <SCORE.SYSTEM>
0

>  <SCORE.SYSTEM.CONST>
0

>  <SCORE.SYSTEM.DIHEDRAL>
0

>  <SCORE.SYSTEM.SOLV>
0

>  <SCORE.SYSTEM.norm>
0

>  <SCORE.heavy>
42

>  <SCORE.norm>
0.300749

>  <RMSD>
34.445

$$$$
2et4_lig
 OpenBabel11021811423D
libRbt.so/2013.1/901 2013/11/27
 42 45  0  0  0  0  0  0  0  0999 V2000
   -1.2737   33.1222   17.9073 C   0  0  2  0  0  0  0  0  0  0  0  0
   -2.0930   32.4818   18.8876 O   0  0  0  0  0  0  0  0  0  0  0  0
   -1.0706   32.1110   16.7502 C   0  0  2  0  0  0  0  0  0  0  0  0
   -2.3311   31.6840   16.1985 N   0  0  0  0  0  0  0  0  0  0  0  0
   -0.2463   30.8971   17.2681 C   0  0  1  0  0  0  0  0  0  0  0  0
   -0.0514   29.9975   16.2220 O   0  0  0  0  0  0  0  0  0  0  0  0
    1.1045   31.4346   17.8479 C   0  0  2  0  0  0  0  0  0  0  0  0
    1.8839   30.3639   18.3375 O   0  0  0  0  0  0  0  0  0  0  0  0
    0.8482   32.4539   18.9991 C   0  0  2  0  0  0  0  0  0  0  0  0
    0.0409   33.5183   18.4873 O   0  0  0  0  0  0  0  0  0  0  0  0
    2.1767   33.0439   19.5754 C   0  0  0  0  0  0  0  0  0  0  0  0
    3.2185   32.0776   19.6194 N   0  0  0  0  0  0  0  0  0  0  0  0
   -4.3991   34.5064   21.9269 C   0  0  2  0  0  0  0  0  0  0  0  0
   -4.7470   35.1403   23.2047 N   0  0  0  0  0  0  0  0  0  0  0  0
   -3.9759   32.9616   22.1852 C   0  0  0  0  0  0  0  0  0  0  0  0
   -3.5880   32.2873   20.8060 C   0  0  2  0  0  0  0  0  0  0  0  0
   -3.1712   30.8868   20.9971 N   0  0  0  0  0  0  0  0  0  0  0  0
   -2.4223   33.0949   20.1416 C   0  0  2  0  0  0  0  0  0  0  0  0
   -2.8337   34.5888   19.9250 C   0  0  2  0  0  0  0  0  0  0  0  0
   -1.6910   35.2465   19.3244 O   0  0  0  0  0  0  0  0  0  0  0  0
   -3.2056   35.2413   21.2952 C   0  0  1  0  0  0  0  0  0  0  0  0
   -3.5789   36.5588   21.0707 O   0  0  0  0  0  0  0  0  0  0  0  0
   -1.7502   36.2450   18.4102 C   0  0  1  0  0  0  0  0  0  0  0  0
   -0.3731   36.9423   18.2587 C   0  0  2  0  0  0  0  0  0  0  0  0
   -0.1518   37.9348   19.2183 O   0  0  0  0  0  0  0  0  0  0  0  0
   -0.4601   37.3455   16.7983 C   0  0  1  0  0  0  0  0  0  0  0  0
   -1.1856   36.2069   16.0676 C   0  0  2  0  0  0  0  0  0  0  0  0
   -2.1264   35.8247   17.0710 O   0  0  0  0  0  0  0  0  0  0  0  0
   -0.2832   35.0045   15.6264 C   0  0  0  0  0  0  0  0  0  0  0  0
   -1.0980   34.1291   14.8026 O   0  0  0  0  0  0  0  0  0  0  0  0
   -1.2127   39.3263   15.5211 C   0  0  2  0  0  0  0  0  0  0  0  0
   -1.2232   38.6190   16.7309 O   0  0  0  0  0  0  0  0  0  0  0  0
   -0.1613   40.5192   15.5569 C   0  0  1  0  0  0  0  0  0  0  0  0
   -5.2944   40.0605   14.0463 N   0  0  0  0  0  0  0  0  0  0  0  0
   -0.2506   41.2734   14.1286 C   0  0  1  0  0  0  0  0  0  0  0  0
    0.0567   40.2624   13.0419 O   0  0  0  0  0  0  0  0  0  0  0  0
   -1.7356   41.8885   13.9216 C   0  0  2  0  0  0  0  0  0  0  0  0
   -2.0015   42.8568   14.9646 O   0  0  0  0  0  0  0  0  0  0  0  0
   -2.7871   40.6419   13.9280 C   0  0  1  0  0  0  0  0  0  0  0  0
   -2.6382   39.8694   15.2098 O   0  0  0  0  0  0  0  0  0  0  0  0
   -4.2735   41.1143   13.7584 C   0  0  0  0  0  0  0  0  0  0  0  0
   -0.4488   41.4229   16.7194 N   0  0  0  0  0  0  0  0  0  0  0  0
  1  2  1  1  0  0  0
  1  3  1  0  0  0  0
  1 10  1  0  0  0  0
  3  4  1  1  0  0  0
  3  5  1  0  0  0  0
  5  6  1  6  0  0  0
  5  7  1  0  0  0  0
  7  8  1  1  0  0  0
  7  9  1  0  0  0  0
  9 10  1  0  0  0  0
  9 11  1  6  0  0  0
 11 12  1  0  0  0  0
 13 14  1  1  0  0  0
 13 15  1  0  0  0  0
 13 21  1  0  0  0  0
 16 15  1  0  0  0  0
 16 17  1  1  0  0  0
 18  2  1  6  0  0  0
 18 16  1  0  0  0  0
 19 18  1  0  0  0  0
 19 20  1  1  0  0  0
 21 19  1  0  0  0  0
 21 22  1  6  0  0  0
 23 20  1  1  0  0  0
 23 24  1  0  0  0  0
 23 28  1  0  0  0  0
 24 25  1  1  0  0  0
 24 26  1  0  0  0  0
 26 27  1  0  0  0  0
 26 32  1  1  0  0  0
 27 28  1  0  0  0  0
 27 29  1  1  0  0  0
 29 30  1  0  0  0  0
 31 32  1  1  0  0  0
 31 40  1  0  0  0  0
 33 31  1  0  0  0  0
 33 42  1  1  0  0  0
 35 33  1  0  0  0  0
 35 36  1  6  0  0  0
 37 35  1  0  0  0  0
 37 38  1  1  0  0  0
 37 39  1  0  0  0  0
 39 40  1  0  0  0  0
 39 41  1  1  0  0  0
 41 34  1  0  0  0  0
M  END
>  <CHROM.1>
176.13331636,-36.89111833,166.57385648,145.51828747,165.69764381,167.75723362
-172.33330334,-99.22503256,-167.60543043,-1.43470102,35.75087536,17.61674299
-1.45853377,0.81964788,-0.57885174

>  <Name>
2et4_lig

>  <RI>
0

>  <Rbt.Current_Directory>
/home/itssahil/PROJECTS/Mol_Feturizer/New_Systems/rnas/2et4

>  <Rbt.Executable>
rbdock ($Id: //depot/dev/client3/rdock/2013.1/src/exe/rbdock.cxx#4 $)

>  <Rbt.Library>
libRbt.so (2013.1, Build901 2013/11/27)

>  <Rbt.Parameter_File>
/export/apps/rDock/src/rDock_2013.1_src/data/scripts/dock_solv.prm

>  <Rbt.Receptor>
prm/blind_docking_100.prm

>  <SCORE>
18.9167

>  <SCORE.INTER>
5.701

>  <SCORE.INTER.CONST>
1

>  <SCORE.INTER.POLAR>
-0.368423

>  <SCORE.INTER.ROT>
9

>  <SCORE.INTER.SOLV>
21.9732

>  <SCORE.INTER.VDW>
-11.8957

>  <SCORE.INTER.norm>
0.135738

>  <SCORE.INTRA>
-1.4644

>  <SCORE.INTRA.DIHEDRAL>
-6.8202

>  <SCORE.INTRA.DIHEDRAL.0>
21.6909

>  <SCORE.INTRA.POLAR>
0

>  <SCORE.INTRA.POLAR.0>
0

>  <SCORE.INTRA.REPUL>
0

>  <SCORE.INTRA.REPUL.0>
0

>  <SCORE.INTRA.SOLV>
-1.7697

>  <SCORE.INTRA.SOLV.lig_0>
-116.606

>  <SCORE.INTRA.VDW>
2.83056

>  <SCORE.INTRA.VDW.0>
-6.01229

>  <SCORE.INTRA.norm>
-0.0348666

>  <SCORE.RESTR>
14.6801

>  <SCORE.RESTR.CAVITY>
14.6801

>  <SCORE.RESTR.norm>
0.349527

>  <SCORE.SYSTEM>
0

>  <SCORE.SYSTEM.CONST>
0

>  <SCORE.SYSTEM.DIHEDRAL>
0

>  <SCORE.SYSTEM.SOLV>
0

>  <SCORE.SYSTEM.norm>
0

>  <SCORE.heavy>
42

>  <SCORE.norm>
0.450398

>  <RMSD>
34.470

$$$$
2et4_lig
 OpenBabel11021811423D
libRbt.so/2013.1/901 2013/11/27
 42 45  0  0  0  0  0  0  0  0999 V2000
   -0.8046   33.2503   17.5806 C   0  0  2  0  0  0  0  0  0  0  0  0
   -2.0442   33.1094   18.2777 O   0  0  0  0  0  0  0  0  0  0  0  0
   -1.0126   32.6731   16.1572 C   0  0  2  0  0  0  0  0  0  0  0  0
   -2.0908   33.3397   15.4725 N   0  0  0  0  0  0  0  0  0  0  0  0
   -1.2745   31.1425   16.2570 C   0  0  1  0  0  0  0  0  0  0  0  0
   -1.4451   30.6236   14.9751 O   0  0  0  0  0  0  0  0  0  0  0  0
   -0.0667   30.4874   17.0065 C   0  0  2  0  0  0  0  0  0  0  0  0
   -0.2663   29.0948   17.1264 O   0  0  0  0  0  0  0  0  0  0  0  0
    0.1080   31.1071   18.4262 C   0  0  2  0  0  0  0  0  0  0  0  0
    0.2881   32.5190   18.2827 O   0  0  0  0  0  0  0  0  0  0  0  0
    1.3328   30.5047   19.1894 C   0  0  0  0  0  0  0  0  0  0  0  0
    1.4708   31.0478   20.4960 N   0  0  0  0  0  0  0  0  0  0  0  0
   -3.8844   33.9317   22.0976 C   0  0  2  0  0  0  0  0  0  0  0  0
   -4.0279   34.1828   23.5371 N   0  0  0  0  0  0  0  0  0  0  0  0
   -3.2144   32.4723   21.8658 C   0  0  0  0  0  0  0  0  0  0  0  0
   -3.0488   32.2131   20.3125 C   0  0  2  0  0  0  0  0  0  0  0  0
   -2.4187   30.9059   20.0556 N   0  0  0  0  0  0  0  0  0  0  0  0
   -2.1722   33.3495   19.6858 C   0  0  2  0  0  0  0  0  0  0  0  0
   -2.8149   34.7528   19.9420 C   0  0  2  0  0  0  0  0  0  0  0  0
   -1.9269   35.7271   19.3409 O   0  0  0  0  0  0  0  0  0  0  0  0
   -2.9641   34.9962   21.4782 C   0  0  1  0  0  0  0  0  0  0  0  0
   -3.5484   36.2395   21.6741 O   0  0  0  0  0  0  0  0  0  0  0  0
   -2.2755   36.6245   18.3873 C   0  0  1  0  0  0  0  0  0  0  0  0
   -1.5456   37.9760   18.6025 C   0  0  2  0  0  0  0  0  0  0  0  0
   -2.1937   38.8100   19.5188 O   0  0  0  0  0  0  0  0  0  0  0  0
   -1.4315   38.4276   17.1583 C   0  0  1  0  0  0  0  0  0  0  0  0
   -1.1600   37.1694   16.3216 C   0  0  2  0  0  0  0  0  0  0  0  0
   -1.9619   36.2220   17.0266 O   0  0  0  0  0  0  0  0  0  0  0  0
    0.3391   36.7209   16.2436 C   0  0  0  0  0  0  0  0  0  0  0  0
    0.7172   36.2378   17.5600 O   0  0  0  0  0  0  0  0  0  0  0  0
   -2.6869   40.1142   15.8541 C   0  0  2  0  0  0  0  0  0  0  0  0
   -2.7197   39.0694   16.7876 O   0  0  0  0  0  0  0  0  0  0  0  0
   -2.9062   39.5751   14.3739 C   0  0  1  0  0  0  0  0  0  0  0  0
    0.4247   44.0252   14.5734 N   0  0  0  0  0  0  0  0  0  0  0  0
   -2.8272   40.8540   13.3866 C   0  0  1  0  0  0  0  0  0  0  0  0
   -3.8972   41.8414   13.8082 O   0  0  0  0  0  0  0  0  0  0  0  0
   -1.3608   41.5370   13.4847 C   0  0  2  0  0  0  0  0  0  0  0  0
   -0.3585   40.5787   13.0686 O   0  0  0  0  0  0  0  0  0  0  0  0
   -1.1581   42.0423   15.0221 C   0  0  1  0  0  0  0  0  0  0  0  0
   -1.3344   40.8783   15.9579 O   0  0  0  0  0  0  0  0  0  0  0  0
    0.2452   42.7051   15.2520 C   0  0  0  0  0  0  0  0  0  0  0  0
   -1.8877   38.5207   14.0549 N   0  0  0  0  0  0  0  0  0  0  0  0
  1  2  1  1  0  0  0
  1  3  1  0  0  0  0
  1 10  1  0  0  0  0
  3  4  1  1  0  0  0
  3  5  1  0  0  0  0
  5  6  1  6  0  0  0
  5  7  1  0  0  0  0
  7  8  1  1  0  0  0
  7  9  1  0  0  0  0
  9 10  1  0  0  0  0
  9 11  1  6  0  0  0
 11 12  1  0  0  0  0
 13 14  1  1  0  0  0
 13 15  1  0  0  0  0
 13 21  1  0  0  0  0
 16 15  1  0  0  0  0
 16 17  1  1  0  0  0
 18  2  1  6  0  0  0
 18 16  1  0  0  0  0
 19 18  1  0  0  0  0
 19 20  1  1  0  0  0
 21 19  1  0  0  0  0
 21 22  1  6  0  0  0
 23 20  1  1  0  0  0
 23 24  1  0  0  0  0
 23 28  1  0  0  0  0
 24 25  1  1  0  0  0
 24 26  1  0  0  0  0
 26 27  1  0  0  0  0
 26 32  1  6  0  0  0
 27 28  1  0  0  0  0
 27 29  1  1  0  0  0
 29 30  1  0  0  0  0
 31 32  1  1  0  0  0
 31 40  1  0  0  0  0
 33 31  1  0  0  0  0
 33 42  1  6  0  0  0
 35 33  1  0  0  0  0
 35 36  1  1  0  0  0
 37 35  1  0  0  0  0
 37 38  1  1  0  0  0
 37 39  1  0  0  0  0
 39 40  1  0  0  0  0
 39 41  1  6  0  0  0
 41 34  1  0  0  0  0
M  END
>  <CHROM.1>
170.29927227,-178.57362094,-136.55297546,122.52405153,143.19171432,148.26466430
69.30360664,92.43397169,69.37265367,-1.55853681,35.90927076,17.50396252,-1.52815882
1.14180411,-0.48019562

>  <Name>
2et4_lig

>  <RI>
0

>  <Rbt.Current_Directory>
/home/itssahil/PROJECTS/Mol_Feturizer/New_Systems/rnas/2et4

>  <Rbt.Executable>
rbdock ($Id: //depot/dev/client3/rdock/2013.1/src/exe/rbdock.cxx#4 $)

>  <Rbt.Library>
libRbt.so (2013.1, Build901 2013/11/27)

>  <Rbt.Parameter_File>
/export/apps/rDock/src/rDock_2013.1_src/data/scripts/dock_solv.prm

>  <Rbt.Receptor>
prm/blind_docking_100.prm

>  <SCORE>
24.343

>  <SCORE.INTER>
3.39221

>  <SCORE.INTER.CONST>
1

>  <SCORE.INTER.POLAR>
-0.168857

>  <SCORE.INTER.ROT>
9

>  <SCORE.INTER.SOLV>
21.8917

>  <SCORE.INTER.VDW>
-14.0729

>  <SCORE.INTER.norm>
0.0807669

>  <SCORE.INTRA>
4.13408

>  <SCORE.INTRA.DIHEDRAL>
5.38976

>  <SCORE.INTRA.DIHEDRAL.0>
21.6909

>  <SCORE.INTRA.POLAR>
0

>  <SCORE.INTRA.POLAR.0>
0

>  <SCORE.INTRA.REPUL>
0

>  <SCORE.INTRA.REPUL.0>
0

>  <SCORE.INTRA.SOLV>
3.2782

>  <SCORE.INTRA.SOLV.lig_0>
-116.606

>  <SCORE.INTRA.VDW>
-0.199896

>  <SCORE.INTRA.VDW.0>
-6.01229

>  <SCORE.INTRA.norm>
0.0984306

>  <SCORE.RESTR>
16.8168

>  <SCORE.RESTR.CAVITY>
16.8168

>  <SCORE.RESTR.norm>
0.400399

>  <SCORE.SYSTEM>
0

>  <SCORE.SYSTEM.CONST>
0

>  <SCORE.SYSTEM.DIHEDRAL>
0

>  <SCORE.SYSTEM.SOLV>
0

>  <SCORE.SYSTEM.norm>
0

>  <SCORE.heavy>
42

>  <SCORE.norm>
0.579596

>  <RMSD>
34.651

$$$$
2et4_lig
 OpenBabel11021811423D
libRbt.so/2013.1/901 2013/11/27
 42 45  0  0  0  0  0  0  0  0999 V2000
   -0.4093   33.2659   16.8213 C   0  0  2  0  0  0  0  0  0  0  0  0
   -1.6200   33.3846   17.5712 O   0  0  0  0  0  0  0  0  0  0  0  0
   -0.4327   31.8775   16.1325 C   0  0  2  0  0  0  0  0  0  0  0  0
   -1.5969   31.7248   15.2977 N   0  0  0  0  0  0  0  0  0  0  0  0
   -0.3728   30.7647   17.2185 C   0  0  1  0  0  0  0  0  0  0  0  0
   -0.3776   29.5180   16.5960 O   0  0  0  0  0  0  0  0  0  0  0  0
    0.9130   30.9919   18.0815 C   0  0  2  0  0  0  0  0  0  0  0  0
    1.0040   30.0055   19.0876 O   0  0  0  0  0  0  0  0  0  0  0  0
    0.8951   32.4031   18.7436 C   0  0  2  0  0  0  0  0  0  0  0  0
    0.7819   33.3849   17.7092 O   0  0  0  0  0  0  0  0  0  0  0  0
    2.1858   32.6814   19.5814 C   0  0  0  0  0  0  0  0  0  0  0  0
    2.4975   31.6077   20.4596 N   0  0  0  0  0  0  0  0  0  0  0  0
   -3.2082   35.7566   20.8124 C   0  0  2  0  0  0  0  0  0  0  0  0
   -3.2885   36.4674   22.0947 N   0  0  0  0  0  0  0  0  0  0  0  0
   -2.9195   34.1830   21.0817 C   0  0  0  0  0  0  0  0  0  0  0  0
   -2.8197   33.4243   19.6955 C   0  0  2  0  0  0  0  0  0  0  0  0
   -2.5319   31.9925   19.8921 N   0  0  0  0  0  0  0  0  0  0  0  0
   -1.6878   34.0719   18.8282 C   0  0  2  0  0  0  0  0  0  0  0  0
   -1.9640   35.5950   18.6009 C   0  0  2  0  0  0  0  0  0  0  0  0
   -0.8613   36.0985   17.8075 O   0  0  0  0  0  0  0  0  0  0  0  0
   -2.0519   36.3299   19.9770 C   0  0  1  0  0  0  0  0  0  0  0  0
   -2.3109   37.6733   19.7450 O   0  0  0  0  0  0  0  0  0  0  0  0
   -0.8490   37.2764   17.1377 C   0  0  1  0  0  0  0  0  0  0  0  0
    0.3308   37.3319   16.1324 C   0  0  2  0  0  0  0  0  0  0  0  0
    1.5332   37.7383   16.7191 O   0  0  0  0  0  0  0  0  0  0  0  0
   -0.2949   38.2115   15.0659 C   0  0  1  0  0  0  0  0  0  0  0  0
   -1.7758   37.8163   14.9795 C   0  0  2  0  0  0  0  0  0  0  0  0
   -2.0436   37.5462   16.3554 O   0  0  0  0  0  0  0  0  0  0  0  0
   -2.0930   36.5805   14.0703 C   0  0  0  0  0  0  0  0  0  0  0  0
   -1.2597   35.4813   14.5248 O   0  0  0  0  0  0  0  0  0  0  0  0
   -0.2915   40.6271   14.5307 C   0  0  2  0  0  0  0  0  0  0  0  0
   -0.1248   39.6241   15.4952 O   0  0  0  0  0  0  0  0  0  0  0  0
    0.0341   42.0647   15.1281 C   0  0  1  0  0  0  0  0  0  0  0  0
   -4.5631   41.5214   13.5506 N   0  0  0  0  0  0  0  0  0  0  0  0
   -0.2115   43.1378   13.9428 C   0  0  1  0  0  0  0  0  0  0  0  0
    0.6935   42.7737   12.7827 O   0  0  0  0  0  0  0  0  0  0  0  0
   -1.7638   43.1014   13.4787 C   0  0  2  0  0  0  0  0  0  0  0  0
   -2.6063   43.4614   14.5998 O   0  0  0  0  0  0  0  0  0  0  0  0
   -2.0693   41.6044   12.9084 C   0  0  1  0  0  0  0  0  0  0  0  0
   -1.7432   40.5895   13.9693 O   0  0  0  0  0  0  0  0  0  0  0  0
   -3.5589   41.4345   12.4463 C   0  0  0  0  0  0  0  0  0  0  0  0
   -0.8123   42.3213   16.3399 N   0  0  0  0  0  0  0  0  0  0  0  0
  1  2  1  1  0  0  0
  1  3  1  0  0  0  0
  1 10  1  0  0  0  0
  3  4  1  1  0  0  0
  3  5  1  0  0  0  0
  5  6  1  6  0  0  0
  5  7  1  0  0  0  0
  7  8  1  1  0  0  0
  7  9  1  0  0  0  0
  9 10  1  0  0  0  0
  9 11  1  6  0  0  0
 11 12  1  0  0  0  0
 13 14  1  1  0  0  0
 13 15  1  0  0  0  0
 13 21  1  0  0  0  0
 16 15  1  0  0  0  0
 16 17  1  1  0  0  0
 18  2  1  6  0  0  0
 18 16  1  0  0  0  0
 19 18  1  0  0  0  0
 19 20  1  6  0  0  0
 21 19  1  0  0  0  0
 21 22  1  6  0  0  0
 23 20  1  6  0  0  0
 23 24  1  0  0  0  0
 23 28  1  0  0  0  0
 24 25  1  1  0  0  0
 24 26  1  0  0  0  0
 26 27  1  0  0  0  0
 26 32  1  1  0  0  0
 27 28  1  0  0  0  0
 27 29  1  6  0  0  0
 29 30  1  0  0  0  0
 31 32  1  1  0  0  0
 31 40  1  0  0  0  0
 33 31  1  0  0  0  0
 33 42  1  1  0  0  0
 35 33  1  0  0  0  0
 35 36  1  6  0  0  0
 37 35  1  0  0  0  0
 37 38  1  1  0  0  0
 37 39  1  0  0  0  0
 39 40  1  0  0  0  0
 39 41  1  1  0  0  0
 41 34  1  0  0  0  0
M  END
>  <CHROM.1>
144.98686422,-48.57435099,-150.68333678,164.25560469,-166.15687860,163.19651425
54.06902166,-175.61712804,-65.94774329,-1.02677813,36.51618981,16.79267074
-1.34930561,1.08750321,-0.64144912

>  <Name>
2et4_lig

>  <RI>
0

>  <Rbt.Current_Directory>
/home/itssahil/PROJECTS/Mol_Feturizer/New_Systems/rnas/2et4

>  <Rbt.Executable>
rbdock ($Id: //depot/dev/client3/rdock/2013.1/src/exe/rbdock.cxx#4 $)

>  <Rbt.Library>
libRbt.so (2013.1, Build901 2013/11/27)

>  <Rbt.Parameter_File>
/export/apps/rDock/src/rDock_2013.1_src/data/scripts/dock_solv.prm

>  <Rbt.Receptor>
prm/blind_docking_100.prm

>  <SCORE>
8.33901

>  <SCORE.INTER>
-3.00967

>  <SCORE.INTER.CONST>
1

>  <SCORE.INTER.POLAR>
-0.705688

>  <SCORE.INTER.ROT>
9

>  <SCORE.INTER.SOLV>
22.2745

>  <SCORE.INTER.VDW>
-16.679

>  <SCORE.INTER.norm>
-0.0716588

>  <SCORE.INTRA>
-3.51763

>  <SCORE.INTRA.DIHEDRAL>
-9.34737

>  <SCORE.INTRA.DIHEDRAL.0>
21.6909

>  <SCORE.INTRA.POLAR>
0

>  <SCORE.INTRA.POLAR.0>
0

>  <SCORE.INTRA.REPUL>
0

>  <SCORE.INTRA.REPUL.0>
0

>  <SCORE.INTRA.SOLV>
0.635099

>  <SCORE.INTRA.SOLV.lig_0>
-116.606

>  <SCORE.INTRA.VDW>
0.838505

>  <SCORE.INTRA.VDW.0>
-6.01229

>  <SCORE.INTRA.norm>
-0.0837531

>  <SCORE.RESTR>
14.8663

>  <SCORE.RESTR.CAVITY>
14.8663

>  <SCORE.RESTR.norm>
0.35396

>  <SCORE.SYSTEM>
0

>  <SCORE.SYSTEM.CONST>
0

>  <SCORE.SYSTEM.DIHEDRAL>
0

>  <SCORE.SYSTEM.SOLV>
0

>  <SCORE.SYSTEM.norm>
0

>  <SCORE.heavy>
42

>  <SCORE.norm>
0.198548

>  <RMSD>
34.758

$$$$
2et4_lig
 OpenBabel11021811423D
libRbt.so/2013.1/901 2013/11/27
 42 45  0  0  0  0  0  0  0  0999 V2000
    0.0328   41.8564   14.4417 C   0  0  2  0  0  0  0  0  0  0  0  0
   -1.2628   41.6231   14.9975 O   0  0  0  0  0  0  0  0  0  0  0  0
    0.5869   43.1459   15.0995 C   0  0  2  0  0  0  0  0  0  0  0  0
    0.6336   43.0252   16.5344 N   0  0  0  0  0  0  0  0  0  0  0  0
   -0.2872   44.3587   14.6681 C   0  0  1  0  0  0  0  0  0  0  0  0
    0.2227   45.5187   15.2478 O   0  0  0  0  0  0  0  0  0  0  0  0
   -0.2895   44.4285   13.1044 C   0  0  2  0  0  0  0  0  0  0  0  0
   -1.0794   45.5141   12.6673 O   0  0  0  0  0  0  0  0  0  0  0  0
   -0.8443   43.1074   12.4905 C   0  0  2  0  0  0  0  0  0  0  0  0
   -0.0431   42.0200   12.9621 O   0  0  0  0  0  0  0  0  0  0  0  0
   -0.8226   43.1253   10.9270 C   0  0  0  0  0  0  0  0  0  0  0  0
    0.4732   43.4011   10.4113 N   0  0  0  0  0  0  0  0  0  0  0  0
   -4.7575   39.1103   14.6406 C   0  0  2  0  0  0  0  0  0  0  0  0
   -5.6858   38.1000   14.1178 N   0  0  0  0  0  0  0  0  0  0  0  0
   -4.5202   40.2600   13.5207 C   0  0  0  0  0  0  0  0  0  0  0  0
   -3.5075   41.3388   14.0843 C   0  0  2  0  0  0  0  0  0  0  0  0
   -3.2424   42.3915   13.0877 N   0  0  0  0  0  0  0  0  0  0  0  0
   -2.1633   40.6367   14.4750 C   0  0  2  0  0  0  0  0  0  0  0  0
   -2.4109   39.5114   15.5335 C   0  0  2  0  0  0  0  0  0  0  0  0
   -1.1185   38.9195   15.8136 O   0  0  0  0  0  0  0  0  0  0  0  0
   -3.4053   38.4518   14.9594 C   0  0  1  0  0  0  0  0  0  0  0  0
   -3.6164   37.4758   15.9231 O   0  0  0  0  0  0  0  0  0  0  0  0
   -0.9107   37.6452   16.2248 C   0  0  1  0  0  0  0  0  0  0  0  0
    0.5265   37.4678   16.7804 C   0  0  2  0  0  0  0  0  0  0  0  0
    1.4742   37.2213   15.7824 O   0  0  0  0  0  0  0  0  0  0  0  0
    0.2597   36.3907   17.8155 C   0  0  1  0  0  0  0  0  0  0  0  0
   -1.1114   36.7005   18.4328 C   0  0  2  0  0  0  0  0  0  0  0  0
   -1.7986   37.1927   17.2825 O   0  0  0  0  0  0  0  0  0  0  0  0
   -1.1057   37.7456   19.6001 C   0  0  0  0  0  0  0  0  0  0  0  0
   -2.2335   37.4399   20.4625 O   0  0  0  0  0  0  0  0  0  0  0  0
    0.1570   33.9196   17.8857 C   0  0  2  0  0  0  0  0  0  0  0  0
    0.2645   35.0823   17.1106 O   0  0  0  0  0  0  0  0  0  0  0  0
    1.5858   33.2859   18.1800 C   0  0  1  0  0  0  0  0  0  0  0  0
   -1.2855   30.0849   15.8176 N   0  0  0  0  0  0  0  0  0  0  0  0
    1.3402   31.9480   19.0554 C   0  0  1  0  0  0  0  0  0  0  0  0
    0.6088   32.3421   20.3231 O   0  0  0  0  0  0  0  0  0  0  0  0
    0.4600   30.8860   18.2047 C   0  0  2  0  0  0  0  0  0  0  0  0
    1.1828   30.5184   17.0053 O   0  0  0  0  0  0  0  0  0  0  0  0
   -0.9801   31.5841   17.8905 C   0  0  1  0  0  0  0  0  0  0  0  0
   -0.7578   32.8843   17.1679 O   0  0  0  0  0  0  0  0  0  0  0  0
   -1.9208   30.6566   17.0444 C   0  0  0  0  0  0  0  0  0  0  0  0
    2.3065   33.0224   16.8908 N   0  0  0  0  0  0  0  0  0  0  0  0
  1  2  1  1  0  0  0
  1  3  1  0  0  0  0
  1 10  1  0  0  0  0
  3  4  1  1  0  0  0
  3  5  1  0  0  0  0
  5  6  1  1  0  0  0
  5  7  1  0  0  0  0
  7  8  1  1  0  0  0
  7  9  1  0  0  0  0
  9 10  1  0  0  0  0
  9 11  1  6  0  0  0
 11 12  1  0  0  0  0
 13 14  1  6  0  0  0
 13 15  1  0  0  0  0
 13 21  1  0  0  0  0
 16 15  1  0  0  0  0
 16 17  1  6  0  0  0
 18  2  1  1  0  0  0
 18 16  1  0  0  0  0
 19 18  1  0  0  0  0
 19 20  1  6  0  0  0
 21 19  1  0  0  0  0
 21 22  1  1  0  0  0
 23 20  1  1  0  0  0
 23 24  1  0  0  0  0
 23 28  1  0  0  0  0
 24 25  1  6  0  0  0
 24 26  1  0  0  0  0
 26 27  1  0  0  0  0
 26 32  1  6  0  0  0
 27 28  1  0  0  0  0
 27 29  1  1  0  0  0
 29 30  1  0  0  0  0
 31 32  1  6  0  0  0
 31 40  1  0  0  0  0
 33 31  1  0  0  0  0
 33 42  1  6  0  0  0
 35 33  1  0  0  0  0
 35 36  1  1  0  0  0
 37 35  1  0  0  0  0
 37 38  1  6  0  0  0
 37 39  1  0  0  0  0
 39 40  1  0  0  0  0
 39 41  1  6  0  0  0
 41 34  1  0  0  0  0
M  END
>  <CHROM.1>
169.98341916,55.19681237,-123.02816245,-152.48931745,-165.00106530,174.39331968
-152.09114374,-96.67218954,-50.27203862,-0.91989789,38.11846396,15.84329707
-1.67229768,0.43238790,2.79231887

>  <Name>
2et4_lig

>  <RI>
0

>  <Rbt.Current_Directory>
/home/itssahil/PROJECTS/Mol_Feturizer/New_Systems/rnas/2et4

>  <Rbt.Executable>
rbdock ($Id: //depot/dev/client3/rdock/2013.1/src/exe/rbdock.cxx#4 $)

>  <Rbt.Library>
libRbt.so (2013.1, Build901 2013/11/27)

>  <Rbt.Parameter_File>
/export/apps/rDock/src/rDock_2013.1_src/data/scripts/dock_solv.prm

>  <Rbt.Receptor>
prm/blind_docking_100.prm

>  <SCORE>
29.2848

>  <SCORE.INTER>
4.96393

>  <SCORE.INTER.CONST>
1

>  <SCORE.INTER.POLAR>
-1.48488

>  <SCORE.INTER.ROT>
9

>  <SCORE.INTER.SOLV>
30.9701

>  <SCORE.INTER.VDW>
-11.6645

>  <SCORE.INTER.norm>
0.118189

>  <SCORE.INTRA>
5.5456

>  <SCORE.INTRA.DIHEDRAL>
-2.12069

>  <SCORE.INTRA.DIHEDRAL.0>
21.6909

>  <SCORE.INTRA.POLAR>
0

>  <SCORE.INTRA.POLAR.0>
0

>  <SCORE.INTRA.REPUL>
0

>  <SCORE.INTRA.REPUL.0>
0

>  <SCORE.INTRA.SOLV>
1.70653

>  <SCORE.INTRA.SOLV.lig_0>
-116.606

>  <SCORE.INTRA.VDW>
5.75268

>  <SCORE.INTRA.VDW.0>
-6.01229

>  <SCORE.INTRA.norm>
0.132038

>  <SCORE.RESTR>
18.7753

>  <SCORE.RESTR.CAVITY>
18.7753

>  <SCORE.RESTR.norm>
0.44703

>  <SCORE.SYSTEM>
0

>  <SCORE.SYSTEM.CONST>
0

>  <SCORE.SYSTEM.DIHEDRAL>
0

>  <SCORE.SYSTEM.SOLV>
0

>  <SCORE.SYSTEM.norm>
0

>  <SCORE.heavy>
42

>  <SCORE.norm>
0.697257

>  <RMSD>
35.211

$$$$
