1y26_lig
 OpenBabel02221317003D

 10 11  0  0  0  0  0  0  0  0999 V2000
   19.4470  -17.0840    2.2870 N   0  0  0  0  0  0  0  0  0  0  0  0
   18.6510  -18.1390    2.0960 C   0  0  0  0  0  0  0  0  0  0  0  0
   18.2700  -19.0580    2.9810 N   0  0  0  0  0  0  0  0  0  0  0  0
   18.7840  -18.7920    4.2030 C   0  0  0  0  0  0  0  0  0  0  0  0
   19.6060  -17.7380    4.5490 C   0  0  0  0  0  0  0  0  0  0  0  0
   19.9440  -16.8540    3.5200 C   0  0  0  0  0  0  0  0  0  0  0  0
   20.7390  -15.8180    3.7340 N   0  0  0  0  0  0  0  0  0  0  0  0
   19.9600  -17.7650    5.8780 N   0  0  0  0  0  0  0  0  0  0  0  0
   19.3170  -18.8260    6.3300 C   0  0  0  0  0  0  0  0  0  0  0  0
   18.5990  -19.4960    5.3630 N   0  0  0  0  0  0  0  0  0  0  0  0
  1  2  2  0  0  0  0
  2  3  1  0  0  0  0
  3  4  2  0  0  0  0
  5  4  1  0  0  0  0
  5  6  2  0  0  0  0
  6  1  1  0  0  0  0
  6  7  1  0  0  0  0
  8  5  1  0  0  0  0
  9  8  1  0  0  0  0
 10  4  1  0  0  0  0
 10  9  2  0  0  0  0
M  END
$$$$
